=
 OpenBabel11122412343D

 30 35  0  0  1  0  0  0  0  0999 V2000
  161.6670  209.4120  150.8210 C   0  0  0  0  0  0  0  0  0  0  0  0
  162.0130  210.8850  148.8320 C   0  0  0  0  0  0  0  0  0  0  0  0
  159.6970  212.5210  152.9730 C   0  0  0  0  0  2  0  0  0  0  0  0
  161.1900  209.2530  152.1520 C   0  0  0  0  0  0  0  0  0  0  0  0
  162.3390  208.2390  150.1580 C   0  0  0  0  0  2  0  0  0  0  0  0
  161.0900  205.6230  152.3290 O   0  0  0  0  0  0  0  0  0  0  0  0
  161.5620  208.6810  155.1390 C   0  0  1  0  0  3  0  0  0  0  0  0
  161.3020  206.7890  151.8920 C   0  0  0  0  0  0  0  0  0  0  0  0
  160.8400  210.0050  155.2840 C   0  0  2  0  0  3  0  0  0  0  0  0
  159.3210  211.6820  154.2030 C   0  0  1  0  0  3  0  0  0  0  0  0
  161.7080  206.9820  150.5330 N   0  0  0  0  0  0  0  0  0  0  0  0
  161.1480  207.9350  152.7490 N   0  0  0  0  0  0  0  0  0  0  0  0
  161.8370  212.1280  148.2170 C   0  0  0  0  0  3  0  0  0  0  0  0
  159.9600  209.7700  156.4680 C   0  0  0  0  0  2  0  0  0  0  0  0
  161.6380  208.0680  156.4060 O   0  0  0  0  0  0  0  0  0  0  0  0
  162.6340  209.9150  148.1170 F   0  0  0  0  0  0  0  0  0  0  0  0
  160.4490  211.5570  152.1280 C   0  0  0  0  0  0  0  0  0  0  0  0
  161.2010  213.1700  148.8880 C   0  0  0  0  0  3  0  0  0  0  0  0
  161.5460  210.6670  150.1540 C   0  0  0  0  0  0  0  0  0  0  0  0
  160.6270  210.3770  152.7920 C   0  0  0  0  0  0  0  0  0  0  0  0
  157.8320  211.3870  154.1740 C   0  0  0  0  0  1  0  0  0  0  0  0
  160.0740  210.4280  154.1060 N   0  0  0  0  0  0  0  0  0  0  0  0
  160.7500  208.7550  157.2600 C   0  0  0  0  0  2  0  0  0  0  0  0
  160.1340  206.8490  154.5580 O   0  0  0  0  0  0  0  0  0  0  0  0
  160.7370  212.9800  150.1870 C   0  0  0  0  0  3  0  0  0  0  0  0
  160.9060  211.7450  150.8240 C   0  0  0  0  0  0  0  0  0  0  0  0
  160.9090  207.7580  154.1540 C   0  0  0  0  0  0  0  0  0  0  0  0
  161.7760  205.8680  149.5980 C   0  0  0  0  0  2  0  0  0  0  0  0
  160.9690  206.3510  147.3100 C   0  0  0  0  0  1  0  0  0  0  0  0
  160.5610  205.8800  148.6890 C   0  0  0  0  0  2  0  0  0  0  0  0
  1  4  1  0  0  0  0
  2 19  1  0  0  0  0
  3 10  1  0  0  0  0
  4 12  1  0  0  0  0
  4 20  2  0  0  0  0
  5 11  1  0  0  0  0
  5  1  1  0  0  0  0
  7 27  1  6  0  0  0
  7  9  1  0  0  0  0
  7 15  1  0  0  0  0
  8  6  2  0  0  0  0
  8 12  1  0  0  0  0
  9 14  1  1  0  0  0
 10 21  1  6  0  0  0
 11  8  1  0  0  0  0
 12 27  1  0  0  0  0
 13  2  2  0  0  0  0
 13 18  1  0  0  0  0
 14 23  1  0  0  0  0
 15 23  1  0  0  0  0
 16  2  1  0  0  0  0
 17 20  1  0  0  0  0
 17  3  1  0  0  0  0
 18 25  2  0  0  0  0
 19  1  2  0  0  0  0
 19 26  1  0  0  0  0
 20 22  1  0  0  0  0
 22 10  1  0  0  0  0
 22  9  1  0  0  0  0
 25 26  1  0  0  0  0
 26 17  2  0  0  0  0
 27 24  2  0  0  0  0
 28 11  1  0  0  0  0
 29 30  1  0  0  0  0
 30 28  1  0  0  0  0
M  END
>  <MODEL>
1

>  <REMARK>
 VINA RESULT:      -7.0      0.000      0.000
  Name = 
  2 active torsions:
  status: ('A' for Active; 'I' for Inactive)
    1  A    between atoms: N_11  and  C_28
    2  A    between atoms: C_28  and  C_30
                            x       y       z     vdW  Elec       q    Type
                         _______ _______ _______ _____ _____    ______ ____

>  <TORSDO>
F 2

$$$$
=
 OpenBabel11122412343D

 30 35  0  0  1  0  0  0  0  0999 V2000
  161.5820  210.0860  150.9450 C   0  0  0  0  0  0  0  0  0  0  0  0
  162.0270  210.9710  148.6510 C   0  0  0  0  0  0  0  0  0  0  0  0
  159.4470  213.6050  152.0540 C   0  0  0  0  0  2  0  0  0  0  0  0
  161.0290  210.2820  152.2410 C   0  0  0  0  0  0  0  0  0  0  0  0
  162.3070  208.7970  150.6660 C   0  0  0  0  0  2  0  0  0  0  0  0
  160.9650  206.8370  153.4000 O   0  0  0  0  0  0  0  0  0  0  0  0
  161.2290  210.5570  155.2860 C   0  0  1  0  0  3  0  0  0  0  0  0
  161.1880  207.8450  152.6720 C   0  0  0  0  0  0  0  0  0  0  0  0
  160.4820  211.8490  155.0240 C   0  0  2  0  0  3  0  0  0  0  0  0
  159.0090  213.1230  153.4450 C   0  0  1  0  0  3  0  0  0  0  0  0
  161.6720  207.6720  151.3360 N   0  0  0  0  0  0  0  0  0  0  0  0
  160.9680  209.1760  153.1730 N   0  0  0  0  0  0  0  0  0  0  0  0
  161.8720  211.9930  147.7100 C   0  0  0  0  0  3  0  0  0  0  0  0
  159.5370  211.9200  156.1780 C   0  0  0  0  0  2  0  0  0  0  0  0
  161.2370  210.3150  156.6740 O   0  0  0  0  0  0  0  0  0  0  0  0
  162.7020  209.8610  148.2630 F   0  0  0  0  0  0  0  0  0  0  0  0
  160.2610  212.4700  151.5470 C   0  0  0  0  0  0  0  0  0  0  0  0
  161.1830  213.1600  148.0350 C   0  0  0  0  0  3  0  0  0  0  0  0
  161.4850  211.1080  149.9540 C   0  0  0  0  0  0  0  0  0  0  0  0
  160.4130  211.5210  152.5180 C   0  0  0  0  0  0  0  0  0  0  0  0
  157.5280  212.7880  153.4180 C   0  0  0  0  0  1  0  0  0  0  0  0
  159.7830  211.9130  153.7360 N   0  0  0  0  0  0  0  0  0  0  0  0
  160.2910  211.1830  157.2590 C   0  0  0  0  0  2  0  0  0  0  0  0
  159.8620  208.5960  155.1530 O   0  0  0  0  0  0  0  0  0  0  0  0
  160.6450  213.3180  149.3100 C   0  0  0  0  0  3  0  0  0  0  0  0
  160.7920  212.3090  150.2690 C   0  0  0  0  0  0  0  0  0  0  0  0
  160.6480  209.3820  154.5570 C   0  0  0  0  0  0  0  0  0  0  0  0
  161.8100  206.3480  150.7470 C   0  0  0  0  0  2  0  0  0  0  0  0
  160.8610  204.7490  149.1150 C   0  0  0  0  0  1  0  0  0  0  0  0
  160.8040  206.1730  149.6250 C   0  0  0  0  0  2  0  0  0  0  0  0
  1  4  1  0  0  0  0
  2 19  1  0  0  0  0
  3 10  1  0  0  0  0
  4 20  2  0  0  0  0
  4 12  1  0  0  0  0
  5  1  1  0  0  0  0
  5 11  1  0  0  0  0
  7 27  1  6  0  0  0
  7 15  1  0  0  0  0
  8 12  1  0  0  0  0
  8  6  2  0  0  0  0
  9  7  1  0  0  0  0
  9 14  1  1  0  0  0
 10 21  1  6  0  0  0
 10 22  1  0  0  0  0
 11  8  1  0  0  0  0
 12 27  1  0  0  0  0
 13 18  1  0  0  0  0
 13  2  2  0  0  0  0
 14 23  1  0  0  0  0
 15 23  1  0  0  0  0
 16  2  1  0  0  0  0
 17  3  1  0  0  0  0
 17 20  1  0  0  0  0
 18 25  2  0  0  0  0
 19 26  1  0  0  0  0
 19  1  2  0  0  0  0
 20 22  1  0  0  0  0
 22  9  1  0  0  0  0
 25 26  1  0  0  0  0
 26 17  2  0  0  0  0
 27 24  2  0  0  0  0
 28 11  1  0  0  0  0
 29 30  1  0  0  0  0
 30 28  1  0  0  0  0
M  END
>  <MODEL>
2

>  <REMARK>
 VINA RESULT:      -6.8      1.267      1.449
  Name = 
  2 active torsions:
  status: ('A' for Active; 'I' for Inactive)
    1  A    between atoms: N_11  and  C_28
    2  A    between atoms: C_28  and  C_30
                            x       y       z     vdW  Elec       q    Type
                         _______ _______ _______ _____ _____    ______ ____

>  <TORSDO>
F 2

$$$$
=
 OpenBabel11122412343D

 30 35  0  0  1  0  0  0  0  0999 V2000
  161.2910  210.7720  151.3200 C   0  0  0  0  0  0  0  0  0  0  0  0
  161.9100  211.4110  148.9840 C   0  0  0  0  0  0  0  0  0  0  0  0
  158.7040  214.1370  151.7170 C   0  0  0  0  0  2  0  0  0  0  0  0
  160.5740  211.0630  152.5130 C   0  0  0  0  0  0  0  0  0  0  0  0
  162.1680  209.5490  151.2930 C   0  0  0  0  0  2  0  0  0  0  0  0
  160.7180  207.8030  154.1150 O   0  0  0  0  0  0  0  0  0  0  0  0
  160.3910  211.7330  155.4970 C   0  0  1  0  0  3  0  0  0  0  0  0
  160.9230  208.7320  153.2850 C   0  0  0  0  0  0  0  0  0  0  0  0
  159.5550  212.8900  154.9880 C   0  0  2  0  0  3  0  0  0  0  0  0
  158.1560  213.7830  153.1080 C   0  0  1  0  0  3  0  0  0  0  0  0
  161.5740  208.4510  152.0410 N   0  0  0  0  0  0  0  0  0  0  0  0
  160.5160  210.0820  153.5760 N   0  0  0  0  0  0  0  0  0  0  0  0
  161.7650  212.2850  147.9030 C   0  0  0  0  0  3  0  0  0  0  0  0
  158.4790  212.9950  156.0180 C   0  0  0  0  0  2  0  0  0  0  0  0
  160.2620  211.6680  156.8990 O   0  0  0  0  0  0  0  0  0  0  0  0
  162.7330  210.3460  148.8210 F   0  0  0  0  0  0  0  0  0  0  0  0
  159.6790  213.0470  151.4550 C   0  0  0  0  0  0  0  0  0  0  0  0
  160.9310  213.3970  147.9950 C   0  0  0  0  0  3  0  0  0  0  0  0
  161.2090  211.6460  150.1950 C   0  0  0  0  0  0  0  0  0  0  0  0
  159.8110  212.2490  152.5560 C   0  0  0  0  0  0  0  0  0  0  0  0
  156.7290  213.2820  152.9750 C   0  0  0  0  0  1  0  0  0  0  0  0
  159.0080  212.7140  153.6380 N   0  0  0  0  0  0  0  0  0  0  0  0
  159.1720  212.4880  157.2610 C   0  0  0  0  0  2  0  0  0  0  0  0
  159.2500  209.6290  155.4920 O   0  0  0  0  0  0  0  0  0  0  0  0
  160.2350  213.6500  149.1740 C   0  0  0  0  0  3  0  0  0  0  0  0
  160.3690  212.7900  150.2710 C   0  0  0  0  0  0  0  0  0  0  0  0
  160.0180  210.4190  154.8790 C   0  0  0  0  0  0  0  0  0  0  0  0
  161.9100  207.0890  151.6540 C   0  0  0  0  0  2  0  0  0  0  0  0
  160.4560  205.6140  150.3010 C   0  0  0  0  0  1  0  0  0  0  0  0
  161.3900  206.8040  150.2570 C   0  0  0  0  0  2  0  0  0  0  0  0
  1  4  1  0  0  0  0
  2 19  1  0  0  0  0
  3 10  1  0  0  0  0
  4 20  2  0  0  0  0
  4 12  1  0  0  0  0
  5  1  1  0  0  0  0
  5 11  1  0  0  0  0
  7 27  1  6  0  0  0
  7 15  1  0  0  0  0
  8 12  1  0  0  0  0
  8  6  2  0  0  0  0
  9  7  1  0  0  0  0
  9 14  1  1  0  0  0
 10 21  1  6  0  0  0
 10 22  1  0  0  0  0
 11  8  1  0  0  0  0
 12 27  1  0  0  0  0
 13 18  1  0  0  0  0
 13  2  2  0  0  0  0
 14 23  1  0  0  0  0
 15 23  1  0  0  0  0
 16  2  1  0  0  0  0
 17  3  1  0  0  0  0
 17 20  1  0  0  0  0
 18 25  2  0  0  0  0
 19 26  1  0  0  0  0
 19  1  2  0  0  0  0
 20 22  1  0  0  0  0
 22  9  1  0  0  0  0
 25 26  1  0  0  0  0
 26 17  2  0  0  0  0
 27 24  2  0  0  0  0
 28 11  1  0  0  0  0
 30 29  1  0  0  0  0
 30 28  1  0  0  0  0
M  END
>  <MODEL>
3

>  <REMARK>
 VINA RESULT:      -6.0      1.677      2.412
  Name = 
  2 active torsions:
  status: ('A' for Active; 'I' for Inactive)
    1  A    between atoms: N_11  and  C_28
    2  A    between atoms: C_28  and  C_30
                            x       y       z     vdW  Elec       q    Type
                         _______ _______ _______ _____ _____    ______ ____

>  <TORSDO>
F 2

$$$$
=
 OpenBabel11122412343D

 30 35  0  0  1  0  0  0  0  0999 V2000
  161.7400  208.2260  151.8310 C   0  0  0  0  0  0  0  0  0  0  0  0
  162.3940  208.1360  149.4210 C   0  0  0  0  0  0  0  0  0  0  0  0
  160.4540  212.2760  151.4900 C   0  0  0  0  0  2  0  0  0  0  0  0
  161.2350  208.9760  152.9300 C   0  0  0  0  0  0  0  0  0  0  0  0
  162.1550  206.7990  152.0700 C   0  0  0  0  0  2  0  0  0  0  0  0
  160.3780  206.2500  155.1780 O   0  0  0  0  0  0  0  0  0  0  0  0
  161.4680  210.2500  155.7070 C   0  0  1  0  0  3  0  0  0  0  0  0
  160.8310  206.8680  154.1750 C   0  0  0  0  0  0  0  0  0  0  0  0
  161.0370  211.4950  154.9580 C   0  0  2  0  0  3  0  0  0  0  0  0
  159.9060  212.4150  152.9170 C   0  0  1  0  0  3  0  0  0  0  0  0
  161.2740  206.1410  153.0240 N   0  0  0  0  0  0  0  0  0  0  0  0
  160.9160  208.3050  154.1730 N   0  0  0  0  0  0  0  0  0  0  0  0
  162.4840  208.7720  148.1800 C   0  0  0  0  0  3  0  0  0  0  0  0
  160.1230  212.1630  155.9310 C   0  0  0  0  0  2  0  0  0  0  0  0
  161.4090  210.5140  157.0900 O   0  0  0  0  0  0  0  0  0  0  0  0
  162.8020  206.8450  149.4930 F   0  0  0  0  0  0  0  0  0  0  0  0
  160.9920  210.8910  151.4710 C   0  0  0  0  0  0  0  0  0  0  0  0
  162.0770  210.0960  148.0280 C   0  0  0  0  0  3  0  0  0  0  0  0
  161.8870  208.8320  150.5480 C   0  0  0  0  0  0  0  0  0  0  0  0
  160.9160  210.3330  152.7160 C   0  0  0  0  0  0  0  0  0  0  0  0
  158.3880  212.4120  152.8760 C   0  0  0  0  0  1  0  0  0  0  0  0
  160.3820  211.2500  153.6680 N   0  0  0  0  0  0  0  0  0  0  0  0
  160.6800  211.7100  157.2600 C   0  0  0  0  0  2  0  0  0  0  0  0
  159.6900  208.7020  156.1270 O   0  0  0  0  0  0  0  0  0  0  0  0
  161.5780  210.8010  149.1210 C   0  0  0  0  0  3  0  0  0  0  0  0
  161.4830  210.1840  150.3750 C   0  0  0  0  0  0  0  0  0  0  0  0
  160.6400  209.0450  155.3720 C   0  0  0  0  0  0  0  0  0  0  0  0
  161.1110  204.6970  152.9330 C   0  0  0  0  0  2  0  0  0  0  0  0
  161.2040  202.7940  151.3550 C   0  0  0  0  0  1  0  0  0  0  0  0
  160.9610  204.2830  151.4820 C   0  0  0  0  0  2  0  0  0  0  0  0
  1  5  1  0  0  0  0
  1  4  1  0  0  0  0
  2 16  1  0  0  0  0
  2 19  1  0  0  0  0
  3 10  1  0  0  0  0
  4 12  1  0  0  0  0
  5 11  1  0  0  0  0
  7 27  1  1  0  0  0
  7 15  1  0  0  0  0
  8  6  2  0  0  0  0
  9  7  1  0  0  0  0
  9 14  1  1  0  0  0
 10 21  1  6  0  0  0
 10 22  1  0  0  0  0
 11  8  1  0  0  0  0
 12  8  1  0  0  0  0
 12 27  1  0  0  0  0
 13  2  2  0  0  0  0
 14 23  1  0  0  0  0
 15 23  1  0  0  0  0
 17  3  1  0  0  0  0
 17 20  1  0  0  0  0
 18 13  1  0  0  0  0
 18 25  2  0  0  0  0
 19  1  2  0  0  0  0
 20  4  2  0  0  0  0
 20 22  1  0  0  0  0
 22  9  1  0  0  0  0
 25 26  1  0  0  0  0
 26 19  1  0  0  0  0
 26 17  2  0  0  0  0
 27 24  2  0  0  0  0
 28 11  1  0  0  0  0
 29 30  1  0  0  0  0
 30 28  1  0  0  0  0
M  END
>  <MODEL>
4

>  <REMARK>
 VINA RESULT:      -5.9      1.721      2.495
  Name = 
  2 active torsions:
  status: ('A' for Active; 'I' for Inactive)
    1  A    between atoms: N_11  and  C_28
    2  A    between atoms: C_28  and  C_30
                            x       y       z     vdW  Elec       q    Type
                         _______ _______ _______ _____ _____    ______ ____

>  <TORSDO>
F 2

$$$$
=
 OpenBabel11122412343D

 30 35  0  0  1  0  0  0  0  0999 V2000
  161.2520  207.0940  150.8330 C   0  0  0  0  0  0  0  0  0  0  0  0
  161.4850  209.5770  150.6790 C   0  0  0  0  0  0  0  0  0  0  0  0
  162.4310  206.5780  146.7680 C   0  0  0  0  0  2  0  0  0  0  0  0
  161.3140  205.8230  150.1980 C   0  0  0  0  0  0  0  0  0  0  0  0
  160.8310  207.1510  152.2770 C   0  0  0  0  0  2  0  0  0  0  0  0
  161.4280  203.6840  153.1360 O   0  0  0  0  0  0  0  0  0  0  0  0
  160.0810  203.1970  149.2090 C   0  0  1  0  0  3  0  0  0  0  0  0
  161.3330  204.7190  152.4190 C   0  0  0  0  0  0  0  0  0  0  0  0
  160.7020  203.6260  147.8950 C   0  0  2  0  0  3  0  0  0  0  0  0
  162.4410  205.0430  146.7740 C   0  0  1  0  0  3  0  0  0  0  0  0
  161.3460  206.0150  153.0270 N   0  0  0  0  0  0  0  0  0  0  0  0
  161.2020  204.6160  150.9900 N   0  0  0  0  0  0  0  0  0  0  0  0
  161.8120  210.7050  149.9210 C   0  0  0  0  0  3  0  0  0  0  0  0
  161.1940  202.3350  147.3290 C   0  0  0  0  0  2  0  0  0  0  0  0
  159.6430  201.8630  149.0860 O   0  0  0  0  0  0  0  0  0  0  0  0
  161.1240  209.7750  151.9710 F   0  0  0  0  0  0  0  0  0  0  0  0
  161.9840  206.9150  148.1440 C   0  0  0  0  0  0  0  0  0  0  0  0
  162.1990  210.5780  148.5890 C   0  0  0  0  0  3  0  0  0  0  0  0
  161.5420  208.2830  150.1010 C   0  0  0  0  0  0  0  0  0  0  0  0
  161.6400  205.7820  148.8250 C   0  0  0  0  0  0  0  0  0  0  0  0
  163.8770  204.5490  146.7720 C   0  0  0  0  0  1  0  0  0  0  0  0
  161.7750  204.6200  148.0090 N   0  0  0  0  0  0  0  0  0  0  0  0
  160.2240  201.3360  147.9130 C   0  0  0  0  0  2  0  0  0  0  0  0
  161.6530  202.3270  150.7920 O   0  0  0  0  0  0  0  0  0  0  0  0
  162.2590  209.3180  147.9980 C   0  0  0  0  0  3  0  0  0  0  0  0
  161.9320  208.1760  148.7370 C   0  0  0  0  0  0  0  0  0  0  0  0
  161.0160  203.3320  150.3740 C   0  0  0  0  0  0  0  0  0  0  0  0
  161.5810  206.1790  154.4550 C   0  0  0  0  0  2  0  0  0  0  0  0
  160.0790  207.3280  156.0490 C   0  0  0  0  0  1  0  0  0  0  0  0
  161.0610  207.5270  154.9140 C   0  0  0  0  0  2  0  0  0  0  0  0
  1  5  1  0  0  0  0
  2 16  1  0  0  0  0
  3 10  1  0  0  0  0
  3 17  1  0  0  0  0
  4  1  1  0  0  0  0
  4 12  1  0  0  0  0
  5 11  1  0  0  0  0
  7 15  1  6  0  0  0
  7 27  1  0  0  0  0
  8 11  1  0  0  0  0
  8  6  2  0  0  0  0
  9 14  1  1  0  0  0
  9 22  1  0  0  0  0
  9  7  1  0  0  0  0
 10 21  1  1  0  0  0
 10 22  1  0  0  0  0
 11 28  1  0  0  0  0
 12  8  1  0  0  0  0
 13  2  2  0  0  0  0
 14 23  1  0  0  0  0
 17 26  2  0  0  0  0
 17 20  1  0  0  0  0
 18 13  1  0  0  0  0
 19  2  1  0  0  0  0
 19  1  2  0  0  0  0
 20  4  2  0  0  0  0
 22 20  1  0  0  0  0
 23 15  1  0  0  0  0
 25 18  2  0  0  0  0
 25 26  1  0  0  0  0
 26 19  1  0  0  0  0
 27 24  2  0  0  0  0
 27 12  1  0  0  0  0
 28 30  1  0  0  0  0
 30 29  1  0  0  0  0
M  END
>  <MODEL>
5

>  <REMARK>
 VINA RESULT:      -5.7      2.702      6.771
  Name = 
  2 active torsions:
  status: ('A' for Active; 'I' for Inactive)
    1  A    between atoms: N_11  and  C_28
    2  A    between atoms: C_28  and  C_30
                            x       y       z     vdW  Elec       q    Type
                         _______ _______ _______ _____ _____    ______ ____

>  <TORSDO>
F 2

$$$$
=
 OpenBabel11122412343D

 30 35  0  0  1  0  0  0  0  0999 V2000
  160.9930  207.9520  151.3210 C   0  0  0  0  0  0  0  0  0  0  0  0
  161.4060  205.6420  150.4620 C   0  0  0  0  0  0  0  0  0  0  0  0
  160.7060  206.5690  155.3430 C   0  0  0  0  0  2  0  0  0  0  0  0
  160.7150  208.8120  152.4190 C   0  0  0  0  0  0  0  0  0  0  0  0
  161.0800  208.5560  149.9450 C   0  0  0  0  0  2  0  0  0  0  0  0
  161.5810  212.0080  150.9190 O   0  0  0  0  0  0  0  0  0  0  0  0
  158.9710  210.8090  153.9550 C   0  0  1  0  0  3  0  0  0  0  0  0
  161.3580  210.7710  151.0410 C   0  0  0  0  0  0  0  0  0  0  0  0
  159.1620  209.8140  155.0810 C   0  0  2  0  0  3  0  0  0  0  0  0
  160.5650  207.9490  156.0020 C   0  0  1  0  0  3  0  0  0  0  0  0
  161.6990  209.8730  149.9800 N   0  0  0  0  0  0  0  0  0  0  0  0
  160.7520  210.2480  152.2370 N   0  0  0  0  0  0  0  0  0  0  0  0
  161.5750  204.2790  150.7220 C   0  0  0  0  0  3  0  0  0  0  0  0
  159.3090  210.6960  156.2770 C   0  0  0  0  0  2  0  0  0  0  0  0
  158.3880  211.9790  154.4820 O   0  0  0  0  0  0  0  0  0  0  0  0
  161.5140  206.0500  149.1730 F   0  0  0  0  0  0  0  0  0  0  0  0
  160.7740  206.8940  153.8950 C   0  0  0  0  0  0  0  0  0  0  0  0
  161.4850  203.7870  152.0230 C   0  0  0  0  0  3  0  0  0  0  0  0
  161.1400  206.5470  151.5210 C   0  0  0  0  0  0  0  0  0  0  0  0
  160.5630  208.2290  153.6950 C   0  0  0  0  0  0  0  0  0  0  0  0
  161.8630  208.3070  156.7030 C   0  0  0  0  0  1  0  0  0  0  0  0
  160.3060  208.9080  154.9230 N   0  0  0  0  0  0  0  0  0  0  0  0
  158.4930  211.9050  155.8880 C   0  0  0  0  0  2  0  0  0  0  0  0
  160.8840  212.1890  153.5390 O   0  0  0  0  0  0  0  0  0  0  0  0
  161.2220  204.6570  153.0790 C   0  0  0  0  0  3  0  0  0  0  0  0
  161.0460  206.0250  152.8400 C   0  0  0  0  0  0  0  0  0  0  0  0
  160.2470  211.1420  153.2400 C   0  0  0  0  0  0  0  0  0  0  0  0
  162.4080  210.3350  148.7950 C   0  0  0  0  0  2  0  0  0  0  0  0
  162.5190  212.5020  147.6080 C   0  0  0  0  0  1  0  0  0  0  0  0
  161.5960  211.4040  148.0890 C   0  0  0  0  0  2  0  0  0  0  0  0
  1 19  2  0  0  0  0
  1  4  1  0  0  0  0
  2 13  2  0  0  0  0
  2 19  1  0  0  0  0
  3 10  1  0  0  0  0
  4 20  2  0  0  0  0
  5 11  1  0  0  0  0
  5  1  1  0  0  0  0
  6  8  2  0  0  0  0
  7 27  1  1  0  0  0
  7 15  1  0  0  0  0
  7  9  1  0  0  0  0
  8 12  1  0  0  0  0
  9 14  1  1  0  0  0
 10 21  1  6  0  0  0
 11  8  1  0  0  0  0
 12  4  1  0  0  0  0
 12 27  1  0  0  0  0
 13 18  1  0  0  0  0
 15 23  1  0  0  0  0
 16  2  1  0  0  0  0
 17  3  1  0  0  0  0
 18 25  2  0  0  0  0
 19 26  1  0  0  0  0
 20 17  1  0  0  0  0
 20 22  1  0  0  0  0
 22  9  1  0  0  0  0
 22 10  1  0  0  0  0
 23 14  1  0  0  0  0
 26 25  1  0  0  0  0
 26 17  2  0  0  0  0
 27 24  2  0  0  0  0
 28 11  1  0  0  0  0
 29 30  1  0  0  0  0
 30 28  1  0  0  0  0
M  END
>  <MODEL>
6

>  <REMARK>
 VINA RESULT:      -5.1      2.461      5.007
  Name = 
  2 active torsions:
  status: ('A' for Active; 'I' for Inactive)
    1  A    between atoms: N_11  and  C_28
    2  A    between atoms: C_28  and  C_30
                            x       y       z     vdW  Elec       q    Type
                         _______ _______ _______ _____ _____    ______ ____

>  <TORSDO>
F 2

$$$$
=
 OpenBabel11122412343D

 30 35  0  0  1  0  0  0  0  0999 V2000
  161.2300  210.0480  150.8580 C   0  0  0  0  0  0  0  0  0  0  0  0
  162.2970  207.7960  150.6660 C   0  0  0  0  0  0  0  0  0  0  0  0
  160.1020  209.3380  154.9070 C   0  0  0  0  0  2  0  0  0  0  0  0
  160.5000  210.9880  151.6370 C   0  0  0  0  0  0  0  0  0  0  0  0
  161.5810  210.4140  149.4400 C   0  0  0  0  0  2  0  0  0  0  0  0
  161.1260  213.9980  149.6950 O   0  0  0  0  0  0  0  0  0  0  0  0
  158.0510  212.7330  152.2280 C   0  0  1  0  0  3  0  0  0  0  0  0
  161.1170  212.7830  150.0390 C   0  0  0  0  0  0  0  0  0  0  0  0
  158.1060  212.0190  153.5630 C   0  0  2  0  0  3  0  0  0  0  0  0
  159.5240  210.7340  155.1840 C   0  0  1  0  0  3  0  0  0  0  0  0
  161.9040  211.8280  149.3200 N   0  0  0  0  0  0  0  0  0  0  0  0
  160.3130  212.3380  151.1480 N   0  0  0  0  0  0  0  0  0  0  0  0
  162.6410  206.5790  151.2610 C   0  0  0  0  0  3  0  0  0  0  0  0
  157.7440  213.1000  154.5280 C   0  0  0  0  0  2  0  0  0  0  0  0
  157.1330  213.7980  152.3250 O   0  0  0  0  0  0  0  0  0  0  0  0
  162.6790  207.9950  149.3810 F   0  0  0  0  0  0  0  0  0  0  0  0
  160.5070  209.4200  153.4800 C   0  0  0  0  0  0  0  0  0  0  0  0
  162.2880  206.3080  152.5810 C   0  0  0  0  0  3  0  0  0  0  0  0
  161.5800  208.7760  151.4000 C   0  0  0  0  0  0  0  0  0  0  0  0
  160.1120  210.6110  152.9400 C   0  0  0  0  0  0  0  0  0  0  0  0
  160.4830  211.5090  156.0690 C   0  0  0  0  0  1  0  0  0  0  0  0
  159.3990  211.4040  153.8860 N   0  0  0  0  0  0  0  0  0  0  0  0
  156.8550  213.9910  153.6950 C   0  0  0  0  0  2  0  0  0  0  0  0
  159.7060  214.4450  151.9690 O   0  0  0  0  0  0  0  0  0  0  0  0
  161.5810  207.2540  153.3210 C   0  0  0  0  0  3  0  0  0  0  0  0
  161.2220  208.4780  152.7440 C   0  0  0  0  0  0  0  0  0  0  0  0
  159.3890  213.2400  151.7750 C   0  0  0  0  0  0  0  0  0  0  0  0
  162.8130  212.2420  148.2610 C   0  0  0  0  0  2  0  0  0  0  0  0
  162.4670  213.9300  146.4870 C   0  0  0  0  0  1  0  0  0  0  0  0
  162.0300  212.5780  147.0060 C   0  0  0  0  0  2  0  0  0  0  0  0
  1 19  2  0  0  0  0
  1  4  1  0  0  0  0
  2 13  2  0  0  0  0
  2 19  1  0  0  0  0
  3 10  1  0  0  0  0
  4 20  2  0  0  0  0
  5  1  1  0  0  0  0
  6  8  2  0  0  0  0
  7 27  1  1  0  0  0
  7 15  1  0  0  0  0
  7  9  1  0  0  0  0
  8 12  1  0  0  0  0
  9 22  1  0  0  0  0
  9 14  1  1  0  0  0
 10 21  1  1  0  0  0
 11  5  1  0  0  0  0
 11  8  1  0  0  0  0
 12  4  1  0  0  0  0
 12 27  1  0  0  0  0
 13 18  1  0  0  0  0
 15 23  1  0  0  0  0
 16  2  1  0  0  0  0
 17  3  1  0  0  0  0
 18 25  2  0  0  0  0
 19 26  1  0  0  0  0
 20 17  1  0  0  0  0
 20 22  1  0  0  0  0
 22 10  1  0  0  0  0
 23 14  1  0  0  0  0
 26 25  1  0  0  0  0
 26 17  2  0  0  0  0
 27 24  2  0  0  0  0
 28 11  1  0  0  0  0
 29 30  1  0  0  0  0
 30 28  1  0  0  0  0
M  END
>  <MODEL>
7

>  <REMARK>
 VINA RESULT:      -5.1      3.215      5.309
  Name = 
  2 active torsions:
  status: ('A' for Active; 'I' for Inactive)
    1  A    between atoms: N_11  and  C_28
    2  A    between atoms: C_28  and  C_30
                            x       y       z     vdW  Elec       q    Type
                         _______ _______ _______ _____ _____    ______ ____

>  <TORSDO>
F 2

$$$$
=
 OpenBabel11122412343D

 30 35  0  0  1  0  0  0  0  0999 V2000
  160.5890  210.4110  151.6290 C   0  0  0  0  0  0  0  0  0  0  0  0
  161.8470  208.4730  150.6780 C   0  0  0  0  0  0  0  0  0  0  0  0
  160.3960  208.5930  155.4800 C   0  0  0  0  0  2  0  0  0  0  0  0
  159.9290  211.0100  152.7380 C   0  0  0  0  0  0  0  0  0  0  0  0
  160.6000  211.1530  150.3190 C   0  0  0  0  0  2  0  0  0  0  0  0
  159.7970  214.4530  151.5780 O   0  0  0  0  0  0  0  0  0  0  0  0
  157.4670  212.1440  154.1670 C   0  0  1  0  0  3  0  0  0  0  0  0
  159.9970  213.2060  151.5870 C   0  0  0  0  0  0  0  0  0  0  0  0
  157.8740  211.1530  155.2400 C   0  0  2  0  0  3  0  0  0  0  0  0
  159.7300  209.7710  156.2060 C   0  0  1  0  0  3  0  0  0  0  0  0
  160.7270  212.5890  150.5210 N   0  0  0  0  0  0  0  0  0  0  0  0
  159.4920  212.3880  152.6580 N   0  0  0  0  0  0  0  0  0  0  0  0
  162.4430  207.2230  150.8660 C   0  0  0  0  0  3  0  0  0  0  0  0
  157.5930  211.9020  156.5010 C   0  0  0  0  0  2  0  0  0  0  0  0
  156.4710  212.9910  154.6920 O   0  0  0  0  0  0  0  0  0  0  0  0
  161.9350  209.0280  149.4440 F   0  0  0  0  0  0  0  0  0  0  0  0
  160.4910  209.0740  154.0780 C   0  0  0  0  0  0  0  0  0  0  0  0
  162.3990  206.5940  152.1090 C   0  0  0  0  0  3  0  0  0  0  0  0
  161.1860  209.1220  151.7520 C   0  0  0  0  0  0  0  0  0  0  0  0
  159.8600  210.2780  153.9420 C   0  0  0  0  0  0  0  0  0  0  0  0
  160.7520  210.4610  157.0900 C   0  0  0  0  0  1  0  0  0  0  0  0
  159.2670  210.6980  155.1690 N   0  0  0  0  0  0  0  0  0  0  0  0
  156.4560  212.8080  156.0920 C   0  0  0  0  0  2  0  0  0  0  0  0
  158.8260  214.1130  154.0930 O   0  0  0  0  0  0  0  0  0  0  0  0
  161.7530  207.2110  153.1780 C   0  0  0  0  0  3  0  0  0  0  0  0
  161.1460  208.4610  153.0110 C   0  0  0  0  0  0  0  0  0  0  0  0
  158.6170  212.9530  153.6460 C   0  0  0  0  0  0  0  0  0  0  0  0
  161.3480  213.3830  149.4710 C   0  0  0  0  0  2  0  0  0  0  0  0
  163.1020  212.5720  147.9270 C   0  0  0  0  0  1  0  0  0  0  0  0
  161.6270  212.5130  148.2600 C   0  0  0  0  0  2  0  0  0  0  0  0
  1 19  2  0  0  0  0
  1  4  1  0  0  0  0
  2 13  2  0  0  0  0
  2 19  1  0  0  0  0
  3 10  1  0  0  0  0
  4 20  2  0  0  0  0
  5 11  1  0  0  0  0
  5  1  1  0  0  0  0
  6  8  2  0  0  0  0
  7 27  1  1  0  0  0
  7 15  1  0  0  0  0
  7  9  1  0  0  0  0
  8 12  1  0  0  0  0
  9 14  1  1  0  0  0
 10 21  1  1  0  0  0
 11  8  1  0  0  0  0
 12  4  1  0  0  0  0
 12 27  1  0  0  0  0
 13 18  1  0  0  0  0
 15 23  1  0  0  0  0
 16  2  1  0  0  0  0
 17  3  1  0  0  0  0
 18 25  2  0  0  0  0
 19 26  1  0  0  0  0
 20 17  1  0  0  0  0
 20 22  1  0  0  0  0
 22  9  1  0  0  0  0
 22 10  1  0  0  0  0
 23 14  1  0  0  0  0
 26 25  1  0  0  0  0
 26 17  2  0  0  0  0
 27 24  2  0  0  0  0
 28 11  1  0  0  0  0
 29 30  1  0  0  0  0
 30 28  1  0  0  0  0
M  END
>  <MODEL>
8

>  <REMARK>
 VINA RESULT:      -5.0      3.108      5.147
  Name = 
  2 active torsions:
  status: ('A' for Active; 'I' for Inactive)
    1  A    between atoms: N_11  and  C_28
    2  A    between atoms: C_28  and  C_30
                            x       y       z     vdW  Elec       q    Type
                         _______ _______ _______ _____ _____    ______ ____

>  <TORSDO>
F 2

$$$$
=
 OpenBabel11122412343D

 30 35  0  0  1  0  0  0  0  0999 V2000
  160.5340  208.8730  153.4690 C   0  0  0  0  0  0  0  0  0  0  0  0
  160.9910  206.8610  154.8790 C   0  0  0  0  0  0  0  0  0  0  0  0
  159.1390  211.0990  156.8260 C   0  0  0  0  0  2  0  0  0  0  0  0
  160.0470  210.2050  153.3680 C   0  0  0  0  0  0  0  0  0  0  0  0
  161.0100  208.1900  152.2140 C   0  0  0  0  0  2  0  0  0  0  0  0
  161.4850  211.1350  150.1610 O   0  0  0  0  0  0  0  0  0  0  0  0
  158.1130  212.3370  152.3180 C   0  0  1  0  0  3  0  0  0  0  0  0
  161.1530  210.4380  151.1600 C   0  0  0  0  0  0  0  0  0  0  0  0
  157.9420  212.6320  153.7940 C   0  0  2  0  0  3  0  0  0  0  0  0
  158.9310  212.4300  156.0900 C   0  0  1  0  0  3  0  0  0  0  0  0
  161.6900  209.1210  151.3260 N   0  0  0  0  0  0  0  0  0  0  0  0
  160.2290  210.9480  152.1390 N   0  0  0  0  0  0  0  0  0  0  0  0
  160.9920  206.2560  156.1390 C   0  0  0  0  0  3  0  0  0  0  0  0
  157.8410  214.1220  153.8210 C   0  0  0  0  0  2  0  0  0  0  0  0
  157.4980  213.3680  151.5790 O   0  0  0  0  0  0  0  0  0  0  0  0
  161.4500  206.1290  153.8340 F   0  0  0  0  0  0  0  0  0  0  0  0
  159.5950  210.1860  155.7460 C   0  0  0  0  0  0  0  0  0  0  0  0
  160.5410  206.9500  157.2610 C   0  0  0  0  0  3  0  0  0  0  0  0
  160.5280  208.1930  154.7220 C   0  0  0  0  0  0  0  0  0  0  0  0
  159.5360  210.8140  154.5340 C   0  0  0  0  0  0  0  0  0  0  0  0
  160.0300  213.4000  156.4850 C   0  0  0  0  0  1  0  0  0  0  0  0
  159.0220  212.1390  154.6560 N   0  0  0  0  0  0  0  0  0  0  0  0
  157.2370  214.4290  152.4720 C   0  0  0  0  0  2  0  0  0  0  0  0
  160.1600  213.1650  151.3900 O   0  0  0  0  0  0  0  0  0  0  0  0
  160.0790  208.2570  157.1310 C   0  0  0  0  0  3  0  0  0  0  0  0
  160.0650  208.8810  155.8780 C   0  0  0  0  0  0  0  0  0  0  0  0
  159.5490  212.1910  151.9090 C   0  0  0  0  0  0  0  0  0  0  0  0
  162.7070  208.6000  150.4240 C   0  0  0  0  0  2  0  0  0  0  0  0
  161.4160  207.3650  148.7130 C   0  0  0  0  0  1  0  0  0  0  0  0
  162.3040  207.2230  149.9300 C   0  0  0  0  0  2  0  0  0  0  0  0
  1 19  1  0  0  0  0
  2 13  1  0  0  0  0
  4  1  2  0  0  0  0
  4 20  1  0  0  0  0
  5  1  1  0  0  0  0
  6  8  2  0  0  0  0
  7 15  1  6  0  0  0
  7  9  1  0  0  0  0
  8 11  1  0  0  0  0
  8 12  1  0  0  0  0
  9 14  1  6  0  0  0
  9 22  1  0  0  0  0
 10 21  1  1  0  0  0
 10  3  1  0  0  0  0
 11  5  1  0  0  0  0
 12  4  1  0  0  0  0
 13 18  2  0  0  0  0
 15 23  1  0  0  0  0
 16  2  1  0  0  0  0
 17 26  1  0  0  0  0
 17  3  1  0  0  0  0
 19  2  2  0  0  0  0
 19 26  1  0  0  0  0
 20 22  1  0  0  0  0
 20 17  2  0  0  0  0
 22 10  1  0  0  0  0
 23 14  1  0  0  0  0
 24 27  2  0  0  0  0
 25 18  1  0  0  0  0
 26 25  2  0  0  0  0
 27 12  1  0  0  0  0
 27  7  1  0  0  0  0
 28 11  1  0  0  0  0
 29 30  1  0  0  0  0
 30 28  1  0  0  0  0
M  END
>  <MODEL>
9

>  <REMARK>
 VINA RESULT:      -4.8      2.981      5.471
  Name = 
  2 active torsions:
  status: ('A' for Active; 'I' for Inactive)
    1  A    between atoms: N_11  and  C_28
    2  A    between atoms: C_28  and  C_30
                            x       y       z     vdW  Elec       q    Type
                         _______ _______ _______ _____ _____    ______ ____

>  <TORSDO>
F 2

$$$$
