=
 OpenBabel11122414053D

 28 32  0  0  1  0  0  0  0  0999 V2000
  160.7540  210.7970  138.3390 C   0  0  2  0  0  3  0  0  0  0  0  0
  163.5390  213.1680  140.5240 F   0  0  0  0  0  0  0  0  0  0  0  0
  157.2360  214.3520  141.2070 N   0  0  0  0  0  1  0  0  0  0  0  0
  161.7840  208.2610  139.4440 C   0  0  0  0  0  2  0  0  0  0  0  0
  159.1280  213.5740  142.6080 C   0  0  2  0  0  3  0  0  0  0  0  0
  161.0290  212.1100  137.5960 C   0  0  0  0  0  2  0  0  0  0  0  0
  161.8800  214.4430  141.3550 F   0  0  0  0  0  0  0  0  0  0  0  0
  162.6990  213.3530  141.6060 C   0  0  0  0  0  0  0  0  0  0  0  0
  162.6550  213.7270  144.0190 C   0  0  0  0  0  0  0  0  0  0  0  0
  161.8610  212.0800  141.8230 C   0  0  1  0  0  3  0  0  0  0  0  0
  158.3080  213.4460  137.0110 C   0  0  0  0  0  1  0  0  0  0  0  0
  159.5240  211.5850  141.2840 C   0  0  1  0  0  3  0  0  0  0  0  0
  161.4030  213.0410  144.0150 N   0  0  0  0  0  2  0  0  0  0  0  0
  163.5490  213.6210  142.8380 C   0  0  0  0  0  2  0  0  0  0  0  0
  158.9380  213.4030  138.3910 C   0  0  1  0  0  3  0  0  0  0  0  0
  161.4210  210.7380  139.7310 C   0  0  2  0  0  3  0  0  0  0  0  0
  158.5460  213.7160  141.1980 C   0  0  1  0  0  3  0  0  0  0  0  0
  162.9880  214.4300  145.0070 O   0  0  0  0  0  0  0  0  0  0  0  0
  158.3460  212.2400  139.1990 C   0  0  0  0  0  2  0  0  0  0  0  0
  161.2670  209.3510  140.3720 C   0  0  0  0  0  2  0  0  0  0  0  0
  161.2430  209.6530  137.4530 C   0  0  0  0  0  2  0  0  0  0  0  0
  161.0210  208.3050  138.1270 C   0  0  0  0  0  2  0  0  0  0  0  0
  160.4650  213.3600  138.2850 C   0  0  0  0  0  2  0  0  0  0  0  0
  159.6530  212.1330  142.6910 C   0  0  1  0  0  3  0  0  0  0  0  0
  158.4440  212.3630  140.6650 N   0  0  1  0  0  0  0  0  0  0  0  0
  161.0690  212.0400  143.0710 N   0  0  1  0  0  0  0  0  0  0  0  0
  158.1580  213.7610  143.5960 O   0  0  0  0  0  1  0  0  0  0  0  0
  160.9060  211.8410  140.6670 C   0  0  2  0  0  3  0  0  0  0  0  0
  1 21  1  6  0  0  0
  1 16  1  0  0  0  0
  2  8  1  0  0  0  0
  4 20  1  0  0  0  0
  5 24  1  0  0  0  0
  5 27  1  1  0  0  0
  6 23  1  0  0  0  0
  6  1  1  0  0  0  0
  7  8  1  0  0  0  0
  8 14  1  0  0  0  0
  9 18  2  0  0  0  0
 10  8  1  6  0  0  0
 10 26  1  0  0  0  0
 11 15  1  0  0  0  0
 12 24  1  0  0  0  0
 13  9  1  0  0  0  0
 14  9  1  0  0  0  0
 15 19  1  0  0  0  0
 16 20  1  0  0  0  0
 16 28  1  0  0  0  0
 17  3  1  0  0  0  0
 17  5  1  0  0  0  0
 19 25  1  0  0  0  0
 21 22  1  0  0  0  0
 22  4  1  0  0  0  0
 23 15  1  0  0  0  0
 24 26  1  0  0  0  0
 25 17  1  0  0  0  0
 25 12  1  0  0  0  0
 26 13  1  0  0  0  0
 28 12  1  0  0  0  0
 28 10  1  0  0  0  0
M  END
>  <MODEL>
1

>  <REMARK>
 VINA RESULT:      -3.9      0.000      0.000
  Name = 
  0 active torsions:
  status: ('A' for Active; 'I' for Inactive)
                            x       y       z     vdW  Elec       q    Type
                         _______ _______ _______ _____ _____    ______ ____

>  <TORSDO>
F 0

$$$$
=
 OpenBabel11122414053D

 28 32  0  0  1  0  0  0  0  0999 V2000
  158.1860  211.4600  138.4870 C   0  0  2  0  0  3  0  0  0  0  0  0
  161.6180  213.5070  137.0120 F   0  0  0  0  0  0  0  0  0  0  0  0
  160.1100  214.0620  143.2570 N   0  0  0  0  0  1  0  0  0  0  0  0
  159.1410  208.8270  137.5520 C   0  0  0  0  0  2  0  0  0  0  0  0
  161.9560  213.1430  141.8810 C   0  0  2  0  0  3  0  0  0  0  0  0
  157.8340  212.9170  138.1620 C   0  0  0  0  0  2  0  0  0  0  0  0
  161.9810  214.4530  139.0210 F   0  0  0  0  0  0  0  0  0  0  0  0
  162.3270  213.3970  138.1930 C   0  0  0  0  0  0  0  0  0  0  0  0
  164.5780  213.2460  139.1290 C   0  0  0  0  0  0  0  0  0  0  0  0
  161.9960  212.0500  138.8610 C   0  0  1  0  0  3  0  0  0  0  0  0
  156.5220  214.1470  140.6710 C   0  0  0  0  0  1  0  0  0  0  0  0
  160.5540  211.5140  140.7660 C   0  0  1  0  0  3  0  0  0  0  0  0
  163.9930  212.4880  140.1890 N   0  0  0  0  0  2  0  0  0  0  0  0
  163.8120  213.4590  137.8750 C   0  0  0  0  0  2  0  0  0  0  0  0
  158.0070  213.8570  140.5620 C   0  0  1  0  0  3  0  0  0  0  0  0
  159.6930  211.1540  138.3460 C   0  0  2  0  0  3  0  0  0  0  0  0
  160.4780  213.5380  141.9500 C   0  0  1  0  0  3  0  0  0  0  0  0
  165.7230  213.7450  139.2670 O   0  0  0  0  0  0  0  0  0  0  0  0
  158.3260  212.5100  141.2240 C   0  0  0  0  0  2  0  0  0  0  0  0
  159.9830  209.6560  138.5110 C   0  0  0  0  0  2  0  0  0  0  0  0
  157.3620  210.5680  137.5590 C   0  0  0  0  0  2  0  0  0  0  0  0
  157.6640  209.0950  137.8060 C   0  0  0  0  0  2  0  0  0  0  0  0
  158.4690  213.9480  139.1060 C   0  0  0  0  0  2  0  0  0  0  0  0
  161.9800  211.7590  141.2160 C   0  0  1  0  0  3  0  0  0  0  0  0
  159.7220  212.3250  141.6620 N   0  0  1  0  0  0  0  0  0  0  0  0
  162.8350  211.6890  140.0240 N   0  0  1  0  0  0  0  0  0  0  0  0
  162.5310  213.0450  143.1520 O   0  0  0  0  0  1  0  0  0  0  0  0
  160.5460  211.9940  139.3080 C   0  0  2  0  0  3  0  0  0  0  0  0
  1 21  1  6  0  0  0
  2  8  1  0  0  0  0
  4 22  1  0  0  0  0
  4 20  1  0  0  0  0
  5 17  1  0  0  0  0
  5 27  1  1  0  0  0
  6  1  1  0  0  0  0
  6 23  1  0  0  0  0
  8  7  1  0  0  0  0
  9 18  2  0  0  0  0
  9 13  1  0  0  0  0
 10  8  1  1  0  0  0
 10 28  1  0  0  0  0
 10 26  1  0  0  0  0
 12 24  1  0  0  0  0
 12 25  1  0  0  0  0
 14  8  1  0  0  0  0
 14  9  1  0  0  0  0
 15 11  1  0  0  0  0
 15 19  1  0  0  0  0
 16  1  1  0  0  0  0
 16 20  1  0  0  0  0
 16 28  1  0  0  0  0
 17  3  1  0  0  0  0
 19 25  1  0  0  0  0
 21 22  1  0  0  0  0
 23 15  1  0  0  0  0
 24  5  1  0  0  0  0
 25 17  1  0  0  0  0
 26 13  1  0  0  0  0
 26 24  1  0  0  0  0
 28 12  1  0  0  0  0
M  END
>  <MODEL>
2

>  <REMARK>
 VINA RESULT:      -2.8      2.470      3.424
  Name = 
  0 active torsions:
  status: ('A' for Active; 'I' for Inactive)
                            x       y       z     vdW  Elec       q    Type
                         _______ _______ _______ _____ _____    ______ ____

>  <TORSDO>
F 0

$$$$
