=
 OpenBabel11122414383D

 34 40  0  0  1  0  0  0  0  0999 V2000
  161.1340  208.1980  154.1510 C   0  0  1  0  0  3  0  0  0  0  0  0
  162.1700  206.2660  153.1000 C   0  0  0  0  0  2  0  0  0  0  0  0
  157.2510  213.2040  153.3910 C   0  0  0  0  0  0  0  0  0  0  0  0
  159.8900  210.1600  155.1080 C   0  0  2  0  0  3  0  0  0  0  0  0
  159.5930  212.2340  153.6560 C   0  0  2  0  0  3  0  0  0  0  0  0
  159.1760  214.2360  152.0870 C   0  0  0  0  0  1  0  0  0  0  0  0
  156.6000  213.0750  152.3660 O   0  0  0  0  0  0  0  0  0  0  0  0
  157.5520  213.2190  155.8920 C   0  0  0  0  0  2  0  0  0  0  0  0
  162.0460  208.2380  151.9900 C   0  0  2  0  0  3  0  0  0  0  0  0
  161.6940  208.4000  148.8040 C   0  0  0  0  0  2  0  0  0  0  0  0
  159.8470  211.3840  152.4050 C   0  0  0  0  0  2  0  0  0  0  0  0
  158.6150  212.1180  156.0550 C   0  0  0  0  0  2  0  0  0  0  0  0
  161.2050  209.4340  151.5050 C   0  0  1  0  0  3  0  0  0  0  0  0
  162.7640  205.9790  151.7240 C   0  0  0  0  0  2  0  0  0  0  0  0
  158.9790  211.3490  154.7740 C   0  0  2  0  0  3  0  0  0  0  0  0
  156.5810  213.0030  154.7240 C   0  0  0  0  0  2  0  0  0  0  0  0
  161.7450  207.1310  149.6760 C   0  0  1  0  0  3  0  0  0  0  0  0
  160.2090  209.3770  153.8270 C   0  0  1  0  0  3  0  0  0  0  0  0
  158.7350  213.4740  153.3310 C   0  0  1  0  0  3  0  0  0  0  0  0
  160.8290  210.2690  152.7430 C   0  0  2  0  0  3  0  0  0  0  0  0
  160.1760  208.3330  156.4350 C   0  0  0  0  0  2  0  0  0  0  0  0
  162.5730  209.5490  149.3070 C   0  0  0  0  0  2  0  0  0  0  0  0
  159.2400  209.3010  156.0200 O   0  0  0  0  0  0  0  0  0  0  0  0
  161.9550  210.3080  150.4880 C   0  0  0  0  0  2  0  0  0  0  0  0
  162.6120  207.2810  150.9520 C   0  0  1  0  0  3  0  0  0  0  0  0
  160.5030  207.3820  155.2800 C   0  0  0  0  0  2  0  0  0  0  0  0
  161.2930  207.4160  152.9260 N   0  0  2  0  0  0  0  0  0  0  0  0
  160.3140  206.6700  149.9490 C   0  0  0  0  0  2  0  0  0  0  0  0
  159.9930  205.5720  149.1480 O   0  0  0  0  0  0  0  0  0  0  0  0
  160.2670  202.4760  149.3540 O   0  0  0  0  0  0  0  0  0  0  0  0
  161.3730  204.0480  147.9790 C   0  0  0  0  0  2  0  0  0  0  0  0
  161.0710  204.6980  149.2980 C   0  0  2  0  0  3  0  0  0  0  0  0
  161.0670  202.5880  148.2080 C   0  0  0  0  0  2  0  0  0  0  0  0
  160.6580  203.5400  150.1770 C   0  0  0  0  0  2  0  0  0  0  0  0
  1 26  1  1  0  0  0
  3 16  1  0  0  0  0
  4 23  1  1  0  0  0
  5 11  1  6  0  0  0
  5 15  1  0  0  0  0
  6 19  1  0  0  0  0
  7  3  2  0  0  0  0
  8 12  1  0  0  0  0
  9 27  1  0  0  0  0
 10 22  1  0  0  0  0
 10 17  1  0  0  0  0
 11 20  1  0  0  0  0
 13  9  1  0  0  0  0
 13 20  1  0  0  0  0
 14  2  1  0  0  0  0
 15  4  1  0  0  0  0
 15 12  1  0  0  0  0
 16  8  1  0  0  0  0
 17 28  1  0  0  0  0
 17 25  1  0  0  0  0
 18  1  1  0  0  0  0
 18  4  1  0  0  0  0
 19  3  1  0  0  0  0
 19  5  1  0  0  0  0
 20 18  1  0  0  0  0
 22 24  1  0  0  0  0
 23 21  1  0  0  0  0
 24 13  1  0  0  0  0
 25 14  1  0  0  0  0
 25  9  1  0  0  0  0
 26 21  1  0  0  0  0
 27  2  1  0  0  0  0
 27  1  1  0  0  0  0
 29 32  1  0  0  0  0
 29 28  1  0  0  0  0
 30 34  1  0  0  0  0
 31 33  1  0  0  0  0
 31 32  1  0  0  0  0
 32 34  1  0  0  0  0
 33 30  1  0  0  0  0
M  END
>  <MODEL>
1

>  <REMARK>
 VINA RESULT:      -7.8      0.000      0.000
  Name = 
  3 active torsions:
  status: ('A' for Active; 'I' for Inactive)
    1  A    between atoms: C_17  and  C_28
    2  A    between atoms: C_28  and  O_29
    3  A    between atoms: O_29  and  C_32
                            x       y       z     vdW  Elec       q    Type
                         _______ _______ _______ _____ _____    ______ ____

>  <TORSDO>
F 3

$$$$
=
 OpenBabel11122414383D

 34 40  0  0  1  0  0  0  0  0999 V2000
  161.5230  210.3970  152.0460 C   0  0  1  0  0  3  0  0  0  0  0  0
  160.8520  212.0220  153.7240 C   0  0  0  0  0  2  0  0  0  0  0  0
  160.6630  204.5210  149.7090 C   0  0  0  0  0  0  0  0  0  0  0  0
  162.0110  208.6450  150.3120 C   0  0  2  0  0  3  0  0  0  0  0  0
  162.0490  206.2000  151.0340 C   0  0  2  0  0  3  0  0  0  0  0  0
  161.9100  203.7390  151.7830 C   0  0  0  0  0  1  0  0  0  0  0  0
  159.6190  204.0530  150.1340 O   0  0  0  0  0  0  0  0  0  0  0  0
  162.1280  205.5270  147.9230 C   0  0  0  0  0  2  0  0  0  0  0  0
  161.1380  209.8470  154.2940 C   0  0  2  0  0  3  0  0  0  0  0  0
  159.3810  208.4180  156.5670 C   0  0  0  0  0  2  0  0  0  0  0  0
  161.2170  206.5610  152.2700 C   0  0  0  0  0  2  0  0  0  0  0  0
  162.4670  206.8830  148.5670 C   0  0  0  0  0  2  0  0  0  0  0  0
  160.8470  208.3590  154.0270 C   0  0  1  0  0  3  0  0  0  0  0  0
  160.4690  211.9500  155.2000 C   0  0  0  0  0  2  0  0  0  0  0  0
  161.7380  207.1960  149.8840 C   0  0  2  0  0  3  0  0  0  0  0  0
  160.7390  204.9820  148.2770 C   0  0  0  0  0  2  0  0  0  0  0  0
  159.2530  209.8660  156.0580 C   0  0  1  0  0  3  0  0  0  0  0  0
  161.2420  208.9560  151.6030 C   0  0  1  0  0  3  0  0  0  0  0  0
  161.8450  204.7280  150.6250 C   0  0  1  0  0  3  0  0  0  0  0  0
  161.5770  207.9680  152.7290 C   0  0  2  0  0  3  0  0  0  0  0  0
  162.0180  210.8240  149.6530 C   0  0  0  0  0  2  0  0  0  0  0  0
  160.8120  207.8730  156.5720 C   0  0  0  0  0  2  0  0  0  0  0  0
  161.5830  209.5310  149.2990 O   0  0  0  0  0  0  0  0  0  0  0  0
  161.3020  207.4520  155.1810 C   0  0  0  0  0  2  0  0  0  0  0  0
  160.5890  210.4770  155.5650 C   0  0  1  0  0  3  0  0  0  0  0  0
  161.2380  211.3310  150.8690 C   0  0  0  0  0  2  0  0  0  0  0  0
  160.6660  210.6780  153.1960 N   0  0  2  0  0  0  0  0  0  0  0  0
  158.1270  209.9230  155.0290 C   0  0  0  0  0  2  0  0  0  0  0  0
  156.9800  210.4910  155.5890 O   0  0  0  0  0  0  0  0  0  0  0  0
  155.5610  213.0010  154.4070 O   0  0  0  0  0  0  0  0  0  0  0  0
  156.3190  212.5270  156.5960 C   0  0  0  0  0  2  0  0  0  0  0  0
  157.2430  211.8620  155.6180 C   0  0  2  0  0  3  0  0  0  0  0  0
  155.4580  213.4250  155.7400 C   0  0  0  0  0  2  0  0  0  0  0  0
  156.8550  212.4740  154.2910 C   0  0  0  0  0  2  0  0  0  0  0  0
  1 26  1  6  0  0  0
  1 27  1  0  0  0  0
  2 14  1  0  0  0  0
  3  7  2  0  0  0  0
  3 19  1  0  0  0  0
  4 23  1  6  0  0  0
  4 18  1  0  0  0  0
  5 11  1  1  0  0  0
  8 16  1  0  0  0  0
  8 12  1  0  0  0  0
  9 25  1  0  0  0  0
 10 22  1  0  0  0  0
 11 20  1  0  0  0  0
 12 15  1  0  0  0  0
 13  9  1  0  0  0  0
 13 24  1  0  0  0  0
 14 25  1  0  0  0  0
 15  4  1  0  0  0  0
 15  5  1  0  0  0  0
 16  3  1  0  0  0  0
 17 10  1  0  0  0  0
 18  1  1  0  0  0  0
 18 20  1  0  0  0  0
 19  5  1  0  0  0  0
 19  6  1  0  0  0  0
 20 13  1  0  0  0  0
 21 26  1  0  0  0  0
 23 21  1  0  0  0  0
 24 22  1  0  0  0  0
 25 17  1  0  0  0  0
 27  2  1  0  0  0  0
 27  9  1  0  0  0  0
 28 29  1  0  0  0  0
 28 17  1  0  0  0  0
 29 32  1  0  0  0  0
 30 33  1  0  0  0  0
 32 31  1  0  0  0  0
 33 31  1  0  0  0  0
 34 30  1  0  0  0  0
 34 32  1  0  0  0  0
M  END
>  <MODEL>
2

>  <REMARK>
 VINA RESULT:      -5.6      1.603      8.258
  Name = 
  3 active torsions:
  status: ('A' for Active; 'I' for Inactive)
    1  A    between atoms: C_17  and  C_28
    2  A    between atoms: C_28  and  O_29
    3  A    between atoms: O_29  and  C_32
                            x       y       z     vdW  Elec       q    Type
                         _______ _______ _______ _____ _____    ______ ____

>  <TORSDO>
F 3

$$$$
=
 OpenBabel11122414383D

 34 40  0  0  1  0  0  0  0  0999 V2000
  161.1770  211.3830  151.2310 C   0  0  1  0  0  3  0  0  0  0  0  0
  160.2530  213.1860  152.5740 C   0  0  0  0  0  2  0  0  0  0  0  0
  160.8830  205.1810  149.7570 C   0  0  0  0  0  0  0  0  0  0  0  0
  161.9300  209.4330  149.8360 C   0  0  2  0  0  3  0  0  0  0  0  0
  162.0360  207.1300  150.9250 C   0  0  2  0  0  3  0  0  0  0  0  0
  161.9630  204.8020  152.0280 C   0  0  0  0  0  1  0  0  0  0  0  0
  159.8310  204.7070  150.1550 O   0  0  0  0  0  0  0  0  0  0  0  0
  162.4560  206.0130  147.9740 C   0  0  0  0  0  2  0  0  0  0  0  0
  160.6060  211.1450  153.4940 C   0  0  2  0  0  3  0  0  0  0  0  0
  158.7180  209.9460  155.7960 C   0  0  0  0  0  2  0  0  0  0  0  0
  161.0670  207.6100  152.0130 C   0  0  0  0  0  2  0  0  0  0  0  0
  162.6540  207.4700  148.4300 C   0  0  0  0  0  2  0  0  0  0  0  0
  160.4260  209.6170  153.4340 C   0  0  1  0  0  3  0  0  0  0  0  0
  159.7330  213.3060  154.0040 C   0  0  0  0  0  2  0  0  0  0  0  0
  161.7830  207.9210  149.6130 C   0  0  2  0  0  3  0  0  0  0  0  0
  161.0730  205.4290  148.2830 C   0  0  0  0  0  2  0  0  0  0  0  0
  158.5590  211.2900  155.0610 C   0  0  1  0  0  3  0  0  0  0  0  0
  161.0220  209.8760  150.9910 C   0  0  1  0  0  3  0  0  0  0  0  0
  161.9560  205.6030  150.7310 C   0  0  1  0  0  3  0  0  0  0  0  0
  161.3010  209.0910  152.2810 C   0  0  2  0  0  3  0  0  0  0  0  0
  161.8780  211.4860  148.8540 C   0  0  0  0  0  2  0  0  0  0  0  0
  160.1700  209.5100  156.0110 C   0  0  0  0  0  2  0  0  0  0  0  0
  161.5540  210.1270  148.6660 O   0  0  0  0  0  0  0  0  0  0  0  0
  160.8160  208.9240  154.7490 C   0  0  0  0  0  2  0  0  0  0  0  0
  159.9000  211.9150  154.6000 C   0  0  1  0  0  3  0  0  0  0  0  0
  160.9560  212.1100  149.9040 C   0  0  0  0  0  2  0  0  0  0  0  0
  160.1960  211.7690  152.2440 N   0  0  2  0  0  0  0  0  0  0  0  0
  157.5370  211.1150  153.9400 C   0  0  0  0  0  2  0  0  0  0  0  0
  156.2950  211.6250  154.3260 O   0  0  0  0  0  0  0  0  0  0  0  0
  154.6430  214.1440  153.5300 O   0  0  0  0  0  0  0  0  0  0  0  0
  155.6650  213.5340  155.5730 C   0  0  0  0  0  2  0  0  0  0  0  0
  156.4990  213.0010  154.4440 C   0  0  2  0  0  3  0  0  0  0  0  0
  154.6740  214.4530  154.8980 C   0  0  0  0  0  2  0  0  0  0  0  0
  155.9360  213.6980  153.2270 C   0  0  0  0  0  2  0  0  0  0  0  0
  1 26  1  6  0  0  0
  1 27  1  0  0  0  0
  2 14  1  0  0  0  0
  3  7  2  0  0  0  0
  3 19  1  0  0  0  0
  4 23  1  6  0  0  0
  4 18  1  0  0  0  0
  5 11  1  1  0  0  0
  8 16  1  0  0  0  0
  8 12  1  0  0  0  0
  9 25  1  0  0  0  0
 10 22  1  0  0  0  0
 11 20  1  0  0  0  0
 12 15  1  0  0  0  0
 13  9  1  0  0  0  0
 13 24  1  0  0  0  0
 14 25  1  0  0  0  0
 15  4  1  0  0  0  0
 15  5  1  0  0  0  0
 16  3  1  0  0  0  0
 17 10  1  0  0  0  0
 18  1  1  0  0  0  0
 18 20  1  0  0  0  0
 19  5  1  0  0  0  0
 19  6  1  0  0  0  0
 20 13  1  0  0  0  0
 21 26  1  0  0  0  0
 23 21  1  0  0  0  0
 24 22  1  0  0  0  0
 25 17  1  0  0  0  0
 27  2  1  0  0  0  0
 27  9  1  0  0  0  0
 28 29  1  0  0  0  0
 28 17  1  0  0  0  0
 29 32  1  0  0  0  0
 30 33  1  0  0  0  0
 32 31  1  0  0  0  0
 33 31  1  0  0  0  0
 34 30  1  0  0  0  0
 34 32  1  0  0  0  0
M  END
>  <MODEL>
3

>  <REMARK>
 VINA RESULT:      -5.1      1.794      8.407
  Name = 
  3 active torsions:
  status: ('A' for Active; 'I' for Inactive)
    1  A    between atoms: C_17  and  C_28
    2  A    between atoms: C_28  and  O_29
    3  A    between atoms: O_29  and  C_32
                            x       y       z     vdW  Elec       q    Type
                         _______ _______ _______ _____ _____    ______ ____

>  <TORSDO>
F 3

$$$$
