=
 OpenBabel11122412423D

 30 35  0  0  1  0  0  0  0  0999 V2000
  161.3890  206.0960  150.2470 C   0  0  0  0  0  0  0  0  0  0  0  0
  160.9050  203.6360  150.0580 C   0  0  0  0  0  0  0  0  0  0  0  0
  161.2640  205.8610  154.4520 N   0  0  0  0  0  2  0  0  0  0  0  0
  161.5970  207.2310  151.0810 C   0  0  0  0  0  0  0  0  0  0  0  0
  161.3350  206.2910  148.7540 C   0  0  0  0  0  2  0  0  0  0  0  0
  162.5260  209.7880  148.4900 O   0  0  0  0  0  1  0  0  0  0  0  0
  160.2480  209.6980  152.0700 C   0  0  1  0  0  3  0  0  0  0  0  0
  161.7920  208.7100  148.9890 C   0  0  1  0  0  3  0  0  0  0  0  0
  160.5050  209.1010  153.4560 C   0  0  2  0  0  3  0  0  0  0  0  0
  161.5170  207.2300  154.7510 C   0  0  0  0  0  0  0  0  0  0  0  0
  162.2220  207.4320  148.2820 C   0  0  2  0  0  3  0  0  0  0  0  0
  162.0300  208.5760  150.4970 C   0  0  1  0  0  3  0  0  0  0  0  0
  160.6490  202.4160  150.6890 C   0  0  0  0  0  3  0  0  0  0  0  0
  160.7150  210.2860  154.3700 C   0  0  0  0  0  2  0  0  0  0  0  0
  159.6440  211.0730  152.3240 C   0  0  0  0  0  2  0  0  0  0  0  0
  160.9440  203.6440  148.6680 O   0  0  0  0  0  1  0  0  0  0  0  0
  161.2840  205.8240  153.0320 C   0  0  0  0  0  0  0  0  0  0  0  0
  160.6060  202.3250  152.0780 C   0  0  0  0  0  3  0  0  0  0  0  0
  161.1220  204.8130  150.8280 C   0  0  0  0  0  0  0  0  0  0  0  0
  161.5360  207.0530  152.4720 C   0  0  0  0  0  0  0  0  0  0  0  0
  161.6160  207.6530  155.9330 O   0  0  0  0  0  0  0  0  0  0  0  0
  161.6690  208.0980  153.5380 C   0  0  1  0  0  3  0  0  0  0  0  0
  159.8330  211.3800  153.8030 C   0  0  0  0  0  2  0  0  0  0  0  0
  162.1650  210.8170  151.2160 O   0  0  0  0  0  0  0  0  0  0  0  0
  160.8210  203.4590  152.8550 C   0  0  0  0  0  3  0  0  0  0  0  0
  161.0780  204.6920  152.2490 C   0  0  0  0  0  0  0  0  0  0  0  0
  161.5090  209.7850  151.2380 C   0  0  0  0  0  0  0  0  0  0  0  0
  162.0800  207.5780  146.8980 O   0  0  0  0  0  0  0  0  0  0  0  0
  162.3820  205.6570  145.5320 C   0  0  0  0  0  1  0  0  0  0  0  0
  161.4610  206.4010  146.4760 C   0  0  0  0  0  2  0  0  0  0  0  0
  1 19  2  0  0  0  0
  1  4  1  0  0  0  0
  2 13  2  0  0  0  0
  2 19  1  0  0  0  0
  3 10  1  0  0  0  0
  4 20  2  0  0  0  0
  5  1  1  0  0  0  0
  7 15  1  1  0  0  0
  7  9  1  0  0  0  0
  8  6  1  6  0  0  0
  8 12  1  0  0  0  0
  9 22  1  0  0  0  0
  9 14  1  1  0  0  0
 10 21  2  0  0  0  0
 11 28  1  6  0  0  0
 11  5  1  0  0  0  0
 11  8  1  0  0  0  0
 12  4  1  1  0  0  0
 12 27  1  0  0  0  0
 13 18  1  0  0  0  0
 15 23  1  0  0  0  0
 16  2  1  0  0  0  0
 17  3  1  0  0  0  0
 18 25  2  0  0  0  0
 19 26  1  0  0  0  0
 20 17  1  0  0  0  0
 22 20  1  6  0  0  0
 22 10  1  0  0  0  0
 23 14  1  0  0  0  0
 24 27  2  0  0  0  0
 26 25  1  0  0  0  0
 26 17  2  0  0  0  0
 27  7  1  0  0  0  0
 29 30  1  0  0  0  0
 30 28  1  0  0  0  0
M  END
>  <MODEL>
1

>  <REMARK>
 VINA RESULT:      -8.1      0.000      0.000
  Name = 
  2 active torsions:
  status: ('A' for Active; 'I' for Inactive)
    1  A    between atoms: C_11  and  O_28
    2  A    between atoms: O_28  and  C_30
                            x       y       z     vdW  Elec       q    Type
                         _______ _______ _______ _____ _____    ______ ____

>  <TORSDO>
F 2

$$$$
=
 OpenBabel11122412423D

 30 35  0  0  1  0  0  0  0  0999 V2000
  161.2720  210.4410  150.7880 C   0  0  0  0  0  0  0  0  0  0  0  0
  161.6110  212.2630  149.0900 C   0  0  0  0  0  0  0  0  0  0  0  0
  159.0140  213.0390  153.2180 N   0  0  0  0  0  2  0  0  0  0  0  0
  160.7110  210.0300  152.0310 C   0  0  0  0  0  0  0  0  0  0  0  0
  162.1630  209.4830  150.0400 C   0  0  0  0  0  2  0  0  0  0  0  0
  161.5620  206.3710  151.9550 O   0  0  0  0  0  1  0  0  0  0  0  0
  161.4420  209.4590  154.8640 C   0  0  1  0  0  3  0  0  0  0  0  0
  161.8170  207.7280  151.7470 C   0  0  1  0  0  3  0  0  0  0  0  0
  160.4160  210.5480  155.1890 C   0  0  2  0  0  3  0  0  0  0  0  0
  158.7300  212.1420  154.2860 C   0  0  0  0  0  0  0  0  0  0  0  0
  161.7700  208.0300  150.2560 C   0  0  2  0  0  3  0  0  0  0  0  0
  160.7700  208.5700  152.4830 C   0  0  1  0  0  3  0  0  0  0  0  0
  161.3880  213.5840  148.6930 C   0  0  0  0  0  3  0  0  0  0  0  0
  159.8130  210.1460  156.5150 C   0  0  0  0  0  2  0  0  0  0  0  0
  161.8930  208.9090  156.2110 C   0  0  0  0  0  2  0  0  0  0  0  0
  162.3550  211.4540  148.2380 O   0  0  0  0  0  1  0  0  0  0  0  0
  159.7860  212.2530  152.3220 C   0  0  0  0  0  0  0  0  0  0  0  0
  160.6420  214.4530  149.4860 C   0  0  0  0  0  3  0  0  0  0  0  0
  161.0820  211.7820  150.3200 C   0  0  0  0  0  0  0  0  0  0  0  0
  159.9740  210.9670  152.7700 C   0  0  0  0  0  0  0  0  0  0  0  0
  158.0180  212.4730  155.2700 O   0  0  0  0  0  0  0  0  0  0  0  0
  159.3400  210.7830  154.1160 C   0  0  1  0  0  3  0  0  0  0  0  0
  160.9330  209.4490  157.2600 C   0  0  0  0  0  2  0  0  0  0  0  0
  160.4100  207.3540  154.4700 O   0  0  0  0  0  0  0  0  0  0  0  0
  160.1080  214.0070  150.6910 C   0  0  0  0  0  3  0  0  0  0  0  0
  160.3180  212.6900  151.1120 C   0  0  0  0  0  0  0  0  0  0  0  0
  160.8700  208.3740  153.9780 C   0  0  0  0  0  0  0  0  0  0  0  0
  162.6690  207.2080  149.5700 O   0  0  0  0  0  0  0  0  0  0  0  0
  160.7900  206.3260  148.4110 C   0  0  0  0  0  1  0  0  0  0  0  0
  162.1140  207.0530  148.2990 C   0  0  0  0  0  2  0  0  0  0  0  0
  1  4  1  0  0  0  0
  2 19  1  0  0  0  0
  3 10  1  0  0  0  0
  4 20  2  0  0  0  0
  5 11  1  0  0  0  0
  5  1  1  0  0  0  0
  7  9  1  0  0  0  0
  7 15  1  1  0  0  0
  8  6  1  6  0  0  0
  8 12  1  0  0  0  0
  9 14  1  1  0  0  0
 10 21  2  0  0  0  0
 11 28  1  6  0  0  0
 11  8  1  0  0  0  0
 12  4  1  1  0  0  0
 12 27  1  0  0  0  0
 13  2  2  0  0  0  0
 13 18  1  0  0  0  0
 14 23  1  0  0  0  0
 15 23  1  0  0  0  0
 16  2  1  0  0  0  0
 17 20  1  0  0  0  0
 17  3  1  0  0  0  0
 18 25  2  0  0  0  0
 19  1  2  0  0  0  0
 19 26  1  0  0  0  0
 22 20  1  6  0  0  0
 22 10  1  0  0  0  0
 22  9  1  0  0  0  0
 25 26  1  0  0  0  0
 26 17  2  0  0  0  0
 27 24  2  0  0  0  0
 27  7  1  0  0  0  0
 30 29  1  0  0  0  0
 30 28  1  0  0  0  0
M  END
>  <MODEL>
2

>  <REMARK>
 VINA RESULT:      -7.0      2.779      5.943
  Name = 
  2 active torsions:
  status: ('A' for Active; 'I' for Inactive)
    1  A    between atoms: C_11  and  O_28
    2  A    between atoms: O_28  and  C_30
                            x       y       z     vdW  Elec       q    Type
                         _______ _______ _______ _____ _____    ______ ____

>  <TORSDO>
F 2

$$$$
=
 OpenBabel11122412423D

 30 35  0  0  1  0  0  0  0  0999 V2000
  160.1660  209.7850  153.4840 C   0  0  0  0  0  0  0  0  0  0  0  0
  158.8840  211.8150  154.2310 C   0  0  0  0  0  0  0  0  0  0  0  0
  161.3970  211.7720  149.9790 N   0  0  0  0  0  2  0  0  0  0  0  0
  160.9960  209.1650  152.5070 C   0  0  0  0  0  0  0  0  0  0  0  0
  159.6780  208.9630  154.6500 C   0  0  0  0  0  2  0  0  0  0  0  0
  161.7660  205.9300  154.2550 O   0  0  0  0  0  1  0  0  0  0  0  0
  160.9270  207.1780  150.2860 C   0  0  1  0  0  3  0  0  0  0  0  0
  160.9390  206.9860  153.8660 C   0  0  1  0  0  3  0  0  0  0  0  0
  161.4300  208.3430  149.4300 C   0  0  2  0  0  3  0  0  0  0  0  0
  162.1610  210.7230  149.3940 C   0  0  0  0  0  0  0  0  0  0  0  0
  160.6710  207.8880  155.0630 C   0  0  2  0  0  3  0  0  0  0  0  0
  161.6140  207.7880  152.7490 C   0  0  1  0  0  3  0  0  0  0  0  0
  158.4790  213.1290  153.9850 C   0  0  0  0  0  3  0  0  0  0  0  0
  162.3040  207.7140  148.3700 C   0  0  0  0  0  2  0  0  0  0  0  0
  160.9200  205.9670  149.3620 C   0  0  0  0  0  2  0  0  0  0  0  0
  158.4530  211.2190  155.4100 O   0  0  0  0  0  1  0  0  0  0  0  0
  160.9250  211.2010  151.1910 C   0  0  0  0  0  0  0  0  0  0  0  0
  158.8800  213.7980  152.8310 C   0  0  0  0  0  3  0  0  0  0  0  0
  159.7140  211.1320  153.2970 C   0  0  0  0  0  0  0  0  0  0  0  0
  161.3530  209.9090  151.3720 C   0  0  0  0  0  0  0  0  0  0  0  0
  162.7820  210.8690  148.3090 O   0  0  0  0  0  0  0  0  0  0  0  0
  162.1660  209.4560  150.1960 C   0  0  1  0  0  3  0  0  0  0  0  0
  161.6840  206.3570  148.1050 C   0  0  0  0  0  2  0  0  0  0  0  0
  162.6950  206.1230  151.4770 O   0  0  0  0  0  0  0  0  0  0  0  0
  159.6950  213.1550  151.9050 C   0  0  0  0  0  3  0  0  0  0  0  0
  160.1140  211.8400  152.1250 C   0  0  0  0  0  0  0  0  0  0  0  0
  161.7910  206.9460  151.5070 C   0  0  0  0  0  0  0  0  0  0  0  0
  160.1260  207.1440  156.1130 O   0  0  0  0  0  0  0  0  0  0  0  0
  161.8350  208.3830  157.2050 C   0  0  0  0  0  1  0  0  0  0  0  0
  160.4060  207.8870  157.2610 C   0  0  0  0  0  2  0  0  0  0  0  0
  1  5  1  0  0  0  0
  2 16  1  0  0  0  0
  3 17  1  0  0  0  0
  4 12  1  0  0  0  0
  4  1  2  0  0  0  0
  5 11  1  0  0  0  0
  7 15  1  6  0  0  0
  7 27  1  0  0  0  0
  8  6  1  1  0  0  0
  8 11  1  0  0  0  0
  9 14  1  6  0  0  0
  9 22  1  0  0  0  0
  9  7  1  0  0  0  0
 10  3  1  0  0  0  0
 11 28  1  1  0  0  0
 12 27  1  6  0  0  0
 12  8  1  0  0  0  0
 13  2  1  0  0  0  0
 17 20  2  0  0  0  0
 17 26  1  0  0  0  0
 18 13  2  0  0  0  0
 19  1  1  0  0  0  0
 19  2  2  0  0  0  0
 20  4  1  0  0  0  0
 21 10  2  0  0  0  0
 22 10  1  6  0  0  0
 22 20  1  0  0  0  0
 23 14  1  0  0  0  0
 23 15  1  0  0  0  0
 24 27  2  0  0  0  0
 25 26  2  0  0  0  0
 25 18  1  0  0  0  0
 26 19  1  0  0  0  0
 28 30  1  0  0  0  0
 29 30  1  0  0  0  0
M  END
>  <MODEL>
3

>  <REMARK>
 VINA RESULT:      -6.8      2.481      7.396
  Name = 
  2 active torsions:
  status: ('A' for Active; 'I' for Inactive)
    1  A    between atoms: C_11  and  O_28
    2  A    between atoms: O_28  and  C_30
                            x       y       z     vdW  Elec       q    Type
                         _______ _______ _______ _____ _____    ______ ____

>  <TORSDO>
F 2

$$$$
=
 OpenBabel11122412423D

 30 35  0  0  1  0  0  0  0  0999 V2000
  161.1920  210.9190  150.7870 C   0  0  0  0  0  0  0  0  0  0  0  0
  161.6780  212.2170  148.6890 C   0  0  0  0  0  0  0  0  0  0  0  0
  158.9090  214.1150  152.3110 N   0  0  0  0  0  2  0  0  0  0  0  0
  160.5560  210.8640  152.0600 C   0  0  0  0  0  0  0  0  0  0  0  0
  162.0840  209.7780  150.3700 C   0  0  0  0  0  2  0  0  0  0  0  0
  161.2810  207.2990  153.0020 O   0  0  0  0  0  1  0  0  0  0  0  0
  161.1270  211.0510  154.9790 C   0  0  1  0  0  3  0  0  0  0  0  0
  161.5930  208.5470  152.4570 C   0  0  1  0  0  3  0  0  0  0  0  0
  160.1250  212.2090  154.9470 C   0  0  2  0  0  3  0  0  0  0  0  0
  158.5420  213.5400  153.5610 C   0  0  0  0  0  0  0  0  0  0  0  0
  161.6300  208.4430  150.9380 C   0  0  2  0  0  3  0  0  0  0  0  0
  160.5410  209.5760  152.8840 C   0  0  1  0  0  3  0  0  0  0  0  0
  161.5210  213.3900  147.9460 C   0  0  0  0  0  3  0  0  0  0  0  0
  159.4430  212.1860  156.2960 C   0  0  0  0  0  2  0  0  0  0  0  0
  161.4910  210.8690  156.4470 C   0  0  0  0  0  2  0  0  0  0  0  0
  162.4340  211.1960  148.1250 O   0  0  0  0  0  1  0  0  0  0  0  0
  159.6970  213.1040  151.7000 C   0  0  0  0  0  0  0  0  0  0  0  0
  160.7680  214.4530  148.4370 C   0  0  0  0  0  3  0  0  0  0  0  0
  161.0720  212.0910  149.9710 C   0  0  0  0  0  0  0  0  0  0  0  0
  159.8170  211.9790  152.4810 C   0  0  0  0  0  0  0  0  0  0  0  0
  157.7940  214.1350  154.3800 O   0  0  0  0  0  0  0  0  0  0  0  0
  159.1110  212.1720  153.7900 C   0  0  1  0  0  3  0  0  0  0  0  0
  160.5000  211.6880  157.2610 C   0  0  0  0  0  2  0  0  0  0  0  0
  160.0410  208.9390  155.0980 O   0  0  0  0  0  0  0  0  0  0  0  0
  160.1610  214.3540  149.6850 C   0  0  0  0  0  3  0  0  0  0  0  0
  160.3020  213.1920  150.4500 C   0  0  0  0  0  0  0  0  0  0  0  0
  160.5610  209.7820  154.3810 C   0  0  0  0  0  0  0  0  0  0  0  0
  162.5320  207.4500  150.5470 O   0  0  0  0  0  0  0  0  0  0  0  0
  160.8870  206.7180  148.9950 C   0  0  0  0  0  1  0  0  0  0  0  0
  162.2880  207.2610  149.1860 C   0  0  0  0  0  2  0  0  0  0  0  0
  1  4  1  0  0  0  0
  2 19  1  0  0  0  0
  3 10  1  0  0  0  0
  4 20  2  0  0  0  0
  5  1  1  0  0  0  0
  5 11  1  0  0  0  0
  7 15  1  1  0  0  0
  8 12  1  0  0  0  0
  8  6  1  1  0  0  0
  9  7  1  0  0  0  0
  9 14  1  1  0  0  0
 10 22  1  0  0  0  0
 10 21  2  0  0  0  0
 11 28  1  1  0  0  0
 11  8  1  0  0  0  0
 12  4  1  6  0  0  0
 12 27  1  0  0  0  0
 13 18  1  0  0  0  0
 13  2  2  0  0  0  0
 14 23  1  0  0  0  0
 15 23  1  0  0  0  0
 16  2  1  0  0  0  0
 17  3  1  0  0  0  0
 17 20  1  0  0  0  0
 18 25  2  0  0  0  0
 19 26  1  0  0  0  0
 19  1  2  0  0  0  0
 22 20  1  6  0  0  0
 22  9  1  0  0  0  0
 25 26  1  0  0  0  0
 26 17  2  0  0  0  0
 27  7  1  0  0  0  0
 27 24  2  0  0  0  0
 29 30  1  0  0  0  0
 30 28  1  0  0  0  0
M  END
>  <MODEL>
4

>  <REMARK>
 VINA RESULT:      -6.6      3.111      6.395
  Name = 
  2 active torsions:
  status: ('A' for Active; 'I' for Inactive)
    1  A    between atoms: C_11  and  O_28
    2  A    between atoms: O_28  and  C_30
                            x       y       z     vdW  Elec       q    Type
                         _______ _______ _______ _____ _____    ______ ____

>  <TORSDO>
F 2

$$$$
=
 OpenBabel11122412423D

 30 35  0  0  1  0  0  0  0  0999 V2000
  161.5600  208.7860  150.9140 C   0  0  0  0  0  0  0  0  0  0  0  0
  162.2320  209.6950  148.6680 C   0  0  0  0  0  0  0  0  0  0  0  0
  160.1230  212.5700  152.0850 N   0  0  0  0  0  2  0  0  0  0  0  0
  160.9850  209.0210  152.1950 C   0  0  0  0  0  0  0  0  0  0  0  0
  162.1550  207.4330  150.6210 C   0  0  0  0  0  2  0  0  0  0  0  0
  160.9330  205.5150  153.5440 O   0  0  0  0  0  1  0  0  0  0  0  0
  161.7120  209.4010  155.0610 C   0  0  1  0  0  3  0  0  0  0  0  0
  161.4930  206.5890  152.8480 C   0  0  1  0  0  3  0  0  0  0  0  0
  160.9950  210.7450  154.9080 C   0  0  2  0  0  3  0  0  0  0  0  0
  159.6910  212.2380  153.4000 C   0  0  0  0  0  0  0  0  0  0  0  0
  161.4380  206.3090  151.3530 C   0  0  2  0  0  3  0  0  0  0  0  0
  160.7190  207.8720  153.1670 C   0  0  1  0  0  3  0  0  0  0  0  0
  162.3090  210.7810  147.7920 C   0  0  0  0  0  3  0  0  0  0  0  0
  160.3860  211.0300  156.2610 C   0  0  0  0  0  2  0  0  0  0  0  0
  162.0910  209.3070  156.5330 C   0  0  0  0  0  2  0  0  0  0  0  0
  162.7140  208.4710  148.2170 O   0  0  0  0  0  1  0  0  0  0  0  0
  160.6350  211.3430  151.5860 C   0  0  0  0  0  0  0  0  0  0  0  0
  161.8370  212.0370  148.1660 C   0  0  0  0  0  3  0  0  0  0  0  0
  161.6710  209.8560  149.9660 C   0  0  0  0  0  0  0  0  0  0  0  0
  160.5350  210.3160  152.4930 C   0  0  0  0  0  0  0  0  0  0  0  0
  159.1330  213.0760  154.1560 O   0  0  0  0  0  0  0  0  0  0  0  0
  159.9490  210.8110  153.7820 C   0  0  1  0  0  3  0  0  0  0  0  0
  161.3460  210.4170  157.2600 C   0  0  0  0  0  2  0  0  0  0  0  0
  160.1870  207.6190  155.4500 O   0  0  0  0  0  0  0  0  0  0  0  0
  161.2780  212.2200  149.4270 C   0  0  0  0  0  3  0  0  0  0  0  0
  161.1890  211.1500  150.3240 C   0  0  0  0  0  0  0  0  0  0  0  0
  160.8500  208.2350  154.6280 C   0  0  0  0  0  0  0  0  0  0  0  0
  162.0770  205.0990  151.0670 O   0  0  0  0  0  0  0  0  0  0  0  0
  160.7970  203.1100  150.8340 C   0  0  0  0  0  1  0  0  0  0  0  0
  161.2030  204.4280  150.2100 C   0  0  0  0  0  2  0  0  0  0  0  0
  1  4  1  0  0  0  0
  2 19  1  0  0  0  0
  3 10  1  0  0  0  0
  4 20  2  0  0  0  0
  5  1  1  0  0  0  0
  5 11  1  0  0  0  0
  7 15  1  1  0  0  0
  8 12  1  0  0  0  0
  8  6  1  1  0  0  0
  9  7  1  0  0  0  0
  9 14  1  1  0  0  0
 10 22  1  0  0  0  0
 10 21  2  0  0  0  0
 11 28  1  1  0  0  0
 11  8  1  0  0  0  0
 12  4  1  6  0  0  0
 12 27  1  0  0  0  0
 13 18  1  0  0  0  0
 13  2  2  0  0  0  0
 14 23  1  0  0  0  0
 15 23  1  0  0  0  0
 16  2  1  0  0  0  0
 17  3  1  0  0  0  0
 17 20  1  0  0  0  0
 18 25  2  0  0  0  0
 19 26  1  0  0  0  0
 19  1  2  0  0  0  0
 22 20  1  6  0  0  0
 22  9  1  0  0  0  0
 25 26  1  0  0  0  0
 26 17  2  0  0  0  0
 27  7  1  0  0  0  0
 27 24  2  0  0  0  0
 30 29  1  0  0  0  0
 30 28  1  0  0  0  0
M  END
>  <MODEL>
5

>  <REMARK>
 VINA RESULT:      -6.5      2.348      5.440
  Name = 
  2 active torsions:
  status: ('A' for Active; 'I' for Inactive)
    1  A    between atoms: C_11  and  O_28
    2  A    between atoms: O_28  and  C_30
                            x       y       z     vdW  Elec       q    Type
                         _______ _______ _______ _____ _____    ______ ____

>  <TORSDO>
F 2

$$$$
=
 OpenBabel11122412423D

 30 35  0  0  1  0  0  0  0  0999 V2000
  161.4100  208.2430  151.4600 C   0  0  0  0  0  0  0  0  0  0  0  0
  161.2490  210.7020  150.9600 C   0  0  0  0  0  0  0  0  0  0  0  0
  162.5070  207.4390  147.4730 N   0  0  0  0  0  2  0  0  0  0  0  0
  161.6800  206.9250  150.9930 C   0  0  0  0  0  0  0  0  0  0  0  0
  160.9100  208.4270  152.8700 C   0  0  0  0  0  2  0  0  0  0  0  0
  161.4660  205.0270  154.2290 O   0  0  0  0  0  1  0  0  0  0  0  0
  160.3250  204.3940  150.1910 C   0  0  1  0  0  3  0  0  0  0  0  0
  161.0650  205.9990  153.3100 C   0  0  1  0  0  3  0  0  0  0  0  0
  161.0440  204.6100  148.8560 C   0  0  2  0  0  3  0  0  0  0  0  0
  162.6360  206.0240  147.5660 C   0  0  0  0  0  0  0  0  0  0  0  0
  161.4560  207.3770  153.8250 C   0  0  2  0  0  3  0  0  0  0  0  0
  161.7340  205.7380  151.9560 C   0  0  1  0  0  3  0  0  0  0  0  0
  161.3580  211.7430  150.0340 C   0  0  0  0  0  3  0  0  0  0  0  0
  161.3300  203.2240  148.3270 C   0  0  0  0  0  2  0  0  0  0  0  0
  159.6270  203.0460  150.0640 C   0  0  0  0  0  2  0  0  0  0  0  0
  160.8930  211.0340  152.2620 O   0  0  0  0  0  1  0  0  0  0  0  0
  162.1330  207.8240  148.7870 C   0  0  0  0  0  0  0  0  0  0  0  0
  161.7210  211.4910  148.7140 C   0  0  0  0  0  3  0  0  0  0  0  0
  161.5030  209.3580  150.5650 C   0  0  0  0  0  0  0  0  0  0  0  0
  162.0380  206.7570  149.6470 C   0  0  0  0  0  0  0  0  0  0  0  0
  163.0020  205.3170  146.5910 O   0  0  0  0  0  0  0  0  0  0  0  0
  162.3150  205.4740  148.9230 C   0  0  1  0  0  3  0  0  0  0  0  0
  160.1780  202.3710  148.8160 C   0  0  0  0  0  2  0  0  0  0  0  0
  161.7430  203.3850  151.8110 O   0  0  0  0  0  0  0  0  0  0  0  0
  161.9810  210.1870  148.3030 C   0  0  0  0  0  3  0  0  0  0  0  0
  161.8780  209.1270  149.2080 C   0  0  0  0  0  0  0  0  0  0  0  0
  161.2740  204.4240  151.3680 C   0  0  0  0  0  0  0  0  0  0  0  0
  160.9120  207.5880  155.0950 O   0  0  0  0  0  0  0  0  0  0  0  0
  161.9550  209.0590  156.6430 C   0  0  0  0  0  1  0  0  0  0  0  0
  161.1490  208.9360  155.3670 C   0  0  0  0  0  2  0  0  0  0  0  0
  1  5  1  0  0  0  0
  2 16  1  0  0  0  0
  3 10  1  0  0  0  0
  3 17  1  0  0  0  0
  4  1  1  0  0  0  0
  5 11  1  0  0  0  0
  7 15  1  6  0  0  0
  7 27  1  0  0  0  0
  8 11  1  0  0  0  0
  8  6  1  1  0  0  0
  9 14  1  1  0  0  0
  9 22  1  0  0  0  0
  9  7  1  0  0  0  0
 11 28  1  1  0  0  0
 12  4  1  6  0  0  0
 12  8  1  0  0  0  0
 13  2  2  0  0  0  0
 14 23  1  0  0  0  0
 17 26  2  0  0  0  0
 17 20  1  0  0  0  0
 18 13  1  0  0  0  0
 19  2  1  0  0  0  0
 19  1  2  0  0  0  0
 20  4  2  0  0  0  0
 21 10  2  0  0  0  0
 22 10  1  6  0  0  0
 22 20  1  0  0  0  0
 23 15  1  0  0  0  0
 25 18  2  0  0  0  0
 25 26  1  0  0  0  0
 26 19  1  0  0  0  0
 27 24  2  0  0  0  0
 27 12  1  0  0  0  0
 28 30  1  0  0  0  0
 30 29  1  0  0  0  0
M  END
>  <MODEL>
6

>  <REMARK>
 VINA RESULT:      -6.4      2.173      7.175
  Name = 
  2 active torsions:
  status: ('A' for Active; 'I' for Inactive)
    1  A    between atoms: C_11  and  O_28
    2  A    between atoms: O_28  and  C_30
                            x       y       z     vdW  Elec       q    Type
                         _______ _______ _______ _____ _____    ______ ____

>  <TORSDO>
F 2

$$$$
=
 OpenBabel11122412423D

 30 35  0  0  1  0  0  0  0  0999 V2000
  160.8650  209.1470  153.3500 C   0  0  0  0  0  0  0  0  0  0  0  0
  160.8830  207.1340  154.8570 C   0  0  0  0  0  0  0  0  0  0  0  0
  159.2520  211.5200  156.4360 N   0  0  0  0  0  2  0  0  0  0  0  0
  160.5690  210.5290  153.1750 C   0  0  0  0  0  0  0  0  0  0  0  0
  161.3290  208.3460  152.1610 C   0  0  0  0  0  2  0  0  0  0  0  0
  161.9580  211.0640  149.7250 O   0  0  0  0  0  1  0  0  0  0  0  0
  158.5760  212.3660  151.9350 C   0  0  1  0  0  3  0  0  0  0  0  0
  161.2760  210.3490  150.7120 C   0  0  1  0  0  3  0  0  0  0  0  0
  158.4010  212.8940  153.3620 C   0  0  2  0  0  3  0  0  0  0  0  0
  159.1560  212.7530  155.7300 C   0  0  0  0  0  0  0  0  0  0  0  0
  162.1330  209.1790  151.1750 C   0  0  2  0  0  3  0  0  0  0  0  0
  160.9650  211.2680  151.8970 C   0  0  1  0  0  3  0  0  0  0  0  0
  160.6130  206.5760  156.1100 C   0  0  0  0  0  3  0  0  0  0  0  0
  158.0700  214.3600  153.2070 C   0  0  0  0  0  2  0  0  0  0  0  0
  157.7100  213.2620  151.0600 C   0  0  0  0  0  2  0  0  0  0  0  0
  161.4250  206.3000  153.8860 O   0  0  0  0  0  1  0  0  0  0  0  0
  159.7950  210.6300  155.4720 C   0  0  0  0  0  0  0  0  0  0  0  0
  160.0810  207.3500  157.1380 C   0  0  0  0  0  3  0  0  0  0  0  0
  160.6130  208.5090  154.6090 C   0  0  0  0  0  0  0  0  0  0  0  0
  160.0340  211.2360  154.2620 C   0  0  0  0  0  0  0  0  0  0  0  0
  158.7470  213.8110  156.2780 O   0  0  0  0  0  0  0  0  0  0  0  0
  159.5990  212.6710  154.3000 C   0  0  1  0  0  3  0  0  0  0  0  0
  157.2940  214.4530  151.9100 C   0  0  0  0  0  2  0  0  0  0  0  0
  160.4670  213.3250  150.8580 O   0  0  0  0  0  0  0  0  0  0  0  0
  159.8130  208.6980  156.9240 C   0  0  0  0  0  3  0  0  0  0  0  0
  160.0720  209.2820  155.6800 C   0  0  0  0  0  0  0  0  0  0  0  0
  160.0220  212.3770  151.4900 C   0  0  0  0  0  0  0  0  0  0  0  0
  162.4840  208.3790  150.0830 O   0  0  0  0  0  0  0  0  0  0  0  0
  161.1000  206.9590  148.7730 C   0  0  0  0  0  1  0  0  0  0  0  0
  161.6290  207.2790  150.1560 C   0  0  0  0  0  2  0  0  0  0  0  0
  1 19  1  0  0  0  0
  2 13  1  0  0  0  0
  4  1  2  0  0  0  0
  4 20  1  0  0  0  0
  5  1  1  0  0  0  0
  7 15  1  6  0  0  0
  7  9  1  0  0  0  0
  8  6  1  6  0  0  0
  8 11  1  0  0  0  0
  8 12  1  0  0  0  0
  9 14  1  6  0  0  0
  9 22  1  0  0  0  0
 10 21  2  0  0  0  0
 10  3  1  0  0  0  0
 11 28  1  6  0  0  0
 11  5  1  0  0  0  0
 12 27  1  6  0  0  0
 12  4  1  0  0  0  0
 13 18  2  0  0  0  0
 15 23  1  0  0  0  0
 16  2  1  0  0  0  0
 17 26  1  0  0  0  0
 17  3  1  0  0  0  0
 19  2  2  0  0  0  0
 19 26  1  0  0  0  0
 20 17  2  0  0  0  0
 22 20  1  6  0  0  0
 22 10  1  0  0  0  0
 23 14  1  0  0  0  0
 24 27  2  0  0  0  0
 25 18  1  0  0  0  0
 26 25  2  0  0  0  0
 27  7  1  0  0  0  0
 28 30  1  0  0  0  0
 29 30  1  0  0  0  0
M  END
>  <MODEL>
7

>  <REMARK>
 VINA RESULT:      -6.3      2.803      4.835
  Name = 
  2 active torsions:
  status: ('A' for Active; 'I' for Inactive)
    1  A    between atoms: C_11  and  O_28
    2  A    between atoms: O_28  and  C_30
                            x       y       z     vdW  Elec       q    Type
                         _______ _______ _______ _____ _____    ______ ____

>  <TORSDO>
F 2

$$$$
=
 OpenBabel11122412423D

 30 35  0  0  1  0  0  0  0  0999 V2000
  160.7690  209.8300  152.6280 C   0  0  0  0  0  0  0  0  0  0  0  0
  160.1700  212.2310  152.1790 C   0  0  0  0  0  0  0  0  0  0  0  0
  162.1650  209.3740  148.6790 N   0  0  0  0  0  2  0  0  0  0  0  0
  161.3020  208.6010  152.1440 C   0  0  0  0  0  0  0  0  0  0  0  0
  160.1850  209.8720  154.0170 C   0  0  0  0  0  2  0  0  0  0  0  0
  161.3120  206.5940  155.3200 O   0  0  0  0  0  1  0  0  0  0  0  0
  160.4820  205.8890  151.2180 C   0  0  1  0  0  3  0  0  0  0  0  0
  160.7750  207.5030  154.4060 C   0  0  1  0  0  3  0  0  0  0  0  0
  161.2030  206.2780  149.9250 C   0  0  2  0  0  3  0  0  0  0  0  0
  162.5540  208.0060  148.7450 C   0  0  0  0  0  0  0  0  0  0  0  0
  160.8780  208.9130  154.9710 C   0  0  2  0  0  3  0  0  0  0  0  0
  161.5370  207.4160  153.0790 C   0  0  1  0  0  3  0  0  0  0  0  0
  160.1200  213.3030  151.2840 C   0  0  0  0  0  3  0  0  0  0  0  0
  161.7670  204.9880  149.3770 C   0  0  0  0  0  2  0  0  0  0  0  0
  160.0560  204.4390  151.0260 C   0  0  0  0  0  2  0  0  0  0  0  0
  159.7040  212.4490  153.4700 O   0  0  0  0  0  1  0  0  0  0  0  0
  161.6700  209.6400  149.9830 C   0  0  0  0  0  0  0  0  0  0  0  0
  160.5800  213.1660  149.9770 C   0  0  0  0  0  3  0  0  0  0  0  0
  160.6890  210.9710  151.7640 C   0  0  0  0  0  0  0  0  0  0  0  0
  161.7410  208.5470  150.8120 C   0  0  0  0  0  0  0  0  0  0  0  0
  163.0860  207.4110  147.7720 O   0  0  0  0  0  0  0  0  0  0  0  0
  162.2850  207.3620  150.0720 C   0  0  1  0  0  3  0  0  0  0  0  0
  160.7760  203.9190  149.7910 C   0  0  0  0  0  2  0  0  0  0  0  0
  161.9950  205.1120  152.8800 O   0  0  0  0  0  0  0  0  0  0  0  0
  161.0970  211.9470  149.5480 C   0  0  0  0  0  3  0  0  0  0  0  0
  161.1570  210.8580  150.4220 C   0  0  0  0  0  0  0  0  0  0  0  0
  161.3580  206.0590  152.4400 C   0  0  0  0  0  0  0  0  0  0  0  0
  160.2510  208.9780  156.2180 O   0  0  0  0  0  0  0  0  0  0  0  0
  162.4110  209.5170  157.0480 C   0  0  0  0  0  1  0  0  0  0  0  0
  160.9640  209.9450  156.9280 C   0  0  0  0  0  2  0  0  0  0  0  0
  1  5  1  0  0  0  0
  2 16  1  0  0  0  0
  3 10  1  0  0  0  0
  3 17  1  0  0  0  0
  4  1  1  0  0  0  0
  5 11  1  0  0  0  0
  7 15  1  6  0  0  0
  7 27  1  0  0  0  0
  8 11  1  0  0  0  0
  8  6  1  1  0  0  0
  9 14  1  1  0  0  0
  9 22  1  0  0  0  0
  9  7  1  0  0  0  0
 11 28  1  1  0  0  0
 12  4  1  6  0  0  0
 12  8  1  0  0  0  0
 13  2  2  0  0  0  0
 14 23  1  0  0  0  0
 17 26  2  0  0  0  0
 17 20  1  0  0  0  0
 18 13  1  0  0  0  0
 19  2  1  0  0  0  0
 19  1  2  0  0  0  0
 20  4  2  0  0  0  0
 21 10  2  0  0  0  0
 22 10  1  6  0  0  0
 22 20  1  0  0  0  0
 23 15  1  0  0  0  0
 25 18  2  0  0  0  0
 25 26  1  0  0  0  0
 26 19  1  0  0  0  0
 27 24  2  0  0  0  0
 27 12  1  0  0  0  0
 28 30  1  0  0  0  0
 30 29  1  0  0  0  0
M  END
>  <MODEL>
8

>  <REMARK>
 VINA RESULT:      -6.3      2.215      7.335
  Name = 
  2 active torsions:
  status: ('A' for Active; 'I' for Inactive)
    1  A    between atoms: C_11  and  O_28
    2  A    between atoms: O_28  and  C_30
                            x       y       z     vdW  Elec       q    Type
                         _______ _______ _______ _____ _____    ______ ____

>  <TORSDO>
F 2

$$$$
=
 OpenBabel11122412423D

 30 35  0  0  1  0  0  0  0  0999 V2000
  160.9570  210.2230  151.5600 C   0  0  0  0  0  0  0  0  0  0  0  0
  161.9350  208.1190  150.5910 C   0  0  0  0  0  0  0  0  0  0  0  0
  160.5410  208.3730  155.3220 N   0  0  0  0  0  2  0  0  0  0  0  0
  160.4150  210.9020  152.6880 C   0  0  0  0  0  0  0  0  0  0  0  0
  160.9620  210.9220  150.2240 C   0  0  0  0  0  2  0  0  0  0  0  0
  160.0430  214.3570  151.2600 O   0  0  0  0  0  1  0  0  0  0  0  0
  157.8330  211.8280  153.8540 C   0  0  1  0  0  3  0  0  0  0  0  0
  159.9800  212.9630  151.2170 C   0  0  1  0  0  3  0  0  0  0  0  0
  158.2290  210.9500  155.0440 C   0  0  2  0  0  3  0  0  0  0  0  0
  159.9630  209.4620  156.0350 C   0  0  0  0  0  0  0  0  0  0  0  0
  161.1150  212.4290  150.3540 C   0  0  2  0  0  3  0  0  0  0  0  0
  160.0920  212.3950  152.6360 C   0  0  1  0  0  3  0  0  0  0  0  0
  162.3310  206.7910  150.7730 C   0  0  0  0  0  3  0  0  0  0  0  0
  157.6520  211.6380  156.2590 C   0  0  0  0  0  2  0  0  0  0  0  0
  156.5470  212.5290  154.2750 C   0  0  0  0  0  2  0  0  0  0  0  0
  162.1090  208.6740  149.3290 O   0  0  0  0  0  1  0  0  0  0  0  0
  160.7280  208.8950  154.0150 C   0  0  0  0  0  0  0  0  0  0  0  0
  162.2000  206.1690  152.0110 C   0  0  0  0  0  3  0  0  0  0  0  0
  161.3840  208.8600  151.6750 C   0  0  0  0  0  0  0  0  0  0  0  0
  160.3160  210.2010  153.9000 C   0  0  0  0  0  0  0  0  0  0  0  0
  159.6870  209.3930  157.2610 O   0  0  0  0  0  0  0  0  0  0  0  0
  159.7370  210.6840  155.1950 C   0  0  1  0  0  3  0  0  0  0  0  0
  156.3790  212.2970  155.7690 C   0  0  0  0  0  2  0  0  0  0  0  0
  158.8900  213.9570  153.9300 O   0  0  0  0  0  0  0  0  0  0  0  0
  161.6690  206.8720  153.0880 C   0  0  0  0  0  3  0  0  0  0  0  0
  161.2640  208.2010  152.9340 C   0  0  0  0  0  0  0  0  0  0  0  0
  158.9150  212.8190  153.4830 C   0  0  0  0  0  0  0  0  0  0  0  0
  161.0630  213.0040  149.0810 O   0  0  0  0  0  0  0  0  0  0  0  0
  163.0810  212.6210  147.8860 C   0  0  0  0  0  1  0  0  0  0  0  0
  161.7100  212.0900  148.2490 C   0  0  0  0  0  2  0  0  0  0  0  0
  1 19  2  0  0  0  0
  1  4  1  0  0  0  0
  2 13  2  0  0  0  0
  2 19  1  0  0  0  0
  3 10  1  0  0  0  0
  4 20  2  0  0  0  0
  5 11  1  0  0  0  0
  5  1  1  0  0  0  0
  7 15  1  1  0  0  0
  7  9  1  0  0  0  0
  8  6  1  1  0  0  0
  8 12  1  0  0  0  0
  9 22  1  0  0  0  0
  9 14  1  1  0  0  0
 10 21  2  0  0  0  0
 11 28  1  6  0  0  0
 11  8  1  0  0  0  0
 12  4  1  6  0  0  0
 12 27  1  0  0  0  0
 13 18  1  0  0  0  0
 15 23  1  0  0  0  0
 16  2  1  0  0  0  0
 17  3  1  0  0  0  0
 18 25  2  0  0  0  0
 19 26  1  0  0  0  0
 20 17  1  0  0  0  0
 22 20  1  6  0  0  0
 22 10  1  0  0  0  0
 23 14  1  0  0  0  0
 26 25  1  0  0  0  0
 26 17  2  0  0  0  0
 27  7  1  0  0  0  0
 27 24  2  0  0  0  0
 29 30  1  0  0  0  0
 30 28  1  0  0  0  0
M  END
>  <MODEL>
9

>  <REMARK>
 VINA RESULT:      -6.2      2.587      4.521
  Name = 
  2 active torsions:
  status: ('A' for Active; 'I' for Inactive)
    1  A    between atoms: C_11  and  O_28
    2  A    between atoms: O_28  and  C_30
                            x       y       z     vdW  Elec       q    Type
                         _______ _______ _______ _____ _____    ______ ____

>  <TORSDO>
F 2

$$$$
