=
 OpenBabel11122412303D

 30 35  0  0  1  0  0  0  0  0999 V2000
  161.5420  208.5530  151.1970 C   0  0  0  0  0  0  0  0  0  0  0  0
  162.2260  209.4410  148.9470 C   0  0  0  0  0  0  0  0  0  0  0  0
  160.1450  212.3310  152.3900 N   0  0  0  0  0  0  0  0  0  0  0  0
  160.9520  208.8020  152.4670 C   0  0  0  0  0  0  0  0  0  0  0  0
  162.1450  207.1970  150.9420 C   0  0  0  0  0  2  0  0  0  0  0  0
  161.2070  205.4070  153.8170 O   0  0  0  0  0  0  0  0  0  0  0  0
  161.8530  209.2470  155.2210 C   0  0  1  0  0  3  0  0  0  0  0  0
  161.1250  206.3240  153.0130 C   0  0  0  0  0  0  0  0  0  0  0  0
  161.1050  210.5750  155.0990 C   0  0  2  0  0  3  0  0  0  0  0  0
  159.7830  212.0710  153.6080 C   0  0  0  0  0  0  0  0  0  0  0  0
  161.3100  206.0730  151.5400 C   0  0  2  0  0  3  0  0  0  0  0  0
  160.6770  207.6910  153.4680 C   0  0  1  0  0  3  0  0  0  0  0  0
  162.3110  210.5220  148.0640 C   0  0  0  0  0  3  0  0  0  0  0  0
  160.6170  210.9160  156.3660 O   0  0  0  0  0  0  0  0  0  0  0  0
  162.3140  209.2670  156.6510 C   0  0  0  0  0  2  0  0  0  0  0  0
  162.7040  208.2120  148.5100 O   0  0  0  0  0  1  0  0  0  0  0  0
  160.6220  211.1110  151.8460 C   0  0  0  0  0  0  0  0  0  0  0  0
  161.8410  211.7820  148.4280 C   0  0  0  0  0  3  0  0  0  0  0  0
  161.6570  209.6150  150.2380 C   0  0  0  0  0  0  0  0  0  0  0  0
  160.5160  210.0940  152.7480 C   0  0  0  0  0  0  0  0  0  0  0  0
  159.2020  213.1170  154.4930 C   0  0  0  0  0  1  0  0  0  0  0  0
  160.0010  210.6380  154.0340 C   0  0  1  0  0  3  0  0  0  0  0  0
  161.6020  210.4610  157.2610 C   0  0  0  0  0  2  0  0  0  0  0  0
  159.7540  207.8800  155.7980 C   0  0  0  0  0  1  0  0  0  0  0  0
  161.2760  211.9780  149.6850 C   0  0  0  0  0  3  0  0  0  0  0  0
  161.1770  210.9140  150.5840 C   0  0  0  0  0  0  0  0  0  0  0  0
  161.0150  207.9770  154.9470 C   0  0  2  0  0  3  0  0  0  0  0  0
  161.9800  204.7310  151.2630 C   0  0  0  0  0  2  0  0  0  0  0  0
  160.9600  204.2590  149.3030 O   0  0  0  0  0  1  0  0  0  0  0  0
  161.0580  203.8340  150.5850 N   0  0  0  0  0  2  0  0  0  0  0  0
  1  4  1  0  0  0  0
  2 19  1  0  0  0  0
  3 10  2  0  0  0  0
  4 20  2  0  0  0  0
  5  1  1  0  0  0  0
  5 11  1  0  0  0  0
  7 15  1  1  0  0  0
  8 12  1  0  0  0  0
  8  6  2  0  0  0  0
  9  7  1  0  0  0  0
  9 14  1  1  0  0  0
 10 22  1  0  0  0  0
 10 21  1  0  0  0  0
 11 28  1  1  0  0  0
 11  8  1  0  0  0  0
 12  4  1  6  0  0  0
 12 27  1  0  0  0  0
 13 18  1  0  0  0  0
 13  2  2  0  0  0  0
 14 23  1  0  0  0  0
 15 23  1  0  0  0  0
 16  2  1  0  0  0  0
 17  3  1  0  0  0  0
 17 20  1  0  0  0  0
 18 25  2  0  0  0  0
 19 26  1  0  0  0  0
 19  1  2  0  0  0  0
 22 20  1  6  0  0  0
 22  9  1  0  0  0  0
 25 26  1  0  0  0  0
 26 17  2  0  0  0  0
 27  7  1  0  0  0  0
 27 24  1  1  0  0  0
 29 30  1  0  0  0  0
 30 28  1  0  0  0  0
M  END
>  <MODEL>
1

>  <REMARK>
 VINA RESULT:      -7.3      0.000      0.000
  Name = 
  2 active torsions:
  status: ('A' for Active; 'I' for Inactive)
    1  A    between atoms: C_11  and  C_28
    2  A    between atoms: C_28  and  N_30
                            x       y       z     vdW  Elec       q    Type
                         _______ _______ _______ _____ _____    ______ ____

>  <TORSDO>
F 2

$$$$
=
 OpenBabel11122412303D

 30 35  0  0  1  0  0  0  0  0999 V2000
  161.2060  210.6560  150.9160 C   0  0  0  0  0  0  0  0  0  0  0  0
  161.4200  212.2270  148.9660 C   0  0  0  0  0  0  0  0  0  0  0  0
  159.1290  213.5380  153.1560 N   0  0  0  0  0  0  0  0  0  0  0  0
  160.7170  210.4200  152.2300 C   0  0  0  0  0  0  0  0  0  0  0  0
  162.0690  209.6020  150.2730 C   0  0  0  0  0  2  0  0  0  0  0  0
  161.8810  206.9650  152.5890 O   0  0  0  0  0  0  0  0  0  0  0  0
  161.7900  210.3580  154.9580 C   0  0  1  0  0  3  0  0  0  0  0  0
  161.5060  208.0070  152.0700 C   0  0  0  0  0  0  0  0  0  0  0  0
  160.7510  211.4460  155.2370 C   0  0  2  0  0  3  0  0  0  0  0  0
  158.9700  212.8960  154.2720 C   0  0  0  0  0  0  0  0  0  0  0  0
  161.5800  208.1930  150.5780 C   0  0  2  0  0  3  0  0  0  0  0  0
  160.8120  209.0590  152.9010 C   0  0  1  0  0  3  0  0  0  0  0  0
  161.1620  213.4830  148.4090 C   0  0  0  0  0  3  0  0  0  0  0  0
  160.3410  211.3220  156.5690 O   0  0  0  0  0  0  0  0  0  0  0  0
  162.3870  210.1270  156.3170 C   0  0  0  0  0  2  0  0  0  0  0  0
  162.1140  211.3070  148.1880 O   0  0  0  0  0  1  0  0  0  0  0  0
  159.8070  212.6540  152.2790 C   0  0  0  0  0  0  0  0  0  0  0  0
  160.4620  214.4530  149.1230 C   0  0  0  0  0  3  0  0  0  0  0  0
  160.9720  211.9210  150.2780 C   0  0  0  0  0  0  0  0  0  0  0  0
  160.0330  211.4480  152.8720 C   0  0  0  0  0  0  0  0  0  0  0  0
  158.2670  213.5050  155.4340 C   0  0  0  0  0  1  0  0  0  0  0  0
  159.5520  211.5020  154.2800 C   0  0  1  0  0  3  0  0  0  0  0  0
  161.4940  210.9120  157.2610 C   0  0  0  0  0  2  0  0  0  0  0  0
  160.1310  208.4150  155.2330 C   0  0  0  0  0  1  0  0  0  0  0  0
  160.0080  214.1770  150.4100 C   0  0  0  0  0  3  0  0  0  0  0  0
  160.2510  212.9280  150.9880 C   0  0  0  0  0  0  0  0  0  0  0  0
  161.2360  209.0340  154.3850 C   0  0  2  0  0  3  0  0  0  0  0  0
  162.5020  207.1740  149.9150 C   0  0  0  0  0  2  0  0  0  0  0  0
  160.9210  206.8570  148.3340 O   0  0  0  0  0  1  0  0  0  0  0  0
  162.2430  207.1090  148.4860 N   0  0  0  0  0  2  0  0  0  0  0  0
  1  4  1  0  0  0  0
  2 19  1  0  0  0  0
  3 10  2  0  0  0  0
  4 20  2  0  0  0  0
  4 12  1  0  0  0  0
  5 11  1  0  0  0  0
  5  1  1  0  0  0  0
  7  9  1  0  0  0  0
  7 15  1  1  0  0  0
  8  6  2  0  0  0  0
  9 14  1  1  0  0  0
 10 22  1  0  0  0  0
 10 21  1  0  0  0  0
 11 28  1  1  0  0  0
 11  8  1  0  0  0  0
 12  8  1  6  0  0  0
 12 27  1  0  0  0  0
 13  2  2  0  0  0  0
 13 18  1  0  0  0  0
 14 23  1  0  0  0  0
 15 23  1  0  0  0  0
 16  2  1  0  0  0  0
 17 20  1  0  0  0  0
 17  3  1  0  0  0  0
 18 25  2  0  0  0  0
 19  1  2  0  0  0  0
 19 26  1  0  0  0  0
 22 20  1  6  0  0  0
 22  9  1  0  0  0  0
 25 26  1  0  0  0  0
 26 17  2  0  0  0  0
 27  7  1  0  0  0  0
 27 24  1  1  0  0  0
 29 30  1  0  0  0  0
 30 28  1  0  0  0  0
M  END
>  <MODEL>
2

>  <REMARK>
 VINA RESULT:      -6.5      1.588      2.135
  Name = 
  2 active torsions:
  status: ('A' for Active; 'I' for Inactive)
    1  A    between atoms: C_11  and  C_28
    2  A    between atoms: C_28  and  N_30
                            x       y       z     vdW  Elec       q    Type
                         _______ _______ _______ _____ _____    ______ ____

>  <TORSDO>
F 2

$$$$
=
 OpenBabel11122412303D

 30 35  0  0  1  0  0  0  0  0999 V2000
  161.2160  208.0990  151.2430 C   0  0  0  0  0  0  0  0  0  0  0  0
  161.4360  205.7850  150.2860 C   0  0  0  0  0  0  0  0  0  0  0  0
  160.7240  206.5700  155.1240 N   0  0  0  0  0  0  0  0  0  0  0  0
  161.0440  208.9220  152.3890 C   0  0  0  0  0  0  0  0  0  0  0  0
  161.2270  208.7540  149.8870 C   0  0  0  0  0  2  0  0  0  0  0  0
  161.1910  212.1720  150.7070 O   0  0  0  0  0  0  0  0  0  0  0  0
  158.8760  210.4300  153.6640 C   0  0  1  0  0  3  0  0  0  0  0  0
  161.3670  210.9840  150.9370 C   0  0  0  0  0  0  0  0  0  0  0  0
  159.1700  209.5480  154.8790 C   0  0  2  0  0  3  0  0  0  0  0  0
  160.5340  207.6710  155.7850 C   0  0  0  0  0  0  0  0  0  0  0  0
  161.9730  210.0820  149.8950 C   0  0  2  0  0  3  0  0  0  0  0  0
  161.1300  210.4380  152.3230 C   0  0  1  0  0  3  0  0  0  0  0  0
  161.4620  204.4030  150.4950 C   0  0  0  0  0  3  0  0  0  0  0  0
  158.8870  210.2900  156.0310 O   0  0  0  0  0  0  0  0  0  0  0  0
  157.8190  211.3590  154.1890 C   0  0  0  0  0  2  0  0  0  0  0  0
  161.5990  206.2440  148.9840 O   0  0  0  0  0  1  0  0  0  0  0  0
  160.9350  206.9470  153.7740 C   0  0  0  0  0  0  0  0  0  0  0  0
  161.3170  203.8690  151.7740 C   0  0  0  0  0  3  0  0  0  0  0  0
  161.2580  206.6710  151.3830 C   0  0  0  0  0  0  0  0  0  0  0  0
  160.9000  208.3020  153.6280 C   0  0  0  0  0  0  0  0  0  0  0  0
  160.3010  207.6710  157.2550 C   0  0  0  0  0  1  0  0  0  0  0  0
  160.5710  208.9220  154.9400 C   0  0  1  0  0  3  0  0  0  0  0  0
  157.7810  211.0830  155.6810 C   0  0  0  0  0  2  0  0  0  0  0  0
  160.7580  212.1070  154.1650 C   0  0  0  0  0  1  0  0  0  0  0  0
  161.1450  204.7150  152.8660 C   0  0  0  0  0  3  0  0  0  0  0  0
  161.1190  206.1000  152.6840 C   0  0  0  0  0  0  0  0  0  0  0  0
  160.0740  211.2380  153.1160 C   0  0  2  0  0  3  0  0  0  0  0  0
  161.9340  210.7010  148.5020 C   0  0  0  0  0  2  0  0  0  0  0  0
  162.6070  212.6830  147.6490 O   0  0  0  0  0  1  0  0  0  0  0  0
  163.0670  211.5940  148.3110 N   0  0  0  0  0  2  0  0  0  0  0  0
  1 19  2  0  0  0  0
  1  4  1  0  0  0  0
  2 13  2  0  0  0  0
  2 19  1  0  0  0  0
  3 10  2  0  0  0  0
  4 20  2  0  0  0  0
  5 11  1  0  0  0  0
  5  1  1  0  0  0  0
  6  8  2  0  0  0  0
  7 15  1  1  0  0  0
  7  9  1  0  0  0  0
  9 22  1  0  0  0  0
  9 14  1  1  0  0  0
 10 21  1  0  0  0  0
 11 28  1  6  0  0  0
 11  8  1  0  0  0  0
 12  8  1  6  0  0  0
 12  4  1  0  0  0  0
 12 27  1  0  0  0  0
 13 18  1  0  0  0  0
 15 23  1  0  0  0  0
 16  2  1  0  0  0  0
 17  3  1  0  0  0  0
 18 25  2  0  0  0  0
 19 26  1  0  0  0  0
 20 17  1  0  0  0  0
 22 20  1  6  0  0  0
 22 10  1  0  0  0  0
 23 14  1  0  0  0  0
 26 25  1  0  0  0  0
 26 17  2  0  0  0  0
 27  7  1  0  0  0  0
 27 24  1  1  0  0  0
 29 30  1  0  0  0  0
 30 28  1  0  0  0  0
M  END
>  <MODEL>
3

>  <REMARK>
 VINA RESULT:      -6.4      2.157      5.107
  Name = 
  2 active torsions:
  status: ('A' for Active; 'I' for Inactive)
    1  A    between atoms: C_11  and  C_28
    2  A    between atoms: C_28  and  N_30
                            x       y       z     vdW  Elec       q    Type
                         _______ _______ _______ _____ _____    ______ ____

>  <TORSDO>
F 2

$$$$
=
 OpenBabel11122412303D

 30 35  0  0  1  0  0  0  0  0999 V2000
  161.3480  205.9490  150.2190 C   0  0  0  0  0  0  0  0  0  0  0  0
  160.7930  203.5090  149.9810 C   0  0  0  0  0  0  0  0  0  0  0  0
  161.3170  205.6630  154.4100 N   0  0  0  0  0  0  0  0  0  0  0  0
  161.6240  207.0480  151.0790 C   0  0  0  0  0  0  0  0  0  0  0  0
  161.2370  206.2080  148.7400 C   0  0  0  0  0  2  0  0  0  0  0  0
  162.2070  209.5780  148.4940 O   0  0  0  0  0  0  0  0  0  0  0  0
  160.2050  209.3960  152.1130 C   0  0  1  0  0  3  0  0  0  0  0  0
  162.1310  208.4880  149.0450 C   0  0  0  0  0  0  0  0  0  0  0  0
  160.5210  208.8030  153.4870 C   0  0  2  0  0  3  0  0  0  0  0  0
  161.5430  206.9000  154.7290 C   0  0  0  0  0  0  0  0  0  0  0  0
  162.2690  207.2160  148.2520 C   0  0  2  0  0  3  0  0  0  0  0  0
  162.0630  208.4040  150.5500 C   0  0  1  0  0  3  0  0  0  0  0  0
  160.5230  202.2800  150.5890 C   0  0  0  0  0  3  0  0  0  0  0  0
  160.6740  209.8610  154.3900 O   0  0  0  0  0  0  0  0  0  0  0  0
  159.5390  210.6950  152.4680 C   0  0  0  0  0  2  0  0  0  0  0  0
  160.7880  203.5560  148.5920 O   0  0  0  0  0  1  0  0  0  0  0  0
  161.3280  205.6080  152.9930 C   0  0  0  0  0  0  0  0  0  0  0  0
  160.5210  202.1530  151.9770 C   0  0  0  0  0  3  0  0  0  0  0  0
  161.0690  204.6550  150.7740 C   0  0  0  0  0  0  0  0  0  0  0  0
  161.5950  206.8310  152.4540 C   0  0  0  0  0  0  0  0  0  0  0  0
  161.6290  207.3400  156.1480 C   0  0  0  0  0  1  0  0  0  0  0  0
  161.7080  207.8310  153.5500 C   0  0  1  0  0  3  0  0  0  0  0  0
  159.7470  210.8290  153.9660 C   0  0  0  0  0  2  0  0  0  0  0  0
  162.5010  210.5170  151.8380 C   0  0  0  0  0  1  0  0  0  0  0  0
  160.7920  203.2590  152.7770 C   0  0  0  0  0  3  0  0  0  0  0  0
  161.0680  204.4980  152.1940 C   0  0  0  0  0  0  0  0  0  0  0  0
  161.4230  209.6520  151.1960 C   0  0  2  0  0  3  0  0  0  0  0  0
  162.0930  207.4470  146.7550 C   0  0  0  0  0  2  0  0  0  0  0  0
  162.6290  205.5960  145.5760 O   0  0  0  0  0  1  0  0  0  0  0  0
  161.5720  206.2500  146.1140 N   0  0  0  0  0  2  0  0  0  0  0  0
  1 19  2  0  0  0  0
  1  4  1  0  0  0  0
  2 13  2  0  0  0  0
  2 19  1  0  0  0  0
  3 10  2  0  0  0  0
  4 20  2  0  0  0  0
  5  1  1  0  0  0  0
  6  8  2  0  0  0  0
  7 15  1  1  0  0  0
  7  9  1  0  0  0  0
  9 22  1  0  0  0  0
  9 14  1  1  0  0  0
 10 21  1  0  0  0  0
 11 28  1  6  0  0  0
 11  5  1  0  0  0  0
 11  8  1  0  0  0  0
 12  8  1  6  0  0  0
 12  4  1  0  0  0  0
 12 27  1  0  0  0  0
 13 18  1  0  0  0  0
 15 23  1  0  0  0  0
 16  2  1  0  0  0  0
 17  3  1  0  0  0  0
 18 25  2  0  0  0  0
 19 26  1  0  0  0  0
 20 17  1  0  0  0  0
 22 20  1  6  0  0  0
 22 10  1  0  0  0  0
 23 14  1  0  0  0  0
 26 25  1  0  0  0  0
 26 17  2  0  0  0  0
 27 24  1  1  0  0  0
 27  7  1  0  0  0  0
 29 30  1  0  0  0  0
 30 28  1  0  0  0  0
M  END
>  <MODEL>
4

>  <REMARK>
 VINA RESULT:      -6.4      2.377      5.409
  Name = 
  2 active torsions:
  status: ('A' for Active; 'I' for Inactive)
    1  A    between atoms: C_11  and  C_28
    2  A    between atoms: C_28  and  N_30
                            x       y       z     vdW  Elec       q    Type
                         _______ _______ _______ _____ _____    ______ ____

>  <TORSDO>
F 2

$$$$
=
 OpenBabel11122412303D

 30 35  0  0  1  0  0  0  0  0999 V2000
  160.1390  209.7220  153.3180 C   0  0  0  0  0  0  0  0  0  0  0  0
  158.8160  211.7120  154.0970 C   0  0  0  0  0  0  0  0  0  0  0  0
  161.5090  211.8110  149.9420 N   0  0  0  0  0  0  0  0  0  0  0  0
  161.0250  209.1590  152.3580 C   0  0  0  0  0  0  0  0  0  0  0  0
  159.5960  208.8270  154.4010 C   0  0  0  0  0  2  0  0  0  0  0  0
  161.4000  205.8540  153.8910 O   0  0  0  0  0  0  0  0  0  0  0  0
  160.8570  207.3390  150.0660 C   0  0  1  0  0  3  0  0  0  0  0  0
  161.1940  207.0540  153.7750 C   0  0  0  0  0  0  0  0  0  0  0  0
  161.4420  208.5110  149.2760 C   0  0  2  0  0  3  0  0  0  0  0  0
  162.2020  210.8820  149.3580 C   0  0  0  0  0  0  0  0  0  0  0  0
  160.6440  207.8550  154.9240 C   0  0  2  0  0  3  0  0  0  0  0  0
  161.6410  207.7800  152.5300 C   0  0  1  0  0  3  0  0  0  0  0  0
  158.4170  213.0350  153.8930 C   0  0  0  0  0  3  0  0  0  0  0  0
  162.2210  207.9880  148.2380 O   0  0  0  0  0  0  0  0  0  0  0  0
  160.7940  206.2520  149.0310 C   0  0  0  0  0  2  0  0  0  0  0  0
  158.3350  211.0600  155.2260 O   0  0  0  0  0  1  0  0  0  0  0  0
  161.0000  211.2400  151.1350 C   0  0  0  0  0  0  0  0  0  0  0  0
  158.8680  213.7570  152.7900 C   0  0  0  0  0  3  0  0  0  0  0  0
  159.6920  211.0780  153.1750 C   0  0  0  0  0  0  0  0  0  0  0  0
  161.4200  209.9520  151.2840 C   0  0  0  0  0  0  0  0  0  0  0  0
  162.9150  211.1260  148.0750 C   0  0  0  0  0  1  0  0  0  0  0  0
  162.2150  209.5600  150.0880 C   0  0  1  0  0  3  0  0  0  0  0  0
  161.5480  206.8180  147.8410 C   0  0  0  0  0  2  0  0  0  0  0  0
  163.1320  206.5260  150.9420 C   0  0  0  0  0  1  0  0  0  0  0  0
  159.7300  213.1620  151.8740 C   0  0  0  0  0  3  0  0  0  0  0  0
  160.1470  211.8410  152.0570 C   0  0  0  0  0  0  0  0  0  0  0  0
  161.6870  206.8700  151.2830 C   0  0  2  0  0  3  0  0  0  0  0  0
  160.0300  206.9680  156.0030 C   0  0  0  0  0  2  0  0  0  0  0  0
  161.6190  208.1490  157.0910 O   0  0  0  0  0  1  0  0  0  0  0  0
  160.7420  207.1310  157.2610 N   0  0  0  0  0  2  0  0  0  0  0  0
  1  5  1  0  0  0  0
  2 16  1  0  0  0  0
  3 17  1  0  0  0  0
  4  1  2  0  0  0  0
  5 11  1  0  0  0  0
  7 15  1  6  0  0  0
  7 27  1  0  0  0  0
  8  6  2  0  0  0  0
  8 11  1  0  0  0  0
  9 14  1  6  0  0  0
  9  7  1  0  0  0  0
  9 22  1  0  0  0  0
 10  3  2  0  0  0  0
 11 28  1  1  0  0  0
 12  4  1  6  0  0  0
 12  8  1  0  0  0  0
 13  2  1  0  0  0  0
 17 20  2  0  0  0  0
 17 26  1  0  0  0  0
 18 13  2  0  0  0  0
 19  1  1  0  0  0  0
 19  2  2  0  0  0  0
 20  4  1  0  0  0  0
 21 10  1  0  0  0  0
 22 10  1  6  0  0  0
 22 20  1  0  0  0  0
 23 14  1  0  0  0  0
 23 15  1  0  0  0  0
 25 26  2  0  0  0  0
 25 18  1  0  0  0  0
 26 19  1  0  0  0  0
 27 24  1  6  0  0  0
 27 12  1  0  0  0  0
 28 30  1  0  0  0  0
 29 30  1  0  0  0  0
M  END
>  <MODEL>
5

>  <REMARK>
 VINA RESULT:      -5.9      2.151      5.563
  Name = 
  2 active torsions:
  status: ('A' for Active; 'I' for Inactive)
    1  A    between atoms: C_11  and  C_28
    2  A    between atoms: C_28  and  N_30
                            x       y       z     vdW  Elec       q    Type
                         _______ _______ _______ _____ _____    ______ ____

>  <TORSDO>
F 2

$$$$
=
 OpenBabel11122412303D

 30 35  0  0  1  0  0  0  0  0999 V2000
  160.7920  209.5370  152.5570 C   0  0  0  0  0  0  0  0  0  0  0  0
  160.9930  207.3340  153.7510 C   0  0  0  0  0  0  0  0  0  0  0  0
  159.3140  211.4060  156.0160 N   0  0  0  0  0  0  0  0  0  0  0  0
  160.4520  210.9160  152.6140 C   0  0  0  0  0  0  0  0  0  0  0  0
  161.1650  208.9460  151.2230 C   0  0  0  0  0  2  0  0  0  0  0  0
  161.2780  211.7850  149.1530 O   0  0  0  0  0  0  0  0  0  0  0  0
  158.2130  212.6270  151.8040 C   0  0  1  0  0  3  0  0  0  0  0  0
  161.2840  211.2020  150.2280 C   0  0  0  0  0  0  0  0  0  0  0  0
  158.1460  212.9970  153.2870 C   0  0  2  0  0  3  0  0  0  0  0  0
  159.0900  212.5990  155.5580 C   0  0  0  0  0  0  0  0  0  0  0  0
  162.0150  209.8960  150.3900 C   0  0  2  0  0  3  0  0  0  0  0  0
  160.6970  211.8630  151.4500 C   0  0  1  0  0  3  0  0  0  0  0  0
  160.8390  206.5930  154.9260 C   0  0  0  0  0  3  0  0  0  0  0  0
  157.6890  214.3160  153.3850 O   0  0  0  0  0  0  0  0  0  0  0  0
  157.1610  213.5150  151.2030 C   0  0  0  0  0  2  0  0  0  0  0  0
  161.4820  206.6720  152.6310 O   0  0  0  0  0  1  0  0  0  0  0  0
  159.8520  210.6590  154.9370 C   0  0  0  0  0  0  0  0  0  0  0  0
  160.3650  207.1910  156.0920 C   0  0  0  0  0  3  0  0  0  0  0  0
  160.6650  208.7160  153.7280 C   0  0  0  0  0  0  0  0  0  0  0  0
  159.9800  211.4290  153.8200 C   0  0  0  0  0  0  0  0  0  0  0  0
  158.5400  213.6790  156.4220 C   0  0  0  0  0  1  0  0  0  0  0  0
  159.4320  212.7840  154.0980 C   0  0  1  0  0  3  0  0  0  0  0  0
  156.7690  214.4530  152.3310 C   0  0  0  0  0  2  0  0  0  0  0  0
  160.0910  214.2950  151.2600 C   0  0  0  0  0  1  0  0  0  0  0  0
  160.0400  208.5450  156.0980 C   0  0  0  0  0  3  0  0  0  0  0  0
  160.1880  209.3080  154.9370 C   0  0  0  0  0  0  0  0  0  0  0  0
  159.5740  212.8690  151.1130 C   0  0  2  0  0  3  0  0  0  0  0  0
  162.3430  209.2480  149.0480 C   0  0  0  0  0  2  0  0  0  0  0  0
  162.2440  207.3210  147.8750 O   0  0  0  0  0  1  0  0  0  0  0  0
  162.2270  207.8020  149.1400 N   0  0  0  0  0  2  0  0  0  0  0  0
  1  4  2  0  0  0  0
  1 19  1  0  0  0  0
  2 13  1  0  0  0  0
  4 20  1  0  0  0  0
  5  1  1  0  0  0  0
  6  8  2  0  0  0  0
  7 15  1  6  0  0  0
  7  9  1  0  0  0  0
  8 11  1  0  0  0  0
  9 14  1  6  0  0  0
  9 22  1  0  0  0  0
 10  3  2  0  0  0  0
 10 21  1  0  0  0  0
 11 28  1  6  0  0  0
 11  5  1  0  0  0  0
 12  8  1  6  0  0  0
 12  4  1  0  0  0  0
 13 18  2  0  0  0  0
 15 23  1  0  0  0  0
 16  2  1  0  0  0  0
 17 26  1  0  0  0  0
 17  3  1  0  0  0  0
 18 25  1  0  0  0  0
 19  2  2  0  0  0  0
 19 26  1  0  0  0  0
 20 17  2  0  0  0  0
 22 20  1  6  0  0  0
 22 10  1  0  0  0  0
 23 14  1  0  0  0  0
 26 25  2  0  0  0  0
 27 24  1  1  0  0  0
 27 12  1  0  0  0  0
 27  7  1  0  0  0  0
 28 30  1  0  0  0  0
 29 30  1  0  0  0  0
M  END
>  <MODEL>
6

>  <REMARK>
 VINA RESULT:      -5.8      2.235      5.339
  Name = 
  2 active torsions:
  status: ('A' for Active; 'I' for Inactive)
    1  A    between atoms: C_11  and  C_28
    2  A    between atoms: C_28  and  N_30
                            x       y       z     vdW  Elec       q    Type
                         _______ _______ _______ _____ _____    ______ ____

>  <TORSDO>
F 2

$$$$
=
 OpenBabel11122412303D

 30 35  0  0  1  0  0  0  0  0999 V2000
  161.4360  208.1530  151.5230 C   0  0  0  0  0  0  0  0  0  0  0  0
  161.2730  210.5930  150.9440 C   0  0  0  0  0  0  0  0  0  0  0  0
  162.5600  207.1790  147.5950 N   0  0  0  0  0  0  0  0  0  0  0  0
  161.7330  206.8270  151.1020 C   0  0  0  0  0  0  0  0  0  0  0  0
  160.8960  208.3570  152.9140 C   0  0  0  0  0  2  0  0  0  0  0  0
  161.1640  205.1390  154.3020 O   0  0  0  0  0  0  0  0  0  0  0  0
  160.2490  204.4190  150.3300 C   0  0  1  0  0  3  0  0  0  0  0  0
  161.4270  206.0180  153.4930 C   0  0  0  0  0  0  0  0  0  0  0  0
  161.0140  204.5440  149.0120 C   0  0  2  0  0  3  0  0  0  0  0  0
  162.6430  205.8880  147.6890 C   0  0  0  0  0  0  0  0  0  0  0  0
  161.5710  207.4500  153.9330 C   0  0  2  0  0  3  0  0  0  0  0  0
  161.7730  205.6560  152.0700 C   0  0  1  0  0  3  0  0  0  0  0  0
  161.3910  211.6040  149.9870 C   0  0  0  0  0  3  0  0  0  0  0  0
  161.2120  203.2560  148.5020 O   0  0  0  0  0  0  0  0  0  0  0  0
  159.4840  203.1400  150.1380 C   0  0  0  0  0  2  0  0  0  0  0  0
  160.8940  210.9620  152.2290 O   0  0  0  0  0  1  0  0  0  0  0  0
  162.2070  207.6520  148.8840 C   0  0  0  0  0  0  0  0  0  0  0  0
  161.7770  211.3120  148.6800 C   0  0  0  0  0  3  0  0  0  0  0  0
  161.5430  209.2420  150.5950 C   0  0  0  0  0  0  0  0  0  0  0  0
  162.1050  206.6260  149.7750 C   0  0  0  0  0  0  0  0  0  0  0  0
  163.0210  205.0390  146.5270 C   0  0  0  0  0  1  0  0  0  0  0  0
  162.3270  205.3390  149.0610 C   0  0  1  0  0  3  0  0  0  0  0  0
  160.0520  202.5480  148.8610 C   0  0  0  0  0  2  0  0  0  0  0  0
  162.1600  203.2240  151.5650 C   0  0  0  0  0  1  0  0  0  0  0  0
  162.0520  209.9980  148.3130 C   0  0  0  0  0  3  0  0  0  0  0  0
  161.9440  208.9690  149.2520 C   0  0  0  0  0  0  0  0  0  0  0  0
  161.1180  204.3370  151.6050 C   0  0  2  0  0  3  0  0  0  0  0  0
  160.9700  207.6920  155.3140 C   0  0  0  0  0  2  0  0  0  0  0  0
  162.2460  208.6020  156.9400 O   0  0  0  0  0  1  0  0  0  0  0  0
  161.4760  208.9340  155.8770 N   0  0  0  0  0  2  0  0  0  0  0  0
  1  5  1  0  0  0  0
  2 16  1  0  0  0  0
  3 10  2  0  0  0  0
  3 17  1  0  0  0  0
  4  1  1  0  0  0  0
  5 11  1  0  0  0  0
  7 15  1  6  0  0  0
  7 27  1  0  0  0  0
  8 11  1  0  0  0  0
  8  6  2  0  0  0  0
  9 14  1  1  0  0  0
  9 22  1  0  0  0  0
  9  7  1  0  0  0  0
 11 28  1  1  0  0  0
 12  4  1  6  0  0  0
 12  8  1  0  0  0  0
 13  2  2  0  0  0  0
 14 23  1  0  0  0  0
 17 26  2  0  0  0  0
 17 20  1  0  0  0  0
 18 13  1  0  0  0  0
 19  2  1  0  0  0  0
 19  1  2  0  0  0  0
 20  4  2  0  0  0  0
 21 10  1  0  0  0  0
 22 10  1  6  0  0  0
 22 20  1  0  0  0  0
 23 15  1  0  0  0  0
 25 18  2  0  0  0  0
 25 26  1  0  0  0  0
 26 19  1  0  0  0  0
 27 24  1  6  0  0  0
 27 12  1  0  0  0  0
 28 30  1  0  0  0  0
 30 29  1  0  0  0  0
M  END
>  <MODEL>
7

>  <REMARK>
 VINA RESULT:      -5.6      2.358      6.220
  Name = 
  2 active torsions:
  status: ('A' for Active; 'I' for Inactive)
    1  A    between atoms: C_11  and  C_28
    2  A    between atoms: C_28  and  N_30
                            x       y       z     vdW  Elec       q    Type
                         _______ _______ _______ _____ _____    ______ ____

>  <TORSDO>
F 2

$$$$
=
 OpenBabel11122412303D

 30 35  0  0  1  0  0  0  0  0999 V2000
  160.8990  210.5820  151.4400 C   0  0  0  0  0  0  0  0  0  0  0  0
  161.9510  208.6440  150.2350 C   0  0  0  0  0  0  0  0  0  0  0  0
  160.8350  208.4460  155.0550 N   0  0  0  0  0  0  0  0  0  0  0  0
  160.4080  211.1250  152.6590 C   0  0  0  0  0  0  0  0  0  0  0  0
  160.7290  211.3870  150.1780 C   0  0  0  0  0  2  0  0  0  0  0  0
  159.4670  214.4330  151.3960 O   0  0  0  0  0  0  0  0  0  0  0  0
  157.8050  211.6040  153.9200 C   0  0  1  0  0  3  0  0  0  0  0  0
  160.0400  213.3570  151.4950 C   0  0  0  0  0  0  0  0  0  0  0  0
  158.3450  210.7140  155.0410 C   0  0  2  0  0  3  0  0  0  0  0  0
  160.2480  209.3090  155.8260 C   0  0  0  0  0  0  0  0  0  0  0  0
  160.9610  212.8740  150.4070 C   0  0  2  0  0  3  0  0  0  0  0  0
  159.9600  212.5730  152.7820 C   0  0  1  0  0  3  0  0  0  0  0  0
  162.4520  207.3390  150.2770 C   0  0  0  0  0  3  0  0  0  0  0  0
  157.7790  211.1430  156.2470 O   0  0  0  0  0  0  0  0  0  0  0  0
  156.4710  212.0300  154.4630 C   0  0  0  0  0  2  0  0  0  0  0  0
  161.9900  209.3100  149.0150 O   0  0  0  0  0  1  0  0  0  0  0  0
  160.9490  209.0590  153.7820 C   0  0  0  0  0  0  0  0  0  0  0  0
  162.4570  206.6130  151.4660 C   0  0  0  0  0  3  0  0  0  0  0  0
  161.4340  209.2510  151.4110 C   0  0  0  0  0  0  0  0  0  0  0  0
  160.4460  210.3260  153.7980 C   0  0  0  0  0  0  0  0  0  0  0  0
  159.9760  209.0220  157.2610 C   0  0  0  0  0  1  0  0  0  0  0  0
  159.8730  210.6040  155.1430 C   0  0  1  0  0  3  0  0  0  0  0  0
  156.4780  211.5510  155.9030 C   0  0  0  0  0  2  0  0  0  0  0  0
  158.9600  213.7350  154.7740 C   0  0  0  0  0  1  0  0  0  0  0  0
  161.9600  207.1860  152.6340 C   0  0  0  0  0  3  0  0  0  0  0  0
  161.4570  208.4890  152.6180 C   0  0  0  0  0  0  0  0  0  0  0  0
  158.6620  212.8430  153.5740 C   0  0  2  0  0  3  0  0  0  0  0  0
  160.7580  213.6330  149.1000 C   0  0  0  0  0  2  0  0  0  0  0  0
  162.6630  213.3670  147.9150 O   0  0  0  0  0  1  0  0  0  0  0  0
  161.3860  212.9230  147.9970 N   0  0  0  0  0  2  0  0  0  0  0  0
  1  4  1  0  0  0  0
  2 13  2  0  0  0  0
  2 19  1  0  0  0  0
  3 10  2  0  0  0  0
  4 12  1  0  0  0  0
  4 20  2  0  0  0  0
  5 11  1  0  0  0  0
  5  1  1  0  0  0  0
  6  8  2  0  0  0  0
  7 15  1  1  0  0  0
  7  9  1  0  0  0  0
  9 22  1  0  0  0  0
  9 14  1  1  0  0  0
 10 21  1  0  0  0  0
 11 28  1  6  0  0  0
 11  8  1  0  0  0  0
 12  8  1  6  0  0  0
 12 27  1  0  0  0  0
 13 18  1  0  0  0  0
 15 23  1  0  0  0  0
 16  2  1  0  0  0  0
 17 20  1  0  0  0  0
 17  3  1  0  0  0  0
 18 25  2  0  0  0  0
 19  1  2  0  0  0  0
 19 26  1  0  0  0  0
 22 20  1  6  0  0  0
 22 10  1  0  0  0  0
 23 14  1  0  0  0  0
 26 25  1  0  0  0  0
 26 17  2  0  0  0  0
 27  7  1  0  0  0  0
 27 24  1  1  0  0  0
 29 30  1  0  0  0  0
 30 28  1  0  0  0  0
M  END
>  <MODEL>
8

>  <REMARK>
 VINA RESULT:      -5.4      2.503      5.359
  Name = 
  2 active torsions:
  status: ('A' for Active; 'I' for Inactive)
    1  A    between atoms: C_11  and  C_28
    2  A    between atoms: C_28  and  N_30
                            x       y       z     vdW  Elec       q    Type
                         _______ _______ _______ _____ _____    ______ ____

>  <TORSDO>
F 2

$$$$
=
 OpenBabel11122412303D

 30 35  0  0  1  0  0  0  0  0999 V2000
  161.1420  209.2220  151.6620 C   0  0  0  0  0  0  0  0  0  0  0  0
  161.2230  206.9980  152.8310 C   0  0  0  0  0  0  0  0  0  0  0  0
  159.9980  211.1690  155.2030 N   0  0  0  0  0  0  0  0  0  0  0  0
  160.9180  210.6240  151.7450 C   0  0  0  0  0  0  0  0  0  0  0  0
  161.3960  208.6170  150.3070 C   0  0  0  0  0  2  0  0  0  0  0  0
  161.6360  211.4580  148.2510 O   0  0  0  0  0  0  0  0  0  0  0  0
  158.7890  212.5200  151.0610 C   0  0  1  0  0  3  0  0  0  0  0  0
  161.6490  210.8650  149.3210 C   0  0  0  0  0  0  0  0  0  0  0  0
  158.8280  212.8780  152.5480 C   0  0  2  0  0  3  0  0  0  0  0  0
  159.8500  212.3820  154.7650 C   0  0  0  0  0  0  0  0  0  0  0  0
  162.2780  209.5030  149.4370 C   0  0  2  0  0  3  0  0  0  0  0  0
  161.1800  211.5600  150.5760 C   0  0  1  0  0  3  0  0  0  0  0  0
  161.0680  206.2610  154.0080 C   0  0  0  0  0  3  0  0  0  0  0  0
  158.4860  214.2290  152.6770 O   0  0  0  0  0  0  0  0  0  0  0  0
  157.7830  213.4960  150.5210 C   0  0  0  0  0  2  0  0  0  0  0  0
  161.5980  206.3100  151.6830 O   0  0  0  0  0  1  0  0  0  0  0  0
  160.4180  210.3920  154.0940 C   0  0  0  0  0  0  0  0  0  0  0  0
  160.7050  206.8830  155.2000 C   0  0  0  0  0  3  0  0  0  0  0  0
  161.0070  208.4030  152.8330 C   0  0  0  0  0  0  0  0  0  0  0  0
  160.5520  211.1600  152.9760 C   0  0  0  0  0  0  0  0  0  0  0  0
  159.4350  213.4940  155.6620 C   0  0  0  0  0  1  0  0  0  0  0  0
  160.1310  212.5530  153.2910 C   0  0  1  0  0  3  0  0  0  0  0  0
  157.5270  214.4510  151.6730 C   0  0  0  0  0  2  0  0  0  0  0  0
  160.7670  214.0350  150.4320 C   0  0  0  0  0  1  0  0  0  0  0  0
  160.4920  208.2580  155.2310 C   0  0  0  0  0  3  0  0  0  0  0  0
  160.6420  209.0180  154.0680 C   0  0  0  0  0  0  0  0  0  0  0  0
  160.1280  212.6560  150.3030 C   0  0  2  0  0  3  0  0  0  0  0  0
  162.4840  208.8440  148.0760 C   0  0  0  0  0  2  0  0  0  0  0  0
  161.7160  206.8310  147.3960 O   0  0  0  0  0  1  0  0  0  0  0  0
  162.6220  207.4040  148.2240 N   0  0  0  0  0  2  0  0  0  0  0  0
  1  4  2  0  0  0  0
  1 19  1  0  0  0  0
  2 19  2  0  0  0  0
  2 13  1  0  0  0  0
  4 20  1  0  0  0  0
  5  1  1  0  0  0  0
  6  8  2  0  0  0  0
  7 15  1  6  0  0  0
  7  9  1  0  0  0  0
  8 11  1  0  0  0  0
  9 14  1  6  0  0  0
  9 22  1  0  0  0  0
 10  3  2  0  0  0  0
 10 21  1  0  0  0  0
 11 28  1  6  0  0  0
 11  5  1  0  0  0  0
 12  8  1  6  0  0  0
 12  4  1  0  0  0  0
 13 18  2  0  0  0  0
 15 23  1  0  0  0  0
 16  2  1  0  0  0  0
 17  3  1  0  0  0  0
 18 25  1  0  0  0  0
 19 26  1  0  0  0  0
 20 17  2  0  0  0  0
 22 20  1  6  0  0  0
 22 10  1  0  0  0  0
 23 14  1  0  0  0  0
 26 17  1  0  0  0  0
 26 25  2  0  0  0  0
 27 24  1  1  0  0  0
 27 12  1  0  0  0  0
 27  7  1  0  0  0  0
 28 30  1  0  0  0  0
 29 30  1  0  0  0  0
M  END
>  <MODEL>
9

>  <REMARK>
 VINA RESULT:      -5.2      2.157      5.168
  Name = 
  2 active torsions:
  status: ('A' for Active; 'I' for Inactive)
    1  A    between atoms: C_11  and  C_28
    2  A    between atoms: C_28  and  N_30
                            x       y       z     vdW  Elec       q    Type
                         _______ _______ _______ _____ _____    ______ ____

>  <TORSDO>
F 2

$$$$
