=
 OpenBabel11122413323D

 37 43  0  0  1  0  0  0  0  0999 V2000
  160.8660  208.1930  152.0890 C   0  0  0  0  0  2  0  0  0  0  0  0
  162.7940  210.7760  156.7030 C   0  0  0  0  0  0  0  0  0  0  0  0
  159.7260  211.5950  153.9590 C   0  0  0  0  0  0  0  0  0  0  0  0
  161.3780  206.8100  151.6760 C   0  0  2  0  0  3  0  0  0  0  0  0
  161.2090  211.4270  150.5510 O   0  0  0  0  0  0  0  0  0  0  0  0
  160.5300  211.9020  156.2160 C   0  0  0  0  0  0  0  0  0  0  0  0
  160.1840  210.8470  152.7450 C   0  0  1  0  0  3  0  0  0  0  0  0
  162.3320  207.9110  149.5270 C   0  0  2  0  0  3  0  0  0  0  0  0
  160.5490  211.2470  154.9890 C   0  0  0  0  0  0  0  0  0  0  0  0
  160.1560  211.6200  151.4480 C   0  0  0  0  0  0  0  0  0  0  0  0
  159.5370  212.8680  156.4330 C   0  0  0  0  0  3  0  0  0  0  0  0
  162.4900  206.8390  150.6160 C   0  0  0  0  0  2  0  0  0  0  0  0
  161.5780  210.3010  154.5460 C   0  0  2  0  0  3  0  0  0  0  0  0
  162.5620  209.3810  157.2610 C   0  0  0  0  0  1  0  0  0  0  0  0
  157.8080  213.0350  153.0580 C   0  0  0  0  0  2  0  0  0  0  0  0
  158.6270  213.1820  155.4050 C   0  0  0  0  0  3  0  0  0  0  0  0
  162.9120  210.7140  155.1650 C   0  0  0  0  0  2  0  0  0  0  0  0
  162.4530  209.3670  150.0360 C   0  0  1  0  0  3  0  0  0  0  0  0
  161.2200  210.2420  149.7650 C   0  0  0  0  0  2  0  0  0  0  0  0
  158.7190  212.5600  154.1450 C   0  0  0  0  0  0  0  0  0  0  0  0
  161.5650  210.4290  153.0870 N   0  0  1  0  0  0  0  0  0  0  0  0
  161.6610  211.7130  157.1930 C   0  0  0  0  0  2  0  0  0  0  0  0
  159.0590  212.3100  151.0730 C   0  0  0  0  0  0  0  0  0  0  0  0
  164.1050  211.2910  157.2590 C   0  0  0  0  0  1  0  0  0  0  0  0
  162.9770  209.4500  151.4090 N   0  0  0  0  0  2  0  0  0  0  0  0
  161.1750  207.6930  148.7730 O   0  0  0  0  0  1  0  0  0  0  0  0
  162.0010  209.1670  152.4760 C   0  0  2  0  0  3  0  0  0  0  0  0
  157.9190  212.2560  151.8770 O   0  0  0  0  0  0  0  0  0  0  0  0
  160.1540  213.4800  149.1680 C   0  0  0  0  0  3  0  0  0  0  0  0
  158.9710  213.0700  149.8000 C   0  0  0  0  0  0  0  0  0  0  0  0
  157.7410  213.3470  149.1790 C   0  0  0  0  0  3  0  0  0  0  0  0
  156.3870  214.3320  147.3270 C   0  0  0  0  0  1  0  0  0  0  0  0
  158.8810  214.4530  147.3540 C   0  0  0  0  0  3  0  0  0  0  0  0
  157.6960  214.0400  147.9660 C   0  0  0  0  0  0  0  0  0  0  0  0
  160.1110  214.1720  147.9530 C   0  0  0  0  0  3  0  0  0  0  0  0
  160.7440  204.6390  150.6220 C   0  0  0  0  0  1  0  0  0  0  0  0
  160.2260  205.9430  151.1980 C   0  0  0  0  0  2  0  0  0  0  0  0
  1 27  1  0  0  0  0
  2 22  1  0  0  0  0
  2 24  1  0  0  0  0
  2 14  1  0  0  0  0
  3 20  2  0  0  0  0
  3  9  1  0  0  0  0
  4 37  1  6  0  0  0
  4  1  1  0  0  0  0
  5 10  1  0  0  0  0
  6 11  1  0  0  0  0
  6 22  1  0  0  0  0
  7 10  1  6  0  0  0
  7 21  1  0  0  0  0
  7  3  1  0  0  0  0
  8 26  1  1  0  0  0
  8 18  1  0  0  0  0
  8 12  1  0  0  0  0
  9  6  2  0  0  0  0
 12  4  1  0  0  0  0
 13  9  1  0  0  0  0
 13 17  1  1  0  0  0
 15 20  1  0  0  0  0
 16 11  2  0  0  0  0
 17  2  1  0  0  0  0
 18 19  1  1  0  0  0
 18 25  1  0  0  0  0
 19  5  1  0  0  0  0
 20 16  1  0  0  0  0
 21 13  1  0  0  0  0
 23 10  2  0  0  0  0
 23 28  1  0  0  0  0
 25 27  1  0  0  0  0
 27 21  1  0  0  0  0
 28 15  1  0  0  0  0
 29 30  1  0  0  0  0
 30 23  1  0  0  0  0
 31 30  2  0  0  0  0
 32 34  1  0  0  0  0
 33 35  1  0  0  0  0
 33 34  2  0  0  0  0
 34 31  1  0  0  0  0
 35 29  2  0  0  0  0
 36 37  1  0  0  0  0
M  END
>  <MODEL>
1

>  <REMARK>
 VINA RESULT:      -4.2      0.000      0.000
  Name = 
  2 active torsions:
  status: ('A' for Active; 'I' for Inactive)
    1  A    between atoms: C_4  and  C_37
    2  A    between atoms: C_23  and  C_30
                            x       y       z     vdW  Elec       q    Type
                         _______ _______ _______ _____ _____    ______ ____

>  <TORSDO>
F 2

$$$$
=
 OpenBabel11122413323D

 37 43  0  0  1  0  0  0  0  0999 V2000
  161.8580  209.4920  154.9040 C   0  0  0  0  0  2  0  0  0  0  0  0
  162.0830  205.5180  150.9250 C   0  0  0  0  0  0  0  0  0  0  0  0
  161.4770  209.6710  150.8810 C   0  0  0  0  0  0  0  0  0  0  0  0
  162.1980  209.1780  156.3640 C   0  0  2  0  0  3  0  0  0  0  0  0
  158.7680  210.4250  153.3170 O   0  0  0  0  0  0  0  0  0  0  0  0
  162.2460  207.7440  149.6420 C   0  0  0  0  0  0  0  0  0  0  0  0
  160.9710  209.9280  152.2660 C   0  0  1  0  0  3  0  0  0  0  0  0
  159.7390  209.7590  156.9620 C   0  0  2  0  0  3  0  0  0  0  0  0
  161.8960  208.3740  150.8320 C   0  0  0  0  0  0  0  0  0  0  0  0
  159.7260  210.7770  152.3630 C   0  0  0  0  0  0  0  0  0  0  0  0
  162.2870  208.5180  148.4740 C   0  0  0  0  0  3  0  0  0  0  0  0
  160.9760  208.8950  157.2510 C   0  0  0  0  0  2  0  0  0  0  0  0
  161.6880  207.7030  152.1190 C   0  0  2  0  0  3  0  0  0  0  0  0
  163.3940  205.2440  151.6440 C   0  0  0  0  0  1  0  0  0  0  0  0
  161.0220  211.8870  149.6800 C   0  0  0  0  0  2  0  0  0  0  0  0
  161.9350  209.8810  148.5210 C   0  0  0  0  0  3  0  0  0  0  0  0
  161.1310  206.3060  151.8510 C   0  0  0  0  0  2  0  0  0  0  0  0
  159.0900  209.5120  155.5780 C   0  0  1  0  0  3  0  0  0  0  0  0
  159.0150  210.7540  154.6770 C   0  0  0  0  0  2  0  0  0  0  0  0
  161.5090  210.4740  149.7250 C   0  0  0  0  0  0  0  0  0  0  0  0
  160.7330  208.5710  152.8140 N   0  0  1  0  0  0  0  0  0  0  0  0
  162.3790  206.2440  149.5890 C   0  0  0  0  0  2  0  0  0  0  0  0
  159.6320  211.9510  151.7040 C   0  0  0  0  0  0  0  0  0  0  0  0
  161.4380  204.1860  150.6050 C   0  0  0  0  0  1  0  0  0  0  0  0
  159.6040  208.3000  154.9160 N   0  0  0  0  0  2  0  0  0  0  0  0
  160.0030  211.1110  157.2030 O   0  0  0  0  0  1  0  0  0  0  0  0
  160.9180  208.4460  154.2660 C   0  0  2  0  0  3  0  0  0  0  0  0
  160.7290  212.4040  150.9690 O   0  0  0  0  0  0  0  0  0  0  0  0
  157.8380  213.2710  150.5920 C   0  0  0  0  0  3  0  0  0  0  0  0
  158.4410  212.8340  151.7800 C   0  0  0  0  0  0  0  0  0  0  0  0
  157.8640  213.2070  153.0070 C   0  0  0  0  0  3  0  0  0  0  0  0
  156.1330  214.4070  154.3470 C   0  0  0  0  0  1  0  0  0  0  0  0
  156.1420  214.4530  151.8510 C   0  0  0  0  0  3  0  0  0  0  0  0
  156.7250  214.0160  153.0420 C   0  0  0  0  0  0  0  0  0  0  0  0
  156.6980  214.0790  150.6240 C   0  0  0  0  0  3  0  0  0  0  0  0
  163.7420  211.0770  155.8750 C   0  0  0  0  0  1  0  0  0  0  0  0
  163.0260  210.3020  156.9650 C   0  0  0  0  0  2  0  0  0  0  0  0
  1  4  1  0  0  0  0
  2 14  1  0  0  0  0
  2 17  1  0  0  0  0
  4 37  1  1  0  0  0
  4 12  1  0  0  0  0
  5 19  1  0  0  0  0
  6  9  2  0  0  0  0
  7  3  1  6  0  0  0
  7 10  1  0  0  0  0
  7 21  1  0  0  0  0
  8 26  1  6  0  0  0
  8 12  1  0  0  0  0
  9  3  1  0  0  0  0
  9 13  1  0  0  0  0
 10  5  1  0  0  0  0
 11 16  2  0  0  0  0
 11  6  1  0  0  0  0
 13 17  1  6  0  0  0
 13 21  1  0  0  0  0
 15 20  1  0  0  0  0
 15 28  1  0  0  0  0
 16 20  1  0  0  0  0
 18 19  1  6  0  0  0
 18  8  1  0  0  0  0
 20  3  2  0  0  0  0
 21 27  1  0  0  0  0
 22  6  1  0  0  0  0
 22  2  1  0  0  0  0
 23 30  1  0  0  0  0
 23 10  2  0  0  0  0
 24  2  1  0  0  0  0
 25 18  1  0  0  0  0
 27  1  1  0  0  0  0
 27 25  1  0  0  0  0
 28 23  1  0  0  0  0
 29 35  2  0  0  0  0
 29 30  1  0  0  0  0
 30 31  2  0  0  0  0
 31 34  1  0  0  0  0
 33 34  2  0  0  0  0
 34 32  1  0  0  0  0
 35 33  1  0  0  0  0
 36 37  1  0  0  0  0
M  END
>  <MODEL>
2

>  <REMARK>
 VINA RESULT:      -3.9      1.953      5.989
  Name = 
  2 active torsions:
  status: ('A' for Active; 'I' for Inactive)
    1  A    between atoms: C_4  and  C_37
    2  A    between atoms: C_23  and  C_30
                            x       y       z     vdW  Elec       q    Type
                         _______ _______ _______ _____ _____    ______ ____

>  <TORSDO>
F 2

$$$$
=
 OpenBabel11122413323D

 37 43  0  0  1  0  0  0  0  0999 V2000
  160.6120  208.2690  151.3110 C   0  0  0  0  0  2  0  0  0  0  0  0
  161.6900  210.8230  156.2090 C   0  0  0  0  0  0  0  0  0  0  0  0
  159.6910  211.9570  152.6980 C   0  0  0  0  0  0  0  0  0  0  0  0
  160.9400  206.7890  151.0940 C   0  0  2  0  0  3  0  0  0  0  0  0
  161.9730  211.2580  149.8440 O   0  0  0  0  0  0  0  0  0  0  0  0
  159.9010  212.2920  155.0810 C   0  0  0  0  0  0  0  0  0  0  0  0
  160.3050  211.0450  151.6800 C   0  0  1  0  0  3  0  0  0  0  0  0
  162.6300  207.5290  149.2680 C   0  0  2  0  0  3  0  0  0  0  0  0
  160.1230  211.5500  153.9250 C   0  0  0  0  0  0  0  0  0  0  0  0
  160.7760  211.7060  150.4070 C   0  0  0  0  0  0  0  0  0  0  0  0
  159.0930  213.4340  154.9860 C   0  0  0  0  0  3  0  0  0  0  0  0
  162.2790  206.5350  150.3860 C   0  0  0  0  0  2  0  0  0  0  0  0
  161.0300  210.4040  153.8130 C   0  0  2  0  0  3  0  0  0  0  0  0
  161.0520  209.5400  156.7170 C   0  0  0  0  0  1  0  0  0  0  0  0
  158.4010  213.6390  151.2600 C   0  0  0  0  0  2  0  0  0  0  0  0
  158.5710  213.8230  153.7380 C   0  0  0  0  0  3  0  0  0  0  0  0
  162.2030  210.6200  154.7670 C   0  0  0  0  0  2  0  0  0  0  0  0
  162.8880  208.9760  149.7510 C   0  0  1  0  0  3  0  0  0  0  0  0
  161.9660  210.0330  149.1240 C   0  0  0  0  0  2  0  0  0  0  0  0
  158.8760  213.0970  152.5700 C   0  0  0  0  0  0  0  0  0  0  0  0
  161.4350  210.4160  152.4040 N   0  0  1  0  0  0  0  0  0  0  0  0
  160.6700  211.9820  156.3390 C   0  0  0  0  0  2  0  0  0  0  0  0
  159.9750  212.5490  149.7230 C   0  0  0  0  0  0  0  0  0  0  0  0
  162.8770  211.1380  157.0950 C   0  0  0  0  0  1  0  0  0  0  0  0
  163.0300  209.0720  151.2140 N   0  0  0  0  0  2  0  0  0  0  0  0
  161.6990  207.4620  148.2270 O   0  0  0  0  0  1  0  0  0  0  0  0
  161.7670  209.0520  151.9730 C   0  0  2  0  0  3  0  0  0  0  0  0
  158.6730  212.7630  150.1770 O   0  0  0  0  0  0  0  0  0  0  0  0
  161.6290  213.8450  148.3880 C   0  0  0  0  0  3  0  0  0  0  0  0
  160.3810  213.2090  148.4560 C   0  0  0  0  0  0  0  0  0  0  0  0
  159.5760  213.1750  147.3040 C   0  0  0  0  0  3  0  0  0  0  0  0
  159.1360  213.7430  144.9130 C   0  0  0  0  0  1  0  0  0  0  0  0
  161.2420  214.4220  146.0690 C   0  0  0  0  0  3  0  0  0  0  0  0
  160.0020  213.7820  146.1200 C   0  0  0  0  0  0  0  0  0  0  0  0
  162.0580  214.4520  147.2030 C   0  0  0  0  0  3  0  0  0  0  0  0
  160.2330  204.7160  149.8970 C   0  0  0  0  0  1  0  0  0  0  0  0
  159.8130  206.1060  150.3370 C   0  0  0  0  0  2  0  0  0  0  0  0
  1 27  1  0  0  0  0
  2 22  1  0  0  0  0
  2 14  1  0  0  0  0
  2 24  1  0  0  0  0
  3  9  1  0  0  0  0
  4 37  1  6  0  0  0
  4  1  1  0  0  0  0
  5 10  1  0  0  0  0
  6 22  1  0  0  0  0
  7 10  1  6  0  0  0
  7 21  1  0  0  0  0
  7  3  1  0  0  0  0
  8 26  1  6  0  0  0
  8 18  1  0  0  0  0
  8 12  1  0  0  0  0
  9  6  2  0  0  0  0
 11  6  1  0  0  0  0
 12  4  1  0  0  0  0
 13  9  1  0  0  0  0
 13 17  1  1  0  0  0
 15 20  1  0  0  0  0
 16 11  2  0  0  0  0
 17  2  1  0  0  0  0
 18 19  1  1  0  0  0
 18 25  1  0  0  0  0
 19  5  1  0  0  0  0
 20  3  2  0  0  0  0
 20 16  1  0  0  0  0
 21 13  1  0  0  0  0
 23 28  1  0  0  0  0
 23 10  2  0  0  0  0
 25 27  1  0  0  0  0
 27 21  1  0  0  0  0
 28 15  1  0  0  0  0
 29 30  1  0  0  0  0
 30 23  1  0  0  0  0
 31 30  2  0  0  0  0
 32 34  1  0  0  0  0
 33 34  2  0  0  0  0
 33 35  1  0  0  0  0
 34 31  1  0  0  0  0
 35 29  2  0  0  0  0
 36 37  1  0  0  0  0
M  END
>  <MODEL>
3

>  <REMARK>
 VINA RESULT:      -2.9      1.231      1.568
  Name = 
  2 active torsions:
  status: ('A' for Active; 'I' for Inactive)
    1  A    between atoms: C_4  and  C_37
    2  A    between atoms: C_23  and  C_30
                            x       y       z     vdW  Elec       q    Type
                         _______ _______ _______ _____ _____    ______ ____

>  <TORSDO>
F 2

$$$$
