=
 OpenBabel11122414033D

 28 32  0  0  1  0  0  0  0  0999 V2000
  161.0890  208.4560  155.5810 C   0  0  0  0  0  0  0  0  0  0  0  0
  158.0980  211.6200  154.9520 O   0  0  0  0  0  0  0  0  0  0  0  0
  163.4850  210.6810  152.2920 C   0  0  0  0  0  1  0  0  0  0  0  0
  162.8110  210.3560  156.7130 C   0  0  0  0  0  3  0  0  0  0  0  0
  161.6060  210.3000  150.6470 C   0  0  1  0  0  3  0  0  0  0  0  0
  160.2700  207.3740  154.9550 C   0  0  0  0  0  2  0  0  0  0  0  0
  159.9600  213.0140  155.7410 O   0  0  0  0  0  0  0  0  0  0  0  0
  159.2530  212.4860  154.5250 S   0  0  0  0  0  0  0  0  0  0  0  0
  158.3570  213.4290  152.1170 C   0  0  1  0  0  3  0  0  0  0  0  0
  160.3700  211.5870  153.5310 N   0  0  2  0  0  0  0  0  0  0  0  0
  160.7190  205.2660  152.2770 O   0  0  0  0  0  1  0  0  0  0  0  0
  160.5040  209.3870  152.5960 N   0  0  1  0  0  0  0  0  0  0  0  0
  158.6350  212.0110  151.8580 N   0  0  0  0  0  2  0  0  0  0  0  0
  158.6380  213.8500  153.5610 C   0  0  0  0  0  2  0  0  0  0  0  0
  160.7820  206.5510  152.8150 C   0  0  2  0  0  3  0  0  0  0  0  0
  161.1550  209.7550  155.0280 C   0  0  0  0  0  0  0  0  0  0  0  0
  162.6660  209.6580  151.5170 C   0  0  2  0  0  3  0  0  0  0  0  0
  159.0840  214.3330  151.1340 C   0  0  0  0  0  1  0  0  0  0  0  0
  161.8060  207.3740  152.0360 C   0  0  0  0  0  2  0  0  0  0  0  0
  162.0320  210.6900  155.6040 C   0  0  0  0  0  3  0  0  0  0  0  0
  161.8750  208.1300  156.6930 C   0  0  0  0  0  3  0  0  0  0  0  0
  162.7290  209.0760  157.2600 C   0  0  0  0  0  3  0  0  0  0  0  0
  161.1450  206.4670  154.2220 N   0  0  0  0  0  2  0  0  0  0  0  0
  160.3390  210.3360  151.4950 C   0  0  1  0  0  3  0  0  0  0  0  0
  161.8640  208.8300  152.5000 C   0  0  2  0  0  3  0  0  0  0  0  0
  160.0490  211.6960  152.1030 C   0  0  2  0  0  3  0  0  0  0  0  0
  161.9820  211.5550  150.1530 O   0  0  0  0  0  1  0  0  0  0  0  0
  160.2880  210.1600  153.8370 C   0  0  1  0  0  3  0  0  0  0  0  0
  1 21  1  0  0  0  0
  4 22  1  0  0  0  0
  5 27  1  1  0  0  0
  5 24  1  0  0  0  0
  5 17  1  0  0  0  0
  6  1  1  0  0  0  0
  8  2  2  0  0  0  0
  8  7  2  0  0  0  0
  9 18  1  6  0  0  0
  9 14  1  0  0  0  0
 10 28  1  0  0  0  0
 10  8  1  1  0  0  0
 11 15  1  0  0  0  0
 12 28  1  0  0  0  0
 13 26  1  0  0  0  0
 13  9  1  0  0  0  0
 14  8  1  0  0  0  0
 15 23  1  0  0  0  0
 16  1  2  0  0  0  0
 16 20  1  0  0  0  0
 17  3  1  0  0  0  0
 17 25  1  0  0  0  0
 19 25  1  0  0  0  0
 19 15  1  0  0  0  0
 20  4  2  0  0  0  0
 21 22  2  0  0  0  0
 23  6  1  0  0  0  0
 24 26  1  0  0  0  0
 24 12  1  0  0  0  0
 25 12  1  0  0  0  0
 26 10  1  0  0  0  0
 28 16  1  0  0  0  0
M  END
>  <MODEL>
1

>  <REMARK>
 VINA RESULT:      -3.3      0.000      0.000
  Name = 
  0 active torsions:
  status: ('A' for Active; 'I' for Inactive)
                            x       y       z     vdW  Elec       q    Type
                         _______ _______ _______ _____ _____    ______ ____

>  <TORSDO>
F 0

$$$$
=
 OpenBabel11122414033D

 28 32  0  0  1  0  0  0  0  0999 V2000
  161.3930  209.9010  155.5260 C   0  0  0  0  0  0  0  0  0  0  0  0
  163.4120  210.3230  151.6410 O   0  0  0  0  0  0  0  0  0  0  0  0
  157.5230  210.7220  153.1030 C   0  0  0  0  0  1  0  0  0  0  0  0
  160.2460  207.5040  154.6320 C   0  0  0  0  0  3  0  0  0  0  0  0
  158.4200  212.9810  152.4120 C   0  0  1  0  0  3  0  0  0  0  0  0
  161.9120  211.1870  156.0850 C   0  0  0  0  0  2  0  0  0  0  0  0
  162.0290  208.3580  151.1340 O   0  0  0  0  0  0  0  0  0  0  0  0
  162.1180  209.8540  151.0310 S   0  0  0  0  0  0  0  0  0  0  0  0
  161.6670  211.8000  149.1610 C   0  0  1  0  0  3  0  0  0  0  0  0
  160.7520  210.5880  151.8320 N   0  0  2  0  0  0  0  0  0  0  0  0
  160.4430  214.0630  157.2610 O   0  0  0  0  0  1  0  0  0  0  0  0
  160.3970  212.2010  153.5660 N   0  0  1  0  0  0  0  0  0  0  0  0
  161.4340  212.4810  150.4400 N   0  0  0  0  0  2  0  0  0  0  0  0
  162.0700  210.3320  149.3170 C   0  0  0  0  0  2  0  0  0  0  0  0
  160.5240  213.0700  156.2850 C   0  0  2  0  0  3  0  0  0  0  0  0
  160.9500  209.7960  154.1870 C   0  0  0  0  0  0  0  0  0  0  0  0
  157.9670  212.1050  153.5610 C   0  0  2  0  0  3  0  0  0  0  0  0
  160.4800  211.9440  148.2230 C   0  0  0  0  0  1  0  0  0  0  0  0
  159.1800  212.9600  155.5660 C   0  0  0  0  0  2  0  0  0  0  0  0
  160.3680  208.5890  153.7610 C   0  0  0  0  0  3  0  0  0  0  0  0
  161.2640  208.8080  156.3910 C   0  0  0  0  0  3  0  0  0  0  0  0
  160.6990  207.6130  155.9460 C   0  0  0  0  0  3  0  0  0  0  0  0
  160.8830  211.8070  156.9100 N   0  0  0  0  0  2  0  0  0  0  0  0
  159.9280  212.7800  152.3070 C   0  0  1  0  0  3  0  0  0  0  0  0
  159.2140  211.9600  154.4090 C   0  0  2  0  0  3  0  0  0  0  0  0
  160.3430  211.8420  151.1890 C   0  0  2  0  0  3  0  0  0  0  0  0
  157.7390  212.7210  151.2160 O   0  0  0  0  0  1  0  0  0  0  0  0
  161.1030  210.9540  153.2030 C   0  0  1  0  0  3  0  0  0  0  0  0
  1  6  1  0  0  0  0
  1 21  1  0  0  0  0
  3 17  1  0  0  0  0
  4 22  1  0  0  0  0
  5 27  1  6  0  0  0
  5 17  1  0  0  0  0
  6 23  1  0  0  0  0
  8  7  2  0  0  0  0
  8  2  2  0  0  0  0
  9 18  1  6  0  0  0
  9 14  1  0  0  0  0
  9 13  1  0  0  0  0
 10  8  1  6  0  0  0
 10 28  1  0  0  0  0
 12 25  1  0  0  0  0
 13 26  1  0  0  0  0
 14  8  1  0  0  0  0
 15 23  1  0  0  0  0
 15 11  1  0  0  0  0
 16  1  2  0  0  0  0
 17 25  1  0  0  0  0
 19 15  1  0  0  0  0
 20 16  1  0  0  0  0
 20  4  2  0  0  0  0
 22 21  2  0  0  0  0
 24  5  1  0  0  0  0
 24 12  1  0  0  0  0
 25 19  1  0  0  0  0
 26 10  1  0  0  0  0
 26 24  1  0  0  0  0
 28 12  1  0  0  0  0
 28 16  1  0  0  0  0
M  END
>  <MODEL>
2

>  <REMARK>
 VINA RESULT:      -1.1      2.267      4.861
  Name = 
  0 active torsions:
  status: ('A' for Active; 'I' for Inactive)
                            x       y       z     vdW  Elec       q    Type
                         _______ _______ _______ _____ _____    ______ ____

>  <TORSDO>
F 0

$$$$
