=
 OpenBabel11122412523D

 32 37  0  0  1  0  0  0  0  0999 V2000
  157.5630  213.5610  146.3280 C   0  0  0  0  0  2  0  0  0  0  0  0
  159.9800  213.1590  151.4680 C   0  0  1  0  0  3  0  0  0  0  0  0
  161.9910  209.8300  148.6380 C   0  0  0  0  0  2  0  0  0  0  0  0
  162.2190  208.8630  149.7960 C   0  0  0  0  0  2  0  0  0  0  0  0
  159.4210  212.6350  153.8910 C   0  0  0  0  0  0  0  0  0  0  0  0
  159.4990  211.7340  154.9500 C   0  0  0  0  0  0  0  0  0  0  0  0
  158.5370  213.8780  149.5610 C   0  0  1  0  0  3  0  0  0  0  0  0
  161.0180  213.7890  149.3930 C   0  0  0  0  0  2  0  0  0  0  0  0
  160.1110  209.7850  156.0910 C   0  0  1  0  0  3  0  0  0  0  0  0
  159.6830  214.4400  147.3760 C   0  0  0  0  0  2  0  0  0  0  0  0
  162.1100  211.2650  149.1420 C   0  0  0  0  0  2  0  0  0  0  0  0
  161.1210  212.8870  150.5610 N   0  0  2  0  0  0  0  0  0  0  0  0
  161.0880  211.5170  150.1700 N   0  0  2  0  0  0  0  0  0  0  0  0
  160.7080  211.0270  152.5780 C   0  0  0  0  0  0  0  0  0  0  0  0
  159.3030  210.7310  157.0100 C   0  0  0  0  0  2  0  0  0  0  0  0
  157.0450  212.4380  147.6670 S   0  0  0  0  0  0  0  0  0  0  0  0
  159.7120  213.5800  148.6290 C   0  0  2  0  0  3  0  0  0  0  0  0
  158.9810  211.8770  156.2180 O   0  0  0  0  0  0  0  0  0  0  0  0
  157.1570  213.7710  148.9050 C   0  0  0  0  0  2  0  0  0  0  0  0
  159.0850  213.6440  146.2220 C   0  0  2  0  0  3  0  0  0  0  0  0
  161.3040  209.2040  150.9680 C   0  0  0  0  0  2  0  0  0  0  0  0
  161.4740  210.6820  151.3280 C   0  0  1  0  0  3  0  0  0  0  0  0
  160.7670  210.1970  153.6630 N   0  0  0  0  0  0  0  0  0  0  0  0
  158.6230  212.9670  150.7730 C   0  0  0  0  0  2  0  0  0  0  0  0
  158.7030  213.9330  154.0580 C   0  0  0  0  0  1  0  0  0  0  0  0
  159.3400  208.4930  155.8940 C   0  0  0  0  0  1  0  0  0  0  0  0
  160.0480  212.2750  152.6770 C   0  0  0  0  0  0  0  0  0  0  0  0
  160.1510  210.5490  154.8200 C   0  0  0  0  0  0  0  0  0  0  0  0
  159.4510  214.2830  144.9660 N   0  0  0  0  0  2  0  0  0  0  0  0
  159.9070  213.5540  143.8230 C   0  0  0  0  0  0  0  0  0  0  0  0
  160.0580  212.2720  143.8720 N   0  0  0  0  0  2  0  0  0  0  0  0
  160.2400  214.2860  142.5730 C   0  0  0  0  0  1  0  0  0  0  0  0
  1 16  1  0  0  0  0
  2 24  1  6  0  0  0
  2 27  1  0  0  0  0
  3 11  1  0  0  0  0
  3  4  1  0  0  0  0
  4 21  1  0  0  0  0
  5 25  1  0  0  0  0
  5  6  1  0  0  0  0
  6 18  1  0  0  0  0
  7 19  1  6  0  0  0
  7 24  1  0  0  0  0
  9 26  1  6  0  0  0
  9 15  1  0  0  0  0
 12  8  1  6  0  0  0
 12  2  1  0  0  0  0
 13 11  1  6  0  0  0
 13 12  1  0  0  0  0
 13 22  1  0  0  0  0
 14 27  1  0  0  0  0
 14 23  2  0  0  0  0
 16 19  1  0  0  0  0
 17 10  1  6  0  0  0
 17  8  1  0  0  0  0
 17  7  1  0  0  0  0
 18 15  1  0  0  0  0
 20 29  1  6  0  0  0
 20  1  1  0  0  0  0
 20 10  1  0  0  0  0
 22 21  1  6  0  0  0
 22 14  1  0  0  0  0
 23 28  1  0  0  0  0
 27  5  2  0  0  0  0
 28  6  2  0  0  0  0
 28  9  1  0  0  0  0
 30 31  2  0  0  0  0
 30 29  1  0  0  0  0
 32 30  1  0  0  0  0
M  END
>  <MODEL>
1

>  <REMARK>
 VINA RESULT:      -4.0      0.000      0.000
  Name = 
  1 active torsions:
  status: ('A' for Active; 'I' for Inactive)
    1  A    between atoms: C_20  and  N_29
                            x       y       z     vdW  Elec       q    Type
                         _______ _______ _______ _____ _____    ______ ____

>  <TORSDO>
F 1

$$$$
=
 OpenBabel11122412523D

 32 37  0  0  1  0  0  0  0  0999 V2000
  159.3500  213.5260  147.2470 C   0  0  0  0  0  2  0  0  0  0  0  0
  161.5940  210.9480  151.8010 C   0  0  1  0  0  3  0  0  0  0  0  0
  161.2080  207.6700  148.3020 C   0  0  0  0  0  2  0  0  0  0  0  0
  160.9720  206.5270  149.2840 C   0  0  0  0  0  2  0  0  0  0  0  0
  161.0540  210.3430  154.2090 C   0  0  0  0  0  0  0  0  0  0  0  0
  160.7210  209.3530  155.1290 C   0  0  0  0  0  0  0  0  0  0  0  0
  160.6170  212.6640  150.2730 C   0  0  1  0  0  3  0  0  0  0  0  0
  162.6220  211.3240  149.6600 C   0  0  0  0  0  2  0  0  0  0  0  0
  160.2670  207.1960  155.9160 C   0  0  1  0  0  3  0  0  0  0  0  0
  161.6870  212.9470  147.9970 C   0  0  0  0  0  2  0  0  0  0  0  0
  162.1340  208.7040  148.9360 C   0  0  0  0  0  2  0  0  0  0  0  0
  162.3170  210.2980  150.6820 N   0  0  2  0  0  0  0  0  0  0  0  0
  161.5090  209.2520  150.1510 N   0  0  2  0  0  0  0  0  0  0  0  0
  161.1350  208.5850  152.5160 C   0  0  0  0  0  0  0  0  0  0  0  0
  160.1900  208.2290  157.0640 C   0  0  0  0  0  2  0  0  0  0  0  0
  158.4220  212.6090  148.5200 S   0  0  0  0  0  0  0  0  0  0  0  0
  161.3530  211.9790  149.1190 C   0  0  2  0  0  3  0  0  0  0  0  0
  160.4770  209.5000  156.4770 O   0  0  0  0  0  0  0  0  0  0  0  0
  159.3510  213.4220  149.8620 C   0  0  0  0  0  2  0  0  0  0  0  0
  160.6540  212.8190  146.8840 C   0  0  2  0  0  3  0  0  0  0  0  0
  160.4980  207.0660  150.6300 C   0  0  0  0  0  2  0  0  0  0  0  0
  161.4770  208.1360  151.1200 C   0  0  1  0  0  3  0  0  0  0  0  0
  160.8270  207.6580  153.4730 N   0  0  0  0  0  0  0  0  0  0  0  0
  160.2970  211.6310  151.3380 C   0  0  0  0  0  2  0  0  0  0  0  0
  161.1780  211.7660  154.6460 C   0  0  0  0  0  1  0  0  0  0  0  0
  158.9030  206.5640  155.7130 C   0  0  0  0  0  1  0  0  0  0  0  0
  161.2740  209.9480  152.8710 C   0  0  0  0  0  0  0  0  0  0  0  0
  160.6060  208.0520  154.7520 C   0  0  0  0  0  0  0  0  0  0  0  0
  161.1980  213.3980  145.6630 N   0  0  0  0  0  2  0  0  0  0  0  0
  160.8030  212.9740  144.3560 C   0  0  0  0  0  0  0  0  0  0  0  0
  159.9600  212.0090  144.1980 N   0  0  0  0  0  2  0  0  0  0  0  0
  161.3950  213.6350  143.1630 C   0  0  0  0  0  1  0  0  0  0  0  0
  1 16  1  0  0  0  0
  2 24  1  6  0  0  0
  2 27  1  0  0  0  0
  3 11  1  0  0  0  0
  3  4  1  0  0  0  0
  4 21  1  0  0  0  0
  5 25  1  0  0  0  0
  5  6  1  0  0  0  0
  6 18  1  0  0  0  0
  7 19  1  6  0  0  0
  7 24  1  0  0  0  0
  9 26  1  6  0  0  0
  9 15  1  0  0  0  0
 12  8  1  6  0  0  0
 12  2  1  0  0  0  0
 13 11  1  6  0  0  0
 13 12  1  0  0  0  0
 13 22  1  0  0  0  0
 14 27  1  0  0  0  0
 14 23  2  0  0  0  0
 16 19  1  0  0  0  0
 17 10  1  6  0  0  0
 17  8  1  0  0  0  0
 17  7  1  0  0  0  0
 18 15  1  0  0  0  0
 20 29  1  6  0  0  0
 20  1  1  0  0  0  0
 20 10  1  0  0  0  0
 22 21  1  6  0  0  0
 22 14  1  0  0  0  0
 23 28  1  0  0  0  0
 27  5  2  0  0  0  0
 28  6  2  0  0  0  0
 28  9  1  0  0  0  0
 30 29  1  0  0  0  0
 31 30  2  0  0  0  0
 32 30  1  0  0  0  0
M  END
>  <MODEL>
2

>  <REMARK>
 VINA RESULT:      -3.9      1.726      2.414
  Name = 
  1 active torsions:
  status: ('A' for Active; 'I' for Inactive)
    1  A    between atoms: C_20  and  N_29
                            x       y       z     vdW  Elec       q    Type
                         _______ _______ _______ _____ _____    ______ ____

>  <TORSDO>
F 1

$$$$
=
 OpenBabel11122412523D

 32 37  0  0  1  0  0  0  0  0999 V2000
  159.2180  210.7300  154.1690 C   0  0  0  0  0  2  0  0  0  0  0  0
  160.8430  213.5990  149.5270 C   0  0  1  0  0  3  0  0  0  0  0  0
  156.0380  213.7150  149.7160 C   0  0  0  0  0  2  0  0  0  0  0  0
  155.8950  213.7410  148.1970 C   0  0  0  0  0  2  0  0  0  0  0  0
  162.0460  213.2770  147.3120 C   0  0  0  0  0  0  0  0  0  0  0  0
  161.9560  213.1760  145.9270 C   0  0  0  0  0  0  0  0  0  0  0  0
  160.8720  212.2530  151.6300 C   0  0  1  0  0  3  0  0  0  0  0  0
  159.7200  214.4530  151.4740 C   0  0  0  0  0  2  0  0  0  0  0  0
  160.9390  213.1740  143.8190 C   0  0  1  0  0  3  0  0  0  0  0  0
  159.5940  213.1620  153.6170 C   0  0  0  0  0  2  0  0  0  0  0  0
  157.3130  214.4490  150.1200 C   0  0  0  0  0  2  0  0  0  0  0  0
  159.6810  214.3900  149.9960 N   0  0  2  0  0  0  0  0  0  0  0  0
  158.4810  213.7770  149.5290 N   0  0  2  0  0  0  0  0  0  0  0  0
  159.6290  213.6290  147.3290 C   0  0  0  0  0  0  0  0  0  0  0  0
  162.4630  212.9450  143.6950 C   0  0  0  0  0  2  0  0  0  0  0  0
  159.3630  210.0440  152.4860 S   0  0  0  0  0  0  0  0  0  0  0  0
  159.6630  213.0620  152.1020 C   0  0  2  0  0  3  0  0  0  0  0  0
  162.9790  212.9600  145.0290 O   0  0  0  0  0  0  0  0  0  0  0  0
  160.9790  210.8500  152.2360 C   0  0  0  0  0  2  0  0  0  0  0  0
  158.6090  212.1300  154.1550 C   0  0  2  0  0  3  0  0  0  0  0  0
  157.1670  213.2230  147.5310 C   0  0  0  0  0  2  0  0  0  0  0  0
  158.3720  213.9970  148.0710 C   0  0  1  0  0  3  0  0  0  0  0  0
  159.6130  213.5410  145.9640 N   0  0  0  0  0  0  0  0  0  0  0  0
  160.8560  212.1790  150.1140 C   0  0  0  0  0  2  0  0  0  0  0  0
  163.3680  213.1430  147.9930 C   0  0  0  0  0  1  0  0  0  0  0  0
  160.2010  211.9500  143.3110 C   0  0  0  0  0  1  0  0  0  0  0  0
  160.8540  213.5180  148.0300 C   0  0  0  0  0  0  0  0  0  0  0  0
  160.7630  213.2990  145.2870 C   0  0  0  0  0  0  0  0  0  0  0  0
  158.2210  212.5060  155.5070 N   0  0  0  0  0  2  0  0  0  0  0  0
  156.9870  213.1600  155.8110 C   0  0  0  0  0  0  0  0  0  0  0  0
  156.1630  213.4910  154.8720 N   0  0  0  0  0  2  0  0  0  0  0  0
  156.6620  213.4890  157.2240 C   0  0  0  0  0  1  0  0  0  0  0  0
  2 12  1  0  0  0  0
  2 24  1  1  0  0  0
  3 11  1  0  0  0  0
  4  3  1  0  0  0  0
  5 25  1  0  0  0  0
  5 27  1  0  0  0  0
  6  5  2  0  0  0  0
  7 24  1  6  0  0  0
  7 17  1  0  0  0  0
  7 19  1  0  0  0  0
  9 26  1  1  0  0  0
  9 28  1  0  0  0  0
 10 20  1  0  0  0  0
 12  8  1  1  0  0  0
 13 12  1  0  0  0  0
 13 11  1  1  0  0  0
 14 27  2  0  0  0  0
 14 22  1  0  0  0  0
 15  9  1  0  0  0  0
 15 18  1  0  0  0  0
 16  1  1  0  0  0  0
 17  8  1  6  0  0  0
 17 10  1  0  0  0  0
 18  6  1  0  0  0  0
 19 16  1  0  0  0  0
 20  1  1  0  0  0  0
 20 29  1  1  0  0  0
 21  4  1  0  0  0  0
 22 21  1  6  0  0  0
 22 13  1  0  0  0  0
 23 14  1  0  0  0  0
 27  2  1  0  0  0  0
 28  6  1  0  0  0  0
 28 23  2  0  0  0  0
 29 30  1  0  0  0  0
 30 32  1  0  0  0  0
 31 30  2  0  0  0  0
M  END
>  <MODEL>
3

>  <REMARK>
 VINA RESULT:      -2.9      3.154      8.414
  Name = 
  1 active torsions:
  status: ('A' for Active; 'I' for Inactive)
    1  A    between atoms: C_20  and  N_29
                            x       y       z     vdW  Elec       q    Type
                         _______ _______ _______ _____ _____    ______ ____

>  <TORSDO>
F 1

$$$$
=
 OpenBabel11122412523D

 32 37  0  0  1  0  0  0  0  0999 V2000
  161.5900  210.4840  150.8170 C   0  0  0  0  0  2  0  0  0  0  0  0
  161.5950  214.0370  146.3670 C   0  0  1  0  0  3  0  0  0  0  0  0
  157.0240  212.8620  147.3020 C   0  0  0  0  0  2  0  0  0  0  0  0
  156.6100  212.9680  145.8370 C   0  0  0  0  0  2  0  0  0  0  0  0
  162.4230  214.2190  143.9720 C   0  0  0  0  0  0  0  0  0  0  0  0
  162.1140  214.2070  142.6140 C   0  0  0  0  0  0  0  0  0  0  0  0
  162.3320  212.5850  148.2610 C   0  0  1  0  0  3  0  0  0  0  0  0
  160.6630  214.4070  148.5530 C   0  0  0  0  0  2  0  0  0  0  0  0
  160.7680  214.1020  140.7030 C   0  0  1  0  0  3  0  0  0  0  0  0
  161.2470  212.9640  150.5150 C   0  0  0  0  0  2  0  0  0  0  0  0
  158.1300  213.8730  147.5930 C   0  0  0  0  0  2  0  0  0  0  0  0
  160.3760  214.4520  147.1020 N   0  0  2  0  0  0  0  0  0  0  0  0
  159.3020  213.5830  146.7520 N   0  0  2  0  0  0  0  0  0  0  0  0
  160.0370  213.9170  144.4010 C   0  0  0  0  0  0  0  0  0  0  0  0
  162.2540  214.2940  140.3210 C   0  0  0  0  0  2  0  0  0  0  0  0
  161.5950  209.9960  149.0610 S   0  0  0  0  0  0  0  0  0  0  0  0
  161.0650  213.0050  149.0070 C   0  0  2  0  0  3  0  0  0  0  0  0
  162.9800  214.3400  141.5510 O   0  0  0  0  0  0  0  0  0  0  0  0
  162.8900  211.2170  148.6670 C   0  0  0  0  0  2  0  0  0  0  0  0
  160.6610  211.6700  151.0670 C   0  0  2  0  0  3  0  0  0  0  0  0
  157.8290  212.8600  144.9260 C   0  0  0  0  0  2  0  0  0  0  0  0
  158.8820  213.8800  145.3660 C   0  0  1  0  0  3  0  0  0  0  0  0
  159.7990  213.9350  143.0540 N   0  0  0  0  0  0  0  0  0  0  0  0
  162.0640  212.6290  146.7670 C   0  0  0  0  0  2  0  0  0  0  0  0
  163.8370  214.3860  144.4210 C   0  0  0  0  0  1  0  0  0  0  0  0
  160.2770  212.7700  140.1680 C   0  0  0  0  0  1  0  0  0  0  0  0
  161.3560  214.0790  144.8880 C   0  0  0  0  0  0  0  0  0  0  0  0
  160.8330  214.0590  142.1850 C   0  0  0  0  0  0  0  0  0  0  0  0
  160.4410  211.8230  152.4990 N   0  0  0  0  0  2  0  0  0  0  0  0
  159.1990  212.2600  153.0550 C   0  0  0  0  0  0  0  0  0  0  0  0
  158.2090  212.5880  152.2920 N   0  0  0  0  0  2  0  0  0  0  0  0
  159.0550  212.3680  154.5300 C   0  0  0  0  0  1  0  0  0  0  0  0
  1 20  1  0  0  0  0
  2 24  1  1  0  0  0
  2 12  1  0  0  0  0
  3 11  1  0  0  0  0
  4  3  1  0  0  0  0
  5 25  1  0  0  0  0
  5 27  1  0  0  0  0
  6  5  2  0  0  0  0
  7 24  1  6  0  0  0
  7 19  1  0  0  0  0
  7 17  1  0  0  0  0
  9 26  1  6  0  0  0
  9 28  1  0  0  0  0
 10 20  1  0  0  0  0
 12  8  1  1  0  0  0
 13 12  1  0  0  0  0
 13 11  1  1  0  0  0
 14 27  2  0  0  0  0
 14 22  1  0  0  0  0
 15  9  1  0  0  0  0
 15 18  1  0  0  0  0
 16  1  1  0  0  0  0
 17  8  1  6  0  0  0
 17 10  1  0  0  0  0
 18  6  1  0  0  0  0
 19 16  1  0  0  0  0
 20 29  1  1  0  0  0
 21  4  1  0  0  0  0
 22 21  1  6  0  0  0
 22 13  1  0  0  0  0
 23 14  1  0  0  0  0
 27  2  1  0  0  0  0
 28  6  1  0  0  0  0
 28 23  2  0  0  0  0
 29 30  1  0  0  0  0
 30 32  1  0  0  0  0
 31 30  2  0  0  0  0
M  END
>  <MODEL>
4

>  <REMARK>
 VINA RESULT:      -2.3      3.437      9.319
  Name = 
  1 active torsions:
  status: ('A' for Active; 'I' for Inactive)
    1  A    between atoms: C_20  and  N_29
                            x       y       z     vdW  Elec       q    Type
                         _______ _______ _______ _____ _____    ______ ____

>  <TORSDO>
F 1

$$$$
=
 OpenBabel11122412523D

 32 37  0  0  1  0  0  0  0  0999 V2000
  160.5070  208.9660  153.0620 C   0  0  0  0  0  2  0  0  0  0  0  0
  161.7120  212.7840  149.0120 C   0  0  1  0  0  3  0  0  0  0  0  0
  156.9570  212.8640  149.7350 C   0  0  0  0  0  2  0  0  0  0  0  0
  156.6580  213.2230  148.2820 C   0  0  0  0  0  2  0  0  0  0  0  0
  162.6700  212.9540  146.6650 C   0  0  0  0  0  0  0  0  0  0  0  0
  162.4340  213.1600  145.3080 C   0  0  0  0  0  0  0  0  0  0  0  0
  161.9260  211.0080  150.7550 C   0  0  1  0  0  3  0  0  0  0  0  0
  160.8190  213.1900  151.2080 C   0  0  0  0  0  2  0  0  0  0  0  0
  161.2030  213.6240  143.3730 C   0  0  1  0  0  3  0  0  0  0  0  0
  160.8850  211.4600  153.0170 C   0  0  0  0  0  2  0  0  0  0  0  0
  158.2860  213.4890  150.1510 C   0  0  0  0  0  2  0  0  0  0  0  0
  160.6250  213.4540  149.7650 N   0  0  2  0  0  0  0  0  0  0  0  0
  159.3690  212.9610  149.3060 N   0  0  2  0  0  0  0  0  0  0  0  0
  160.2780  213.2990  147.0160 C   0  0  0  0  0  0  0  0  0  0  0  0
  162.7000  213.4250  143.0400 C   0  0  0  0  0  2  0  0  0  0  0  0
  160.4580  208.6680  151.2640 S   0  0  0  0  0  0  0  0  0  0  0  0
  160.7930  211.6950  151.5190 C   0  0  2  0  0  3  0  0  0  0  0  0
  163.3510  213.1460  144.2810 O   0  0  0  0  0  0  0  0  0  0  0  0
  162.0590  209.5060  151.0250 C   0  0  0  0  0  2  0  0  0  0  0  0
  159.9360  210.3370  153.4190 C   0  0  2  0  0  3  0  0  0  0  0  0
  157.8400  212.8630  147.3870 C   0  0  0  0  0  2  0  0  0  0  0  0
  159.1140  213.4970  147.9520 C   0  0  1  0  0  3  0  0  0  0  0  0
  160.1170  213.5130  145.6750 N   0  0  0  0  0  0  0  0  0  0  0  0
  161.7510  211.2690  149.2700 C   0  0  0  0  0  2  0  0  0  0  0  0
  164.0510  212.6710  147.1540 C   0  0  0  0  0  1  0  0  0  0  0  0
  160.3860  212.5430  142.6920 C   0  0  0  0  0  1  0  0  0  0  0  0
  161.5650  213.0340  147.5410 C   0  0  0  0  0  0  0  0  0  0  0  0
  161.1840  213.4230  144.8430 C   0  0  0  0  0  0  0  0  0  0  0  0
  159.7000  210.4070  154.8540 N   0  0  0  0  0  2  0  0  0  0  0  0
  160.7550  210.5290  155.8130 C   0  0  0  0  0  0  0  0  0  0  0  0
  161.9920  210.5400  155.4400 N   0  0  0  0  0  2  0  0  0  0  0  0
  160.4220  210.6150  157.2590 C   0  0  0  0  0  1  0  0  0  0  0  0
  1 20  1  0  0  0  0
  2 24  1  6  0  0  0
  2 12  1  0  0  0  0
  3 11  1  0  0  0  0
  4  3  1  0  0  0  0
  5 25  1  0  0  0  0
  5 27  1  0  0  0  0
  6  5  2  0  0  0  0
  7 24  1  6  0  0  0
  7 19  1  0  0  0  0
  7 17  1  0  0  0  0
  9 26  1  6  0  0  0
  9 28  1  0  0  0  0
 10 20  1  0  0  0  0
 12  8  1  1  0  0  0
 13 12  1  0  0  0  0
 13 11  1  1  0  0  0
 14 27  2  0  0  0  0
 14 22  1  0  0  0  0
 15  9  1  0  0  0  0
 15 18  1  0  0  0  0
 16  1  1  0  0  0  0
 17  8  1  1  0  0  0
 17 10  1  0  0  0  0
 18  6  1  0  0  0  0
 19 16  1  0  0  0  0
 20 29  1  1  0  0  0
 21  4  1  0  0  0  0
 22 21  1  6  0  0  0
 22 13  1  0  0  0  0
 23 14  1  0  0  0  0
 27  2  1  0  0  0  0
 28  6  1  0  0  0  0
 28 23  2  0  0  0  0
 29 30  1  0  0  0  0
 30 32  1  0  0  0  0
 31 30  2  0  0  0  0
M  END
>  <MODEL>
5

>  <REMARK>
 VINA RESULT:      -1.5      2.983      8.631
  Name = 
  1 active torsions:
  status: ('A' for Active; 'I' for Inactive)
    1  A    between atoms: C_20  and  N_29
                            x       y       z     vdW  Elec       q    Type
                         _______ _______ _______ _____ _____    ______ ____

>  <TORSDO>
F 1

$$$$
=
 OpenBabel11122412523D

 32 37  0  0  1  0  0  0  0  0999 V2000
  159.1510  210.8360  155.0500 C   0  0  0  0  0  2  0  0  0  0  0  0
  162.0580  207.8680  151.1560 C   0  0  1  0  0  3  0  0  0  0  0  0
  161.5490  212.3560  149.5000 C   0  0  0  0  0  2  0  0  0  0  0  0
  161.5060  211.9030  148.0440 C   0  0  0  0  0  2  0  0  0  0  0  0
  161.8250  205.8760  149.5960 C   0  0  0  0  0  0  0  0  0  0  0  0
  161.6680  205.4130  148.2920 C   0  0  0  0  0  0  0  0  0  0  0  0
  160.7960  208.5070  153.2140 C   0  0  1  0  0  3  0  0  0  0  0  0
  162.8190  209.7420  152.4570 C   0  0  0  0  0  2  0  0  0  0  0  0
  161.4660  205.5320  145.9640 C   0  0  1  0  0  3  0  0  0  0  0  0
  161.5920  210.5440  154.4880 C   0  0  0  0  0  2  0  0  0  0  0  0
  162.4560  211.4240  150.2970 C   0  0  0  0  0  2  0  0  0  0  0  0
  162.7040  209.2000  151.0850 N   0  0  2  0  0  0  0  0  0  0  0  0
  161.9250  210.0520  150.2490 N   0  0  2  0  0  0  0  0  0  0  0  0
  161.8580  208.1350  148.6670 C   0  0  0  0  0  0  0  0  0  0  0  0
  161.4340  204.0630  146.4460 C   0  0  0  0  0  2  0  0  0  0  0  0
  158.4370  209.9800  153.6080 S   0  0  0  0  0  0  0  0  0  0  0  0
  161.4540  209.8850  153.1260 C   0  0  2  0  0  3  0  0  0  0  0  0
  161.5600  204.1070  147.8690 O   0  0  0  0  0  0  0  0  0  0  0  0
  159.4390  208.4910  153.9250 C   0  0  0  0  0  2  0  0  0  0  0  0
  160.4580  211.5410  154.6940 C   0  0  2  0  0  3  0  0  0  0  0  0
  161.1390  210.4250  147.9530 C   0  0  0  0  0  2  0  0  0  0  0  0
  162.0810  209.6140  148.8460 C   0  0  1  0  0  3  0  0  0  0  0  0
  161.7240  207.6140  147.4100 N   0  0  0  0  0  0  0  0  0  0  0  0
  160.6710  207.9280  151.8160 C   0  0  0  0  0  2  0  0  0  0  0  0
  161.8870  204.9140  150.7350 C   0  0  0  0  0  1  0  0  0  0  0  0
  160.1390  205.8780  145.3140 C   0  0  0  0  0  1  0  0  0  0  0  0
  161.9310  207.2720  149.7860 C   0  0  0  0  0  0  0  0  0  0  0  0
  161.6130  206.2730  147.2410 C   0  0  0  0  0  0  0  0  0  0  0  0
  160.8240  212.4590  155.7640 N   0  0  0  0  0  2  0  0  0  0  0  0
  160.0170  213.5780  156.1400 C   0  0  0  0  0  0  0  0  0  0  0  0
  158.9270  213.8540  155.5050 N   0  0  0  0  0  2  0  0  0  0  0  0
  160.4560  214.4530  157.2590 C   0  0  0  0  0  1  0  0  0  0  0  0
  2 24  1  6  0  0  0
  3 11  1  0  0  0  0
  4  3  1  0  0  0  0
  5 27  1  0  0  0  0
  5 25  1  0  0  0  0
  6  5  2  0  0  0  0
  7 24  1  6  0  0  0
  7 19  1  0  0  0  0
  9 26  1  1  0  0  0
  9 15  1  0  0  0  0
  9 28  1  0  0  0  0
 10 20  1  0  0  0  0
 12  2  1  0  0  0  0
 12  8  1  1  0  0  0
 13 11  1  6  0  0  0
 13 12  1  0  0  0  0
 14 22  1  0  0  0  0
 14 27  2  0  0  0  0
 15 18  1  0  0  0  0
 16 19  1  0  0  0  0
 16  1  1  0  0  0  0
 17  8  1  1  0  0  0
 17  7  1  0  0  0  0
 17 10  1  0  0  0  0
 18  6  1  0  0  0  0
 20  1  1  0  0  0  0
 20 29  1  1  0  0  0
 21  4  1  0  0  0  0
 22 21  1  6  0  0  0
 22 13  1  0  0  0  0
 23 14  1  0  0  0  0
 27  2  1  0  0  0  0
 28 23  2  0  0  0  0
 28  6  1  0  0  0  0
 29 30  1  0  0  0  0
 30 32  1  0  0  0  0
 31 30  2  0  0  0  0
M  END
>  <MODEL>
6

>  <REMARK>
 VINA RESULT:      -1.3      3.911      8.265
  Name = 
  1 active torsions:
  status: ('A' for Active; 'I' for Inactive)
    1  A    between atoms: C_20  and  N_29
                            x       y       z     vdW  Elec       q    Type
                         _______ _______ _______ _____ _____    ______ ____

>  <TORSDO>
F 1

$$$$
=
 OpenBabel11122412523D

 32 37  0  0  1  0  0  0  0  0999 V2000
  158.1930  212.8680  145.6310 C   0  0  0  0  0  2  0  0  0  0  0  0
  158.9190  213.5160  151.2410 C   0  0  1  0  0  3  0  0  0  0  0  0
  162.0220  210.1610  149.7380 C   0  0  0  0  0  2  0  0  0  0  0  0
  161.9710  209.4020  151.0610 C   0  0  0  0  0  2  0  0  0  0  0  0
  157.6880  213.2470  153.4480 C   0  0  0  0  0  0  0  0  0  0  0  0
  157.5200  212.5180  154.6220 C   0  0  0  0  0  0  0  0  0  0  0  0
  158.0780  213.7550  148.9020 C   0  0  1  0  0  3  0  0  0  0  0  0
  160.4850  214.0040  149.4820 C   0  0  0  0  0  2  0  0  0  0  0  0
  157.9320  210.8500  156.2090 C   0  0  1  0  0  3  0  0  0  0  0  0
  159.7870  214.1770  147.0830 C   0  0  0  0  0  2  0  0  0  0  0  0
  161.8390  211.6530  150.0000 C   0  0  0  0  0  2  0  0  0  0  0  0
  160.3060  213.2920  150.7670 N   0  0  2  0  0  0  0  0  0  0  0  0
  160.5280  211.8910  150.6260 N   0  0  2  0  0  0  0  0  0  0  0  0
  159.4680  211.6800  152.8650 C   0  0  0  0  0  0  0  0  0  0  0  0
  156.7910  211.7840  156.6760 C   0  0  0  0  0  2  0  0  0  0  0  0
  157.3960  211.8720  146.9330 S   0  0  0  0  0  0  0  0  0  0  0  0
  159.5080  213.5070  148.4190 C   0  0  2  0  0  3  0  0  0  0  0  0
  156.6220  212.7540  155.6400 O   0  0  0  0  0  0  0  0  0  0  0  0
  156.9880  213.3620  147.9000 C   0  0  0  0  0  2  0  0  0  0  0  0
  159.6570  213.1550  145.9600 C   0  0  2  0  0  3  0  0  0  0  0  0
  160.7080  209.7630  151.8370 C   0  0  0  0  0  2  0  0  0  0  0  0
  160.6140  211.2850  151.9720 C   0  0  1  0  0  3  0  0  0  0  0  0
  159.2670  211.0210  154.0460 N   0  0  0  0  0  0  0  0  0  0  0  0
  157.8710  213.0370  150.2240 C   0  0  0  0  0  2  0  0  0  0  0  0
  156.8310  214.4390  153.1720 C   0  0  0  0  0  1  0  0  0  0  0  0
  157.3890  209.4450  156.0220 C   0  0  0  0  0  1  0  0  0  0  0  0
  158.6930  212.8220  152.5510 C   0  0  0  0  0  0  0  0  0  0  0  0
  158.2910  211.4330  154.8940 C   0  0  0  0  0  0  0  0  0  0  0  0
  160.3310  213.6650  144.7750 N   0  0  0  0  0  2  0  0  0  0  0  0
  161.7330  213.9480  144.7360 C   0  0  0  0  0  0  0  0  0  0  0  0
  162.4680  213.8000  145.7880 N   0  0  0  0  0  2  0  0  0  0  0  0
  162.3430  214.4480  143.4770 C   0  0  0  0  0  1  0  0  0  0  0  0
  1 20  1  0  0  0  0
  1 16  1  0  0  0  0
  2 24  1  6  0  0  0
  2 27  1  0  0  0  0
  3 11  1  0  0  0  0
  3  4  1  0  0  0  0
  4 21  1  0  0  0  0
  5  6  1  0  0  0  0
  6 28  2  0  0  0  0
  6 18  1  0  0  0  0
  7 19  1  6  0  0  0
  7 24  1  0  0  0  0
  9 26  1  6  0  0  0
  9 15  1  0  0  0  0
 12  8  1  6  0  0  0
 12  2  1  0  0  0  0
 13 11  1  1  0  0  0
 13 12  1  0  0  0  0
 13 22  1  0  0  0  0
 14 23  2  0  0  0  0
 16 19  1  0  0  0  0
 17 10  1  6  0  0  0
 17  7  1  0  0  0  0
 17  8  1  0  0  0  0
 18 15  1  0  0  0  0
 20 29  1  6  0  0  0
 20 10  1  0  0  0  0
 22 21  1  6  0  0  0
 22 14  1  0  0  0  0
 23 28  1  0  0  0  0
 25  5  1  0  0  0  0
 27 14  1  0  0  0  0
 27  5  2  0  0  0  0
 28  9  1  0  0  0  0
 30 29  1  0  0  0  0
 30 31  2  0  0  0  0
 32 30  1  0  0  0  0
M  END
>  <MODEL>
7

>  <REMARK>
 VINA RESULT:      -1.3      1.510      1.659
  Name = 
  1 active torsions:
  status: ('A' for Active; 'I' for Inactive)
    1  A    between atoms: C_20  and  N_29
                            x       y       z     vdW  Elec       q    Type
                         _______ _______ _______ _____ _____    ______ ____

>  <TORSDO>
F 1

$$$$
