=
 OpenBabel11122413043D

 32 37  0  0  1  0  0  0  0  0999 V2000
  161.6700  204.5990  150.9370 C   0  0  0  0  0  2  0  0  0  0  0  0
  161.5190  209.8070  152.4450 C   0  0  2  0  0  3  0  0  0  0  0  0
  161.2820  213.0830  148.6430 C   0  0  0  0  0  3  0  0  0  0  0  0
  160.3530  213.8390  149.3580 C   0  0  0  0  0  3  0  0  0  0  0  0
  160.8180  210.6590  154.7560 C   0  0  2  0  0  3  0  0  0  0  0  0
  160.3400  211.9310  155.4330 C   0  0  2  0  0  3  0  0  0  0  0  0
  160.8000  207.5070  151.6610 C   0  0  1  0  0  3  0  0  0  0  0  0
  161.9280  209.0640  150.0120 C   0  0  0  0  0  2  0  0  0  0  0  0
  158.5410  213.4310  155.6320 C   0  0  2  0  0  3  0  0  0  0  0  0
  162.0800  206.5860  149.6290 C   0  0  0  0  0  2  0  0  0  0  0  0
  161.8080  211.9170  149.1990 C   0  0  0  0  0  3  0  0  0  0  0  0
  162.0240  210.2130  151.0340 C   0  0  1  0  0  3  0  0  0  0  0  0
  161.4100  211.4830  150.4740 C   0  0  0  0  0  0  0  0  0  0  0  0
  160.0540  211.8530  152.5930 C   0  0  2  0  0  3  0  0  0  0  0  0
  158.8150  212.7440  156.9370 C   0  0  0  0  0  2  0  0  0  0  0  0
  162.0450  205.3240  152.2400 C   0  0  0  0  0  2  0  0  0  0  0  0
  161.9880  207.6990  150.6860 C   0  0  2  0  0  3  0  0  0  0  0  0
  159.8110  211.8630  156.8200 C   0  0  0  0  0  2  0  0  0  0  0  0
  161.0300  206.3850  152.6850 C   0  0  0  0  0  2  0  0  0  0  0  0
  161.1450  205.4900  149.8970 N   0  0  0  0  0  0  0  0  0  0  0  0
  159.9630  213.4360  150.6360 C   0  0  0  0  0  3  0  0  0  0  0  0
  160.5040  212.2790  151.2190 C   0  0  0  0  0  0  0  0  0  0  0  0
  159.6300  213.0060  153.4090 N   0  0  0  0  0  2  0  0  0  0  0  0
  160.3690  208.7950  152.3680 C   0  0  0  0  0  2  0  0  0  0  0  0
  162.0540  210.1340  155.4680 C   0  0  0  0  0  1  0  0  0  0  0  0
  157.0470  213.5250  155.3980 C   0  0  0  0  0  1  0  0  0  0  0  0
  161.1680  211.0280  153.2940 C   0  0  2  0  0  3  0  0  0  0  0  0
  159.1590  212.4470  154.6660 C   0  0  1  0  0  3  0  0  0  0  0  0
  161.0540  204.7100  148.6750 C   0  0  0  0  0  2  0  0  0  0  0  0
  161.7450  205.4400  147.5360 C   0  0  2  0  0  3  0  0  0  0  0  0
  160.7010  206.0280  146.6100 C   0  0  0  0  0  1  0  0  0  0  0  0
  162.5470  204.5500  146.8210 O   0  0  0  0  0  1  0  0  0  0  0  0
  1 16  1  0  0  0  0
  2 24  1  6  0  0  0
  2 27  1  0  0  0  0
  3 11  2  0  0  0  0
  3  4  1  0  0  0  0
  4 21  2  0  0  0  0
  5  6  1  0  0  0  0
  5 25  1  1  0  0  0
  6 18  1  1  0  0  0
  7 24  1  1  0  0  0
  7 19  1  0  0  0  0
  8 17  1  0  0  0  0
  9 26  1  6  0  0  0
  9 15  1  0  0  0  0
 10 20  1  0  0  0  0
 11 13  1  0  0  0  0
 12  8  1  6  0  0  0
 12  2  1  0  0  0  0
 13 12  1  0  0  0  0
 13 22  2  0  0  0  0
 14 22  1  6  0  0  0
 14 27  1  0  0  0  0
 14 23  1  0  0  0  0
 16 19  1  0  0  0  0
 17 10  1  6  0  0  0
 17  7  1  0  0  0  0
 18 15  1  0  0  0  0
 20  1  1  0  0  0  0
 21 22  1  0  0  0  0
 23 28  1  0  0  0  0
 27  5  1  0  0  0  0
 28  6  1  0  0  0  0
 28  9  1  0  0  0  0
 29 20  1  0  0  0  0
 30 29  1  0  0  0  0
 31 30  1  0  0  0  0
 32 30  1  0  0  0  0
M  END
>  <MODEL>
1

>  <REMARK>
 VINA RESULT:      -7.9      0.000      0.000
  Name = 
  2 active torsions:
  status: ('A' for Active; 'I' for Inactive)
    1  A    between atoms: N_20  and  C_29
    2  A    between atoms: C_29  and  C_30
                            x       y       z     vdW  Elec       q    Type
                         _______ _______ _______ _____ _____    ______ ____

>  <TORSDO>
F 2

$$$$
=
 OpenBabel11122413043D

 32 37  0  0  1  0  0  0  0  0999 V2000
  161.5900  204.2000  151.0730 C   0  0  0  0  0  2  0  0  0  0  0  0
  161.6390  209.4550  152.4150 C   0  0  2  0  0  3  0  0  0  0  0  0
  161.4630  212.6160  148.5140 C   0  0  0  0  0  3  0  0  0  0  0  0
  160.5710  213.4260  149.2170 C   0  0  0  0  0  3  0  0  0  0  0  0
  161.0000  210.4030  154.7070 C   0  0  2  0  0  3  0  0  0  0  0  0
  160.5750  211.7120  155.3490 C   0  0  2  0  0  3  0  0  0  0  0  0
  160.8310  207.1580  151.7150 C   0  0  1  0  0  3  0  0  0  0  0  0
  161.9890  208.6220  150.0020 C   0  0  0  0  0  2  0  0  0  0  0  0
  158.8320  213.2790  155.5220 C   0  0  2  0  0  3  0  0  0  0  0  0
  162.0500  206.1290  149.6970 C   0  0  0  0  0  2  0  0  0  0  0  0
  161.9560  211.4500  149.1010 C   0  0  0  0  0  3  0  0  0  0  0  0
  162.1380  209.7980  150.9870 C   0  0  1  0  0  3  0  0  0  0  0  0
  161.5610  211.0710  150.3930 C   0  0  0  0  0  0  0  0  0  0  0  0
  160.2470  211.5540  152.5170 C   0  0  2  0  0  3  0  0  0  0  0  0
  159.1000  212.6240  156.8460 C   0  0  0  0  0  2  0  0  0  0  0  0
  162.0070  204.9520  152.3470 C   0  0  0  0  0  2  0  0  0  0  0  0
  162.0110  207.2780  150.7190 C   0  0  2  0  0  3  0  0  0  0  0  0
  160.0630  211.7060  156.7440 C   0  0  0  0  0  2  0  0  0  0  0  0
  161.0360  206.0610  152.7710 C   0  0  0  0  0  2  0  0  0  0  0  0
  161.0820  205.0760  150.0120 N   0  0  0  0  0  0  0  0  0  0  0  0
  160.1850  213.0780  150.5120 C   0  0  0  0  0  3  0  0  0  0  0  0
  160.6930  211.9210  151.1240 C   0  0  0  0  0  0  0  0  0  0  0  0
  159.8750  212.7460  153.3010 N   0  0  0  0  0  2  0  0  0  0  0  0
  160.4540  208.4820  152.3860 C   0  0  0  0  0  2  0  0  0  0  0  0
  162.2270  209.8580  155.4190 C   0  0  0  0  0  1  0  0  0  0  0  0
  157.3390  213.4180  155.3040 C   0  0  0  0  0  1  0  0  0  0  0  0
  161.3420  210.7140  153.2300 C   0  0  2  0  0  3  0  0  0  0  0  0
  159.4020  212.2450  154.5810 C   0  0  1  0  0  3  0  0  0  0  0  0
  160.9470  204.2610  148.8160 C   0  0  0  0  0  2  0  0  0  0  0  0
  160.9450  202.7870  149.1860 C   0  0  2  0  0  3  0  0  0  0  0  0
  161.2060  201.9590  147.9460 C   0  0  0  0  0  1  0  0  0  0  0  0
  159.7060  202.4360  149.7230 O   0  0  0  0  0  1  0  0  0  0  0  0
  1 16  1  0  0  0  0
  2 24  1  6  0  0  0
  2 27  1  0  0  0  0
  3 11  2  0  0  0  0
  3  4  1  0  0  0  0
  4 21  2  0  0  0  0
  5  6  1  0  0  0  0
  5 25  1  1  0  0  0
  6 18  1  1  0  0  0
  7 24  1  1  0  0  0
  7 19  1  0  0  0  0
  8 17  1  0  0  0  0
  9 26  1  6  0  0  0
  9 15  1  0  0  0  0
 10 20  1  0  0  0  0
 11 13  1  0  0  0  0
 12  8  1  6  0  0  0
 12  2  1  0  0  0  0
 13 12  1  0  0  0  0
 13 22  2  0  0  0  0
 14 22  1  6  0  0  0
 14 27  1  0  0  0  0
 14 23  1  0  0  0  0
 16 19  1  0  0  0  0
 17 10  1  6  0  0  0
 17  7  1  0  0  0  0
 18 15  1  0  0  0  0
 20  1  1  0  0  0  0
 21 22  1  0  0  0  0
 23 28  1  0  0  0  0
 27  5  1  0  0  0  0
 28  6  1  0  0  0  0
 28  9  1  0  0  0  0
 29 30  1  0  0  0  0
 29 20  1  0  0  0  0
 30 32  1  0  0  0  0
 31 30  1  0  0  0  0
M  END
>  <MODEL>
2

>  <REMARK>
 VINA RESULT:      -7.4      1.085      1.306
  Name = 
  2 active torsions:
  status: ('A' for Active; 'I' for Inactive)
    1  A    between atoms: N_20  and  C_29
    2  A    between atoms: C_29  and  C_30
                            x       y       z     vdW  Elec       q    Type
                         _______ _______ _______ _____ _____    ______ ____

>  <TORSDO>
F 2

$$$$
=
 OpenBabel11122413043D

 32 37  0  0  1  0  0  0  0  0999 V2000
  160.9590  209.8690  153.7100 C   0  0  0  0  0  2  0  0  0  0  0  0
  161.9960  205.9600  150.0940 C   0  0  2  0  0  3  0  0  0  0  0  0
  161.0840  201.2980  151.7280 C   0  0  0  0  0  3  0  0  0  0  0  0
  160.5280  200.9770  150.4900 C   0  0  0  0  0  3  0  0  0  0  0  0
  162.1490  206.2920  147.5600 C   0  0  2  0  0  3  0  0  0  0  0  0
  162.0790  205.4890  146.2730 C   0  0  2  0  0  3  0  0  0  0  0  0
  160.7620  207.6450  151.5290 C   0  0  1  0  0  3  0  0  0  0  0  0
  161.5450  205.4810  152.5850 C   0  0  0  0  0  2  0  0  0  0  0  0
  160.6510  204.2850  144.8460 C   0  0  2  0  0  3  0  0  0  0  0  0
  161.2290  207.4940  154.0540 C   0  0  0  0  0  2  0  0  0  0  0  0
  161.5850  202.5800  151.9570 C   0  0  0  0  0  3  0  0  0  0  0  0
  162.1040  204.9370  151.2560 C   0  0  1  0  0  3  0  0  0  0  0  0
  161.5330  203.5630  150.9560 C   0  0  0  0  0  0  0  0  0  0  0  0
  160.9430  204.2440  148.5780 C   0  0  2  0  0  3  0  0  0  0  0  0
  161.2070  205.4950  144.1540 C   0  0  0  0  0  2  0  0  0  0  0  0
  161.8060  209.8250  152.4270 C   0  0  0  0  0  2  0  0  0  0  0  0
  161.6150  207.0010  152.6490 C   0  0  2  0  0  3  0  0  0  0  0  0
  161.9870  206.2030  144.9730 C   0  0  0  0  0  2  0  0  0  0  0  0
  161.1300  209.1100  151.2500 C   0  0  0  0  0  2  0  0  0  0  0  0
  160.2750  208.6050  154.0060 N   0  0  0  0  0  0  0  0  0  0  0  0
  160.4890  201.9340  149.4750 C   0  0  0  0  0  3  0  0  0  0  0  0
  161.0130  203.2200  149.6820 C   0  0  0  0  0  0  0  0  0  0  0  0
  160.9500  203.6100  147.2470 N   0  0  0  0  0  2  0  0  0  0  0  0
  160.7470  206.8410  150.2250 C   0  0  0  0  0  2  0  0  0  0  0  0
  163.4560  207.0660  147.6090 C   0  0  0  0  0  1  0  0  0  0  0  0
  159.1840  204.1190  144.5040 C   0  0  0  0  0  1  0  0  0  0  0  0
  162.0910  205.2800  148.7290 C   0  0  2  0  0  3  0  0  0  0  0  0
  160.8060  204.6960  146.2910 C   0  0  1  0  0  3  0  0  0  0  0  0
  159.7120  208.7300  155.3400 C   0  0  0  0  0  2  0  0  0  0  0  0
  160.7160  208.2570  156.3780 C   0  0  2  0  0  3  0  0  0  0  0  0
  160.0820  207.1840  157.2370 C   0  0  0  0  0  1  0  0  0  0  0  0
  161.1020  209.3260  157.1850 O   0  0  0  0  0  1  0  0  0  0  0  0
  1 20  1  0  0  0  0
  2 24  1  6  0  0  0
  2 12  1  0  0  0  0
  3 11  1  0  0  0  0
  4  3  2  0  0  0  0
  5 25  1  6  0  0  0
  5 27  1  0  0  0  0
  6 18  1  6  0  0  0
  6 28  1  0  0  0  0
  6  5  1  0  0  0  0
  7 24  1  6  0  0  0
  7 17  1  0  0  0  0
  9 26  1  6  0  0  0
  9 28  1  0  0  0  0
 12  8  1  1  0  0  0
 13 12  1  0  0  0  0
 13 11  2  0  0  0  0
 14 23  1  6  0  0  0
 14 27  1  0  0  0  0
 14 22  1  0  0  0  0
 15  9  1  0  0  0  0
 15 18  1  0  0  0  0
 16  1  1  0  0  0  0
 17  8  1  1  0  0  0
 17 10  1  0  0  0  0
 19  7  1  0  0  0  0
 19 16  1  0  0  0  0
 20 10  1  0  0  0  0
 20 29  1  0  0  0  0
 21 22  2  0  0  0  0
 21  4  1  0  0  0  0
 22 13  1  0  0  0  0
 27  2  1  0  0  0  0
 28 23  1  0  0  0  0
 29 30  1  0  0  0  0
 30 32  1  0  0  0  0
 30 31  1  0  0  0  0
M  END
>  <MODEL>
3

>  <REMARK>
 VINA RESULT:      -5.2      3.488      9.292
  Name = 
  2 active torsions:
  status: ('A' for Active; 'I' for Inactive)
    1  A    between atoms: N_20  and  C_29
    2  A    between atoms: C_29  and  C_30
                            x       y       z     vdW  Elec       q    Type
                         _______ _______ _______ _____ _____    ______ ____

>  <TORSDO>
F 2

$$$$
