=
 OpenBabel11122413483D

 37 42  0  0  1  0  0  0  0  0999 V2000
  160.8210  207.5010  155.4550 C   0  0  0  0  0  0  0  0  0  0  0  0
  161.1040  208.1200  151.2030 C   0  0  0  0  0  0  0  0  0  0  0  0
  159.6770  205.8990  149.6960 C   0  0  0  0  0  2  0  0  0  0  0  0
  161.2930  209.1510  153.5730 C   0  0  0  0  0  0  0  0  0  0  0  0
  161.7460  206.8560  150.8210 N   0  0  0  0  0  0  0  0  0  0  0  0
  160.3200  202.6870  149.2340 C   0  0  0  0  0  0  0  0  0  0  0  0
  160.9910  208.0370  152.6770 C   0  0  0  0  0  0  0  0  0  0  0  0
  161.1450  206.3470  149.5750 C   0  0  2  0  0  3  0  0  0  0  0  0
  161.8620  210.2410  153.0500 C   0  0  0  0  0  3  0  0  0  0  0  0
  161.4030  201.8960  148.7300 N   0  0  0  0  0  2  0  0  0  0  0  0
  161.1200  206.7910  153.0520 C   0  0  2  0  0  3  0  0  0  0  0  0
  159.3040  207.4280  155.4900 C   0  0  0  0  0  1  0  0  0  0  0  0
  162.1320  209.5290  149.2780 C   0  0  0  0  0  2  0  0  0  0  0  0
  162.1610  210.3290  151.5950 C   0  0  0  0  0  3  0  0  0  0  0  0
  161.3750  206.4260  154.4920 C   0  0  0  0  0  2  0  0  0  0  0  0
  160.5570  203.6560  150.2650 N   0  0  0  0  0  0  0  0  0  0  0  0
  159.5120  204.6430  150.5560 C   0  0  0  0  0  2  0  0  0  0  0  0
  161.8930  209.3220  150.7440 C   0  0  0  0  0  0  0  0  0  0  0  0
  161.4850  206.0080  151.9250 N   0  0  2  0  0  0  0  0  0  0  0  0
  161.2590  208.9320  155.0620 C   0  0  0  0  0  2  0  0  0  0  0  0
  161.3450  207.2940  148.3780 C   0  0  1  0  0  3  0  0  0  0  0  0
  161.3380  207.2090  156.8480 C   0  0  0  0  0  1  0  0  0  0  0  0
  161.9260  203.8230  150.7760 C   0  0  0  0  0  2  0  0  0  0  0  0
  159.1610  202.5380  148.7580 O   0  0  0  0  0  0  0  0  0  0  0  0
  162.0230  204.6500  152.0660 C   0  0  0  0  0  2  0  0  0  0  0  0
  162.5350  208.2480  148.5400 C   0  0  0  0  0  2  0  0  0  0  0  0
  160.3920  206.5000  146.1440 C   0  0  0  0  0  3  0  0  0  0  0  0
  161.4880  206.4850  147.1300 C   0  0  0  0  0  0  0  0  0  0  0  0
  162.5450  205.7430  146.9490 N   0  0  0  0  0  0  0  0  0  0  0  0
  163.9020  203.9880  145.9580 C   0  0  0  0  0  1  0  0  0  0  0  0
  161.2380  204.0130  145.3550 S   0  0  0  0  0  0  0  0  0  0  0  0
  162.7510  204.9480  145.7410 C   0  0  1  0  0  3  0  0  0  0  0  0
  160.2390  205.5080  145.2650 C   0  0  0  0  0  3  0  0  0  0  0  0
  162.3710  199.8960  147.7040 C   0  0  0  0  0  1  0  0  0  0  0  0
  161.2290  200.8980  147.6830 C   0  0  2  0  0  3  0  0  0  0  0  0
  160.1820  200.8080  145.3790 C   0  0  0  0  0  1  0  0  0  0  0  0
  161.1090  201.5680  146.3170 C   0  0  0  0  0  2  0  0  0  0  0  0
  1 12  1  0  0  0  0
  1 22  1  0  0  0  0
  2  7  1  0  0  0  0
  3 17  1  0  0  0  0
  4 20  1  0  0  0  0
  5  2  1  0  0  0  0
  5 19  1  0  0  0  0
  6 16  1  0  0  0  0
  7 11  1  0  0  0  0
  7  4  2  0  0  0  0
  8  3  1  1  0  0  0
  8  5  1  0  0  0  0
  9  4  1  0  0  0  0
 10  6  1  0  0  0  0
 11 15  1  1  0  0  0
 13 18  1  0  0  0  0
 14  9  2  0  0  0  0
 15  1  1  0  0  0  0
 16 17  1  0  0  0  0
 16 23  1  0  0  0  0
 18  2  2  0  0  0  0
 18 14  1  0  0  0  0
 19 25  1  1  0  0  0
 19 11  1  0  0  0  0
 20  1  1  0  0  0  0
 21 28  1  6  0  0  0
 21 26  1  0  0  0  0
 21  8  1  0  0  0  0
 23 25  1  0  0  0  0
 24  6  2  0  0  0  0
 26 13  1  0  0  0  0
 27 28  1  0  0  0  0
 29 28  2  0  0  0  0
 31 32  1  0  0  0  0
 32 30  1  1  0  0  0
 32 29  1  0  0  0  0
 33 31  1  0  0  0  0
 33 27  2  0  0  0  0
 35 34  1  6  0  0  0
 35 10  1  0  0  0  0
 36 37  1  0  0  0  0
 37 35  1  0  0  0  0
M  END
>  <MODEL>
1

>  <REMARK>
 VINA RESULT:      -4.7      0.000      0.000
  Name = 
  3 active torsions:
  status: ('A' for Active; 'I' for Inactive)
    1  A    between atoms: C_4  and  N_12
    2  A    between atoms: C_4  and  C_37
    3  A    between atoms: C_23  and  C_30
                            x       y       z     vdW  Elec       q    Type
                         _______ _______ _______ _____ _____    ______ ____

>  <TORSDO>
F 3

$$$$
=
 OpenBabel11122413483D

 37 42  0  0  1  0  0  0  0  0999 V2000
  160.3280  211.3430  156.4390 C   0  0  0  0  0  0  0  0  0  0  0  0
  161.2530  208.3450  153.4890 C   0  0  0  0  0  0  0  0  0  0  0  0
  162.7900  209.5610  151.1660 C   0  0  0  0  0  2  0  0  0  0  0  0
  160.5480  208.8560  155.9300 C   0  0  0  0  0  0  0  0  0  0  0  0
  160.6070  208.9560  152.3190 N   0  0  0  0  0  0  0  0  0  0  0  0
  161.9630  211.6470  148.7340 C   0  0  0  0  0  0  0  0  0  0  0  0
  160.9600  209.2850  154.5950 C   0  0  0  0  0  0  0  0  0  0  0  0
  161.4620  208.7840  151.1310 C   0  0  2  0  0  3  0  0  0  0  0  0
  160.2540  207.5650  156.1120 C   0  0  0  0  0  3  0  0  0  0  0  0
  160.9770  211.7110  147.6970 N   0  0  0  0  0  2  0  0  0  0  0  0
  160.6070  210.4420  154.0990 C   0  0  2  0  0  3  0  0  0  0  0  0
  161.7650  211.7890  156.6460 C   0  0  0  0  0  1  0  0  0  0  0  0
  160.9250  205.8860  152.7150 C   0  0  0  0  0  2  0  0  0  0  0  0
  160.3650  206.5870  154.9970 C   0  0  0  0  0  3  0  0  0  0  0  0
  159.9420  211.4920  154.9490 C   0  0  0  0  0  2  0  0  0  0  0  0
  161.5630  211.4250  150.0940 N   0  0  0  0  0  0  0  0  0  0  0  0
  162.5890  211.0770  151.0820 C   0  0  0  0  0  2  0  0  0  0  0  0
  160.7430  206.9500  153.7570 C   0  0  0  0  0  0  0  0  0  0  0  0
  160.4760  210.3170  152.6900 N   0  0  2  0  0  0  0  0  0  0  0  0
  160.1620  209.8920  156.9510 C   0  0  0  0  0  2  0  0  0  0  0  0
  161.6870  207.3070  150.7590 C   0  0  1  0  0  3  0  0  0  0  0  0
  159.4320  212.2450  157.2600 C   0  0  0  0  0  1  0  0  0  0  0  0
  160.1320  211.2550  150.3900 C   0  0  0  0  0  2  0  0  0  0  0  0
  163.1850  211.7720  148.4460 O   0  0  0  0  0  0  0  0  0  0  0  0
  159.7820  211.3270  151.8830 C   0  0  0  0  0  2  0  0  0  0  0  0
  160.6020  206.3640  151.2950 C   0  0  0  0  0  2  0  0  0  0  0  0
  161.5170  208.3710  148.4410 C   0  0  0  0  0  3  0  0  0  0  0  0
  161.7980  207.1860  149.2730 C   0  0  0  0  0  0  0  0  0  0  0  0
  162.0900  206.0370  148.7300 N   0  0  0  0  0  0  0  0  0  0  0  0
  162.2790  204.3860  146.9580 C   0  0  0  0  0  1  0  0  0  0  0  0
  160.8260  206.6380  146.4310 S   0  0  0  0  0  0  0  0  0  0  0  0
  162.2330  205.8630  147.2860 C   0  0  1  0  0  3  0  0  0  0  0  0
  161.1640  208.2490  147.1610 C   0  0  0  0  0  3  0  0  0  0  0  0
  162.1690  213.1820  146.1470 C   0  0  0  0  0  1  0  0  0  0  0  0
  161.3200  211.9310  146.2980 C   0  0  2  0  0  3  0  0  0  0  0  0
  158.8900  212.6360  146.1920 C   0  0  0  0  0  1  0  0  0  0  0  0
  160.0590  212.0130  145.4420 C   0  0  0  0  0  2  0  0  0  0  0  0
  1 12  1  0  0  0  0
  1 20  1  0  0  0  0
  1 22  1  0  0  0  0
  2 18  2  0  0  0  0
  2  7  1  0  0  0  0
  4  9  1  0  0  0  0
  4 20  1  0  0  0  0
  5 19  1  0  0  0  0
  5  2  1  0  0  0  0
  6 16  1  0  0  0  0
  7  4  2  0  0  0  0
  8  3  1  1  0  0  0
  8  5  1  0  0  0  0
 10  6  1  0  0  0  0
 11  7  1  0  0  0  0
 11 15  1  1  0  0  0
 13 18  1  0  0  0  0
 14  9  2  0  0  0  0
 15  1  1  0  0  0  0
 16 23  1  0  0  0  0
 16 17  1  0  0  0  0
 17  3  1  0  0  0  0
 18 14  1  0  0  0  0
 19 25  1  1  0  0  0
 19 11  1  0  0  0  0
 21 28  1  6  0  0  0
 21  8  1  0  0  0  0
 21 26  1  0  0  0  0
 23 25  1  0  0  0  0
 24  6  2  0  0  0  0
 26 13  1  0  0  0  0
 27 28  1  0  0  0  0
 29 28  2  0  0  0  0
 31 33  1  0  0  0  0
 31 32  1  0  0  0  0
 32 30  1  1  0  0  0
 32 29  1  0  0  0  0
 33 27  2  0  0  0  0
 35 34  1  1  0  0  0
 35 10  1  0  0  0  0
 37 36  1  0  0  0  0
 37 35  1  0  0  0  0
M  END
>  <MODEL>
2

>  <REMARK>
 VINA RESULT:      -2.5      3.207      6.184
  Name = 
  3 active torsions:
  status: ('A' for Active; 'I' for Inactive)
    1  A    between atoms: C_4  and  N_12
    2  A    between atoms: C_4  and  C_37
    3  A    between atoms: C_23  and  C_30
                            x       y       z     vdW  Elec       q    Type
                         _______ _______ _______ _____ _____    ______ ____

>  <TORSDO>
F 3

$$$$
=
 OpenBabel11122413483D

 37 42  0  0  1  0  0  0  0  0999 V2000
  161.1780  201.4670  148.0020 C   0  0  0  0  0  0  0  0  0  0  0  0
  161.9530  205.6890  148.3480 C   0  0  0  0  0  0  0  0  0  0  0  0
  162.9120  206.3800  151.1480 C   0  0  0  0  0  2  0  0  0  0  0  0
  161.6150  203.6570  146.7750 C   0  0  0  0  0  0  0  0  0  0  0  0
  161.0480  206.0060  149.4600 N   0  0  0  0  0  0  0  0  0  0  0  0
  161.4320  206.4470  154.1070 C   0  0  0  0  0  0  0  0  0  0  0  0
  161.7380  204.2430  148.1080 C   0  0  0  0  0  0  0  0  0  0  0  0
  161.7030  206.9500  150.3830 C   0  0  2  0  0  3  0  0  0  0  0  0
  161.5200  204.4850  145.7310 C   0  0  0  0  0  3  0  0  0  0  0  0
  160.2840  207.0730  154.6920 N   0  0  0  0  0  2  0  0  0  0  0  0
  161.1660  203.7110  149.1560 C   0  0  2  0  0  3  0  0  0  0  0  0
  162.5630  201.0300  148.4480 C   0  0  0  0  0  1  0  0  0  0  0  0
  161.8070  208.0230  147.2160 C   0  0  0  0  0  2  0  0  0  0  0  0
  161.5590  205.9600  145.9140 C   0  0  0  0  0  3  0  0  0  0  0  0
  160.5290  202.3470  149.0950 C   0  0  0  0  0  2  0  0  0  0  0  0
  161.2990  205.6900  152.8950 N   0  0  0  0  0  0  0  0  0  0  0  0
  162.5130  205.3080  152.1670 C   0  0  0  0  0  2  0  0  0  0  0  0
  161.6740  206.5320  147.1270 C   0  0  0  0  0  0  0  0  0  0  0  0
  160.8130  204.7460  150.0630 N   0  0  2  0  0  0  0  0  0  0  0  0
  161.2830  202.1950  146.6400 C   0  0  0  0  0  2  0  0  0  0  0  0
  162.0440  208.3000  149.7250 C   0  0  1  0  0  3  0  0  0  0  0  0
  160.3300  200.2270  147.8170 C   0  0  0  0  0  1  0  0  0  0  0  0
  159.9710  205.5860  152.2700 C   0  0  0  0  0  2  0  0  0  0  0  0
  162.5620  206.5740  154.6530 O   0  0  0  0  0  0  0  0  0  0  0  0
  159.8740  204.5230  151.1660 C   0  0  0  0  0  2  0  0  0  0  0  0
  161.1910  208.6140  148.4890 C   0  0  0  0  0  2  0  0  0  0  0  0
  162.2820  209.1010  152.1400 C   0  0  0  0  0  3  0  0  0  0  0  0
  161.9150  209.3880  150.7410 C   0  0  0  0  0  0  0  0  0  0  0  0
  161.4390  210.5520  150.3960 N   0  0  0  0  0  0  0  0  0  0  0  0
  160.4660  212.7550  150.7200 C   0  0  0  0  0  1  0  0  0  0  0  0
  160.5240  211.0740  152.8730 S   0  0  0  0  0  0  0  0  0  0  0  0
  161.3100  211.6600  151.3390 C   0  0  1  0  0  3  0  0  0  0  0  0
  161.7950  209.8290  153.1460 C   0  0  0  0  0  3  0  0  0  0  0  0
  160.0360  206.9880  157.1250 C   0  0  0  0  0  1  0  0  0  0  0  0
  160.3540  207.8560  155.9180 C   0  0  2  0  0  3  0  0  0  0  0  0
  159.9470  210.2550  156.6180 C   0  0  0  0  0  1  0  0  0  0  0  0
  159.4170  209.0590  155.8420 C   0  0  0  0  0  2  0  0  0  0  0  0
  1 12  1  0  0  0  0
  1 15  1  0  0  0  0
  2  5  1  0  0  0  0
  3 17  1  0  0  0  0
  4  7  2  0  0  0  0
  5 19  1  0  0  0  0
  5  8  1  0  0  0  0
  6 24  2  0  0  0  0
  6 10  1  0  0  0  0
  7  2  1  0  0  0  0
  7 11  1  0  0  0  0
  8  3  1  6  0  0  0
  9 14  2  0  0  0  0
  9  4  1  0  0  0  0
 10 35  1  0  0  0  0
 11 15  1  6  0  0  0
 11 19  1  0  0  0  0
 13 26  1  0  0  0  0
 14 18  1  0  0  0  0
 16  6  1  0  0  0  0
 17 16  1  0  0  0  0
 18 13  1  0  0  0  0
 18  2  2  0  0  0  0
 19 25  1  6  0  0  0
 20  4  1  0  0  0  0
 20  1  1  0  0  0  0
 21  8  1  0  0  0  0
 21 28  1  1  0  0  0
 22  1  1  0  0  0  0
 23 16  1  0  0  0  0
 25 23  1  0  0  0  0
 26 21  1  0  0  0  0
 27 33  2  0  0  0  0
 28 27  1  0  0  0  0
 29 28  2  0  0  0  0
 29 32  1  0  0  0  0
 31 33  1  0  0  0  0
 32 30  1  6  0  0  0
 32 31  1  0  0  0  0
 35 34  1  1  0  0  0
 37 35  1  0  0  0  0
 37 36  1  0  0  0  0
M  END
>  <MODEL>
3

>  <REMARK>
 VINA RESULT:      -1.8      2.661      7.619
  Name = 
  3 active torsions:
  status: ('A' for Active; 'I' for Inactive)
    1  A    between atoms: C_4  and  N_12
    2  A    between atoms: C_4  and  C_37
    3  A    between atoms: C_23  and  C_30
                            x       y       z     vdW  Elec       q    Type
                         _______ _______ _______ _____ _____    ______ ____

>  <TORSDO>
F 3

$$$$
