=
 OpenBabel11122414223D

 34 42  0  0  1  0  0  0  0  0999 V2000
  160.9420  207.8390  154.1250 C   0  0  0  0  0  0  0  0  0  0  0  0
  162.3170  206.1460  152.8180 C   0  0  0  0  0  2  0  0  0  0  0  0
  159.8690  213.2090  156.0240 C   0  0  2  0  0  0  0  0  0  0  0  0
  159.2810  209.3590  155.0130 C   0  0  0  0  0  0  0  0  0  0  0  0
  159.1170  211.7150  154.1270 N   0  0  1  0  0  0  0  0  0  0  0  0
  160.5930  211.8790  156.2080 C   0  0  2  0  0  3  0  0  0  0  0  0
  160.8900  213.0440  157.1300 C   0  0  0  0  0  2  0  0  0  0  0  0
  157.9300  211.7680  157.0170 C   0  0  0  0  0  2  0  0  0  0  0  0
  162.2880  208.4470  152.0650 C   0  0  2  0  0  3  0  0  0  0  0  0
  161.6240  208.6810  148.9520 C   0  0  0  0  0  2  0  0  0  0  0  0
  159.6100  211.1910  152.8450 C   0  0  0  0  0  2  0  0  0  0  0  0
  157.3840  210.9680  155.8520 C   0  0  0  0  0  2  0  0  0  0  0  0
  161.1680  209.4600  151.7490 C   0  0  1  0  0  3  0  0  0  0  0  0
  163.0580  206.2050  151.4890 C   0  0  0  0  0  2  0  0  0  0  0  0
  158.4450  210.5930  154.8150 C   0  0  2  0  0  3  0  0  0  0  0  0
  158.4130  213.1360  156.5360 C   0  0  0  0  0  2  0  0  0  0  0  0
  161.7820  207.4570  149.7610 N   0  0  0  0  0  0  0  0  0  0  0  0
  160.2820  209.0760  154.0720 C   0  0  0  0  0  0  0  0  0  0  0  0
  160.2630  212.3740  154.8060 C   0  0  2  0  0  3  0  0  0  0  0  0
  160.7010  210.1150  153.0540 C   0  0  2  0  0  3  0  0  0  0  0  0
  159.6070  207.2460  156.0490 C   0  0  0  0  0  3  0  0  0  0  0  0
  162.3270  209.9280  149.5050 C   0  0  0  0  0  2  0  0  0  0  0  0
  158.9600  208.4410  155.9650 N   0  0  0  0  0  0  0  0  0  0  0  0
  161.6240  210.5120  150.7330 C   0  0  0  0  0  2  0  0  0  0  0  0
  162.7470  207.5730  150.8840 C   0  0  1  0  0  3  0  0  0  0  0  0
  160.6010  206.9200  155.1240 C   0  0  0  0  0  3  0  0  0  0  0  0
  161.8950  207.5060  153.1030 N   0  0  0  0  0  0  0  0  0  0  0  0
  160.4560  207.0240  150.1970 C   0  0  0  0  0  2  0  0  0  0  0  0
  160.2570  205.5520  149.8890 C   0  0  0  0  0  2  0  0  0  0  0  0
  161.2050  205.3010  146.4770 N   0  0  0  0  0  0  0  0  0  0  0  0
  161.6410  204.2080  148.2940 N   0  0  0  0  0  0  0  0  0  0  0  0
  160.8270  205.2460  148.5500 C   0  0  0  0  0  0  0  0  0  0  0  0
  161.8600  204.2730  146.9920 N   0  0  0  0  0  0  0  0  0  0  0  0
  160.5390  205.9310  147.4310 N   0  0  0  0  0  2  0  0  0  0  0  0
  1 26  1  0  0  0  0
  2 27  1  0  0  0  0
  3  6  1  0  0  0  0
  3 16  1  1  0  0  0
  3  7  1  0  0  0  0
  4 23  2  0  0  0  0
  5 11  1  6  0  0  0
  5 19  1  0  0  0  0
  5 15  1  0  0  0  0
  6  7  1  6  0  0  0
  9 27  1  1  0  0  0
 10 22  1  0  0  0  0
 10 17  1  0  0  0  0
 11 20  1  0  0  0  0
 12  8  1  0  0  0  0
 13 24  1  6  0  0  0
 13  9  1  0  0  0  0
 13 20  1  0  0  0  0
 14  2  1  0  0  0  0
 15  4  1  0  0  0  0
 15 12  1  1  0  0  0
 16  8  1  0  0  0  0
 17 28  1  0  0  0  0
 17 25  1  0  0  0  0
 18  1  2  0  0  0  0
 18  4  1  0  0  0  0
 19  3  1  0  0  0  0
 19  6  1  0  0  0  0
 20 18  1  0  0  0  0
 22 24  1  0  0  0  0
 23 21  1  0  0  0  0
 25 14  1  0  0  0  0
 25  9  1  0  0  0  0
 26 21  2  0  0  0  0
 27  1  1  0  0  0  0
 29 28  1  0  0  0  0
 30 33  2  0  0  0  0
 30 34  1  0  0  0  0
 31 32  2  0  0  0  0
 32 29  1  0  0  0  0
 33 31  1  0  0  0  0
 34 32  1  0  0  0  0
M  END
>  <MODEL>
1

>  <REMARK>
 VINA RESULT:      -5.5      0.000      0.000
  Name = 
  3 active torsions:
  status: ('A' for Active; 'I' for Inactive)
    1  A    between atoms: N_17  and  C_28
    2  A    between atoms: C_28  and  C_29
    3  A    between atoms: C_29  and  C_32
                            x       y       z     vdW  Elec       q    Type
                         _______ _______ _______ _____ _____    ______ ____

>  <TORSDO>
F 3

$$$$
=
 OpenBabel11122414223D

 34 42  0  0  1  0  0  0  0  0999 V2000
  161.0430  211.3380  151.3420 C   0  0  0  0  0  0  0  0  0  0  0  0
  160.7840  213.2200  149.6510 C   0  0  0  0  0  2  0  0  0  0  0  0
  161.2070  209.2980  156.7650 C   0  0  2  0  0  0  0  0  0  0  0  0
  160.8470  209.3850  152.7570 C   0  0  0  0  0  0  0  0  0  0  0  0
  159.5140  209.4980  154.8960 N   0  0  1  0  0  0  0  0  0  0  0  0
  161.9360  209.9390  155.5880 C   0  0  2  0  0  3  0  0  0  0  0  0
  162.6420  209.7580  156.9160 C   0  0  0  0  0  2  0  0  0  0  0  0
  161.5910  207.1940  155.2650 C   0  0  0  0  0  2  0  0  0  0  0  0
  159.6360  213.4020  151.7750 C   0  0  2  0  0  3  0  0  0  0  0  0
  156.5460  214.1150  151.4100 C   0  0  0  0  0  2  0  0  0  0  0  0
  158.6800  210.5150  154.2380 C   0  0  0  0  0  2  0  0  0  0  0  0
  160.4940  207.2360  154.2220 C   0  0  0  0  0  2  0  0  0  0  0  0
  158.6920  212.4740  152.5680 C   0  0  1  0  0  3  0  0  0  0  0  0
  159.8910  214.4520  149.5890 C   0  0  0  0  0  2  0  0  0  0  0  0
  160.0800  208.6540  153.8240 C   0  0  2  0  0  3  0  0  0  0  0  0
  161.0830  207.7690  156.5870 C   0  0  0  0  0  2  0  0  0  0  0  0
  157.5780  213.9740  150.3650 N   0  0  0  0  0  0  0  0  0  0  0  0
  160.4760  210.7050  152.4570 C   0  0  0  0  0  0  0  0  0  0  0  0
  160.4530  210.2140  155.8000 C   0  0  2  0  0  3  0  0  0  0  0  0
  159.5300  211.4650  153.3620 C   0  0  2  0  0  3  0  0  0  0  0  0
  162.3300  209.3420  150.9030 C   0  0  0  0  0  3  0  0  0  0  0  0
  157.0720  214.4530  152.8110 C   0  0  0  0  0  2  0  0  0  0  0  0
  161.7500  208.7350  151.9730 N   0  0  0  0  0  0  0  0  0  0  0  0
  157.7600  213.2670  153.4920 C   0  0  0  0  0  2  0  0  0  0  0  0
  158.9480  214.3610  150.7870 C   0  0  1  0  0  3  0  0  0  0  0  0
  161.9790  210.6500  150.5610 C   0  0  0  0  0  3  0  0  0  0  0  0
  160.5900  212.6510  150.9730 N   0  0  0  0  0  0  0  0  0  0  0  0
  157.5130  212.6110  149.8410 C   0  0  0  0  0  2  0  0  0  0  0  0
  156.7150  212.5820  148.5510 C   0  0  0  0  0  2  0  0  0  0  0  0
  158.3200  214.3720  145.9380 N   0  0  0  0  0  0  0  0  0  0  0  0
  158.4710  212.3820  146.7780 N   0  0  0  0  0  0  0  0  0  0  0  0
  157.5540  213.1070  147.4400 C   0  0  0  0  0  0  0  0  0  0  0  0
  158.9340  213.2020  145.8500 N   0  0  0  0  0  0  0  0  0  0  0  0
  157.4410  214.3430  146.9260 N   0  0  0  0  0  2  0  0  0  0  0  0
  1 18  1  0  0  0  0
  2 27  1  0  0  0  0
  3 16  1  6  0  0  0
  3  7  1  0  0  0  0
  4 15  1  0  0  0  0
  5 11  1  6  0  0  0
  5 19  1  0  0  0  0
  6 19  1  0  0  0  0
  6  3  1  0  0  0  0
  6  7  1  1  0  0  0
  8 16  1  0  0  0  0
  9 27  1  6  0  0  0
  9 13  1  0  0  0  0
 10 22  1  0  0  0  0
 12  8  1  0  0  0  0
 13 20  1  0  0  0  0
 13 24  1  1  0  0  0
 14  2  1  0  0  0  0
 14 25  1  0  0  0  0
 15 12  1  1  0  0  0
 15  5  1  0  0  0  0
 17 25  1  0  0  0  0
 17 10  1  0  0  0  0
 18  4  2  0  0  0  0
 18 20  1  0  0  0  0
 19  3  1  0  0  0  0
 20 11  1  0  0  0  0
 21 23  2  0  0  0  0
 22 24  1  0  0  0  0
 23  4  1  0  0  0  0
 25  9  1  0  0  0  0
 26 21  1  0  0  0  0
 26  1  2  0  0  0  0
 27  1  1  0  0  0  0
 28 17  1  0  0  0  0
 29 28  1  0  0  0  0
 30 34  1  0  0  0  0
 31 32  2  0  0  0  0
 32 29  1  0  0  0  0
 33 30  2  0  0  0  0
 33 31  1  0  0  0  0
 34 32  1  0  0  0  0
M  END
>  <MODEL>
2

>  <REMARK>
 VINA RESULT:      -4.3      3.785      6.202
  Name = 
  3 active torsions:
  status: ('A' for Active; 'I' for Inactive)
    1  A    between atoms: N_17  and  C_28
    2  A    between atoms: C_28  and  C_29
    3  A    between atoms: C_29  and  C_32
                            x       y       z     vdW  Elec       q    Type
                         _______ _______ _______ _____ _____    ______ ____

>  <TORSDO>
F 3

$$$$
=
 OpenBabel11122414223D

 34 42  0  0  1  0  0  0  0  0999 V2000
  162.0780  209.0390  150.1800 C   0  0  0  0  0  0  0  0  0  0  0  0
  162.5730  210.3900  152.2760 C   0  0  0  0  0  2  0  0  0  0  0  0
  162.2570  204.1580  147.0590 C   0  0  2  0  0  0  0  0  0  0  0  0
  161.1240  207.8030  148.3310 C   0  0  0  0  0  0  0  0  0  0  0  0
  160.6180  205.3440  148.5760 N   0  0  1  0  0  0  0  0  0  0  0  0
  162.9350  205.4510  147.5000 C   0  0  2  0  0  3  0  0  0  0  0  0
  163.6850  204.4480  146.6490 C   0  0  0  0  0  2  0  0  0  0  0  0
  161.0180  205.8680  145.5220 C   0  0  0  0  0  2  0  0  0  0  0  0
  162.2490  208.0000  152.4850 C   0  0  2  0  0  3  0  0  0  0  0  0
  160.1390  207.2710  154.7680 C   0  0  0  0  0  2  0  0  0  0  0  0
  160.3950  205.6060  150.0060 C   0  0  0  0  0  2  0  0  0  0  0  0
  159.9430  206.4860  146.3920 C   0  0  0  0  0  2  0  0  0  0  0  0
  161.1510  207.0200  152.0190 C   0  0  1  0  0  3  0  0  0  0  0  0
  162.5610  210.0540  153.7620 C   0  0  0  0  0  2  0  0  0  0  0  0
  160.3400  206.6080  147.8640 C   0  0  2  0  0  3  0  0  0  0  0  0
  161.2440  204.4100  145.9210 C   0  0  0  0  0  2  0  0  0  0  0  0
  160.6380  208.6050  154.3790 N   0  0  0  0  0  0  0  0  0  0  0  0
  161.5190  207.8560  149.6760 C   0  0  0  0  0  0  0  0  0  0  0  0
  161.9700  204.7420  148.4420 C   0  0  2  0  0  3  0  0  0  0  0  0
  161.4120  206.6310  150.5600 C   0  0  2  0  0  3  0  0  0  0  0  0
  161.8510  210.0390  147.9930 C   0  0  0  0  0  3  0  0  0  0  0  0
  161.0630  206.0970  154.4150 C   0  0  0  0  0  2  0  0  0  0  0  0
  161.2860  208.8910  147.5290 N   0  0  0  0  0  0  0  0  0  0  0  0
  161.0790  205.7800  152.9180 C   0  0  0  0  0  2  0  0  0  0  0  0
  162.0350  208.6250  153.8750 C   0  0  1  0  0  3  0  0  0  0  0  0
  162.2470  210.1370  149.3280 C   0  0  0  0  0  3  0  0  0  0  0  0
  162.3900  209.1290  151.5790 N   0  0  0  0  0  0  0  0  0  0  0  0
  159.6880  209.1890  153.4340 C   0  0  0  0  0  2  0  0  0  0  0  0
  158.9340  210.3320  154.0870 C   0  0  0  0  0  2  0  0  0  0  0  0
  159.2790  212.8140  151.5720 N   0  0  0  0  0  0  0  0  0  0  0  0
  157.9060  212.4360  153.2030 N   0  0  0  0  0  0  0  0  0  0  0  0
  158.8340  211.4670  153.1310 C   0  0  0  0  0  0  0  0  0  0  0  0
  158.2100  213.2600  152.2140 N   0  0  0  0  0  0  0  0  0  0  0  0
  159.7000  211.6900  152.1280 N   0  0  0  0  0  2  0  0  0  0  0  0
  1 27  1  0  0  0  0
  2 14  1  0  0  0  0
  3 16  1  6  0  0  0
  3  6  1  0  0  0  0
  3 19  1  0  0  0  0
  4 18  2  0  0  0  0
  5 11  1  1  0  0  0
  6  7  1  1  0  0  0
  6 19  1  0  0  0  0
  7  3  1  0  0  0  0
  8 16  1  0  0  0  0
  8 12  1  0  0  0  0
  9 27  1  6  0  0  0
  9 25  1  0  0  0  0
 11 20  1  0  0  0  0
 13  9  1  0  0  0  0
 13 24  1  1  0  0  0
 14 25  1  0  0  0  0
 15 12  1  6  0  0  0
 15  4  1  0  0  0  0
 15  5  1  0  0  0  0
 17 10  1  0  0  0  0
 18  1  1  0  0  0  0
 18 20  1  0  0  0  0
 19  5  1  0  0  0  0
 20 13  1  0  0  0  0
 21 26  1  0  0  0  0
 22 10  1  0  0  0  0
 23 21  2  0  0  0  0
 23  4  1  0  0  0  0
 24 22  1  0  0  0  0
 25 17  1  0  0  0  0
 26  1  2  0  0  0  0
 27  2  1  0  0  0  0
 28 29  1  0  0  0  0
 28 17  1  0  0  0  0
 30 34  1  0  0  0  0
 30 33  2  0  0  0  0
 32 31  2  0  0  0  0
 32 29  1  0  0  0  0
 33 31  1  0  0  0  0
 34 32  1  0  0  0  0
M  END
>  <MODEL>
3

>  <REMARK>
 VINA RESULT:      -3.1      2.040      8.130
  Name = 
  3 active torsions:
  status: ('A' for Active; 'I' for Inactive)
    1  A    between atoms: N_17  and  C_28
    2  A    between atoms: C_28  and  C_29
    3  A    between atoms: C_29  and  C_32
                            x       y       z     vdW  Elec       q    Type
                         _______ _______ _______ _____ _____    ______ ____

>  <TORSDO>
F 3

$$$$
=
 OpenBabel11122414223D

 34 42  0  0  1  0  0  0  0  0999 V2000
  162.0670  209.0390  150.1460 C   0  0  0  0  0  0  0  0  0  0  0  0
  162.5510  210.4090  152.2330 C   0  0  0  0  0  2  0  0  0  0  0  0
  162.2770  204.1360  147.0640 C   0  0  2  0  0  0  0  0  0  0  0  0
  161.1220  207.7850  148.3050 C   0  0  0  0  0  0  0  0  0  0  0  0
  160.6290  205.3250  148.5680 N   0  0  1  0  0  0  0  0  0  0  0  0
  162.9470  205.4360  147.4960 C   0  0  2  0  0  3  0  0  0  0  0  0
  163.7050  204.4300  146.6540 C   0  0  0  0  0  2  0  0  0  0  0  0
  161.0320  205.8270  145.5110 C   0  0  0  0  0  2  0  0  0  0  0  0
  162.2380  208.0190  152.4600 C   0  0  2  0  0  3  0  0  0  0  0  0
  160.1280  207.2970  154.7440 C   0  0  0  0  0  2  0  0  0  0  0  0
  160.4020  205.5970  149.9960 C   0  0  0  0  0  2  0  0  0  0  0  0
  159.9520  206.4470  146.3740 C   0  0  0  0  0  2  0  0  0  0  0  0
  161.1470  207.0300  152.0000 C   0  0  1  0  0  3  0  0  0  0  0  0
  162.5370  210.0850  153.7220 C   0  0  0  0  0  2  0  0  0  0  0  0
  160.3450  206.5820  147.8460 C   0  0  2  0  0  3  0  0  0  0  0  0
  161.2650  204.3740  145.9220 C   0  0  0  0  0  2  0  0  0  0  0  0
  160.6200  208.6310  154.3460 N   0  0  0  0  0  0  0  0  0  0  0  0
  161.5150  207.8500  149.6510 C   0  0  0  0  0  0  0  0  0  0  0  0
  161.9850  204.7290  148.4420 C   0  0  2  0  0  3  0  0  0  0  0  0
  161.4120  206.6320  150.5440 C   0  0  2  0  0  3  0  0  0  0  0  0
  161.8400  210.0220  147.9510 C   0  0  0  0  0  3  0  0  0  0  0  0
  161.0580  206.1250  154.4020 C   0  0  0  0  0  2  0  0  0  0  0  0
  161.2810  208.8680  147.4950 N   0  0  0  0  0  0  0  0  0  0  0  0
  161.0780  205.7970  152.9080 C   0  0  0  0  0  2  0  0  0  0  0  0
  162.0180  208.6540  153.8450 C   0  0  1  0  0  3  0  0  0  0  0  0
  162.2320  210.1320  149.2870 C   0  0  0  0  0  3  0  0  0  0  0  0
  162.3760  209.1420  151.5460 N   0  0  0  0  0  0  0  0  0  0  0  0
  159.6690  209.2030  153.3950 C   0  0  0  0  0  2  0  0  0  0  0  0
  159.5840  210.7060  153.5780 C   0  0  0  0  0  2  0  0  0  0  0  0
  156.7580  211.6320  155.5170 N   0  0  0  0  0  0  0  0  0  0  0  0
  158.7950  211.0250  155.9320 N   0  0  0  0  0  0  0  0  0  0  0  0
  158.5590  211.0200  154.6090 C   0  0  0  0  0  0  0  0  0  0  0  0
  157.6490  211.4070  156.4700 N   0  0  0  0  0  0  0  0  0  0  0  0
  157.3010  211.4040  154.3330 N   0  0  0  0  0  2  0  0  0  0  0  0
  1 27  1  0  0  0  0
  2 14  1  0  0  0  0
  3 16  1  6  0  0  0
  3  6  1  0  0  0  0
  3 19  1  0  0  0  0
  4 18  2  0  0  0  0
  5 11  1  1  0  0  0
  6  7  1  1  0  0  0
  6 19  1  0  0  0  0
  7  3  1  0  0  0  0
  8 16  1  0  0  0  0
  8 12  1  0  0  0  0
  9 27  1  6  0  0  0
  9 25  1  0  0  0  0
 11 20  1  0  0  0  0
 13  9  1  0  0  0  0
 13 24  1  1  0  0  0
 14 25  1  0  0  0  0
 15 12  1  6  0  0  0
 15  4  1  0  0  0  0
 15  5  1  0  0  0  0
 17 10  1  0  0  0  0
 18  1  1  0  0  0  0
 18 20  1  0  0  0  0
 19  5  1  0  0  0  0
 20 13  1  0  0  0  0
 21 26  1  0  0  0  0
 22 10  1  0  0  0  0
 23 21  2  0  0  0  0
 23  4  1  0  0  0  0
 24 22  1  0  0  0  0
 25 17  1  0  0  0  0
 26  1  2  0  0  0  0
 27  2  1  0  0  0  0
 28 29  1  0  0  0  0
 28 17  1  0  0  0  0
 29 32  1  0  0  0  0
 30 33  2  0  0  0  0
 31 33  1  0  0  0  0
 32 31  2  0  0  0  0
 34 32  1  0  0  0  0
 34 30  1  0  0  0  0
M  END
>  <MODEL>
4

>  <REMARK>
 VINA RESULT:      -2.9      1.870      8.393
  Name = 
  3 active torsions:
  status: ('A' for Active; 'I' for Inactive)
    1  A    between atoms: N_17  and  C_28
    2  A    between atoms: C_28  and  C_29
    3  A    between atoms: C_29  and  C_32
                            x       y       z     vdW  Elec       q    Type
                         _______ _______ _______ _____ _____    ______ ____

>  <TORSDO>
F 3

$$$$
