=
 OpenBabel11122413503D

 37 42  0  0  1  0  0  0  0  0999 V2000
  161.4840  206.5320  148.5660 C   0  0  0  0  0  0  0  0  0  0  0  0
  161.3330  207.5260  152.5930 C   0  0  0  0  0  0  0  0  0  0  0  0
  159.8770  210.4450  153.5240 C   0  0  0  0  0  2  0  0  0  0  0  0
  161.3120  205.7430  150.9710 C   0  0  0  0  0  0  0  0  0  0  0  0
  161.6160  208.8810  152.5640 C   0  0  0  0  0  0  0  0  0  0  0  0
  161.5590  207.0520  151.3380 C   0  0  0  0  0  0  0  0  0  0  0  0
  161.2950  209.8880  153.6390 C   0  0  2  0  0  3  0  0  0  0  0  0
  160.8450  204.8620  151.9620 C   0  0  0  0  0  3  0  0  0  0  0  0
  161.9270  208.0210  150.5010 N   0  0  0  0  0  0  0  0  0  0  0  0
  160.0220  206.8610  148.3180 C   0  0  0  0  0  1  0  0  0  0  0  0
  160.5980  207.2100  154.9820 C   0  0  0  0  0  2  0  0  0  0  0  0
  160.6140  205.3390  153.2790 C   0  0  0  0  0  3  0  0  0  0  0  0
  162.2110  207.7990  149.0830 C   0  0  0  0  0  2  0  0  0  0  0  0
  160.4140  212.0470  151.5990 C   0  0  1  0  0  3  0  0  0  0  0  0
  159.5360  210.8960  152.1010 C   0  0  0  0  0  2  0  0  0  0  0  0
  160.8550  206.6920  153.6050 C   0  0  0  0  0  0  0  0  0  0  0  0
  161.9580  209.1660  151.2260 C   0  0  0  0  0  0  0  0  0  0  0  0
  161.5870  205.3370  149.5490 C   0  0  0  0  0  2  0  0  0  0  0  0
  161.6520  209.5240  155.0940 C   0  0  1  0  0  3  0  0  0  0  0  0
  162.1080  206.1260  147.2470 C   0  0  0  0  0  1  0  0  0  0  0  0
  161.9130  211.7150  151.4960 C   0  0  0  0  0  2  0  0  0  0  0  0
  162.2400  210.5120  150.6060 C   0  0  0  0  0  2  0  0  0  0  0  0
  161.7870  208.0380  155.4510 C   0  0  0  0  0  2  0  0  0  0  0  0
  162.9460  210.7310  156.7820 C   0  0  0  0  0  3  0  0  0  0  0  0
  162.8680  210.2750  155.5270 C   0  0  0  0  0  0  0  0  0  0  0  0
  163.9580  210.5620  154.5670 C   0  0  0  0  0  3  0  0  0  0  0  0
  165.9030  211.7000  153.9840 F   0  0  0  0  0  0  0  0  0  0  0  0
  164.8120  212.2650  156.1320 C   0  0  0  0  0  2  0  0  0  0  0  0
  164.9050  211.4560  154.8670 C   0  0  0  0  0  0  0  0  0  0  0  0
  164.1840  211.4390  157.2610 C   0  0  0  0  0  2  0  0  0  0  0  0
  159.8920  212.5970  150.3120 C   0  0  0  0  0  0  0  0  0  0  0  0
  160.8010  212.8360  149.2370 N   0  0  0  0  0  2  0  0  0  0  0  0
  158.6610  212.8340  150.1720 O   0  0  0  0  0  0  0  0  0  0  0  0
  160.1730  212.1770  146.9630 C   0  0  0  0  0  1  0  0  0  0  0  0
  160.3700  213.3300  147.9350 C   0  0  2  0  0  3  0  0  0  0  0  0
  162.0250  213.8560  145.7540 S   0  0  0  0  0  1  0  0  0  0  0  0
  161.3720  214.3410  147.3870 C   0  0  0  0  0  2  0  0  0  0  0  0
  1 13  1  0  0  0  0
  1 18  1  0  0  0  0
  2 16  1  0  0  0  0
  4  6  1  0  0  0  0
  4  8  2  0  0  0  0
  5  2  1  0  0  0  0
  5  7  1  0  0  0  0
  6  2  2  0  0  0  0
  7  3  1  1  0  0  0
  7 19  1  0  0  0  0
  8 12  1  0  0  0  0
  9 17  1  0  0  0  0
  9  6  1  0  0  0  0
 10  1  1  0  0  0  0
 11 23  1  0  0  0  0
 12 16  2  0  0  0  0
 13  9  1  0  0  0  0
 14 31  1  6  0  0  0
 14 15  1  0  0  0  0
 15  3  1  0  0  0  0
 16 11  1  0  0  0  0
 17  5  2  0  0  0  0
 18  4  1  0  0  0  0
 19 23  1  0  0  0  0
 19 25  1  6  0  0  0
 20  1  1  0  0  0  0
 21 14  1  0  0  0  0
 22 17  1  0  0  0  0
 22 21  1  0  0  0  0
 24 30  1  0  0  0  0
 25 24  2  0  0  0  0
 26 29  2  0  0  0  0
 26 25  1  0  0  0  0
 27 29  1  0  0  0  0
 28 30  1  0  0  0  0
 29 28  1  0  0  0  0
 32 31  1  0  0  0  0
 33 31  2  0  0  0  0
 35 34  1  6  0  0  0
 35 32  1  0  0  0  0
 36 37  1  0  0  0  0
 37 35  1  0  0  0  0
M  END
>  <MODEL>
1

>  <REMARK>
 VINA RESULT:      -1.5      0.000      0.000
  Name = 
  4 active torsions:
  status: ('A' for Active; 'I' for Inactive)
    1  A    between atoms: C_4  and  N_12
    2  A    between atoms: C_4  and  C_37
    3  A    between atoms: C_8  and  C_18
    4  A    between atoms: C_23  and  C_30
                            x       y       z     vdW  Elec       q    Type
                         _______ _______ _______ _____ _____    ______ ____

>  <TORSDO>
F 4

$$$$
=
 OpenBabel11122413503D

 37 42  0  0  1  0  0  0  0  0999 V2000
  157.4710  213.2620  154.6420 C   0  0  0  0  0  0  0  0  0  0  0  0
  160.0000  209.9760  154.8260 C   0  0  0  0  0  0  0  0  0  0  0  0
  162.6330  209.7910  152.6950 C   0  0  0  0  0  2  0  0  0  0  0  0
  158.5660  211.4680  156.0620 C   0  0  0  0  0  0  0  0  0  0  0  0
  160.2330  209.7180  153.4850 C   0  0  0  0  0  0  0  0  0  0  0  0
  159.0150  210.9120  154.8790 C   0  0  0  0  0  0  0  0  0  0  0  0
  161.3850  208.9350  152.9090 C   0  0  2  0  0  3  0  0  0  0  0  0
  159.1370  211.0040  157.2610 C   0  0  0  0  0  3  0  0  0  0  0  0
  158.6320  211.2990  153.6630 N   0  0  0  0  0  0  0  0  0  0  0  0
  158.6060  214.2710  154.6160 C   0  0  0  0  0  1  0  0  0  0  0  0
  161.6930  208.4750  155.9340 C   0  0  0  0  0  2  0  0  0  0  0  0
  160.1590  210.0200  157.2220 C   0  0  0  0  0  3  0  0  0  0  0  0
  157.6050  212.3130  153.4240 C   0  0  0  0  0  2  0  0  0  0  0  0
  161.7780  210.9130  150.5560 C   0  0  1  0  0  3  0  0  0  0  0  0
  162.3270  211.1070  151.9750 C   0  0  0  0  0  2  0  0  0  0  0  0
  160.6050  209.4970  155.9890 C   0  0  0  0  0  0  0  0  0  0  0  0
  159.3760  210.5890  152.7810 C   0  0  0  0  0  0  0  0  0  0  0  0
  157.4800  212.5070  155.9960 C   0  0  0  0  0  2  0  0  0  0  0  0
  161.7250  207.5770  153.5530 C   0  0  1  0  0  3  0  0  0  0  0  0
  156.1640  214.0160  154.5200 C   0  0  0  0  0  1  0  0  0  0  0  0
  160.4340  210.1690  150.4830 C   0  0  0  0  0  2  0  0  0  0  0  0
  159.3030  210.8140  151.2910 C   0  0  0  0  0  2  0  0  0  0  0  0
  161.2870  207.3400  155.0050 C   0  0  0  0  0  2  0  0  0  0  0  0
  161.2080  205.2190  153.1670 C   0  0  0  0  0  3  0  0  0  0  0  0
  161.2520  206.4630  152.6790 C   0  0  0  0  0  0  0  0  0  0  0  0
  160.8850  206.7160  151.2670 C   0  0  0  0  0  3  0  0  0  0  0  0
  160.3820  205.9430  149.1300 F   0  0  0  0  0  0  0  0  0  0  0  0
  161.0380  204.2910  150.8510 C   0  0  0  0  0  2  0  0  0  0  0  0
  160.7290  205.6980  150.4160 C   0  0  0  0  0  0  0  0  0  0  0  0
  160.6800  204.0870  152.3270 C   0  0  0  0  0  2  0  0  0  0  0  0
  161.7190  212.2130  149.8220 C   0  0  0  0  0  0  0  0  0  0  0  0
  162.1390  212.2620  148.4580 N   0  0  0  0  0  2  0  0  0  0  0  0
  161.2900  213.2510  150.3960 O   0  0  0  0  0  0  0  0  0  0  0  0
  160.6300  213.8280  147.3320 C   0  0  0  0  0  1  0  0  0  0  0  0
  162.0740  213.4770  147.6560 C   0  0  2  0  0  3  0  0  0  0  0  0
  161.8620  213.3280  144.8800 S   0  0  0  0  0  1  0  0  0  0  0  0
  162.8980  213.3230  146.3820 C   0  0  0  0  0  2  0  0  0  0  0  0
  1 18  1  0  0  0  0
  2  6  2  0  0  0  0
  2 16  1  0  0  0  0
  4  8  2  0  0  0  0
  5  2  1  0  0  0  0
  6  4  1  0  0  0  0
  7  3  1  1  0  0  0
  7  5  1  0  0  0  0
  7 19  1  0  0  0  0
  9  6  1  0  0  0  0
 10  1  1  0  0  0  0
 11 16  1  0  0  0  0
 12  8  1  0  0  0  0
 13  9  1  0  0  0  0
 13  1  1  0  0  0  0
 14 31  1  1  0  0  0
 14 15  1  0  0  0  0
 15  3  1  0  0  0  0
 16 12  2  0  0  0  0
 17  5  2  0  0  0  0
 17  9  1  0  0  0  0
 18  4  1  0  0  0  0
 19 25  1  6  0  0  0
 19 23  1  0  0  0  0
 20  1  1  0  0  0  0
 21 14  1  0  0  0  0
 21 22  1  0  0  0  0
 22 17  1  0  0  0  0
 23 11  1  0  0  0  0
 25 24  2  0  0  0  0
 26 25  1  0  0  0  0
 27 29  1  0  0  0  0
 28 30  1  0  0  0  0
 29 28  1  0  0  0  0
 29 26  2  0  0  0  0
 30 24  1  0  0  0  0
 31 33  2  0  0  0  0
 32 31  1  0  0  0  0
 35 34  1  6  0  0  0
 35 32  1  0  0  0  0
 36 37  1  0  0  0  0
 37 35  1  0  0  0  0
M  END
>  <MODEL>
2

>  <REMARK>
 VINA RESULT:      -0.5      2.695      5.992
  Name = 
  4 active torsions:
  status: ('A' for Active; 'I' for Inactive)
    1  A    between atoms: C_4  and  N_12
    2  A    between atoms: C_4  and  C_37
    3  A    between atoms: C_8  and  C_18
    4  A    between atoms: C_23  and  C_30
                            x       y       z     vdW  Elec       q    Type
                         _______ _______ _______ _____ _____    ______ ____

>  <TORSDO>
F 4

$$$$
