=
 OpenBabel11122414223D

 34 41  0  0  1  0  0  0  0  0999 V2000
  160.8630  207.8800  154.1690 C   0  0  0  0  0  0  0  0  0  0  0  0
  162.3360  206.2500  152.8710 C   0  0  0  0  0  2  0  0  0  0  0  0
  159.6580  213.1380  156.1720 C   0  0  2  0  0  0  0  0  0  0  0  0
  159.1560  209.3690  155.0300 C   0  0  0  0  0  0  0  0  0  0  0  0
  158.9980  211.7420  154.1760 N   0  0  1  0  0  0  0  0  0  0  0  0
  160.4570  211.8530  156.2780 C   0  0  0  0  0  2  0  0  0  0  0  0
  160.4570  214.3850  156.4890 C   0  0  0  0  0  1  0  0  0  0  0  0
  157.7130  211.7210  157.0370 C   0  0  0  0  0  2  0  0  0  0  0  0
  162.2820  208.5690  152.1980 C   0  0  2  0  0  3  0  0  0  0  0  0
  161.8850  208.8360  148.9790 C   0  0  0  0  0  2  0  0  0  0  0  0
  159.5460  211.2440  152.9060 C   0  0  0  0  0  2  0  0  0  0  0  0
  157.2170  210.9460  155.8320 C   0  0  0  0  0  2  0  0  0  0  0  0
  161.1490  209.5400  151.8460 C   0  0  1  0  0  3  0  0  0  0  0  0
  163.1610  206.3870  151.5960 C   0  0  0  0  0  2  0  0  0  0  0  0
  158.3200  210.6030  154.8310 C   0  0  2  0  0  3  0  0  0  0  0  0
  158.1900  213.1030  156.6110 C   0  0  0  0  0  2  0  0  0  0  0  0
  161.9410  207.6460  149.8490 N   0  0  0  0  0  0  0  0  0  0  0  0
  160.1980  209.1170  154.1230 C   0  0  0  0  0  0  0  0  0  0  0  0
  160.1040  212.4240  154.9010 C   0  0  2  0  0  3  0  0  0  0  0  0
  160.6440  210.1830  153.1410 C   0  0  2  0  0  3  0  0  0  0  0  0
  159.4520  207.2280  156.0170 C   0  0  0  0  0  3  0  0  0  0  0  0
  162.0380  210.2020  149.6290 C   0  0  0  0  0  3  0  0  0  0  0  0
  158.8030  208.4220  155.9410 N   0  0  0  0  0  0  0  0  0  0  0  0
  161.6800  210.5410  150.8750 C   0  0  0  0  0  3  0  0  0  0  0  0
  162.8440  207.7650  151.0160 C   0  0  1  0  0  3  0  0  0  0  0  0
  160.4870  206.9310  155.1260 C   0  0  0  0  0  3  0  0  0  0  0  0
  161.8610  207.5860  153.1790 N   0  0  0  0  0  0  0  0  0  0  0  0
  160.5800  207.2270  150.1840 C   0  0  0  0  0  2  0  0  0  0  0  0
  160.0590  206.2500  149.1480 C   0  0  0  0  0  2  0  0  0  0  0  0
  161.2620  202.8960  149.2580 N   0  0  0  0  0  0  0  0  0  0  0  0
  160.4070  204.3410  150.7210 N   0  0  0  0  0  0  0  0  0  0  0  0
  160.5180  204.8770  149.4920 C   0  0  0  0  0  0  0  0  0  0  0  0
  160.8900  203.0950  150.5370 C   0  0  0  0  0  3  0  0  0  0  0  0
  161.0230  204.0150  148.5970 N   0  0  0  0  0  2  0  0  0  0  0  0
  1 26  1  0  0  0  0
  2 27  1  0  0  0  0
  3  6  1  0  0  0  0
  3  7  1  1  0  0  0
  3 16  1  0  0  0  0
  4 23  2  0  0  0  0
  5 11  1  6  0  0  0
  5 15  1  0  0  0  0
  5 19  1  0  0  0  0
  9 27  1  1  0  0  0
 10 22  1  0  0  0  0
 10 17  1  0  0  0  0
 12  8  1  0  0  0  0
 13 24  1  6  0  0  0
 13  9  1  0  0  0  0
 13 20  1  0  0  0  0
 14  2  1  0  0  0  0
 15  4  1  0  0  0  0
 15 12  1  1  0  0  0
 16  8  1  0  0  0  0
 17 28  1  0  0  0  0
 17 25  1  0  0  0  0
 18  1  2  0  0  0  0
 18  4  1  0  0  0  0
 19  3  1  0  0  0  0
 19  6  1  1  0  0  0
 20 11  1  6  0  0  0
 20 18  1  0  0  0  0
 22 24  2  0  0  0  0
 23 21  1  0  0  0  0
 25 14  1  1  0  0  0
 25  9  1  0  0  0  0
 26 21  2  0  0  0  0
 27  1  1  0  0  0  0
 29 32  1  0  0  0  0
 29 28  1  0  0  0  0
 30 33  2  0  0  0  0
 32 31  2  0  0  0  0
 33 31  1  0  0  0  0
 34 30  1  0  0  0  0
 34 32  1  0  0  0  0
M  END
>  <MODEL>
1

>  <REMARK>
 VINA RESULT:      -4.5      0.000      0.000
  Name = 
  3 active torsions:
  status: ('A' for Active; 'I' for Inactive)
    1  A    between atoms: N_17  and  C_28
    2  A    between atoms: C_28  and  C_29
    3  A    between atoms: C_29  and  C_32
                            x       y       z     vdW  Elec       q    Type
                         _______ _______ _______ _____ _____    ______ ____

>  <TORSDO>
F 3

$$$$
=
 OpenBabel11122414223D

 34 41  0  0  1  0  0  0  0  0999 V2000
  161.3230  211.4730  150.3550 C   0  0  0  0  0  0  0  0  0  0  0  0
  161.1850  213.1550  148.4410 C   0  0  0  0  0  2  0  0  0  0  0  0
  161.1870  210.1320  155.9500 C   0  0  2  0  0  0  0  0  0  0  0  0
  161.0240  209.7220  152.0040 C   0  0  0  0  0  0  0  0  0  0  0  0
  159.5580  210.1200  154.0220 N   0  0  1  0  0  0  0  0  0  0  0  0
  161.9370  210.7080  154.7630 C   0  0  0  0  0  2  0  0  0  0  0  0
  161.4260  210.8760  157.2470 C   0  0  0  0  0  1  0  0  0  0  0  0
  161.6010  207.8780  154.8160 C   0  0  0  0  0  2  0  0  0  0  0  0
  159.9310  213.5770  150.4610 C   0  0  2  0  0  3  0  0  0  0  0  0
  156.8640  214.4190  149.7730 C   0  0  0  0  0  2  0  0  0  0  0  0
  158.7810  211.0460  153.1840 C   0  0  0  0  0  2  0  0  0  0  0  0
  160.5620  207.7870  153.7160 C   0  0  0  0  0  2  0  0  0  0  0  0
  158.9230  212.7520  151.2700 C   0  0  1  0  0  3  0  0  0  0  0  0
  160.3350  214.4000  148.2130 C   0  0  0  0  0  2  0  0  0  0  0  0
  160.1910  209.1410  153.1130 C   0  0  2  0  0  3  0  0  0  0  0  0
  161.0260  208.6090  156.0210 C   0  0  0  0  0  2  0  0  0  0  0  0
  157.9810  214.0350  148.8890 N   0  0  0  0  0  0  0  0  0  0  0  0
  160.6890  210.9950  151.5150 C   0  0  0  0  0  0  0  0  0  0  0  0
  160.4290  210.9420  154.9030 C   0  0  2  0  0  3  0  0  0  0  0  0
  159.6980  211.8720  152.2540 C   0  0  2  0  0  3  0  0  0  0  0  0
  162.5990  209.4260  150.2480 C   0  0  0  0  0  3  0  0  0  0  0  0
  157.1200  214.4530  151.2710 C   0  0  0  0  0  3  0  0  0  0  0  0
  161.9560  208.9690  151.3580 N   0  0  0  0  0  0  0  0  0  0  0  0
  157.9920  213.6970  151.9530 C   0  0  0  0  0  3  0  0  0  0  0  0
  159.3220  214.4530  149.3570 C   0  0  1  0  0  3  0  0  0  0  0  0
  162.2870  210.6810  149.7210 C   0  0  0  0  0  3  0  0  0  0  0  0
  160.9090  212.7320  149.8010 N   0  0  0  0  0  0  0  0  0  0  0  0
  157.8760  212.6130  148.5640 C   0  0  0  0  0  2  0  0  0  0  0  0
  157.0780  212.4210  147.2890 C   0  0  0  0  0  2  0  0  0  0  0  0
  159.4640  212.9180  144.6870 N   0  0  0  0  0  0  0  0  0  0  0  0
  157.6710  214.0000  145.4460 N   0  0  0  0  0  0  0  0  0  0  0  0
  157.8960  212.8610  146.1270 C   0  0  0  0  0  0  0  0  0  0  0  0
  158.6750  214.0000  144.5440 C   0  0  0  0  0  3  0  0  0  0  0  0
  158.9800  212.2020  145.6870 N   0  0  0  0  0  2  0  0  0  0  0  0
  1 18  1  0  0  0  0
  2 27  1  0  0  0  0
  3 16  1  0  0  0  0
  3  7  1  1  0  0  0
  4 15  1  0  0  0  0
  5 11  1  6  0  0  0
  5 19  1  0  0  0  0
  6  3  1  0  0  0  0
  8 16  1  0  0  0  0
  9 27  1  6  0  0  0
  9 13  1  0  0  0  0
 10 22  1  0  0  0  0
 12  8  1  0  0  0  0
 13 24  1  1  0  0  0
 13 20  1  0  0  0  0
 14  2  1  0  0  0  0
 15 12  1  1  0  0  0
 15  5  1  0  0  0  0
 17 25  1  0  0  0  0
 17 10  1  0  0  0  0
 18  4  2  0  0  0  0
 18 20  1  0  0  0  0
 19  6  1  6  0  0  0
 19  3  1  0  0  0  0
 20 11  1  6  0  0  0
 21 23  2  0  0  0  0
 22 24  2  0  0  0  0
 23  4  1  0  0  0  0
 25 14  1  6  0  0  0
 25  9  1  0  0  0  0
 26 21  1  0  0  0  0
 26  1  2  0  0  0  0
 27  1  1  0  0  0  0
 28 17  1  0  0  0  0
 29 28  1  0  0  0  0
 30 34  1  0  0  0  0
 31 32  2  0  0  0  0
 32 29  1  0  0  0  0
 33 30  2  0  0  0  0
 33 31  1  0  0  0  0
 34 32  1  0  0  0  0
M  END
>  <MODEL>
2

>  <REMARK>
 VINA RESULT:      -4.0      4.026      6.562
  Name = 
  3 active torsions:
  status: ('A' for Active; 'I' for Inactive)
    1  A    between atoms: N_17  and  C_28
    2  A    between atoms: C_28  and  C_29
    3  A    between atoms: C_29  and  C_32
                            x       y       z     vdW  Elec       q    Type
                         _______ _______ _______ _____ _____    ______ ____

>  <TORSDO>
F 3

$$$$
=
 OpenBabel11122414223D

 34 41  0  0  1  0  0  0  0  0999 V2000
  160.1500  210.8880  152.2910 C   0  0  0  0  0  0  0  0  0  0  0  0
  159.6590  209.7000  154.4960 C   0  0  0  0  0  2  0  0  0  0  0  0
  158.4950  213.8870  147.6680 C   0  0  2  0  0  0  0  0  0  0  0  0
  160.8350  212.3460  150.4810 C   0  0  0  0  0  0  0  0  0  0  0  0
  159.4790  214.4060  149.9330 N   0  0  1  0  0  0  0  0  0  0  0  0
  158.5930  212.5600  148.3960 C   0  0  0  0  0  2  0  0  0  0  0  0
  157.2000  214.0750  146.9070 C   0  0  0  0  0  1  0  0  0  0  0  0
  161.0130  213.6080  147.3160 C   0  0  0  0  0  2  0  0  0  0  0  0
  158.2820  211.5740  153.8450 C   0  0  2  0  0  3  0  0  0  0  0  0
  157.9080  213.6560  156.3170 C   0  0  0  0  0  2  0  0  0  0  0  0
  159.1030  214.4470  151.3540 C   0  0  0  0  0  2  0  0  0  0  0  0
  161.6480  214.0200  148.6300 C   0  0  0  0  0  2  0  0  0  0  0  0
  158.5910  213.0140  153.4220 C   0  0  1  0  0  3  0  0  0  0  0  0
  158.7000  209.9960  155.6440 C   0  0  0  0  0  2  0  0  0  0  0  0
  160.7810  213.7100  149.8500 C   0  0  2  0  0  3  0  0  0  0  0  0
  159.7760  214.4530  147.0440 C   0  0  0  0  0  2  0  0  0  0  0  0
  158.6810  212.4040  156.2190 N   0  0  0  0  0  0  0  0  0  0  0  0
  159.9820  212.0780  151.5630 C   0  0  0  0  0  0  0  0  0  0  0  0
  158.3240  213.8470  149.1820 C   0  0  2  0  0  3  0  0  0  0  0  0
  158.8540  213.0290  151.9140 C   0  0  2  0  0  3  0  0  0  0  0  0
  161.9700  210.2860  150.8230 C   0  0  0  0  0  3  0  0  0  0  0  0
  157.1240  214.1080  155.0950 C   0  0  0  0  0  3  0  0  0  0  0  0
  161.8080  211.4550  150.1460 N   0  0  0  0  0  0  0  0  0  0  0  0
  157.4320  213.8710  153.8130 C   0  0  0  0  0  3  0  0  0  0  0  0
  158.0810  211.3640  155.3540 C   0  0  1  0  0  3  0  0  0  0  0  0
  161.1510  209.9860  151.9150 C   0  0  0  0  0  3  0  0  0  0  0  0
  159.3420  210.6610  153.4570 N   0  0  0  0  0  0  0  0  0  0  0  0
  160.0740  212.7180  155.9020 C   0  0  0  0  0  2  0  0  0  0  0  0
  160.8950  212.8210  157.1730 C   0  0  0  0  0  2  0  0  0  0  0  0
  163.6790  210.5960  157.2330 N   0  0  0  0  0  0  0  0  0  0  0  0
  161.4610  210.3900  157.2590 N   0  0  0  0  0  0  0  0  0  0  0  0
  161.8460  211.6790  157.2380 C   0  0  0  0  0  0  0  0  0  0  0  0
  162.6420  209.7370  157.2610 C   0  0  0  0  0  3  0  0  0  0  0  0
  163.1800  211.8200  157.2130 N   0  0  0  0  0  2  0  0  0  0  0  0
  1 27  1  0  0  0  0
  2 14  1  0  0  0  0
  3  7  1  6  0  0  0
  3  6  1  0  0  0  0
  3 19  1  0  0  0  0
  4 18  1  0  0  0  0
  5 11  1  1  0  0  0
  8 12  1  0  0  0  0
  9 27  1  1  0  0  0
  9 25  1  0  0  0  0
 13 24  1  6  0  0  0
 13  9  1  0  0  0  0
 15 12  1  6  0  0  0
 15  5  1  0  0  0  0
 15  4  1  0  0  0  0
 16  8  1  0  0  0  0
 16  3  1  0  0  0  0
 17 10  1  0  0  0  0
 18 20  1  0  0  0  0
 18  1  2  0  0  0  0
 19  6  1  1  0  0  0
 19  5  1  0  0  0  0
 20 11  1  1  0  0  0
 20 13  1  0  0  0  0
 21 26  2  0  0  0  0
 22 10  1  0  0  0  0
 23  4  2  0  0  0  0
 23 21  1  0  0  0  0
 24 22  2  0  0  0  0
 25 14  1  1  0  0  0
 25 17  1  0  0  0  0
 26  1  1  0  0  0  0
 27  2  1  0  0  0  0
 28 17  1  0  0  0  0
 28 29  1  0  0  0  0
 29 32  1  0  0  0  0
 30 33  2  0  0  0  0
 31 33  1  0  0  0  0
 32 31  2  0  0  0  0
 34 30  1  0  0  0  0
 34 32  1  0  0  0  0
M  END
>  <MODEL>
3

>  <REMARK>
 VINA RESULT:      -3.0      3.551      7.704
  Name = 
  3 active torsions:
  status: ('A' for Active; 'I' for Inactive)
    1  A    between atoms: N_17  and  C_28
    2  A    between atoms: C_28  and  C_29
    3  A    between atoms: C_29  and  C_32
                            x       y       z     vdW  Elec       q    Type
                         _______ _______ _______ _____ _____    ______ ____

>  <TORSDO>
F 3

$$$$
=
 OpenBabel11122414223D

 34 41  0  0  1  0  0  0  0  0999 V2000
  161.9720  208.7510  152.4140 C   0  0  0  0  0  0  0  0  0  0  0  0
  162.4570  210.7030  153.9840 C   0  0  0  0  0  2  0  0  0  0  0  0
  161.9400  203.1340  151.1640 C   0  0  2  0  0  0  0  0  0  0  0  0
  161.0460  206.9990  151.0190 C   0  0  0  0  0  0  0  0  0  0  0  0
  160.2900  204.8230  152.0540 N   0  0  1  0  0  0  0  0  0  0  0  0
  162.7070  204.4350  151.3050 C   0  0  0  0  0  2  0  0  0  0  0  0
  162.7060  201.9160  151.6360 C   0  0  0  0  0  1  0  0  0  0  0  0
  160.9720  204.2100  149.0550 C   0  0  0  0  0  2  0  0  0  0  0  0
  161.8940  208.5540  154.9300 C   0  0  2  0  0  3  0  0  0  0  0  0
  159.6390  208.8610  157.2560 C   0  0  0  0  0  2  0  0  0  0  0  0
  159.9940  205.5900  153.2730 C   0  0  0  0  0  2  0  0  0  0  0  0
  159.8940  205.1550  149.5480 C   0  0  0  0  0  2  0  0  0  0  0  0
  160.7280  207.5800  154.7200 C   0  0  1  0  0  3  0  0  0  0  0  0
  162.3480  210.8710  155.4960 C   0  0  0  0  0  2  0  0  0  0  0  0
  160.1950  205.7640  150.9180 C   0  0  2  0  0  3  0  0  0  0  0  0
  161.0300  202.9730  149.9410 C   0  0  0  0  0  2  0  0  0  0  0  0
  160.2630  209.8690  156.3780 N   0  0  0  0  0  0  0  0  0  0  0  0
  161.3500  207.4960  152.2960 C   0  0  0  0  0  0  0  0  0  0  0  0
  161.5730  204.1050  152.2800 C   0  0  2  0  0  3  0  0  0  0  0  0
  161.0660  206.6700  153.5360 C   0  0  2  0  0  3  0  0  0  0  0  0
  161.9820  208.9350  150.0070 C   0  0  0  0  0  3  0  0  0  0  0  0
  160.0810  207.4130  157.1070 C   0  0  0  0  0  3  0  0  0  0  0  0
  161.3560  207.7300  149.9130 N   0  0  0  0  0  0  0  0  0  0  0  0
  160.5220  206.8220  155.9890 C   0  0  0  0  0  3  0  0  0  0  0  0
  161.6780  209.6050  156.0290 C   0  0  1  0  0  3  0  0  0  0  0  0
  162.2910  209.4720  151.2590 C   0  0  0  0  0  3  0  0  0  0  0  0
  162.1940  209.3000  153.7230 N   0  0  0  0  0  0  0  0  0  0  0  0
  159.3960  210.1110  155.2250 C   0  0  0  0  0  2  0  0  0  0  0  0
  158.7550  211.4820  155.3270 C   0  0  0  0  0  2  0  0  0  0  0  0
  158.9480  213.7800  152.6080 N   0  0  0  0  0  0  0  0  0  0  0  0
  159.1230  211.5730  152.8570 N   0  0  0  0  0  0  0  0  0  0  0  0
  158.9150  212.1970  154.0310 C   0  0  0  0  0  0  0  0  0  0  0  0
  159.1430  212.6010  151.9840 C   0  0  0  0  0  3  0  0  0  0  0  0
  158.7980  213.5270  153.8960 N   0  0  0  0  0  2  0  0  0  0  0  0
  1 27  1  0  0  0  0
  2 14  1  0  0  0  0
  3  6  1  0  0  0  0
  3  7  1  1  0  0  0
  3 19  1  0  0  0  0
  4 18  2  0  0  0  0
  5 19  1  0  0  0  0
  5 11  1  1  0  0  0
  8 12  1  0  0  0  0
  8 16  1  0  0  0  0
  9 27  1  6  0  0  0
  9 25  1  0  0  0  0
 13  9  1  0  0  0  0
 13 24  1  1  0  0  0
 15 12  1  6  0  0  0
 15  4  1  0  0  0  0
 15  5  1  0  0  0  0
 16  3  1  0  0  0  0
 17 10  1  0  0  0  0
 18  1  1  0  0  0  0
 18 20  1  0  0  0  0
 19  6  1  6  0  0  0
 20 11  1  6  0  0  0
 20 13  1  0  0  0  0
 21 26  1  0  0  0  0
 22 10  1  0  0  0  0
 23 21  2  0  0  0  0
 23  4  1  0  0  0  0
 24 22  2  0  0  0  0
 25 14  1  6  0  0  0
 25 17  1  0  0  0  0
 26  1  2  0  0  0  0
 27  2  1  0  0  0  0
 28 29  1  0  0  0  0
 28 17  1  0  0  0  0
 30 34  1  0  0  0  0
 31 32  2  0  0  0  0
 32 29  1  0  0  0  0
 33 30  2  0  0  0  0
 33 31  1  0  0  0  0
 34 32  1  0  0  0  0
M  END
>  <MODEL>
4

>  <REMARK>
 VINA RESULT:      -1.9      1.758      7.804
  Name = 
  3 active torsions:
  status: ('A' for Active; 'I' for Inactive)
    1  A    between atoms: N_17  and  C_28
    2  A    between atoms: C_28  and  C_29
    3  A    between atoms: C_29  and  C_32
                            x       y       z     vdW  Elec       q    Type
                         _______ _______ _______ _____ _____    ______ ____

>  <TORSDO>
F 3

$$$$
=
 OpenBabel11122414223D

 34 41  0  0  1  0  0  0  0  0999 V2000
  160.9890  209.9190  151.3320 C   0  0  0  0  0  0  0  0  0  0  0  0
  160.7650  208.4330  153.3940 C   0  0  0  0  0  2  0  0  0  0  0  0
  158.9630  213.8980  147.7020 C   0  0  2  0  0  0  0  0  0  0  0  0
  161.5280  211.5710  149.6430 C   0  0  0  0  0  0  0  0  0  0  0  0
  160.4680  213.8620  149.7280 N   0  0  1  0  0  0  0  0  0  0  0  0
  158.9770  212.4610  148.1880 C   0  0  0  0  0  2  0  0  0  0  0  0
  157.5910  214.3960  147.2990 C   0  0  0  0  0  1  0  0  0  0  0  0
  161.2660  213.3450  146.7400 C   0  0  0  0  0  2  0  0  0  0  0  0
  159.6290  210.5640  153.3590 C   0  0  2  0  0  3  0  0  0  0  0  0
  160.1400  212.2000  156.1250 C   0  0  0  0  0  2  0  0  0  0  0  0
  160.4050  213.6980  151.1880 C   0  0  0  0  0  2  0  0  0  0  0  0
  162.2200  213.4230  147.9160 C   0  0  0  0  0  2  0  0  0  0  0  0
  160.0890  212.0010  153.0890 C   0  0  1  0  0  3  0  0  0  0  0  0
  160.1290  208.6470  154.7630 C   0  0  0  0  0  2  0  0  0  0  0  0
  161.5830  213.0200  149.2460 C   0  0  2  0  0  3  0  0  0  0  0  0
  160.1660  214.3860  146.8870 C   0  0  0  0  0  2  0  0  0  0  0  0
  160.6470  210.8920  155.6700 N   0  0  0  0  0  0  0  0  0  0  0  0
  160.8830  211.2320  150.8430 C   0  0  0  0  0  0  0  0  0  0  0  0
  159.1030  213.6110  149.1930 C   0  0  2  0  0  3  0  0  0  0  0  0
  160.0350  212.2510  151.5790 C   0  0  2  0  0  3  0  0  0  0  0  0
  162.3340  209.3470  149.4100 C   0  0  0  0  0  3  0  0  0  0  0  0
  159.2110  212.9670  155.1960 C   0  0  0  0  0  3  0  0  0  0  0  0
  162.2420  210.6300  148.9660 N   0  0  0  0  0  0  0  0  0  0  0  0
  159.2030  212.9240  153.8570 C   0  0  0  0  0  3  0  0  0  0  0  0
  159.7110  210.1160  154.8260 C   0  0  1  0  0  3  0  0  0  0  0  0
  161.7190  208.9710  150.6060 C   0  0  0  0  0  3  0  0  0  0  0  0
  160.4120  209.6000  152.6080 N   0  0  0  0  0  0  0  0  0  0  0  0
  161.9780  211.0640  155.0870 C   0  0  0  0  0  2  0  0  0  0  0  0
  163.0210  210.3650  155.9370 C   0  0  0  0  0  2  0  0  0  0  0  0
  166.0550  212.2040  155.5840 N   0  0  0  0  0  0  0  0  0  0  0  0
  164.5500  211.8880  157.1960 N   0  0  0  0  0  0  0  0  0  0  0  0
  164.2180  211.2400  156.0650 C   0  0  0  0  0  0  0  0  0  0  0  0
  165.7090  212.4890  156.8550 C   0  0  0  0  0  3  0  0  0  0  0  0
  165.1200  211.4130  155.0870 N   0  0  0  0  0  2  0  0  0  0  0  0
  1 27  1  0  0  0  0
  2 14  1  0  0  0  0
  3  7  1  6  0  0  0
  3  6  1  0  0  0  0
  3 19  1  0  0  0  0
  4 18  2  0  0  0  0
  5 11  1  1  0  0  0
  8 16  1  0  0  0  0
  8 12  1  0  0  0  0
  9 27  1  6  0  0  0
  9 25  1  0  0  0  0
 13  9  1  0  0  0  0
 13 24  1  1  0  0  0
 15 12  1  6  0  0  0
 15  4  1  0  0  0  0
 15  5  1  0  0  0  0
 16  3  1  0  0  0  0
 17 10  1  0  0  0  0
 18  1  1  0  0  0  0
 18 20  1  0  0  0  0
 19  6  1  6  0  0  0
 19  5  1  0  0  0  0
 20 11  1  1  0  0  0
 20 13  1  0  0  0  0
 21 26  1  0  0  0  0
 22 10  1  0  0  0  0
 23 21  2  0  0  0  0
 23  4  1  0  0  0  0
 24 22  2  0  0  0  0
 25 14  1  6  0  0  0
 25 17  1  0  0  0  0
 26  1  2  0  0  0  0
 27  2  1  0  0  0  0
 28 17  1  0  0  0  0
 28 29  1  0  0  0  0
 29 32  1  0  0  0  0
 30 33  2  0  0  0  0
 32 31  2  0  0  0  0
 33 31  1  0  0  0  0
 34 30  1  0  0  0  0
 34 32  1  0  0  0  0
M  END
>  <MODEL>
5

>  <REMARK>
 VINA RESULT:      -1.8      3.510      7.473
  Name = 
  3 active torsions:
  status: ('A' for Active; 'I' for Inactive)
    1  A    between atoms: N_17  and  C_28
    2  A    between atoms: C_28  and  C_29
    3  A    between atoms: C_29  and  C_32
                            x       y       z     vdW  Elec       q    Type
                         _______ _______ _______ _____ _____    ______ ____

>  <TORSDO>
F 3

$$$$
