=
 OpenBabel11122412503D

 32 37  0  0  1  0  0  0  0  0999 V2000
  160.4130  209.3510  153.3020 C   0  0  0  0  0  2  0  0  0  0  0  0
  161.5630  212.9780  149.0610 C   0  0  1  0  0  3  0  0  0  0  0  0
  156.6680  212.8870  149.4040 C   0  0  0  0  0  2  0  0  0  0  0  0
  156.5090  213.2100  147.9170 C   0  0  0  0  0  2  0  0  0  0  0  0
  162.6600  213.0160  146.7810 C   0  0  0  0  0  0  0  0  0  0  0  0
  162.5230  213.0950  145.4000 C   0  0  0  0  0  0  0  0  0  0  0  0
  161.8080  211.3520  150.9410 C   0  0  1  0  0  3  0  0  0  0  0  0
  160.5150  213.4650  151.1890 C   0  0  0  0  0  2  0  0  0  0  0  0
  161.4980  213.3090  143.4750 C   0  0  0  0  0  0  0  0  0  0  0  0
  160.6020  211.8600  153.1090 C   0  0  0  0  0  2  0  0  0  0  0  0
  157.9170  213.5590  149.9710 C   0  0  0  0  0  2  0  0  0  0  0  0
  160.4110  213.6290  149.7270 N   0  0  2  0  0  0  0  0  0  0  0  0
  159.1490  213.0810  149.1940 C   0  0  2  0  0  3  0  0  0  0  0  0
  160.2250  213.2750  146.9150 C   0  0  0  0  0  0  0  0  0  0  0  0
  162.8720  213.1590  143.2900 C   0  0  0  0  0  3  0  0  0  0  0  0
  160.5020  208.9370  151.5300 S   0  0  0  0  0  0  0  0  0  0  0  0
  160.5840  211.9940  151.5950 C   0  0  2  0  0  3  0  0  0  0  0  0
  163.4520  213.0330  144.4770 O   0  0  0  0  0  0  0  0  0  0  0  0
  162.0440  209.8880  151.3260 C   0  0  0  0  0  2  0  0  0  0  0  0
  159.7180  210.6920  153.5320 C   0  0  2  0  0  3  0  0  0  0  0  0
  157.7590  212.8010  147.1370 C   0  0  0  0  0  2  0  0  0  0  0  0
  158.9800  213.5030  147.7290 C   0  0  1  0  0  3  0  0  0  0  0  0
  160.1610  213.3660  145.5500 N   0  0  0  0  0  0  0  0  0  0  0  0
  161.6950  211.4930  149.4330 C   0  0  0  0  0  2  0  0  0  0  0  0
  163.9110  212.8430  147.3620 O   0  0  0  0  0  1  0  0  0  0  0  0
  160.4680  213.4840  142.4170 C   0  0  0  0  0  1  0  0  0  0  0  0
  161.4870  213.1170  147.5620 C   0  0  0  0  0  0  0  0  0  0  0  0
  161.3040  213.2610  144.8280 C   0  0  0  0  0  0  0  0  0  0  0  0
  159.3890  210.8360  154.9410 N   0  0  0  0  0  2  0  0  0  0  0  0
  158.1400  211.3670  155.3900 C   0  0  0  0  0  0  0  0  0  0  0  0
  157.2740  211.7580  154.5630 O   0  0  0  0  0  0  0  0  0  0  0  0
  157.8640  211.4620  156.8460 C   0  0  0  0  0  1  0  0  0  0  0  0
  1 20  1  0  0  0  0
  2 24  1  6  0  0  0
  2 12  1  0  0  0  0
  3 11  1  0  0  0  0
  4  3  1  0  0  0  0
  5 25  1  0  0  0  0
  5 27  1  0  0  0  0
  6  5  2  0  0  0  0
  7 24  1  6  0  0  0
  7 19  1  0  0  0  0
  7 17  1  0  0  0  0
  9 28  1  0  0  0  0
 10 20  1  0  0  0  0
 12  8  1  1  0  0  0
 13 12  1  0  0  0  0
 13 11  1  1  0  0  0
 14 27  2  0  0  0  0
 14 22  1  0  0  0  0
 15  9  2  0  0  0  0
 15 18  1  0  0  0  0
 16  1  1  0  0  0  0
 17  8  1  1  0  0  0
 17 10  1  0  0  0  0
 18  6  1  0  0  0  0
 19 16  1  0  0  0  0
 20 29  1  1  0  0  0
 21  4  1  0  0  0  0
 22 21  1  6  0  0  0
 22 13  1  0  0  0  0
 23 14  1  0  0  0  0
 26  9  1  0  0  0  0
 27  2  1  0  0  0  0
 28  6  1  0  0  0  0
 28 23  2  0  0  0  0
 29 30  1  0  0  0  0
 30 32  1  0  0  0  0
 31 30  2  0  0  0  0
M  END
>  <MODEL>
1

>  <REMARK>
 VINA RESULT:      -3.0      0.000      0.000
  Name = 
  1 active torsions:
  status: ('A' for Active; 'I' for Inactive)
    1  A    between atoms: C_20  and  N_29
                            x       y       z     vdW  Elec       q    Type
                         _______ _______ _______ _____ _____    ______ ____

>  <TORSDO>
F 1

$$$$
=
 OpenBabel11122412503D

 32 37  0  0  1  0  0  0  0  0999 V2000
  161.6210  208.8570  151.3480 C   0  0  0  0  0  2  0  0  0  0  0  0
  161.4460  212.9290  147.3660 C   0  0  1  0  0  3  0  0  0  0  0  0
  157.0380  213.0270  149.5220 C   0  0  0  0  0  2  0  0  0  0  0  0
  156.3710  213.5420  148.2450 C   0  0  0  0  0  2  0  0  0  0  0  0
  161.6210  213.2000  144.8560 C   0  0  0  0  0  0  0  0  0  0  0  0
  160.9900  213.4580  143.6450 C   0  0  0  0  0  0  0  0  0  0  0  0
  162.2190  211.0700  148.8440 C   0  0  1  0  0  3  0  0  0  0  0  0
  161.3070  213.1940  149.7690 C   0  0  0  0  0  2  0  0  0  0  0  0
  159.3510  213.9610  142.2800 C   0  0  0  0  0  0  0  0  0  0  0  0
  161.9520  211.3580  151.3450 C   0  0  0  0  0  2  0  0  0  0  0  0
  158.4630  213.5630  149.6380 C   0  0  0  0  0  2  0  0  0  0  0  0
  160.6860  213.5450  148.4780 N   0  0  2  0  0  0  0  0  0  0  0  0
  159.2720  213.1290  148.4100 C   0  0  2  0  0  3  0  0  0  0  0  0
  159.4420  213.5550  145.9250 C   0  0  0  0  0  0  0  0  0  0  0  0
  160.5390  213.7700  141.5760 C   0  0  0  0  0  3  0  0  0  0  0  0
  161.0090  208.6650  149.6410 S   0  0  0  0  0  0  0  0  0  0  0  0
  161.3880  211.6820  149.9720 C   0  0  2  0  0  3  0  0  0  0  0  0
  161.5030  213.4690  142.4370 O   0  0  0  0  0  0  0  0  0  0  0  0
  162.4460  209.5600  148.9650 C   0  0  0  0  0  2  0  0  0  0  0  0
  161.1850  210.1900  151.9540 C   0  0  2  0  0  3  0  0  0  0  0  0
  157.2010  213.1750  147.0140 C   0  0  0  0  0  2  0  0  0  0  0  0
  158.6130  213.7390  147.1670 C   0  0  1  0  0  3  0  0  0  0  0  0
  158.8870  213.8200  144.7010 N   0  0  0  0  0  0  0  0  0  0  0  0
  161.5700  211.4040  147.5120 C   0  0  0  0  0  2  0  0  0  0  0  0
  162.9760  212.8960  144.9010 O   0  0  0  0  0  1  0  0  0  0  0  0
  158.0220  214.3160  141.7120 C   0  0  0  0  0  1  0  0  0  0  0  0
  160.8340  213.2580  146.0280 C   0  0  0  0  0  0  0  0  0  0  0  0
  159.6670  213.7530  143.5950 C   0  0  0  0  0  0  0  0  0  0  0  0
  161.4140  210.1710  153.3900 N   0  0  0  0  0  2  0  0  0  0  0  0
  160.4270  210.5930  154.3330 C   0  0  0  0  0  0  0  0  0  0  0  0
  159.3090  211.0260  153.9440 O   0  0  0  0  0  0  0  0  0  0  0  0
  160.7230  210.5230  155.7870 C   0  0  0  0  0  1  0  0  0  0  0  0
  1 20  1  0  0  0  0
  2 24  1  1  0  0  0
  2 12  1  0  0  0  0
  3 11  1  0  0  0  0
  4  3  1  0  0  0  0
  5 25  1  0  0  0  0
  5 27  1  0  0  0  0
  6  5  2  0  0  0  0
  7 24  1  6  0  0  0
  7 19  1  0  0  0  0
  7 17  1  0  0  0  0
  9 28  1  0  0  0  0
 10 20  1  0  0  0  0
 12  8  1  1  0  0  0
 13 12  1  0  0  0  0
 13 11  1  1  0  0  0
 14 27  2  0  0  0  0
 14 22  1  0  0  0  0
 15  9  2  0  0  0  0
 15 18  1  0  0  0  0
 16  1  1  0  0  0  0
 17  8  1  6  0  0  0
 17 10  1  0  0  0  0
 18  6  1  0  0  0  0
 19 16  1  0  0  0  0
 20 29  1  1  0  0  0
 21  4  1  0  0  0  0
 22 21  1  6  0  0  0
 22 13  1  0  0  0  0
 23 14  1  0  0  0  0
 26  9  1  0  0  0  0
 27  2  1  0  0  0  0
 28  6  1  0  0  0  0
 28 23  2  0  0  0  0
 29 30  1  0  0  0  0
 30 32  1  0  0  0  0
 31 30  2  0  0  0  0
M  END
>  <MODEL>
2

>  <REMARK>
 VINA RESULT:      -2.1      1.485      2.056
  Name = 
  1 active torsions:
  status: ('A' for Active; 'I' for Inactive)
    1  A    between atoms: C_20  and  N_29
                            x       y       z     vdW  Elec       q    Type
                         _______ _______ _______ _____ _____    ______ ____

>  <TORSDO>
F 1

$$$$
=
 OpenBabel11122412503D

 32 37  0  0  1  0  0  0  0  0999 V2000
  158.7790  210.4700  155.9700 C   0  0  0  0  0  2  0  0  0  0  0  0
  161.6010  206.4980  153.0150 C   0  0  1  0  0  3  0  0  0  0  0  0
  161.8430  210.5690  150.2830 C   0  0  0  0  0  2  0  0  0  0  0  0
  161.9300  209.7540  148.9910 C   0  0  0  0  0  2  0  0  0  0  0  0
  161.2060  204.2610  151.9000 C   0  0  0  0  0  0  0  0  0  0  0  0
  161.0680  203.5290  150.7270 C   0  0  0  0  0  0  0  0  0  0  0  0
  160.2890  207.6680  154.7900 C   0  0  1  0  0  3  0  0  0  0  0  0
  162.4840  208.5300  153.9920 C   0  0  0  0  0  2  0  0  0  0  0  0
  161.0250  203.1480  148.5690 C   0  0  0  0  0  0  0  0  0  0  0  0
  161.2090  209.8440  155.7000 C   0  0  0  0  0  2  0  0  0  0  0  0
  162.5270  209.8290  151.4320 C   0  0  0  0  0  2  0  0  0  0  0  0
  162.4150  207.7100  152.7670 N   0  0  2  0  0  0  0  0  0  0  0  0
  161.8600  208.4620  151.6260 C   0  0  2  0  0  3  0  0  0  0  0  0
  161.6210  206.2200  150.4840 C   0  0  0  0  0  0  0  0  0  0  0  0
  160.7700  201.9790  149.2820 C   0  0  0  0  0  3  0  0  0  0  0  0
  158.0790  209.3960  154.6740 S   0  0  0  0  0  0  0  0  0  0  0  0
  161.0970  208.9310  154.4900 C   0  0  2  0  0  3  0  0  0  0  0  0
  160.8050  202.2520  150.5800 O   0  0  0  0  0  0  0  0  0  0  0  0
  158.8960  207.9240  155.3730 C   0  0  0  0  0  2  0  0  0  0  0  0
  160.1770  210.9620  155.5970 C   0  0  2  0  0  3  0  0  0  0  0  0
  161.3300  208.3620  149.1870 C   0  0  0  0  0  2  0  0  0  0  0  0
  162.0490  207.6550  150.3350 C   0  0  1  0  0  3  0  0  0  0  0  0
  161.4930  205.4370  149.3670 N   0  0  0  0  0  0  0  0  0  0  0  0
  160.1900  206.8310  153.5270 C   0  0  0  0  0  2  0  0  0  0  0  0
  161.0590  203.6510  153.1400 O   0  0  0  0  0  1  0  0  0  0  0  0
  161.0850  203.2990  147.0900 C   0  0  0  0  0  1  0  0  0  0  0  0
  161.4990  205.6380  151.7810 C   0  0  0  0  0  0  0  0  0  0  0  0
  161.2080  204.1210  149.5140 C   0  0  0  0  0  0  0  0  0  0  0  0
  160.5660  212.0460  156.4850 N   0  0  0  0  0  2  0  0  0  0  0  0
  160.1190  213.3910  156.2990 C   0  0  0  0  0  0  0  0  0  0  0  0
  159.3770  213.6940  155.3270 O   0  0  0  0  0  0  0  0  0  0  0  0
  160.5370  214.4430  157.2610 C   0  0  0  0  0  1  0  0  0  0  0  0
  2 24  1  6  0  0  0
  3 11  1  0  0  0  0
  4 21  1  0  0  0  0
  4  3  1  0  0  0  0
  5 25  1  0  0  0  0
  6  5  2  0  0  0  0
  7 24  1  6  0  0  0
  7 19  1  0  0  0  0
  9 15  2  0  0  0  0
  9 28  1  0  0  0  0
 12  2  1  0  0  0  0
 12  8  1  1  0  0  0
 13 11  1  6  0  0  0
 13 12  1  0  0  0  0
 14 27  2  0  0  0  0
 15 18  1  0  0  0  0
 16 19  1  0  0  0  0
 16  1  1  0  0  0  0
 17  8  1  1  0  0  0
 17  7  1  0  0  0  0
 17 10  1  0  0  0  0
 18  6  1  0  0  0  0
 20 10  1  0  0  0  0
 20  1  1  0  0  0  0
 20 29  1  1  0  0  0
 22 21  1  6  0  0  0
 22 14  1  0  0  0  0
 22 13  1  0  0  0  0
 23 28  2  0  0  0  0
 23 14  1  0  0  0  0
 26  9  1  0  0  0  0
 27  5  1  0  0  0  0
 27  2  1  0  0  0  0
 28  6  1  0  0  0  0
 30 29  1  0  0  0  0
 30 32  1  0  0  0  0
 31 30  2  0  0  0  0
M  END
>  <MODEL>
3

>  <REMARK>
 VINA RESULT:      -2.1      5.121      7.572
  Name = 
  1 active torsions:
  status: ('A' for Active; 'I' for Inactive)
    1  A    between atoms: C_20  and  N_29
                            x       y       z     vdW  Elec       q    Type
                         _______ _______ _______ _____ _____    ______ ____

>  <TORSDO>
F 1

$$$$
=
 OpenBabel11122412503D

 32 37  0  0  1  0  0  0  0  0999 V2000
  159.2800  210.6840  155.2770 C   0  0  0  0  0  2  0  0  0  0  0  0
  162.0980  207.7270  151.3040 C   0  0  1  0  0  3  0  0  0  0  0  0
  161.4240  212.1880  149.3720 C   0  0  0  0  0  2  0  0  0  0  0  0
  161.4170  211.6240  147.9500 C   0  0  0  0  0  2  0  0  0  0  0  0
  161.8210  205.6750  149.8490 C   0  0  0  0  0  0  0  0  0  0  0  0
  161.6010  205.1380  148.5860 C   0  0  0  0  0  0  0  0  0  0  0  0
  160.9310  208.3750  153.4160 C   0  0  1  0  0  3  0  0  0  0  0  0
  162.8590  209.6750  152.5250 C   0  0  0  0  0  2  0  0  0  0  0  0
  161.2840  205.1230  146.4180 C   0  0  0  0  0  0  0  0  0  0  0  0
  161.7000  210.4800  154.5940 C   0  0  0  0  0  2  0  0  0  0  0  0
  162.3580  211.3760  150.2680 C   0  0  0  0  0  2  0  0  0  0  0  0
  162.7090  209.0710  151.1870 N   0  0  2  0  0  0  0  0  0  0  0  0
  161.9020  209.9130  150.2850 C   0  0  2  0  0  3  0  0  0  0  0  0
  161.7740  207.8830  148.7830 C   0  0  0  0  0  0  0  0  0  0  0  0
  161.2840  203.8250  146.9270 C   0  0  0  0  0  3  0  0  0  0  0  0
  158.5320  209.7510  153.9010 S   0  0  0  0  0  0  0  0  0  0  0  0
  161.5230  209.7760  153.2590 C   0  0  2  0  0  3  0  0  0  0  0  0
  161.4790  203.8790  148.2380 O   0  0  0  0  0  0  0  0  0  0  0  0
  159.6200  208.3200  154.2060 C   0  0  0  0  0  2  0  0  0  0  0  0
  160.5350  211.4340  154.8310 C   0  0  2  0  0  3  0  0  0  0  0  0
  161.0300  210.1450  147.9550 C   0  0  0  0  0  2  0  0  0  0  0  0
  161.9940  209.3700  148.8530 C   0  0  1  0  0  3  0  0  0  0  0  0
  161.5790  207.2890  147.5650 N   0  0  0  0  0  0  0  0  0  0  0  0
  160.7490  207.7570  152.0410 C   0  0  0  0  0  2  0  0  0  0  0  0
  161.9370  204.8510  150.9620 O   0  0  0  0  0  1  0  0  0  0  0  0
  161.1020  205.5260  144.9980 C   0  0  0  0  0  1  0  0  0  0  0  0
  161.9200  207.0810  149.9540 C   0  0  0  0  0  0  0  0  0  0  0  0
  161.4840  205.9390  147.4970 C   0  0  0  0  0  0  0  0  0  0  0  0
  160.9140  212.3990  155.8500 N   0  0  0  0  0  2  0  0  0  0  0  0
  160.0960  213.5210  156.1900 C   0  0  0  0  0  0  0  0  0  0  0  0
  159.0080  213.7280  155.5910 O   0  0  0  0  0  0  0  0  0  0  0  0
  160.5370  214.4530  157.2600 C   0  0  0  0  0  1  0  0  0  0  0  0
  2 24  1  6  0  0  0
  3 11  1  0  0  0  0
  4 21  1  0  0  0  0
  4  3  1  0  0  0  0
  5 27  1  0  0  0  0
  5 25  1  0  0  0  0
  6  5  2  0  0  0  0
  7 24  1  6  0  0  0
  7 19  1  0  0  0  0
  9 15  2  0  0  0  0
  9 28  1  0  0  0  0
 10 20  1  0  0  0  0
 12  2  1  0  0  0  0
 12  8  1  1  0  0  0
 13 11  1  6  0  0  0
 13 12  1  0  0  0  0
 14 22  1  0  0  0  0
 14 27  2  0  0  0  0
 15 18  1  0  0  0  0
 16 19  1  0  0  0  0
 16  1  1  0  0  0  0
 17  8  1  1  0  0  0
 17  7  1  0  0  0  0
 17 10  1  0  0  0  0
 18  6  1  0  0  0  0
 20  1  1  0  0  0  0
 20 29  1  1  0  0  0
 22 21  1  6  0  0  0
 22 13  1  0  0  0  0
 23 14  1  0  0  0  0
 26  9  1  0  0  0  0
 27  2  1  0  0  0  0
 28 23  2  0  0  0  0
 28  6  1  0  0  0  0
 29 30  1  0  0  0  0
 30 32  1  0  0  0  0
 31 30  2  0  0  0  0
M  END
>  <MODEL>
4

>  <REMARK>
 VINA RESULT:      -1.4      4.288      5.862
  Name = 
  1 active torsions:
  status: ('A' for Active; 'I' for Inactive)
    1  A    between atoms: C_20  and  N_29
                            x       y       z     vdW  Elec       q    Type
                         _______ _______ _______ _____ _____    ______ ____

>  <TORSDO>
F 1

$$$$
=
 OpenBabel11122412503D

 32 37  0  0  1  0  0  0  0  0999 V2000
  162.4010  210.6740  139.3390 C   0  0  0  0  0  2  0  0  0  0  0  0
  159.7350  214.0790  143.0500 C   0  0  1  0  0  3  0  0  0  0  0  0
  163.8680  212.6840  145.3000 C   0  0  0  0  0  2  0  0  0  0  0  0
  163.2190  212.8160  146.6790 C   0  0  0  0  0  2  0  0  0  0  0  0
  157.5750  214.2090  144.3620 C   0  0  0  0  0  0  0  0  0  0  0  0
  156.9250  214.1220  145.5870 C   0  0  0  0  0  0  0  0  0  0  0  0
  160.3040  212.7580  141.0080 C   0  0  1  0  0  3  0  0  0  0  0  0
  161.8640  214.4500  141.9560 C   0  0  0  0  0  2  0  0  0  0  0  0
  156.7100  213.8740  147.7540 C   0  0  0  0  0  0  0  0  0  0  0  0
  162.5850  213.1100  139.9680 C   0  0  0  0  0  2  0  0  0  0  0  0
  163.2960  213.7210  144.3350 C   0  0  0  0  0  2  0  0  0  0  0  0
  161.1560  214.4470  143.2510 N   0  0  2  0  0  0  0  0  0  0  0  0
  161.7790  213.5300  144.2230 C   0  0  2  0  0  3  0  0  0  0  0  0
  159.6650  213.8030  145.5800 C   0  0  0  0  0  0  0  0  0  0  0  0
  155.4700  214.0890  147.1550 C   0  0  0  0  0  3  0  0  0  0  0  0
  161.2600  210.1410  140.6580 S   0  0  0  0  0  0  0  0  0  0  0  0
  161.7740  213.0970  141.2530 C   0  0  2  0  0  3  0  0  0  0  0  0
  155.6450  214.2340  145.8480 O   0  0  0  0  0  0  0  0  0  0  0  0
  160.0690  211.4550  140.2370 C   0  0  0  0  0  2  0  0  0  0  0  0
  163.3300  211.7890  139.8170 C   0  0  2  0  0  3  0  0  0  0  0  0
  161.6980  212.6960  146.5770 C   0  0  0  0  0  2  0  0  0  0  0  0
  161.1680  213.7560  145.6120 C   0  0  1  0  0  3  0  0  0  0  0  0
  158.9660  213.7500  146.7570 N   0  0  0  0  0  0  0  0  0  0  0  0
  159.5740  212.7260  142.3390 C   0  0  0  0  0  2  0  0  0  0  0  0
  156.8600  214.4370  143.1920 O   0  0  0  0  0  1  0  0  0  0  0  0
  156.9800  213.6640  149.2020 C   0  0  0  0  0  1  0  0  0  0  0  0
  158.9800  214.0550  144.3540 C   0  0  0  0  0  0  0  0  0  0  0  0
  157.6190  213.8970  146.7310 C   0  0  0  0  0  0  0  0  0  0  0  0
  164.4130  211.9630  138.8620 N   0  0  0  0  0  2  0  0  0  0  0  0
  165.1680  213.1730  138.7660 C   0  0  0  0  0  0  0  0  0  0  0  0
  164.9000  214.1580  139.5060 O   0  0  0  0  0  0  0  0  0  0  0  0
  166.2760  213.2710  137.7820 C   0  0  0  0  0  1  0  0  0  0  0  0
  1 20  1  0  0  0  0
  1 16  1  0  0  0  0
  2 24  1  1  0  0  0
  2 12  1  0  0  0  0
  2 27  1  0  0  0  0
  3  4  1  0  0  0  0
  5  6  1  0  0  0  0
  6 18  1  0  0  0  0
  6 28  2  0  0  0  0
  7 19  1  1  0  0  0
  7 17  1  0  0  0  0
  7 24  1  0  0  0  0
  9 26  1  0  0  0  0
 11  3  1  0  0  0  0
 12  8  1  6  0  0  0
 12 13  1  0  0  0  0
 13 11  1  1  0  0  0
 13 22  1  0  0  0  0
 14 22  1  0  0  0  0
 14 23  2  0  0  0  0
 15  9  2  0  0  0  0
 17 10  1  6  0  0  0
 17  8  1  0  0  0  0
 18 15  1  0  0  0  0
 19 16  1  0  0  0  0
 20 29  1  6  0  0  0
 20 10  1  0  0  0  0
 21  4  1  0  0  0  0
 22 21  1  1  0  0  0
 25  5  1  0  0  0  0
 27  5  2  0  0  0  0
 27 14  1  0  0  0  0
 28 23  1  0  0  0  0
 28  9  1  0  0  0  0
 30 29  1  0  0  0  0
 30 31  2  0  0  0  0
 32 30  1  0  0  0  0
M  END
>  <MODEL>
5

>  <REMARK>
 VINA RESULT:      -1.0      4.801     10.089
  Name = 
  1 active torsions:
  status: ('A' for Active; 'I' for Inactive)
    1  A    between atoms: C_20  and  N_29
                            x       y       z     vdW  Elec       q    Type
                         _______ _______ _______ _____ _____    ______ ____

>  <TORSDO>
F 1

$$$$
=
 OpenBabel11122412503D

 32 37  0  0  1  0  0  0  0  0999 V2000
  162.3650  209.7230  138.6980 C   0  0  0  0  0  2  0  0  0  0  0  0
  157.9990  213.3830  138.8240 C   0  0  1  0  0  3  0  0  0  0  0  0
  160.3490  214.0130  143.0870 C   0  0  0  0  0  2  0  0  0  0  0  0
  159.0600  214.4450  143.7890 C   0  0  0  0  0  2  0  0  0  0  0  0
  155.4700  213.3910  138.7730 C   0  0  0  0  0  0  0  0  0  0  0  0
  154.2710  213.5730  139.4520 C   0  0  0  0  0  0  0  0  0  0  0  0
  159.6210  211.6280  138.0950 C   0  0  1  0  0  3  0  0  0  0  0  0
  160.3670  213.8930  138.8080 C   0  0  0  0  0  2  0  0  0  0  0  0
  152.9440  214.0560  141.1280 C   0  0  0  0  0  0  0  0  0  0  0  0
  162.0890  212.1810  138.2010 C   0  0  0  0  0  2  0  0  0  0  0  0
  160.3390  214.4530  141.6240 C   0  0  0  0  0  2  0  0  0  0  0  0
  159.0790  214.1590  139.4770 N   0  0  2  0  0  0  0  0  0  0  0  0
  159.1240  213.8420  140.9170 C   0  0  2  0  0  3  0  0  0  0  0  0
  156.6020  214.0070  140.8590 C   0  0  0  0  0  0  0  0  0  0  0  0
  152.2060  213.7110  139.9970 C   0  0  0  0  0  3  0  0  0  0  0  0
  160.7190  209.4070  139.4170 S   0  0  0  0  0  0  0  0  0  0  0  0
  160.7200  212.4070  138.8190 C   0  0  2  0  0  3  0  0  0  0  0  0
  153.0450  213.4270  139.0090 O   0  0  0  0  0  0  0  0  0  0  0  0
  159.8850  210.1250  137.9630 C   0  0  0  0  0  2  0  0  0  0  0  0
  162.8520  211.1370  139.0090 C   0  0  2  0  0  3  0  0  0  0  0  0
  157.8350  213.9000  143.0560 C   0  0  0  0  0  2  0  0  0  0  0  0
  157.8580  214.3720  141.6030 C   0  0  1  0  0  3  0  0  0  0  0  0
  155.3870  214.1890  141.4630 N   0  0  0  0  0  0  0  0  0  0  0  0
  158.2960  211.8750  138.7940 C   0  0  0  0  0  2  0  0  0  0  0  0
  155.4790  212.9960  137.4400 O   0  0  0  0  0  1  0  0  0  0  0  0
  152.4090  214.4480  142.4600 C   0  0  0  0  0  1  0  0  0  0  0  0
  156.6670  213.6210  139.4870 C   0  0  0  0  0  0  0  0  0  0  0  0
  154.2560  213.9560  140.7530 C   0  0  0  0  0  0  0  0  0  0  0  0
  164.2690  211.2440  138.7010 N   0  0  0  0  0  2  0  0  0  0  0  0
  165.0000  212.4630  138.8510 C   0  0  0  0  0  0  0  0  0  0  0  0
  164.4250  213.5130  139.2430 O   0  0  0  0  0  0  0  0  0  0  0  0
  166.4520  212.4900  138.5400 C   0  0  0  0  0  1  0  0  0  0  0  0
  1 20  1  0  0  0  0
  1 16  1  0  0  0  0
  2 24  1  1  0  0  0
  2 12  1  0  0  0  0
  2 27  1  0  0  0  0
  3  4  1  0  0  0  0
  5  6  2  0  0  0  0
  5 27  1  0  0  0  0
  6 28  1  0  0  0  0
  7 19  1  1  0  0  0
  7 24  1  0  0  0  0
  7 17  1  0  0  0  0
  8 17  1  0  0  0  0
  9 26  1  0  0  0  0
 10 20  1  0  0  0  0
 11  3  1  0  0  0  0
 12  8  1  6  0  0  0
 12 13  1  0  0  0  0
 13 22  1  0  0  0  0
 13 11  1  1  0  0  0
 14 23  1  0  0  0  0
 14 22  1  0  0  0  0
 15  9  2  0  0  0  0
 17 10  1  6  0  0  0
 18  6  1  0  0  0  0
 18 15  1  0  0  0  0
 19 16  1  0  0  0  0
 20 29  1  6  0  0  0
 21  4  1  0  0  0  0
 22 21  1  1  0  0  0
 25  5  1  0  0  0  0
 27 14  2  0  0  0  0
 28  9  1  0  0  0  0
 28 23  2  0  0  0  0
 29 30  1  0  0  0  0
 30 31  2  0  0  0  0
 32 30  1  0  0  0  0
M  END
>  <MODEL>
6

>  <REMARK>
 VINA RESULT:      -0.9      8.119     11.811
  Name = 
  1 active torsions:
  status: ('A' for Active; 'I' for Inactive)
    1  A    between atoms: C_20  and  N_29
                            x       y       z     vdW  Elec       q    Type
                         _______ _______ _______ _____ _____    ______ ____

>  <TORSDO>
F 1

$$$$
