=
 OpenBabel11122412543D

 32 37  0  0  1  0  0  0  0  0999 V2000
  161.6490  202.3050  147.6020 C   0  0  0  0  0  2  0  0  0  0  0  0
  161.2880  206.1860  150.9860 C   0  0  0  0  0  0  0  0  0  0  0  0
  161.9060  210.3380  148.4160 C   0  0  0  0  0  2  0  0  0  0  0  0
  162.5220  210.9740  149.6470 C   0  0  0  0  0  2  0  0  0  0  0  0
  160.8450  206.3320  153.4510 C   0  0  0  0  0  0  0  0  0  0  0  0
  160.7520  207.1670  154.5580 C   0  0  0  0  0  0  0  0  0  0  0  0
  160.7540  204.1500  149.7260 N   0  0  1  0  0  0  0  0  0  0  0  0
  161.6530  206.0800  148.5320 C   0  0  0  0  0  2  0  0  0  0  0  0
  160.7890  209.0460  155.6930 C   0  0  0  0  0  0  0  0  0  0  0  0
  161.5660  203.8240  147.4030 C   0  0  2  0  0  3  0  0  0  0  0  0
  162.1830  208.8410  148.4470 C   0  0  0  0  0  2  0  0  0  0  0  0
  161.5960  206.8250  149.8040 N   0  0  0  0  0  0  0  0  0  0  0  0
  161.7730  208.1850  149.7530 C   0  0  0  0  0  0  0  0  0  0  0  0
  161.3660  208.3410  152.1390 C   0  0  0  0  0  0  0  0  0  0  0  0
  160.4890  208.0680  156.5780 N   0  0  0  0  0  0  0  0  0  0  0  0
  161.7030  201.9010  149.0740 C   0  0  0  0  0  2  0  0  0  0  0  0
  161.7500  204.5720  148.7320 C   0  0  2  0  0  3  0  0  0  0  0  0
  160.4640  206.8990  155.8820 C   0  0  0  0  0  3  0  0  0  0  0  0
  160.6600  202.6860  149.8790 C   0  0  0  0  0  2  0  0  0  0  0  0
  161.7910  210.4690  150.8830 C   0  0  0  0  0  2  0  0  0  0  0  0
  161.6800  208.9620  150.9260 C   0  0  0  0  0  0  0  0  0  0  0  0
  161.2530  209.1000  153.2740 N   0  0  0  0  0  0  0  0  0  0  0  0
  161.1980  204.6780  151.0080 C   0  0  0  0  0  2  0  0  0  0  0  0
  160.6170  204.9690  153.6100 O   0  0  0  0  0  1  0  0  0  0  0  0
  160.9150  210.4850  156.0490 C   0  0  0  0  0  1  0  0  0  0  0  0
  161.1660  206.9260  152.1910 C   0  0  0  0  0  0  0  0  0  0  0  0
  160.9530  208.5020  154.4480 C   0  0  0  0  0  0  0  0  0  0  0  0
  160.3330  204.1460  146.8260 O   0  0  0  0  0  0  0  0  0  0  0  0
  160.5400  204.0370  145.4480 C   0  0  0  0  0  2  0  0  0  0  0  0
  160.6560  205.3970  144.8440 C   0  0  0  0  0  0  0  0  0  0  0  0
  160.0530  206.3380  145.3330 O   0  0  0  0  0  0  0  0  0  0  0  0
  161.5210  205.6070  143.6520 C   0  0  0  0  0  1  0  0  0  0  0  0
  1 16  1  0  0  0  0
  2 23  1  0  0  0  0
  2 26  2  0  0  0  0
  3 11  1  0  0  0  0
  3  4  1  0  0  0  0
  4 20  1  0  0  0  0
  5 24  1  0  0  0  0
  5  6  2  0  0  0  0
  6 18  1  0  0  0  0
  7 19  1  1  0  0  0
  7 23  1  0  0  0  0
  8 12  1  0  0  0  0
  9 25  1  0  0  0  0
  9 15  1  0  0  0  0
 10 28  1  1  0  0  0
 10  1  1  0  0  0  0
 10 17  1  0  0  0  0
 11 13  1  0  0  0  0
 12  2  1  0  0  0  0
 13 12  1  0  0  0  0
 13 21  2  0  0  0  0
 14 26  1  0  0  0  0
 14 22  2  0  0  0  0
 16 19  1  0  0  0  0
 17  8  1  6  0  0  0
 17  7  1  0  0  0  0
 18 15  2  0  0  0  0
 20 21  1  0  0  0  0
 21 14  1  0  0  0  0
 22 27  1  0  0  0  0
 26  5  1  0  0  0  0
 27  6  1  0  0  0  0
 27  9  2  0  0  0  0
 29 28  1  0  0  0  0
 30 31  2  0  0  0  0
 30 29  1  0  0  0  0
 32 30  1  0  0  0  0
M  END
>  <MODEL>
1

>  <REMARK>
 VINA RESULT:      -7.4      0.000      0.000
  Name = 
  3 active torsions:
  status: ('A' for Active; 'I' for Inactive)
    1  A    between atoms: C_10  and  O_20
    2  A    between atoms: O_20  and  C_29
    3  A    between atoms: C_29  and  C_30
                            x       y       z     vdW  Elec       q    Type
                         _______ _______ _______ _____ _____    ______ ____

>  <TORSDO>
F 3

$$$$
=
 OpenBabel11122412543D

 32 37  0  0  1  0  0  0  0  0999 V2000
  160.2290  208.2110  156.5940 C   0  0  0  0  0  2  0  0  0  0  0  0
  161.2100  207.2680  151.6150 C   0  0  0  0  0  0  0  0  0  0  0  0
  162.5620  211.5600  149.6230 C   0  0  0  0  0  2  0  0  0  0  0  0
  161.9690  211.1030  148.3050 C   0  0  0  0  0  2  0  0  0  0  0  0
  161.1780  205.2120  150.1770 C   0  0  0  0  0  0  0  0  0  0  0  0
  161.3280  204.7010  148.8930 C   0  0  0  0  0  0  0  0  0  0  0  0
  161.2580  207.0960  154.0610 N   0  0  1  0  0  0  0  0  0  0  0  0
  161.3240  209.3060  153.0280 C   0  0  0  0  0  2  0  0  0  0  0  0
  161.7080  204.7210  146.7310 C   0  0  0  0  0  0  0  0  0  0  0  0
  160.8610  209.0800  155.4990 C   0  0  2  0  0  3  0  0  0  0  0  0
  161.7930  210.9050  150.7620 C   0  0  0  0  0  2  0  0  0  0  0  0
  161.3780  208.6320  151.7170 N   0  0  0  0  0  0  0  0  0  0  0  0
  161.6880  209.3970  150.6210 C   0  0  0  0  0  0  0  0  0  0  0  0
  161.6420  207.4220  149.2130 C   0  0  0  0  0  0  0  0  0  0  0  0
  161.4760  203.4320  147.0690 N   0  0  0  0  0  0  0  0  0  0  0  0
  159.7500  206.8570  156.0740 C   0  0  0  0  0  2  0  0  0  0  0  0
  160.6830  208.4460  154.1110 C   0  0  2  0  0  3  0  0  0  0  0  0
  161.2400  203.4100  148.4090 C   0  0  0  0  0  3  0  0  0  0  0  0
  160.8160  206.2280  155.1700 C   0  0  0  0  0  2  0  0  0  0  0  0
  162.2240  209.6120  148.1380 C   0  0  0  0  0  2  0  0  0  0  0  0
  161.8050  208.8040  149.3460 C   0  0  0  0  0  0  0  0  0  0  0  0
  161.7800  206.8440  147.9780 N   0  0  0  0  0  0  0  0  0  0  0  0
  160.7750  206.4840  152.8320 C   0  0  0  0  0  2  0  0  0  0  0  0
  160.8930  204.3410  151.2230 O   0  0  0  0  0  1  0  0  0  0  0  0
  162.0110  205.1810  145.3490 C   0  0  0  0  0  1  0  0  0  0  0  0
  161.3350  206.6220  150.3580 C   0  0  0  0  0  0  0  0  0  0  0  0
  161.6190  205.5090  147.8470 C   0  0  0  0  0  0  0  0  0  0  0  0
  162.2190  209.2640  155.7830 O   0  0  0  0  0  0  0  0  0  0  0  0
  162.2550  209.6750  157.1180 C   0  0  0  0  0  2  0  0  0  0  0  0
  162.7900  211.0650  157.2050 C   0  0  0  0  0  0  0  0  0  0  0  0
  163.9940  211.2560  157.2610 O   0  0  0  0  0  0  0  0  0  0  0  0
  161.8530  212.2220  157.2080 C   0  0  0  0  0  1  0  0  0  0  0  0
  2 12  1  0  0  0  0
  2 23  1  0  0  0  0
  3 11  1  0  0  0  0
  4  3  1  0  0  0  0
  5 26  1  0  0  0  0
  5 24  1  0  0  0  0
  6  5  2  0  0  0  0
  7 23  1  6  0  0  0
  7 17  1  0  0  0  0
  7 19  1  0  0  0  0
  9 15  1  0  0  0  0
  9 27  2  0  0  0  0
 10 28  1  1  0  0  0
 10  1  1  0  0  0  0
 12  8  1  0  0  0  0
 13 11  1  0  0  0  0
 13 12  1  0  0  0  0
 14 21  1  0  0  0  0
 14 26  1  0  0  0  0
 15 18  2  0  0  0  0
 16  1  1  0  0  0  0
 17  8  1  6  0  0  0
 17 10  1  0  0  0  0
 18  6  1  0  0  0  0
 19 16  1  0  0  0  0
 20  4  1  0  0  0  0
 20 21  1  0  0  0  0
 21 13  2  0  0  0  0
 22 14  2  0  0  0  0
 25  9  1  0  0  0  0
 26  2  2  0  0  0  0
 27 22  1  0  0  0  0
 27  6  1  0  0  0  0
 28 29  1  0  0  0  0
 29 30  1  0  0  0  0
 30 32  1  0  0  0  0
 30 31  2  0  0  0  0
M  END
>  <MODEL>
2

>  <REMARK>
 VINA RESULT:      -7.1      2.136      7.782
  Name = 
  3 active torsions:
  status: ('A' for Active; 'I' for Inactive)
    1  A    between atoms: C_10  and  O_20
    2  A    between atoms: O_20  and  C_29
    3  A    between atoms: C_29  and  C_30
                            x       y       z     vdW  Elec       q    Type
                         _______ _______ _______ _____ _____    ______ ____

>  <TORSDO>
F 3

$$$$
=
 OpenBabel11122412543D

 32 37  0  0  1  0  0  0  0  0999 V2000
  161.9900  210.3210  153.7100 C   0  0  0  0  0  2  0  0  0  0  0  0
  161.3050  206.6680  150.1280 C   0  0  0  0  0  0  0  0  0  0  0  0
  160.4430  202.4760  152.5580 C   0  0  0  0  0  2  0  0  0  0  0  0
  161.0930  201.7160  151.4190 C   0  0  0  0  0  2  0  0  0  0  0  0
  161.2820  206.6510  147.6190 C   0  0  0  0  0  0  0  0  0  0  0  0
  161.1860  205.8710  146.4720 C   0  0  0  0  0  0  0  0  0  0  0  0
  161.0650  208.7650  151.3770 N   0  0  1  0  0  0  0  0  0  0  0  0
  161.2480  206.6670  152.6100 C   0  0  0  0  0  2  0  0  0  0  0  0
  160.9680  204.0470  145.2690 C   0  0  0  0  0  0  0  0  0  0  0  0
  161.5100  208.8670  153.8170 C   0  0  2  0  0  3  0  0  0  0  0  0
  161.0730  203.8590  152.6480 C   0  0  0  0  0  2  0  0  0  0  0  0
  161.2370  205.9660  151.3120 N   0  0  0  0  0  0  0  0  0  0  0  0
  161.0700  204.6040  151.3250 C   0  0  0  0  0  0  0  0  0  0  0  0
  161.0630  204.5670  148.9000 C   0  0  0  0  0  0  0  0  0  0  0  0
  161.0730  205.0750  144.3960 N   0  0  0  0  0  0  0  0  0  0  0  0
  162.3980  210.7080  152.2900 C   0  0  0  0  0  2  0  0  0  0  0  0
  161.7390  208.1060  152.5030 C   0  0  2  0  0  3  0  0  0  0  0  0
  161.2080  206.2100  145.1330 C   0  0  0  0  0  3  0  0  0  0  0  0
  161.3550  210.2090  151.2830 C   0  0  0  0  0  2  0  0  0  0  0  0
  160.7350  202.3920  150.1030 C   0  0  0  0  0  2  0  0  0  0  0  0
  161.0000  203.8810  150.1160 C   0  0  0  0  0  0  0  0  0  0  0  0
  160.9720  203.8660  147.7260 N   0  0  0  0  0  0  0  0  0  0  0  0
  161.5870  208.1520  150.1650 C   0  0  0  0  0  2  0  0  0  0  0  0
  161.4200  208.0290  147.4900 O   0  0  0  0  0  1  0  0  0  0  0  0
  160.8040  202.6240  144.8690 C   0  0  0  0  0  1  0  0  0  0  0  0
  161.2230  205.9890  148.8850 C   0  0  0  0  0  0  0  0  0  0  0  0
  161.0370  204.5270  146.5490 C   0  0  0  0  0  0  0  0  0  0  0  0
  160.1540  208.8550  154.1610 O   0  0  0  0  0  0  0  0  0  0  0  0
  160.1110  209.3260  155.4760 C   0  0  0  0  0  2  0  0  0  0  0  0
  160.6740  208.2980  156.4000 C   0  0  0  0  0  0  0  0  0  0  0  0
  161.6650  208.5500  157.0660 O   0  0  0  0  0  0  0  0  0  0  0  0
  160.0150  206.9690  156.5200 C   0  0  0  0  0  1  0  0  0  0  0  0
  1 10  1  0  0  0  0
  2 23  1  0  0  0  0
  2 12  1  0  0  0  0
  3 11  1  0  0  0  0
  4  3  1  0  0  0  0
  5 26  1  0  0  0  0
  6 27  1  0  0  0  0
  6  5  2  0  0  0  0
  7 23  1  6  0  0  0
  7 17  1  0  0  0  0
  9 27  2  0  0  0  0
 10 28  1  6  0  0  0
 12 13  1  0  0  0  0
 12  8  1  0  0  0  0
 13 11  1  0  0  0  0
 14 21  1  0  0  0  0
 15 18  2  0  0  0  0
 15  9  1  0  0  0  0
 16  1  1  0  0  0  0
 17  8  1  1  0  0  0
 17 10  1  0  0  0  0
 18  6  1  0  0  0  0
 19  7  1  0  0  0  0
 19 16  1  0  0  0  0
 20 21  1  0  0  0  0
 20  4  1  0  0  0  0
 21 13  2  0  0  0  0
 22 14  2  0  0  0  0
 24  5  1  0  0  0  0
 25  9  1  0  0  0  0
 26 14  1  0  0  0  0
 26  2  2  0  0  0  0
 27 22  1  0  0  0  0
 28 29  1  0  0  0  0
 29 30  1  0  0  0  0
 30 32  1  0  0  0  0
 30 31  2  0  0  0  0
M  END
>  <MODEL>
3

>  <REMARK>
 VINA RESULT:      -7.0      2.017      8.486
  Name = 
  3 active torsions:
  status: ('A' for Active; 'I' for Inactive)
    1  A    between atoms: C_10  and  O_20
    2  A    between atoms: O_20  and  C_29
    3  A    between atoms: C_29  and  C_30
                            x       y       z     vdW  Elec       q    Type
                         _______ _______ _______ _____ _____    ______ ____

>  <TORSDO>
F 3

$$$$
=
 OpenBabel11122412543D

 32 37  0  0  1  0  0  0  0  0999 V2000
  161.6900  201.8750  150.1150 C   0  0  0  0  0  2  0  0  0  0  0  0
  161.1300  206.5860  152.1490 C   0  0  0  0  0  0  0  0  0  0  0  0
  161.7740  209.7820  148.4620 C   0  0  0  0  0  2  0  0  0  0  0  0
  162.3310  210.7780  149.4610 C   0  0  0  0  0  2  0  0  0  0  0  0
  160.5910  207.4590  154.4390 C   0  0  0  0  0  0  0  0  0  0  0  0
  160.4400  208.5870  155.2370 C   0  0  0  0  0  0  0  0  0  0  0  0
  160.6810  204.2510  151.5510 N   0  0  1  0  0  0  0  0  0  0  0  0
  161.5920  205.7530  149.8570 C   0  0  0  0  0  2  0  0  0  0  0  0
  160.4010  210.7210  155.7490 C   0  0  0  0  0  0  0  0  0  0  0  0
  161.5880  203.2600  149.4630 C   0  0  2  0  0  3  0  0  0  0  0  0
  162.0760  208.3730  148.9540 C   0  0  0  0  0  2  0  0  0  0  0  0
  161.4720  206.8460  150.8400 N   0  0  0  0  0  0  0  0  0  0  0  0
  161.6280  208.1310  150.3840 C   0  0  0  0  0  0  0  0  0  0  0  0
  161.1260  208.9910  152.5970 C   0  0  0  0  0  0  0  0  0  0  0  0
  160.0840  210.0480  156.8790 N   0  0  0  0  0  0  0  0  0  0  0  0
  161.6940  201.9380  151.6420 C   0  0  0  0  0  2  0  0  0  0  0  0
  161.7070  204.3800  150.5080 C   0  0  2  0  0  3  0  0  0  0  0  0
  160.1050  208.7240  156.5710 C   0  0  0  0  0  3  0  0  0  0  0  0
  160.6070  202.8990  152.1370 C   0  0  0  0  0  2  0  0  0  0  0  0
  161.5620  210.6500  150.7680 C   0  0  0  0  0  2  0  0  0  0  0  0
  161.4760  209.2240  151.2630 C   0  0  0  0  0  0  0  0  0  0  0  0
  160.9560  210.0540  153.4440 N   0  0  0  0  0  0  0  0  0  0  0  0
  161.0660  205.1540  152.6250 C   0  0  0  0  0  2  0  0  0  0  0  0
  160.3800  206.2020  154.9970 O   0  0  0  0  0  1  0  0  0  0  0  0
  160.4870  212.2030  155.6560 C   0  0  0  0  0  1  0  0  0  0  0  0
  160.9490  207.6520  153.0690 C   0  0  0  0  0  0  0  0  0  0  0  0
  160.6220  209.8300  154.7340 C   0  0  0  0  0  0  0  0  0  0  0  0
  160.3720  203.3570  148.7770 O   0  0  0  0  0  0  0  0  0  0  0  0
  160.1380  202.0740  148.2760 C   0  0  0  0  0  2  0  0  0  0  0  0
  160.8320  201.9070  146.9660 C   0  0  0  0  0  0  0  0  0  0  0  0
  161.1050  200.7910  146.5550 O   0  0  0  0  0  0  0  0  0  0  0  0
  161.1790  203.1040  146.1530 C   0  0  0  0  0  1  0  0  0  0  0  0
  1 16  1  0  0  0  0
  2 23  1  0  0  0  0
  2 26  2  0  0  0  0
  3 11  1  0  0  0  0
  3  4  1  0  0  0  0
  4 20  1  0  0  0  0
  5 24  1  0  0  0  0
  5  6  2  0  0  0  0
  6 18  1  0  0  0  0
  7 19  1  1  0  0  0
  7 23  1  0  0  0  0
  8 12  1  0  0  0  0
  9 15  1  0  0  0  0
 10 28  1  1  0  0  0
 10  1  1  0  0  0  0
 10 17  1  0  0  0  0
 11 13  1  0  0  0  0
 12  2  1  0  0  0  0
 13 12  1  0  0  0  0
 13 21  2  0  0  0  0
 14 26  1  0  0  0  0
 14 22  2  0  0  0  0
 16 19  1  0  0  0  0
 17  8  1  6  0  0  0
 17  7  1  0  0  0  0
 18 15  2  0  0  0  0
 20 21  1  0  0  0  0
 21 14  1  0  0  0  0
 22 27  1  0  0  0  0
 25  9  1  0  0  0  0
 26  5  1  0  0  0  0
 27  6  1  0  0  0  0
 27  9  2  0  0  0  0
 29 28  1  0  0  0  0
 30 29  1  0  0  0  0
 31 30  2  0  0  0  0
 32 30  1  0  0  0  0
M  END
>  <MODEL>
4

>  <REMARK>
 VINA RESULT:      -6.6      1.591      2.131
  Name = 
  3 active torsions:
  status: ('A' for Active; 'I' for Inactive)
    1  A    between atoms: C_10  and  O_20
    2  A    between atoms: O_20  and  C_29
    3  A    between atoms: C_29  and  C_30
                            x       y       z     vdW  Elec       q    Type
                         _______ _______ _______ _____ _____    ______ ____

>  <TORSDO>
F 3

$$$$
=
 OpenBabel11122412543D

 32 37  0  0  1  0  0  0  0  0999 V2000
  162.4530  211.1580  150.7660 C   0  0  0  0  0  2  0  0  0  0  0  0
  161.4480  206.4260  148.9650 C   0  0  0  0  0  0  0  0  0  0  0  0
  160.9280  203.5180  152.9010 C   0  0  0  0  0  2  0  0  0  0  0  0
  161.4640  202.3610  152.0810 C   0  0  0  0  0  2  0  0  0  0  0  0
  161.1520  205.4440  146.6750 C   0  0  0  0  0  0  0  0  0  0  0  0
  160.9460  204.2860  145.9350 C   0  0  0  0  0  0  0  0  0  0  0  0
  161.3080  208.8480  149.3270 N   0  0  1  0  0  0  0  0  0  0  0  0
  161.6600  207.3830  151.2460 C   0  0  0  0  0  2  0  0  0  0  0  0
  160.6310  202.1460  145.5600 C   0  0  0  0  0  0  0  0  0  0  0  0
  162.0130  209.8710  151.4760 C   0  0  2  0  0  3  0  0  0  0  0  0
  161.5390  204.8120  152.3830 C   0  0  0  0  0  2  0  0  0  0  0  0
  161.5210  206.2360  150.3280 N   0  0  0  0  0  0  0  0  0  0  0  0
  161.3800  204.9900  150.8840 C   0  0  0  0  0  0  0  0  0  0  0  0
  161.1110  204.0220  148.6760 C   0  0  0  0  0  0  0  0  0  0  0  0
  160.6230  202.7540  144.3510 N   0  0  0  0  0  0  0  0  0  0  0  0
  162.6980  210.9570  149.2710 C   0  0  0  0  0  2  0  0  0  0  0  0
  162.1110  208.6560  150.5410 C   0  0  2  0  0  3  0  0  0  0  0  0
  160.8170  204.0820  144.5750 C   0  0  0  0  0  3  0  0  0  0  0  0
  161.5610  210.1360  148.6520 C   0  0  0  0  0  2  0  0  0  0  0  0
  160.9540  202.4870  150.6530 C   0  0  0  0  0  2  0  0  0  0  0  0
  161.1920  203.8590  150.0620 C   0  0  0  0  0  0  0  0  0  0  0  0
  160.9050  202.9250  147.8810 N   0  0  0  0  0  0  0  0  0  0  0  0
  161.7060  207.8020  148.3960 C   0  0  0  0  0  2  0  0  0  0  0  0
  161.2520  206.6620  146.0110 O   0  0  0  0  0  1  0  0  0  0  0  0
  160.4490  200.6830  145.7600 C   0  0  0  0  0  1  0  0  0  0  0  0
  161.2430  205.3230  148.0970 C   0  0  0  0  0  0  0  0  0  0  0  0
  160.8300  203.0800  146.5400 C   0  0  0  0  0  0  0  0  0  0  0  0
  160.7020  210.0270  151.9410 O   0  0  0  0  0  0  0  0  0  0  0  0
  160.8010  210.9330  153.0000 C   0  0  0  0  0  2  0  0  0  0  0  0
  161.0590  210.1970  154.2730 C   0  0  0  0  0  0  0  0  0  0  0  0
  160.4580  209.1640  154.5160 O   0  0  0  0  0  0  0  0  0  0  0  0
  162.0640  210.7180  155.2390 C   0  0  0  0  0  1  0  0  0  0  0  0
  1 10  1  0  0  0  0
  2 12  1  0  0  0  0
  4  3  1  0  0  0  0
  5 26  1  0  0  0  0
  6 27  1  0  0  0  0
  6  5  2  0  0  0  0
  7 23  1  6  0  0  0
  7 17  1  0  0  0  0
  9 25  1  0  0  0  0
  9 27  2  0  0  0  0
 10 28  1  6  0  0  0
 11  3  1  0  0  0  0
 12 13  1  0  0  0  0
 12  8  1  0  0  0  0
 13 11  1  0  0  0  0
 14 21  1  0  0  0  0
 15 18  2  0  0  0  0
 15  9  1  0  0  0  0
 16  1  1  0  0  0  0
 17  8  1  1  0  0  0
 17 10  1  0  0  0  0
 18  6  1  0  0  0  0
 19 16  1  0  0  0  0
 19  7  1  0  0  0  0
 20  4  1  0  0  0  0
 21 20  1  0  0  0  0
 21 13  2  0  0  0  0
 22 14  2  0  0  0  0
 23  2  1  0  0  0  0
 24  5  1  0  0  0  0
 26 14  1  0  0  0  0
 26  2  2  0  0  0  0
 27 22  1  0  0  0  0
 28 29  1  0  0  0  0
 29 30  1  0  0  0  0
 30 31  2  0  0  0  0
 30 32  1  0  0  0  0
M  END
>  <MODEL>
5

>  <REMARK>
 VINA RESULT:      -6.2      2.182      8.362
  Name = 
  3 active torsions:
  status: ('A' for Active; 'I' for Inactive)
    1  A    between atoms: C_10  and  O_20
    2  A    between atoms: O_20  and  C_29
    3  A    between atoms: C_29  and  C_30
                            x       y       z     vdW  Elec       q    Type
                         _______ _______ _______ _____ _____    ______ ____

>  <TORSDO>
F 3

$$$$
=
 OpenBabel11122412543D

 32 37  0  0  1  0  0  0  0  0999 V2000
  162.0360  214.3080  147.1270 C   0  0  0  0  0  2  0  0  0  0  0  0
  160.8360  211.3350  151.1720 C   0  0  0  0  0  0  0  0  0  0  0  0
  157.6070  213.8880  153.8700 C   0  0  0  0  0  2  0  0  0  0  0  0
  158.1450  213.2030  155.1100 C   0  0  0  0  0  2  0  0  0  0  0  0
  161.4930  209.0300  151.9140 C   0  0  0  0  0  0  0  0  0  0  0  0
  161.3840  208.0640  152.9080 C   0  0  0  0  0  0  0  0  0  0  0  0
  161.2020  212.0680  148.8600 N   0  0  1  0  0  0  0  0  0  0  0  0
  160.1090  213.5880  150.4250 C   0  0  0  0  0  2  0  0  0  0  0  0
  160.7310  207.1620  154.8000 C   0  0  0  0  0  0  0  0  0  0  0  0
  160.9620  214.4520  148.2130 C   0  0  2  0  0  3  0  0  0  0  0  0
  158.7250  213.9910  152.8420 C   0  0  0  0  0  2  0  0  0  0  0  0
  160.1480  212.5030  151.4230 N   0  0  0  0  0  0  0  0  0  0  0  0
  159.4080  212.6630  152.5670 C   0  0  0  0  0  0  0  0  0  0  0  0
  160.0490  210.4440  153.3090 C   0  0  0  0  0  0  0  0  0  0  0  0
  161.5080  206.2420  154.1820 N   0  0  0  0  0  0  0  0  0  0  0  0
  162.9420  213.0980  147.3460 C   0  0  0  0  0  2  0  0  0  0  0  0
  161.1850  213.4500  149.3550 C   0  0  2  0  0  3  0  0  0  0  0  0
  161.9160  206.7930  153.0080 C   0  0  0  0  0  3  0  0  0  0  0  0
  162.1050  211.8670  147.7110 C   0  0  0  0  0  2  0  0  0  0  0  0
  158.4910  211.7610  154.7680 C   0  0  0  0  0  2  0  0  0  0  0  0
  159.3630  211.6410  153.5380 C   0  0  0  0  0  0  0  0  0  0  0  0
  159.9850  209.4430  154.2420 N   0  0  0  0  0  0  0  0  0  0  0  0
  161.7140  211.2450  149.9450 C   0  0  0  0  0  2  0  0  0  0  0  0
  162.2470  208.7520  150.7790 O   0  0  0  0  0  1  0  0  0  0  0  0
  160.0800  206.9540  156.1210 C   0  0  0  0  0  1  0  0  0  0  0  0
  160.8080  210.2700  152.1090 C   0  0  0  0  0  0  0  0  0  0  0  0
  160.6500  208.2860  154.0240 C   0  0  0  0  0  0  0  0  0  0  0  0
  159.6990  214.2680  147.6390 O   0  0  0  0  0  0  0  0  0  0  0  0
  159.9060  214.4030  146.2640 C   0  0  0  0  0  2  0  0  0  0  0  0
  159.0650  213.4140  145.5260 C   0  0  0  0  0  0  0  0  0  0  0  0
  157.8600  213.5800  145.4390 O   0  0  0  0  0  0  0  0  0  0  0  0
  159.7020  212.2320  144.8840 C   0  0  0  0  0  1  0  0  0  0  0  0
  1 16  1  0  0  0  0
  1 10  1  0  0  0  0
  2 12  1  0  0  0  0
  2 26  2  0  0  0  0
  3  4  1  0  0  0  0
  5 26  1  0  0  0  0
  5  6  2  0  0  0  0
  6 18  1  0  0  0  0
  6 27  1  0  0  0  0
  7 19  1  6  0  0  0
  7 17  1  0  0  0  0
  7 23  1  0  0  0  0
  8 12  1  0  0  0  0
  9 25  1  0  0  0  0
 10 28  1  6  0  0  0
 10 17  1  0  0  0  0
 11  3  1  0  0  0  0
 12 13  1  0  0  0  0
 13 11  1  0  0  0  0
 13 21  2  0  0  0  0
 14 21  1  0  0  0  0
 14 22  2  0  0  0  0
 15  9  1  0  0  0  0
 16 19  1  0  0  0  0
 17  8  1  1  0  0  0
 18 15  2  0  0  0  0
 20  4  1  0  0  0  0
 21 20  1  0  0  0  0
 23  2  1  0  0  0  0
 24  5  1  0  0  0  0
 26 14  1  0  0  0  0
 27 22  1  0  0  0  0
 27  9  2  0  0  0  0
 29 28  1  0  0  0  0
 30 29  1  0  0  0  0
 31 30  2  0  0  0  0
 32 30  1  0  0  0  0
M  END
>  <MODEL>
6

>  <REMARK>
 VINA RESULT:      -5.8      4.234      6.916
  Name = 
  3 active torsions:
  status: ('A' for Active; 'I' for Inactive)
    1  A    between atoms: C_10  and  O_20
    2  A    between atoms: O_20  and  C_29
    3  A    between atoms: C_29  and  C_30
                            x       y       z     vdW  Elec       q    Type
                         _______ _______ _______ _____ _____    ______ ____

>  <TORSDO>
F 3

$$$$
