=
 OpenBabel11122414083D

 28 32  0  0  1  0  0  0  0  0999 V2000
  160.4960  209.4340  156.2150 C   0  0  0  0  0  0  0  0  0  0  0  0
  155.8140  210.5430  154.7110 F   0  0  0  0  0  0  0  0  0  0  0  0
  161.5910  211.0680  151.8500 O   0  0  0  0  0  0  0  0  0  0  0  0
  161.6980  211.8740  156.8900 C   0  0  0  0  0  3  0  0  0  0  0  0
  159.5620  212.2350  152.3530 C   0  0  0  0  0  0  0  0  0  0  0  0
  159.9140  208.1200  155.7940 C   0  0  0  0  0  2  0  0  0  0  0  0
  155.8860  211.1740  156.9820 C   0  0  0  0  0  1  0  0  0  0  0  0
  156.1900  211.5790  155.5530 C   0  0  1  0  0  0  0  0  0  0  0  0
  155.8230  213.3420  153.8620 C   0  0  1  0  0  3  0  0  0  0  0  0
  157.6990  211.8920  155.4270 C   0  0  2  0  0  3  0  0  0  0  0  0
  162.3090  208.9680  153.8550 O   0  0  0  0  0  1  0  0  0  0  0  0
  158.5790  210.4760  153.6300 C   0  0  1  0  0  3  0  0  0  0  0  0
  157.1320  213.8440  153.9750 O   0  0  0  0  0  0  0  0  0  0  0  0
  155.3590  212.8040  155.2080 C   0  0  0  0  0  2  0  0  0  0  0  0
  161.2910  208.0460  153.5970 C   0  0  2  0  0  3  0  0  0  0  0  0
  159.8560  210.6430  155.8760 C   0  0  0  0  0  0  0  0  0  0  0  0
  160.4660  211.1210  152.4140 C   0  0  0  0  0  0  0  0  0  0  0  0
  154.8960  214.4530  153.4190 C   0  0  0  0  0  1  0  0  0  0  0  0
  160.1470  208.6560  152.7830 C   0  0  0  0  0  2  0  0  0  0  0  0
  160.4820  211.8590  156.2020 C   0  0  0  0  0  3  0  0  0  0  0  0
  161.7070  209.4580  156.9220 C   0  0  0  0  0  3  0  0  0  0  0  0
  162.3040  210.6730  157.2600 C   0  0  0  0  0  3  0  0  0  0  0  0
  160.8470  207.3250  154.8760 C   0  0  0  0  0  2  0  0  0  0  0  0
  158.2880  211.8750  153.0310 C   0  0  1  0  0  3  0  0  0  0  0  0
  159.8930  210.0480  153.1410 N   0  0  0  0  0  0  0  0  0  0  0  0
  158.0360  212.7830  154.2240 C   0  0  2  0  0  3  0  0  0  0  0  0
  159.7950  213.3270  151.7720 O   0  0  0  0  0  0  0  0  0  0  0  0
  158.5110  210.6230  155.1670 C   0  0  1  0  0  3  0  0  0  0  0  0
  1 21  1  0  0  0  0
  2  8  1  0  0  0  0
  3 17  2  0  0  0  0
  4 22  1  0  0  0  0
  5 17  1  0  0  0  0
  5 24  1  0  0  0  0
  6  1  1  0  0  0  0
  8  7  1  1  0  0  0
  9 18  1  1  0  0  0
  9 13  1  0  0  0  0
  9 14  1  0  0  0  0
 10  8  1  0  0  0  0
 12 28  1  0  0  0  0
 13 26  1  0  0  0  0
 14  8  1  0  0  0  0
 15 11  1  0  0  0  0
 15 23  1  0  0  0  0
 16 20  1  0  0  0  0
 16  1  2  0  0  0  0
 17 25  1  0  0  0  0
 19 25  1  0  0  0  0
 19 15  1  0  0  0  0
 20  4  2  0  0  0  0
 21 22  2  0  0  0  0
 23  6  1  0  0  0  0
 24 12  1  0  0  0  0
 24 26  1  0  0  0  0
 25 12  1  0  0  0  0
 26 10  1  0  0  0  0
 27  5  2  0  0  0  0
 28 10  1  0  0  0  0
 28 16  1  0  0  0  0
M  END
>  <MODEL>
1

>  <REMARK>
 VINA RESULT:      -3.5      0.000      0.000
  Name = 
  0 active torsions:
  status: ('A' for Active; 'I' for Inactive)
                            x       y       z     vdW  Elec       q    Type
                         _______ _______ _______ _____ _____    ______ ____

>  <TORSDO>
F 0

$$$$
=
 OpenBabel11122414083D

 28 32  0  0  1  0  0  0  0  0999 V2000
  160.8770  208.9860  156.1610 C   0  0  0  0  0  0  0  0  0  0  0  0
  157.2390  211.3000  153.5490 F   0  0  0  0  0  0  0  0  0  0  0  0
  162.6750  208.2750  151.7810 O   0  0  0  0  0  0  0  0  0  0  0  0
  163.0430  210.7620  156.2240 C   0  0  0  0  0  3  0  0  0  0  0  0
  161.3900  210.2750  151.5020 C   0  0  0  0  0  0  0  0  0  0  0  0
  159.7690  207.9810  156.0850 C   0  0  0  0  0  2  0  0  0  0  0  0
  157.5470  212.6340  155.4690 C   0  0  0  0  0  1  0  0  0  0  0  0
  158.0290  212.3150  154.0670 C   0  0  1  0  0  0  0  0  0  0  0  0
  158.5340  213.3080  151.8630 C   0  0  1  0  0  3  0  0  0  0  0  0
  159.5170  211.9010  154.1260 C   0  0  2  0  0  3  0  0  0  0  0  0
  162.3230  206.9720  154.4510 O   0  0  0  0  0  1  0  0  0  0  0  0
  159.6910  209.6950  153.0730 C   0  0  1  0  0  3  0  0  0  0  0  0
  159.9270  213.2220  152.0460 O   0  0  0  0  0  0  0  0  0  0  0  0
  157.8520  213.5520  153.2000 C   0  0  0  0  0  2  0  0  0  0  0  0
  161.0030  206.5350  154.3210 C   0  0  2  0  0  3  0  0  0  0  0  0
  160.8630  210.1320  155.3400 C   0  0  0  0  0  0  0  0  0  0  0  0
  161.6870  208.9950  152.0820 C   0  0  0  0  0  0  0  0  0  0  0  0
  158.2220  214.4530  150.9240 C   0  0  0  0  0  1  0  0  0  0  0  0
  160.2770  207.2170  153.1590 C   0  0  0  0  0  2  0  0  0  0  0  0
  161.9670  211.0020  155.3680 C   0  0  0  0  0  3  0  0  0  0  0  0
  161.9530  208.7630  157.0320 C   0  0  0  0  0  3  0  0  0  0  0  0
  163.0310  209.6490  157.0650 C   0  0  0  0  0  3  0  0  0  0  0  0
  160.2560  206.5930  155.6590 C   0  0  0  0  0  2  0  0  0  0  0  0
  160.0790  210.7560  152.0140 C   0  0  1  0  0  3  0  0  0  0  0  0
  160.6760  208.6110  152.9970 N   0  0  0  0  0  0  0  0  0  0  0  0
  160.2450  212.0560  152.7840 C   0  0  2  0  0  3  0  0  0  0  0  0
  162.1040  210.8710  150.6530 O   0  0  0  0  0  0  0  0  0  0  0  0
  159.6690  210.4120  154.4410 C   0  0  1  0  0  3  0  0  0  0  0  0
  1 21  1  0  0  0  0
  2  8  1  0  0  0  0
  3 17  2  0  0  0  0
  4 22  1  0  0  0  0
  5 24  1  0  0  0  0
  5 17  1  0  0  0  0
  6  1  1  0  0  0  0
  8 10  1  0  0  0  0
  8  7  1  1  0  0  0
  9 18  1  6  0  0  0
  9 13  1  0  0  0  0
  9 14  1  0  0  0  0
 10 28  1  0  0  0  0
 12 28  1  0  0  0  0
 13 26  1  0  0  0  0
 14  8  1  0  0  0  0
 15 11  1  0  0  0  0
 15 23  1  0  0  0  0
 16 20  1  0  0  0  0
 16  1  2  0  0  0  0
 17 25  1  0  0  0  0
 19 15  1  0  0  0  0
 20  4  2  0  0  0  0
 21 22  2  0  0  0  0
 23  6  1  0  0  0  0
 24 26  1  0  0  0  0
 24 12  1  0  0  0  0
 25 12  1  0  0  0  0
 25 19  1  0  0  0  0
 26 10  1  0  0  0  0
 27  5  2  0  0  0  0
 28 16  1  0  0  0  0
M  END
>  <MODEL>
2

>  <REMARK>
 VINA RESULT:      -3.5      1.650      2.324
  Name = 
  0 active torsions:
  status: ('A' for Active; 'I' for Inactive)
                            x       y       z     vdW  Elec       q    Type
                         _______ _______ _______ _____ _____    ______ ____

>  <TORSDO>
F 0

$$$$
=
 OpenBabel11122414083D

 28 32  0  0  1  0  0  0  0  0999 V2000
  157.5210  211.5670  156.3400 C   0  0  0  0  0  0  0  0  0  0  0  0
  161.9440  209.4800  155.1190 F   0  0  0  0  0  0  0  0  0  0  0  0
  158.3920  214.1550  152.4070 O   0  0  0  0  0  0  0  0  0  0  0  0
  155.6280  210.4620  154.5950 C   0  0  0  0  0  3  0  0  0  0  0  0
  159.5820  212.1240  151.9730 C   0  0  0  0  0  0  0  0  0  0  0  0
  158.5150  212.2350  157.2400 C   0  0  0  0  0  2  0  0  0  0  0  0
  160.6190  207.6850  155.8830 C   0  0  0  0  0  1  0  0  0  0  0  0
  160.9790  208.5730  154.7080 C   0  0  1  0  0  0  0  0  0  0  0  0
  161.7250  208.5530  152.3540 C   0  0  1  0  0  3  0  0  0  0  0  0
  159.7040  209.2910  154.2080 C   0  0  2  0  0  3  0  0  0  0  0  0
  157.2720  214.3330  155.1750 O   0  0  0  0  0  1  0  0  0  0  0  0
  160.1740  211.6960  154.2440 C   0  0  1  0  0  3  0  0  0  0  0  0
  160.4560  208.9070  151.8580 O   0  0  0  0  0  0  0  0  0  0  0  0
  161.5700  207.7060  153.6080 C   0  0  0  0  0  2  0  0  0  0  0  0
  158.4620  214.4530  155.8970 C   0  0  2  0  0  3  0  0  0  0  0  0
  157.9530  210.8060  155.2350 C   0  0  0  0  0  0  0  0  0  0  0  0
  159.0460  213.1570  152.8130 C   0  0  0  0  0  0  0  0  0  0  0  0
  162.4710  207.7610  151.3020 C   0  0  0  0  0  1  0  0  0  0  0  0
  159.6870  214.0570  155.0690 C   0  0  0  0  0  2  0  0  0  0  0  0
  156.9920  210.2770  154.3570 C   0  0  0  0  0  3  0  0  0  0  0  0
  156.1500  211.7320  156.5830 C   0  0  0  0  0  3  0  0  0  0  0  0
  155.2070  211.1800  155.7140 C   0  0  0  0  0  3  0  0  0  0  0  0
  158.3650  213.7590  157.2610 C   0  0  0  0  0  2  0  0  0  0  0  0
  160.3980  211.1920  152.7970 C   0  0  1  0  0  3  0  0  0  0  0  0
  159.4090  212.9450  154.1660 N   0  0  0  0  0  0  0  0  0  0  0  0
  159.8150  209.7890  152.7610 C   0  0  2  0  0  3  0  0  0  0  0  0
  159.4280  212.0490  150.7250 O   0  0  0  0  0  0  0  0  0  0  0  0
  159.4370  210.5700  155.0030 C   0  0  1  0  0  3  0  0  0  0  0  0
  1 21  1  0  0  0  0
  1  6  1  0  0  0  0
  3 17  2  0  0  0  0
  4 22  1  0  0  0  0
  5 24  1  0  0  0  0
  5 17  1  0  0  0  0
  6 23  1  0  0  0  0
  8  2  1  0  0  0  0
  8  7  1  1  0  0  0
  9 18  1  6  0  0  0
  9 14  1  0  0  0  0
 10  8  1  0  0  0  0
 10 28  1  0  0  0  0
 11 15  1  0  0  0  0
 12 28  1  0  0  0  0
 13  9  1  0  0  0  0
 13 26  1  0  0  0  0
 14  8  1  0  0  0  0
 15 23  1  0  0  0  0
 16  1  2  0  0  0  0
 17 25  1  0  0  0  0
 19 15  1  0  0  0  0
 20  4  2  0  0  0  0
 20 16  1  0  0  0  0
 22 21  2  0  0  0  0
 24 12  1  0  0  0  0
 25 12  1  0  0  0  0
 25 19  1  0  0  0  0
 26 24  1  0  0  0  0
 26 10  1  0  0  0  0
 27  5  2  0  0  0  0
 28 16  1  0  0  0  0
M  END
>  <MODEL>
3

>  <REMARK>
 VINA RESULT:      -2.5      2.270      5.493
  Name = 
  0 active torsions:
  status: ('A' for Active; 'I' for Inactive)
                            x       y       z     vdW  Elec       q    Type
                         _______ _______ _______ _____ _____    ______ ____

>  <TORSDO>
F 0

$$$$
=
 OpenBabel11122414083D

 28 32  0  0  1  0  0  0  0  0999 V2000
  156.6740  211.4160  156.3830 C   0  0  0  0  0  0  0  0  0  0  0  0
  161.5340  210.8740  155.1580 F   0  0  0  0  0  0  0  0  0  0  0  0
  156.6340  214.0650  152.3950 O   0  0  0  0  0  0  0  0  0  0  0  0
  155.2450  209.7140  154.6770 C   0  0  0  0  0  3  0  0  0  0  0  0
  158.4240  212.5290  151.9870 C   0  0  0  0  0  0  0  0  0  0  0  0
  157.3960  212.3920  157.2600 C   0  0  0  0  0  2  0  0  0  0  0  0
  160.8750  208.7600  155.9690 C   0  0  0  0  0  1  0  0  0  0  0  0
  160.9190  209.6920  154.7740 C   0  0  1  0  0  0  0  0  0  0  0  0
  161.6230  209.8690  152.4130 C   0  0  1  0  0  3  0  0  0  0  0  0
  159.4780  209.9410  154.2730 C   0  0  2  0  0  3  0  0  0  0  0  0
  155.5260  213.9220  155.1690 O   0  0  0  0  0  1  0  0  0  0  0  0
  159.1300  212.3670  154.2600 C   0  0  1  0  0  3  0  0  0  0  0  0
  160.3070  209.7760  151.9230 O   0  0  0  0  0  0  0  0  0  0  0  0
  161.7590  209.0450  153.6850 C   0  0  0  0  0  2  0  0  0  0  0  0
  156.6120  214.4410  155.8770 C   0  0  2  0  0  3  0  0  0  0  0  0
  157.3290  210.8170  155.2880 C   0  0  0  0  0  0  0  0  0  0  0  0
  157.5800  213.3460  152.8120 C   0  0  0  0  0  0  0  0  0  0  0  0
  162.5850  209.3450  151.3690 C   0  0  0  0  0  1  0  0  0  0  0  0
  157.8970  214.4530  155.0450 C   0  0  0  0  0  2  0  0  0  0  0  0
  156.5920  209.9830  154.4290 C   0  0  0  0  0  3  0  0  0  0  0  0
  155.3260  211.1260  156.6360 C   0  0  0  0  0  3  0  0  0  0  0  0
  154.6150  210.2770  155.7870 C   0  0  0  0  0  3  0  0  0  0  0  0
  156.7530  213.7820  157.2550 C   0  0  0  0  0  2  0  0  0  0  0  0
  159.5040  211.9340  152.8200 C   0  0  1  0  0  3  0  0  0  0  0  0
  157.9970  213.2930  154.1650 N   0  0  0  0  0  0  0  0  0  0  0  0
  159.4140  210.4170  152.8160 C   0  0  2  0  0  3  0  0  0  0  0  0
  158.3000  212.3820  150.7420 O   0  0  0  0  0  0  0  0  0  0  0  0
  158.8070  211.0770  155.0470 C   0  0  1  0  0  3  0  0  0  0  0  0
  1 21  1  0  0  0  0
  1  6  1  0  0  0  0
  3 17  2  0  0  0  0
  4 22  1  0  0  0  0
  5 17  1  0  0  0  0
  5 24  1  0  0  0  0
  8  2  1  0  0  0  0
  8  7  1  1  0  0  0
  9 18  1  6  0  0  0
  9 14  1  0  0  0  0
 10  8  1  0  0  0  0
 10 28  1  0  0  0  0
 11 15  1  0  0  0  0
 12 28  1  0  0  0  0
 13  9  1  0  0  0  0
 13 26  1  0  0  0  0
 14  8  1  0  0  0  0
 15 23  1  0  0  0  0
 16  1  2  0  0  0  0
 17 25  1  0  0  0  0
 19 15  1  0  0  0  0
 20  4  2  0  0  0  0
 20 16  1  0  0  0  0
 22 21  2  0  0  0  0
 23  6  1  0  0  0  0
 24 12  1  0  0  0  0
 25 12  1  0  0  0  0
 25 19  1  0  0  0  0
 26 24  1  0  0  0  0
 26 10  1  0  0  0  0
 27  5  2  0  0  0  0
 28 16  1  0  0  0  0
M  END
>  <MODEL>
4

>  <REMARK>
 VINA RESULT:      -2.4      2.155      5.629
  Name = 
  0 active torsions:
  status: ('A' for Active; 'I' for Inactive)
                            x       y       z     vdW  Elec       q    Type
                         _______ _______ _______ _____ _____    ______ ____

>  <TORSDO>
F 0

$$$$
=
 OpenBabel11122414083D

 28 32  0  0  1  0  0  0  0  0999 V2000
  160.8620  209.9680  156.1670 C   0  0  0  0  0  0  0  0  0  0  0  0
  158.4820  211.5810  152.0250 F   0  0  0  0  0  0  0  0  0  0  0  0
  162.4340  206.5900  153.1600 O   0  0  0  0  0  0  0  0  0  0  0  0
  163.5340  210.7620  155.8900 C   0  0  0  0  0  3  0  0  0  0  0  0
  162.0150  208.4380  151.6990 C   0  0  0  0  0  0  0  0  0  0  0  0
  159.4600  209.4620  156.3150 C   0  0  0  0  0  2  0  0  0  0  0  0
  159.1930  213.5460  153.1190 C   0  0  0  0  0  1  0  0  0  0  0  0
  159.5750  212.4210  152.1770 C   0  0  1  0  0  0  0  0  0  0  0  0
  160.5090  211.9230  149.9460 C   0  0  1  0  0  3  0  0  0  0  0  0
  160.7920  211.6650  152.7600 C   0  0  2  0  0  3  0  0  0  0  0  0
  161.5060  207.0320  155.9690 O   0  0  0  0  0  1  0  0  0  0  0  0
  160.1600  209.3030  152.9240 C   0  0  1  0  0  3  0  0  0  0  0  0
  161.7560  211.5250  150.4610 O   0  0  0  0  0  0  0  0  0  0  0  0
  159.9160  213.0170  150.8210 C   0  0  0  0  0  2  0  0  0  0  0  0
  160.1250  207.0180  155.7590 C   0  0  2  0  0  3  0  0  0  0  0  0
  161.3160  210.4660  154.9280 C   0  0  0  0  0  0  0  0  0  0  0  0
  161.7820  207.6230  152.8570 C   0  0  0  0  0  0  0  0  0  0  0  0
  160.6930  212.4510  148.5390 C   0  0  0  0  0  1  0  0  0  0  0  0
  159.7590  207.1860  154.2830 C   0  0  0  0  0  2  0  0  0  0  0  0
  162.6650  210.8390  154.8000 C   0  0  0  0  0  3  0  0  0  0  0  0
  161.7360  209.9110  157.2610 C   0  0  0  0  0  3  0  0  0  0  0  0
  163.0670  210.3090  157.1230 C   0  0  0  0  0  3  0  0  0  0  0  0
  159.4020  207.9830  156.7070 C   0  0  0  0  0  2  0  0  0  0  0  0
  160.9640  209.4880  151.6130 C   0  0  1  0  0  3  0  0  0  0  0  0
  160.6640  208.0970  153.5880 N   0  0  0  0  0  0  0  0  0  0  0  0
  161.5780  210.8750  151.7060 C   0  0  2  0  0  3  0  0  0  0  0  0
  162.9360  208.2590  150.8590 O   0  0  0  0  0  0  0  0  0  0  0  0
  160.3560  210.5910  153.7560 C   0  0  1  0  0  3  0  0  0  0  0  0
  1  6  1  0  0  0  0
  1 21  1  0  0  0  0
  2  8  1  0  0  0  0
  4 22  1  0  0  0  0
  5 17  1  0  0  0  0
  6 23  1  0  0  0  0
  8 10  1  0  0  0  0
  8  7  1  1  0  0  0
  9 18  1  6  0  0  0
  9 13  1  0  0  0  0
  9 14  1  0  0  0  0
 10 28  1  0  0  0  0
 12 25  1  0  0  0  0
 12 28  1  0  0  0  0
 13 26  1  0  0  0  0
 14  8  1  0  0  0  0
 15 11  1  0  0  0  0
 15 23  1  0  0  0  0
 16  1  2  0  0  0  0
 17  3  2  0  0  0  0
 17 25  1  0  0  0  0
 19 15  1  0  0  0  0
 20 16  1  0  0  0  0
 20  4  2  0  0  0  0
 22 21  2  0  0  0  0
 24  5  1  0  0  0  0
 24 26  1  0  0  0  0
 24 12  1  0  0  0  0
 25 19  1  0  0  0  0
 26 10  1  0  0  0  0
 27  5  2  0  0  0  0
 28 16  1  0  0  0  0
M  END
>  <MODEL>
5

>  <REMARK>
 VINA RESULT:      -0.9      2.651      4.050
  Name = 
  0 active torsions:
  status: ('A' for Active; 'I' for Inactive)
                            x       y       z     vdW  Elec       q    Type
                         _______ _______ _______ _____ _____    ______ ____

>  <TORSDO>
F 0

$$$$
