=
 OpenBabel11122412443D

 30 35  0  0  1  0  0  0  0  0999 V2000
  160.0810  212.2030  151.7650 C   0  0  2  0  0  3  0  0  0  0  0  0
  160.6390  213.3030  149.5290 C   0  0  0  0  0  0  0  0  0  0  0  0
  161.5810  208.7960  150.5180 O   0  0  0  0  0  0  0  0  0  0  0  0
  160.0440  210.7930  152.3900 C   0  0  2  0  0  3  0  0  0  0  0  0
  158.7580  212.6570  151.6230 O   0  0  0  0  0  0  0  0  0  0  0  0
  157.3160  211.8380  154.6520 O   0  0  0  0  0  0  0  0  0  0  0  0
  160.6440  209.2020  155.1580 C   0  0  2  0  0  3  0  0  0  0  0  0
  158.1960  211.8850  153.8050 C   0  0  0  0  0  0  0  0  0  0  0  0
  160.4560  208.3050  153.9570 C   0  0  2  0  0  3  0  0  0  0  0  0
  161.2950  207.9710  151.5850 C   0  0  0  0  0  0  0  0  0  0  0  0
  158.3410  213.0810  152.8950 C   0  0  2  0  0  3  0  0  0  0  0  0
  159.2020  210.7680  153.7060 C   0  0  2  0  0  3  0  0  0  0  0  0
  161.2910  213.2980  148.3370 N   0  0  0  0  0  0  0  0  0  0  0  0
  160.6420  206.9410  154.4310 N   0  0  0  0  0  2  0  0  0  0  0  0
  160.0700  208.3950  156.2840 C   0  0  0  0  0  2  0  0  0  0  0  0
  159.8340  214.4290  149.8650 N   0  0  0  0  0  1  0  0  0  0  0  0
  162.0160  210.0550  151.0050 C   0  0  2  0  0  3  0  0  0  0  0  0
  162.1160  212.2850  147.9700 C   0  0  0  0  0  3  0  0  0  0  0  0
  160.7840  212.2150  150.4220 C   0  0  0  0  0  0  0  0  0  0  0  0
  161.4600  210.1590  152.4390 C   0  0  2  0  0  3  0  0  0  0  0  0
  160.9840  206.7590  151.4520 O   0  0  0  0  0  0  0  0  0  0  0  0
  161.4710  208.6720  152.8800 C   0  0  1  0  0  3  0  0  0  0  0  0
  160.2530  206.9530  155.8410 C   0  0  0  0  0  2  0  0  0  0  0  0
  160.9790  211.6840  155.2750 C   0  0  0  0  0  1  0  0  0  0  0  0
  162.3310  211.2170  148.8360 C   0  0  0  0  0  3  0  0  0  0  0  0
  161.6790  211.1820  150.0700 C   0  0  0  0  0  0  0  0  0  0  0  0
  159.9710  210.5720  155.0260 C   0  0  2  0  0  3  0  0  0  0  0  0
  157.0360  213.8540  152.7690 C   0  0  0  0  0  2  0  0  0  0  0  0
  155.3150  214.0780  151.1440 O   0  0  0  0  0  1  0  0  0  0  0  0
  156.6990  214.0790  151.3070 C   0  0  0  0  0  2  0  0  0  0  0  0
  1 19  1  6  0  0  0
  1  4  1  0  0  0  0
  2 16  1  0  0  0  0
  2 19  1  0  0  0  0
  3 17  1  0  0  0  0
  3 10  1  0  0  0  0
  4 20  1  0  0  0  0
  4 12  1  0  0  0  0
  5  1  1  0  0  0  0
  5 11  1  0  0  0  0
  7 15  1  0  0  0  0
  8  6  2  0  0  0  0
  9 14  1  0  0  0  0
  9  7  1  0  0  0  0
 10 22  1  0  0  0  0
 11  8  1  0  0  0  0
 12  8  1  0  0  0  0
 12 27  1  0  0  0  0
 13  2  2  0  0  0  0
 14 23  1  0  0  0  0
 17 20  1  0  0  0  0
 18 13  1  0  0  0  0
 18 25  2  0  0  0  0
 20 22  1  0  0  0  0
 21 10  2  0  0  0  0
 22  9  1  0  0  0  0
 23 15  1  0  0  0  0
 25 26  1  0  0  0  0
 26 19  2  0  0  0  0
 26 17  1  0  0  0  0
 27  7  1  0  0  0  0
 27 24  1  0  0  0  0
 28 11  1  0  0  0  0
 29 30  1  0  0  0  0
 30 28  1  0  0  0  0
M  END
>  <MODEL>
1

>  <REMARK>
 VINA RESULT:      -6.3      0.000      0.000
  Name = 
  2 active torsions:
  status: ('A' for Active; 'I' for Inactive)
    1  A    between atoms: C_11  and  C_28
    2  A    between atoms: C_28  and  C_30
                            x       y       z     vdW  Elec       q    Type
                         _______ _______ _______ _____ _____    ______ ____

>  <TORSDO>
F 2

$$$$
=
 OpenBabel11122412443D

 30 35  0  0  1  0  0  0  0  0999 V2000
  161.3780  204.7040  148.7210 C   0  0  2  0  0  3  0  0  0  0  0  0
  161.0110  202.1960  148.4050 C   0  0  0  0  0  0  0  0  0  0  0  0
  160.6580  204.3720  152.5660 O   0  0  0  0  0  0  0  0  0  0  0  0
  161.1810  205.7790  149.8090 C   0  0  2  0  0  3  0  0  0  0  0  0
  160.4470  204.9380  147.6940 O   0  0  0  0  0  0  0  0  0  0  0  0
  160.6560  208.3500  147.2080 O   0  0  0  0  0  0  0  0  0  0  0  0
  162.5470  208.4560  151.0410 C   0  0  2  0  0  3  0  0  0  0  0  0
  160.8990  207.2760  147.7370 C   0  0  0  0  0  0  0  0  0  0  0  0
  161.4450  207.8750  151.8960 C   0  0  2  0  0  3  0  0  0  0  0  0
  160.7110  205.6920  152.9630 C   0  0  0  0  0  0  0  0  0  0  0  0
  160.9530  206.0020  146.9290 C   0  0  2  0  0  3  0  0  0  0  0  0
  161.2230  207.2210  149.2080 C   0  0  2  0  0  3  0  0  0  0  0  0
  160.8770  200.9450  148.9170 N   0  0  0  0  0  0  0  0  0  0  0  0
  161.3550  208.7180  153.0790 N   0  0  0  0  0  2  0  0  0  0  0  0
  162.4160  209.9330  151.2700 C   0  0  0  0  0  2  0  0  0  0  0  0
  160.9710  202.3660  146.9910 N   0  0  0  0  0  1  0  0  0  0  0  0
  161.6990  204.1220  151.6360 C   0  0  2  0  0  3  0  0  0  0  0  0
  160.9560  200.6990  150.2490 C   0  0  0  0  0  3  0  0  0  0  0  0
  161.2100  203.3000  149.2680 C   0  0  0  0  0  0  0  0  0  0  0  0
  162.0700  205.4990  151.0500 C   0  0  2  0  0  3  0  0  0  0  0  0
  159.9700  206.1690  153.8610 O   0  0  0  0  0  0  0  0  0  0  0  0
  161.7840  206.4320  152.2550 C   0  0  1  0  0  3  0  0  0  0  0  0
  161.8090  210.0430  152.6580 C   0  0  0  0  0  2  0  0  0  0  0  0
  163.7480  207.4690  149.0750 C   0  0  0  0  0  1  0  0  0  0  0  0
  161.2020  201.7440  151.1350 C   0  0  0  0  0  3  0  0  0  0  0  0
  161.3440  203.0450  150.6500 C   0  0  0  0  0  0  0  0  0  0  0  0
  162.4460  208.0900  149.5570 C   0  0  2  0  0  3  0  0  0  0  0  0
  160.1570  206.1200  145.6370 C   0  0  0  0  0  2  0  0  0  0  0  0
  162.1740  205.0860  144.9230 O   0  0  0  0  0  1  0  0  0  0  0  0
  160.8880  205.4240  144.5060 C   0  0  0  0  0  2  0  0  0  0  0  0
  1  5  1  6  0  0  0
  1 19  1  0  0  0  0
  1  4  1  0  0  0  0
  2 13  2  0  0  0  0
  2 19  1  0  0  0  0
  3 10  1  0  0  0  0
  4 20  1  0  0  0  0
  6  8  2  0  0  0  0
  7 15  1  0  0  0  0
  7  9  1  0  0  0  0
  8 12  1  0  0  0  0
  9 22  1  0  0  0  0
  9 14  1  0  0  0  0
 10 21  2  0  0  0  0
 11  5  1  0  0  0  0
 11  8  1  0  0  0  0
 12 27  1  0  0  0  0
 12  4  1  0  0  0  0
 13 18  1  0  0  0  0
 15 23  1  0  0  0  0
 16  2  1  0  0  0  0
 17  3  1  0  0  0  0
 18 25  2  0  0  0  0
 19 26  2  0  0  0  0
 20 17  1  0  0  0  0
 20 22  1  0  0  0  0
 22 10  1  0  0  0  0
 23 14  1  0  0  0  0
 24 27  1  0  0  0  0
 26 25  1  0  0  0  0
 26 17  1  0  0  0  0
 27  7  1  0  0  0  0
 28 11  1  0  0  0  0
 30 29  1  0  0  0  0
 30 28  1  0  0  0  0
M  END
>  <MODEL>
2

>  <REMARK>
 VINA RESULT:      -5.4      4.651      8.150
  Name = 
  2 active torsions:
  status: ('A' for Active; 'I' for Inactive)
    1  A    between atoms: C_11  and  C_28
    2  A    between atoms: C_28  and  C_30
                            x       y       z     vdW  Elec       q    Type
                         _______ _______ _______ _____ _____    ______ ____

>  <TORSDO>
F 2

$$$$
=
 OpenBabel11122412443D

 30 35  0  0  1  0  0  0  0  0999 V2000
  158.8610  212.2860  153.0930 C   0  0  2  0  0  3  0  0  0  0  0  0
  158.8660  213.6320  150.9230 C   0  0  0  0  0  0  0  0  0  0  0  0
  161.1410  209.5440  151.4530 O   0  0  0  0  0  0  0  0  0  0  0  0
  159.2860  210.8920  153.5970 C   0  0  2  0  0  3  0  0  0  0  0  0
  157.4550  212.3430  153.0890 O   0  0  0  0  0  0  0  0  0  0  0  0
  156.6030  210.9610  156.1360 O   0  0  0  0  0  0  0  0  0  0  0  0
  160.5760  209.3820  156.1670 C   0  0  2  0  0  3  0  0  0  0  0  0
  157.3480  211.3130  155.2330 C   0  0  0  0  0  0  0  0  0  0  0  0
  160.5370  208.5410  154.9120 C   0  0  2  0  0  3  0  0  0  0  0  0
  161.2050  208.6080  152.4640 C   0  0  0  0  0  0  0  0  0  0  0  0
  157.0590  212.5510  154.4200 C   0  0  2  0  0  3  0  0  0  0  0  0
  158.6160  210.5440  154.9650 C   0  0  2  0  0  3  0  0  0  0  0  0
  159.3750  213.8880  149.6890 N   0  0  0  0  0  0  0  0  0  0  0  0
  161.1480  207.2650  155.2530 N   0  0  0  0  0  2  0  0  0  0  0  0
  160.3650  208.3760  157.2610 C   0  0  0  0  0  2  0  0  0  0  0  0
  157.8090  214.4530  151.4120 N   0  0  0  0  0  1  0  0  0  0  0  0
  161.2440  210.8430  152.0120 C   0  0  2  0  0  3  0  0  0  0  0  0
  160.4150  213.1830  149.1780 C   0  0  0  0  0  3  0  0  0  0  0  0
  159.3990  212.5820  151.7070 C   0  0  0  0  0  0  0  0  0  0  0  0
  160.8220  210.6950  153.4860 C   0  0  2  0  0  3  0  0  0  0  0  0
  161.2400  207.3690  152.2530 O   0  0  0  0  0  0  0  0  0  0  0  0
  161.2980  209.2520  153.7980 C   0  0  1  0  0  3  0  0  0  0  0  0
  160.9080  207.0800  156.6840 C   0  0  0  0  0  2  0  0  0  0  0  0
  160.2000  211.8420  156.4690 C   0  0  0  0  0  1  0  0  0  0  0  0
  161.0070  212.1730  149.9310 C   0  0  0  0  0  3  0  0  0  0  0  0
  160.5130  211.8770  151.2030 C   0  0  0  0  0  0  0  0  0  0  0  0
  159.5310  210.5020  156.2030 C   0  0  2  0  0  3  0  0  0  0  0  0
  155.5820  212.9170  154.4560 C   0  0  0  0  0  2  0  0  0  0  0  0
  156.5600  214.4530  155.9830 O   0  0  0  0  0  1  0  0  0  0  0  0
  155.3600  214.1140  155.3600 C   0  0  0  0  0  2  0  0  0  0  0  0
  1 19  1  6  0  0  0
  1  4  1  0  0  0  0
  2 16  1  0  0  0  0
  2 19  1  0  0  0  0
  3 17  1  0  0  0  0
  3 10  1  0  0  0  0
  4 12  1  0  0  0  0
  5  1  1  0  0  0  0
  5 11  1  0  0  0  0
  7 27  1  0  0  0  0
  7 15  1  0  0  0  0
  8  6  2  0  0  0  0
  9 14  1  0  0  0  0
  9  7  1  0  0  0  0
 10 22  1  0  0  0  0
 11 28  1  0  0  0  0
 11  8  1  0  0  0  0
 12  8  1  0  0  0  0
 12 27  1  0  0  0  0
 13  2  2  0  0  0  0
 14 23  1  0  0  0  0
 17 20  1  0  0  0  0
 18 13  1  0  0  0  0
 18 25  2  0  0  0  0
 20  4  1  0  0  0  0
 20 22  1  0  0  0  0
 21 10  2  0  0  0  0
 22  9  1  0  0  0  0
 23 15  1  0  0  0  0
 25 26  1  0  0  0  0
 26 19  2  0  0  0  0
 26 17  1  0  0  0  0
 27 24  1  0  0  0  0
 28 30  1  0  0  0  0
 30 29  1  0  0  0  0
M  END
>  <MODEL>
3

>  <REMARK>
 VINA RESULT:      -4.6      1.493      2.022
  Name = 
  2 active torsions:
  status: ('A' for Active; 'I' for Inactive)
    1  A    between atoms: C_11  and  C_28
    2  A    between atoms: C_28  and  C_30
                            x       y       z     vdW  Elec       q    Type
                         _______ _______ _______ _____ _____    ______ ____

>  <TORSDO>
F 2

$$$$
=
 OpenBabel11122412443D

 30 35  0  0  1  0  0  0  0  0999 V2000
  161.2310  207.6100  150.8690 C   0  0  2  0  0  3  0  0  0  0  0  0
  161.1800  208.8990  153.0740 C   0  0  0  0  0  0  0  0  0  0  0  0
  161.5500  204.2120  152.8080 O   0  0  0  0  0  0  0  0  0  0  0  0
  161.5190  206.1820  150.3640 C   0  0  2  0  0  3  0  0  0  0  0  0
  162.2740  208.4500  150.4380 O   0  0  0  0  0  0  0  0  0  0  0  0
  162.7060  207.5350  147.1370 O   0  0  0  0  0  0  0  0  0  0  0  0
  160.5410  203.9950  148.1700 C   0  0  2  0  0  3  0  0  0  0  0  0
  162.2340  207.4810  148.2630 C   0  0  0  0  0  0  0  0  0  0  0  0
  161.4470  203.4340  149.2410 C   0  0  2  0  0  3  0  0  0  0  0  0
  161.6940  203.3210  151.7650 C   0  0  0  0  0  0  0  0  0  0  0  0
  162.0280  208.7310  149.0840 C   0  0  2  0  0  3  0  0  0  0  0  0
  161.7810  206.1580  148.8240 C   0  0  2  0  0  3  0  0  0  0  0  0
  161.0500  208.9280  154.4260 N   0  0  0  0  0  0  0  0  0  0  0  0
  161.5810  202.0120  148.9610 N   0  0  0  0  0  2  0  0  0  0  0  0
  160.9070  203.1950  146.9560 C   0  0  0  0  0  2  0  0  0  0  0  0
  161.3710  210.1270  152.3770 N   0  0  0  0  0  1  0  0  0  0  0  0
  160.5650  205.1740  152.4670 C   0  0  2  0  0  3  0  0  0  0  0  0
  160.8150  207.8050  155.1510 C   0  0  0  0  0  3  0  0  0  0  0  0
  161.1040  207.6690  152.3780 C   0  0  0  0  0  0  0  0  0  0  0  0
  160.4920  205.1640  150.9280 C   0  0  2  0  0  3  0  0  0  0  0  0
  162.4270  202.3010  151.8290 O   0  0  0  0  0  0  0  0  0  0  0  0
  160.8310  203.6840  150.6140 C   0  0  1  0  0  3  0  0  0  0  0  0
  161.4030  201.8730  147.5160 C   0  0  0  0  0  2  0  0  0  0  0  0
  159.3580  206.2030  148.0570 C   0  0  0  0  0  1  0  0  0  0  0  0
  160.6800  206.5780  154.5090 C   0  0  0  0  0  3  0  0  0  0  0  0
  160.8100  206.5050  153.1210 C   0  0  0  0  0  0  0  0  0  0  0  0
  160.7030  205.5020  147.9400 C   0  0  2  0  0  3  0  0  0  0  0  0
  162.9410  209.8610  148.6280 C   0  0  0  0  0  2  0  0  0  0  0  0
  163.0460  212.2030  148.2430 O   0  0  0  0  0  1  0  0  0  0  0  0
  162.1890  211.1770  148.6360 C   0  0  0  0  0  2  0  0  0  0  0  0
  1  5  1  1  0  0  0
  1 19  1  0  0  0  0
  2 13  1  0  0  0  0
  4  1  1  0  0  0  0
  4 20  1  0  0  0  0
  6  8  2  0  0  0  0
  7  9  1  0  0  0  0
  8 12  1  0  0  0  0
  8 11  1  0  0  0  0
  9 22  1  0  0  0  0
 10 21  2  0  0  0  0
 10  3  1  0  0  0  0
 11  5  1  0  0  0  0
 12  4  1  0  0  0  0
 13 18  2  0  0  0  0
 14  9  1  0  0  0  0
 15 23  1  0  0  0  0
 15  7  1  0  0  0  0
 16  2  1  0  0  0  0
 17  3  1  0  0  0  0
 17 26  1  0  0  0  0
 19  2  2  0  0  0  0
 19 26  1  0  0  0  0
 20 17  1  0  0  0  0
 22 20  1  0  0  0  0
 22 10  1  0  0  0  0
 23 14  1  0  0  0  0
 25 18  1  0  0  0  0
 26 25  2  0  0  0  0
 27 24  1  0  0  0  0
 27  7  1  0  0  0  0
 27 12  1  0  0  0  0
 28 30  1  0  0  0  0
 28 11  1  0  0  0  0
 29 30  1  0  0  0  0
M  END
>  <MODEL>
4

>  <REMARK>
 VINA RESULT:      -4.4      3.806      7.179
  Name = 
  2 active torsions:
  status: ('A' for Active; 'I' for Inactive)
    1  A    between atoms: C_11  and  C_28
    2  A    between atoms: C_28  and  C_30
                            x       y       z     vdW  Elec       q    Type
                         _______ _______ _______ _____ _____    ______ ____

>  <TORSDO>
F 2

$$$$
=
 OpenBabel11122412443D

 30 35  0  0  1  0  0  0  0  0999 V2000
  161.5770  208.5700  151.6660 C   0  0  2  0  0  3  0  0  0  0  0  0
  161.7590  210.9920  150.8770 C   0  0  0  0  0  0  0  0  0  0  0  0
  161.0470  207.3560  147.9700 O   0  0  0  0  0  0  0  0  0  0  0  0
  161.1770  207.1910  151.1030 C   0  0  2  0  0  3  0  0  0  0  0  0
  160.5900  208.9750  152.5820 O   0  0  0  0  0  0  0  0  0  0  0  0
  160.0350  206.1250  154.4510 O   0  0  0  0  0  0  0  0  0  0  0  0
  161.9560  204.0410  151.2490 C   0  0  2  0  0  3  0  0  0  0  0  0
  160.5210  206.8040  153.5580 C   0  0  0  0  0  0  0  0  0  0  0  0
  161.0310  204.3960  150.1090 C   0  0  2  0  0  3  0  0  0  0  0  0
  160.8200  206.0090  148.1600 C   0  0  0  0  0  0  0  0  0  0  0  0
  160.8310  208.2660  153.7710 C   0  0  2  0  0  3  0  0  0  0  0  0
  160.8870  206.1640  152.2440 C   0  0  2  0  0  3  0  0  0  0  0  0
  161.9150  211.9050  149.8840 N   0  0  0  0  0  0  0  0  0  0  0  0
  160.7890  203.1620  149.3770 N   0  0  0  0  0  2  0  0  0  0  0  0
  161.5120  202.6610  151.6350 C   0  0  0  0  0  2  0  0  0  0  0  0
  161.6460  211.4530  152.2210 N   0  0  0  0  0  1  0  0  0  0  0  0
  162.0930  207.7800  148.8300 C   0  0  2  0  0  3  0  0  0  0  0  0
  162.0810  211.5390  148.5880 C   0  0  0  0  0  3  0  0  0  0  0  0
  161.7340  209.6100  150.5750 C   0  0  0  0  0  0  0  0  0  0  0  0
  162.1380  206.7430  149.9690 C   0  0  2  0  0  3  0  0  0  0  0  0
  160.0170  205.3420  147.4600 O   0  0  0  0  0  0  0  0  0  0  0  0
  161.6870  205.4560  149.2300 C   0  0  1  0  0  3  0  0  0  0  0  0
  160.9310  202.0840  150.3550 C   0  0  0  0  0  2  0  0  0  0  0  0
  163.2930  205.5290  152.7610 C   0  0  0  0  0  1  0  0  0  0  0  0
  162.1150  210.1910  148.2460 C   0  0  0  0  0  3  0  0  0  0  0  0
  161.9560  209.2200  149.2360 C   0  0  0  0  0  0  0  0  0  0  0  0
  161.8990  205.0170  152.4290 C   0  0  2  0  0  3  0  0  0  0  0  0
  159.9950  208.8620  154.8940 C   0  0  0  0  0  2  0  0  0  0  0  0
  161.7910  208.5070  156.4100 O   0  0  0  0  0  1  0  0  0  0  0  0
  160.8950  209.4710  155.9510 C   0  0  0  0  0  2  0  0  0  0  0  0
  1 19  1  6  0  0  0
  1  5  1  0  0  0  0
  2 16  1  0  0  0  0
  3 10  1  0  0  0  0
  3 17  1  0  0  0  0
  4  1  1  0  0  0  0
  4 12  1  0  0  0  0
  5 11  1  0  0  0  0
  7 15  1  0  0  0  0
  7 27  1  0  0  0  0
  8 11  1  0  0  0  0
  8  6  2  0  0  0  0
  9  7  1  0  0  0  0
 10 22  1  0  0  0  0
 11 28  1  0  0  0  0
 12 27  1  0  0  0  0
 12  8  1  0  0  0  0
 13  2  2  0  0  0  0
 14  9  1  0  0  0  0
 14 23  1  0  0  0  0
 17 26  1  0  0  0  0
 17 20  1  0  0  0  0
 18 13  1  0  0  0  0
 19  2  1  0  0  0  0
 20  4  1  0  0  0  0
 21 10  2  0  0  0  0
 22 20  1  0  0  0  0
 22  9  1  0  0  0  0
 23 15  1  0  0  0  0
 25 18  2  0  0  0  0
 25 26  1  0  0  0  0
 26 19  2  0  0  0  0
 27 24  1  0  0  0  0
 28 30  1  0  0  0  0
 30 29  1  0  0  0  0
M  END
>  <MODEL>
5

>  <REMARK>
 VINA RESULT:      -4.3      3.200      5.269
  Name = 
  2 active torsions:
  status: ('A' for Active; 'I' for Inactive)
    1  A    between atoms: C_11  and  C_28
    2  A    between atoms: C_28  and  C_30
                            x       y       z     vdW  Elec       q    Type
                         _______ _______ _______ _____ _____    ______ ____

>  <TORSDO>
F 2

$$$$
=
 OpenBabel11122412443D

 30 35  0  0  1  0  0  0  0  0999 V2000
  160.2760  212.6270  150.6220 C   0  0  2  0  0  3  0  0  0  0  0  0
  159.0590  212.8610  152.8550 C   0  0  0  0  0  0  0  0  0  0  0  0
  157.1180  213.9560  148.7070 O   0  0  0  0  0  0  0  0  0  0  0  0
  159.9600  212.6850  149.1140 C   0  0  2  0  0  3  0  0  0  0  0  0
  160.5730  211.2940  150.9590 O   0  0  0  0  0  0  0  0  0  0  0  0
  162.6890  210.2940  148.4210 O   0  0  0  0  0  0  0  0  0  0  0  0
  161.1900  213.6750  146.2750 C   0  0  2  0  0  3  0  0  0  0  0  0
  161.9390  211.0470  149.0240 C   0  0  0  0  0  0  0  0  0  0  0  0
  159.7210  213.3250  146.2240 C   0  0  2  0  0  3  0  0  0  0  0  0
  157.5250  213.8270  147.3950 C   0  0  0  0  0  0  0  0  0  0  0  0
  161.8900  211.0570  150.5330 C   0  0  2  0  0  3  0  0  0  0  0  0
  161.0960  212.0350  148.2610 C   0  0  2  0  0  3  0  0  0  0  0  0
  158.0260  213.3400  153.5960 N   0  0  0  0  0  0  0  0  0  0  0  0
  159.2850  213.5830  144.8600 N   0  0  0  0  0  2  0  0  0  0  0  0
  161.6880  213.2670  144.9200 C   0  0  0  0  0  2  0  0  0  0  0  0
  160.0760  212.1050  153.5050 N   0  0  0  0  0  1  0  0  0  0  0  0
  158.1970  214.4480  149.4840 C   0  0  2  0  0  3  0  0  0  0  0  0
  157.0480  214.1110  153.0560 C   0  0  0  0  0  3  0  0  0  0  0  0
  159.1260  213.1350  151.4680 C   0  0  0  0  0  0  0  0  0  0  0  0
  159.4720  214.0980  148.6920 C   0  0  2  0  0  3  0  0  0  0  0  0
  156.7450  213.5060  146.4620 O   0  0  0  0  0  0  0  0  0  0  0  0
  158.9580  214.1780  147.2310 C   0  0  1  0  0  3  0  0  0  0  0  0
  160.4690  213.3950  144.0210 C   0  0  0  0  0  2  0  0  0  0  0  0
  162.6970  214.0080  148.2510 C   0  0  0  0  0  1  0  0  0  0  0  0
  157.0960  214.4510  151.7070 C   0  0  0  0  0  3  0  0  0  0  0  0
  158.1400  213.9780  150.9100 C   0  0  0  0  0  0  0  0  0  0  0  0
  161.9590  212.9820  147.4050 C   0  0  2  0  0  3  0  0  0  0  0  0
  162.3830  209.7420  151.1210 C   0  0  0  0  0  2  0  0  0  0  0  0
  161.0870  207.8430  150.5200 O   0  0  0  0  0  1  0  0  0  0  0  0
  161.2080  208.8520  151.4740 C   0  0  0  0  0  2  0  0  0  0  0  0
  1  5  1  1  0  0  0
  1 19  1  0  0  0  0
  2 16  1  0  0  0  0
  2 13  1  0  0  0  0
  3 17  1  0  0  0  0
  4  1  1  0  0  0  0
  6  8  2  0  0  0  0
  7 27  1  0  0  0  0
  8 11  1  0  0  0  0
  9  7  1  0  0  0  0
  9 22  1  0  0  0  0
 10  3  1  0  0  0  0
 11  5  1  0  0  0  0
 11 28  1  0  0  0  0
 12  8  1  0  0  0  0
 12  4  1  0  0  0  0
 14  9  1  0  0  0  0
 15  7  1  0  0  0  0
 17 26  1  0  0  0  0
 18 13  2  0  0  0  0
 19  2  2  0  0  0  0
 20  4  1  0  0  0  0
 20 17  1  0  0  0  0
 21 10  2  0  0  0  0
 22 10  1  0  0  0  0
 22 20  1  0  0  0  0
 23 14  1  0  0  0  0
 23 15  1  0  0  0  0
 25 18  1  0  0  0  0
 26 19  1  0  0  0  0
 26 25  2  0  0  0  0
 27 24  1  0  0  0  0
 27 12  1  0  0  0  0
 28 30  1  0  0  0  0
 29 30  1  0  0  0  0
M  END
>  <MODEL>
6

>  <REMARK>
 VINA RESULT:      -4.2      2.711      7.482
  Name = 
  2 active torsions:
  status: ('A' for Active; 'I' for Inactive)
    1  A    between atoms: C_11  and  C_28
    2  A    between atoms: C_28  and  C_30
                            x       y       z     vdW  Elec       q    Type
                         _______ _______ _______ _____ _____    ______ ____

>  <TORSDO>
F 2

$$$$
=
 OpenBabel11122412443D

 30 35  0  0  1  0  0  0  0  0999 V2000
  161.1400  208.2840  153.1150 C   0  0  2  0  0  3  0  0  0  0  0  0
  160.8200  207.0570  155.3310 C   0  0  0  0  0  0  0  0  0  0  0  0
  158.9540  211.2800  154.4030 O   0  0  0  0  0  0  0  0  0  0  0  0
  160.5770  209.5160  152.3760 C   0  0  2  0  0  3  0  0  0  0  0  0
  160.6970  207.1290  152.4460 O   0  0  0  0  0  0  0  0  0  0  0  0
  161.2260  207.8930  149.1210 O   0  0  0  0  0  0  0  0  0  0  0  0
  161.4620  211.9580  150.4250 C   0  0  2  0  0  3  0  0  0  0  0  0
  161.1960  208.0920  150.3260 C   0  0  0  0  0  0  0  0  0  0  0  0
  160.0890  212.1200  151.0350 C   0  0  2  0  0  3  0  0  0  0  0  0
  158.9030  212.0770  153.2790 C   0  0  0  0  0  0  0  0  0  0  0  0
  161.5080  206.9890  151.3080 C   0  0  2  0  0  3  0  0  0  0  0  0
  160.9130  209.4760  150.8510 C   0  0  2  0  0  3  0  0  0  0  0  0
  160.4420  207.0480  156.6360 N   0  0  0  0  0  0  0  0  0  0  0  0
  159.5780  213.3970  150.5610 N   0  0  0  0  0  2  0  0  0  0  0  0
  161.3150  212.5930  149.0740 C   0  0  0  0  0  2  0  0  0  0  0  0
  161.3460  205.8610  154.7620 N   0  0  0  0  0  1  0  0  0  0  0  0
  160.2650  210.7580  154.5460 C   0  0  2  0  0  3  0  0  0  0  0  0
  159.9810  208.1610  157.2610 C   0  0  0  0  0  3  0  0  0  0  0  0
  160.7110  208.2430  154.5680 C   0  0  0  0  0  0  0  0  0  0  0  0
  160.8940  210.8290  153.1410 C   0  0  2  0  0  3  0  0  0  0  0  0
  157.8900  212.7520  152.9610 O   0  0  0  0  0  0  0  0  0  0  0  0
  160.1980  212.0850  152.5560 C   0  0  1  0  0  3  0  0  0  0  0  0
  160.2170  213.6250  149.2650 C   0  0  0  0  0  2  0  0  0  0  0  0
  163.2960  210.3470  150.9960 C   0  0  0  0  0  1  0  0  0  0  0  0
  159.9030  209.3650  156.5670 C   0  0  0  0  0  3  0  0  0  0  0  0
  160.2800  209.4170  155.2240 C   0  0  0  0  0  0  0  0  0  0  0  0
  161.9370  210.5040  150.3320 C   0  0  2  0  0  3  0  0  0  0  0  0
  161.2890  205.6120  150.6970 C   0  0  0  0  0  2  0  0  0  0  0  0
  160.8160  203.7340  152.0750 O   0  0  0  0  0  1  0  0  0  0  0  0
  161.8530  204.5390  151.6070 C   0  0  0  0  0  2  0  0  0  0  0  0
  1  5  1  6  0  0  0
  1 19  1  0  0  0  0
  2 13  1  0  0  0  0
  3 17  1  0  0  0  0
  4  1  1  0  0  0  0
  4 20  1  0  0  0  0
  6  8  2  0  0  0  0
  7  9  1  0  0  0  0
  8 12  1  0  0  0  0
  8 11  1  0  0  0  0
  9 22  1  0  0  0  0
 10  3  1  0  0  0  0
 11  5  1  0  0  0  0
 12  4  1  0  0  0  0
 13 18  2  0  0  0  0
 14  9  1  0  0  0  0
 15 23  1  0  0  0  0
 15  7  1  0  0  0  0
 16  2  1  0  0  0  0
 17 26  1  0  0  0  0
 19 26  1  0  0  0  0
 19  2  2  0  0  0  0
 20 17  1  0  0  0  0
 21 10  2  0  0  0  0
 22 20  1  0  0  0  0
 22 10  1  0  0  0  0
 23 14  1  0  0  0  0
 25 18  1  0  0  0  0
 26 25  2  0  0  0  0
 27  7  1  0  0  0  0
 27 12  1  0  0  0  0
 27 24  1  0  0  0  0
 28 11  1  0  0  0  0
 28 30  1  0  0  0  0
 30 29  1  0  0  0  0
M  END
>  <MODEL>
7

>  <REMARK>
 VINA RESULT:      -3.7      1.553      7.159
  Name = 
  2 active torsions:
  status: ('A' for Active; 'I' for Inactive)
    1  A    between atoms: C_11  and  C_28
    2  A    between atoms: C_28  and  C_30
                            x       y       z     vdW  Elec       q    Type
                         _______ _______ _______ _____ _____    ______ ____

>  <TORSDO>
F 2

$$$$
=
 OpenBabel11122412443D

 30 35  0  0  1  0  0  0  0  0999 V2000
  160.7200  203.6080  147.7500 C   0  0  2  0  0  3  0  0  0  0  0  0
  160.6920  203.8430  145.2070 C   0  0  0  0  0  0  0  0  0  0  0  0
  162.0260  207.2910  148.1230 O   0  0  0  0  0  0  0  0  0  0  0  0
  161.2390  204.3760  148.9830 C   0  0  2  0  0  3  0  0  0  0  0  0
  161.4880  202.4400  147.6030 O   0  0  0  0  0  0  0  0  0  0  0  0
  161.6560  201.1990  150.8210 O   0  0  0  0  0  0  0  0  0  0  0  0
  160.4680  205.1180  152.0500 C   0  0  2  0  0  3  0  0  0  0  0  0
  161.3640  201.9930  149.9390 C   0  0  0  0  0  0  0  0  0  0  0  0
  161.6110  205.9300  151.4860 C   0  0  2  0  0  3  0  0  0  0  0  0
  162.2170  207.3710  149.4870 C   0  0  0  0  0  0  0  0  0  0  0  0
  161.0070  201.5210  148.5500 C   0  0  2  0  0  3  0  0  0  0  0  0
  161.2890  203.4650  150.2510 C   0  0  2  0  0  3  0  0  0  0  0  0
  160.7420  204.6120  144.0880 N   0  0  0  0  0  0  0  0  0  0  0  0
  162.0100  206.8580  152.5330 N   0  0  0  0  0  2  0  0  0  0  0  0
  160.8310  204.9740  153.4990 C   0  0  0  0  0  2  0  0  0  0  0  0
  160.5160  202.4360  145.0650 N   0  0  0  0  0  1  0  0  0  0  0  0
  160.8200  206.5930  147.8610 C   0  0  2  0  0  3  0  0  0  0  0  0
  160.8560  205.9630  144.1470 C   0  0  0  0  0  3  0  0  0  0  0  0
  160.7890  204.4410  146.4860 C   0  0  0  0  0  0  0  0  0  0  0  0
  160.5420  205.7570  149.1240 C   0  0  2  0  0  3  0  0  0  0  0  0
  163.1550  208.0240  150.0120 O   0  0  0  0  0  0  0  0  0  0  0  0
  161.1480  206.6590  150.2300 C   0  0  1  0  0  3  0  0  0  0  0  0
  161.6720  206.2030  153.7960 C   0  0  0  0  0  2  0  0  0  0  0  0
  158.8320  203.6170  150.8850 C   0  0  0  0  0  1  0  0  0  0  0  0
  160.9050  206.6030  145.3810 C   0  0  0  0  0  3  0  0  0  0  0  0
  160.8580  205.8500  146.5550 C   0  0  0  0  0  0  0  0  0  0  0  0
  160.2680  203.7610  151.3670 C   0  0  2  0  0  3  0  0  0  0  0  0
  161.5820  200.1430  148.2570 C   0  0  0  0  0  2  0  0  0  0  0  0
  161.5810  198.5060  146.5340 O   0  0  0  0  0  1  0  0  0  0  0  0
  161.5810  199.8810  146.7640 C   0  0  0  0  0  2  0  0  0  0  0  0
  1 19  1  6  0  0  0
  1  4  1  0  0  0  0
  2 19  1  0  0  0  0
  3 10  1  0  0  0  0
  4 20  1  0  0  0  0
  4 12  1  0  0  0  0
  5  1  1  0  0  0  0
  5 11  1  0  0  0  0
  7 15  1  0  0  0  0
  8 12  1  0  0  0  0
  8  6  2  0  0  0  0
  9  7  1  0  0  0  0
  9 14  1  0  0  0  0
 10 21  2  0  0  0  0
 10 22  1  0  0  0  0
 11  8  1  0  0  0  0
 12 27  1  0  0  0  0
 13 18  1  0  0  0  0
 13  2  2  0  0  0  0
 14 23  1  0  0  0  0
 15 23  1  0  0  0  0
 16  2  1  0  0  0  0
 17  3  1  0  0  0  0
 17 20  1  0  0  0  0
 18 25  2  0  0  0  0
 19 26  2  0  0  0  0
 20 22  1  0  0  0  0
 22  9  1  0  0  0  0
 24 27  1  0  0  0  0
 25 26  1  0  0  0  0
 26 17  1  0  0  0  0
 27  7  1  0  0  0  0
 28 11  1  0  0  0  0
 29 30  1  0  0  0  0
 30 28  1  0  0  0  0
M  END
>  <MODEL>
8

>  <REMARK>
 VINA RESULT:      -3.6      5.851      9.011
  Name = 
  2 active torsions:
  status: ('A' for Active; 'I' for Inactive)
    1  A    between atoms: C_11  and  C_28
    2  A    between atoms: C_28  and  C_30
                            x       y       z     vdW  Elec       q    Type
                         _______ _______ _______ _____ _____    ______ ____

>  <TORSDO>
F 2

$$$$
=
 OpenBabel11122412443D

 30 35  0  0  1  0  0  0  0  0999 V2000
  161.6700  208.0100  151.5600 C   0  0  2  0  0  3  0  0  0  0  0  0
  161.7450  205.8880  150.1410 C   0  0  0  0  0  0  0  0  0  0  0  0
  159.9330  206.0510  154.4840 O   0  0  0  0  0  0  0  0  0  0  0  0
  161.0300  208.5100  152.8700 C   0  0  2  0  0  3  0  0  0  0  0  0
  161.0480  208.6700  150.4850 O   0  0  0  0  0  0  0  0  0  0  0  0
  160.9320  211.9550  151.5390 O   0  0  0  0  0  0  0  0  0  0  0  0
  161.6180  210.3850  155.4570 C   0  0  2  0  0  3  0  0  0  0  0  0
  161.1550  210.7570  151.6260 C   0  0  0  0  0  0  0  0  0  0  0  0
  160.4050  209.4960  155.6010 C   0  0  2  0  0  3  0  0  0  0  0  0
  159.6940  207.0680  155.3840 C   0  0  0  0  0  0  0  0  0  0  0  0
  161.6060  209.9580  150.4280 C   0  0  2  0  0  3  0  0  0  0  0  0
  161.0490  210.0700  152.9630 C   0  0  2  0  0  3  0  0  0  0  0  0
  161.6380  204.5390  150.0220 N   0  0  0  0  0  0  0  0  0  0  0  0
  159.8700  209.7440  156.9310 N   0  0  0  0  0  2  0  0  0  0  0  0
  161.2330  211.6180  156.2190 C   0  0  0  0  0  2  0  0  0  0  0  0
  162.0880  206.6520  148.9890 N   0  0  0  0  0  1  0  0  0  0  0  0
  161.2190  206.2240  153.9140 C   0  0  2  0  0  3  0  0  0  0  0  0
  161.3650  203.7410  151.0850 C   0  0  0  0  0  3  0  0  0  0  0  0
  161.5410  206.5090  151.3960 C   0  0  0  0  0  0  0  0  0  0  0  0
  161.5560  207.7170  154.0960 C   0  0  2  0  0  3  0  0  0  0  0  0
  158.6710  207.1140  156.1150 O   0  0  0  0  0  0  0  0  0  0  0  0
  160.8170  208.0380  155.4210 C   0  0  1  0  0  3  0  0  0  0  0  0
  160.2450  211.1190  157.2610 C   0  0  0  0  0  2  0  0  0  0  0  0
  163.4510  210.3410  153.7470 C   0  0  0  0  0  1  0  0  0  0  0  0
  161.2060  204.2980  152.3500 C   0  0  0  0  0  3  0  0  0  0  0  0
  161.3070  205.6810  152.5150 C   0  0  0  0  0  0  0  0  0  0  0  0
  161.9950  210.6970  154.0050 C   0  0  2  0  0  3  0  0  0  0  0  0
  161.2030  210.6260  149.1210 C   0  0  0  0  0  2  0  0  0  0  0  0
  162.0330  212.7720  148.5250 O   0  0  0  0  0  1  0  0  0  0  0  0
  162.3660  211.4190  148.5580 C   0  0  0  0  0  2  0  0  0  0  0  0
  1  5  1  6  0  0  0
  1  4  1  0  0  0  0
  2 19  1  0  0  0  0
  3 10  1  0  0  0  0
  4 12  1  0  0  0  0
  4 20  1  0  0  0  0
  6  8  2  0  0  0  0
  7  9  1  0  0  0  0
  7 15  1  0  0  0  0
  8 12  1  0  0  0  0
  9 14  1  0  0  0  0
 10 22  1  0  0  0  0
 10 21  2  0  0  0  0
 11  5  1  0  0  0  0
 11  8  1  0  0  0  0
 12 27  1  0  0  0  0
 13  2  2  0  0  0  0
 13 18  1  0  0  0  0
 14 23  1  0  0  0  0
 15 23  1  0  0  0  0
 16  2  1  0  0  0  0
 17 20  1  0  0  0  0
 17  3  1  0  0  0  0
 18 25  2  0  0  0  0
 19  1  1  0  0  0  0
 19 26  2  0  0  0  0
 20 22  1  0  0  0  0
 22  9  1  0  0  0  0
 24 27  1  0  0  0  0
 25 26  1  0  0  0  0
 26 17  1  0  0  0  0
 27  7  1  0  0  0  0
 28 11  1  0  0  0  0
 29 30  1  0  0  0  0
 30 28  1  0  0  0  0
M  END
>  <MODEL>
9

>  <REMARK>
 VINA RESULT:      -3.5      3.228      5.340
  Name = 
  2 active torsions:
  status: ('A' for Active; 'I' for Inactive)
    1  A    between atoms: C_11  and  C_28
    2  A    between atoms: C_28  and  C_30
                            x       y       z     vdW  Elec       q    Type
                         _______ _______ _______ _____ _____    ______ ____

>  <TORSDO>
F 2

$$$$
