=
 OpenBabel11122413573D

 37 42  0  0  1  0  0  0  0  0999 V2000
  161.8770  207.7460  152.4430 C   0  0  1  0  0  3  0  0  0  0  0  0
  162.6540  206.3710  149.4340 O   0  0  0  0  0  0  0  0  0  0  0  0
  161.2150  210.0090  153.4430 C   0  0  2  0  0  3  0  0  0  0  0  0
  161.4750  207.7630  150.9980 C   0  0  2  0  0  3  0  0  0  0  0  0
  162.2640  209.2080  152.6500 C   0  0  2  0  0  3  0  0  0  0  0  0
  161.5190  206.4130  150.2620 C   0  0  2  0  0  3  0  0  0  0  0  0
  160.8950  209.3400  154.7870 C   0  0  0  0  0  2  0  0  0  0  0  0
  162.4460  209.7950  151.3210 N   0  0  0  0  0  2  0  0  0  0  0  0
  160.7390  205.7940  153.3990 N   0  0  0  0  0  2  0  0  0  0  0  0
  160.8940  207.8050  154.7460 C   0  0  0  0  0  2  0  0  0  0  0  0
  160.9770  207.3190  147.7530 C   0  0  0  0  0  2  0  0  0  0  0  0
  162.3540  206.7530  148.0950 C   0  0  1  0  0  3  0  0  0  0  0  0
  160.7280  207.2510  153.3340 C   0  0  1  0  0  3  0  0  0  0  0  0
  162.3720  208.7360  150.3880 N   0  0  2  0  0  0  0  0  0  0  0  0
  161.4210  205.1570  151.1410 C   0  0  1  0  0  3  0  0  0  0  0  0
  162.1430  208.2780  147.9350 C   0  0  2  0  0  3  0  0  0  0  0  0
  161.7640  209.1880  149.1280 C   0  0  2  0  0  3  0  0  0  0  0  0
  160.2630  205.2520  152.1330 C   0  0  0  0  0  2  0  0  0  0  0  0
  161.1600  202.7490  150.9110 C   0  0  0  0  0  3  0  0  0  0  0  0
  161.2750  203.9300  150.2980 C   0  0  0  0  0  0  0  0  0  0  0  0
  161.2660  204.0480  148.7910 C   0  0  0  0  0  2  0  0  0  0  0  0
  161.1380  202.6780  146.8400 O   0  0  0  0  0  0  0  0  0  0  0  0
  161.0160  201.5090  148.8480 N   0  0  0  0  0  0  0  0  0  0  0  0
  161.1400  202.7220  148.0970 C   0  0  0  0  0  0  0  0  0  0  0  0
  161.0220  201.5010  150.1450 C   0  0  0  0  0  3  0  0  0  0  0  0
  162.1740  210.6300  148.7640 C   0  0  0  0  0  2  0  0  0  0  0  0
  161.0340  211.5350  148.5800 N   0  0  0  0  0  0  0  0  0  0  0  0
  160.0190  213.2820  149.3040 N   0  0  0  0  0  1  0  0  0  0  0  0
  160.9540  212.3660  149.6500 O   0  0  0  0  0  0  0  0  0  0  0  0
  161.2650  212.3540  147.3950 C   0  0  0  0  0  2  0  0  0  0  0  0
  162.7370  212.7040  147.2780 C   0  0  0  0  0  2  0  0  0  0  0  0
  162.9500  214.0190  147.6910 O   0  0  0  0  0  1  0  0  0  0  0  0
  160.0310  210.1590  152.6960 O   0  0  0  0  0  0  0  0  0  0  0  0
  159.4430  211.3910  153.0450 C   0  0  0  0  0  0  0  0  0  0  0  0
  158.5370  211.2290  154.0820 F   0  0  0  0  0  0  0  0  0  0  0  0
  160.4080  212.3170  153.4070 F   0  0  0  0  0  0  0  0  0  0  0  0
  158.7600  211.8790  151.9470 F   0  0  0  0  0  0  0  0  0  0  0  0
  1  5  1  0  0  0  0
  1 13  1  0  0  0  0
  2  6  1  0  0  0  0
  3  7  1  0  0  0  0
  4  1  1  0  0  0  0
  5  3  1  0  0  0  0
  6  4  1  0  0  0  0
  6 15  1  0  0  0  0
  8  5  1  0  0  0  0
 10  7  1  0  0  0  0
 11 16  1  0  0  0  0
 11 12  1  0  0  0  0
 12  2  1  0  0  0  0
 13  9  1  0  0  0  0
 13 10  1  0  0  0  0
 14  4  1  0  0  0  0
 14  8  1  0  0  0  0
 15 18  1  0  0  0  0
 16 12  1  0  0  0  0
 16 17  1  0  0  0  0
 17 14  1  0  0  0  0
 18  9  1  0  0  0  0
 20 19  2  0  0  0  0
 20 15  1  0  0  0  0
 21 20  1  0  0  0  0
 22 24  2  0  0  0  0
 23 25  2  0  0  0  0
 24 21  1  0  0  0  0
 24 23  1  0  0  0  0
 25 19  1  0  0  0  0
 26 17  1  0  0  0  0
 27 26  1  0  0  0  0
 27 29  1  0  0  0  0
 28 29  1  0  0  0  0
 30 27  1  0  0  0  0
 31 30  1  0  0  0  0
 31 32  1  0  0  0  0
 33 34  1  0  0  0  0
 33  3  1  0  0  0  0
 34 36  1  0  0  0  0
 34 35  1  0  0  0  0
 37 34  1  0  0  0  0
M  END
>  <MODEL>
1

>  <REMARK>
 VINA RESULT:      -7.1      0.000      0.000
  Name = 
  8 active torsions:
  status: ('A' for Active; 'I' for Inactive)
    1  A    between atoms: C_1  and  N_4
    2  A    between atoms: C_1  and  C_27
    3  A    between atoms: C_2  and  O_22
    4  A    between atoms: N_4  and  C_12
    5  A    between atoms: N_4  and  O_37
    6  A    between atoms: C_6  and  O_22
    7  A    between atoms: C_8  and  C_12
    8  A    between atoms: C_23  and  C_30
                            x       y       z     vdW  Elec       q    Type
                         _______ _______ _______ _____ _____    ______ ____

>  <TORSDO>
F 8

$$$$
=
 OpenBabel11122413573D

 37 42  0  0  1  0  0  0  0  0999 V2000
  161.8770  207.8020  152.6850 C   0  0  1  0  0  3  0  0  0  0  0  0
  162.7050  206.7910  149.5490 O   0  0  0  0  0  0  0  0  0  0  0  0
  161.1410  209.9190  153.9240 C   0  0  2  0  0  3  0  0  0  0  0  0
  161.4780  207.9650  151.2480 C   0  0  2  0  0  3  0  0  0  0  0  0
  162.2170  209.2440  153.0540 C   0  0  2  0  0  3  0  0  0  0  0  0
  161.5680  206.7060  150.3690 C   0  0  2  0  0  3  0  0  0  0  0  0
  160.8390  209.0970  155.1840 C   0  0  0  0  0  2  0  0  0  0  0  0
  162.3840  209.9790  151.7980 N   0  0  0  0  0  2  0  0  0  0  0  0
  160.7990  205.7220  153.4140 N   0  0  0  0  0  2  0  0  0  0  0  0
  160.8860  207.5770  154.9750 C   0  0  0  0  0  2  0  0  0  0  0  0
  161.0040  207.8650  147.9720 C   0  0  0  0  0  2  0  0  0  0  0  0
  162.3970  207.3080  148.2570 C   0  0  1  0  0  3  0  0  0  0  0  0
  160.7420  207.1770  153.5100 C   0  0  1  0  0  3  0  0  0  0  0  0
  162.3470  209.0260  150.7540 N   0  0  2  0  0  0  0  0  0  0  0  0
  161.5070  205.3590  151.1050 C   0  0  1  0  0  3  0  0  0  0  0  0
  162.1380  208.8340  148.2640 C   0  0  2  0  0  3  0  0  0  0  0  0
  161.7270  209.5950  149.5480 C   0  0  2  0  0  3  0  0  0  0  0  0
  160.3430  205.3080  152.0930 C   0  0  0  0  0  2  0  0  0  0  0  0
  161.4660  204.5080  148.8260 C   0  0  0  0  0  3  0  0  0  0  0  0
  161.4020  204.2280  150.1310 C   0  0  0  0  0  0  0  0  0  0  0  0
  161.2230  202.8140  150.6330 C   0  0  0  0  0  2  0  0  0  0  0  0
  160.9360  200.5910  149.8070 O   0  0  0  0  0  0  0  0  0  0  0  0
  161.1950  202.2080  148.1530 N   0  0  0  0  0  0  0  0  0  0  0  0
  161.1070  201.8050  149.5250 C   0  0  0  0  0  0  0  0  0  0  0  0
  161.3610  203.4480  147.8120 C   0  0  0  0  0  3  0  0  0  0  0  0
  162.0930  211.0800  149.3470 C   0  0  0  0  0  2  0  0  0  0  0  0
  161.6050  211.6370  148.0800 N   0  0  0  0  0  0  0  0  0  0  0  0
  160.7850  213.0240  149.4990 N   0  0  0  0  0  1  0  0  0  0  0  0
  160.5110  212.4010  148.3280 O   0  0  0  0  0  0  0  0  0  0  0  0
  162.6340  212.5030  147.5150 C   0  0  0  0  0  2  0  0  0  0  0  0
  162.1290  213.1560  146.2410 C   0  0  0  0  0  2  0  0  0  0  0  0
  162.7120  214.4140  146.0870 O   0  0  0  0  0  1  0  0  0  0  0  0
  159.9550  210.1140  153.1900 O   0  0  0  0  0  0  0  0  0  0  0  0
  159.4750  211.4100  153.4630 C   0  0  0  0  0  0  0  0  0  0  0  0
  160.4560  212.1830  154.0670 F   0  0  0  0  0  0  0  0  0  0  0  0
  159.0370  212.0320  152.3040 F   0  0  0  0  0  0  0  0  0  0  0  0
  158.4080  211.3090  154.3350 F   0  0  0  0  0  0  0  0  0  0  0  0
  1  5  1  0  0  0  0
  1 13  1  0  0  0  0
  2  6  1  0  0  0  0
  3  7  1  0  0  0  0
  4  1  1  0  0  0  0
  5  3  1  0  0  0  0
  6 15  1  0  0  0  0
  6  4  1  0  0  0  0
  8  5  1  0  0  0  0
  9 13  1  0  0  0  0
 10  7  1  0  0  0  0
 11 12  1  0  0  0  0
 11 16  1  0  0  0  0
 12 16  1  0  0  0  0
 12  2  1  0  0  0  0
 13 10  1  0  0  0  0
 14  4  1  0  0  0  0
 14  8  1  0  0  0  0
 15 18  1  0  0  0  0
 16 17  1  0  0  0  0
 17 14  1  0  0  0  0
 18  9  1  0  0  0  0
 19 20  2  0  0  0  0
 20 21  1  0  0  0  0
 20 15  1  0  0  0  0
 23 24  1  0  0  0  0
 24 22  2  0  0  0  0
 24 21  1  0  0  0  0
 25 23  2  0  0  0  0
 25 19  1  0  0  0  0
 26 17  1  0  0  0  0
 27 29  1  0  0  0  0
 27 26  1  0  0  0  0
 29 28  1  0  0  0  0
 30 27  1  0  0  0  0
 31 30  1  0  0  0  0
 32 31  1  0  0  0  0
 33 34  1  0  0  0  0
 33  3  1  0  0  0  0
 34 35  1  0  0  0  0
 34 37  1  0  0  0  0
 36 34  1  0  0  0  0
M  END
>  <MODEL>
2

>  <REMARK>
 VINA RESULT:      -6.8      0.882      1.343
  Name = 
  8 active torsions:
  status: ('A' for Active; 'I' for Inactive)
    1  A    between atoms: C_1  and  N_4
    2  A    between atoms: C_1  and  C_27
    3  A    between atoms: C_2  and  O_22
    4  A    between atoms: N_4  and  C_12
    5  A    between atoms: N_4  and  O_37
    6  A    between atoms: C_6  and  O_22
    7  A    between atoms: C_8  and  C_12
    8  A    between atoms: C_23  and  C_30
                            x       y       z     vdW  Elec       q    Type
                         _______ _______ _______ _____ _____    ______ ____

>  <TORSDO>
F 8

$$$$
=
 OpenBabel11122413573D

 37 42  0  0  1  0  0  0  0  0999 V2000
  160.4190  205.8630  150.4390 C   0  0  1  0  0  3  0  0  0  0  0  0
  160.4140  208.7740  152.1940 O   0  0  0  0  0  0  0  0  0  0  0  0
  161.1550  204.9600  148.1590 C   0  0  2  0  0  3  0  0  0  0  0  0
  161.2680  207.0640  150.7380 C   0  0  2  0  0  3  0  0  0  0  0  0
  160.2870  205.9760  148.9230 C   0  0  2  0  0  3  0  0  0  0  0  0
  161.1980  207.6080  152.1750 C   0  0  2  0  0  3  0  0  0  0  0  0
  160.8760  203.5230  148.6200 C   0  0  0  0  0  2  0  0  0  0  0  0
  160.6710  207.3410  148.5590 N   0  0  0  0  0  2  0  0  0  0  0  0
  160.7660  204.3490  152.3380 N   0  0  0  0  0  2  0  0  0  0  0  0
  160.5830  203.3840  150.1200 C   0  0  0  0  0  2  0  0  0  0  0  0
  162.7030  209.8480  151.8170 C   0  0  0  0  0  2  0  0  0  0  0  0
  161.2070  209.9540  152.1030 C   0  0  1  0  0  3  0  0  0  0  0  0
  161.0890  204.5720  150.9330 C   0  0  1  0  0  3  0  0  0  0  0  0
  160.8340  208.0590  149.7660 N   0  0  2  0  0  0  0  0  0  0  0  0
  160.7500  206.6130  153.2560 C   0  0  1  0  0  3  0  0  0  0  0  0
  161.7590  210.2020  150.6790 C   0  0  2  0  0  3  0  0  0  0  0  0
  161.9000  209.0650  149.6380 C   0  0  2  0  0  3  0  0  0  0  0  0
  161.5130  205.2940  153.1600 C   0  0  0  0  0  2  0  0  0  0  0  0
  160.1520  206.7350  155.6120 C   0  0  0  0  0  3  0  0  0  0  0  0
  160.9160  207.2040  154.6210 C   0  0  0  0  0  0  0  0  0  0  0  0
  161.9250  208.3060  154.8470 C   0  0  0  0  0  2  0  0  0  0  0  0
  162.7280  209.7360  156.5830 O   0  0  0  0  0  0  0  0  0  0  0  0
  161.0870  208.2300  157.2570 N   0  0  0  0  0  0  0  0  0  0  0  0
  161.9450  208.8050  156.2640 C   0  0  0  0  0  0  0  0  0  0  0  0
  160.2560  207.2750  156.9760 C   0  0  0  0  0  3  0  0  0  0  0  0
  161.9280  209.7130  148.2390 C   0  0  0  0  0  2  0  0  0  0  0  0
  161.9880  211.1790  148.2730 N   0  0  0  0  0  0  0  0  0  0  0  0
  163.2020  212.9280  147.9980 N   0  0  0  0  0  1  0  0  0  0  0  0
  163.2420  211.5760  147.9380 O   0  0  0  0  0  0  0  0  0  0  0  0
  161.0690  211.7150  147.2760 C   0  0  0  0  0  2  0  0  0  0  0  0
  160.0880  212.6720  147.9260 C   0  0  0  0  0  2  0  0  0  0  0  0
  158.8710  212.6450  147.2450 O   0  0  0  0  0  1  0  0  0  0  0  0
  162.5230  205.2510  148.3200 O   0  0  0  0  0  0  0  0  0  0  0  0
  163.1340  205.2150  147.0500 C   0  0  0  0  0  0  0  0  0  0  0  0
  164.5120  205.1090  147.1690 F   0  0  0  0  0  0  0  0  0  0  0  0
  162.6470  204.1590  146.2950 F   0  0  0  0  0  0  0  0  0  0  0  0
  162.8460  206.3940  146.3900 F   0  0  0  0  0  0  0  0  0  0  0  0
  1  4  1  0  0  0  0
  1 13  1  0  0  0  0
  3 33  1  0  0  0  0
  3  7  1  0  0  0  0
  3  5  1  0  0  0  0
  4  6  1  0  0  0  0
  5  1  1  0  0  0  0
  6  2  1  0  0  0  0
  6 15  1  0  0  0  0
  7 10  1  0  0  0  0
  8  5  1  0  0  0  0
  8 14  1  0  0  0  0
  9 18  1  0  0  0  0
 10 13  1  0  0  0  0
 11 12  1  0  0  0  0
 12  2  1  0  0  0  0
 13  9  1  0  0  0  0
 14  4  1  0  0  0  0
 15 20  1  0  0  0  0
 16 11  1  0  0  0  0
 16 12  1  0  0  0  0
 17 14  1  0  0  0  0
 17 16  1  0  0  0  0
 18 15  1  0  0  0  0
 19 25  1  0  0  0  0
 20 21  1  0  0  0  0
 20 19  2  0  0  0  0
 21 24  1  0  0  0  0
 24 22  2  0  0  0  0
 24 23  1  0  0  0  0
 25 23  2  0  0  0  0
 26 27  1  0  0  0  0
 26 17  1  0  0  0  0
 29 28  1  0  0  0  0
 29 27  1  0  0  0  0
 30 31  1  0  0  0  0
 30 27  1  0  0  0  0
 32 31  1  0  0  0  0
 34 35  1  0  0  0  0
 34 33  1  0  0  0  0
 36 34  1  0  0  0  0
 37 34  1  0  0  0  0
M  END
>  <MODEL>
3

>  <REMARK>
 VINA RESULT:      -6.3      3.342      6.193
  Name = 
  8 active torsions:
  status: ('A' for Active; 'I' for Inactive)
    1  A    between atoms: C_1  and  N_4
    2  A    between atoms: C_1  and  C_27
    3  A    between atoms: C_2  and  O_22
    4  A    between atoms: N_4  and  C_12
    5  A    between atoms: N_4  and  O_37
    6  A    between atoms: C_6  and  O_22
    7  A    between atoms: C_8  and  C_12
    8  A    between atoms: C_23  and  C_30
                            x       y       z     vdW  Elec       q    Type
                         _______ _______ _______ _____ _____    ______ ____

>  <TORSDO>
F 8

$$$$
=
 OpenBabel11122413573D

 37 42  0  0  1  0  0  0  0  0999 V2000
  161.5870  212.3440  149.8530 C   0  0  1  0  0  3  0  0  0  0  0  0
  162.1260  209.9140  152.1670 O   0  0  0  0  0  0  0  0  0  0  0  0
  161.3800  212.6120  147.3150 C   0  0  2  0  0  3  0  0  0  0  0  0
  161.2250  210.9260  150.1820 C   0  0  2  0  0  3  0  0  0  0  0  0
  162.2590  212.1610  148.4950 C   0  0  2  0  0  3  0  0  0  0  0  0
  161.0070  210.6060  151.6720 C   0  0  2  0  0  3  0  0  0  0  0  0
  160.9040  214.0600  147.4900 C   0  0  0  0  0  2  0  0  0  0  0  0
  162.5840  210.7380  148.3670 N   0  0  0  0  0  2  0  0  0  0  0  0
  160.0550  213.7190  151.1890 N   0  0  0  0  0  2  0  0  0  0  0  0
  160.5900  214.4530  148.9400 C   0  0  0  0  0  2  0  0  0  0  0  0
  160.7120  207.9090  151.4510 C   0  0  0  0  0  2  0  0  0  0  0  0
  161.9370  208.5030  152.1430 C   0  0  1  0  0  3  0  0  0  0  0  0
  160.3430  213.2460  149.8400 C   0  0  1  0  0  3  0  0  0  0  0  0
  162.3140  210.1390  149.6190 N   0  0  2  0  0  0  0  0  0  0  0  0
  160.6370  211.7930  152.5740 C   0  0  1  0  0  3  0  0  0  0  0  0
  162.0440  207.9030  150.7190 C   0  0  2  0  0  3  0  0  0  0  0  0
  161.8360  208.7590  149.4460 C   0  0  2  0  0  3  0  0  0  0  0  0
  159.5030  212.6230  151.9760 C   0  0  0  0  0  2  0  0  0  0  0  0
  158.9640  211.1660  154.2260 C   0  0  0  0  0  3  0  0  0  0  0  0
  160.2610  211.3190  153.9420 C   0  0  0  0  0  0  0  0  0  0  0  0
  161.3370  211.0330  154.9640 C   0  0  0  0  0  2  0  0  0  0  0  0
  161.5780  210.3430  157.2370 O   0  0  0  0  0  0  0  0  0  0  0  0
  159.3760  210.4560  156.4930 N   0  0  0  0  0  0  0  0  0  0  0  0
  160.7870  210.5950  156.2920 C   0  0  0  0  0  0  0  0  0  0  0  0
  158.5210  210.7140  155.5530 C   0  0  0  0  0  3  0  0  0  0  0  0
  162.5390  208.0370  148.2790 C   0  0  0  0  0  2  0  0  0  0  0  0
  162.0130  206.6920  148.0190 N   0  0  0  0  0  0  0  0  0  0  0  0
  160.4170  205.5390  148.8750 N   0  0  0  0  0  1  0  0  0  0  0  0
  160.6710  206.6980  148.2210 O   0  0  0  0  0  0  0  0  0  0  0  0
  162.2520  206.3500  146.6220 C   0  0  0  0  0  2  0  0  0  0  0  0
  162.7590  204.9240  146.5090 C   0  0  0  0  0  2  0  0  0  0  0  0
  161.7760  204.1110  145.9440 O   0  0  0  0  0  1  0  0  0  0  0  0
  160.2670  211.7620  147.1680 O   0  0  0  0  0  0  0  0  0  0  0  0
  159.4890  212.2370  146.0920 C   0  0  0  0  0  0  0  0  0  0  0  0
  158.1390  212.2050  146.4090 F   0  0  0  0  0  0  0  0  0  0  0  0
  159.8580  213.5270  145.7440 F   0  0  0  0  0  0  0  0  0  0  0  0
  159.6970  211.4140  145.0020 F   0  0  0  0  0  0  0  0  0  0  0  0
  1  4  1  0  0  0  0
  3  7  1  0  0  0  0
  3  5  1  0  0  0  0
  4  6  1  0  0  0  0
  5  1  1  0  0  0  0
  6  2  1  0  0  0  0
  6 15  1  0  0  0  0
  7 10  1  0  0  0  0
  8  5  1  0  0  0  0
  8 14  1  0  0  0  0
  9 18  1  0  0  0  0
 10 13  1  0  0  0  0
 11 12  1  0  0  0  0
 12  2  1  0  0  0  0
 13  1  1  0  0  0  0
 13  9  1  0  0  0  0
 14  4  1  0  0  0  0
 15 20  1  0  0  0  0
 16 11  1  0  0  0  0
 16 12  1  0  0  0  0
 17 14  1  0  0  0  0
 17 16  1  0  0  0  0
 18 15  1  0  0  0  0
 19 25  1  0  0  0  0
 20 19  2  0  0  0  0
 20 21  1  0  0  0  0
 21 24  1  0  0  0  0
 24 23  1  0  0  0  0
 24 22  2  0  0  0  0
 25 23  2  0  0  0  0
 26 17  1  0  0  0  0
 27 29  1  0  0  0  0
 27 26  1  0  0  0  0
 29 28  1  0  0  0  0
 30 27  1  0  0  0  0
 31 30  1  0  0  0  0
 32 31  1  0  0  0  0
 33  3  1  0  0  0  0
 34 35  1  0  0  0  0
 34 33  1  0  0  0  0
 36 34  1  0  0  0  0
 37 34  1  0  0  0  0
M  END
>  <MODEL>
4

>  <REMARK>
 VINA RESULT:      -5.4      3.152      7.269
  Name = 
  8 active torsions:
  status: ('A' for Active; 'I' for Inactive)
    1  A    between atoms: C_1  and  N_4
    2  A    between atoms: C_1  and  C_27
    3  A    between atoms: C_2  and  O_22
    4  A    between atoms: N_4  and  C_12
    5  A    between atoms: N_4  and  O_37
    6  A    between atoms: C_6  and  O_22
    7  A    between atoms: C_8  and  C_12
    8  A    between atoms: C_23  and  C_30
                            x       y       z     vdW  Elec       q    Type
                         _______ _______ _______ _____ _____    ______ ____

>  <TORSDO>
F 8

$$$$
=
 OpenBabel11122413573D

 37 42  0  0  1  0  0  0  0  0999 V2000
  162.0130  209.6370  151.6200 C   0  0  1  0  0  3  0  0  0  0  0  0
  161.3470  209.0620  154.9020 O   0  0  0  0  0  0  0  0  0  0  0  0
  162.3220  208.3400  149.4340 C   0  0  2  0  0  3  0  0  0  0  0  0
  161.1610  208.7940  152.5220 C   0  0  2  0  0  3  0  0  0  0  0  0
  162.8010  208.5600  150.8800 C   0  0  2  0  0  3  0  0  0  0  0  0
  160.6110  209.4840  153.7820 C   0  0  2  0  0  3  0  0  0  0  0  0
  162.3210  209.6510  148.6360 C   0  0  0  0  0  2  0  0  0  0  0  0
  162.6620  207.3220  151.6510 N   0  0  0  0  0  2  0  0  0  0  0  0
  160.8150  211.7700  151.4230 N   0  0  0  0  0  2  0  0  0  0  0  0
  161.9200  210.8880  149.4510 C   0  0  0  0  0  2  0  0  0  0  0  0
  159.4950  207.3010  154.9650 C   0  0  0  0  0  2  0  0  0  0  0  0
  160.7160  207.9800  155.5810 C   0  0  1  0  0  3  0  0  0  0  0  0
  161.1500  210.5350  150.7210 C   0  0  1  0  0  3  0  0  0  0  0  0
  162.0110  207.6590  152.8590 N   0  0  2  0  0  0  0  0  0  0  0  0
  160.5050  211.0150  153.7260 C   0  0  1  0  0  3  0  0  0  0  0  0
  160.8540  206.6330  154.8310 C   0  0  2  0  0  3  0  0  0  0  0  0
  161.1450  206.5610  153.3130 C   0  0  2  0  0  3  0  0  0  0  0  0
  159.8160  211.4860  152.4460 C   0  0  0  0  0  2  0  0  0  0  0  0
  160.4690  212.2280  155.8340 C   0  0  0  0  0  3  0  0  0  0  0  0
  159.7770  211.5390  154.9230 C   0  0  0  0  0  0  0  0  0  0  0  0
  158.2960  211.2790  155.0790 C   0  0  0  0  0  2  0  0  0  0  0  0
  156.5090  211.6870  156.6090 O   0  0  0  0  0  0  0  0  0  0  0  0
  158.5560  212.5800  157.2600 N   0  0  0  0  0  0  0  0  0  0  0  0
  157.7280  211.8490  156.3480 C   0  0  0  0  0  0  0  0  0  0  0  0
  159.8210  212.7650  157.0400 C   0  0  0  0  0  3  0  0  0  0  0  0
  161.7560  205.1750  153.0200 C   0  0  0  0  0  2  0  0  0  0  0  0
  160.9120  204.3310  152.1670 N   0  0  0  0  0  0  0  0  0  0  0  0
  159.6780  204.2850  150.4110 N   0  0  0  0  0  1  0  0  0  0  0  0
  160.1830  205.1260  151.3440 O   0  0  0  0  0  0  0  0  0  0  0  0
  161.7670  203.4920  151.3350 C   0  0  0  0  0  2  0  0  0  0  0  0
  161.5070  202.0250  151.6250 C   0  0  0  0  0  2  0  0  0  0  0  0
  161.2040  201.3510  150.4430 O   0  0  0  0  0  1  0  0  0  0  0  0
  161.0330  207.7740  149.4150 O   0  0  0  0  0  0  0  0  0  0  0  0
  161.0060  206.7700  148.4260 C   0  0  0  0  0  0  0  0  0  0  0  0
  161.3250  207.2950  147.1820 F   0  0  0  0  0  0  0  0  0  0  0  0
  161.8810  205.7420  148.7380 F   0  0  0  0  0  0  0  0  0  0  0  0
  159.7270  206.2510  148.3600 F   0  0  0  0  0  0  0  0  0  0  0  0
  1  4  1  0  0  0  0
  2 12  1  0  0  0  0
  3  5  1  0  0  0  0
  4 14  1  0  0  0  0
  4  6  1  0  0  0  0
  5  1  1  0  0  0  0
  5  8  1  0  0  0  0
  6  2  1  0  0  0  0
  7  3  1  0  0  0  0
  7 10  1  0  0  0  0
  8 14  1  0  0  0  0
  9 18  1  0  0  0  0
 10 13  1  0  0  0  0
 11 12  1  0  0  0  0
 13  9  1  0  0  0  0
 13  1  1  0  0  0  0
 14 17  1  0  0  0  0
 15  6  1  0  0  0  0
 15 20  1  0  0  0  0
 16 11  1  0  0  0  0
 16 12  1  0  0  0  0
 17 16  1  0  0  0  0
 18 15  1  0  0  0  0
 19 25  1  0  0  0  0
 20 21  1  0  0  0  0
 20 19  2  0  0  0  0
 21 24  1  0  0  0  0
 24 22  2  0  0  0  0
 24 23  1  0  0  0  0
 25 23  2  0  0  0  0
 26 17  1  0  0  0  0
 27 26  1  0  0  0  0
 28 29  1  0  0  0  0
 29 27  1  0  0  0  0
 30 31  1  0  0  0  0
 30 27  1  0  0  0  0
 32 31  1  0  0  0  0
 33  3  1  0  0  0  0
 34 36  1  0  0  0  0
 34 33  1  0  0  0  0
 35 34  1  0  0  0  0
 37 34  1  0  0  0  0
M  END
>  <MODEL>
5

>  <REMARK>
 VINA RESULT:      -5.1      3.240      8.129
  Name = 
  8 active torsions:
  status: ('A' for Active; 'I' for Inactive)
    1  A    between atoms: C_1  and  N_4
    2  A    between atoms: C_1  and  C_27
    3  A    between atoms: C_2  and  O_22
    4  A    between atoms: N_4  and  C_12
    5  A    between atoms: N_4  and  O_37
    6  A    between atoms: C_6  and  O_22
    7  A    between atoms: C_8  and  C_12
    8  A    between atoms: C_23  and  C_30
                            x       y       z     vdW  Elec       q    Type
                         _______ _______ _______ _____ _____    ______ ____

>  <TORSDO>
F 8

$$$$
