=
 OpenBabel11122414213D

 34 42  0  0  1  0  0  0  0  0999 V2000
  161.3390  208.4790  150.8850 C   0  0  0  0  0  0  0  0  0  0  0  0
  161.0870  207.2550  148.6820 C   0  0  0  0  0  2  0  0  0  0  0  0
  160.0320  209.3830  156.8320 C   0  0  2  0  0  3  0  0  0  0  0  0
  161.9120  209.4400  153.0180 C   0  0  0  0  0  0  0  0  0  0  0  0
  161.5890  208.1370  155.1700 C   0  0  1  0  0  3  0  0  0  0  0  0
  159.3070  208.9790  154.8810 O   0  0  0  0  0  0  0  0  0  0  0  0
  159.0920  210.0100  155.8160 C   0  0  0  0  0  2  0  0  0  0  0  0
  161.5900  211.0240  156.1460 C   0  0  0  0  0  2  0  0  0  0  0  0
  160.3100  206.1730  150.7070 C   0  0  2  0  0  3  0  0  0  0  0  0
  161.7560  203.3620  151.1490 C   0  0  0  0  0  2  0  0  0  0  0  0
  161.6650  206.8930  154.2820 C   0  0  0  0  0  2  0  0  0  0  0  0
  162.6290  210.4280  155.2120 C   0  0  0  0  0  2  0  0  0  0  0  0
  160.9800  205.8750  152.0620 C   0  0  1  0  0  3  0  0  0  0  0  0
  160.5480  205.8900  148.3010 C   0  0  0  0  0  2  0  0  0  0  0  0
  162.0420  209.3350  154.4490 N   0  0  0  0  0  0  0  0  0  0  0  0
  161.2400  210.0820  157.1340 O   0  0  0  0  0  0  0  0  0  0  0  0
  161.4020  203.9330  149.7790 C   0  0  1  0  0  0  0  0  0  0  0  0
  161.4140  208.3570  152.2780 C   0  0  0  0  0  0  0  0  0  0  0  0
  160.1760  208.3120  155.7660 C   0  0  2  0  0  3  0  0  0  0  0  0
  160.9070  207.1130  152.9700 C   0  0  2  0  0  3  0  0  0  0  0  0
  162.2390  210.6620  151.0150 C   0  0  0  0  0  3  0  0  0  0  0  0
  160.5270  203.3480  152.0450 C   0  0  0  0  0  2  0  0  0  0  0  0
  162.3140  210.5660  152.3680 N   0  0  0  0  0  0  0  0  0  0  0  0
  160.3170  204.6820  152.7600 C   0  0  0  0  0  2  0  0  0  0  0  0
  160.3660  205.0940  149.6030 C   0  0  1  0  0  3  0  0  0  0  0  0
  161.7600  209.6220  150.2830 N   0  0  0  0  0  0  0  0  0  0  0  0
  160.8690  207.3730  150.1060 N   0  0  0  0  0  0  0  0  0  0  0  0
  162.4990  203.9840  148.8980 O   0  0  0  0  0  0  0  0  0  0  0  0
  161.6010  202.9040  148.7150 C   0  0  2  0  0  3  0  0  0  0  0  0
  161.3910  203.2390  145.1850 C   0  0  0  0  0  2  0  0  0  0  0  0
  160.4770  201.7660  146.8160 C   0  0  0  0  0  2  0  0  0  0  0  0
  160.7850  203.1010  147.4470 C   0  0  2  0  0  3  0  0  0  0  0  0
  160.4530  202.0640  145.3460 C   0  0  0  0  0  2  0  0  0  0  0  0
  161.5410  203.8910  146.4820 N   0  0  0  0  0  2  0  0  0  0  0  0
  1 18  1  0  0  0  0
  2 27  1  0  0  0  0
  3  7  1  6  0  0  0
  3 16  1  0  0  0  0
  4 15  1  0  0  0  0
  5 11  1  6  0  0  0
  5 19  1  0  0  0  0
  6  7  1  0  0  0  0
  8 16  1  0  0  0  0
  9 27  1  6  0  0  0
  9 13  1  0  0  0  0
 10 22  1  0  0  0  0
 12  8  1  0  0  0  0
 13 24  1  1  0  0  0
 13 20  1  0  0  0  0
 14  2  1  0  0  0  0
 15  5  1  0  0  0  0
 15 12  1  0  0  0  0
 17 10  1  1  0  0  0
 18 20  1  0  0  0  0
 18  4  2  0  0  0  0
 19  6  1  6  0  0  0
 19  3  1  0  0  0  0
 20 11  1  1  0  0  0
 21 23  2  0  0  0  0
 22 24  1  0  0  0  0
 23  4  1  0  0  0  0
 25 14  1  6  0  0  0
 25 17  1  0  0  0  0
 25  9  1  0  0  0  0
 26  1  2  0  0  0  0
 26 21  1  0  0  0  0
 27  1  1  0  0  0  0
 28 17  1  0  0  0  0
 29 28  1  6  0  0  0
 29 17  1  0  0  0  0
 30 33  1  0  0  0  0
 30 34  1  0  0  0  0
 32 31  1  6  0  0  0
 32 29  1  0  0  0  0
 33 31  1  0  0  0  0
 34 32  1  0  0  0  0
M  END
>  <MODEL>
1

>  <REMARK>
 VINA RESULT:      -5.2      0.000      0.000
  Name = 
  1 active torsions:
  status: ('A' for Active; 'I' for Inactive)
    1  A    between atoms: C_29  and  C_32
                            x       y       z     vdW  Elec       q    Type
                         _______ _______ _______ _____ _____    ______ ____

>  <TORSDO>
F 1

$$$$
=
 OpenBabel11122414213D

 34 42  0  0  1  0  0  0  0  0999 V2000
  160.8500  205.6070  150.9350 C   0  0  0  0  0  0  0  0  0  0  0  0
  160.4560  206.6400  153.2140 C   0  0  0  0  0  2  0  0  0  0  0  0
  160.8610  205.7500  144.7810 C   0  0  2  0  0  3  0  0  0  0  0  0
  161.6030  204.7000  148.8350 C   0  0  0  0  0  0  0  0  0  0  0  0
  162.2630  206.2200  146.9140 C   0  0  1  0  0  3  0  0  0  0  0  0
  159.8370  206.2060  146.5810 O   0  0  0  0  0  0  0  0  0  0  0  0
  159.5470  205.4020  145.4610 C   0  0  0  0  0  2  0  0  0  0  0  0
  161.5900  203.6140  145.4850 C   0  0  0  0  0  2  0  0  0  0  0  0
  160.5980  208.1010  151.2850 C   0  0  2  0  0  3  0  0  0  0  0  0
  162.9270  210.2570  151.6330 C   0  0  0  0  0  2  0  0  0  0  0  0
  162.5060  207.2750  147.9970 C   0  0  0  0  0  2  0  0  0  0  0  0
  162.4960  203.7230  146.7000 C   0  0  0  0  0  2  0  0  0  0  0  0
  161.6460  208.2660  150.1680 C   0  0  1  0  0  3  0  0  0  0  0  0
  160.3020  208.0670  153.7010 C   0  0  0  0  0  2  0  0  0  0  0  0
  162.1150  204.8800  147.5000 N   0  0  0  0  0  0  0  0  0  0  0  0
  161.8190  204.7020  144.6200 O   0  0  0  0  0  0  0  0  0  0  0  0
  162.0770  209.7260  152.7830 C   0  0  1  0  0  0  0  0  0  0  0  0
  161.3070  205.8180  149.6290 C   0  0  0  0  0  0  0  0  0  0  0  0
  161.0660  206.6030  146.0190 C   0  0  2  0  0  3  0  0  0  0  0  0
  161.4130  207.2170  149.0680 C   0  0  2  0  0  3  0  0  0  0  0  0
  161.0100  203.2670  150.6260 C   0  0  0  0  0  3  0  0  0  0  0  0
  162.0330  210.7790  150.5180 C   0  0  0  0  0  2  0  0  0  0  0  0
  161.4490  203.4510  149.3530 N   0  0  0  0  0  0  0  0  0  0  0  0
  161.5950  209.6720  149.5600 C   0  0  0  0  0  2  0  0  0  0  0  0
  160.7160  208.9890  152.5440 C   0  0  1  0  0  3  0  0  0  0  0  0
  160.7190  204.3390  151.4090 N   0  0  0  0  0  0  0  0  0  0  0  0
  160.5770  206.7330  151.7760 N   0  0  0  0  0  0  0  0  0  0  0  0
  162.8420  209.2170  153.8500 O   0  0  0  0  0  0  0  0  0  0  0  0
  162.3190  210.5210  154.0240 C   0  0  2  0  0  3  0  0  0  0  0  0
  161.0610  211.2670  157.2610 C   0  0  0  0  0  2  0  0  0  0  0  0
  160.4630  211.8290  155.0280 C   0  0  0  0  0  2  0  0  0  0  0  0
  161.1920  210.5090  155.0450 C   0  0  2  0  0  3  0  0  0  0  0  0
  160.0260  212.0150  156.4500 C   0  0  0  0  0  2  0  0  0  0  0  0
  161.7320  210.3110  156.3850 N   0  0  0  0  0  2  0  0  0  0  0  0
  1 26  1  0  0  0  0
  1 27  1  0  0  0  0
  2 14  1  0  0  0  0
  3  7  1  1  0  0  0
  3 19  1  0  0  0  0
  4 23  2  0  0  0  0
  4 18  1  0  0  0  0
  5 15  1  0  0  0  0
  5 11  1  1  0  0  0
  7  6  1  0  0  0  0
  8 12  1  0  0  0  0
  9 27  1  1  0  0  0
  9 25  1  0  0  0  0
 12 15  1  0  0  0  0
 13 24  1  6  0  0  0
 13  9  1  0  0  0  0
 15  4  1  0  0  0  0
 16  3  1  0  0  0  0
 16  8  1  0  0  0  0
 17 10  1  6  0  0  0
 17 28  1  0  0  0  0
 17 29  1  0  0  0  0
 18  1  2  0  0  0  0
 19  6  1  1  0  0  0
 19  5  1  0  0  0  0
 20 11  1  6  0  0  0
 20 18  1  0  0  0  0
 20 13  1  0  0  0  0
 21 26  2  0  0  0  0
 22 10  1  0  0  0  0
 23 21  1  0  0  0  0
 24 22  1  0  0  0  0
 25 17  1  0  0  0  0
 25 14  1  1  0  0  0
 27  2  1  0  0  0  0
 29 28  1  1  0  0  0
 29 32  1  0  0  0  0
 31 33  1  0  0  0  0
 32 31  1  1  0  0  0
 32 34  1  0  0  0  0
 33 30  1  0  0  0  0
 34 30  1  0  0  0  0
M  END
>  <MODEL>
2

>  <REMARK>
 VINA RESULT:      -5.0      2.048      8.775
  Name = 
  1 active torsions:
  status: ('A' for Active; 'I' for Inactive)
    1  A    between atoms: C_29  and  C_32
                            x       y       z     vdW  Elec       q    Type
                         _______ _______ _______ _____ _____    ______ ____

>  <TORSDO>
F 1

$$$$
=
 OpenBabel11122414213D

 34 42  0  0  1  0  0  0  0  0999 V2000
  161.0320  211.4580  151.3280 C   0  0  0  0  0  0  0  0  0  0  0  0
  161.8040  211.7690  148.9360 C   0  0  0  0  0  2  0  0  0  0  0  0
  158.2600  213.3660  156.4830 C   0  0  2  0  0  3  0  0  0  0  0  0
  160.0080  210.9530  153.4480 C   0  0  0  0  0  0  0  0  0  0  0  0
  157.9110  212.1610  154.2100 C   0  0  1  0  0  3  0  0  0  0  0  0
  159.5820  213.8190  154.8870 O   0  0  0  0  0  0  0  0  0  0  0  0
  159.7120  213.7720  156.2900 C   0  0  0  0  0  2  0  0  0  0  0  0
  159.0980  211.1850  156.8420 C   0  0  0  0  0  2  0  0  0  0  0  0
  160.1190  213.2720  149.8160 C   0  0  2  0  0  3  0  0  0  0  0  0
  157.4520  213.1790  148.0660 C   0  0  0  0  0  2  0  0  0  0  0  0
  157.6740  212.4260  152.7220 C   0  0  0  0  0  2  0  0  0  0  0  0
  158.9000  210.3170  155.6110 C   0  0  0  0  0  2  0  0  0  0  0  0
  158.7670  213.0390  150.5160 C   0  0  1  0  0  3  0  0  0  0  0  0
  161.4140  212.7290  147.8290 C   0  0  0  0  0  2  0  0  0  0  0  0
  158.9520  211.1420  154.4100 N   0  0  0  0  0  0  0  0  0  0  0  0
  158.0020  212.0570  156.9930 O   0  0  0  0  0  0  0  0  0  0  0  0
  158.8550  213.0170  147.4910 C   0  0  1  0  0  0  0  0  0  0  0  0
  160.0140  211.6970  152.2590 C   0  0  0  0  0  0  0  0  0  0  0  0
  158.2200  213.4680  154.9690 C   0  0  2  0  0  3  0  0  0  0  0  0
  158.9860  212.7770  152.0150 C   0  0  2  0  0  3  0  0  0  0  0  0
  161.9540  209.8010  152.7410 C   0  0  0  0  0  3  0  0  0  0  0  0
  157.3680  214.4530  148.8930 C   0  0  0  0  0  2  0  0  0  0  0  0
  160.9780  210.0220  153.6600 N   0  0  0  0  0  0  0  0  0  0  0  0
  157.8320  214.2400  150.3340 C   0  0  0  0  0  2  0  0  0  0  0  0
  160.1360  213.4500  148.2820 C   0  0  1  0  0  3  0  0  0  0  0  0
  161.9750  210.5120  151.5840 N   0  0  0  0  0  0  0  0  0  0  0  0
  161.0380  212.1790  150.0910 N   0  0  0  0  0  0  0  0  0  0  0  0
  159.0070  211.8490  146.7190 O   0  0  0  0  0  0  0  0  0  0  0  0
  158.8180  213.0530  145.9990 C   0  0  2  0  0  3  0  0  0  0  0  0
  161.2030  212.7000  143.3910 C   0  0  0  0  0  2  0  0  0  0  0  0
  159.8180  214.4530  144.2080 C   0  0  0  0  0  2  0  0  0  0  0  0
  160.1110  213.4730  145.3170 C   0  0  2  0  0  3  0  0  0  0  0  0
  160.8760  214.1620  143.1860 C   0  0  0  0  0  2  0  0  0  0  0  0
  160.7670  212.3120  144.7280 N   0  0  0  0  0  2  0  0  0  0  0  0
  1 26  2  0  0  0  0
  1 18  1  0  0  0  0
  2 27  1  0  0  0  0
  3  7  1  6  0  0  0
  3 16  1  0  0  0  0
  4 23  1  0  0  0  0
  4 15  1  0  0  0  0
  5 11  1  6  0  0  0
  5 15  1  0  0  0  0
  5 19  1  0  0  0  0
  6  7  1  0  0  0  0
  8 16  1  0  0  0  0
  9 27  1  6  0  0  0
  9 13  1  0  0  0  0
 10 22  1  0  0  0  0
 12  8  1  0  0  0  0
 13 24  1  1  0  0  0
 13 20  1  0  0  0  0
 14  2  1  0  0  0  0
 15 12  1  0  0  0  0
 17 10  1  1  0  0  0
 17 25  1  0  0  0  0
 18  4  2  0  0  0  0
 19  6  1  6  0  0  0
 19  3  1  0  0  0  0
 20 18  1  0  0  0  0
 20 11  1  6  0  0  0
 21 23  2  0  0  0  0
 22 24  1  0  0  0  0
 25 14  1  6  0  0  0
 25  9  1  0  0  0  0
 26 21  1  0  0  0  0
 27  1  1  0  0  0  0
 28 17  1  0  0  0  0
 29 28  1  6  0  0  0
 29 17  1  0  0  0  0
 30 34  1  0  0  0  0
 32 31  1  6  0  0  0
 32 29  1  0  0  0  0
 33 30  1  0  0  0  0
 33 31  1  0  0  0  0
 34 32  1  0  0  0  0
M  END
>  <MODEL>
3

>  <REMARK>
 VINA RESULT:      -4.4      5.382      7.329
  Name = 
  1 active torsions:
  status: ('A' for Active; 'I' for Inactive)
    1  A    between atoms: C_29  and  C_32
                            x       y       z     vdW  Elec       q    Type
                         _______ _______ _______ _____ _____    ______ ____

>  <TORSDO>
F 1

$$$$
=
 OpenBabel11122414213D

 34 42  0  0  1  0  0  0  0  0999 V2000
  162.1220  213.0900  145.7310 C   0  0  0  0  0  0  0  0  0  0  0  0
  162.2530  212.8140  148.2450 C   0  0  0  0  0  2  0  0  0  0  0  0
  159.5880  212.0120  140.2250 C   0  0  2  0  0  3  0  0  0  0  0  0
  161.8340  213.6980  143.4180 C   0  0  0  0  0  0  0  0  0  0  0  0
  159.5590  213.5670  142.3030 C   0  0  1  0  0  3  0  0  0  0  0  0
  160.2340  211.2230  142.0840 O   0  0  0  0  0  0  0  0  0  0  0  0
  160.5820  210.9850  140.7400 C   0  0  0  0  0  2  0  0  0  0  0  0
  161.4620  213.4220  139.9280 C   0  0  0  0  0  2  0  0  0  0  0  0
  160.1950  212.2100  147.1170 C   0  0  2  0  0  3  0  0  0  0  0  0
  157.7150  213.8620  148.2620 C   0  0  0  0  0  2  0  0  0  0  0  0
  158.9960  213.6840  143.7220 C   0  0  0  0  0  2  0  0  0  0  0  0
  161.5480  214.4530  141.0400 C   0  0  0  0  0  2  0  0  0  0  0  0
  159.2740  212.9630  146.1380 C   0  0  1  0  0  3  0  0  0  0  0  0
  161.2650  212.3500  149.2980 C   0  0  0  0  0  2  0  0  0  0  0  0
  160.9900  213.9040  142.2690 N   0  0  0  0  0  0  0  0  0  0  0  0
  160.1130  213.1840  139.5990 O   0  0  0  0  0  0  0  0  0  0  0  0
  158.8990  213.4040  149.1090 C   0  0  1  0  0  0  0  0  0  0  0  0
  161.2790  213.2390  144.6220 C   0  0  0  0  0  0  0  0  0  0  0  0
  159.2710  212.1770  141.7000 C   0  0  2  0  0  3  0  0  0  0  0  0
  159.8220  212.8510  144.7060 C   0  0  2  0  0  3  0  0  0  0  0  0
  163.9610  213.8460  144.4510 C   0  0  0  0  0  3  0  0  0  0  0  0
  157.1220  212.6810  147.5090 C   0  0  0  0  0  2  0  0  0  0  0  0
  163.1620  213.9920  143.3620 N   0  0  0  0  0  0  0  0  0  0  0  0
  157.8430  212.4160  146.1870 C   0  0  0  0  0  2  0  0  0  0  0  0
  159.8850  212.2850  148.6280 C   0  0  1  0  0  3  0  0  0  0  0  0
  163.4400  213.4030  145.6250 N   0  0  0  0  0  0  0  0  0  0  0  0
  161.5710  212.6580  146.9800 N   0  0  0  0  0  0  0  0  0  0  0  0
  159.5050  214.4510  149.8290 O   0  0  0  0  0  0  0  0  0  0  0  0
  158.6220  213.6200  150.5590 C   0  0  2  0  0  3  0  0  0  0  0  0
  159.6820  212.7910  153.8460 C   0  0  0  0  0  2  0  0  0  0  0  0
  158.4890  211.6850  152.1100 C   0  0  0  0  0  2  0  0  0  0  0  0
  159.4000  212.7330  151.5190 C   0  0  2  0  0  3  0  0  0  0  0  0
  159.0410  211.4690  153.4880 C   0  0  0  0  0  2  0  0  0  0  0  0
  159.9380  213.5300  152.6140 N   0  0  0  0  0  2  0  0  0  0  0  0
  1 27  1  0  0  0  0
  2 14  1  0  0  0  0
  3  7  1  1  0  0  0
  3 19  1  0  0  0  0
  4 18  1  0  0  0  0
  5 11  1  1  0  0  0
  7  6  1  0  0  0  0
  8 12  1  0  0  0  0
  9 27  1  1  0  0  0
  9 25  1  0  0  0  0
 12 15  1  0  0  0  0
 13 24  1  6  0  0  0
 13  9  1  0  0  0  0
 15  5  1  0  0  0  0
 15  4  1  0  0  0  0
 16  8  1  0  0  0  0
 16  3  1  0  0  0  0
 17 10  1  6  0  0  0
 17 28  1  0  0  0  0
 17 29  1  0  0  0  0
 18 20  1  0  0  0  0
 18  1  2  0  0  0  0
 19  6  1  1  0  0  0
 19  5  1  0  0  0  0
 20 11  1  6  0  0  0
 20 13  1  0  0  0  0
 21 26  2  0  0  0  0
 22 10  1  0  0  0  0
 23  4  2  0  0  0  0
 23 21  1  0  0  0  0
 24 22  1  0  0  0  0
 25 17  1  0  0  0  0
 25 14  1  1  0  0  0
 26  1  1  0  0  0  0
 27  2  1  0  0  0  0
 29 28  1  1  0  0  0
 29 32  1  0  0  0  0
 31 33  1  0  0  0  0
 32 31  1  1  0  0  0
 32 34  1  0  0  0  0
 33 30  1  0  0  0  0
 34 30  1  0  0  0  0
M  END
>  <MODEL>
4

>  <REMARK>
 VINA RESULT:      -3.8      7.183     11.479
  Name = 
  1 active torsions:
  status: ('A' for Active; 'I' for Inactive)
    1  A    between atoms: C_29  and  C_32
                            x       y       z     vdW  Elec       q    Type
                         _______ _______ _______ _____ _____    ______ ____

>  <TORSDO>
F 1

$$$$
=
 OpenBabel11122414213D

 34 42  0  0  1  0  0  0  0  0999 V2000
  160.7980  203.3090  150.2490 C   0  0  0  0  0  0  0  0  0  0  0  0
  160.6880  205.1300  152.0060 C   0  0  0  0  0  2  0  0  0  0  0  0
  159.8500  201.0960  144.5830 C   0  0  2  0  0  3  0  0  0  0  0  0
  161.2790  201.6750  148.5470 C   0  0  0  0  0  0  0  0  0  0  0  0
  161.5290  202.3520  146.1150 C   0  0  1  0  0  3  0  0  0  0  0  0
  159.0870  202.1980  146.2260 O   0  0  0  0  0  0  0  0  0  0  0  0
  158.6840  201.0260  145.5550 C   0  0  0  0  0  2  0  0  0  0  0  0
  160.8260  199.3940  145.9020 C   0  0  0  0  0  2  0  0  0  0  0  0
  160.4300  205.7470  149.6760 C   0  0  2  0  0  3  0  0  0  0  0  0
  162.6290  207.8850  148.7920 C   0  0  0  0  0  2  0  0  0  0  0  0
  161.8610  203.7400  146.6660 C   0  0  0  0  0  2  0  0  0  0  0  0
  161.8980  199.9630  146.8160 C   0  0  0  0  0  2  0  0  0  0  0  0
  161.2790  205.4790  148.4190 C   0  0  1  0  0  3  0  0  0  0  0  0
  160.5120  206.6350  151.9410 C   0  0  0  0  0  2  0  0  0  0  0  0
  161.5660  201.3350  147.1760 N   0  0  0  0  0  0  0  0  0  0  0  0
  160.8430  200.0720  144.6670 O   0  0  0  0  0  0  0  0  0  0  0  0
  162.0060  207.8290  150.1830 C   0  0  1  0  0  0  0  0  0  0  0  0
  161.0320  203.0090  148.9010 C   0  0  0  0  0  0  0  0  0  0  0  0
  160.1840  202.3580  145.3580 C   0  0  2  0  0  3  0  0  0  0  0  0
  160.9540  204.0890  147.8480 C   0  0  2  0  0  3  0  0  0  0  0  0
  161.0710  201.0290  150.8170 C   0  0  0  0  0  3  0  0  0  0  0  0
  161.5400  207.9390  147.7310 C   0  0  0  0  0  2  0  0  0  0  0  0
  161.2940  200.7170  149.5130 N   0  0  0  0  0  0  0  0  0  0  0  0
  161.0380  206.5470  147.3460 C   0  0  0  0  0  2  0  0  0  0  0  0
  160.6780  207.0480  150.4710 C   0  0  1  0  0  3  0  0  0  0  0  0
  160.8290  202.3170  151.1780 N   0  0  0  0  0  0  0  0  0  0  0  0
  160.5800  204.6690  150.6400 N   0  0  0  0  0  0  0  0  0  0  0  0
  162.9590  207.7680  151.2170 O   0  0  0  0  0  0  0  0  0  0  0  0
  162.3800  209.0370  150.9750 C   0  0  2  0  0  3  0  0  0  0  0  0
  161.7220  210.6360  154.0780 C   0  0  0  0  0  2  0  0  0  0  0  0
  160.8590  210.7870  151.8660 C   0  0  0  0  0  2  0  0  0  0  0  0
  161.4270  209.4090  152.1010 C   0  0  2  0  0  3  0  0  0  0  0  0
  160.6680  211.3350  153.2490 C   0  0  0  0  0  2  0  0  0  0  0  0
  162.1380  209.4270  153.3740 N   0  0  0  0  0  2  0  0  0  0  0  0
  1 27  1  0  0  0  0
  1 26  1  0  0  0  0
  3 16  1  0  0  0  0
  3 19  1  0  0  0  0
  3  7  1  1  0  0  0
  4 18  1  0  0  0  0
  4 23  2  0  0  0  0
  5 11  1  1  0  0  0
  5 15  1  0  0  0  0
  7  6  1  0  0  0  0
  8 12  1  0  0  0  0
  9 25  1  0  0  0  0
  9 27  1  1  0  0  0
 12 15  1  0  0  0  0
 13 24  1  6  0  0  0
 13  9  1  0  0  0  0
 14  2  1  0  0  0  0
 15  4  1  0  0  0  0
 16  8  1  0  0  0  0
 17 10  1  6  0  0  0
 17 25  1  0  0  0  0
 17 29  1  0  0  0  0
 17 28  1  0  0  0  0
 18  1  2  0  0  0  0
 19  5  1  0  0  0  0
 19  6  1  1  0  0  0
 20 11  1  6  0  0  0
 20 13  1  0  0  0  0
 20 18  1  0  0  0  0
 21 26  2  0  0  0  0
 22 10  1  0  0  0  0
 23 21  1  0  0  0  0
 24 22  1  0  0  0  0
 25 14  1  1  0  0  0
 27  2  1  0  0  0  0
 29 28  1  1  0  0  0
 29 32  1  0  0  0  0
 31 33  1  0  0  0  0
 32 31  1  6  0  0  0
 32 34  1  0  0  0  0
 33 30  1  0  0  0  0
 34 30  1  0  0  0  0
M  END
>  <MODEL>
5

>  <REMARK>
 VINA RESULT:      -3.4      2.410      9.160
  Name = 
  1 active torsions:
  status: ('A' for Active; 'I' for Inactive)
    1  A    between atoms: C_29  and  C_32
                            x       y       z     vdW  Elec       q    Type
                         _______ _______ _______ _____ _____    ______ ____

>  <TORSDO>
F 1

$$$$
=
 OpenBabel11122414213D

 34 42  0  0  1  0  0  0  0  0999 V2000
  160.9150  206.6530  153.1110 C   0  0  0  0  0  0  0  0  0  0  0  0
  161.3040  204.9910  151.2400 C   0  0  0  0  0  2  0  0  0  0  0  0
  162.0760  211.9050  156.1050 C   0  0  2  0  0  3  0  0  0  0  0  0
  160.2340  208.3460  154.6830 C   0  0  0  0  0  0  0  0  0  0  0  0
  160.6620  210.8040  154.2280 C   0  0  1  0  0  3  0  0  0  0  0  0
  162.8540  210.1900  155.1300 O   0  0  0  0  0  0  0  0  0  0  0  0
  162.9600  210.7140  156.4340 C   0  0  0  0  0  2  0  0  0  0  0  0
  160.3740  210.7410  157.2610 C   0  0  0  0  0  2  0  0  0  0  0  0
  162.1630  207.2430  150.9900 C   0  0  2  0  0  3  0  0  0  0  0  0
  160.9890  208.6500  148.3760 C   0  0  0  0  0  2  0  0  0  0  0  0
  160.7130  210.3930  152.7540 C   0  0  0  0  0  2  0  0  0  0  0  0
  159.4050  210.0900  156.2890 C   0  0  0  0  0  2  0  0  0  0  0  0
  161.5130  208.6350  151.1100 C   0  0  1  0  0  3  0  0  0  0  0  0
  161.9750  205.0840  149.8830 C   0  0  0  0  0  2  0  0  0  0  0  0
  160.1020  209.7300  155.0610 N   0  0  0  0  0  0  0  0  0  0  0  0
  160.8040  211.9810  156.7490 O   0  0  0  0  0  0  0  0  0  0  0  0
  161.2990  207.1590  148.4760 C   0  0  1  0  0  0  0  0  0  0  0  0
  160.8400  208.0060  153.4650 C   0  0  0  0  0  0  0  0  0  0  0  0
  162.0450  211.2700  154.7270 C   0  0  2  0  0  3  0  0  0  0  0  0
  161.4580  209.0660  152.5840 C   0  0  2  0  0  3  0  0  0  0  0  0
  159.8080  206.0550  155.1140 C   0  0  0  0  0  3  0  0  0  0  0  0
  162.2060  209.4670  148.7820 C   0  0  0  0  0  2  0  0  0  0  0  0
  159.7310  207.3620  155.4780 N   0  0  0  0  0  0  0  0  0  0  0  0
  162.2810  209.6810  150.2940 C   0  0  0  0  0  2  0  0  0  0  0  0
  162.2210  206.5730  149.5990 C   0  0  1  0  0  3  0  0  0  0  0  0
  160.3920  205.7080  153.9370 N   0  0  0  0  0  0  0  0  0  0  0  0
  161.4960  206.2850  151.8550 N   0  0  0  0  0  0  0  0  0  0  0  0
  160.2110  206.3400  148.1210 O   0  0  0  0  0  0  0  0  0  0  0  0
  161.2100  206.5130  147.1330 C   0  0  2  0  0  3  0  0  0  0  0  0
  161.6790  203.3230  145.6440 C   0  0  0  0  0  2  0  0  0  0  0  0
  162.9220  205.3490  145.7620 C   0  0  0  0  0  2  0  0  0  0  0  0
  162.0140  205.2340  146.9620 C   0  0  2  0  0  3  0  0  0  0  0  0
  162.9950  203.9470  145.2340 C   0  0  0  0  0  2  0  0  0  0  0  0
  161.1180  204.1040  146.7410 N   0  0  0  0  0  2  0  0  0  0  0  0
  1 18  2  0  0  0  0
  1 26  1  0  0  0  0
  2 27  1  0  0  0  0
  3  7  1  1  0  0  0
  3 16  1  0  0  0  0
  4 15  1  0  0  0  0
  4 23  2  0  0  0  0
  5 11  1  6  0  0  0
  5 19  1  0  0  0  0
  5 15  1  0  0  0  0
  6  7  1  0  0  0  0
  9 13  1  0  0  0  0
  9 27  1  1  0  0  0
 10 22  1  0  0  0  0
 12  8  1  0  0  0  0
 13 24  1  6  0  0  0
 13 20  1  0  0  0  0
 14  2  1  0  0  0  0
 15 12  1  0  0  0  0
 16  8  1  0  0  0  0
 17 10  1  1  0  0  0
 17 25  1  0  0  0  0
 18  4  1  0  0  0  0
 19  6  1  1  0  0  0
 19  3  1  0  0  0  0
 20 11  1  6  0  0  0
 20 18  1  0  0  0  0
 21 23  1  0  0  0  0
 22 24  1  0  0  0  0
 25 14  1  1  0  0  0
 25  9  1  0  0  0  0
 26 21  2  0  0  0  0
 27  1  1  0  0  0  0
 28 17  1  0  0  0  0
 29 28  1  1  0  0  0
 29 17  1  0  0  0  0
 30 34  1  0  0  0  0
 32 31  1  6  0  0  0
 32 29  1  0  0  0  0
 33 30  1  0  0  0  0
 33 31  1  0  0  0  0
 34 32  1  0  0  0  0
M  END
>  <MODEL>
6

>  <REMARK>
 VINA RESULT:      -3.2      1.858      3.689
  Name = 
  1 active torsions:
  status: ('A' for Active; 'I' for Inactive)
    1  A    between atoms: C_29  and  C_32
                            x       y       z     vdW  Elec       q    Type
                         _______ _______ _______ _____ _____    ______ ____

>  <TORSDO>
F 1

$$$$
=
 OpenBabel11122414213D

 34 42  0  0  1  0  0  0  0  0999 V2000
  160.5680  206.6160  153.9770 C   0  0  0  0  0  0  0  0  0  0  0  0
  160.8180  204.5970  152.4680 C   0  0  0  0  0  2  0  0  0  0  0  0
  162.2210  212.1980  155.9790 C   0  0  2  0  0  3  0  0  0  0  0  0
  160.0390  208.6380  155.1730 C   0  0  0  0  0  0  0  0  0  0  0  0
  160.7380  210.9080  154.2830 C   0  0  1  0  0  3  0  0  0  0  0  0
  162.8310  210.2580  155.3760 O   0  0  0  0  0  0  0  0  0  0  0  0
  162.9640  211.0080  156.5620 C   0  0  0  0  0  2  0  0  0  0  0  0
  160.3780  211.4540  157.2590 C   0  0  0  0  0  2  0  0  0  0  0  0
  161.9190  206.6610  151.8370 C   0  0  2  0  0  3  0  0  0  0  0  0
  160.9620  207.6530  148.9580 C   0  0  0  0  0  2  0  0  0  0  0  0
  160.7780  210.2200  152.9160 C   0  0  0  0  0  2  0  0  0  0  0  0
  159.3660  210.7320  156.3860 C   0  0  0  0  0  2  0  0  0  0  0  0
  161.4200  208.1080  151.6660 C   0  0  1  0  0  3  0  0  0  0  0  0
  161.5250  204.3600  151.1480 C   0  0  0  0  0  2  0  0  0  0  0  0
  160.0470  210.0750  155.2780 N   0  0  0  0  0  0  0  0  0  0  0  0
  160.9500  212.5240  156.5430 O   0  0  0  0  0  0  0  0  0  0  0  0
  161.1080  206.1860  149.3490 C   0  0  1  0  0  0  0  0  0  0  0  0
  160.6320  208.0120  154.0670 C   0  0  0  0  0  0  0  0  0  0  0  0
  162.1520  211.3180  154.7440 C   0  0  2  0  0  3  0  0  0  0  0  0
  161.3790  208.8170  153.0300 C   0  0  2  0  0  3  0  0  0  0  0  0
  159.3590  206.5270  156.0080 C   0  0  0  0  0  3  0  0  0  0  0  0
  162.2510  208.4060  149.2550 C   0  0  0  0  0  2  0  0  0  0  0  0
  159.4150  207.8800  156.1160 N   0  0  0  0  0  0  0  0  0  0  0  0
  162.3140  208.8960  150.7020 C   0  0  0  0  0  2  0  0  0  0  0  0
  161.9360  205.7350  150.6010 C   0  0  1  0  0  3  0  0  0  0  0  0
  159.9280  205.9040  154.9420 N   0  0  0  0  0  0  0  0  0  0  0  0
  161.1340  205.9580  152.8380 N   0  0  0  0  0  0  0  0  0  0  0  0
  159.9460  205.4290  149.1090 O   0  0  0  0  0  0  0  0  0  0  0  0
  160.9790  205.3080  148.1490 C   0  0  2  0  0  3  0  0  0  0  0  0
  160.7860  201.7620  148.2330 C   0  0  0  0  0  2  0  0  0  0  0  0
  161.8880  203.3780  146.8780 C   0  0  0  0  0  2  0  0  0  0  0  0
  161.6450  203.9440  148.2540 C   0  0  2  0  0  3  0  0  0  0  0  0
  161.7440  201.8980  147.0700 C   0  0  0  0  0  2  0  0  0  0  0  0
  160.7790  203.0190  148.9750 N   0  0  0  0  0  2  0  0  0  0  0  0
  1 18  2  0  0  0  0
  1 26  1  0  0  0  0
  2 27  1  0  0  0  0
  3 16  1  0  0  0  0
  3  7  1  1  0  0  0
  4 15  1  0  0  0  0
  4 23  2  0  0  0  0
  5 11  1  6  0  0  0
  5 19  1  0  0  0  0
  5 15  1  0  0  0  0
  6  7  1  0  0  0  0
  9 27  1  1  0  0  0
 10 22  1  0  0  0  0
 12  8  1  0  0  0  0
 13 24  1  6  0  0  0
 13  9  1  0  0  0  0
 13 20  1  0  0  0  0
 14  2  1  0  0  0  0
 15 12  1  0  0  0  0
 16  8  1  0  0  0  0
 17 10  1  6  0  0  0
 17 25  1  0  0  0  0
 18  4  1  0  0  0  0
 19  6  1  1  0  0  0
 19  3  1  0  0  0  0
 20 11  1  6  0  0  0
 20 18  1  0  0  0  0
 21 23  1  0  0  0  0
 22 24  1  0  0  0  0
 25 14  1  1  0  0  0
 25  9  1  0  0  0  0
 26 21  2  0  0  0  0
 27  1  1  0  0  0  0
 28 17  1  0  0  0  0
 29 32  1  0  0  0  0
 29 28  1  1  0  0  0
 29 17  1  0  0  0  0
 30 34  1  0  0  0  0
 31 33  1  0  0  0  0
 32 31  1  6  0  0  0
 32 34  1  0  0  0  0
 33 30  1  0  0  0  0
M  END
>  <MODEL>
7

>  <REMARK>
 VINA RESULT:      -2.6      1.928      3.635
  Name = 
  1 active torsions:
  status: ('A' for Active; 'I' for Inactive)
    1  A    between atoms: C_29  and  C_32
                            x       y       z     vdW  Elec       q    Type
                         _______ _______ _______ _____ _____    ______ ____

>  <TORSDO>
F 1

$$$$
