=
 OpenBabel11122414253D

 34 41  0  0  1  0  0  0  0  0999 V2000
  160.7510  207.4230  154.1300 C   0  0  0  0  0  0  0  0  0  0  0  0
  161.2320  205.0890  153.1650 C   0  0  0  0  0  2  0  0  0  0  0  0
  158.4840  213.4140  153.1270 C   0  0  2  0  0  3  0  0  0  0  0  0
  160.1970  209.6950  154.8160 C   0  0  0  0  0  0  0  0  0  0  0  0
  159.7910  211.3790  152.9810 C   0  0  1  0  0  3  0  0  0  0  0  0
  159.5230  213.3450  151.2740 C   0  0  0  0  0  2  0  0  0  0  0  0
  158.3260  214.1280  151.8040 C   0  0  0  0  0  2  0  0  0  0  0  0
  159.3100  213.3980  155.5110 C   0  0  0  0  0  2  0  0  0  0  0  0
  161.3730  206.9800  151.7650 C   0  0  0  0  0  0  0  0  0  0  0  0
  161.8510  206.6930  148.6360 C   0  0  0  0  0  2  0  0  0  0  0  0
  160.8570  210.6620  152.1630 C   0  0  0  0  0  2  0  0  0  0  0  0
  159.0490  211.8810  155.4100 C   0  0  0  0  0  2  0  0  0  0  0  0
  161.2320  208.2830  151.4320 C   0  0  0  0  0  0  0  0  0  0  0  0
  161.4150  204.6140  151.7180 C   0  0  0  0  0  2  0  0  0  0  0  0
  160.0720  211.1660  154.4920 C   0  0  1  0  0  3  0  0  0  0  0  0
  158.6680  214.2420  154.3860 C   0  0  0  0  0  2  0  0  0  0  0  0
  161.0480  205.9250  149.5970 N   0  0  0  0  0  0  0  0  0  0  0  0
  160.6050  208.7840  153.8180 C   0  0  0  0  0  0  0  0  0  0  0  0
  159.8130  212.8670  152.6860 C   0  0  1  0  0  3  0  0  0  0  0  0
  160.8510  209.2280  152.4610 N   0  0  0  0  0  0  0  0  0  0  0  0
  160.1680  207.8750  156.4340 C   0  0  0  0  0  3  0  0  0  0  0  0
  162.3700  208.0290  149.1830 C   0  0  0  0  0  2  0  0  0  0  0  0
  160.0090  209.2290  156.1280 C   0  0  0  0  0  3  0  0  0  0  0  0
  161.3080  208.7520  149.9970 C   0  0  0  0  0  2  0  0  0  0  0  0
  161.7740  205.8540  150.8740 C   0  0  1  0  0  3  0  0  0  0  0  0
  160.5320  206.9700  155.4350 C   0  0  0  0  0  3  0  0  0  0  0  0
  161.1320  206.5300  153.0810 N   0  0  0  0  0  0  0  0  0  0  0  0
  160.9440  204.6750  149.0770 O   0  0  0  0  0  0  0  0  0  0  0  0
  161.1760  204.8380  147.7070 C   0  0  0  0  0  2  0  0  0  0  0  0
  160.3560  201.7560  147.0590 O   0  0  0  0  0  0  0  0  0  0  0  0
  161.4190  203.3850  145.7230 C   0  0  0  0  0  2  0  0  0  0  0  0
  161.8460  203.5960  147.1460 C   0  0  2  0  0  3  0  0  0  0  0  0
  160.7460  202.0340  145.7420 C   0  0  0  0  0  2  0  0  0  0  0  0
  161.3230  202.3740  147.8660 C   0  0  0  0  0  2  0  0  0  0  0  0
  1 26  1  0  0  0  0
  3  7  1  6  0  0  0
  3 16  1  0  0  0  0
  4 23  2  0  0  0  0
  5 11  1  6  0  0  0
  5 15  1  0  0  0  0
  6  7  1  0  0  0  0
  9 27  1  0  0  0  0
 10 22  1  0  0  0  0
 10 17  1  0  0  0  0
 11 20  1  0  0  0  0
 12  8  1  0  0  0  0
 13  9  2  0  0  0  0
 13 20  1  0  0  0  0
 14  2  1  0  0  0  0
 15  4  1  0  0  0  0
 15 12  1  1  0  0  0
 16  8  1  0  0  0  0
 17 25  1  0  0  0  0
 18  1  2  0  0  0  0
 18  4  1  0  0  0  0
 19  6  1  6  0  0  0
 19  5  1  0  0  0  0
 19  3  1  0  0  0  0
 20 18  1  0  0  0  0
 22 24  1  0  0  0  0
 23 21  1  0  0  0  0
 24 13  1  0  0  0  0
 25 14  1  1  0  0  0
 25  9  1  0  0  0  0
 26 21  2  0  0  0  0
 27  2  1  0  0  0  0
 27  1  1  0  0  0  0
 28 17  1  0  0  0  0
 29 28  1  0  0  0  0
 30 34  1  0  0  0  0
 31 33  1  0  0  0  0
 31 32  1  0  0  0  0
 32 29  1  1  0  0  0
 32 34  1  0  0  0  0
 33 30  1  0  0  0  0
M  END
>  <MODEL>
1

>  <REMARK>
 VINA RESULT:      -9.7      0.000      0.000
  Name = 
  3 active torsions:
  status: ('A' for Active; 'I' for Inactive)
    1  A    between atoms: N_17  and  O_28
    2  A    between atoms: O_28  and  C_29
    3  A    between atoms: C_29  and  C_32
                            x       y       z     vdW  Elec       q    Type
                         _______ _______ _______ _____ _____    ______ ____

>  <TORSDO>
F 3

$$$$
=
 OpenBabel11122414253D

 34 41  0  0  1  0  0  0  0  0999 V2000
  161.5120  209.6510  151.0680 C   0  0  0  0  0  0  0  0  0  0  0  0
  160.9800  211.5280  152.7420 C   0  0  0  0  0  2  0  0  0  0  0  0
  160.5610  203.5070  149.2290 C   0  0  2  0  0  3  0  0  0  0  0  0
  161.8530  207.7270  149.6120 C   0  0  0  0  0  0  0  0  0  0  0  0
  161.1610  205.4730  150.5120 C   0  0  1  0  0  3  0  0  0  0  0  0
  160.7110  203.0150  151.2920 C   0  0  0  0  0  2  0  0  0  0  0  0
  160.0590  202.3600  150.0770 C   0  0  0  0  0  2  0  0  0  0  0  0
  162.2500  204.4420  147.6040 C   0  0  0  0  0  2  0  0  0  0  0  0
  160.9960  209.2870  153.4720 C   0  0  0  0  0  0  0  0  0  0  0  0
  160.0830  208.4950  156.4110 C   0  0  0  0  0  2  0  0  0  0  0  0
  161.5960  205.9520  151.8910 C   0  0  0  0  0  2  0  0  0  0  0  0
  161.6100  205.7930  147.9830 C   0  0  0  0  0  2  0  0  0  0  0  0
  161.0540  207.9430  153.3310 C   0  0  0  0  0  0  0  0  0  0  0  0
  160.4410  211.4770  154.1770 C   0  0  0  0  0  2  0  0  0  0  0  0
  161.9680  206.2300  149.4260 C   0  0  1  0  0  3  0  0  0  0  0  0
  161.4330  203.1990  148.0260 C   0  0  0  0  0  2  0  0  0  0  0  0
  159.5770  209.4730  155.4380 N   0  0  0  0  0  0  0  0  0  0  0  0
  161.5880  208.2600  150.8920 C   0  0  0  0  0  0  0  0  0  0  0  0
  161.4220  203.9850  150.3650 C   0  0  1  0  0  3  0  0  0  0  0  0
  161.3630  207.3910  152.0290 N   0  0  0  0  0  0  0  0  0  0  0  0
  162.0400  209.9890  148.7310 C   0  0  0  0  0  3  0  0  0  0  0  0
  161.0860  207.4930  155.8240 C   0  0  0  0  0  2  0  0  0  0  0  0
  162.1050  208.6060  148.5460 C   0  0  0  0  0  3  0  0  0  0  0  0
  160.6540  207.0070  154.4490 C   0  0  0  0  0  2  0  0  0  0  0  0
  160.7160  210.0580  154.7160 C   0  0  1  0  0  3  0  0  0  0  0  0
  161.7380  210.5140  149.9900 C   0  0  0  0  0  3  0  0  0  0  0  0
  161.2080  210.1480  152.3730 N   0  0  0  0  0  0  0  0  0  0  0  0
  158.9720  210.4430  156.1710 O   0  0  0  0  0  0  0  0  0  0  0  0
  157.6820  210.5400  155.6400 C   0  0  0  0  0  2  0  0  0  0  0  0
  158.2780  213.7250  155.9350 O   0  0  0  0  0  0  0  0  0  0  0  0
  156.3970  212.5780  155.0900 C   0  0  0  0  0  2  0  0  0  0  0  0
  156.9800  211.7620  156.2060 C   0  0  2  0  0  3  0  0  0  0  0  0
  157.0900  213.9130  155.2160 C   0  0  0  0  0  2  0  0  0  0  0  0
  158.0020  212.6830  156.8330 C   0  0  0  0  0  2  0  0  0  0  0  0
  1 27  1  0  0  0  0
  2 14  1  0  0  0  0
  3 16  1  6  0  0  0
  3  7  1  0  0  0  0
  3 19  1  0  0  0  0
  4 18  2  0  0  0  0
  5 11  1  1  0  0  0
  7  6  1  0  0  0  0
  8 12  1  0  0  0  0
  8 16  1  0  0  0  0
  9 25  1  0  0  0  0
 11 20  1  0  0  0  0
 13  9  2  0  0  0  0
 13 24  1  0  0  0  0
 15 12  1  6  0  0  0
 15  4  1  0  0  0  0
 15  5  1  0  0  0  0
 17 28  1  0  0  0  0
 17 10  1  0  0  0  0
 18  1  1  0  0  0  0
 18 20  1  0  0  0  0
 19  5  1  0  0  0  0
 19  6  1  1  0  0  0
 20 13  1  0  0  0  0
 21 26  1  0  0  0  0
 22 10  1  0  0  0  0
 23 21  2  0  0  0  0
 23  4  1  0  0  0  0
 24 22  1  0  0  0  0
 25 14  1  6  0  0  0
 25 17  1  0  0  0  0
 26  1  2  0  0  0  0
 27  2  1  0  0  0  0
 27  9  1  0  0  0  0
 29 28  1  0  0  0  0
 30 34  1  0  0  0  0
 31 33  1  0  0  0  0
 31 32  1  0  0  0  0
 32 29  1  6  0  0  0
 32 34  1  0  0  0  0
 33 30  1  0  0  0  0
M  END
>  <MODEL>
2

>  <REMARK>
 VINA RESULT:      -9.4      3.119      9.084
  Name = 
  3 active torsions:
  status: ('A' for Active; 'I' for Inactive)
    1  A    between atoms: N_17  and  O_28
    2  A    between atoms: O_28  and  C_29
    3  A    between atoms: C_29  and  C_32
                            x       y       z     vdW  Elec       q    Type
                         _______ _______ _______ _____ _____    ______ ____

>  <TORSDO>
F 3

$$$$
=
 OpenBabel11122414253D

 34 41  0  0  1  0  0  0  0  0999 V2000
  160.7620  207.5330  154.6980 C   0  0  0  0  0  0  0  0  0  0  0  0
  161.4720  205.5100  153.2790 C   0  0  0  0  0  2  0  0  0  0  0  0
  157.8590  213.3260  154.9250 C   0  0  2  0  0  3  0  0  0  0  0  0
  159.9820  209.5450  155.8300 C   0  0  0  0  0  0  0  0  0  0  0  0
  159.3720  211.5150  154.3750 C   0  0  1  0  0  3  0  0  0  0  0  0
  158.8710  213.7480  153.1040 C   0  0  0  0  0  2  0  0  0  0  0  0
  157.6060  214.2740  153.7750 C   0  0  0  0  0  2  0  0  0  0  0  0
  158.7190  212.9120  157.2600 C   0  0  0  0  0  2  0  0  0  0  0  0
  161.3910  207.6510  152.2960 C   0  0  0  0  0  0  0  0  0  0  0  0
  161.8490  208.0600  149.1780 C   0  0  0  0  0  2  0  0  0  0  0  0
  160.4950  211.0970  153.4350 C   0  0  0  0  0  2  0  0  0  0  0  0
  158.6180  211.4290  156.8500 C   0  0  0  0  0  2  0  0  0  0  0  0
  161.1080  208.9720  152.2360 C   0  0  0  0  0  0  0  0  0  0  0  0
  161.6830  205.3620  151.7670 C   0  0  0  0  0  2  0  0  0  0  0  0
  159.6970  211.0300  155.8120 C   0  0  1  0  0  3  0  0  0  0  0  0
  157.9740  213.8950  156.3280 C   0  0  0  0  0  2  0  0  0  0  0  0
  161.1460  207.0310  149.9570 N   0  0  0  0  0  0  0  0  0  0  0  0
  160.4690  208.9060  154.6690 C   0  0  0  0  0  0  0  0  0  0  0  0
  159.2320  213.0260  154.3900 C   0  0  1  0  0  3  0  0  0  0  0  0
  160.6450  209.6400  153.4340 N   0  0  0  0  0  0  0  0  0  0  0  0
  160.1700  207.4420  157.0410 C   0  0  0  0  0  3  0  0  0  0  0  0
  162.2320  209.3040  149.9900 C   0  0  0  0  0  2  0  0  0  0  0  0
  159.8640  208.8040  157.0170 C   0  0  0  0  0  3  0  0  0  0  0  0
  161.1120  209.7290  150.9270 C   0  0  0  0  0  2  0  0  0  0  0  0
  161.8950  206.7790  151.1970 C   0  0  1  0  0  3  0  0  0  0  0  0
  160.6130  206.8030  155.8820 C   0  0  0  0  0  3  0  0  0  0  0  0
  161.2200  206.9190  153.4910 N   0  0  0  0  0  0  0  0  0  0  0  0
  161.1670  205.9100  149.1910 O   0  0  0  0  0  0  0  0  0  0  0  0
  160.6080  206.3000  147.9700 C   0  0  0  0  0  2  0  0  0  0  0  0
  162.5370  205.8920  145.3810 O   0  0  0  0  0  0  0  0  0  0  0  0
  162.1290  204.4950  147.2390 C   0  0  0  0  0  2  0  0  0  0  0  0
  160.8610  205.2320  146.9210 C   0  0  2  0  0  3  0  0  0  0  0  0
  163.0060  204.7450  146.0370 C   0  0  0  0  0  2  0  0  0  0  0  0
  161.1500  205.8910  145.5920 C   0  0  0  0  0  2  0  0  0  0  0  0
  1 26  1  0  0  0  0
  2 27  1  0  0  0  0
  3  7  1  6  0  0  0
  3 16  1  0  0  0  0
  4 23  2  0  0  0  0
  5 11  1  6  0  0  0
  5 19  1  0  0  0  0
  5 15  1  0  0  0  0
  6  7  1  0  0  0  0
  9 27  1  0  0  0  0
 10 17  1  0  0  0  0
 10 22  1  0  0  0  0
 12  8  1  0  0  0  0
 13  9  2  0  0  0  0
 13 20  1  0  0  0  0
 14  2  1  0  0  0  0
 15  4  1  0  0  0  0
 15 12  1  1  0  0  0
 16  8  1  0  0  0  0
 17 25  1  0  0  0  0
 18  1  2  0  0  0  0
 18  4  1  0  0  0  0
 19  6  1  6  0  0  0
 19  3  1  0  0  0  0
 20 11  1  0  0  0  0
 20 18  1  0  0  0  0
 22 24  1  0  0  0  0
 23 21  1  0  0  0  0
 24 13  1  0  0  0  0
 25 14  1  1  0  0  0
 25  9  1  0  0  0  0
 26 21  2  0  0  0  0
 27  1  1  0  0  0  0
 28 17  1  0  0  0  0
 29 28  1  0  0  0  0
 30 34  1  0  0  0  0
 30 33  1  0  0  0  0
 32 31  1  0  0  0  0
 32 29  1  1  0  0  0
 33 31  1  0  0  0  0
 34 32  1  0  0  0  0
M  END
>  <MODEL>
3

>  <REMARK>
 VINA RESULT:      -8.9      1.477      1.841
  Name = 
  3 active torsions:
  status: ('A' for Active; 'I' for Inactive)
    1  A    between atoms: N_17  and  O_28
    2  A    between atoms: O_28  and  C_29
    3  A    between atoms: C_29  and  C_32
                            x       y       z     vdW  Elec       q    Type
                         _______ _______ _______ _____ _____    ______ ____

>  <TORSDO>
F 3

$$$$
=
 OpenBabel11122414253D

 34 41  0  0  1  0  0  0  0  0999 V2000
  161.6030  208.6270  150.4530 C   0  0  0  0  0  0  0  0  0  0  0  0
  161.1940  210.5590  152.0990 C   0  0  0  0  0  2  0  0  0  0  0  0
  160.3910  202.4750  148.8030 C   0  0  2  0  0  3  0  0  0  0  0  0
  161.8280  206.6590  149.0340 C   0  0  0  0  0  0  0  0  0  0  0  0
  161.1000  204.4500  150.0140 C   0  0  1  0  0  3  0  0  0  0  0  0
  160.6020  202.0270  150.8700 C   0  0  0  0  0  2  0  0  0  0  0  0
  159.8850  201.3660  149.6970 C   0  0  0  0  0  2  0  0  0  0  0  0
  162.0450  203.3160  147.0950 C   0  0  0  0  0  2  0  0  0  0  0  0
  161.1670  208.3360  152.8830 C   0  0  0  0  0  0  0  0  0  0  0  0
  160.3410  207.6430  155.8720 C   0  0  0  0  0  2  0  0  0  0  0  0
  161.6020  204.9470  151.3640 C   0  0  0  0  0  2  0  0  0  0  0  0
  161.4630  204.6960  147.4630 C   0  0  0  0  0  2  0  0  0  0  0  0
  161.1770  206.9880  152.7730 C   0  0  0  0  0  0  0  0  0  0  0  0
  160.7090  210.5590  153.5540 C   0  0  0  0  0  2  0  0  0  0  0  0
  161.8890  205.1550  148.8800 C   0  0  1  0  0  3  0  0  0  0  0  0
  161.2060  202.1100  147.5760 C   0  0  0  0  0  2  0  0  0  0  0  0
  159.8300  208.6140  154.8950 N   0  0  0  0  0  0  0  0  0  0  0  0
  161.6290  207.2300  150.3090 C   0  0  0  0  0  0  0  0  0  0  0  0
  161.3080  202.9520  149.8940 C   0  0  1  0  0  3  0  0  0  0  0  0
  161.4200  206.3960  151.4750 N   0  0  0  0  0  0  0  0  0  0  0  0
  162.0530  208.8920  148.0910 C   0  0  0  0  0  3  0  0  0  0  0  0
  161.2890  206.5960  155.2740 C   0  0  0  0  0  2  0  0  0  0  0  0
  162.0670  207.5040  147.9380 C   0  0  0  0  0  3  0  0  0  0  0  0
  160.7900  206.0920  153.9280 C   0  0  0  0  0  2  0  0  0  0  0  0
  160.9590  209.1450  154.1170 C   0  0  1  0  0  3  0  0  0  0  0  0
  161.8150  209.4560  149.3460 C   0  0  0  0  0  3  0  0  0  0  0  0
  161.3640  209.1640  151.7560 N   0  0  0  0  0  0  0  0  0  0  0  0
  159.2840  209.6200  155.6260 O   0  0  0  0  0  0  0  0  0  0  0  0
  160.3090  210.0410  156.4780 C   0  0  0  0  0  2  0  0  0  0  0  0
  160.1160  213.2540  156.0020 O   0  0  0  0  0  0  0  0  0  0  0  0
  158.5120  211.7090  156.7820 C   0  0  0  0  0  2  0  0  0  0  0  0
  159.8620  211.2630  157.2610 C   0  0  2  0  0  3  0  0  0  0  0  0
  158.7490  213.1120  156.2810 C   0  0  0  0  0  2  0  0  0  0  0  0
  160.7660  212.4290  156.9320 C   0  0  0  0  0  2  0  0  0  0  0  0
  1 27  1  0  0  0  0
  2 14  1  0  0  0  0
  3 16  1  6  0  0  0
  3  7  1  0  0  0  0
  3 19  1  0  0  0  0
  4 18  2  0  0  0  0
  5 11  1  1  0  0  0
  7  6  1  0  0  0  0
  8 12  1  0  0  0  0
  8 16  1  0  0  0  0
  9 25  1  0  0  0  0
 11 20  1  0  0  0  0
 13  9  2  0  0  0  0
 13 24  1  0  0  0  0
 15 12  1  6  0  0  0
 15  4  1  0  0  0  0
 15  5  1  0  0  0  0
 17 28  1  0  0  0  0
 17 10  1  0  0  0  0
 18  1  1  0  0  0  0
 18 20  1  0  0  0  0
 19  5  1  0  0  0  0
 19  6  1  1  0  0  0
 20 13  1  0  0  0  0
 21 26  1  0  0  0  0
 22 10  1  0  0  0  0
 23 21  2  0  0  0  0
 23  4  1  0  0  0  0
 24 22  1  0  0  0  0
 25 14  1  6  0  0  0
 25 17  1  0  0  0  0
 26  1  2  0  0  0  0
 27  2  1  0  0  0  0
 27  9  1  0  0  0  0
 28 29  1  0  0  0  0
 30 33  1  0  0  0  0
 30 34  1  0  0  0  0
 31 32  1  0  0  0  0
 32 29  1  6  0  0  0
 33 31  1  0  0  0  0
 34 32  1  0  0  0  0
M  END
>  <MODEL>
4

>  <REMARK>
 VINA RESULT:      -8.6      2.942      9.282
  Name = 
  3 active torsions:
  status: ('A' for Active; 'I' for Inactive)
    1  A    between atoms: N_17  and  O_28
    2  A    between atoms: O_28  and  C_29
    3  A    between atoms: C_29  and  C_32
                            x       y       z     vdW  Elec       q    Type
                         _______ _______ _______ _____ _____    ______ ____

>  <TORSDO>
F 3

$$$$
=
 OpenBabel11122414253D

 34 41  0  0  1  0  0  0  0  0999 V2000
  160.8750  204.9240  152.5340 C   0  0  0  0  0  0  0  0  0  0  0  0
  161.0260  206.2130  154.7530 C   0  0  0  0  0  2  0  0  0  0  0  0
  162.3390  204.6740  146.2230 C   0  0  2  0  0  3  0  0  0  0  0  0
  160.8730  203.8880  150.3280 C   0  0  0  0  0  0  0  0  0  0  0  0
  161.4490  205.3690  148.3670 C   0  0  1  0  0  3  0  0  0  0  0  0
  161.8180  206.7350  146.1650 C   0  0  0  0  0  2  0  0  0  0  0  0
  162.7060  205.8280  145.3170 C   0  0  0  0  0  2  0  0  0  0  0  0
  160.9600  202.6110  146.6750 C   0  0  0  0  0  2  0  0  0  0  0  0
  160.9390  207.4010  152.7190 C   0  0  0  0  0  0  0  0  0  0  0  0
  161.3060  210.5570  152.6270 C   0  0  0  0  0  2  0  0  0  0  0  0
  160.7480  206.5090  149.0930 C   0  0  0  0  0  2  0  0  0  0  0  0
  161.4750  202.7920  148.1170 C   0  0  0  0  0  2  0  0  0  0  0  0
  160.9490  207.5500  151.3750 C   0  0  0  0  0  0  0  0  0  0  0  0
  161.2850  207.6970  155.0420 C   0  0  0  0  0  2  0  0  0  0  0  0
  160.8400  204.0170  148.8210 C   0  0  1  0  0  3  0  0  0  0  0  0
  161.7190  203.4330  145.6080 C   0  0  0  0  0  2  0  0  0  0  0  0
  161.9560  209.4990  153.4120 N   0  0  0  0  0  0  0  0  0  0  0  0
  160.8750  205.0460  151.1350 C   0  0  0  0  0  0  0  0  0  0  0  0
  161.2660  205.5070  146.8670 C   0  0  1  0  0  3  0  0  0  0  0  0
  160.9080  206.3670  150.5420 N   0  0  0  0  0  0  0  0  0  0  0  0
  160.7870  202.5140  152.3360 C   0  0  0  0  0  3  0  0  0  0  0  0
  160.4620  210.0350  151.4570 C   0  0  0  0  0  2  0  0  0  0  0  0
  160.8000  202.6280  150.9440 C   0  0  0  0  0  3  0  0  0  0  0  0
  161.1590  208.8990  150.7240 C   0  0  0  0  0  2  0  0  0  0  0  0
  160.9560  208.4750  153.7520 C   0  0  1  0  0  3  0  0  0  0  0  0
  160.8310  203.6600  153.1330 C   0  0  0  0  0  3  0  0  0  0  0  0
  160.9130  206.1210  153.3140 N   0  0  0  0  0  0  0  0  0  0  0  0
  162.3830  210.0970  154.5540 O   0  0  0  0  0  0  0  0  0  0  0  0
  161.4240  211.0780  154.8240 C   0  0  0  0  0  2  0  0  0  0  0  0
  159.7840  212.8870  156.9770 O   0  0  0  0  0  0  0  0  0  0  0  0
  159.4700  210.6540  156.2770 C   0  0  0  0  0  2  0  0  0  0  0  0
  160.9410  210.9480  156.2580 C   0  0  2  0  0  3  0  0  0  0  0  0
  158.8770  211.8190  157.0320 C   0  0  0  0  0  2  0  0  0  0  0  0
  161.0520  212.2880  156.9500 C   0  0  0  0  0  2  0  0  0  0  0  0
  1 26  1  0  0  0  0
  1 27  1  0  0  0  0
  2 14  1  0  0  0  0
  3  7  1  6  0  0  0
  3 19  1  0  0  0  0
  4 23  2  0  0  0  0
  4 18  1  0  0  0  0
  5 15  1  0  0  0  0
  5 11  1  1  0  0  0
  7  6  1  0  0  0  0
  8 12  1  0  0  0  0
  9 27  1  0  0  0  0
  9 25  1  0  0  0  0
 10 17  1  0  0  0  0
 11 20  1  0  0  0  0
 13  9  2  0  0  0  0
 15 12  1  6  0  0  0
 15  4  1  0  0  0  0
 16  3  1  0  0  0  0
 16  8  1  0  0  0  0
 17 25  1  0  0  0  0
 17 28  1  0  0  0  0
 18  1  2  0  0  0  0
 19  6  1  6  0  0  0
 19  5  1  0  0  0  0
 20 18  1  0  0  0  0
 20 13  1  0  0  0  0
 21 26  2  0  0  0  0
 22 10  1  0  0  0  0
 23 21  1  0  0  0  0
 24 13  1  0  0  0  0
 24 22  1  0  0  0  0
 25 14  1  1  0  0  0
 27  2  1  0  0  0  0
 28 29  1  0  0  0  0
 30 33  1  0  0  0  0
 31 33  1  0  0  0  0
 32 29  1  6  0  0  0
 32 31  1  0  0  0  0
 32 34  1  0  0  0  0
 34 30  1  0  0  0  0
M  END
>  <MODEL>
5

>  <REMARK>
 VINA RESULT:      -7.1      2.992      8.709
  Name = 
  3 active torsions:
  status: ('A' for Active; 'I' for Inactive)
    1  A    between atoms: N_17  and  O_28
    2  A    between atoms: O_28  and  C_29
    3  A    between atoms: C_29  and  C_32
                            x       y       z     vdW  Elec       q    Type
                         _______ _______ _______ _____ _____    ______ ____

>  <TORSDO>
F 3

$$$$
=
 OpenBabel11122414253D

 34 41  0  0  1  0  0  0  0  0999 V2000
  161.6980  208.4600  149.5100 C   0  0  0  0  0  0  0  0  0  0  0  0
  161.9830  207.0020  147.4110 C   0  0  0  0  0  2  0  0  0  0  0  0
  161.8100  208.8430  155.9810 C   0  0  2  0  0  3  0  0  0  0  0  0
  161.4920  209.6350  151.6340 C   0  0  0  0  0  0  0  0  0  0  0  0
  161.2480  208.2180  153.7080 C   0  0  1  0  0  3  0  0  0  0  0  0
  160.7840  206.9810  155.9680 C   0  0  0  0  0  2  0  0  0  0  0  0
  161.6730  207.7090  156.9720 C   0  0  0  0  0  2  0  0  0  0  0  0
  161.1260  211.1360  155.1830 C   0  0  0  0  0  2  0  0  0  0  0  0
  161.1710  206.0340  149.4010 C   0  0  0  0  0  0  0  0  0  0  0  0
  160.6980  202.9000  149.6460 C   0  0  0  0  0  2  0  0  0  0  0  0
  160.4500  207.2280  152.8700 C   0  0  0  0  0  2  0  0  0  0  0  0
  161.8720  210.7230  153.8980 C   0  0  0  0  0  2  0  0  0  0  0  0
  160.8580  205.9930  150.7160 C   0  0  0  0  0  0  0  0  0  0  0  0
  161.9130  205.4820  147.2220 C   0  0  0  0  0  2  0  0  0  0  0  0
  161.1100  209.6370  153.0980 C   0  0  1  0  0  3  0  0  0  0  0  0
  161.4100  210.2420  156.4120 C   0  0  0  0  0  2  0  0  0  0  0  0
  161.7460  203.7040  149.0020 N   0  0  0  0  0  0  0  0  0  0  0  0
  161.3720  208.4510  150.8750 C   0  0  0  0  0  0  0  0  0  0  0  0
  160.7220  208.2470  155.1320 C   0  0  1  0  0  3  0  0  0  0  0  0
  160.9430  207.2130  151.4910 N   0  0  0  0  0  0  0  0  0  0  0  0
  162.1840  210.8270  149.6270 C   0  0  0  0  0  3  0  0  0  0  0  0
  159.7860  203.7010  150.5850 C   0  0  0  0  0  2  0  0  0  0  0  0
  161.8730  210.8230  150.9890 C   0  0  0  0  0  3  0  0  0  0  0  0
  160.5780  204.6880  151.4280 C   0  0  0  0  0  2  0  0  0  0  0  0
  161.1330  204.9100  148.4230 C   0  0  1  0  0  3  0  0  0  0  0  0
  162.1030  209.6460  148.8870 C   0  0  0  0  0  3  0  0  0  0  0  0
  161.5960  207.2320  148.7860 N   0  0  0  0  0  0  0  0  0  0  0  0
  162.2390  202.9330  147.9990 O   0  0  0  0  0  0  0  0  0  0  0  0
  161.1310  202.2350  147.5080 C   0  0  0  0  0  2  0  0  0  0  0  0
  159.2410  201.4130  144.9880 O   0  0  0  0  0  0  0  0  0  0  0  0
  160.8000  203.1680  145.2440 C   0  0  0  0  0  2  0  0  0  0  0  0
  161.2970  201.9830  146.0190 C   0  0  2  0  0  3  0  0  0  0  0  0
  159.6850  202.6040  144.3970 C   0  0  0  0  0  2  0  0  0  0  0  0
  160.3800  200.8600  145.5940 C   0  0  0  0  0  2  0  0  0  0  0  0
  1 18  1  0  0  0  0
  2 27  1  0  0  0  0
  3 16  1  1  0  0  0
  3  7  1  0  0  0  0
  4 15  1  0  0  0  0
  5 11  1  6  0  0  0
  5 19  1  0  0  0  0
  6  7  1  0  0  0  0
  8 16  1  0  0  0  0
  9 13  2  0  0  0  0
 10 22  1  0  0  0  0
 12  8  1  0  0  0  0
 13 24  1  0  0  0  0
 13 20  1  0  0  0  0
 14  2  1  0  0  0  0
 15  5  1  0  0  0  0
 15 12  1  1  0  0  0
 17 10  1  0  0  0  0
 18 20  1  0  0  0  0
 18  4  2  0  0  0  0
 19  6  1  1  0  0  0
 19  3  1  0  0  0  0
 20 11  1  0  0  0  0
 21 23  2  0  0  0  0
 22 24  1  0  0  0  0
 23  4  1  0  0  0  0
 25 14  1  6  0  0  0
 25 17  1  0  0  0  0
 25  9  1  0  0  0  0
 26  1  2  0  0  0  0
 26 21  1  0  0  0  0
 27  9  1  0  0  0  0
 27  1  1  0  0  0  0
 28 17  1  0  0  0  0
 29 28  1  0  0  0  0
 30 34  1  0  0  0  0
 31 32  1  0  0  0  0
 32 29  1  1  0  0  0
 33 30  1  0  0  0  0
 33 31  1  0  0  0  0
 34 32  1  0  0  0  0
M  END
>  <MODEL>
6

>  <REMARK>
 VINA RESULT:      -7.1      2.073      4.487
  Name = 
  3 active torsions:
  status: ('A' for Active; 'I' for Inactive)
    1  A    between atoms: N_17  and  O_28
    2  A    between atoms: O_28  and  C_29
    3  A    between atoms: C_29  and  C_32
                            x       y       z     vdW  Elec       q    Type
                         _______ _______ _______ _____ _____    ______ ____

>  <TORSDO>
F 3

$$$$
