=
 OpenBabel11122413063D

 31 35  0  0  1  0  0  0  0  0999 V2000
  161.1520  206.5550  146.7000 C   0  0  0  0  0  0  0  0  0  0  0  0
  160.3450  205.1470  150.1350 C   0  0  2  0  0  3  0  0  0  0  0  0
  160.7730  203.6890  150.1010 C   0  0  0  0  0  0  0  0  0  0  0  0
  161.1610  201.6380  148.8480 C   0  0  0  0  0  0  0  0  0  0  0  0
  160.9730  205.9890  149.0430 C   0  0  0  0  0  0  0  0  0  0  0  0
  162.1300  207.4520  146.9930 N   0  0  0  0  0  0  0  0  0  0  0  0
  160.8430  202.9970  148.8810 C   0  0  0  0  0  3  0  0  0  0  0  0
  161.9900  206.2250  151.7450 C   0  0  2  0  0  3  0  0  0  0  0  0
  160.7560  206.3810  145.4160 F   0  0  0  0  0  0  0  0  0  0  0  0
  160.9180  203.6650  152.6280 C   0  0  0  0  0  2  0  0  0  0  0  0
  161.2470  200.9260  147.5470 C   0  0  0  0  0  1  0  0  0  0  0  0
  162.3690  207.2960  150.7260 C   0  0  0  0  0  2  0  0  0  0  0  0
  160.5360  205.7780  151.5280 C   0  0  2  0  0  3  0  0  0  0  0  0
  160.5540  205.8130  147.7190 C   0  0  0  0  0  3  0  0  0  0  0  0
  161.3950  200.9480  150.0390 C   0  0  0  0  0  3  0  0  0  0  0  0
  161.9850  206.9310  149.3230 C   0  0  0  0  0  0  0  0  0  0  0  0
  162.5450  207.6600  148.2710 C   0  0  0  0  0  3  0  0  0  0  0  0
  160.0730  204.8600  152.5780 N   0  0  0  0  0  2  0  0  0  0  0  0
  160.9720  202.9730  151.3000 C   0  0  0  0  0  0  0  0  0  0  0  0
  161.3020  201.6150  151.2620 C   0  0  0  0  0  3  0  0  0  0  0  0
  160.4960  208.3780  152.8660 O   0  0  0  0  0  0  0  0  0  0  0  0
  161.3700  207.8330  153.5940 C   0  0  0  0  0  0  0  0  0  0  0  0
  162.1580  206.7540  153.0910 N   0  0  0  0  0  2  0  0  0  0  0  0
  159.4510  209.9860  155.9600 C   0  0  1  0  0  3  0  0  0  0  0  0
  160.5070  207.8520  155.9500 C   0  0  0  0  0  2  0  0  0  0  0  0
  162.8050  210.3920  154.1220 C   0  0  0  0  0  1  0  0  0  0  0  0
  158.1290  210.7120  155.8300 C   0  0  0  0  0  1  0  0  0  0  0  0
  159.2530  208.5630  155.6910 N   0  0  0  0  0  2  0  0  0  0  0  0
  161.7830  209.8460  155.1050 C   0  0  2  0  0  3  0  0  0  0  0  0
  161.6100  208.3210  154.9950 C   0  0  2  0  0  3  0  0  0  0  0  0
  160.4500  210.5750  154.9670 C   0  0  0  0  0  2  0  0  0  0  0  0
  1  6  2  0  0  0  0
  1 14  1  0  0  0  0
  2  5  1  6  0  0  0
  2 13  1  0  0  0  0
  3  2  1  0  0  0  0
  3 19  1  0  0  0  0
  4  7  1  0  0  0  0
  4 15  2  0  0  0  0
  5 16  1  0  0  0  0
  6 17  1  0  0  0  0
  7  3  2  0  0  0  0
  8 23  1  1  0  0  0
  9  1  1  0  0  0  0
 11  4  1  0  0  0  0
 12  8  1  0  0  0  0
 13  8  1  0  0  0  0
 13 18  1  1  0  0  0
 14  5  2  0  0  0  0
 15 20  1  0  0  0  0
 16 12  1  0  0  0  0
 17 16  2  0  0  0  0
 18 10  1  0  0  0  0
 19 10  1  0  0  0  0
 20 19  2  0  0  0  0
 21 22  2  0  0  0  0
 23 22  1  0  0  0  0
 24 27  1  6  0  0  0
 28 25  1  0  0  0  0
 28 24  1  0  0  0  0
 29 26  1  6  0  0  0
 30 22  1  6  0  0  0
 30 29  1  0  0  0  0
 30 25  1  0  0  0  0
 31 29  1  0  0  0  0
 31 24  1  0  0  0  0
M  END
>  <MODEL>
1

>  <REMARK>
 VINA RESULT:      -7.7      0.000      0.000
  Name = 
  2 active torsions:
  status: ('A' for Active; 'I' for Inactive)
    1  A    between atoms: C_5  and  C_30
    2  A    between atoms: C_10  and  N_16
                            x       y       z     vdW  Elec       q    Type
                         _______ _______ _______ _____ _____    ______ ____

>  <TORSDO>
F 2

$$$$
=
 OpenBabel11122413063D

 31 35  0  0  1  0  0  0  0  0999 V2000
  161.2300  203.9150  145.5800 C   0  0  0  0  0  0  0  0  0  0  0  0
  160.5200  205.7470  148.8320 C   0  0  2  0  0  3  0  0  0  0  0  0
  160.8780  204.7770  149.9450 C   0  0  0  0  0  0  0  0  0  0  0  0
  161.1120  202.4910  150.7520 C   0  0  0  0  0  0  0  0  0  0  0  0
  161.1350  205.3880  147.4950 C   0  0  0  0  0  0  0  0  0  0  0  0
  162.2610  204.6420  145.0750 N   0  0  0  0  0  0  0  0  0  0  0  0
  160.8580  203.3910  149.7150 C   0  0  0  0  0  3  0  0  0  0  0  0
  162.2870  207.5640  149.0190 C   0  0  2  0  0  3  0  0  0  0  0  0
  160.7670  202.8360  144.9040 F   0  0  0  0  0  0  0  0  0  0  0  0
  161.1400  206.7110  151.5570 C   0  0  0  0  0  2  0  0  0  0  0  0
  161.1030  201.0300  150.4870 C   0  0  0  0  0  1  0  0  0  0  0  0
  162.6670  207.4220  147.5480 C   0  0  0  0  0  2  0  0  0  0  0  0
  160.8050  207.2110  149.2200 C   0  0  2  0  0  3  0  0  0  0  0  0
  160.6470  204.2780  146.7940 C   0  0  0  0  0  3  0  0  0  0  0  0
  161.3690  202.9660  152.0390 C   0  0  0  0  0  3  0  0  0  0  0  0
  162.2010  206.1300  146.9460 C   0  0  0  0  0  0  0  0  0  0  0  0
  162.7440  205.7350  145.7200 C   0  0  0  0  0  3  0  0  0  0  0  0
  160.3490  207.4780  150.5910 N   0  0  0  0  0  2  0  0  0  0  0  0
  161.0990  205.2440  151.2580 C   0  0  0  0  0  0  0  0  0  0  0  0
  161.3640  204.3390  152.2910 C   0  0  0  0  0  3  0  0  0  0  0  0
  161.2590  209.9130  147.7730 O   0  0  0  0  0  0  0  0  0  0  0  0
  161.9900  210.0640  148.7900 C   0  0  0  0  0  0  0  0  0  0  0  0
  162.5420  208.9290  149.4580 N   0  0  0  0  0  2  0  0  0  0  0  0
  160.7670  213.4910  147.9680 C   0  0  1  0  0  3  0  0  0  0  0  0
  161.0630  212.1190  149.8920 C   0  0  0  0  0  2  0  0  0  0  0  0
  164.1560  211.7160  147.5790 C   0  0  0  0  0  1  0  0  0  0  0  0
  159.7640  213.9970  146.9540 C   0  0  0  0  0  1  0  0  0  0  0  0
  160.1270  212.5010  148.8330 N   0  0  0  0  0  2  0  0  0  0  0  0
  162.9630  212.3620  148.2640 C   0  0  2  0  0  3  0  0  0  0  0  0
  162.3060  211.4400  149.3060 C   0  0  2  0  0  3  0  0  0  0  0  0
  161.9520  212.8650  147.2390 C   0  0  0  0  0  2  0  0  0  0  0  0
  1 14  1  0  0  0  0
  2  5  1  6  0  0  0
  2 13  1  0  0  0  0
  2  3  1  0  0  0  0
  3 19  1  0  0  0  0
  4 15  2  0  0  0  0
  6  1  2  0  0  0  0
  6 17  1  0  0  0  0
  7  3  2  0  0  0  0
  7  4  1  0  0  0  0
  8 13  1  0  0  0  0
  8 23  1  6  0  0  0
  9  1  1  0  0  0  0
 11  4  1  0  0  0  0
 12  8  1  0  0  0  0
 13 18  1  1  0  0  0
 14  5  2  0  0  0  0
 15 20  1  0  0  0  0
 16  5  1  0  0  0  0
 16 12  1  0  0  0  0
 17 16  2  0  0  0  0
 18 10  1  0  0  0  0
 19 10  1  0  0  0  0
 19 20  2  0  0  0  0
 21 22  2  0  0  0  0
 22 23  1  0  0  0  0
 24 27  1  6  0  0  0
 24 28  1  0  0  0  0
 28 25  1  0  0  0  0
 29 26  1  6  0  0  0
 29 30  1  0  0  0  0
 30 22  1  6  0  0  0
 30 25  1  0  0  0  0
 31 24  1  0  0  0  0
 31 29  1  0  0  0  0
M  END
>  <MODEL>
2

>  <REMARK>
 VINA RESULT:      -7.4      3.276      4.810
  Name = 
  2 active torsions:
  status: ('A' for Active; 'I' for Inactive)
    1  A    between atoms: C_5  and  C_30
    2  A    between atoms: C_10  and  N_16
                            x       y       z     vdW  Elec       q    Type
                         _______ _______ _______ _____ _____    ______ ____

>  <TORSDO>
F 2

$$$$
=
 OpenBabel11122413063D

 31 35  0  0  1  0  0  0  0  0999 V2000
  161.1200  204.4830  145.2060 C   0  0  0  0  0  0  0  0  0  0  0  0
  160.5080  205.3060  148.8640 C   0  0  2  0  0  3  0  0  0  0  0  0
  160.9010  204.0620  149.6440 C   0  0  0  0  0  0  0  0  0  0  0  0
  161.1610  201.6440  149.7590 C   0  0  0  0  0  0  0  0  0  0  0  0
  161.0820  205.3480  147.4630 C   0  0  0  0  0  0  0  0  0  0  0  0
  162.1350  205.3340  144.8990 N   0  0  0  0  0  0  0  0  0  0  0  0
  160.8750  202.8000  149.0290 C   0  0  0  0  0  3  0  0  0  0  0  0
  162.2780  207.0110  149.5110 C   0  0  2  0  0  3  0  0  0  0  0  0
  160.6380  203.6370  144.2640 F   0  0  0  0  0  0  0  0  0  0  0  0
  161.2090  205.4600  151.7320 C   0  0  0  0  0  2  0  0  0  0  0  0
  161.1460  200.3180  149.0880 C   0  0  0  0  0  1  0  0  0  0  0  0
  162.6130  207.2980  148.0500 C   0  0  0  0  0  2  0  0  0  0  0  0
  160.8030  206.6010  149.6460 C   0  0  2  0  0  3  0  0  0  0  0  0
  160.5740  204.4800  146.4890 C   0  0  0  0  0  3  0  0  0  0  0  0
  161.4570  201.7350  151.1200 C   0  0  0  0  0  3  0  0  0  0  0  0
  162.1300  206.2270  147.1180 C   0  0  0  0  0  0  0  0  0  0  0  0
  162.6370  206.2030  145.8160 C   0  0  0  0  0  3  0  0  0  0  0  0
  160.3890  206.4630  151.0480 N   0  0  0  0  0  2  0  0  0  0  0  0
  161.1610  204.1380  151.0290 C   0  0  0  0  0  0  0  0  0  0  0  0
  161.4580  202.9790  151.7530 C   0  0  0  0  0  3  0  0  0  0  0  0
  161.4760  209.6640  148.8440 O   0  0  0  0  0  0  0  0  0  0  0  0
  162.1090  209.5000  149.9220 C   0  0  0  0  0  0  0  0  0  0  0  0
  162.5450  208.1970  150.3120 N   0  0  0  0  0  2  0  0  0  0  0  0
  160.1790  211.4510  152.4490 C   0  0  1  0  0  3  0  0  0  0  0  0
  162.2670  210.3180  152.2890 C   0  0  0  0  0  2  0  0  0  0  0  0
  161.6660  212.3010  149.0060 C   0  0  0  0  0  1  0  0  0  0  0  0
  158.7500  211.3470  152.9390 C   0  0  0  0  0  1  0  0  0  0  0  0
  160.8530  210.1690  152.6410 N   0  0  0  0  0  2  0  0  0  0  0  0
  161.6200  211.9400  150.4810 C   0  0  2  0  0  3  0  0  0  0  0  0
  162.4290  210.6720  150.8070 C   0  0  2  0  0  3  0  0  0  0  0  0
  160.1790  211.8300  150.9700 C   0  0  0  0  0  2  0  0  0  0  0  0
  1 14  1  0  0  0  0
  2  5  1  6  0  0  0
  2  3  1  0  0  0  0
  2 13  1  0  0  0  0
  3 19  1  0  0  0  0
  4 15  2  0  0  0  0
  6  1  2  0  0  0  0
  6 17  1  0  0  0  0
  7  3  2  0  0  0  0
  7  4  1  0  0  0  0
  8 13  1  0  0  0  0
  8 23  1  1  0  0  0
  9  1  1  0  0  0  0
 11  4  1  0  0  0  0
 12  8  1  0  0  0  0
 13 18  1  1  0  0  0
 14  5  2  0  0  0  0
 15 20  1  0  0  0  0
 16  5  1  0  0  0  0
 16 12  1  0  0  0  0
 17 16  2  0  0  0  0
 18 10  1  0  0  0  0
 19 10  1  0  0  0  0
 19 20  2  0  0  0  0
 21 22  2  0  0  0  0
 22 23  1  0  0  0  0
 24 28  1  0  0  0  0
 24 27  1  6  0  0  0
 25 28  1  0  0  0  0
 29 26  1  6  0  0  0
 29 30  1  0  0  0  0
 29 31  1  0  0  0  0
 30 22  1  6  0  0  0
 30 25  1  0  0  0  0
 31 24  1  0  0  0  0
M  END
>  <MODEL>
3

>  <REMARK>
 VINA RESULT:      -6.7      2.403      3.040
  Name = 
  2 active torsions:
  status: ('A' for Active; 'I' for Inactive)
    1  A    between atoms: C_5  and  C_30
    2  A    between atoms: C_10  and  N_16
                            x       y       z     vdW  Elec       q    Type
                         _______ _______ _______ _____ _____    ______ ____

>  <TORSDO>
F 2

$$$$
=
 OpenBabel11122413063D

 31 35  0  0  1  0  0  0  0  0999 V2000
  161.8330  206.3800  151.9430 C   0  0  0  0  0  0  0  0  0  0  0  0
  160.0620  209.6330  152.7890 C   0  0  2  0  0  3  0  0  0  0  0  0
  160.5740  210.0430  154.1600 C   0  0  0  0  0  0  0  0  0  0  0  0
  161.4770  209.4370  156.3390 C   0  0  0  0  0  0  0  0  0  0  0  0
  160.9510  208.6260  152.0880 C   0  0  0  0  0  0  0  0  0  0  0  0
  162.6050  206.7530  150.8880 N   0  0  0  0  0  0  0  0  0  0  0  0
  161.0760  209.0790  155.0500 C   0  0  0  0  0  3  0  0  0  0  0  0
  161.0310  211.3910  151.2300 C   0  0  2  0  0  3  0  0  0  0  0  0
  161.8820  205.1050  152.3990 F   0  0  0  0  0  0  0  0  0  0  0  0
  159.9030  212.4400  153.7010 C   0  0  0  0  0  2  0  0  0  0  0  0
  162.0220  208.4070  157.2600 C   0  0  0  0  0  1  0  0  0  0  0  0
  161.6450  210.3280  150.3240 C   0  0  0  0  0  2  0  0  0  0  0  0
  159.7550  210.8490  151.8940 C   0  0  2  0  0  3  0  0  0  0  0  0
  160.9910  207.3070  152.5570 C   0  0  0  0  0  3  0  0  0  0  0  0
  161.3630  210.7620  156.7610 C   0  0  0  0  0  3  0  0  0  0  0  0
  161.7550  208.9870  150.9870 C   0  0  0  0  0  0  0  0  0  0  0  0
  162.5740  208.0200  150.3970 C   0  0  0  0  0  3  0  0  0  0  0  0
  159.0420  211.8830  152.6560 N   0  0  0  0  0  2  0  0  0  0  0  0
  160.4250  211.3720  154.6120 C   0  0  0  0  0  0  0  0  0  0  0  0
  160.8390  211.7270  155.9000 C   0  0  0  0  0  3  0  0  0  0  0  0
  161.4790  211.6760  148.4290 O   0  0  0  0  0  0  0  0  0  0  0  0
  160.9680  212.6540  149.0410 C   0  0  0  0  0  0  0  0  0  0  0  0
  160.7240  212.5790  150.4450 N   0  0  0  0  0  2  0  0  0  0  0  0
  160.2470  213.4740  145.4740 C   0  0  1  0  0  3  0  0  0  0  0  0
  159.2610  213.8150  147.6140 C   0  0  0  0  0  2  0  0  0  0  0  0
  163.0880  214.4070  147.8920 C   0  0  0  0  0  1  0  0  0  0  0  0
  160.2190  212.6250  144.2210 C   0  0  0  0  0  1  0  0  0  0  0  0
  159.3270  212.9140  146.4620 N   0  0  0  0  0  2  0  0  0  0  0  0
  161.6930  214.3630  147.2920 C   0  0  2  0  0  3  0  0  0  0  0  0
  160.6240  213.9200  148.3070 C   0  0  2  0  0  3  0  0  0  0  0  0
  161.6670  213.5020  146.0330 C   0  0  0  0  0  2  0  0  0  0  0  0
  1  9  1  0  0  0  0
  1 14  1  0  0  0  0
  2  5  1  6  0  0  0
  2  3  1  0  0  0  0
  3 19  2  0  0  0  0
  3  7  1  0  0  0  0
  4 15  1  0  0  0  0
  4 11  1  0  0  0  0
  5 14  2  0  0  0  0
  6  1  2  0  0  0  0
  7  4  2  0  0  0  0
  8 23  1  6  0  0  0
  8 13  1  0  0  0  0
 10 19  1  0  0  0  0
 12 16  1  0  0  0  0
 12  8  1  0  0  0  0
 13 18  1  1  0  0  0
 13  2  1  0  0  0  0
 16  5  1  0  0  0  0
 17  6  1  0  0  0  0
 17 16  2  0  0  0  0
 18 10  1  0  0  0  0
 19 20  1  0  0  0  0
 20 15  2  0  0  0  0
 21 22  2  0  0  0  0
 22 23  1  0  0  0  0
 24 27  1  6  0  0  0
 24 31  1  0  0  0  0
 24 28  1  0  0  0  0
 25 30  1  0  0  0  0
 28 25  1  0  0  0  0
 29 26  1  1  0  0  0
 29 30  1  0  0  0  0
 30 22  1  6  0  0  0
 31 29  1  0  0  0  0
M  END
>  <MODEL>
4

>  <REMARK>
 VINA RESULT:      -5.6      4.387      8.064
  Name = 
  2 active torsions:
  status: ('A' for Active; 'I' for Inactive)
    1  A    between atoms: C_5  and  C_30
    2  A    between atoms: C_10  and  N_16
                            x       y       z     vdW  Elec       q    Type
                         _______ _______ _______ _____ _____    ______ ____

>  <TORSDO>
F 2

$$$$
=
 OpenBabel11122413063D

 31 35  0  0  1  0  0  0  0  0999 V2000
  161.5930  202.7520  151.7740 C   0  0  0  0  0  0  0  0  0  0  0  0
  162.3510  206.2420  150.4770 C   0  0  2  0  0  3  0  0  0  0  0  0
  161.7960  206.2930  149.0630 C   0  0  0  0  0  0  0  0  0  0  0  0
  161.2010  205.1570  146.9930 C   0  0  0  0  0  0  0  0  0  0  0  0
  161.7750  205.1190  151.3140 C   0  0  0  0  0  0  0  0  0  0  0  0
  160.7040  203.0160  152.7680 N   0  0  0  0  0  0  0  0  0  0  0  0
  161.6380  205.1120  148.3190 C   0  0  0  0  0  3  0  0  0  0  0  0
  160.8430  207.8220  151.7780 C   0  0  2  0  0  3  0  0  0  0  0  0
  161.9430  201.4720  151.5000 F   0  0  0  0  0  0  0  0  0  0  0  0
  161.7070  208.8200  149.1810 C   0  0  0  0  0  2  0  0  0  0  0  0
  161.0240  203.8980  146.2260 C   0  0  0  0  0  1  0  0  0  0  0  0
  160.5370  206.7550  152.8250 C   0  0  0  0  0  2  0  0  0  0  0  0
  162.2480  207.6030  151.1930 C   0  0  2  0  0  3  0  0  0  0  0  0
  162.1460  203.7980  151.0350 C   0  0  0  0  0  3  0  0  0  0  0  0
  160.9340  206.3870  146.3890 C   0  0  0  0  0  3  0  0  0  0  0  0
  160.8560  205.3670  152.3560 C   0  0  0  0  0  0  0  0  0  0  0  0
  160.3380  204.2870  153.0770 C   0  0  0  0  0  3  0  0  0  0  0  0
  162.6520  208.6910  150.2930 N   0  0  0  0  0  2  0  0  0  0  0  0
  161.5620  207.5320  148.4300 C   0  0  0  0  0  0  0  0  0  0  0  0
  161.1130  207.5710  147.1060 C   0  0  0  0  0  3  0  0  0  0  0  0
  161.4210  208.4180  154.5040 O   0  0  0  0  0  0  0  0  0  0  0  0
  161.0630  209.3730  153.7620 C   0  0  0  0  0  0  0  0  0  0  0  0
  160.7530  209.1410  152.3870 N   0  0  0  0  0  2  0  0  0  0  0  0
  158.2420  211.3760  155.1580 C   0  0  1  0  0  3  0  0  0  0  0  0
  160.4590  210.7550  155.7670 C   0  0  0  0  0  2  0  0  0  0  0  0
  160.4140  211.6870  151.9990 C   0  0  0  0  0  1  0  0  0  0  0  0
  156.7740  211.0660  155.3530 C   0  0  0  0  0  1  0  0  0  0  0  0
  159.0480  210.3710  155.8490 N   0  0  0  0  0  2  0  0  0  0  0  0
  160.0450  211.6930  153.4730 C   0  0  2  0  0  3  0  0  0  0  0  0
  160.9410  210.7660  154.3130 C   0  0  2  0  0  3  0  0  0  0  0  0
  158.5660  211.3750  153.6650 C   0  0  0  0  0  2  0  0  0  0  0  0
  1  6  1  0  0  0  0
  2  3  1  6  0  0  0
  2 13  1  0  0  0  0
  2  5  1  0  0  0  0
  4  7  1  0  0  0  0
  5 16  2  0  0  0  0
  6 17  2  0  0  0  0
  7  3  2  0  0  0  0
  8 23  1  1  0  0  0
  8 12  1  0  0  0  0
  9  1  1  0  0  0  0
 10 18  1  0  0  0  0
 11  4  1  0  0  0  0
 13 18  1  6  0  0  0
 13  8  1  0  0  0  0
 14  5  1  0  0  0  0
 14  1  2  0  0  0  0
 15  4  2  0  0  0  0
 15 20  1  0  0  0  0
 16 12  1  0  0  0  0
 16 17  1  0  0  0  0
 19  3  1  0  0  0  0
 19 10  1  0  0  0  0
 20 19  2  0  0  0  0
 22 21  2  0  0  0  0
 23 22  1  0  0  0  0
 24 27  1  6  0  0  0
 24 28  1  0  0  0  0
 25 28  1  0  0  0  0
 29 26  1  6  0  0  0
 29 31  1  0  0  0  0
 29 30  1  0  0  0  0
 30 22  1  6  0  0  0
 30 25  1  0  0  0  0
 31 24  1  0  0  0  0
M  END
>  <MODEL>
5

>  <REMARK>
 VINA RESULT:      -5.4      2.302      4.234
  Name = 
  2 active torsions:
  status: ('A' for Active; 'I' for Inactive)
    1  A    between atoms: C_5  and  C_30
    2  A    between atoms: C_10  and  N_16
                            x       y       z     vdW  Elec       q    Type
                         _______ _______ _______ _____ _____    ______ ____

>  <TORSDO>
F 2

$$$$
=
 OpenBabel11122413063D

 31 35  0  0  1  0  0  0  0  0999 V2000
  160.8310  201.5540  149.3680 C   0  0  0  0  0  0  0  0  0  0  0  0
  162.3070  204.9750  150.1090 C   0  0  2  0  0  3  0  0  0  0  0  0
  161.7330  205.9150  149.0610 C   0  0  0  0  0  0  0  0  0  0  0  0
  160.8360  206.2810  146.8280 C   0  0  0  0  0  0  0  0  0  0  0  0
  161.5210  203.6900  150.2660 C   0  0  0  0  0  0  0  0  0  0  0  0
  160.0540  201.3460  150.4640 N   0  0  0  0  0  0  0  0  0  0  0  0
  161.2930  205.4160  147.8240 C   0  0  0  0  0  3  0  0  0  0  0  0
  161.2300  205.7550  152.2760 C   0  0  2  0  0  3  0  0  0  0  0  0
  160.8780  200.6230  148.3850 F   0  0  0  0  0  0  0  0  0  0  0  0
  162.2130  207.8950  150.5630 C   0  0  0  0  0  2  0  0  0  0  0  0
  160.3590  205.7340  145.5310 C   0  0  0  0  0  1  0  0  0  0  0  0
  160.7270  204.3500  152.5950 C   0  0  0  0  0  2  0  0  0  0  0  0
  162.5320  205.6790  151.4620 C   0  0  2  0  0  3  0  0  0  0  0  0
  161.5800  202.7250  149.2530 C   0  0  0  0  0  3  0  0  0  0  0  0
  160.8310  207.6590  147.0490 C   0  0  0  0  0  3  0  0  0  0  0  0
  160.7140  203.4480  151.3970 C   0  0  0  0  0  0  0  0  0  0  0  0
  159.9910  202.2540  151.4730 C   0  0  0  0  0  3  0  0  0  0  0  0
  163.1400  207.0010  151.2610 N   0  0  0  0  0  2  0  0  0  0  0  0
  161.7620  207.3110  149.2590 C   0  0  0  0  0  0  0  0  0  0  0  0
  161.2920  208.1730  148.2630 C   0  0  0  0  0  3  0  0  0  0  0  0
  160.1860  208.3370  152.8820 O   0  0  0  0  0  0  0  0  0  0  0  0
  160.8970  207.7750  153.7590 C   0  0  0  0  0  0  0  0  0  0  0  0
  161.4550  206.4830  153.5170 N   0  0  0  0  0  2  0  0  0  0  0  0
  159.1010  210.3320  155.7970 C   0  0  1  0  0  3  0  0  0  0  0  0
  160.0810  208.1820  156.0970 C   0  0  0  0  0  2  0  0  0  0  0  0
  162.4300  210.3280  153.8720 C   0  0  0  0  0  1  0  0  0  0  0  0
  157.8030  211.0780  155.5780 C   0  0  0  0  0  1  0  0  0  0  0  0
  158.8480  208.8920  155.7510 N   0  0  0  0  0  2  0  0  0  0  0  0
  161.4090  209.9760  154.9410 C   0  0  2  0  0  3  0  0  0  0  0  0
  161.1810  208.4590  155.0670 C   0  0  2  0  0  3  0  0  0  0  0  0
  160.1010  210.7260  154.7130 C   0  0  0  0  0  2  0  0  0  0  0  0
  1  6  1  0  0  0  0
  2  3  1  6  0  0  0
  2  5  1  0  0  0  0
  2 13  1  0  0  0  0
  3 19  1  0  0  0  0
  4 15  2  0  0  0  0
  4  7  1  0  0  0  0
  5 16  2  0  0  0  0
  6 17  2  0  0  0  0
  7  3  2  0  0  0  0
  8 12  1  0  0  0  0
  8 23  1  1  0  0  0
  9  1  1  0  0  0  0
 10 18  1  0  0  0  0
 11  4  1  0  0  0  0
 13 18  1  6  0  0  0
 13  8  1  0  0  0  0
 14  1  2  0  0  0  0
 14  5  1  0  0  0  0
 15 20  1  0  0  0  0
 16 17  1  0  0  0  0
 16 12  1  0  0  0  0
 19 10  1  0  0  0  0
 20 19  2  0  0  0  0
 21 22  2  0  0  0  0
 23 22  1  0  0  0  0
 24 27  1  6  0  0  0
 28 24  1  0  0  0  0
 28 25  1  0  0  0  0
 29 26  1  6  0  0  0
 29 30  1  0  0  0  0
 30 22  1  6  0  0  0
 30 25  1  0  0  0  0
 31 29  1  0  0  0  0
 31 24  1  0  0  0  0
M  END
>  <MODEL>
6

>  <REMARK>
 VINA RESULT:      -5.2      1.691      3.919
  Name = 
  2 active torsions:
  status: ('A' for Active; 'I' for Inactive)
    1  A    between atoms: C_5  and  C_30
    2  A    between atoms: C_10  and  N_16
                            x       y       z     vdW  Elec       q    Type
                         _______ _______ _______ _____ _____    ______ ____

>  <TORSDO>
F 2

$$$$
=
 OpenBabel11122413063D

 31 35  0  0  1  0  0  0  0  0999 V2000
  161.3630  202.4000  151.3070 C   0  0  0  0  0  0  0  0  0  0  0  0
  162.3520  205.7110  149.7260 C   0  0  2  0  0  3  0  0  0  0  0  0
  161.6950  205.7320  148.3550 C   0  0  0  0  0  0  0  0  0  0  0  0
  160.8320  204.5410  146.4150 C   0  0  0  0  0  0  0  0  0  0  0  0
  161.7360  204.7040  150.6760 C   0  0  0  0  0  0  0  0  0  0  0  0
  160.5840  202.8120  152.3420 N   0  0  0  0  0  0  0  0  0  0  0  0
  161.3660  204.5320  147.7050 C   0  0  0  0  0  3  0  0  0  0  0  0
  161.1100  207.5110  151.0210 C   0  0  2  0  0  3  0  0  0  0  0  0
  161.5650  201.0770  151.0960 F   0  0  0  0  0  0  0  0  0  0  0  0
  161.8600  208.2580  148.3080 C   0  0  0  0  0  2  0  0  0  0  0  0
  160.4740  203.2620  145.7490 C   0  0  0  0  0  1  0  0  0  0  0  0
  160.7860  206.5460  152.1570 C   0  0  0  0  0  2  0  0  0  0  0  0
  162.4370  207.1160  150.3530 C   0  0  2  0  0  3  0  0  0  0  0  0
  161.9550  203.3380  150.4610 C   0  0  0  0  0  3  0  0  0  0  0  0
  160.6390  205.7530  145.7500 C   0  0  0  0  0  3  0  0  0  0  0  0
  160.9310  205.1060  151.7620 C   0  0  0  0  0  0  0  0  0  0  0  0
  160.3690  204.1310  152.5890 C   0  0  0  0  0  3  0  0  0  0  0  0
  162.8730  208.1010  149.3550 N   0  0  0  0  0  2  0  0  0  0  0  0
  161.5330  206.9480  147.6580 C   0  0  0  0  0  0  0  0  0  0  0  0
  160.9880  206.9530  146.3700 C   0  0  0  0  0  3  0  0  0  0  0  0
  161.0670  208.2140  153.7830 O   0  0  0  0  0  0  0  0  0  0  0  0
  161.1740  209.1500  152.9450 C   0  0  0  0  0  0  0  0  0  0  0  0
  161.1960  208.8670  151.5460 N   0  0  0  0  0  2  0  0  0  0  0  0
  160.0790  210.9720  156.0110 C   0  0  1  0  0  3  0  0  0  0  0  0
  162.0550  210.7030  154.7090 C   0  0  0  0  0  2  0  0  0  0  0  0
  159.0270  211.1200  152.3140 C   0  0  0  0  0  1  0  0  0  0  0  0
  159.3480  210.5190  157.2560 C   0  0  0  0  0  1  0  0  0  0  0  0
  161.2880  210.1690  155.8360 N   0  0  0  0  0  2  0  0  0  0  0  0
  159.9000  211.2760  153.5480 C   0  0  2  0  0  3  0  0  0  0  0  0
  161.2650  210.5790  153.4010 C   0  0  2  0  0  3  0  0  0  0  0  0
  159.1630  210.8130  154.8000 C   0  0  0  0  0  2  0  0  0  0  0  0
  1  6  1  0  0  0  0
  2  3  1  6  0  0  0
  2 13  1  0  0  0  0
  2  5  1  0  0  0  0
  4  7  2  0  0  0  0
  5 16  2  0  0  0  0
  6 17  2  0  0  0  0
  7  3  1  0  0  0  0
  8 23  1  1  0  0  0
  8 12  1  0  0  0  0
  9  1  1  0  0  0  0
 10 18  1  0  0  0  0
 11  4  1  0  0  0  0
 13 18  1  6  0  0  0
 13  8  1  0  0  0  0
 14  5  1  0  0  0  0
 14  1  2  0  0  0  0
 15 20  2  0  0  0  0
 15  4  1  0  0  0  0
 16 12  1  0  0  0  0
 16 17  1  0  0  0  0
 19 10  1  0  0  0  0
 19  3  2  0  0  0  0
 20 19  1  0  0  0  0
 22 21  2  0  0  0  0
 23 22  1  0  0  0  0
 24 27  1  1  0  0  0
 25 28  1  0  0  0  0
 28 24  1  0  0  0  0
 29 26  1  6  0  0  0
 29 31  1  0  0  0  0
 30 22  1  1  0  0  0
 30 29  1  0  0  0  0
 30 25  1  0  0  0  0
 31 24  1  0  0  0  0
M  END
>  <MODEL>
7

>  <REMARK>
 VINA RESULT:      -5.0      2.187      4.165
  Name = 
  2 active torsions:
  status: ('A' for Active; 'I' for Inactive)
    1  A    between atoms: C_5  and  C_30
    2  A    between atoms: C_10  and  N_16
                            x       y       z     vdW  Elec       q    Type
                         _______ _______ _______ _____ _____    ______ ____

>  <TORSDO>
F 2

$$$$
