=
 OpenBabel11122413253D

 31 35  0  0  1  0  0  0  0  0999 V2000
  161.0980  204.2980  145.4960 C   0  0  0  0  0  0  0  0  0  0  0  0
  160.5390  205.8680  148.9210 C   0  0  2  0  0  3  0  0  0  0  0  0
  160.9130  204.8330  149.9720 C   0  0  0  0  0  0  0  0  0  0  0  0
  161.1840  202.4960  150.6050 C   0  0  0  0  0  0  0  0  0  0  0  0
  161.1240  205.5740  147.5600 C   0  0  0  0  0  0  0  0  0  0  0  0
  162.2140  205.0040  145.0410 C   0  0  0  0  0  3  0  0  0  0  0  0
  160.9250  203.4690  149.6370 C   0  0  0  0  0  3  0  0  0  0  0  0
  162.3560  207.6130  149.1850 C   0  0  2  0  0  3  0  0  0  0  0  0
  160.5450  203.3340  144.7210 F   0  0  0  0  0  0  0  0  0  0  0  0
  161.1260  206.6390  151.7610 C   0  0  0  0  0  2  0  0  0  0  0  0
  161.2080  201.1550  150.2520 O   0  0  0  0  0  1  0  0  0  0  0  0
  162.7850  207.3330  147.8520 O   0  0  0  0  0  0  0  0  0  0  0  0
  160.8570  207.3130  149.3530 C   0  0  2  0  0  3  0  0  0  0  0  0
  160.5530  204.5830  146.7500 C   0  0  0  0  0  3  0  0  0  0  0  0
  161.4160  202.8740  151.9280 C   0  0  0  0  0  3  0  0  0  0  0  0
  162.2400  206.2940  147.0910 C   0  0  0  0  0  0  0  0  0  0  0  0
  162.7810  206.0030  145.8360 C   0  0  0  0  0  3  0  0  0  0  0  0
  160.3830  207.5480  150.7870 C   0  0  0  0  0  2  0  0  0  0  0  0
  161.1100  205.2030  151.3240 C   0  0  0  0  0  0  0  0  0  0  0  0
  161.3790  204.2220  152.2850 C   0  0  0  0  0  3  0  0  0  0  0  0
  161.2990  209.8520  147.7790 O   0  0  0  0  0  0  0  0  0  0  0  0
  162.0610  210.0850  148.7580 C   0  0  0  0  0  0  0  0  0  0  0  0
  162.6300  209.0070  149.5010 N   0  0  0  0  0  2  0  0  0  0  0  0
  161.0680  213.5480  147.5640 N   0  0  0  0  0  0  0  0  0  0  0  0
  161.1470  212.2470  149.6430 C   0  0  0  0  0  2  0  0  0  0  0  0
  164.1450  211.5450  147.4850 O   0  0  0  0  0  1  0  0  0  0  0  0
  160.1820  213.9380  146.4830 C   0  0  0  0  0  1  0  0  0  0  0  0
  160.2850  212.7030  148.4640 C   0  0  0  0  0  2  0  0  0  0  0  0
  163.1090  212.2910  148.0500 C   0  0  2  0  0  3  0  0  0  0  0  0
  162.3890  211.4970  149.1530 C   0  0  2  0  0  3  0  0  0  0  0  0
  162.1270  212.7370  146.9670 C   0  0  0  0  0  2  0  0  0  0  0  0
  1 14  1  0  0  0  0
  2  5  1  6  0  0  0
  2 13  1  0  0  0  0
  2  3  1  0  0  0  0
  3 19  1  0  0  0  0
  4 15  2  0  0  0  0
  6  1  2  0  0  0  0
  6 17  1  0  0  0  0
  7  3  2  0  0  0  0
  7  4  1  0  0  0  0
  8 13  1  0  0  0  0
  8 23  1  6  0  0  0
  9  1  1  0  0  0  0
 11  4  1  0  0  0  0
 12  8  1  0  0  0  0
 13 18  1  1  0  0  0
 14  5  2  0  0  0  0
 15 20  1  0  0  0  0
 16  5  1  0  0  0  0
 16 12  1  0  0  0  0
 17 16  2  0  0  0  0
 18 10  1  0  0  0  0
 19 10  1  0  0  0  0
 19 20  2  0  0  0  0
 21 22  2  0  0  0  0
 22 23  1  0  0  0  0
 24 28  1  0  0  0  0
 27 24  1  0  0  0  0
 28 25  1  0  0  0  0
 29 26  1  6  0  0  0
 29 30  1  0  0  0  0
 30 22  1  6  0  0  0
 30 25  1  0  0  0  0
 31 24  1  0  0  0  0
 31 29  1  0  0  0  0
M  END
>  <MODEL>
1

>  <REMARK>
 VINA RESULT:      -8.0      0.000      0.000
  Name = 
  2 active torsions:
  status: ('A' for Active; 'I' for Inactive)
    1  A    between atoms: C_5  and  C_30
    2  A    between atoms: C_10  and  N_16
                            x       y       z     vdW  Elec       q    Type
                         _______ _______ _______ _____ _____    ______ ____

>  <TORSDO>
F 2

$$$$
=
 OpenBabel11122413253D

 31 35  0  0  1  0  0  0  0  0999 V2000
  160.8910  206.6640  146.6850 C   0  0  0  0  0  0  0  0  0  0  0  0
  160.2970  204.9620  150.0400 C   0  0  2  0  0  3  0  0  0  0  0  0
  160.7450  203.5130  149.9110 C   0  0  0  0  0  0  0  0  0  0  0  0
  161.1580  201.5670  148.5050 C   0  0  0  0  0  0  0  0  0  0  0  0
  160.8770  205.8620  148.9750 C   0  0  0  0  0  0  0  0  0  0  0  0
  161.9590  207.5140  146.9860 C   0  0  0  0  0  3  0  0  0  0  0  0
  160.8290  202.9170  148.6420 C   0  0  0  0  0  3  0  0  0  0  0  0
  162.0160  205.9380  151.6240 C   0  0  2  0  0  3  0  0  0  0  0  0
  160.3820  206.6340  145.4300 F   0  0  0  0  0  0  0  0  0  0  0  0
  160.8840  203.2660  152.4470 C   0  0  0  0  0  2  0  0  0  0  0  0
  161.2530  201.0010  147.2420 O   0  0  0  0  0  1  0  0  0  0  0  0
  162.4400  206.8180  150.5820 O   0  0  0  0  0  0  0  0  0  0  0  0
  160.5400  205.5480  151.4450 C   0  0  2  0  0  3  0  0  0  0  0  0
  160.3500  205.8430  147.6780 C   0  0  0  0  0  3  0  0  0  0  0  0
  161.3890  200.7880  149.6390 C   0  0  0  0  0  3  0  0  0  0  0  0
  161.9420  206.7320  149.2790 C   0  0  0  0  0  0  0  0  0  0  0  0
  162.4800  207.5500  148.2810 C   0  0  0  0  0  3  0  0  0  0  0  0
  160.0750  204.5590  152.5140 C   0  0  0  0  0  2  0  0  0  0  0  0
  160.9420  202.7040  151.0560 C   0  0  0  0  0  0  0  0  0  0  0  0
  161.2810  201.3550  150.9090 C   0  0  0  0  0  3  0  0  0  0  0  0
  160.5800  208.2100  152.5650 O   0  0  0  0  0  0  0  0  0  0  0  0
  161.4560  207.7170  153.3290 C   0  0  0  0  0  0  0  0  0  0  0  0
  162.2160  206.5810  152.9150 N   0  0  0  0  0  2  0  0  0  0  0  0
  159.5560  209.9630  155.7270 N   0  0  0  0  0  0  0  0  0  0  0  0
  160.7240  207.8050  155.7270 C   0  0  0  0  0  2  0  0  0  0  0  0
  162.5380  210.3320  153.6140 O   0  0  0  0  0  1  0  0  0  0  0  0
  158.2400  210.5600  155.5930 C   0  0  0  0  0  1  0  0  0  0  0  0
  159.3770  208.5190  155.5930 C   0  0  0  0  0  2  0  0  0  0  0  0
  161.7600  209.8550  154.6710 C   0  0  2  0  0  3  0  0  0  0  0  0
  161.7180  208.3170  154.6800 C   0  0  2  0  0  3  0  0  0  0  0  0
  160.3500  210.4390  154.5960 C   0  0  0  0  0  2  0  0  0  0  0  0
  1  6  2  0  0  0  0
  1 14  1  0  0  0  0
  2  5  1  6  0  0  0
  2 13  1  0  0  0  0
  3  2  1  0  0  0  0
  3 19  1  0  0  0  0
  4  7  1  0  0  0  0
  4 15  2  0  0  0  0
  5 16  1  0  0  0  0
  6 17  1  0  0  0  0
  7  3  2  0  0  0  0
  8 23  1  1  0  0  0
  9  1  1  0  0  0  0
 10 18  1  0  0  0  0
 11  4  1  0  0  0  0
 12  8  1  0  0  0  0
 13  8  1  0  0  0  0
 13 18  1  1  0  0  0
 14  5  2  0  0  0  0
 15 20  1  0  0  0  0
 16 12  1  0  0  0  0
 17 16  2  0  0  0  0
 19 10  1  0  0  0  0
 20 19  2  0  0  0  0
 21 22  2  0  0  0  0
 23 22  1  0  0  0  0
 27 24  1  0  0  0  0
 28 24  1  0  0  0  0
 28 25  1  0  0  0  0
 29 26  1  6  0  0  0
 29 30  1  0  0  0  0
 30 22  1  6  0  0  0
 30 25  1  0  0  0  0
 31 29  1  0  0  0  0
 31 24  1  0  0  0  0
M  END
>  <MODEL>
2

>  <REMARK>
 VINA RESULT:      -7.6      3.536      4.814
  Name = 
  2 active torsions:
  status: ('A' for Active; 'I' for Inactive)
    1  A    between atoms: C_5  and  C_30
    2  A    between atoms: C_10  and  N_16
                            x       y       z     vdW  Elec       q    Type
                         _______ _______ _______ _____ _____    ______ ____

>  <TORSDO>
F 2

$$$$
=
 OpenBabel11122413253D

 31 35  0  0  1  0  0  0  0  0999 V2000
  161.0600  204.8070  145.0670 C   0  0  0  0  0  0  0  0  0  0  0  0
  160.5260  205.0380  148.8320 C   0  0  2  0  0  3  0  0  0  0  0  0
  160.9080  203.6950  149.4380 C   0  0  0  0  0  0  0  0  0  0  0  0
  161.1860  201.2890  149.1860 C   0  0  0  0  0  0  0  0  0  0  0  0
  161.1010  205.2550  147.4520 C   0  0  0  0  0  0  0  0  0  0  0  0
  162.1720  205.6340  144.8900 C   0  0  0  0  0  3  0  0  0  0  0  0
  160.9180  202.5430  148.6350 C   0  0  0  0  0  3  0  0  0  0  0  0
  162.3440  206.5770  149.6940 C   0  0  2  0  0  3  0  0  0  0  0  0
  160.5020  204.1850  144.0020 F   0  0  0  0  0  0  0  0  0  0  0  0
  161.1350  204.7370  151.7560 C   0  0  0  0  0  2  0  0  0  0  0  0
  161.2080  200.1640  148.3740 O   0  0  0  0  0  1  0  0  0  0  0  0
  162.7630  206.7970  148.3470 O   0  0  0  0  0  0  0  0  0  0  0  0
  160.8470  206.2320  149.7530 C   0  0  2  0  0  3  0  0  0  0  0  0
  160.5240  204.6210  146.3450 C   0  0  0  0  0  3  0  0  0  0  0  0
  161.4270  201.1660  150.5550 C   0  0  0  0  0  3  0  0  0  0  0  0
  162.2130  206.1000  147.2670 C   0  0  0  0  0  0  0  0  0  0  0  0
  162.7440  206.2820  145.9880 C   0  0  0  0  0  3  0  0  0  0  0  0
  160.3840  205.9340  151.1790 C   0  0  0  0  0  2  0  0  0  0  0  0
  161.1160  203.5550  150.8310 C   0  0  0  0  0  0  0  0  0  0  0  0
  161.3930  202.2950  151.3730 C   0  0  0  0  0  3  0  0  0  0  0  0
  161.5480  209.2260  149.0170 O   0  0  0  0  0  0  0  0  0  0  0  0
  162.1860  209.0670  150.0930 C   0  0  0  0  0  0  0  0  0  0  0  0
  162.6200  207.7650  150.4890 N   0  0  0  0  0  2  0  0  0  0  0  0
  160.2300  211.3340  152.4250 N   0  0  0  0  0  0  0  0  0  0  0  0
  162.2400  209.9270  152.4490 C   0  0  0  0  0  2  0  0  0  0  0  0
  161.8920  211.7430  149.1760 O   0  0  0  0  0  1  0  0  0  0  0  0
  158.8170  211.3290  152.7550 C   0  0  0  0  0  1  0  0  0  0  0  0
  160.7440  210.0090  152.7630 C   0  0  0  0  0  2  0  0  0  0  0  0
  161.7900  211.5360  150.5520 C   0  0  2  0  0  3  0  0  0  0  0  0
  162.5050  210.2410  150.9740 C   0  0  2  0  0  3  0  0  0  0  0  0
  160.3230  211.5140  150.9780 C   0  0  0  0  0  2  0  0  0  0  0  0
  1 14  1  0  0  0  0
  2  5  1  6  0  0  0
  2  3  1  0  0  0  0
  2 13  1  0  0  0  0
  3 19  1  0  0  0  0
  4 15  2  0  0  0  0
  6  1  2  0  0  0  0
  6 17  1  0  0  0  0
  7  4  1  0  0  0  0
  7  3  2  0  0  0  0
  8 13  1  0  0  0  0
  8 23  1  1  0  0  0
  9  1  1  0  0  0  0
 11  4  1  0  0  0  0
 12  8  1  0  0  0  0
 13 18  1  1  0  0  0
 14  5  2  0  0  0  0
 15 20  1  0  0  0  0
 16  5  1  0  0  0  0
 16 12  1  0  0  0  0
 17 16  2  0  0  0  0
 18 10  1  0  0  0  0
 19 20  2  0  0  0  0
 19 10  1  0  0  0  0
 21 22  2  0  0  0  0
 22 23  1  0  0  0  0
 24 27  1  0  0  0  0
 24 28  1  0  0  0  0
 25 28  1  0  0  0  0
 29 26  1  6  0  0  0
 29 30  1  0  0  0  0
 29 31  1  0  0  0  0
 30 22  1  6  0  0  0
 30 25  1  0  0  0  0
 31 24  1  0  0  0  0
M  END
>  <MODEL>
3

>  <REMARK>
 VINA RESULT:      -7.2      1.994      2.564
  Name = 
  2 active torsions:
  status: ('A' for Active; 'I' for Inactive)
    1  A    between atoms: C_5  and  C_30
    2  A    between atoms: C_10  and  N_16
                            x       y       z     vdW  Elec       q    Type
                         _______ _______ _______ _____ _____    ______ ____

>  <TORSDO>
F 2

$$$$
=
 OpenBabel11122413253D

 31 35  0  0  1  0  0  0  0  0999 V2000
  160.8540  207.2980  156.2960 C   0  0  0  0  0  0  0  0  0  0  0  0
  161.9150  208.2370  152.7600 C   0  0  2  0  0  3  0  0  0  0  0  0
  161.4360  207.1360  151.8250 C   0  0  0  0  0  0  0  0  0  0  0  0
  160.7990  204.8100  151.4830 C   0  0  0  0  0  0  0  0  0  0  0  0
  161.1960  208.2450  154.0880 C   0  0  0  0  0  0  0  0  0  0  0  0
  159.8520  208.2390  156.5480 C   0  0  0  0  0  3  0  0  0  0  0  0
  161.1600  205.8560  152.3340 C   0  0  0  0  0  3  0  0  0  0  0  0
  160.4590  210.2010  152.1010 C   0  0  2  0  0  3  0  0  0  0  0  0
  161.1730  206.3790  157.2380 F   0  0  0  0  0  0  0  0  0  0  0  0
  161.6690  208.6720  149.8010 C   0  0  0  0  0  2  0  0  0  0  0  0
  160.5130  203.5570  152.0060 O   0  0  0  0  0  1  0  0  0  0  0  0
  159.8970  210.1940  153.4140 O   0  0  0  0  0  0  0  0  0  0  0  0
  161.8880  209.6360  152.1140 C   0  0  2  0  0  3  0  0  0  0  0  0
  161.5260  207.3030  155.0710 C   0  0  0  0  0  3  0  0  0  0  0  0
  160.7290  205.0240  150.1060 C   0  0  0  0  0  3  0  0  0  0  0  0
  160.1960  209.2020  154.3520 C   0  0  0  0  0  0  0  0  0  0  0  0
  159.5270  209.1910  155.5790 C   0  0  0  0  0  3  0  0  0  0  0  0
  162.4930  209.5770  150.7110 C   0  0  0  0  0  2  0  0  0  0  0  0
  161.4010  207.3330  150.4230 C   0  0  0  0  0  0  0  0  0  0  0  0
  161.0280  206.2810  149.5790 C   0  0  0  0  0  3  0  0  0  0  0  0
  158.2010  211.9360  152.0480 O   0  0  0  0  0  0  0  0  0  0  0  0
  159.2890  212.3810  151.5890 C   0  0  0  0  0  0  0  0  0  0  0  0
  160.4580  211.5610  151.5800 N   0  0  0  0  0  2  0  0  0  0  0  0
  157.8940  214.2070  148.5680 N   0  0  0  0  0  0  0  0  0  0  0  0
  158.0000  214.4530  151.0070 C   0  0  0  0  0  2  0  0  0  0  0  0
  161.2290  213.1000  149.6370 O   0  0  0  0  0  1  0  0  0  0  0  0
  157.0480  213.7150  147.4960 C   0  0  0  0  0  1  0  0  0  0  0  0
  157.1760  213.9580  149.8170 C   0  0  0  0  0  2  0  0  0  0  0  0
  160.0530  213.8520  149.6610 C   0  0  2  0  0  3  0  0  0  0  0  0
  159.3730  213.7760  151.0390 C   0  0  2  0  0  3  0  0  0  0  0  0
  159.1050  213.3880  148.5570 C   0  0  0  0  0  2  0  0  0  0  0  0
  1  6  1  0  0  0  0
  1  9  1  0  0  0  0
  2  3  1  6  0  0  0
  2  5  1  0  0  0  0
  3  7  1  0  0  0  0
  4 11  1  0  0  0  0
  4  7  2  0  0  0  0
  5 16  2  0  0  0  0
  5 14  1  0  0  0  0
  8 23  1  1  0  0  0
  8 13  1  0  0  0  0
  8 12  1  0  0  0  0
 10 19  1  0  0  0  0
 10 18  1  0  0  0  0
 12 16  1  0  0  0  0
 13 18  1  6  0  0  0
 13  2  1  0  0  0  0
 14  1  2  0  0  0  0
 15  4  1  0  0  0  0
 16 17  1  0  0  0  0
 17  6  2  0  0  0  0
 19  3  2  0  0  0  0
 20 15  2  0  0  0  0
 20 19  1  0  0  0  0
 22 21  2  0  0  0  0
 23 22  1  0  0  0  0
 24 28  1  0  0  0  0
 25 30  1  0  0  0  0
 27 24  1  0  0  0  0
 28 25  1  0  0  0  0
 29 26  1  1  0  0  0
 29 30  1  0  0  0  0
 30 22  1  6  0  0  0
 31 24  1  0  0  0  0
 31 29  1  0  0  0  0
M  END
>  <MODEL>
4

>  <REMARK>
 VINA RESULT:      -6.6      3.925      5.990
  Name = 
  2 active torsions:
  status: ('A' for Active; 'I' for Inactive)
    1  A    between atoms: C_5  and  C_30
    2  A    between atoms: C_10  and  N_16
                            x       y       z     vdW  Elec       q    Type
                         _______ _______ _______ _____ _____    ______ ____

>  <TORSDO>
F 2

$$$$
=
 OpenBabel11122413253D

 31 35  0  0  1  0  0  0  0  0999 V2000
  160.6710  209.2630  154.9200 C   0  0  0  0  0  0  0  0  0  0  0  0
  162.0900  209.5880  151.4000 C   0  0  2  0  0  3  0  0  0  0  0  0
  161.6330  208.3760  150.6010 C   0  0  0  0  0  0  0  0  0  0  0  0
  160.8960  206.0550  150.5590 C   0  0  0  0  0  0  0  0  0  0  0  0
  161.2590  209.8360  152.6360 C   0  0  0  0  0  0  0  0  0  0  0  0
  159.7070  210.2740  154.9280 C   0  0  0  0  0  3  0  0  0  0  0  0
  161.2400  207.2050  151.2710 C   0  0  0  0  0  3  0  0  0  0  0  0
  160.8130  211.4860  150.3130 C   0  0  2  0  0  3  0  0  0  0  0  0
  160.8530  208.4910  156.0170 F   0  0  0  0  0  0  0  0  0  0  0  0
  162.1300  209.5630  148.3990 C   0  0  0  0  0  2  0  0  0  0  0  0
  160.4940  204.9130  151.2370 O   0  0  0  0  0  1  0  0  0  0  0  0
  160.1380  211.7090  151.5510 O   0  0  0  0  0  0  0  0  0  0  0  0
  162.2010  210.8680  150.5480 C   0  0  2  0  0  3  0  0  0  0  0  0
  161.4470  209.0470  153.7780 C   0  0  0  0  0  3  0  0  0  0  0  0
  160.9590  206.0520  149.1650 C   0  0  0  0  0  3  0  0  0  0  0  0
  160.2960  210.8650  152.6540 C   0  0  0  0  0  0  0  0  0  0  0  0
  159.5230  211.0750  153.7990 C   0  0  0  0  0  3  0  0  0  0  0  0
  162.9220  210.5640  149.2350 C   0  0  0  0  0  2  0  0  0  0  0  0
  161.7320  208.3510  149.1890 C   0  0  0  0  0  0  0  0  0  0  0  0
  161.3750  207.1970  148.4840 C   0  0  0  0  0  3  0  0  0  0  0  0
  160.1070  211.8910  147.5840 O   0  0  0  0  0  0  0  0  0  0  0  0
  160.5560  212.8820  148.2230 C   0  0  0  0  0  0  0  0  0  0  0  0
  160.9350  212.7450  149.5930 N   0  0  0  0  0  2  0  0  0  0  0  0
  161.2190  214.1010  144.6900 N   0  0  0  0  0  0  0  0  0  0  0  0
  159.6110  214.4530  146.5100 C   0  0  0  0  0  2  0  0  0  0  0  0
  163.1080  214.0790  147.8400 O   0  0  0  0  0  1  0  0  0  0  0  0
  161.4310  213.3420  143.4720 C   0  0  0  0  0  1  0  0  0  0  0  0
  159.9190  213.6930  145.2180 C   0  0  0  0  0  2  0  0  0  0  0  0
  162.1010  214.4460  146.9450 C   0  0  2  0  0  3  0  0  0  0  0  0
  160.7070  214.2180  147.5540 C   0  0  2  0  0  3  0  0  0  0  0  0
  162.2550  213.6810  145.6320 C   0  0  0  0  0  2  0  0  0  0  0  0
  1  6  1  0  0  0  0
  1  9  1  0  0  0  0
  2  3  1  6  0  0  0
  2  5  1  0  0  0  0
  3  7  1  0  0  0  0
  4 11  1  0  0  0  0
  4  7  2  0  0  0  0
  5 16  2  0  0  0  0
  5 14  1  0  0  0  0
  8 23  1  1  0  0  0
  8 13  1  0  0  0  0
  8 12  1  0  0  0  0
 10 19  1  0  0  0  0
 10 18  1  0  0  0  0
 12 16  1  0  0  0  0
 13 18  1  6  0  0  0
 13  2  1  0  0  0  0
 14  1  2  0  0  0  0
 15  4  1  0  0  0  0
 16 17  1  0  0  0  0
 17  6  2  0  0  0  0
 19  3  2  0  0  0  0
 20 15  2  0  0  0  0
 20 19  1  0  0  0  0
 21 22  2  0  0  0  0
 22 23  1  0  0  0  0
 24 28  1  0  0  0  0
 24 31  1  0  0  0  0
 25 30  1  0  0  0  0
 27 24  1  0  0  0  0
 28 25  1  0  0  0  0
 29 30  1  0  0  0  0
 29 26  1  1  0  0  0
 30 22  1  6  0  0  0
 31 29  1  0  0  0  0
M  END
>  <MODEL>
5

>  <REMARK>
 VINA RESULT:      -5.7      3.357      5.766
  Name = 
  2 active torsions:
  status: ('A' for Active; 'I' for Inactive)
    1  A    between atoms: C_5  and  C_30
    2  A    between atoms: C_10  and  N_16
                            x       y       z     vdW  Elec       q    Type
                         _______ _______ _______ _____ _____    ______ ____

>  <TORSDO>
F 2

$$$$
=
 OpenBabel11122413253D

 31 35  0  0  1  0  0  0  0  0999 V2000
  156.9610  214.2080  151.5510 C   0  0  0  0  0  0  0  0  0  0  0  0
  160.3290  213.8040  149.8180 C   0  0  2  0  0  3  0  0  0  0  0  0
  160.8460  212.4070  150.1280 C   0  0  0  0  0  0  0  0  0  0  0  0
  160.8820  210.4690  151.6030 C   0  0  0  0  0  0  0  0  0  0  0  0
  158.8420  213.9530  150.0390 C   0  0  0  0  0  0  0  0  0  0  0  0
  156.0830  214.2080  150.4640 C   0  0  0  0  0  3  0  0  0  0  0  0
  160.3630  211.7160  151.2520 C   0  0  0  0  0  3  0  0  0  0  0  0
  159.8190  213.6730  147.3400 C   0  0  2  0  0  3  0  0  0  0  0  0
  156.4780  214.3260  152.8110 F   0  0  0  0  0  0  0  0  0  0  0  0
  162.4750  212.5090  148.1680 C   0  0  0  0  0  2  0  0  0  0  0  0
  160.3810  209.7940  152.7070 O   0  0  0  0  0  1  0  0  0  0  0  0
  158.4420  213.9090  147.6360 O   0  0  0  0  0  0  0  0  0  0  0  0
  160.7250  214.2990  148.4130 C   0  0  2  0  0  3  0  0  0  0  0  0
  158.3370  214.0840  151.3390 C   0  0  0  0  0  3  0  0  0  0  0  0
  161.9070  209.9020  150.8450 C   0  0  0  0  0  3  0  0  0  0  0  0
  157.9550  213.9700  148.9450 C   0  0  0  0  0  0  0  0  0  0  0  0
  156.5810  214.0930  149.1630 C   0  0  0  0  0  3  0  0  0  0  0  0
  162.2030  214.0100  148.1520 C   0  0  0  0  0  2  0  0  0  0  0  0
  161.9130  211.8420  149.3890 C   0  0  0  0  0  0  0  0  0  0  0  0
  162.4200  210.5860  149.7420 C   0  0  0  0  0  3  0  0  0  0  0  0
  160.1960  212.1390  144.9710 O   0  0  0  0  0  0  0  0  0  0  0  0
  160.3050  213.3930  144.8770 C   0  0  0  0  0  0  0  0  0  0  0  0
  160.1350  214.2200  146.0290 N   0  0  0  0  0  2  0  0  0  0  0  0
  161.1670  212.1710  141.3880 N   0  0  0  0  0  0  0  0  0  0  0  0
  159.5810  213.6830  142.4930 C   0  0  0  0  0  2  0  0  0  0  0  0
  162.9860  213.8980  144.0710 O   0  0  0  0  0  1  0  0  0  0  0  0
  161.3080  210.8160  140.8880 C   0  0  0  0  0  1  0  0  0  0  0  0
  159.8190  212.2750  141.9430 C   0  0  0  0  0  2  0  0  0  0  0  0
  162.0450  213.7330  143.0540 C   0  0  2  0  0  3  0  0  0  0  0  0
  160.6230  214.0360  143.5580 C   0  0  2  0  0  3  0  0  0  0  0  0
  162.1300  212.3210  142.4770 C   0  0  0  0  0  2  0  0  0  0  0  0
  1  9  1  0  0  0  0
  2  5  1  6  0  0  0
  2  3  1  0  0  0  0
  3  7  1  0  0  0  0
  4 11  1  0  0  0  0
  5 14  2  0  0  0  0
  6  1  2  0  0  0  0
  7  4  2  0  0  0  0
  8 23  1  6  0  0  0
  8 12  1  0  0  0  0
  8 13  1  0  0  0  0
 10 19  1  0  0  0  0
 12 16  1  0  0  0  0
 13 18  1  6  0  0  0
 13  2  1  0  0  0  0
 14  1  1  0  0  0  0
 15  4  1  0  0  0  0
 16 17  2  0  0  0  0
 16  5  1  0  0  0  0
 17  6  1  0  0  0  0
 18 10  1  0  0  0  0
 19 20  1  0  0  0  0
 19  3  2  0  0  0  0
 20 15  2  0  0  0  0
 22 21  2  0  0  0  0
 22 23  1  0  0  0  0
 24 28  1  0  0  0  0
 24 31  1  0  0  0  0
 25 30  1  0  0  0  0
 27 24  1  0  0  0  0
 28 25  1  0  0  0  0
 29 30  1  0  0  0  0
 29 26  1  1  0  0  0
 30 22  1  1  0  0  0
 31 29  1  0  0  0  0
M  END
>  <MODEL>
6

>  <REMARK>
 VINA RESULT:      -5.5      5.548      8.078
  Name = 
  2 active torsions:
  status: ('A' for Active; 'I' for Inactive)
    1  A    between atoms: C_5  and  C_30
    2  A    between atoms: C_10  and  N_16
                            x       y       z     vdW  Elec       q    Type
                         _______ _______ _______ _____ _____    ______ ____

>  <TORSDO>
F 2

$$$$
=
 OpenBabel11122413253D

 31 35  0  0  1  0  0  0  0  0999 V2000
  161.9180  212.7350  148.1590 C   0  0  0  0  0  0  0  0  0  0  0  0
  159.6200  213.9340  150.9500 C   0  0  2  0  0  3  0  0  0  0  0  0
  158.1950  213.9230  150.4140 C   0  0  0  0  0  0  0  0  0  0  0  0
  156.6720  214.0400  148.5170 C   0  0  0  0  0  0  0  0  0  0  0  0
  160.5660  213.0740  150.1450 C   0  0  0  0  0  0  0  0  0  0  0  0
  162.3050  211.4790  148.6330 C   0  0  0  0  0  3  0  0  0  0  0  0
  157.9690  213.9660  149.0290 C   0  0  0  0  0  3  0  0  0  0  0  0
  159.5850  212.0690  152.6640 C   0  0  2  0  0  3  0  0  0  0  0  0
  162.3800  213.1800  146.9660 F   0  0  0  0  0  0  0  0  0  0  0  0
  157.2410  213.9640  152.7800 C   0  0  0  0  0  2  0  0  0  0  0  0
  156.4670  214.0650  147.1450 O   0  0  0  0  0  1  0  0  0  0  0  0
  160.5510  211.3660  151.8830 O   0  0  0  0  0  0  0  0  0  0  0  0
  159.7060  213.5870  152.4490 C   0  0  2  0  0  3  0  0  0  0  0  0
  161.0530  213.5320  148.9140 C   0  0  0  0  0  3  0  0  0  0  0  0
  155.5820  214.0930  149.3870 C   0  0  0  0  0  3  0  0  0  0  0  0
  160.9700  211.8140  150.6270 C   0  0  0  0  0  0  0  0  0  0  0  0
  161.8350  211.0220  149.8670 C   0  0  0  0  0  3  0  0  0  0  0  0
  158.6440  214.3620  153.2290 C   0  0  0  0  0  2  0  0  0  0  0  0
  157.0850  214.0170  151.2880 C   0  0  0  0  0  0  0  0  0  0  0  0
  155.7890  214.0810  150.7670 C   0  0  0  0  0  3  0  0  0  0  0  0
  157.5850  210.9600  154.3610 O   0  0  0  0  0  0  0  0  0  0  0  0
  158.7200  211.1800  154.8650 C   0  0  0  0  0  0  0  0  0  0  0  0
  159.7660  211.7420  154.0710 N   0  0  0  0  0  2  0  0  0  0  0  0
  161.8030  210.9020  157.0610 N   0  0  0  0  0  0  0  0  0  0  0  0
  159.6340  212.0490  157.0340 C   0  0  0  0  0  2  0  0  0  0  0  0
  159.3310  208.5380  155.7230 O   0  0  0  0  0  1  0  0  0  0  0  0
  163.2030  211.0780  156.7210 C   0  0  0  0  0  1  0  0  0  0  0  0
  161.1250  212.1460  156.7030 C   0  0  0  0  0  2  0  0  0  0  0  0
  159.8180  209.5830  156.5100 C   0  0  2  0  0  3  0  0  0  0  0  0
  158.9900  210.8640  156.3080 C   0  0  2  0  0  3  0  0  0  0  0  0
  161.2940  209.8320  156.2050 C   0  0  0  0  0  2  0  0  0  0  0  0
  1  6  2  0  0  0  0
  1 14  1  0  0  0  0
  2  5  1  6  0  0  0
  2 13  1  0  0  0  0
  3  2  1  0  0  0  0
  3 19  1  0  0  0  0
  4  7  1  0  0  0  0
  4 15  2  0  0  0  0
  5 16  1  0  0  0  0
  6 17  1  0  0  0  0
  7  3  2  0  0  0  0
  8 23  1  1  0  0  0
  9  1  1  0  0  0  0
 10 18  1  0  0  0  0
 11  4  1  0  0  0  0
 12  8  1  0  0  0  0
 13  8  1  0  0  0  0
 13 18  1  1  0  0  0
 14  5  2  0  0  0  0
 15 20  1  0  0  0  0
 16 12  1  0  0  0  0
 17 16  2  0  0  0  0
 19 10  1  0  0  0  0
 20 19  2  0  0  0  0
 21 22  2  0  0  0  0
 23 22  1  0  0  0  0
 27 24  1  0  0  0  0
 28 25  1  0  0  0  0
 28 24  1  0  0  0  0
 29 26  1  6  0  0  0
 30 22  1  6  0  0  0
 30 29  1  0  0  0  0
 30 25  1  0  0  0  0
 31 29  1  0  0  0  0
 31 24  1  0  0  0  0
M  END
>  <MODEL>
7

>  <REMARK>
 VINA RESULT:      -5.0      5.876      9.144
  Name = 
  2 active torsions:
  status: ('A' for Active; 'I' for Inactive)
    1  A    between atoms: C_5  and  C_30
    2  A    between atoms: C_10  and  N_16
                            x       y       z     vdW  Elec       q    Type
                         _______ _______ _______ _____ _____    ______ ____

>  <TORSDO>
F 2

$$$$
