=
 OpenBabel11122413593D

 37 42  0  0  1  0  0  0  0  0999 V2000
  160.7500  206.2240  149.9890 C   0  0  1  0  0  3  0  0  0  0  0  0
  160.4270  208.8950  151.9940 O   0  0  0  0  0  0  0  0  0  0  0  0
  160.9370  205.3990  147.5170 C   0  0  2  0  0  3  0  0  0  0  0  0
  161.5300  207.4300  150.4780 C   0  0  2  0  0  3  0  0  0  0  0  0
  160.5570  206.5300  148.4980 C   0  0  2  0  0  3  0  0  0  0  0  0
  161.3290  207.8220  151.9400 C   0  0  2  0  0  3  0  0  0  0  0  0
  161.8990  204.4020  148.1480 C   0  0  0  0  0  2  0  0  0  0  0  0
  161.2750  207.8520  148.2800 C   0  0  0  0  0  2  0  0  0  0  0  0
  161.3490  204.4820  151.6940 C   0  0  0  0  0  2  0  0  0  0  0  0
  161.3560  203.9590  149.3600 O   0  0  0  0  0  0  0  0  0  0  0  0
  162.6020  210.2350  152.0190 C   0  0  0  0  0  2  0  0  0  0  0  0
  161.0790  210.1640  152.0040 C   0  0  1  0  0  3  0  0  0  0  0  0
  161.6130  204.9860  150.2780 C   0  0  1  0  0  3  0  0  0  0  0  0
  161.2360  208.5380  149.5760 N   0  0  2  0  0  0  0  0  0  0  0  0
  160.8920  206.6730  152.8640 C   0  0  1  0  0  3  0  0  0  0  0  0
  161.8680  210.5240  150.7140 C   0  0  2  0  0  3  0  0  0  0  0  0
  162.2810  209.4830  149.7500 N   0  0  0  0  0  0  0  0  0  0  0  0
  161.8300  205.4660  152.7580 C   0  0  0  0  0  2  0  0  0  0  0  0
  159.7640  206.6560  155.0930 C   0  0  0  0  0  3  0  0  0  0  0  0
  160.8020  207.1320  154.2870 C   0  0  0  0  0  0  0  0  0  0  0  0
  161.7360  208.0350  154.8190 C   0  0  0  0  0  3  0  0  0  0  0  0
  162.5300  209.3270  156.6580 F   0  0  0  0  0  0  0  0  0  0  0  0
  160.5870  207.9760  156.9490 C   0  0  0  0  0  3  0  0  0  0  0  0
  161.6280  208.4560  156.1470 C   0  0  0  0  0  0  0  0  0  0  0  0
  159.6550  207.0760  156.4230 C   0  0  0  0  0  3  0  0  0  0  0  0
  162.5320  210.2340  148.5120 C   0  0  0  0  0  2  0  0  0  0  0  0
  162.0490  211.6790  148.6350 C   0  0  1  0  0  3  0  0  0  0  0  0
  162.9830  212.9490  146.9030 C   0  0  0  0  0  1  0  0  0  0  0  0
  163.1250  212.6050  148.3070 N   0  0  0  0  0  2  0  0  0  0  0  0
  160.8450  211.9200  147.7330 C   0  0  0  0  0  2  0  0  0  0  0  0
  159.9420  213.0030  148.3010 C   0  0  0  0  0  2  0  0  0  0  0  0
  158.7340  213.0370  147.6050 O   0  0  0  0  0  1  0  0  0  0  0  0
  161.4710  205.9010  146.3170 O   0  0  0  0  0  0  0  0  0  0  0  0
  160.6500  205.4660  145.2570 C   0  0  0  0  0  0  0  0  0  0  0  0
  160.5540  204.0830  145.2420 F   0  0  0  0  0  0  0  0  0  0  0  0
  159.3840  206.0240  145.3500 F   0  0  0  0  0  0  0  0  0  0  0  0
  161.2190  205.8750  144.0650 F   0  0  0  0  0  0  0  0  0  0  0  0
  1 13  1  0  0  0  0
  1  4  1  0  0  0  0
  2 12  1  0  0  0  0
  3  7  1  0  0  0  0
  3  5  1  0  0  0  0
  4  6  1  0  0  0  0
  5  1  1  0  0  0  0
  6  2  1  0  0  0  0
  6 15  1  0  0  0  0
  7 10  1  0  0  0  0
  8  5  1  0  0  0  0
  8 14  1  0  0  0  0
  9 18  1  0  0  0  0
 10 13  1  0  0  0  0
 12 11  1  0  0  0  0
 13  9  1  0  0  0  0
 14 17  1  0  0  0  0
 14  4  1  0  0  0  0
 15 20  1  0  0  0  0
 16 12  1  0  0  0  0
 16 11  1  0  0  0  0
 17 16  1  0  0  0  0
 18 15  1  0  0  0  0
 19 25  1  0  0  0  0
 20 21  1  0  0  0  0
 20 19  2  0  0  0  0
 21 24  2  0  0  0  0
 24 22  1  0  0  0  0
 24 23  1  0  0  0  0
 25 23  2  0  0  0  0
 26 27  1  0  0  0  0
 26 17  1  0  0  0  0
 28 29  1  0  0  0  0
 29 27  1  0  0  0  0
 30 31  1  0  0  0  0
 30 27  1  0  0  0  0
 32 31  1  0  0  0  0
 33  3  1  0  0  0  0
 34 36  1  0  0  0  0
 34 33  1  0  0  0  0
 35 34  1  0  0  0  0
 37 34  1  0  0  0  0
M  END
>  <MODEL>
1

>  <REMARK>
 VINA RESULT:      -8.1      0.000      0.000
  Name = 
  8 active torsions:
  status: ('A' for Active; 'I' for Inactive)
    1  A    between atoms: C_1  and  C_4
    2  A    between atoms: C_1  and  N_27
    3  A    between atoms: C_2  and  O_22
    4  A    between atoms: C_4  and  C_12
    5  A    between atoms: C_4  and  N_37
    6  A    between atoms: C_6  and  O_22
    7  A    between atoms: C_8  and  C_12
    8  A    between atoms: C_23  and  C_30
                            x       y       z     vdW  Elec       q    Type
                         _______ _______ _______ _____ _____    ______ ____

>  <TORSDO>
F 8

$$$$
=
 OpenBabel11122413593D

 37 42  0  0  1  0  0  0  0  0999 V2000
  161.6180  211.1430  150.7950 C   0  0  1  0  0  3  0  0  0  0  0  0
  162.4280  208.2620  152.3130 O   0  0  0  0  0  0  0  0  0  0  0  0
  161.6990  212.4950  148.5610 C   0  0  2  0  0  3  0  0  0  0  0  0
  161.2370  209.6740  150.8130 C   0  0  2  0  0  3  0  0  0  0  0  0
  162.2330  211.3130  149.4000 C   0  0  2  0  0  3  0  0  0  0  0  0
  161.2370  208.9900  152.1780 C   0  0  2  0  0  3  0  0  0  0  0  0
  160.3280  212.9550  149.0390 C   0  0  0  0  0  2  0  0  0  0  0  0
  162.1070  209.9440  148.7540 C   0  0  0  0  0  2  0  0  0  0  0  0
  160.0700  212.1110  152.5180 C   0  0  0  0  0  2  0  0  0  0  0  0
  160.3920  213.2040  150.4150 O   0  0  0  0  0  0  0  0  0  0  0  0
  160.9340  206.3750  151.4560 C   0  0  0  0  0  2  0  0  0  0  0  0
  162.2920  206.9000  151.9090 C   0  0  1  0  0  3  0  0  0  0  0  0
  160.3250  211.9430  151.0230 C   0  0  1  0  0  3  0  0  0  0  0  0
  162.1020  208.9850  149.8630 N   0  0  2  0  0  0  0  0  0  0  0  0
  161.0140  209.9310  153.3740 C   0  0  1  0  0  3  0  0  0  0  0  0
  161.9920  206.6740  150.4010 C   0  0  2  0  0  3  0  0  0  0  0  0
  161.4570  207.7590  149.5510 N   0  0  0  0  0  0  0  0  0  0  0  0
  159.7530  210.7840  153.2030 C   0  0  0  0  0  2  0  0  0  0  0  0
  161.9000  209.4030  155.6500 C   0  0  0  0  0  3  0  0  0  0  0  0
  160.9450  209.1610  154.6570 C   0  0  0  0  0  0  0  0  0  0  0  0
  159.9450  208.2000  154.8750 C   0  0  0  0  0  3  0  0  0  0  0  0
  158.9410  206.5620  156.2850 F   0  0  0  0  0  0  0  0  0  0  0  0
  160.8640  207.7350  157.0670 C   0  0  0  0  0  3  0  0  0  0  0  0
  159.9060  207.4890  156.0780 C   0  0  0  0  0  0  0  0  0  0  0  0
  161.8610  208.6920  156.8530 C   0  0  0  0  0  3  0  0  0  0  0  0
  161.7740  207.3220  148.1850 C   0  0  0  0  0  2  0  0  0  0  0  0
  160.8860  206.1540  147.7600 C   0  0  1  0  0  3  0  0  0  0  0  0
  160.8450  205.7940  145.4460 C   0  0  0  0  0  1  0  0  0  0  0  0
  160.1700  206.4780  146.5330 N   0  0  0  0  0  2  0  0  0  0  0  0
  161.7170  204.8900  147.5720 C   0  0  0  0  0  2  0  0  0  0  0  0
  161.2260  203.7700  148.4740 C   0  0  0  0  0  2  0  0  0  0  0  0
  161.2060  202.5630  147.7770 O   0  0  0  0  0  1  0  0  0  0  0  0
  161.6620  212.1920  147.1880 O   0  0  0  0  0  0  0  0  0  0  0  0
  162.1260  213.3170  146.4780 C   0  0  0  0  0  0  0  0  0  0  0  0
  162.9220  212.9320  145.4100 F   0  0  0  0  0  0  0  0  0  0  0  0
  161.0670  214.0870  146.0220 F   0  0  0  0  0  0  0  0  0  0  0  0
  162.8900  214.0910  147.3320 F   0  0  0  0  0  0  0  0  0  0  0  0
  1  4  1  0  0  0  0
  1 13  1  0  0  0  0
  3  7  1  0  0  0  0
  3  5  1  0  0  0  0
  4  6  1  0  0  0  0
  5  1  1  0  0  0  0
  6  2  1  0  0  0  0
  6 15  1  0  0  0  0
  7 10  1  0  0  0  0
  8  5  1  0  0  0  0
  8 14  1  0  0  0  0
  9 18  1  0  0  0  0
 10 13  1  0  0  0  0
 11 12  1  0  0  0  0
 12  2  1  0  0  0  0
 13  9  1  0  0  0  0
 14  4  1  0  0  0  0
 15 20  1  0  0  0  0
 16 11  1  0  0  0  0
 16 12  1  0  0  0  0
 17 14  1  0  0  0  0
 17 16  1  0  0  0  0
 18 15  1  0  0  0  0
 19 25  1  0  0  0  0
 20 21  1  0  0  0  0
 20 19  2  0  0  0  0
 21 24  2  0  0  0  0
 24 22  1  0  0  0  0
 24 23  1  0  0  0  0
 25 23  2  0  0  0  0
 26 17  1  0  0  0  0
 27 26  1  0  0  0  0
 28 29  1  0  0  0  0
 29 27  1  0  0  0  0
 30 27  1  0  0  0  0
 30 31  1  0  0  0  0
 32 31  1  0  0  0  0
 33  3  1  0  0  0  0
 34 33  1  0  0  0  0
 34 37  1  0  0  0  0
 35 34  1  0  0  0  0
 36 34  1  0  0  0  0
M  END
>  <MODEL>
2

>  <REMARK>
 VINA RESULT:      -7.3      2.870      5.887
  Name = 
  8 active torsions:
  status: ('A' for Active; 'I' for Inactive)
    1  A    between atoms: C_1  and  C_4
    2  A    between atoms: C_1  and  N_27
    3  A    between atoms: C_2  and  O_22
    4  A    between atoms: C_4  and  C_12
    5  A    between atoms: C_4  and  N_37
    6  A    between atoms: C_6  and  O_22
    7  A    between atoms: C_8  and  C_12
    8  A    between atoms: C_23  and  C_30
                            x       y       z     vdW  Elec       q    Type
                         _______ _______ _______ _____ _____    ______ ____

>  <TORSDO>
F 8

$$$$
=
 OpenBabel11122413593D

 37 42  0  0  1  0  0  0  0  0999 V2000
  161.7670  207.1940  152.6350 C   0  0  1  0  0  3  0  0  0  0  0  0
  162.6830  206.6980  149.4450 O   0  0  0  0  0  0  0  0  0  0  0  0
  161.7440  208.8810  154.6300 C   0  0  2  0  0  3  0  0  0  0  0  0
  161.4130  207.6340  151.2270 C   0  0  2  0  0  3  0  0  0  0  0  0
  162.3280  208.4780  153.2580 C   0  0  2  0  0  3  0  0  0  0  0  0
  161.4740  206.5600  150.1440 C   0  0  2  0  0  3  0  0  0  0  0  0
  160.3830  208.2420  154.8740 C   0  0  0  0  0  2  0  0  0  0  0  0
  162.2040  209.5240  152.1620 C   0  0  0  0  0  2  0  0  0  0  0  0
  160.2650  205.2090  152.9600 C   0  0  0  0  0  2  0  0  0  0  0  0
  160.4920  206.8620  154.6740 O   0  0  0  0  0  0  0  0  0  0  0  0
  161.1930  208.0690  147.8870 C   0  0  0  0  0  2  0  0  0  0  0  0
  162.5560  207.5110  148.2800 C   0  0  1  0  0  3  0  0  0  0  0  0
  160.4690  206.6860  153.2840 C   0  0  1  0  0  3  0  0  0  0  0  0
  162.2560  208.7790  150.9010 N   0  0  2  0  0  0  0  0  0  0  0  0
  161.2780  205.1200  150.6480 C   0  0  1  0  0  3  0  0  0  0  0  0
  162.2060  209.0040  148.5370 C   0  0  2  0  0  3  0  0  0  0  0  0
  161.6220  209.4470  149.8200 N   0  0  0  0  0  0  0  0  0  0  0  0
  159.9970  204.9740  151.4750 C   0  0  0  0  0  2  0  0  0  0  0  0
  160.9160  202.8170  149.7500 C   0  0  0  0  0  3  0  0  0  0  0  0
  161.2700  204.1480  149.5090 C   0  0  0  0  0  0  0  0  0  0  0  0
  161.6180  204.5490  148.2090 C   0  0  0  0  0  3  0  0  0  0  0  0
  161.9480  204.0120  145.9110 F   0  0  0  0  0  0  0  0  0  0  0  0
  161.2560  202.2930  147.4100 C   0  0  0  0  0  3  0  0  0  0  0  0
  161.6110  203.6220  147.1630 C   0  0  0  0  0  0  0  0  0  0  0  0
  160.9080  201.8900  148.7030 C   0  0  0  0  0  3  0  0  0  0  0  0
  161.8970  210.8890  149.8500 C   0  0  0  0  0  2  0  0  0  0  0  0
  161.6770  211.5220  148.4760 C   0  0  1  0  0  3  0  0  0  0  0  0
  160.4300  213.0720  149.7110 C   0  0  0  0  0  1  0  0  0  0  0  0
  160.4570  212.3180  148.4710 N   0  0  0  0  0  2  0  0  0  0  0  0
  162.8740  212.3800  148.0830 C   0  0  0  0  0  2  0  0  0  0  0  0
  162.6410  213.0680  146.7480 C   0  0  0  0  0  2  0  0  0  0  0  0
  162.6200  214.4520  146.9160 O   0  0  0  0  0  1  0  0  0  0  0  0
  161.6620  210.2770  154.7780 O   0  0  0  0  0  0  0  0  0  0  0  0
  162.4810  210.6510  155.8620 C   0  0  0  0  0  0  0  0  0  0  0  0
  163.7190  211.0890  155.4160 F   0  0  0  0  0  0  0  0  0  0  0  0
  161.8770  211.6420  156.6200 F   0  0  0  0  0  0  0  0  0  0  0  0
  162.6770  209.5450  156.6670 F   0  0  0  0  0  0  0  0  0  0  0  0
  1  5  1  0  0  0  0
  1 13  1  0  0  0  0
  2  6  1  0  0  0  0
  3 33  1  0  0  0  0
  3  7  1  0  0  0  0
  4  1  1  0  0  0  0
  5  3  1  0  0  0  0
  6 15  1  0  0  0  0
  6  4  1  0  0  0  0
  8  5  1  0  0  0  0
  9 13  1  0  0  0  0
 10  7  1  0  0  0  0
 11 12  1  0  0  0  0
 11 16  1  0  0  0  0
 12 16  1  0  0  0  0
 12  2  1  0  0  0  0
 13 10  1  0  0  0  0
 14  4  1  0  0  0  0
 14  8  1  0  0  0  0
 15 18  1  0  0  0  0
 16 17  1  0  0  0  0
 17 26  1  0  0  0  0
 17 14  1  0  0  0  0
 18  9  1  0  0  0  0
 20 19  1  0  0  0  0
 20 15  1  0  0  0  0
 21 20  2  0  0  0  0
 22 24  1  0  0  0  0
 23 25  1  0  0  0  0
 24 23  2  0  0  0  0
 24 21  1  0  0  0  0
 25 19  2  0  0  0  0
 27 26  1  0  0  0  0
 29 27  1  0  0  0  0
 29 28  1  0  0  0  0
 30 27  1  0  0  0  0
 31 32  1  0  0  0  0
 31 30  1  0  0  0  0
 33 34  1  0  0  0  0
 34 36  1  0  0  0  0
 34 37  1  0  0  0  0
 35 34  1  0  0  0  0
M  END
>  <MODEL>
3

>  <REMARK>
 VINA RESULT:      -5.4      1.831      6.803
  Name = 
  8 active torsions:
  status: ('A' for Active; 'I' for Inactive)
    1  A    between atoms: C_1  and  C_4
    2  A    between atoms: C_1  and  N_27
    3  A    between atoms: C_2  and  O_22
    4  A    between atoms: C_4  and  C_12
    5  A    between atoms: C_4  and  N_37
    6  A    between atoms: C_6  and  O_22
    7  A    between atoms: C_8  and  C_12
    8  A    between atoms: C_23  and  C_30
                            x       y       z     vdW  Elec       q    Type
                         _______ _______ _______ _____ _____    ______ ____

>  <TORSDO>
F 8

$$$$
=
 OpenBabel11122413593D

 37 42  0  0  1  0  0  0  0  0999 V2000
  160.6400  205.2150  151.3200 C   0  0  1  0  0  3  0  0  0  0  0  0
  160.5410  208.4650  150.4900 O   0  0  0  0  0  0  0  0  0  0  0  0
  160.7690  202.7670  150.4180 C   0  0  2  0  0  3  0  0  0  0  0  0
  161.5200  206.3120  150.7510 C   0  0  2  0  0  3  0  0  0  0  0  0
  160.4850  204.2580  150.1320 C   0  0  2  0  0  3  0  0  0  0  0  0
  161.3440  207.7040  151.3520 C   0  0  2  0  0  3  0  0  0  0  0  0
  161.6350  202.5840  151.6570 C   0  0  0  0  0  2  0  0  0  0  0  0
  161.3180  204.8810  149.0240 C   0  0  0  0  0  2  0  0  0  0  0  0
  161.0700  205.4190  153.7850 C   0  0  0  0  0  2  0  0  0  0  0  0
  161.0470  203.2760  152.7220 O   0  0  0  0  0  0  0  0  0  0  0  0
  162.8260  209.2140  149.6270 C   0  0  0  0  0  2  0  0  0  0  0  0
  161.3030  209.2350  149.5610 C   0  0  1  0  0  3  0  0  0  0  0  0
  161.3880  204.6210  152.5240 C   0  0  1  0  0  3  0  0  0  0  0  0
  161.3310  206.3200  149.3050 N   0  0  2  0  0  0  0  0  0  0  0  0
  160.8020  207.7240  152.7910 C   0  0  1  0  0  3  0  0  0  0  0  0
  162.1290  208.4180  148.5290 C   0  0  2  0  0  3  0  0  0  0  0  0
  162.4550  206.9950  148.7580 N   0  0  0  0  0  0  0  0  0  0  0  0
  161.6290  206.8390  153.7260 C   0  0  0  0  0  2  0  0  0  0  0  0
  159.8970  210.0530  152.7100 C   0  0  0  0  0  3  0  0  0  0  0  0
  160.7430  209.1230  153.3230 C   0  0  0  0  0  0  0  0  0  0  0  0
  161.5270  209.5160  154.4200 C   0  0  0  0  0  3  0  0  0  0  0  0
  162.2200  211.2050  155.9520 F   0  0  0  0  0  0  0  0  0  0  0  0
  160.6140  211.7540  154.2780 C   0  0  0  0  0  3  0  0  0  0  0  0
  161.4620  210.8290  154.8950 C   0  0  0  0  0  0  0  0  0  0  0  0
  159.8310  211.3660  153.1860 C   0  0  0  0  0  3  0  0  0  0  0  0
  162.7790  206.4900  147.4180 C   0  0  0  0  0  2  0  0  0  0  0  0
  161.6040  205.7160  146.8200 C   0  0  1  0  0  3  0  0  0  0  0  0
  160.3050  206.2550  144.9480 C   0  0  0  0  0  1  0  0  0  0  0  0
  160.5910  206.6350  146.3190 N   0  0  0  0  0  2  0  0  0  0  0  0
  162.0820  204.7930  145.7060 C   0  0  0  0  0  2  0  0  0  0  0  0
  161.7420  203.3440  146.0100 C   0  0  0  0  0  2  0  0  0  0  0  0
  160.8070  202.8650  145.0920 O   0  0  0  0  0  1  0  0  0  0  0  0
  161.3530  202.1210  149.3140 O   0  0  0  0  0  0  0  0  0  0  0  0
  160.4200  201.1970  148.8030 C   0  0  0  0  0  0  0  0  0  0  0  0
  159.6230  200.6890  149.8170 F   0  0  0  0  0  0  0  0  0  0  0  0
  159.6260  201.7830  147.8290 F   0  0  0  0  0  0  0  0  0  0  0  0
  161.1110  200.1480  148.2260 F   0  0  0  0  0  0  0  0  0  0  0  0
  1 13  1  0  0  0  0
  2  6  1  0  0  0  0
  3  7  1  0  0  0  0
  4  1  1  0  0  0  0
  4  6  1  0  0  0  0
  5  3  1  0  0  0  0
  5  1  1  0  0  0  0
  6 15  1  0  0  0  0
  7 10  1  0  0  0  0
  8 14  1  0  0  0  0
  8  5  1  0  0  0  0
 12 11  1  0  0  0  0
 12  2  1  0  0  0  0
 13 10  1  0  0  0  0
 13  9  1  0  0  0  0
 14  4  1  0  0  0  0
 15 20  1  0  0  0  0
 15 18  1  0  0  0  0
 16 17  1  0  0  0  0
 16 12  1  0  0  0  0
 16 11  1  0  0  0  0
 17 14  1  0  0  0  0
 18  9  1  0  0  0  0
 19 25  2  0  0  0  0
 19 20  1  0  0  0  0
 20 21  2  0  0  0  0
 21 24  1  0  0  0  0
 23 24  2  0  0  0  0
 24 22  1  0  0  0  0
 25 23  1  0  0  0  0
 26 17  1  0  0  0  0
 27 26  1  0  0  0  0
 28 29  1  0  0  0  0
 29 27  1  0  0  0  0
 30 31  1  0  0  0  0
 30 27  1  0  0  0  0
 32 31  1  0  0  0  0
 33  3  1  0  0  0  0
 34 33  1  0  0  0  0
 34 35  1  0  0  0  0
 36 34  1  0  0  0  0
 37 34  1  0  0  0  0
M  END
>  <MODEL>
4

>  <REMARK>
 VINA RESULT:      -5.3      2.787      4.630
  Name = 
  8 active torsions:
  status: ('A' for Active; 'I' for Inactive)
    1  A    between atoms: C_1  and  C_4
    2  A    between atoms: C_1  and  N_27
    3  A    between atoms: C_2  and  O_22
    4  A    between atoms: C_4  and  C_12
    5  A    between atoms: C_4  and  N_37
    6  A    between atoms: C_6  and  O_22
    7  A    between atoms: C_8  and  C_12
    8  A    between atoms: C_23  and  C_30
                            x       y       z     vdW  Elec       q    Type
                         _______ _______ _______ _____ _____    ______ ____

>  <TORSDO>
F 8

$$$$
