=
 OpenBabel11122414033D

 28 32  0  0  1  0  0  0  0  0999 V2000
  158.8540  213.6460  142.4130 C   0  0  0  0  0  0  0  0  0  0  0  0
  162.4830  214.4520  141.8320 O   0  0  0  0  0  0  0  0  0  0  0  0
  155.8590  211.6400  138.9500 O   0  0  0  0  0  1  0  0  0  0  0  0
  159.1910  212.1970  144.7920 C   0  0  0  0  0  3  0  0  0  0  0  0
  158.5830  214.4530  141.1830 C   0  0  0  0  0  2  0  0  0  0  0  0
  163.0900  212.0720  142.0180 O   0  0  0  0  0  0  0  0  0  0  0  0
  162.6230  213.1550  141.0860 S   0  0  0  0  0  0  0  0  0  0  0  0
  162.6630  213.7500  138.2830 C   0  0  1  0  0  3  0  0  0  0  0  0
  161.0780  212.7060  140.3360 C   0  0  1  0  0  3  0  0  0  0  0  0
  156.0920  214.2640  138.7650 O   0  0  0  0  0  1  0  0  0  0  0  0
  159.3390  211.0290  140.1840 C   0  0  2  0  0  3  0  0  0  0  0  0
  161.7980  212.6010  137.9620 N   0  0  0  0  0  2  0  0  0  0  0  0
  163.9850  213.3620  139.4990 S   0  0  0  0  0  0  0  0  0  0  0  0
  157.3460  214.0730  139.3460 C   0  0  2  0  0  3  0  0  0  0  0  0
  159.5690  212.4180  142.3990 C   0  0  0  0  0  0  0  0  0  0  0  0
  157.2220  211.4560  138.7210 C   0  0  1  0  0  3  0  0  0  0  0  0
  163.2860  214.2830  137.0110 C   0  0  0  0  0  1  0  0  0  0  0  0
  158.0230  212.7620  138.8790 C   0  0  2  0  0  3  0  0  0  0  0  0
  159.7250  211.7100  143.5980 C   0  0  0  0  0  3  0  0  0  0  0  0
  158.3230  214.1200  143.6180 C   0  0  0  0  0  3  0  0  0  0  0  0
  158.4920  213.4020  144.8030 C   0  0  0  0  0  3  0  0  0  0  0  0
  157.2720  214.2090  140.7420 O   0  0  0  0  0  0  0  0  0  0  0  0
  160.1900  210.9500  138.9020 C   0  0  1  0  0  3  0  0  0  0  0  0
  157.9760  211.7260  140.0030 C   0  0  2  0  0  3  0  0  0  0  0  0
  161.4100  211.8320  139.1490 C   0  0  2  0  0  3  0  0  0  0  0  0
  160.2180  211.8000  141.1790 C   0  0  2  0  0  3  0  0  0  0  0  0
  160.6200  209.5150  138.6590 C   0  0  0  0  0  2  0  0  0  0  0  0
  161.7320  209.2100  139.4450 O   0  0  0  0  0  1  0  0  0  0  0  0
  1 20  1  0  0  0  0
  4 21  1  0  0  0  0
  5  1  1  0  0  0  0
  7  2  2  0  0  0  0
  7  6  2  0  0  0  0
  8 17  1  6  0  0  0
  8 13  1  0  0  0  0
  9  7  1  1  0  0  0
  9 26  1  0  0  0  0
 10 14  1  0  0  0  0
 11 26  1  0  0  0  0
 12  8  1  0  0  0  0
 12 25  1  0  0  0  0
 13  7  1  0  0  0  0
 14 22  1  0  0  0  0
 15  1  2  0  0  0  0
 15 19  1  0  0  0  0
 16 18  1  0  0  0  0
 16  3  1  0  0  0  0
 16 24  1  0  0  0  0
 18 14  1  0  0  0  0
 18 24  1  0  0  0  0
 19  4  2  0  0  0  0
 20 21  2  0  0  0  0
 22  5  1  0  0  0  0
 23 25  1  0  0  0  0
 23 11  1  0  0  0  0
 24 11  1  0  0  0  0
 25  9  1  0  0  0  0
 26 15  1  0  0  0  0
 27 23  1  0  0  0  0
 27 28  1  0  0  0  0
M  END
>  <MODEL>
1

>  <REMARK>
 VINA RESULT:      -3.4      0.000      0.000
  Name = 
  1 active torsions:
  status: ('A' for Active; 'I' for Inactive)
    1  A    between atoms: C_5  and  C_24
                            x       y       z     vdW  Elec       q    Type
                         _______ _______ _______ _____ _____    ______ ____

>  <TORSDO>
F 1

$$$$
=
 OpenBabel11122414033D

 28 32  0  0  1  0  0  0  0  0999 V2000
  158.0210  212.3270  152.7140 C   0  0  0  0  0  0  0  0  0  0  0  0
  159.9120  209.0940  152.3560 O   0  0  0  0  0  0  0  0  0  0  0  0
  156.9280  214.4410  157.1110 O   0  0  0  0  0  1  0  0  0  0  0  0
  159.5670  213.8420  150.9280 C   0  0  0  0  0  3  0  0  0  0  0  0
  157.1130  211.5750  153.6360 C   0  0  0  0  0  2  0  0  0  0  0  0
  162.0390  210.2290  152.8660 O   0  0  0  0  0  0  0  0  0  0  0  0
  160.8350  209.5460  153.4530 S   0  0  0  0  0  0  0  0  0  0  0  0
  160.1030  208.1550  155.8490 C   0  0  1  0  0  3  0  0  0  0  0  0
  159.9840  210.6360  154.5650 C   0  0  1  0  0  3  0  0  0  0  0  0
  155.2150  212.5720  156.3730 O   0  0  0  0  0  1  0  0  0  0  0  0
  159.9370  212.8410  155.5630 C   0  0  2  0  0  3  0  0  0  0  0  0
  160.2720  209.3610  156.6770 N   0  0  0  0  0  2  0  0  0  0  0  0
  161.4470  207.9080  154.6190 S   0  0  0  0  0  0  0  0  0  0  0  0
  156.2950  212.0240  155.6800 C   0  0  2  0  0  3  0  0  0  0  0  0
  159.3850  212.5950  153.0090 C   0  0  0  0  0  0  0  0  0  0  0  0
  157.9820  213.5280  157.1470 C   0  0  1  0  0  3  0  0  0  0  0  0
  160.0080  206.9380  156.7440 C   0  0  0  0  0  1  0  0  0  0  0  0
  157.6370  212.2090  156.4290 C   0  0  2  0  0  3  0  0  0  0  0  0
  160.1390  213.3530  152.1040 C   0  0  0  0  0  3  0  0  0  0  0  0
  157.4610  212.8260  151.5320 C   0  0  0  0  0  3  0  0  0  0  0  0
  158.2300  213.5770  150.6410 C   0  0  0  0  0  3  0  0  0  0  0  0
  156.3170  212.4840  154.3530 O   0  0  0  0  0  0  0  0  0  0  0  0
  160.4310  211.8460  156.6310 C   0  0  1  0  0  3  0  0  0  0  0  0
  158.4710  213.2880  155.7380 C   0  0  2  0  0  3  0  0  0  0  0  0
  160.6890  210.5330  155.8980 C   0  0  2  0  0  3  0  0  0  0  0  0
  160.1260  212.0980  154.2330 C   0  0  2  0  0  3  0  0  0  0  0  0
  161.7150  212.3590  157.2560 C   0  0  0  0  0  2  0  0  0  0  0  0
  162.7090  211.3830  157.1750 O   0  0  0  0  0  1  0  0  0  0  0  0
  1 15  1  0  0  0  0
  1  5  1  0  0  0  0
  2  7  2  0  0  0  0
  3 16  1  0  0  0  0
  4 19  1  0  0  0  0
  5 22  1  0  0  0  0
  6  7  2  0  0  0  0
  7 13  1  0  0  0  0
  8 12  1  0  0  0  0
  8 17  1  1  0  0  0
  9  7  1  6  0  0  0
  9 25  1  0  0  0  0
 11 24  1  0  0  0  0
 11 23  1  0  0  0  0
 13  8  1  0  0  0  0
 14 10  1  0  0  0  0
 14 18  1  0  0  0  0
 15 26  1  0  0  0  0
 18 16  1  0  0  0  0
 19 15  2  0  0  0  0
 20  1  2  0  0  0  0
 21  4  2  0  0  0  0
 21 20  1  0  0  0  0
 22 14  1  0  0  0  0
 23 27  1  0  0  0  0
 24 18  1  0  0  0  0
 24 16  1  0  0  0  0
 25 23  1  0  0  0  0
 25 12  1  0  0  0  0
 26  9  1  0  0  0  0
 26 11  1  0  0  0  0
 28 27  1  0  0  0  0
M  END
>  <MODEL>
2

>  <REMARK>
 VINA RESULT:      -3.2     11.802     15.090
  Name = 
  1 active torsions:
  status: ('A' for Active; 'I' for Inactive)
    1  A    between atoms: C_5  and  C_24
                            x       y       z     vdW  Elec       q    Type
                         _______ _______ _______ _____ _____    ______ ____

>  <TORSDO>
F 1

$$$$
=
 OpenBabel11122414033D

 28 32  0  0  1  0  0  0  0  0999 V2000
  158.9800  211.8240  151.9960 C   0  0  0  0  0  0  0  0  0  0  0  0
  160.4860  208.6360  150.6820 O   0  0  0  0  0  0  0  0  0  0  0  0
  158.6270  212.9390  156.8560 O   0  0  0  0  0  1  0  0  0  0  0  0
  160.4480  213.5970  150.3910 C   0  0  0  0  0  3  0  0  0  0  0  0
  158.1160  210.9460  152.8450 C   0  0  0  0  0  2  0  0  0  0  0  0
  162.7600  209.4700  151.1320 O   0  0  0  0  0  0  0  0  0  0  0  0
  161.5710  208.7570  151.7140 S   0  0  0  0  0  0  0  0  0  0  0  0
  160.9920  206.9070  153.8240 C   0  0  1  0  0  3  0  0  0  0  0  0
  160.9690  209.6180  153.1450 C   0  0  1  0  0  3  0  0  0  0  0  0
  156.6620  211.4150  155.9690 O   0  0  0  0  0  1  0  0  0  0  0  0
  161.2590  211.5320  154.5980 C   0  0  2  0  0  3  0  0  0  0  0  0
  161.3760  207.8750  154.8660 N   0  0  0  0  0  2  0  0  0  0  0  0
  162.1510  206.8560  152.3980 S   0  0  0  0  0  0  0  0  0  0  0  0
  157.5930  210.9680  155.0310 C   0  0  2  0  0  3  0  0  0  0  0  0
  160.3890  211.9200  152.1530 C   0  0  0  0  0  0  0  0  0  0  0  0
  159.5810  211.9710  156.5470 C   0  0  1  0  0  3  0  0  0  0  0  0
  160.8820  205.5260  154.4350 C   0  0  0  0  0  1  0  0  0  0  0  0
  159.0250  210.8810  155.6110 C   0  0  2  0  0  3  0  0  0  0  0  0
  161.1030  212.8110  151.3420 C   0  0  0  0  0  3  0  0  0  0  0  0
  158.3370  212.6200  151.0400 C   0  0  0  0  0  3  0  0  0  0  0  0
  159.0660  213.4990  150.2390 C   0  0  0  0  0  3  0  0  0  0  0  0
  157.5040  211.7180  153.8470 O   0  0  0  0  0  0  0  0  0  0  0  0
  161.7730  210.2850  155.3440 C   0  0  1  0  0  3  0  0  0  0  0  0
  159.8750  212.0280  155.0660 C   0  0  2  0  0  3  0  0  0  0  0  0
  161.8120  209.1620  154.3130 C   0  0  2  0  0  3  0  0  0  0  0  0
  161.2150  211.1050  153.1240 C   0  0  2  0  0  3  0  0  0  0  0  0
  163.1670  210.5500  155.8850 C   0  0  0  0  0  2  0  0  0  0  0  0
  163.1110  210.7730  157.2600 O   0  0  0  0  0  1  0  0  0  0  0  0
  1 15  1  0  0  0  0
  1  5  1  0  0  0  0
  2  7  2  0  0  0  0
  4 19  1  0  0  0  0
  5 22  1  0  0  0  0
  6  7  2  0  0  0  0
  7 13  1  0  0  0  0
  8 17  1  1  0  0  0
  8 12  1  0  0  0  0
  9  7  1  6  0  0  0
  9 25  1  0  0  0  0
 11 24  1  0  0  0  0
 11 23  1  0  0  0  0
 13  8  1  0  0  0  0
 14 18  1  0  0  0  0
 14 10  1  0  0  0  0
 15 26  1  0  0  0  0
 16  3  1  0  0  0  0
 18 16  1  0  0  0  0
 19 15  2  0  0  0  0
 20  1  2  0  0  0  0
 21  4  2  0  0  0  0
 21 20  1  0  0  0  0
 22 14  1  0  0  0  0
 23 27  1  0  0  0  0
 24 18  1  0  0  0  0
 24 16  1  0  0  0  0
 25 12  1  0  0  0  0
 25 23  1  0  0  0  0
 26  9  1  0  0  0  0
 26 11  1  0  0  0  0
 27 28  1  0  0  0  0
M  END
>  <MODEL>
3

>  <REMARK>
 VINA RESULT:      -0.6     10.964     14.186
  Name = 
  1 active torsions:
  status: ('A' for Active; 'I' for Inactive)
    1  A    between atoms: C_5  and  C_24
                            x       y       z     vdW  Elec       q    Type
                         _______ _______ _______ _____ _____    ______ ____

>  <TORSDO>
F 1

$$$$
