=
 OpenBabel11122412433D

 30 35  0  0  1  0  0  0  0  0999 V2000
  161.5950  207.0990  149.3640 C   0  0  2  0  0  3  0  0  0  0  0  0
  161.5030  204.7320  148.4760 C   0  0  0  0  0  0  0  0  0  0  0  0
  160.8730  205.5870  153.2730 N   0  0  0  0  0  2  0  0  0  0  0  0
  161.9960  207.9330  150.6180 C   0  0  1  0  0  3  0  0  0  0  0  0
  160.3560  207.5230  148.8710 O   0  0  0  0  0  1  0  0  0  0  0  0
  161.2420  210.3810  152.7260 C   0  0  0  0  0  0  0  0  0  0  0  0
  160.3540  209.2470  153.1240 C   0  0  2  0  0  3  0  0  0  0  0  0
  160.6990  206.8280  153.9490 C   0  0  0  0  0  0  0  0  0  0  0  0
  161.7340  209.4540  150.3920 C   0  0  1  0  0  3  0  0  0  0  0  0
  161.3420  203.3560  148.6570 C   0  0  0  0  0  3  0  0  0  0  0  0
  159.9220  209.7250  154.4740 C   0  0  0  0  0  3  0  0  0  0  0  0
  161.3040  211.3030  153.6260 N   0  0  0  0  0  0  0  0  0  0  0  0
  161.6280  205.2360  147.1860 O   0  0  0  0  0  1  0  0  0  0  0  0
  161.6080  205.9340  152.0700 C   0  0  2  0  0  3  0  0  0  0  0  0
  161.2130  202.8240  149.9420 C   0  0  0  0  0  3  0  0  0  0  0  0
  161.5350  205.5940  149.5870 C   0  0  0  0  0  0  0  0  0  0  0  0
  161.2000  207.3590  151.7880 C   0  0  1  0  0  3  0  0  0  0  0  0
  160.2250  206.9010  155.1120 O   0  0  0  0  0  0  0  0  0  0  0  0
  161.2200  207.9930  153.1640 C   0  0  1  0  0  3  0  0  0  0  0  0
  160.4730  210.9070  154.7060 C   0  0  0  0  0  3  0  0  0  0  0  0
  163.4730  210.0900  151.9580 O   0  0  0  0  0  1  0  0  0  0  0  0
  161.2460  203.6670  151.0530 C   0  0  0  0  0  3  0  0  0  0  0  0
  161.3780  205.0510  150.8860 C   0  0  0  0  0  0  0  0  0  0  0  0
  162.1700  210.3820  151.5470 C   0  0  2  0  0  3  0  0  0  0  0  0
  161.1250  210.7410  148.2170 C   0  0  0  0  0  2  0  0  0  0  0  0
  162.1690  209.9420  148.9860 C   0  0  1  0  0  3  0  0  0  0  0  0
  162.2410  211.4630  148.9420 C   0  0  1  0  0  3  0  0  0  0  0  0
  163.2620  211.8610  147.9920 N   0  0  0  0  0  2  0  0  0  0  0  0
  162.6820  214.2100  147.8780 C   0  0  0  0  0  1  0  0  0  0  0  0
  162.6710  212.8840  147.1470 C   0  0  0  0  0  2  0  0  0  0  0  0
  1  5  1  1  0  0  0
  1 16  1  0  0  0  0
  1  4  1  0  0  0  0
  2 10  2  0  0  0  0
  2 16  1  0  0  0  0
  3  8  1  0  0  0  0
  4 17  1  0  0  0  0
  6  7  1  0  0  0  0
  6 12  2  0  0  0  0
  7 19  1  0  0  0  0
  7 11  1  0  0  0  0
  8 18  2  0  0  0  0
  9  4  1  0  0  0  0
  9 24  1  0  0  0  0
 10 15  1  0  0  0  0
 11 20  2  0  0  0  0
 12 20  1  0  0  0  0
 13  2  1  0  0  0  0
 14  3  1  0  0  0  0
 15 22  2  0  0  0  0
 16 23  2  0  0  0  0
 17 14  1  0  0  0  0
 17 19  1  0  0  0  0
 19  8  1  0  0  0  0
 23 22  1  0  0  0  0
 23 14  1  0  0  0  0
 24 21  1  0  0  0  0
 24  6  1  0  0  0  0
 25 27  1  0  0  0  0
 25 26  1  0  0  0  0
 26  9  1  0  0  0  0
 27 26  1  0  0  0  0
 28 27  1  0  0  0  0
 30 29  1  0  0  0  0
 30 28  1  0  0  0  0
M  END
>  <MODEL>
1

>  <REMARK>
 VINA RESULT:      -7.0      0.000      0.000
  Name = 
  3 active torsions:
  status: ('A' for Active; 'I' for Inactive)
    1  A    between atoms: C_8  and  C_12
    2  A    between atoms: C_11  and  N_28
    3  A    between atoms: N_28  and  C_30
                            x       y       z     vdW  Elec       q    Type
                         _______ _______ _______ _____ _____    ______ ____

>  <TORSDO>
F 3

$$$$
=
 OpenBabel11122412433D

 30 35  0  0  1  0  0  0  0  0999 V2000
  161.0730  209.5890  151.9640 C   0  0  2  0  0  3  0  0  0  0  0  0
  161.1810  211.8190  150.7760 C   0  0  0  0  0  0  0  0  0  0  0  0
  161.8680  207.6550  148.2610 N   0  0  0  0  0  2  0  0  0  0  0  0
  161.6630  208.1460  151.9400 C   0  0  1  0  0  3  0  0  0  0  0  0
  159.6860  209.5470  152.1400 O   0  0  0  0  0  1  0  0  0  0  0  0
  161.1160  204.8810  152.1550 C   0  0  0  0  0  0  0  0  0  0  0  0
  160.6270  205.2620  150.7950 C   0  0  2  0  0  3  0  0  0  0  0  0
  161.6680  206.3090  148.6800 C   0  0  0  0  0  0  0  0  0  0  0  0
  161.0540  207.2680  153.0750 C   0  0  1  0  0  3  0  0  0  0  0  0
  161.3520  212.5920  149.6240 C   0  0  0  0  0  3  0  0  0  0  0  0
  160.5360  203.9050  150.1690 C   0  0  0  0  0  3  0  0  0  0  0  0
  161.2660  203.6080  152.2900 N   0  0  0  0  0  0  0  0  0  0  0  0
  160.8120  212.4430  151.9630 O   0  0  0  0  0  1  0  0  0  0  0  0
  162.1250  208.3790  149.4920 C   0  0  2  0  0  3  0  0  0  0  0  0
  161.7210  211.9900  148.4200 C   0  0  0  0  0  3  0  0  0  0  0  0
  161.3770  210.4270  150.7300 C   0  0  0  0  0  0  0  0  0  0  0  0
  161.3820  207.5930  150.5440 C   0  0  1  0  0  3  0  0  0  0  0  0
  161.5600  205.3580  147.8630 O   0  0  0  0  0  0  0  0  0  0  0  0
  161.6920  206.1560  150.1710 C   0  0  1  0  0  3  0  0  0  0  0  0
  160.8910  202.9970  151.0650 C   0  0  0  0  0  3  0  0  0  0  0  0
  163.0250  205.8590  153.1800 O   0  0  0  0  0  1  0  0  0  0  0  0
  161.9220  210.6110  148.3610 C   0  0  0  0  0  3  0  0  0  0  0  0
  161.7260  209.8200  149.4990 C   0  0  0  0  0  0  0  0  0  0  0  0
  161.6280  205.8390  153.1900 C   0  0  2  0  0  3  0  0  0  0  0  0
  159.6940  207.7160  155.2450 C   0  0  0  0  0  2  0  0  0  0  0  0
  160.9440  208.0170  154.4290 C   0  0  1  0  0  3  0  0  0  0  0  0
  161.0020  207.0390  155.5940 C   0  0  1  0  0  3  0  0  0  0  0  0
  161.6020  207.6990  156.7370 N   0  0  0  0  0  2  0  0  0  0  0  0
  162.7130  209.7880  157.2590 C   0  0  0  0  0  1  0  0  0  0  0  0
  161.6360  209.1180  156.4300 C   0  0  0  0  0  2  0  0  0  0  0  0
  1  5  1  6  0  0  0
  2 13  1  0  0  0  0
  3  8  1  0  0  0  0
  3 14  1  0  0  0  0
  4  1  1  0  0  0  0
  4  9  1  0  0  0  0
  6 12  2  0  0  0  0
  6 24  1  0  0  0  0
  7  6  1  0  0  0  0
  8 19  1  0  0  0  0
  9 24  1  0  0  0  0
  9 26  1  0  0  0  0
 10  2  2  0  0  0  0
 11  7  1  0  0  0  0
 11 20  2  0  0  0  0
 14 23  1  0  0  0  0
 14 17  1  0  0  0  0
 15 10  1  0  0  0  0
 16  2  1  0  0  0  0
 16  1  1  0  0  0  0
 17  4  1  0  0  0  0
 18  8  2  0  0  0  0
 19 17  1  0  0  0  0
 19  7  1  0  0  0  0
 20 12  1  0  0  0  0
 21 24  1  0  0  0  0
 22 15  2  0  0  0  0
 22 23  1  0  0  0  0
 23 16  2  0  0  0  0
 25 27  1  0  0  0  0
 26 25  1  0  0  0  0
 26 27  1  0  0  0  0
 27 28  1  0  0  0  0
 30 28  1  0  0  0  0
 30 29  1  0  0  0  0
M  END
>  <MODEL>
2

>  <REMARK>
 VINA RESULT:      -5.9      2.089      6.699
  Name = 
  3 active torsions:
  status: ('A' for Active; 'I' for Inactive)
    1  A    between atoms: C_8  and  C_12
    2  A    between atoms: C_11  and  N_28
    3  A    between atoms: N_28  and  C_30
                            x       y       z     vdW  Elec       q    Type
                         _______ _______ _______ _____ _____    ______ ____

>  <TORSDO>
F 3

$$$$
=
 OpenBabel11122412433D

 30 35  0  0  1  0  0  0  0  0999 V2000
  161.4530  205.6480  147.4230 C   0  0  2  0  0  3  0  0  0  0  0  0
  161.0320  204.0950  145.4720 C   0  0  0  0  0  0  0  0  0  0  0  0
  160.8330  202.3790  150.0720 N   0  0  0  0  0  2  0  0  0  0  0  0
  162.0320  205.6860  148.8700 C   0  0  1  0  0  3  0  0  0  0  0  0
  160.2400  206.3430  147.3650 O   0  0  0  0  0  1  0  0  0  0  0  0
  161.7080  206.7300  152.0020 C   0  0  0  0  0  0  0  0  0  0  0  0
  160.7260  205.6110  151.8690 C   0  0  2  0  0  3  0  0  0  0  0  0
  160.8490  203.0990  151.3000 C   0  0  0  0  0  0  0  0  0  0  0  0
  161.9300  207.1160  149.4830 C   0  0  1  0  0  3  0  0  0  0  0  0
  160.7270  202.8360  144.9450 C   0  0  0  0  0  3  0  0  0  0  0  0
  160.4450  205.3470  153.3140 C   0  0  0  0  0  3  0  0  0  0  0  0
  161.9370  207.0460  153.2310 N   0  0  0  0  0  0  0  0  0  0  0  0
  161.1250  205.1850  144.6140 O   0  0  0  0  0  1  0  0  0  0  0  0
  161.5180  203.2520  149.1370 C   0  0  2  0  0  3  0  0  0  0  0  0
  160.6270  201.7260  145.7850 C   0  0  0  0  0  3  0  0  0  0  0  0
  161.2370  204.2530  146.8550 C   0  0  0  0  0  0  0  0  0  0  0  0
  161.2570  204.6400  149.6690 C   0  0  1  0  0  3  0  0  0  0  0  0
  160.4660  202.5880  152.3850 O   0  0  0  0  0  0  0  0  0  0  0  0
  161.4440  204.4670  151.1630 C   0  0  1  0  0  3  0  0  0  0  0  0
  161.1420  206.2010  154.0480 C   0  0  0  0  0  3  0  0  0  0  0  0
  163.8340  206.7390  150.9370 O   0  0  0  0  0  1  0  0  0  0  0  0
  160.8310  201.8680  147.1580 C   0  0  0  0  0  3  0  0  0  0  0  0
  161.1090  203.1270  147.7040 C   0  0  0  0  0  0  0  0  0  0  0  0
  162.5470  207.2830  150.8880 C   0  0  2  0  0  3  0  0  0  0  0  0
  161.1590  209.0170  147.8860 C   0  0  0  0  0  2  0  0  0  0  0  0
  162.3210  208.2340  148.4810 C   0  0  1  0  0  3  0  0  0  0  0  0
  161.9540  209.6050  149.0320 C   0  0  1  0  0  3  0  0  0  0  0  0
  162.8910  210.5870  148.5220 N   0  0  0  0  0  2  0  0  0  0  0  0
  163.0870  212.9150  147.8820 C   0  0  0  0  0  1  0  0  0  0  0  0
  162.1430  211.8140  148.3180 C   0  0  0  0  0  2  0  0  0  0  0  0
  1  5  1  1  0  0  0
  1  4  1  0  0  0  0
  2 16  1  0  0  0  0
  3  8  1  0  0  0  0
  4  9  1  0  0  0  0
  4 17  1  0  0  0  0
  6 12  2  0  0  0  0
  7  6  1  0  0  0  0
  7 11  1  0  0  0  0
  8 18  2  0  0  0  0
  9 24  1  0  0  0  0
 10  2  2  0  0  0  0
 10 15  1  0  0  0  0
 11 20  2  0  0  0  0
 12 20  1  0  0  0  0
 13  2  1  0  0  0  0
 14 17  1  0  0  0  0
 14  3  1  0  0  0  0
 15 22  2  0  0  0  0
 16  1  1  0  0  0  0
 16 23  2  0  0  0  0
 17 19  1  0  0  0  0
 19  8  1  0  0  0  0
 19  7  1  0  0  0  0
 22 23  1  0  0  0  0
 23 14  1  0  0  0  0
 24 21  1  0  0  0  0
 24  6  1  0  0  0  0
 25 26  1  0  0  0  0
 25 27  1  0  0  0  0
 26 27  1  0  0  0  0
 26  9  1  0  0  0  0
 28 27  1  0  0  0  0
 29 30  1  0  0  0  0
 30 28  1  0  0  0  0
M  END
>  <MODEL>
3

>  <REMARK>
 VINA RESULT:      -5.5      2.270      3.454
  Name = 
  3 active torsions:
  status: ('A' for Active; 'I' for Inactive)
    1  A    between atoms: C_8  and  C_12
    2  A    between atoms: C_11  and  N_28
    3  A    between atoms: N_28  and  C_30
                            x       y       z     vdW  Elec       q    Type
                         _______ _______ _______ _____ _____    ______ ____

>  <TORSDO>
F 3

$$$$
=
 OpenBabel11122412433D

 30 35  0  0  1  0  0  0  0  0999 V2000
  161.0390  205.6000  149.7170 C   0  0  2  0  0  3  0  0  0  0  0  0
  160.9550  203.0750  149.6060 C   0  0  0  0  0  0  0  0  0  0  0  0
  161.0860  205.3430  153.9630 N   0  0  0  0  0  2  0  0  0  0  0  0
  161.5890  206.7820  150.5720 C   0  0  1  0  0  3  0  0  0  0  0  0
  159.7100  205.8400  149.3530 O   0  0  0  0  0  1  0  0  0  0  0  0
  161.0410  209.7470  151.9560 C   0  0  0  0  0  0  0  0  0  0  0  0
  160.3100  208.7770  152.8270 C   0  0  2  0  0  3  0  0  0  0  0  0
  160.9470  206.7290  154.2580 C   0  0  0  0  0  0  0  0  0  0  0  0
  161.1930  208.1580  149.9560 C   0  0  1  0  0  3  0  0  0  0  0  0
  160.9180  201.8170  150.2150 C   0  0  0  0  0  3  0  0  0  0  0  0
  160.0800  209.6390  154.0280 C   0  0  0  0  0  3  0  0  0  0  0  0
  161.1930  210.8990  152.5140 N   0  0  0  0  0  0  0  0  0  0  0  0
  160.8280  203.1630  148.2240 O   0  0  0  0  0  1  0  0  0  0  0  0
  161.5840  205.3160  152.5990 C   0  0  2  0  0  3  0  0  0  0  0  0
  161.0420  201.7010  151.6010 C   0  0  0  0  0  3  0  0  0  0  0  0
  161.1160  204.2350  150.3860 C   0  0  0  0  0  0  0  0  0  0  0  0
  161.0410  206.5820  151.9840 C   0  0  1  0  0  3  0  0  0  0  0  0
  160.6720  207.1470  155.4120 O   0  0  0  0  0  0  0  0  0  0  0  0
  161.2510  207.6060  153.0820 C   0  0  1  0  0  3  0  0  0  0  0  0
  160.5840  210.8410  153.7940 C   0  0  0  0  0  3  0  0  0  0  0  0
  163.1250  209.2610  150.9200 O   0  0  0  0  0  1  0  0  0  0  0  0
  161.2060  202.8430  152.3850 C   0  0  0  0  0  3  0  0  0  0  0  0
  161.2170  204.1110  151.7930 C   0  0  0  0  0  0  0  0  0  0  0  0
  161.7550  209.3990  150.6820 C   0  0  2  0  0  3  0  0  0  0  0  0
  162.7350  208.5910  147.9080 C   0  0  0  0  0  2  0  0  0  0  0  0
  161.3530  208.2000  148.4130 C   0  0  1  0  0  3  0  0  0  0  0  0
  162.3320  207.1330  147.9430 C   0  0  1  0  0  3  0  0  0  0  0  0
  161.9550  206.7000  146.6110 N   0  0  0  0  0  2  0  0  0  0  0  0
  161.9580  204.6890  145.2600 C   0  0  0  0  0  1  0  0  0  0  0  0
  162.6620  205.4560  146.3590 C   0  0  0  0  0  2  0  0  0  0  0  0
  1  5  1  1  0  0  0
  1 16  1  0  0  0  0
  1  4  1  0  0  0  0
  2 10  2  0  0  0  0
  2 16  1  0  0  0  0
  3  8  1  0  0  0  0
  4 17  1  0  0  0  0
  6 12  2  0  0  0  0
  6  7  1  0  0  0  0
  7 19  1  0  0  0  0
  7 11  1  0  0  0  0
  8 18  2  0  0  0  0
  9  4  1  0  0  0  0
  9 24  1  0  0  0  0
 10 15  1  0  0  0  0
 12 20  1  0  0  0  0
 13  2  1  0  0  0  0
 14  3  1  0  0  0  0
 15 22  2  0  0  0  0
 16 23  2  0  0  0  0
 17 14  1  0  0  0  0
 17 19  1  0  0  0  0
 19  8  1  0  0  0  0
 20 11  2  0  0  0  0
 23 22  1  0  0  0  0
 23 14  1  0  0  0  0
 24 21  1  0  0  0  0
 24  6  1  0  0  0  0
 25 27  1  0  0  0  0
 25 26  1  0  0  0  0
 26  9  1  0  0  0  0
 27 26  1  0  0  0  0
 28 27  1  0  0  0  0
 29 30  1  0  0  0  0
 30 28  1  0  0  0  0
M  END
>  <MODEL>
4

>  <REMARK>
 VINA RESULT:      -5.5      2.016      2.952
  Name = 
  3 active torsions:
  status: ('A' for Active; 'I' for Inactive)
    1  A    between atoms: C_8  and  C_12
    2  A    between atoms: C_11  and  N_28
    3  A    between atoms: N_28  and  C_30
                            x       y       z     vdW  Elec       q    Type
                         _______ _______ _______ _____ _____    ______ ____

>  <TORSDO>
F 3

$$$$
=
 OpenBabel11122412433D

 30 35  0  0  1  0  0  0  0  0999 V2000
  161.1360  204.3860  150.7250 C   0  0  2  0  0  3  0  0  0  0  0  0
  161.0940  205.2440  153.1030 C   0  0  0  0  0  0  0  0  0  0  0  0
  161.5380  208.3940  149.3590 N   0  0  0  0  0  2  0  0  0  0  0  0
  161.7310  204.6810  149.3150 C   0  0  1  0  0  3  0  0  0  0  0  0
  159.7770  204.0710  150.6240 O   0  0  0  0  0  1  0  0  0  0  0  0
  161.2390  204.8830  146.0400 C   0  0  0  0  0  0  0  0  0  0  0  0
  160.6020  206.1140  146.5990 C   0  0  2  0  0  3  0  0  0  0  0  0
  161.3960  208.1540  147.9630 C   0  0  0  0  0  0  0  0  0  0  0  0
  161.2580  203.6260  148.2690 C   0  0  1  0  0  3  0  0  0  0  0  0
  161.1320  206.2840  154.0370 C   0  0  0  0  0  3  0  0  0  0  0  0
  160.4550  206.9160  145.3440 C   0  0  0  0  0  3  0  0  0  0  0  0
  161.4140  204.9500  144.7640 N   0  0  0  0  0  0  0  0  0  0  0  0
  160.8520  203.9470  153.5430 O   0  0  0  0  0  1  0  0  0  0  0  0
  161.9220  207.1050  149.9060 C   0  0  2  0  0  3  0  0  0  0  0  0
  161.3730  207.5950  153.6220 C   0  0  0  0  0  3  0  0  0  0  0  0
  161.2960  205.5110  151.7370 C   0  0  0  0  0  0  0  0  0  0  0  0
  161.3050  206.1040  148.9600 C   0  0  1  0  0  3  0  0  0  0  0  0
  161.2080  209.0830  147.1350 O   0  0  0  0  0  0  0  0  0  0  0  0
  161.5840  206.7120  147.5990 C   0  0  1  0  0  3  0  0  0  0  0  0
  160.9130  206.2030  144.3260 C   0  0  0  0  0  3  0  0  0  0  0  0
  163.2410  203.9370  146.9070 O   0  0  0  0  0  1  0  0  0  0  0  0
  161.5780  207.8730  152.2710 C   0  0  0  0  0  3  0  0  0  0  0  0
  161.5140  206.8470  151.3210 C   0  0  0  0  0  0  0  0  0  0  0  0
  161.8530  203.7810  146.8530 C   0  0  2  0  0  3  0  0  0  0  0  0
  159.9350  201.4890  148.9310 C   0  0  0  0  0  2  0  0  0  0  0  0
  161.2890  202.1750  148.8150 C   0  0  1  0  0  3  0  0  0  0  0  0
  160.8320  201.1880  147.7500 C   0  0  1  0  0  3  0  0  0  0  0  0
  161.5050  199.9200  147.9600 N   0  0  0  0  0  2  0  0  0  0  0  0
  160.8300  200.0890  145.6390 C   0  0  0  0  0  1  0  0  0  0  0  0
  161.5820  199.2670  146.6650 C   0  0  0  0  0  2  0  0  0  0  0  0
  1  5  1  6  0  0  0
  1 16  1  0  0  0  0
  2 13  1  0  0  0  0
  2 10  1  0  0  0  0
  3 14  1  0  0  0  0
  4  1  1  0  0  0  0
  6  7  1  0  0  0  0
  6 24  1  0  0  0  0
  7 19  1  0  0  0  0
  8  3  1  0  0  0  0
  9 26  1  0  0  0  0
  9  4  1  0  0  0  0
 11  7  1  0  0  0  0
 12  6  2  0  0  0  0
 14 23  1  0  0  0  0
 15 10  2  0  0  0  0
 16  2  2  0  0  0  0
 17  4  1  0  0  0  0
 17 14  1  0  0  0  0
 18  8  2  0  0  0  0
 19  8  1  0  0  0  0
 19 17  1  0  0  0  0
 20 12  1  0  0  0  0
 20 11  2  0  0  0  0
 22 15  1  0  0  0  0
 23 16  1  0  0  0  0
 23 22  2  0  0  0  0
 24 21  1  0  0  0  0
 24  9  1  0  0  0  0
 26 25  1  0  0  0  0
 27 28  1  0  0  0  0
 27 26  1  0  0  0  0
 27 25  1  0  0  0  0
 29 30  1  0  0  0  0
 30 28  1  0  0  0  0
M  END
>  <MODEL>
5

>  <REMARK>
 VINA RESULT:      -5.2      3.129      7.781
  Name = 
  3 active torsions:
  status: ('A' for Active; 'I' for Inactive)
    1  A    between atoms: C_8  and  C_12
    2  A    between atoms: C_11  and  N_28
    3  A    between atoms: N_28  and  C_30
                            x       y       z     vdW  Elec       q    Type
                         _______ _______ _______ _____ _____    ______ ____

>  <TORSDO>
F 3

$$$$
=
 OpenBabel11122412433D

 30 35  0  0  1  0  0  0  0  0999 V2000
  161.6810  206.3590  148.0960 C   0  0  2  0  0  3  0  0  0  0  0  0
  161.7640  208.0580  149.9680 C   0  0  0  0  0  0  0  0  0  0  0  0
  160.6250  203.3790  150.9420 N   0  0  0  0  0  2  0  0  0  0  0  0
  160.9540  205.0570  147.6410 C   0  0  1  0  0  3  0  0  0  0  0  0
  163.0610  206.2420  147.8990 O   0  0  0  0  0  1  0  0  0  0  0  0
  161.1870  202.0180  146.3320 C   0  0  0  0  0  0  0  0  0  0  0  0
  161.6820  201.8680  147.7340 C   0  0  2  0  0  3  0  0  0  0  0  0
  160.7030  202.2400  150.0910 C   0  0  0  0  0  0  0  0  0  0  0  0
  161.4990  204.5560  146.2680 C   0  0  1  0  0  3  0  0  0  0  0  0
  161.6440  208.4110  151.3150 C   0  0  0  0  0  3  0  0  0  0  0  0
  161.6280  200.3790  147.8650 C   0  0  0  0  0  3  0  0  0  0  0  0
  160.9180  200.8850  145.7770 N   0  0  0  0  0  0  0  0  0  0  0  0
  162.2160  209.0060  149.0560 O   0  0  0  0  0  1  0  0  0  0  0  0
  160.4650  204.4970  150.0300 C   0  0  2  0  0  3  0  0  0  0  0  0
  161.1930  207.4790  152.2510 C   0  0  0  0  0  3  0  0  0  0  0  0
  161.4340  206.7580  149.5440 C   0  0  0  0  0  0  0  0  0  0  0  0
  161.1500  204.0410  148.7650 C   0  0  1  0  0  3  0  0  0  0  0  0
  160.7010  201.0640  150.5380 O   0  0  0  0  0  0  0  0  0  0  0  0
  160.6960  202.6010  148.6370 C   0  0  1  0  0  3  0  0  0  0  0  0
  161.2060  199.8650  146.7200 C   0  0  0  0  0  3  0  0  0  0  0  0
  159.4040  203.4650  145.7200 O   0  0  0  0  0  1  0  0  0  0  0  0
  160.8590  206.1870  151.8440 C   0  0  0  0  0  3  0  0  0  0  0  0
  161.0010  205.8090  150.5030 C   0  0  0  0  0  0  0  0  0  0  0  0
  160.7920  203.3130  145.6860 C   0  0  2  0  0  3  0  0  0  0  0  0
  163.0600  205.7140  144.5420 C   0  0  0  0  0  2  0  0  0  0  0  0
  161.7100  205.7030  145.2450 C   0  0  1  0  0  3  0  0  0  0  0  0
  161.8480  205.1480  143.8340 C   0  0  1  0  0  3  0  0  0  0  0  0
  161.3360  206.1240  142.8910 N   0  0  0  0  0  2  0  0  0  0  0  0
  161.9580  207.0840  140.7550 C   0  0  0  0  0  1  0  0  0  0  0  0
  161.9580  205.8340  141.6100 C   0  0  0  0  0  2  0  0  0  0  0  0
  1  5  1  1  0  0  0
  1 16  1  0  0  0  0
  2 10  1  0  0  0  0
  4  1  1  0  0  0  0
  4 17  1  0  0  0  0
  6  7  1  0  0  0  0
  7 11  1  0  0  0  0
  7 19  1  0  0  0  0
  8 18  2  0  0  0  0
  8  3  1  0  0  0  0
  9  4  1  0  0  0  0
 10 15  2  0  0  0  0
 12  6  2  0  0  0  0
 12 20  1  0  0  0  0
 13  2  1  0  0  0  0
 14 23  1  0  0  0  0
 14  3  1  0  0  0  0
 16  2  2  0  0  0  0
 16 23  1  0  0  0  0
 17 14  1  0  0  0  0
 19 17  1  0  0  0  0
 19  8  1  0  0  0  0
 20 11  2  0  0  0  0
 22 15  1  0  0  0  0
 23 22  2  0  0  0  0
 24 21  1  0  0  0  0
 24  9  1  0  0  0  0
 24  6  1  0  0  0  0
 25 26  1  0  0  0  0
 26  9  1  0  0  0  0
 27 25  1  0  0  0  0
 27 26  1  0  0  0  0
 28 27  1  0  0  0  0
 29 30  1  0  0  0  0
 30 28  1  0  0  0  0
M  END
>  <MODEL>
6

>  <REMARK>
 VINA RESULT:      -4.9      3.772      7.324
  Name = 
  3 active torsions:
  status: ('A' for Active; 'I' for Inactive)
    1  A    between atoms: C_8  and  C_12
    2  A    between atoms: C_11  and  N_28
    3  A    between atoms: N_28  and  C_30
                            x       y       z     vdW  Elec       q    Type
                         _______ _______ _______ _____ _____    ______ ____

>  <TORSDO>
F 3

$$$$
=
 OpenBabel11122412433D

 30 35  0  0  1  0  0  0  0  0999 V2000
  161.6230  210.1400  150.8420 C   0  0  2  0  0  3  0  0  0  0  0  0
  161.3170  212.0410  149.2010 C   0  0  0  0  0  0  0  0  0  0  0  0
  159.7590  212.5170  153.8370 N   0  0  0  0  0  2  0  0  0  0  0  0
  160.9730  209.4690  152.0900 C   0  0  1  0  0  3  0  0  0  0  0  0
  163.0020  210.2840  151.0280 O   0  0  0  0  0  1  0  0  0  0  0  0
  161.3840  208.1370  155.1000 C   0  0  0  0  0  0  0  0  0  0  0  0
  161.5080  209.6110  155.3140 C   0  0  2  0  0  3  0  0  0  0  0  0
  159.9930  211.6670  154.9540 C   0  0  0  0  0  0  0  0  0  0  0  0
  161.8180  208.2530  152.5810 C   0  0  1  0  0  3  0  0  0  0  0  0
  160.8830  213.3300  148.8790 C   0  0  0  0  0  3  0  0  0  0  0  0
  161.3550  209.6650  156.8020 C   0  0  0  0  0  3  0  0  0  0  0  0
  161.2090  207.4880  156.2010 N   0  0  0  0  0  0  0  0  0  0  0  0
  162.0250  211.3070  148.2550 O   0  0  0  0  0  1  0  0  0  0  0  0
  159.8810  211.6390  152.6870 C   0  0  2  0  0  3  0  0  0  0  0  0
  160.1720  214.0880  149.8110 C   0  0  0  0  0  3  0  0  0  0  0  0
  161.0430  211.4970  150.4700 C   0  0  0  0  0  0  0  0  0  0  0  0
  160.8380  210.5650  153.1450 C   0  0  1  0  0  3  0  0  0  0  0  0
  159.8260  212.0520  156.1410 O   0  0  0  0  0  0  0  0  0  0  0  0
  160.3630  210.2710  154.5540 C   0  0  1  0  0  3  0  0  0  0  0  0
  161.2070  208.4310  157.2610 C   0  0  0  0  0  3  0  0  0  0  0  0
  159.8760  207.1630  153.5410 O   0  0  0  0  0  1  0  0  0  0  0  0
  159.8900  213.5600  151.0710 C   0  0  0  0  0  3  0  0  0  0  0  0
  160.3430  212.2820  151.4190 C   0  0  0  0  0  0  0  0  0  0  0  0
  161.2220  207.4660  153.7680 C   0  0  2  0  0  3  0  0  0  0  0  0
  162.2170  205.8590  151.6500 C   0  0  0  0  0  2  0  0  0  0  0  0
  162.3280  207.3600  151.4200 C   0  0  1  0  0  3  0  0  0  0  0  0
  161.1820  206.5700  150.8040 C   0  0  1  0  0  3  0  0  0  0  0  0
  161.4650  206.3450  149.3990 N   0  0  0  0  0  2  0  0  0  0  0  0
  161.5910  204.4730  147.8680 C   0  0  0  0  0  1  0  0  0  0  0  0
  160.8570  205.0740  149.0470 C   0  0  0  0  0  2  0  0  0  0  0  0
  1  5  1  1  0  0  0
  1  4  1  0  0  0  0
  2 16  1  0  0  0  0
  3  8  1  0  0  0  0
  4  9  1  0  0  0  0
  4 17  1  0  0  0  0
  6  7  1  0  0  0  0
  6 12  2  0  0  0  0
  7 11  1  0  0  0  0
  8 18  2  0  0  0  0
  9 24  1  0  0  0  0
 10  2  2  0  0  0  0
 10 15  1  0  0  0  0
 11 20  2  0  0  0  0
 12 20  1  0  0  0  0
 13  2  1  0  0  0  0
 14 17  1  0  0  0  0
 14  3  1  0  0  0  0
 15 22  2  0  0  0  0
 16  1  1  0  0  0  0
 16 23  2  0  0  0  0
 17 19  1  0  0  0  0
 19  8  1  0  0  0  0
 19  7  1  0  0  0  0
 21 24  1  0  0  0  0
 22 23  1  0  0  0  0
 23 14  1  0  0  0  0
 24  6  1  0  0  0  0
 26 25  1  0  0  0  0
 26  9  1  0  0  0  0
 27 26  1  0  0  0  0
 27 25  1  0  0  0  0
 28 27  1  0  0  0  0
 29 30  1  0  0  0  0
 30 28  1  0  0  0  0
M  END
>  <MODEL>
7

>  <REMARK>
 VINA RESULT:      -4.6      2.303      6.012
  Name = 
  3 active torsions:
  status: ('A' for Active; 'I' for Inactive)
    1  A    between atoms: C_8  and  C_12
    2  A    between atoms: C_11  and  N_28
    3  A    between atoms: N_28  and  C_30
                            x       y       z     vdW  Elec       q    Type
                         _______ _______ _______ _____ _____    ______ ____

>  <TORSDO>
F 3

$$$$
=
 OpenBabel11122412433D

 30 35  0  0  1  0  0  0  0  0999 V2000
  161.8170  207.5770  148.9060 C   0  0  2  0  0  3  0  0  0  0  0  0
  161.9560  210.0240  149.5260 C   0  0  0  0  0  0  0  0  0  0  0  0
  161.0490  206.6580  152.9880 N   0  0  0  0  0  2  0  0  0  0  0  0
  161.1100  206.2420  149.2940 C   0  0  1  0  0  3  0  0  0  0  0  0
  163.1850  207.3640  148.7060 O   0  0  0  0  0  1  0  0  0  0  0  0
  161.3700  202.9830  149.8560 C   0  0  0  0  0  0  0  0  0  0  0  0
  161.9560  203.6270  151.0700 C   0  0  2  0  0  3  0  0  0  0  0  0
  161.1150  205.2390  152.8990 C   0  0  0  0  0  0  0  0  0  0  0  0
  161.5850  205.0670  148.3870 C   0  0  1  0  0  3  0  0  0  0  0  0
  161.9080  211.0610  150.4620 C   0  0  0  0  0  3  0  0  0  0  0  0
  161.9640  202.4560  152.0000 C   0  0  0  0  0  3  0  0  0  0  0  0
  161.1080  201.7330  150.0350 N   0  0  0  0  0  0  0  0  0  0  0  0
  162.3160  210.3120  148.2140 O   0  0  0  0  0  1  0  0  0  0  0  0
  160.7920  207.0910  151.6260 C   0  0  2  0  0  3  0  0  0  0  0  0
  161.5500  210.7990  151.7860 C   0  0  0  0  0  3  0  0  0  0  0  0
  161.6470  208.7070  149.9110 C   0  0  0  0  0  0  0  0  0  0  0  0
  161.4130  206.0110  150.7740 C   0  0  1  0  0  3  0  0  0  0  0  0
  161.1830  204.5030  153.9170 O   0  0  0  0  0  0  0  0  0  0  0  0
  161.0030  204.7400  151.4900 C   0  0  1  0  0  3  0  0  0  0  0  0
  161.4900  201.3980  151.3600 C   0  0  0  0  0  3  0  0  0  0  0  0
  159.5000  203.8630  148.6800 O   0  0  0  0  0  1  0  0  0  0  0  0
  161.2380  209.4980  152.1810 C   0  0  0  0  0  3  0  0  0  0  0  0
  161.3090  208.4450  151.2610 C   0  0  0  0  0  0  0  0  0  0  0  0
  160.8890  203.7110  148.6350 C   0  0  2  0  0  3  0  0  0  0  0  0
  162.9940  205.0780  146.2020 C   0  0  0  0  0  2  0  0  0  0  0  0
  161.6910  205.4600  146.8900 C   0  0  1  0  0  3  0  0  0  0  0  0
  161.7620  204.2200  146.0100 C   0  0  1  0  0  3  0  0  0  0  0  0
  161.1580  204.5160  144.7250 N   0  0  0  0  0  2  0  0  0  0  0  0
  160.4560  202.2610  145.2600 C   0  0  0  0  0  1  0  0  0  0  0  0
  160.1080  203.5350  144.5200 C   0  0  0  0  0  2  0  0  0  0  0  0
  1  5  1  1  0  0  0
  1  4  1  0  0  0  0
  1 16  1  0  0  0  0
  2 16  2  0  0  0  0
  2 10  1  0  0  0  0
  4 17  1  0  0  0  0
  6 12  2  0  0  0  0
  6  7  1  0  0  0  0
  7 19  1  0  0  0  0
  7 11  1  0  0  0  0
  8  3  1  0  0  0  0
  8 18  2  0  0  0  0
  9 24  1  0  0  0  0
  9  4  1  0  0  0  0
 10 15  2  0  0  0  0
 12 20  1  0  0  0  0
 13  2  1  0  0  0  0
 14  3  1  0  0  0  0
 15 22  1  0  0  0  0
 16 23  1  0  0  0  0
 17 19  1  0  0  0  0
 17 14  1  0  0  0  0
 19  8  1  0  0  0  0
 20 11  2  0  0  0  0
 23 14  1  0  0  0  0
 23 22  2  0  0  0  0
 24 21  1  0  0  0  0
 24  6  1  0  0  0  0
 25 26  1  0  0  0  0
 26  9  1  0  0  0  0
 27 25  1  0  0  0  0
 27 26  1  0  0  0  0
 28 27  1  0  0  0  0
 30 28  1  0  0  0  0
 30 29  1  0  0  0  0
M  END
>  <MODEL>
8

>  <REMARK>
 VINA RESULT:      -4.5      2.581      6.465
  Name = 
  3 active torsions:
  status: ('A' for Active; 'I' for Inactive)
    1  A    between atoms: C_8  and  C_12
    2  A    between atoms: C_11  and  N_28
    3  A    between atoms: N_28  and  C_30
                            x       y       z     vdW  Elec       q    Type
                         _______ _______ _______ _____ _____    ______ ____

>  <TORSDO>
F 3

$$$$
=
 OpenBabel11122412433D

 30 35  0  0  1  0  0  0  0  0999 V2000
  160.9950  205.8780  150.0490 C   0  0  2  0  0  3  0  0  0  0  0  0
  161.4930  208.3340  150.3840 C   0  0  0  0  0  0  0  0  0  0  0  0
  162.3320  206.2250  146.0260 N   0  0  0  0  0  2  0  0  0  0  0  0
  161.4680  204.6160  149.2640 C   0  0  1  0  0  3  0  0  0  0  0  0
  159.6000  205.9810  150.0100 O   0  0  0  0  0  1  0  0  0  0  0  0
  160.6480  201.9320  147.4960 C   0  0  0  0  0  0  0  0  0  0  0  0
  160.4560  203.0810  146.5580 C   0  0  2  0  0  3  0  0  0  0  0  0
  161.9550  204.9310  145.5680 C   0  0  0  0  0  0  0  0  0  0  0  0
  160.5910  203.3740  149.6090 C   0  0  1  0  0  3  0  0  0  0  0  0
  161.9380  209.5740  149.9160 C   0  0  0  0  0  3  0  0  0  0  0  0
  160.3840  202.3400  145.2600 C   0  0  0  0  0  3  0  0  0  0  0  0
  160.6730  200.7950  146.8890 N   0  0  0  0  0  0  0  0  0  0  0  0
  160.9530  208.2460  151.6620 O   0  0  0  0  0  1  0  0  0  0  0  0
  162.4040  206.0870  147.4690 C   0  0  2  0  0  3  0  0  0  0  0  0
  162.4830  209.6910  148.6360 C   0  0  0  0  0  3  0  0  0  0  0  0
  161.5890  207.1930  149.5660 C   0  0  0  0  0  0  0  0  0  0  0  0
  161.4180  204.9890  147.7840 C   0  0  1  0  0  3  0  0  0  0  0  0
  161.9340  204.6290  144.3460 O   0  0  0  0  0  0  0  0  0  0  0  0
  161.6840  203.9740  146.6890 C   0  0  1  0  0  3  0  0  0  0  0  0
  160.4930  201.0420  145.5030 C   0  0  0  0  0  3  0  0  0  0  0  0
  162.3950  201.8340  149.1050 O   0  0  0  0  0  1  0  0  0  0  0  0
  162.5870  208.5660  147.8160 C   0  0  0  0  0  3  0  0  0  0  0  0
  162.1200  207.3230  148.2600 C   0  0  0  0  0  0  0  0  0  0  0  0
  161.0240  202.0500  148.9440 C   0  0  2  0  0  3  0  0  0  0  0  0
  161.2340  202.3680  151.9180 C   0  0  0  0  0  2  0  0  0  0  0  0
  160.2820  203.2520  151.1240 C   0  0  1  0  0  3  0  0  0  0  0  0
  161.3970  203.8720  151.9540 C   0  0  1  0  0  3  0  0  0  0  0  0
  160.8360  204.3930  153.1860 N   0  0  0  0  0  2  0  0  0  0  0  0
  160.7520  206.4730  154.4250 C   0  0  0  0  0  1  0  0  0  0  0  0
  161.5810  205.5970  153.5090 C   0  0  0  0  0  2  0  0  0  0  0  0
  1  5  1  6  0  0  0
  2 13  1  0  0  0  0
  3 14  1  0  0  0  0
  4  9  1  0  0  0  0
  4  1  1  0  0  0  0
  6 24  1  0  0  0  0
  7 19  1  0  0  0  0
  7  6  1  0  0  0  0
  8  3  1  0  0  0  0
  8 19  1  0  0  0  0
  9 26  1  0  0  0  0
 10  2  1  0  0  0  0
 11 20  2  0  0  0  0
 11  7  1  0  0  0  0
 12  6  2  0  0  0  0
 14 17  1  0  0  0  0
 14 23  1  0  0  0  0
 15 10  2  0  0  0  0
 16  1  1  0  0  0  0
 16  2  2  0  0  0  0
 17  4  1  0  0  0  0
 18  8  2  0  0  0  0
 19 17  1  0  0  0  0
 20 12  1  0  0  0  0
 22 23  2  0  0  0  0
 22 15  1  0  0  0  0
 23 16  1  0  0  0  0
 24 21  1  0  0  0  0
 24  9  1  0  0  0  0
 25 27  1  0  0  0  0
 26 25  1  0  0  0  0
 26 27  1  0  0  0  0
 27 28  1  0  0  0  0
 28 30  1  0  0  0  0
 30 29  1  0  0  0  0
M  END
>  <MODEL>
9

>  <REMARK>
 VINA RESULT:      -4.4      2.783      7.980
  Name = 
  3 active torsions:
  status: ('A' for Active; 'I' for Inactive)
    1  A    between atoms: C_8  and  C_12
    2  A    between atoms: C_11  and  N_28
    3  A    between atoms: N_28  and  C_30
                            x       y       z     vdW  Elec       q    Type
                         _______ _______ _______ _____ _____    ______ ____

>  <TORSDO>
F 3

$$$$
