=
 OpenBabel11122413293D

 31 35  0  0  1  0  0  0  0  0999 V2000
  161.1730  203.8720  145.5780 C   0  0  0  0  0  0  0  0  0  0  0  0
  160.5390  205.7540  148.8250 C   0  0  2  0  0  3  0  0  0  0  0  0
  160.8910  204.7910  149.9540 C   0  0  0  0  0  0  0  0  0  0  0  0
  161.1700  202.5030  150.7460 C   0  0  0  0  0  0  0  0  0  0  0  0
  161.1460  205.3660  147.4940 C   0  0  0  0  0  0  0  0  0  0  0  0
  162.2810  204.5450  145.0620 C   0  0  0  0  0  3  0  0  0  0  0  0
  160.9300  203.4080  149.7100 C   0  0  0  0  0  3  0  0  0  0  0  0
  162.3420  207.5100  149.0320 C   0  0  2  0  0  3  0  0  0  0  0  0
  160.6480  202.8180  144.9090 F   0  0  0  0  0  0  0  0  0  0  0  0
  161.0270  206.7090  151.6290 C   0  0  0  0  0  2  0  0  0  0  0  0
  161.2240  201.0460  150.4620 C   0  0  0  0  0  1  0  0  0  0  0  0
  162.7860  207.3160  147.5830 C   0  0  0  0  0  2  0  0  0  0  0  0
  160.8390  207.2230  149.1720 C   0  0  2  0  0  3  0  0  0  0  0  0
  160.6060  204.2830  146.7870 C   0  0  0  0  0  3  0  0  0  0  0  0
  161.3550  202.9680  152.0490 C   0  0  0  0  0  3  0  0  0  0  0  0
  162.2630  206.0520  146.9640 C   0  0  0  0  0  0  0  0  0  0  0  0
  162.8170  205.6370  145.7480 C   0  0  0  0  0  3  0  0  0  0  0  0
  160.3120  207.5440  150.5710 C   0  0  0  0  0  2  0  0  0  0  0  0
  161.0410  205.2490  151.2860 C   0  0  0  0  0  0  0  0  0  0  0  0
  161.2920  204.3370  152.3150 C   0  0  0  0  0  3  0  0  0  0  0  0
  161.3240  209.8670  147.7920 O   0  0  0  0  0  0  0  0  0  0  0  0
  162.0910  210.0140  148.7830 C   0  0  0  0  0  0  0  0  0  0  0  0
  162.6400  208.8750  149.4460 N   0  0  0  0  0  2  0  0  0  0  0  0
  161.0060  213.5180  148.1310 N   0  0  0  0  0  0  0  0  0  0  0  0
  161.3350  212.0190  149.9250 O   0  0  0  0  0  0  0  0  0  0  0  0
  164.0800  211.6200  147.5250 O   0  0  0  0  0  1  0  0  0  0  0  0
  159.9820  213.9460  147.1950 C   0  0  0  0  0  1  0  0  0  0  0  0
  160.4160  212.4580  148.9450 C   0  0  0  0  0  2  0  0  0  0  0  0
  163.1180  212.3110  148.2630 C   0  0  2  0  0  3  0  0  0  0  0  0
  162.4310  211.3900  149.2880 C   0  0  2  0  0  3  0  0  0  0  0  0
  162.0740  212.9200  147.3370 C   0  0  0  0  0  2  0  0  0  0  0  0
  1 14  1  0  0  0  0
  2  5  1  6  0  0  0
  2 13  1  0  0  0  0
  2  3  1  0  0  0  0
  3 19  1  0  0  0  0
  4 15  2  0  0  0  0
  6  1  2  0  0  0  0
  6 17  1  0  0  0  0
  7  3  2  0  0  0  0
  7  4  1  0  0  0  0
  8 13  1  0  0  0  0
  8 23  1  6  0  0  0
  9  1  1  0  0  0  0
 11  4  1  0  0  0  0
 12  8  1  0  0  0  0
 13 18  1  1  0  0  0
 14  5  2  0  0  0  0
 15 20  1  0  0  0  0
 16  5  1  0  0  0  0
 16 12  1  0  0  0  0
 17 16  2  0  0  0  0
 18 10  1  0  0  0  0
 19 10  1  0  0  0  0
 19 20  2  0  0  0  0
 21 22  2  0  0  0  0
 22 23  1  0  0  0  0
 24 28  1  0  0  0  0
 27 24  1  0  0  0  0
 28 25  1  0  0  0  0
 29 26  1  6  0  0  0
 29 30  1  0  0  0  0
 30 22  1  6  0  0  0
 30 25  1  0  0  0  0
 31 24  1  0  0  0  0
 31 29  1  0  0  0  0
M  END
>  <MODEL>
1

>  <REMARK>
 VINA RESULT:      -7.4      0.000      0.000
  Name = 
  2 active torsions:
  status: ('A' for Active; 'I' for Inactive)
    1  A    between atoms: C_5  and  C_30
    2  A    between atoms: C_10  and  N_16
                            x       y       z     vdW  Elec       q    Type
                         _______ _______ _______ _____ _____    ______ ____

>  <TORSDO>
F 2

$$$$
=
 OpenBabel11122413293D

 31 35  0  0  1  0  0  0  0  0999 V2000
  160.9890  206.5140  146.6500 C   0  0  0  0  0  0  0  0  0  0  0  0
  160.3270  205.1540  150.1430 C   0  0  2  0  0  3  0  0  0  0  0  0
  160.7840  203.6990  150.1290 C   0  0  0  0  0  0  0  0  0  0  0  0
  161.2510  201.6610  148.8780 C   0  0  0  0  0  0  0  0  0  0  0  0
  160.9170  205.9780  149.0190 C   0  0  0  0  0  0  0  0  0  0  0  0
  162.0300  207.4150  146.8800 C   0  0  0  0  0  3  0  0  0  0  0  0
  160.9140  203.0160  148.9090 C   0  0  0  0  0  3  0  0  0  0  0  0
  162.0070  206.2310  151.6920 C   0  0  2  0  0  3  0  0  0  0  0  0
  160.5200  206.3270  145.3940 F   0  0  0  0  0  0  0  0  0  0  0  0
  160.8360  203.6290  152.6780 C   0  0  0  0  0  2  0  0  0  0  0  0
  161.3990  200.9630  147.5750 C   0  0  0  0  0  1  0  0  0  0  0  0
  162.4160  207.2580  150.6360 C   0  0  0  0  0  2  0  0  0  0  0  0
  160.5330  205.8360  151.5070 C   0  0  2  0  0  3  0  0  0  0  0  0
  160.4340  205.8010  147.7160 C   0  0  0  0  0  3  0  0  0  0  0  0
  161.4430  200.9630  150.0700 C   0  0  0  0  0  3  0  0  0  0  0  0
  161.9650  206.9000  149.2500 C   0  0  0  0  0  0  0  0  0  0  0  0
  162.5080  207.6140  148.1770 C   0  0  0  0  0  3  0  0  0  0  0  0
  160.0300  204.9230  152.6250 C   0  0  0  0  0  2  0  0  0  0  0  0
  160.9430  202.9720  151.3340 C   0  0  0  0  0  0  0  0  0  0  0  0
  161.2910  201.6180  151.2930 C   0  0  0  0  0  3  0  0  0  0  0  0
  160.5870  208.4500  152.7850 O   0  0  0  0  0  0  0  0  0  0  0  0
  161.4680  207.9070  153.5080 C   0  0  0  0  0  0  0  0  0  0  0  0
  162.2190  206.7960  153.0180 N   0  0  0  0  0  2  0  0  0  0  0  0
  159.6970  209.9640  156.0590 N   0  0  0  0  0  0  0  0  0  0  0  0
  160.8210  207.8980  155.8480 O   0  0  0  0  0  0  0  0  0  0  0  0
  162.6640  210.4530  153.9670 O   0  0  0  0  0  1  0  0  0  0  0  0
  158.3710  210.5410  155.9360 C   0  0  0  0  0  1  0  0  0  0  0  0
  159.5770  208.5530  155.7010 C   0  0  0  0  0  2  0  0  0  0  0  0
  161.8990  209.9410  155.0160 C   0  0  2  0  0  3  0  0  0  0  0  0
  161.7350  208.4150  154.8990 C   0  0  2  0  0  3  0  0  0  0  0  0
  160.5290  210.6060  155.0470 C   0  0  0  0  0  2  0  0  0  0  0  0
  1  6  2  0  0  0  0
  1 14  1  0  0  0  0
  2  5  1  6  0  0  0
  2 13  1  0  0  0  0
  3  2  1  0  0  0  0
  3 19  1  0  0  0  0
  4  7  1  0  0  0  0
  4 15  2  0  0  0  0
  5 16  1  0  0  0  0
  6 17  1  0  0  0  0
  7  3  2  0  0  0  0
  8 23  1  1  0  0  0
  9  1  1  0  0  0  0
 11  4  1  0  0  0  0
 12  8  1  0  0  0  0
 13  8  1  0  0  0  0
 13 18  1  1  0  0  0
 14  5  2  0  0  0  0
 15 20  1  0  0  0  0
 16 12  1  0  0  0  0
 17 16  2  0  0  0  0
 18 10  1  0  0  0  0
 19 10  1  0  0  0  0
 20 19  2  0  0  0  0
 21 22  2  0  0  0  0
 23 22  1  0  0  0  0
 27 24  1  0  0  0  0
 28 25  1  0  0  0  0
 28 24  1  0  0  0  0
 29 26  1  6  0  0  0
 29 31  1  0  0  0  0
 30 22  1  6  0  0  0
 30 29  1  0  0  0  0
 30 25  1  0  0  0  0
 31 24  1  0  0  0  0
M  END
>  <MODEL>
2

>  <REMARK>
 VINA RESULT:      -7.4      3.502      4.750
  Name = 
  2 active torsions:
  status: ('A' for Active; 'I' for Inactive)
    1  A    between atoms: C_5  and  C_30
    2  A    between atoms: C_10  and  N_16
                            x       y       z     vdW  Elec       q    Type
                         _______ _______ _______ _____ _____    ______ ____

>  <TORSDO>
F 2

$$$$
=
 OpenBabel11122413293D

 31 35  0  0  1  0  0  0  0  0999 V2000
  160.7400  207.2990  156.3790 C   0  0  0  0  0  0  0  0  0  0  0  0
  161.9010  208.4870  152.9550 C   0  0  2  0  0  3  0  0  0  0  0  0
  161.4800  207.4090  151.9620 C   0  0  0  0  0  0  0  0  0  0  0  0
  160.8940  205.0870  151.5140 C   0  0  0  0  0  0  0  0  0  0  0  0
  161.1460  208.4250  154.2640 C   0  0  0  0  0  0  0  0  0  0  0  0
  159.7200  208.2050  156.6720 C   0  0  0  0  0  3  0  0  0  0  0  0
  161.2010  206.1090  152.4140 C   0  0  0  0  0  3  0  0  0  0  0  0
  160.4240  210.4290  152.3000 C   0  0  2  0  0  3  0  0  0  0  0  0
  161.0390  206.3080  157.2530 F   0  0  0  0  0  0  0  0  0  0  0  0
  161.7770  209.0140  150.0020 C   0  0  0  0  0  2  0  0  0  0  0  0
  160.5860  203.7230  152.0170 C   0  0  0  0  0  1  0  0  0  0  0  0
  159.8520  210.5510  153.7120 C   0  0  0  0  0  2  0  0  0  0  0  0
  161.8670  209.9040  152.3540 C   0  0  2  0  0  3  0  0  0  0  0  0
  161.4510  207.4100  155.1820 C   0  0  0  0  0  3  0  0  0  0  0  0
  160.8810  205.3460  150.1430 C   0  0  0  0  0  3  0  0  0  0  0  0
  160.1180  209.3480  154.5690 C   0  0  0  0  0  0  0  0  0  0  0  0
  159.4180  209.2320  155.7750 C   0  0  0  0  0  3  0  0  0  0  0  0
  162.5390  209.9020  150.9800 C   0  0  0  0  0  2  0  0  0  0  0  0
  161.5030  207.6520  150.5660 C   0  0  0  0  0  0  0  0  0  0  0  0
  161.1830  206.6240  149.6730 C   0  0  0  0  0  3  0  0  0  0  0  0
  158.0990  212.0570  152.0260 O   0  0  0  0  0  0  0  0  0  0  0  0
  159.1810  212.5010  151.5510 C   0  0  0  0  0  0  0  0  0  0  0  0
  160.3810  211.7320  151.6500 N   0  0  0  0  0  2  0  0  0  0  0  0
  157.8060  214.0790  148.4700 N   0  0  0  0  0  0  0  0  0  0  0  0
  157.9510  214.4530  150.7970 O   0  0  0  0  0  0  0  0  0  0  0  0
  161.1600  213.1370  149.6020 O   0  0  0  0  0  1  0  0  0  0  0  0
  156.9500  213.4470  147.4840 C   0  0  0  0  0  1  0  0  0  0  0  0
  157.2050  213.8210  149.7770 C   0  0  0  0  0  2  0  0  0  0  0  0
  159.9850  213.8870  149.5440 C   0  0  2  0  0  3  0  0  0  0  0  0
  159.2280  213.8480  150.8830 C   0  0  2  0  0  3  0  0  0  0  0  0
  159.0830  213.3760  148.4280 C   0  0  0  0  0  2  0  0  0  0  0  0
  1  6  1  0  0  0  0
  1  9  1  0  0  0  0
  2  3  1  6  0  0  0
  2  5  1  0  0  0  0
  3  7  1  0  0  0  0
  4 11  1  0  0  0  0
  4  7  2  0  0  0  0
  5 16  2  0  0  0  0
  5 14  1  0  0  0  0
  8 23  1  1  0  0  0
  8 13  1  0  0  0  0
  8 12  1  0  0  0  0
 10 19  1  0  0  0  0
 10 18  1  0  0  0  0
 12 16  1  0  0  0  0
 13 18  1  6  0  0  0
 13  2  1  0  0  0  0
 14  1  2  0  0  0  0
 15  4  1  0  0  0  0
 16 17  1  0  0  0  0
 17  6  2  0  0  0  0
 19  3  2  0  0  0  0
 20 15  2  0  0  0  0
 20 19  1  0  0  0  0
 22 23  1  0  0  0  0
 22 21  2  0  0  0  0
 24 28  1  0  0  0  0
 25 30  1  0  0  0  0
 27 24  1  0  0  0  0
 28 25  1  0  0  0  0
 29 26  1  1  0  0  0
 29 30  1  0  0  0  0
 30 22  1  6  0  0  0
 31 24  1  0  0  0  0
 31 29  1  0  0  0  0
M  END
>  <MODEL>
3

>  <REMARK>
 VINA RESULT:      -7.4      3.798      6.171
  Name = 
  2 active torsions:
  status: ('A' for Active; 'I' for Inactive)
    1  A    between atoms: C_5  and  C_30
    2  A    between atoms: C_10  and  N_16
                            x       y       z     vdW  Elec       q    Type
                         _______ _______ _______ _____ _____    ______ ____

>  <TORSDO>
F 2

$$$$
=
 OpenBabel11122413293D

 31 35  0  0  1  0  0  0  0  0999 V2000
  160.9810  204.6060  144.8930 C   0  0  0  0  0  0  0  0  0  0  0  0
  160.4930  205.1390  148.6300 C   0  0  2  0  0  3  0  0  0  0  0  0
  160.9140  203.8390  149.3060 C   0  0  0  0  0  0  0  0  0  0  0  0
  161.2570  201.4290  149.1850 C   0  0  0  0  0  0  0  0  0  0  0  0
  161.0350  205.2870  147.2250 C   0  0  0  0  0  0  0  0  0  0  0  0
  162.0540  205.4530  144.6150 C   0  0  0  0  0  3  0  0  0  0  0  0
  160.9550  202.6450  148.5670 C   0  0  0  0  0  3  0  0  0  0  0  0
  162.2860  206.7470  149.3930 C   0  0  2  0  0  3  0  0  0  0  0  0
  160.4340  203.8580  143.9050 F   0  0  0  0  0  0  0  0  0  0  0  0
  161.1140  205.0080  151.5640 C   0  0  0  0  0  2  0  0  0  0  0  0
  161.3120  200.1820  148.3800 C   0  0  0  0  0  1  0  0  0  0  0  0
  162.6570  207.1130  147.9560 C   0  0  0  0  0  2  0  0  0  0  0  0
  160.7950  206.3850  149.4820 C   0  0  2  0  0  3  0  0  0  0  0  0
  160.4730  204.5260  146.1920 C   0  0  0  0  0  3  0  0  0  0  0  0
  161.5030  201.3870  150.5570 C   0  0  0  0  0  3  0  0  0  0  0  0
  162.1170  206.1520  146.9370 C   0  0  0  0  0  0  0  0  0  0  0  0
  162.6130  206.2310  145.6320 C   0  0  0  0  0  3  0  0  0  0  0  0
  160.3370  206.1530  150.9220 C   0  0  0  0  0  2  0  0  0  0  0  0
  161.1260  203.7780  150.7060 C   0  0  0  0  0  0  0  0  0  0  0  0
  161.4390  202.5580  151.3130 C   0  0  0  0  0  3  0  0  0  0  0  0
  161.3770  209.4230  149.0130 O   0  0  0  0  0  0  0  0  0  0  0  0
  162.0970  209.1890  150.0230 C   0  0  0  0  0  0  0  0  0  0  0  0
  162.5900  207.8710  150.2680 N   0  0  0  0  0  2  0  0  0  0  0  0
  160.3230  211.2450  152.5730 N   0  0  0  0  0  0  0  0  0  0  0  0
  162.2510  209.9040  152.3390 O   0  0  0  0  0  0  0  0  0  0  0  0
  161.8410  211.9370  149.3120 O   0  0  0  0  0  1  0  0  0  0  0  0
  158.9220  211.1470  152.9410 C   0  0  0  0  0  1  0  0  0  0  0  0
  160.8690  209.8910  152.6310 C   0  0  0  0  0  2  0  0  0  0  0  0
  161.7980  211.6550  150.6790 C   0  0  2  0  0  3  0  0  0  0  0  0
  162.4390  210.2900  150.9900 C   0  0  2  0  0  3  0  0  0  0  0  0
  160.3610  211.6750  151.1800 C   0  0  0  0  0  2  0  0  0  0  0  0
  1 14  1  0  0  0  0
  2  5  1  6  0  0  0
  2  3  1  0  0  0  0
  2 13  1  0  0  0  0
  3 19  1  0  0  0  0
  4 15  2  0  0  0  0
  6  1  2  0  0  0  0
  6 17  1  0  0  0  0
  7  4  1  0  0  0  0
  7  3  2  0  0  0  0
  8 13  1  0  0  0  0
  8 23  1  1  0  0  0
  9  1  1  0  0  0  0
 11  4  1  0  0  0  0
 12  8  1  0  0  0  0
 13 18  1  1  0  0  0
 14  5  2  0  0  0  0
 15 20  1  0  0  0  0
 16  5  1  0  0  0  0
 16 12  1  0  0  0  0
 17 16  2  0  0  0  0
 18 10  1  0  0  0  0
 19 20  2  0  0  0  0
 19 10  1  0  0  0  0
 21 22  2  0  0  0  0
 22 23  1  0  0  0  0
 24 28  1  0  0  0  0
 24 27  1  0  0  0  0
 25 28  1  0  0  0  0
 29 26  1  6  0  0  0
 29 30  1  0  0  0  0
 29 31  1  0  0  0  0
 30 22  1  6  0  0  0
 30 25  1  0  0  0  0
 31 24  1  0  0  0  0
M  END
>  <MODEL>
4

>  <REMARK>
 VINA RESULT:      -7.3      1.834      2.408
  Name = 
  2 active torsions:
  status: ('A' for Active; 'I' for Inactive)
    1  A    between atoms: C_5  and  C_30
    2  A    between atoms: C_10  and  N_16
                            x       y       z     vdW  Elec       q    Type
                         _______ _______ _______ _____ _____    ______ ____

>  <TORSDO>
F 2

$$$$
=
 OpenBabel11122413293D

 31 35  0  0  1  0  0  0  0  0999 V2000
  161.2560  208.2220  138.0360 C   0  0  0  0  0  0  0  0  0  0  0  0
  159.5820  211.5410  138.8550 C   0  0  2  0  0  3  0  0  0  0  0  0
  158.0940  211.2450  139.0030 C   0  0  0  0  0  0  0  0  0  0  0  0
  156.1780  209.8320  138.4850 C   0  0  0  0  0  0  0  0  0  0  0  0
  160.4550  210.3110  138.9850 C   0  0  0  0  0  0  0  0  0  0  0  0
  161.9850  207.9680  139.1990 C   0  0  0  0  0  3  0  0  0  0  0  0
  157.5510  210.0820  138.4340 C   0  0  0  0  0  3  0  0  0  0  0  0
  160.2470  212.1480  141.2160 C   0  0  2  0  0  3  0  0  0  0  0  0
  161.2810  207.3360  137.0130 F   0  0  0  0  0  0  0  0  0  0  0  0
  157.7140  213.4540  140.2200 C   0  0  0  0  0  2  0  0  0  0  0  0
  155.6270  208.5860  137.8920 C   0  0  0  0  0  1  0  0  0  0  0  0
  161.3320  211.0720  141.2530 C   0  0  0  0  0  2  0  0  0  0  0  0
  160.0650  212.6710  139.7830 C   0  0  2  0  0  3  0  0  0  0  0  0
  160.4970  209.3900  137.9290 C   0  0  0  0  0  3  0  0  0  0  0  0
  155.3230  210.7540  139.0900 C   0  0  0  0  0  3  0  0  0  0  0  0
  161.2020  210.0550  140.1570 C   0  0  0  0  0  0  0  0  0  0  0  0
  161.9660  208.8870  140.2510 C   0  0  0  0  0  3  0  0  0  0  0  0
  159.0960  213.8510  139.7120 C   0  0  0  0  0  2  0  0  0  0  0  0
  157.2140  212.1940  139.5790 C   0  0  0  0  0  0  0  0  0  0  0  0
  155.8410  211.9300  139.6360 C   0  0  0  0  0  3  0  0  0  0  0  0
  160.0460  212.0810  144.0600 O   0  0  0  0  0  0  0  0  0  0  0  0
  160.4970  213.1350  143.5310 C   0  0  0  0  0  0  0  0  0  0  0  0
  160.6180  213.2350  142.1120 N   0  0  0  0  0  2  0  0  0  0  0  0
  162.1610  213.6480  146.8240 N   0  0  0  0  0  0  0  0  0  0  0  0
  162.3250  214.3450  144.5740 O   0  0  0  0  0  0  0  0  0  0  0  0
  158.7840  214.2290  145.5290 O   0  0  0  0  0  1  0  0  0  0  0  0
  162.6450  212.6130  147.7190 C   0  0  0  0  0  1  0  0  0  0  0  0
  162.7050  213.3490  145.5010 C   0  0  0  0  0  2  0  0  0  0  0  0
  160.1500  214.4530  145.7090 C   0  0  2  0  0  3  0  0  0  0  0  0
  160.9220  214.2970  144.3860 C   0  0  2  0  0  3  0  0  0  0  0  0
  160.7130  213.4940  146.7490 C   0  0  0  0  0  2  0  0  0  0  0  0
  1  6  1  0  0  0  0
  2  5  1  1  0  0  0
  2  3  1  0  0  0  0
  2 13  1  0  0  0  0
  3 19  1  0  0  0  0
  4 15  2  0  0  0  0
  5 16  2  0  0  0  0
  6 17  2  0  0  0  0
  7  4  1  0  0  0  0
  7  3  2  0  0  0  0
  8 12  1  0  0  0  0
  8 23  1  1  0  0  0
  9  1  1  0  0  0  0
 11  4  1  0  0  0  0
 13 18  1  1  0  0  0
 13  8  1  0  0  0  0
 14  1  2  0  0  0  0
 14  5  1  0  0  0  0
 15 20  1  0  0  0  0
 16 17  1  0  0  0  0
 16 12  1  0  0  0  0
 18 10  1  0  0  0  0
 19 20  2  0  0  0  0
 19 10  1  0  0  0  0
 22 21  2  0  0  0  0
 23 22  1  0  0  0  0
 24 27  1  0  0  0  0
 25 28  1  0  0  0  0
 28 24  1  0  0  0  0
 29 26  1  6  0  0  0
 29 31  1  0  0  0  0
 30 22  1  1  0  0  0
 30 25  1  0  0  0  0
 30 29  1  0  0  0  0
 31 24  1  0  0  0  0
M  END
>  <MODEL>
5

>  <REMARK>
 VINA RESULT:      -6.4      7.052      9.988
  Name = 
  2 active torsions:
  status: ('A' for Active; 'I' for Inactive)
    1  A    between atoms: C_5  and  C_30
    2  A    between atoms: C_10  and  N_16
                            x       y       z     vdW  Elec       q    Type
                         _______ _______ _______ _____ _____    ______ ____

>  <TORSDO>
F 2

$$$$
=
 OpenBabel11122413293D

 31 35  0  0  1  0  0  0  0  0999 V2000
  161.6440  206.3450  152.1090 C   0  0  0  0  0  0  0  0  0  0  0  0
  159.9870  209.6700  152.9380 C   0  0  2  0  0  3  0  0  0  0  0  0
  160.5730  210.1200  154.2710 C   0  0  0  0  0  0  0  0  0  0  0  0
  161.6500  209.5570  156.3840 C   0  0  0  0  0  0  0  0  0  0  0  0
  160.8310  208.6320  152.2310 C   0  0  0  0  0  0  0  0  0  0  0  0
  162.4430  206.6810  151.0160 C   0  0  0  0  0  3  0  0  0  0  0  0
  161.1800  209.1820  155.1230 C   0  0  0  0  0  3  0  0  0  0  0  0
  160.9180  211.3860  151.3340 C   0  0  2  0  0  3  0  0  0  0  0  0
  161.6500  205.0790  152.5890 F   0  0  0  0  0  0  0  0  0  0  0  0
  159.7660  212.5090  153.8890 C   0  0  0  0  0  2  0  0  0  0  0  0
  162.3040  208.5520  157.2610 C   0  0  0  0  0  1  0  0  0  0  0  0
  161.5490  210.3100  150.4510 C   0  0  0  0  0  2  0  0  0  0  0  0
  159.6450  210.8450  152.0040 C   0  0  2  0  0  3  0  0  0  0  0  0
  160.8400  207.3160  152.7120 C   0  0  0  0  0  3  0  0  0  0  0  0
  161.5000  210.8730  156.8200 C   0  0  0  0  0  3  0  0  0  0  0  0
  161.6350  208.9670  151.1160 C   0  0  0  0  0  0  0  0  0  0  0  0
  162.4300  207.9850  150.5150 C   0  0  0  0  0  3  0  0  0  0  0  0
  158.8920  211.9250  152.7820 C   0  0  0  0  0  2  0  0  0  0  0  0
  160.3910  211.4440  154.7400 C   0  0  0  0  0  0  0  0  0  0  0  0
  160.8740  211.8130  156.0000 C   0  0  0  0  0  3  0  0  0  0  0  0
  161.9650  211.9070  148.7340 O   0  0  0  0  0  0  0  0  0  0  0  0
  161.1640  212.7520  149.2200 C   0  0  0  0  0  0  0  0  0  0  0  0
  160.6070  212.5540  150.5200 N   0  0  0  0  0  2  0  0  0  0  0  0
  160.2720  213.5800  145.6990 N   0  0  0  0  0  0  0  0  0  0  0  0
  159.4680  213.8800  147.8980 O   0  0  0  0  0  0  0  0  0  0  0  0
  163.1050  214.3560  147.8870 O   0  0  0  0  0  1  0  0  0  0  0  0
  160.1880  212.6500  144.5870 C   0  0  0  0  0  1  0  0  0  0  0  0
  159.4840  213.0060  146.7870 C   0  0  0  0  0  2  0  0  0  0  0  0
  161.8040  214.4360  147.3890 C   0  0  2  0  0  3  0  0  0  0  0  0
  160.7740  213.9750  148.4360 C   0  0  2  0  0  3  0  0  0  0  0  0
  161.6670  213.5950  146.1270 C   0  0  0  0  0  2  0  0  0  0  0  0
  1  9  1  0  0  0  0
  1 14  1  0  0  0  0
  2  5  1  6  0  0  0
  2  3  1  0  0  0  0
  3 19  2  0  0  0  0
  3  7  1  0  0  0  0
  4 15  1  0  0  0  0
  4 11  1  0  0  0  0
  5 14  2  0  0  0  0
  6  1  2  0  0  0  0
  7  4  2  0  0  0  0
  8 23  1  6  0  0  0
  8 13  1  0  0  0  0
 10 19  1  0  0  0  0
 12 16  1  0  0  0  0
 12  8  1  0  0  0  0
 13 18  1  1  0  0  0
 13  2  1  0  0  0  0
 16  5  1  0  0  0  0
 17  6  1  0  0  0  0
 17 16  2  0  0  0  0
 18 10  1  0  0  0  0
 19 20  1  0  0  0  0
 20 15  2  0  0  0  0
 21 22  2  0  0  0  0
 22 23  1  0  0  0  0
 24 31  1  0  0  0  0
 24 28  1  0  0  0  0
 25 30  1  0  0  0  0
 27 24  1  0  0  0  0
 28 25  1  0  0  0  0
 29 26  1  1  0  0  0
 29 30  1  0  0  0  0
 30 22  1  6  0  0  0
 31 29  1  0  0  0  0
M  END
>  <MODEL>
6

>  <REMARK>
 VINA RESULT:      -6.0      3.742      5.799
  Name = 
  2 active torsions:
  status: ('A' for Active; 'I' for Inactive)
    1  A    between atoms: C_5  and  C_30
    2  A    between atoms: C_10  and  N_16
                            x       y       z     vdW  Elec       q    Type
                         _______ _______ _______ _____ _____    ______ ____

>  <TORSDO>
F 2

$$$$
=
 OpenBabel11122413293D

 31 35  0  0  1  0  0  0  0  0999 V2000
  160.7590  201.5830  149.0620 C   0  0  0  0  0  0  0  0  0  0  0  0
  162.2540  204.9440  150.0410 C   0  0  2  0  0  3  0  0  0  0  0  0
  161.7170  205.9590  149.0380 C   0  0  0  0  0  0  0  0  0  0  0  0
  160.7960  206.4430  146.8340 C   0  0  0  0  0  0  0  0  0  0  0  0
  161.4360  203.6720  150.1030 C   0  0  0  0  0  0  0  0  0  0  0  0
  159.8810  201.3350  150.1180 C   0  0  0  0  0  3  0  0  0  0  0  0
  161.2170  205.5250  147.7990 C   0  0  0  0  0  3  0  0  0  0  0  0
  161.1310  205.6610  152.1870 C   0  0  2  0  0  3  0  0  0  0  0  0
  160.8570  200.6990  148.0410 F   0  0  0  0  0  0  0  0  0  0  0  0
  162.3530  207.8980  150.5690 C   0  0  0  0  0  2  0  0  0  0  0  0
  160.2550  205.9600  145.5370 C   0  0  0  0  0  1  0  0  0  0  0  0
  160.5190  204.2780  152.4020 C   0  0  0  0  0  2  0  0  0  0  0  0
  162.4700  205.5400  151.4430 C   0  0  2  0  0  3  0  0  0  0  0  0
  161.5350  202.7450  149.0560 C   0  0  0  0  0  3  0  0  0  0  0  0
  160.8890  207.8120  147.0860 C   0  0  0  0  0  3  0  0  0  0  0  0
  160.5520  203.4130  151.1760 C   0  0  0  0  0  0  0  0  0  0  0  0
  159.7870  202.2420  151.1760 C   0  0  0  0  0  3  0  0  0  0  0  0
  163.1970  206.8800  151.3310 C   0  0  0  0  0  2  0  0  0  0  0  0
  161.8430  207.3510  149.2690 C   0  0  0  0  0  0  0  0  0  0  0  0
  161.4100  208.2630  148.3000 C   0  0  0  0  0  3  0  0  0  0  0  0
  160.3740  208.3360  152.8190 O   0  0  0  0  0  0  0  0  0  0  0  0
  160.9150  207.6520  153.7310 C   0  0  0  0  0  0  0  0  0  0  0  0
  161.3230  206.3070  153.4790 N   0  0  0  0  0  2  0  0  0  0  0  0
  159.2350  210.1340  155.9440 N   0  0  0  0  0  0  0  0  0  0  0  0
  160.0770  207.9280  155.9930 O   0  0  0  0  0  0  0  0  0  0  0  0
  162.4080  210.0490  154.1160 O   0  0  0  0  0  1  0  0  0  0  0  0
  158.0170  210.8670  155.6530 C   0  0  0  0  0  1  0  0  0  0  0  0
  158.9520  208.7250  155.6800 C   0  0  0  0  0  2  0  0  0  0  0  0
  161.4930  209.7340  155.1210 C   0  0  2  0  0  3  0  0  0  0  0  0
  161.1310  208.2380  155.1000 C   0  0  2  0  0  3  0  0  0  0  0  0
  160.2310  210.5720  154.9720 C   0  0  0  0  0  2  0  0  0  0  0  0
  1  6  1  0  0  0  0
  2  3  1  6  0  0  0
  2  5  1  0  0  0  0
  2 13  1  0  0  0  0
  3 19  1  0  0  0  0
  4 15  2  0  0  0  0
  4  7  1  0  0  0  0
  5 16  2  0  0  0  0
  6 17  2  0  0  0  0
  7  3  2  0  0  0  0
  8 12  1  0  0  0  0
  8 23  1  1  0  0  0
  9  1  1  0  0  0  0
 10 18  1  0  0  0  0
 11  4  1  0  0  0  0
 13 18  1  6  0  0  0
 13  8  1  0  0  0  0
 14  1  2  0  0  0  0
 14  5  1  0  0  0  0
 15 20  1  0  0  0  0
 16 17  1  0  0  0  0
 16 12  1  0  0  0  0
 19 10  1  0  0  0  0
 20 19  2  0  0  0  0
 21 22  2  0  0  0  0
 23 22  1  0  0  0  0
 27 24  1  0  0  0  0
 28 24  1  0  0  0  0
 28 25  1  0  0  0  0
 29 26  1  6  0  0  0
 30 22  1  6  0  0  0
 30 29  1  0  0  0  0
 30 25  1  0  0  0  0
 31 29  1  0  0  0  0
 31 24  1  0  0  0  0
M  END
>  <MODEL>
7

>  <REMARK>
 VINA RESULT:      -5.3      3.454      5.710
  Name = 
  2 active torsions:
  status: ('A' for Active; 'I' for Inactive)
    1  A    between atoms: C_5  and  C_30
    2  A    between atoms: C_10  and  N_16
                            x       y       z     vdW  Elec       q    Type
                         _______ _______ _______ _____ _____    ______ ____

>  <TORSDO>
F 2

$$$$
=
 OpenBabel11122413293D

 31 35  0  0  1  0  0  0  0  0999 V2000
  162.0060  212.9050  147.9880 C   0  0  0  0  0  0  0  0  0  0  0  0
  159.6180  213.9300  150.7700 C   0  0  2  0  0  3  0  0  0  0  0  0
  158.2250  213.9470  150.1520 C   0  0  0  0  0  0  0  0  0  0  0  0
  156.8100  214.1460  148.1780 C   0  0  0  0  0  0  0  0  0  0  0  0
  160.6180  213.1220  149.9710 C   0  0  0  0  0  0  0  0  0  0  0  0
  162.4090  211.6340  148.4030 C   0  0  0  0  0  3  0  0  0  0  0  0
  158.0760  214.0450  148.7590 C   0  0  0  0  0  3  0  0  0  0  0  0
  159.4710  211.9870  152.3780 C   0  0  2  0  0  3  0  0  0  0  0  0
  162.4740  213.4190  146.8270 F   0  0  0  0  0  0  0  0  0  0  0  0
  157.1370  213.9000  152.4590 C   0  0  0  0  0  2  0  0  0  0  0  0
  156.6750  214.2310  146.7010 C   0  0  0  0  0  1  0  0  0  0  0  0
  160.6710  211.2880  151.7410 C   0  0  0  0  0  2  0  0  0  0  0  0
  159.6150  213.5120  152.2510 C   0  0  2  0  0  3  0  0  0  0  0  0
  161.1170  213.6460  148.7710 C   0  0  0  0  0  3  0  0  0  0  0  0
  155.6720  214.1700  148.9860 C   0  0  0  0  0  3  0  0  0  0  0  0
  161.0360  211.8380  150.3930 C   0  0  0  0  0  0  0  0  0  0  0  0
  161.9330  211.1080  149.6060 C   0  0  0  0  0  3  0  0  0  0  0  0
  158.5150  214.2660  153.0000 C   0  0  0  0  0  2  0  0  0  0  0  0
  157.0660  214.0120  150.9650 C   0  0  0  0  0  0  0  0  0  0  0  0
  155.8020  214.1020  150.3740 C   0  0  0  0  0  3  0  0  0  0  0  0
  160.2970  209.4790  153.4530 O   0  0  0  0  0  0  0  0  0  0  0  0
  159.8160  210.3270  154.2540 C   0  0  0  0  0  0  0  0  0  0  0  0
  159.3770  211.6000  153.7790 N   0  0  0  0  0  2  0  0  0  0  0  0
  162.0530  210.3260  157.2320 N   0  0  0  0  0  0  0  0  0  0  0  0
  159.9520  211.1450  156.5360 O   0  0  0  0  0  0  0  0  0  0  0  0
  160.3720  207.7250  155.2760 O   0  0  0  0  0  1  0  0  0  0  0  0
  163.4550  210.7030  157.2610 C   0  0  0  0  0  1  0  0  0  0  0  0
  161.3400  211.4080  156.5580 C   0  0  0  0  0  2  0  0  0  0  0  0
  160.4910  208.7760  156.1870 C   0  0  2  0  0  3  0  0  0  0  0  0
  159.7040  210.0140  155.7210 C   0  0  2  0  0  3  0  0  0  0  0  0
  161.9560  209.1410  156.3870 C   0  0  0  0  0  2  0  0  0  0  0  0
  1  6  2  0  0  0  0
  1 14  1  0  0  0  0
  2  5  1  6  0  0  0
  2 13  1  0  0  0  0
  3  2  1  0  0  0  0
  3 19  1  0  0  0  0
  4  7  1  0  0  0  0
  4 15  2  0  0  0  0
  5 16  1  0  0  0  0
  6 17  1  0  0  0  0
  7  3  2  0  0  0  0
  8 23  1  1  0  0  0
  9  1  1  0  0  0  0
 10 18  1  0  0  0  0
 11  4  1  0  0  0  0
 12  8  1  0  0  0  0
 13  8  1  0  0  0  0
 13 18  1  1  0  0  0
 14  5  2  0  0  0  0
 15 20  1  0  0  0  0
 16 12  1  0  0  0  0
 17 16  2  0  0  0  0
 19 10  1  0  0  0  0
 20 19  2  0  0  0  0
 21 22  2  0  0  0  0
 23 22  1  0  0  0  0
 24 27  1  0  0  0  0
 25 28  1  0  0  0  0
 28 24  1  0  0  0  0
 29 26  1  6  0  0  0
 29 31  1  0  0  0  0
 30 22  1  6  0  0  0
 30 29  1  0  0  0  0
 30 25  1  0  0  0  0
 31 24  1  0  0  0  0
M  END
>  <MODEL>
8

>  <REMARK>
 VINA RESULT:      -5.1      5.999      9.088
  Name = 
  2 active torsions:
  status: ('A' for Active; 'I' for Inactive)
    1  A    between atoms: C_5  and  C_30
    2  A    between atoms: C_10  and  N_16
                            x       y       z     vdW  Elec       q    Type
                         _______ _______ _______ _____ _____    ______ ____

>  <TORSDO>
F 2

$$$$
=
 OpenBabel11122413293D

 31 35  0  0  1  0  0  0  0  0999 V2000
  161.7960  202.8400  151.7900 C   0  0  0  0  0  0  0  0  0  0  0  0
  162.3980  206.3090  150.3420 C   0  0  2  0  0  3  0  0  0  0  0  0
  161.8360  206.2840  148.9250 C   0  0  0  0  0  0  0  0  0  0  0  0
  161.2060  205.0160  146.9420 C   0  0  0  0  0  0  0  0  0  0  0  0
  161.8570  205.2020  151.2220 C   0  0  0  0  0  0  0  0  0  0  0  0
  160.8280  203.0940  152.7620 C   0  0  0  0  0  3  0  0  0  0  0  0
  161.6420  205.0580  148.2680 C   0  0  0  0  0  3  0  0  0  0  0  0
  160.8200  207.8910  151.5210 C   0  0  2  0  0  3  0  0  0  0  0  0
  162.2360  201.5760  151.5850 F   0  0  0  0  0  0  0  0  0  0  0  0
  161.8090  208.8330  148.8280 C   0  0  0  0  0  2  0  0  0  0  0  0
  160.9910  203.7070  146.2730 C   0  0  0  0  0  1  0  0  0  0  0  0
  160.4750  206.8520  152.5870 C   0  0  0  0  0  2  0  0  0  0  0  0
  162.2590  207.6830  151.0210 C   0  0  2  0  0  3  0  0  0  0  0  0
  162.3100  203.8900  151.0260 C   0  0  0  0  0  3  0  0  0  0  0  0
  160.9760  206.2030  146.2460 C   0  0  0  0  0  3  0  0  0  0  0  0
  160.8820  205.4570  152.2140 C   0  0  0  0  0  0  0  0  0  0  0  0
  160.3810  204.3990  152.9800 C   0  0  0  0  0  3  0  0  0  0  0  0
  162.7070  208.7850  150.0600 C   0  0  0  0  0  2  0  0  0  0  0  0
  161.6370  207.4830  148.1970 C   0  0  0  0  0  0  0  0  0  0  0  0
  161.1910  207.4310  146.8730 C   0  0  0  0  0  3  0  0  0  0  0  0
  161.5070  208.6470  154.1830 O   0  0  0  0  0  0  0  0  0  0  0  0
  161.0350  209.5400  153.4270 C   0  0  0  0  0  0  0  0  0  0  0  0
  160.6660  209.2260  152.0830 N   0  0  0  0  0  2  0  0  0  0  0  0
  158.2380  211.7210  154.5650 N   0  0  0  0  0  0  0  0  0  0  0  0
  160.3790  211.0010  155.2520 O   0  0  0  0  0  0  0  0  0  0  0  0
  160.4560  211.6910  151.6500 O   0  0  0  0  0  1  0  0  0  0  0  0
  156.8390  211.3500  154.6680 C   0  0  0  0  0  1  0  0  0  0  0  0
  159.0010  210.6860  155.2570 C   0  0  0  0  0  2  0  0  0  0  0  0
  160.0820  211.8830  152.9800 C   0  0  2  0  0  3  0  0  0  0  0  0
  160.8630  210.9500  153.9230 C   0  0  2  0  0  3  0  0  0  0  0  0
  158.5860  211.6520  153.1500 C   0  0  0  0  0  2  0  0  0  0  0  0
  1  6  1  0  0  0  0
  2  3  1  6  0  0  0
  2 13  1  0  0  0  0
  2  5  1  0  0  0  0
  4  7  2  0  0  0  0
  5 16  2  0  0  0  0
  6 17  2  0  0  0  0
  7  3  1  0  0  0  0
  8 23  1  1  0  0  0
  8 12  1  0  0  0  0
  9  1  1  0  0  0  0
 10 18  1  0  0  0  0
 11  4  1  0  0  0  0
 13 18  1  6  0  0  0
 13  8  1  0  0  0  0
 14  5  1  0  0  0  0
 14  1  2  0  0  0  0
 15 20  2  0  0  0  0
 15  4  1  0  0  0  0
 16 12  1  0  0  0  0
 16 17  1  0  0  0  0
 19 10  1  0  0  0  0
 19  3  2  0  0  0  0
 20 19  1  0  0  0  0
 22 21  2  0  0  0  0
 23 22  1  0  0  0  0
 24 27  1  0  0  0  0
 24 28  1  0  0  0  0
 25 28  1  0  0  0  0
 29 26  1  6  0  0  0
 29 31  1  0  0  0  0
 29 30  1  0  0  0  0
 30 22  1  6  0  0  0
 30 25  1  0  0  0  0
 31 24  1  0  0  0  0
M  END
>  <MODEL>
9

>  <REMARK>
 VINA RESULT:      -4.8      3.382      5.423
  Name = 
  2 active torsions:
  status: ('A' for Active; 'I' for Inactive)
    1  A    between atoms: C_5  and  C_30
    2  A    between atoms: C_10  and  N_16
                            x       y       z     vdW  Elec       q    Type
                         _______ _______ _______ _____ _____    ______ ____

>  <TORSDO>
F 2

$$$$
