=
 OpenBabel11122413483D

 37 42  0  0  1  0  0  0  0  0999 V2000
  161.4450  206.0170  149.3440 C   0  0  0  0  0  0  0  0  0  0  0  0
  161.3740  207.4440  153.2370 C   0  0  0  0  0  0  0  0  0  0  0  0
  159.8790  210.4040  153.8290 C   0  0  0  0  0  2  0  0  0  0  0  0
  161.3220  205.4830  151.8340 C   0  0  0  0  0  0  0  0  0  0  0  0
  161.6480  208.7860  153.0180 C   0  0  0  0  0  0  0  0  0  0  0  0
  159.6230  212.5290  150.8200 C   0  0  0  0  0  0  0  0  0  0  0  0
  161.5760  206.8170  152.0530 C   0  0  0  0  0  0  0  0  0  0  0  0
  161.3180  209.9050  153.9750 C   0  0  2  0  0  3  0  0  0  0  0  0
  160.8700  204.7240  152.9300 C   0  0  0  0  0  3  0  0  0  0  0  0
  160.4030  213.4570  150.0580 N   0  0  0  0  0  2  0  0  0  0  0  0
  161.9170  207.7380  151.1230 C   0  0  0  0  0  0  0  0  0  0  0  0
  159.9730  206.2860  149.0760 C   0  0  0  0  0  1  0  0  0  0  0  0
  160.6710  207.4200  155.6550 C   0  0  0  0  0  2  0  0  0  0  0  0
  160.6620  205.3550  154.1870 C   0  0  0  0  0  3  0  0  0  0  0  0
  162.1530  207.3580  149.6900 C   0  0  0  0  0  2  0  0  0  0  0  0
  160.2710  211.5510  151.6450 N   0  0  0  0  0  0  0  0  0  0  0  0
  159.4570  210.5660  152.3630 C   0  0  0  0  0  2  0  0  0  0  0  0
  160.9110  206.7380  154.3490 C   0  0  0  0  0  0  0  0  0  0  0  0
  161.9520  208.9660  151.6930 N   0  0  0  0  0  0  0  0  0  0  0  0
  161.5730  204.9320  150.4540 C   0  0  0  0  0  2  0  0  0  0  0  0
  161.7220  209.7340  155.4520 C   0  0  1  0  0  3  0  0  0  0  0  0
  162.0590  205.4720  148.0720 C   0  0  0  0  0  1  0  0  0  0  0  0
  161.7350  211.4740  151.6450 C   0  0  0  0  0  2  0  0  0  0  0  0
  158.3630  212.5800  150.7700 O   0  0  0  0  0  0  0  0  0  0  0  0
  162.2480  210.2050  150.9610 C   0  0  0  0  0  2  0  0  0  0  0  0
  161.8610  208.3060  155.9980 C   0  0  0  0  0  2  0  0  0  0  0  0
  163.1680  211.0480  157.0080 C   0  0  0  0  0  3  0  0  0  0  0  0
  162.9620  210.5130  155.7340 C   0  0  0  0  0  0  0  0  0  0  0  0
  163.8880  210.7160  154.7540 N   0  0  0  0  0  0  0  0  0  0  0  0
  166.0070  211.6270  153.8860 C   0  0  0  0  0  1  0  0  0  0  0  0
  165.2630  211.9790  156.2430 C   0  0  0  0  0  3  0  0  0  0  0  0
  165.0220  211.4300  154.9810 C   0  0  0  0  0  0  0  0  0  0  0  0
  164.3270  211.7850  157.2600 C   0  0  0  0  0  3  0  0  0  0  0  0
  158.3000  214.2740  149.1080 C   0  0  0  0  0  1  0  0  0  0  0  0
  159.8090  214.4530  149.1760 C   0  0  2  0  0  3  0  0  0  0  0  0
  161.6480  213.4620  147.7440 C   0  0  0  0  0  1  0  0  0  0  0  0
  160.4330  214.3780  147.7850 C   0  0  0  0  0  2  0  0  0  0  0  0
  1 15  1  0  0  0  0
  1 20  1  0  0  0  0
  2 18  1  0  0  0  0
  4  7  1  0  0  0  0
  4  9  2  0  0  0  0
  5  2  2  0  0  0  0
  5  8  1  0  0  0  0
  6 16  1  0  0  0  0
  7  2  1  0  0  0  0
  8  3  1  1  0  0  0
  8 21  1  0  0  0  0
  9 14  1  0  0  0  0
 10  6  1  0  0  0  0
 11 19  1  0  0  0  0
 11  7  2  0  0  0  0
 12  1  1  0  0  0  0
 13 26  1  0  0  0  0
 14 18  2  0  0  0  0
 15 11  1  0  0  0  0
 16 17  1  0  0  0  0
 17  3  1  0  0  0  0
 18 13  1  0  0  0  0
 19  5  1  0  0  0  0
 20  4  1  0  0  0  0
 21 28  1  6  0  0  0
 21 26  1  0  0  0  0
 22  1  1  0  0  0  0
 23 16  1  0  0  0  0
 24  6  2  0  0  0  0
 25 23  1  0  0  0  0
 25 19  1  0  0  0  0
 27 33  1  0  0  0  0
 28 27  2  0  0  0  0
 29 32  2  0  0  0  0
 29 28  1  0  0  0  0
 30 32  1  0  0  0  0
 31 33  2  0  0  0  0
 32 31  1  0  0  0  0
 35 34  1  6  0  0  0
 35 10  1  0  0  0  0
 36 37  1  0  0  0  0
 37 35  1  0  0  0  0
M  END
>  <MODEL>
1

>  <REMARK>
 VINA RESULT:      -3.0      0.000      0.000
  Name = 
  3 active torsions:
  status: ('A' for Active; 'I' for Inactive)
    1  A    between atoms: C_4  and  N_12
    2  A    between atoms: C_4  and  C_37
    3  A    between atoms: C_23  and  C_30
                            x       y       z     vdW  Elec       q    Type
                         _______ _______ _______ _____ _____    ______ ____

>  <TORSDO>
F 3

$$$$
=
 OpenBabel11122413483D

 37 42  0  0  1  0  0  0  0  0999 V2000
  162.3310  208.2140  140.3770 C   0  0  0  0  0  0  0  0  0  0  0  0
  160.4280  211.7450  139.3220 C   0  0  0  0  0  0  0  0  0  0  0  0
  160.8850  214.4530  141.2740 C   0  0  0  0  0  2  0  0  0  0  0  0
  161.4770  209.7300  138.5120 C   0  0  0  0  0  0  0  0  0  0  0  0
  160.0080  212.1870  140.5680 C   0  0  0  0  0  0  0  0  0  0  0  0
  161.9700  213.6080  144.7000 C   0  0  0  0  0  0  0  0  0  0  0  0
  160.8870  210.4840  139.5010 C   0  0  0  0  0  0  0  0  0  0  0  0
  159.6590  213.6140  140.9100 C   0  0  2  0  0  3  0  0  0  0  0  0
  161.5580  210.3010  137.2280 C   0  0  0  0  0  3  0  0  0  0  0  0
  161.4220  213.2080  145.9610 N   0  0  0  0  0  2  0  0  0  0  0  0
  160.7990  210.1680  140.8130 C   0  0  0  0  0  0  0  0  0  0  0  0
  163.6850  208.8590  140.6190 C   0  0  0  0  0  1  0  0  0  0  0  0
  160.0120  213.7560  137.8650 C   0  0  0  0  0  2  0  0  0  0  0  0
  161.0720  211.6200  137.0110 C   0  0  0  0  0  3  0  0  0  0  0  0
  161.2850  208.8470  141.3390 C   0  0  0  0  0  2  0  0  0  0  0  0
  161.2450  213.3560  143.4880 N   0  0  0  0  0  0  0  0  0  0  0  0
  161.8530  213.7100  142.2030 C   0  0  0  0  0  2  0  0  0  0  0  0
  160.5020  212.3610  138.0720 C   0  0  0  0  0  0  0  0  0  0  0  0
  160.2730  211.2120  141.4960 N   0  0  0  0  0  0  0  0  0  0  0  0
  161.9620  208.3480  138.8690 C   0  0  0  0  0  2  0  0  0  0  0  0
  158.7030  214.3690  139.9650 C   0  0  1  0  0  3  0  0  0  0  0  0
  162.4480  206.7420  140.7090 C   0  0  0  0  0  1  0  0  0  0  0  0
  159.9730  212.6300  143.5550 C   0  0  0  0  0  2  0  0  0  0  0  0
  163.0900  214.1880  144.6580 O   0  0  0  0  0  0  0  0  0  0  0  0
  160.0750  211.2270  142.9520 C   0  0  0  0  0  2  0  0  0  0  0  0
  158.6370  213.9180  138.5000 C   0  0  0  0  0  2  0  0  0  0  0  0
  157.1740  214.4170  141.9400 C   0  0  0  0  0  3  0  0  0  0  0  0
  157.3320  214.4060  140.5520 C   0  0  0  0  0  0  0  0  0  0  0  0
  156.2360  214.4160  139.7440 N   0  0  0  0  0  0  0  0  0  0  0  0
  153.8050  214.4520  139.3350 C   0  0  0  0  0  1  0  0  0  0  0  0
  154.7770  214.4530  141.6340 C   0  0  0  0  0  3  0  0  0  0  0  0
  154.9750  214.4400  140.2510 C   0  0  0  0  0  0  0  0  0  0  0  0
  155.8880  214.4410  142.4810 C   0  0  0  0  0  3  0  0  0  0  0  0
  162.8980  212.1520  147.6040 C   0  0  0  0  0  1  0  0  0  0  0  0
  162.1210  213.4030  147.2250 C   0  0  2  0  0  3  0  0  0  0  0  0
  159.7450  213.2350  148.0850 C   0  0  0  0  0  1  0  0  0  0  0  0
  161.1390  213.7940  148.3260 C   0  0  0  0  0  2  0  0  0  0  0  0
  1 12  1  0  0  0  0
  1 22  1  0  0  0  0
  1 15  1  0  0  0  0
  2  7  1  0  0  0  0
  2  5  2  0  0  0  0
  3 17  1  0  0  0  0
  4 20  1  0  0  0  0
  4  7  1  0  0  0  0
  5  8  1  0  0  0  0
  5 19  1  0  0  0  0
  6 10  1  0  0  0  0
  7 11  2  0  0  0  0
  8  3  1  6  0  0  0
  9  4  2  0  0  0  0
 10 35  1  0  0  0  0
 11 15  1  0  0  0  0
 11 19  1  0  0  0  0
 13 18  1  0  0  0  0
 13 26  1  0  0  0  0
 14  9  1  0  0  0  0
 14 18  2  0  0  0  0
 16 23  1  0  0  0  0
 16  6  1  0  0  0  0
 17 16  1  0  0  0  0
 18  2  1  0  0  0  0
 19 25  1  0  0  0  0
 20  1  1  0  0  0  0
 21 28  1  1  0  0  0
 21  8  1  0  0  0  0
 24  6  2  0  0  0  0
 25 23  1  0  0  0  0
 26 21  1  0  0  0  0
 27 33  1  0  0  0  0
 28 27  2  0  0  0  0
 29 32  2  0  0  0  0
 29 28  1  0  0  0  0
 30 32  1  0  0  0  0
 31 33  2  0  0  0  0
 32 31  1  0  0  0  0
 35 34  1  1  0  0  0
 35 37  1  0  0  0  0
 36 37  1  0  0  0  0
M  END
>  <MODEL>
2

>  <REMARK>
 VINA RESULT:      -0.3      7.782     13.092
  Name = 
  3 active torsions:
  status: ('A' for Active; 'I' for Inactive)
    1  A    between atoms: C_4  and  N_12
    2  A    between atoms: C_4  and  C_37
    3  A    between atoms: C_23  and  C_30
                            x       y       z     vdW  Elec       q    Type
                         _______ _______ _______ _____ _____    ______ ____

>  <TORSDO>
F 3

$$$$
