=
 OpenBabel11122414233D

 34 41  0  0  1  0  0  0  0  0999 V2000
  161.0040  207.7230  154.1910 C   0  0  1  0  0  3  0  0  0  0  0  0
  162.5000  206.1800  152.7630 C   0  0  0  0  0  2  0  0  0  0  0  0
  159.6580  213.1960  155.9690 C   0  0  2  0  0  0  0  0  0  0  0  0
  159.5220  209.3520  155.3460 C   0  0  2  0  0  3  0  0  0  0  0  0
  158.8850  211.5390  154.2410 N   0  0  1  0  0  0  0  0  0  0  0  0
  160.6220  212.0310  156.0670 C   0  0  0  0  0  2  0  0  0  0  0  0
  160.2870  214.4390  156.0350 O   0  0  0  0  0  1  0  0  0  0  0  0
  158.0520  211.6920  157.2600 C   0  0  0  0  0  2  0  0  0  0  0  0
  162.0350  208.3860  152.0350 C   0  0  2  0  0  3  0  0  0  0  0  0
  161.6470  209.0500  148.9110 C   0  0  0  0  0  2  0  0  0  0  0  0
  159.3040  210.9970  152.9380 C   0  0  0  0  0  2  0  0  0  0  0  0
  157.4670  210.7680  156.2120 C   0  0  0  0  0  2  0  0  0  0  0  0
  160.9770  209.4620  151.7460 C   0  0  1  0  0  3  0  0  0  0  0  0
  163.0960  206.3120  151.3620 C   0  0  0  0  0  2  0  0  0  0  0  0
  158.4390  210.4050  155.0860 C   0  0  2  0  0  3  0  0  0  0  0  0
  158.3000  213.0700  156.6650 C   0  0  0  0  0  2  0  0  0  0  0  0
  161.8870  207.6690  149.5480 C   0  0  1  0  0  3  0  0  0  0  0  0
  159.9590  208.8220  153.9870 C   0  0  1  0  0  3  0  0  0  0  0  0
  159.9980  212.4020  154.7150 C   0  0  2  0  0  3  0  0  0  0  0  0
  160.4500  209.9780  153.0960 C   0  0  2  0  0  3  0  0  0  0  0  0
  159.4370  207.0500  156.0800 C   0  0  0  0  0  3  0  0  0  0  0  0
  162.3060  210.2140  149.6550 C   0  0  0  0  0  2  0  0  0  0  0  0
  159.0390  208.2750  156.1920 N   0  0  0  0  0  0  0  0  0  0  0  0
  161.5420  210.6270  150.9200 C   0  0  0  0  0  2  0  0  0  0  0  0
  162.7220  207.7080  150.8540 C   0  0  1  0  0  3  0  0  0  0  0  0
  160.3590  206.5760  154.9760 C   0  0  0  0  0  2  0  0  0  0  0  0
  161.4290  207.2440  152.8070 C   0  0  2  0  0  3  0  0  0  0  0  0
  160.5470  206.9560  149.7000 C   0  0  0  0  0  2  0  0  0  0  0  0
  160.6450  205.5150  149.2370 C   0  0  0  0  0  2  0  0  0  0  0  0
  161.1260  205.9500  145.6030 N   0  0  0  0  0  0  0  0  0  0  0  0
  162.0400  204.7300  147.3980 N   0  0  0  0  0  0  0  0  0  0  0  0
  161.0920  205.4790  147.8190 C   0  0  0  0  0  0  0  0  0  0  0  0
  162.1550  204.9610  145.9620 C   0  0  0  0  0  3  0  0  0  0  0  0
  160.5200  206.2100  146.8110 O   0  0  0  0  0  0  0  0  0  0  0  0
  1 26  1  1  0  0  0
  2 27  1  0  0  0  0
  3  7  1  1  0  0  0
  3  6  1  0  0  0  0
  3 16  1  0  0  0  0
  4 23  1  1  0  0  0
  5 11  1  6  0  0  0
  5 19  1  0  0  0  0
  5 15  1  0  0  0  0
  9 27  1  0  0  0  0
 10 17  1  0  0  0  0
 10 22  1  0  0  0  0
 11 20  1  0  0  0  0
 12  8  1  0  0  0  0
 13  9  1  0  0  0  0
 13 20  1  0  0  0  0
 14  2  1  0  0  0  0
 15  4  1  0  0  0  0
 15 12  1  0  0  0  0
 16  8  1  0  0  0  0
 17 28  1  0  0  0  0
 17 25  1  0  0  0  0
 18  1  1  0  0  0  0
 18  4  1  0  0  0  0
 19  3  1  0  0  0  0
 19  6  1  0  0  0  0
 20 18  1  0  0  0  0
 21 23  2  0  0  0  0
 22 24  1  0  0  0  0
 24 13  1  0  0  0  0
 25 14  1  0  0  0  0
 25  9  1  0  0  0  0
 26 21  1  0  0  0  0
 27  1  1  0  0  0  0
 29 28  1  0  0  0  0
 30 33  2  0  0  0  0
 30 34  1  0  0  0  0
 31 32  2  0  0  0  0
 32 29  1  0  0  0  0
 33 31  1  0  0  0  0
 34 32  1  0  0  0  0
M  END
>  <MODEL>
1

>  <REMARK>
 VINA RESULT:      -6.4      0.000      0.000
  Name = 
  3 active torsions:
  status: ('A' for Active; 'I' for Inactive)
    1  A    between atoms: C_17  and  C_28
    2  A    between atoms: C_28  and  C_29
    3  A    between atoms: C_29  and  C_32
                            x       y       z     vdW  Elec       q    Type
                         _______ _______ _______ _____ _____    ______ ____

>  <TORSDO>
F 3

$$$$
=
 OpenBabel11122414233D

 34 41  0  0  1  0  0  0  0  0999 V2000
  160.2860  210.7520  151.8540 C   0  0  1  0  0  3  0  0  0  0  0  0
  159.5220  209.7420  154.1010 C   0  0  0  0  0  2  0  0  0  0  0  0
  158.9850  213.9990  147.0900 C   0  0  2  0  0  0  0  0  0  0  0  0
  160.9340  211.9600  149.7790 C   0  0  2  0  0  3  0  0  0  0  0  0
  160.0970  214.3060  149.3260 N   0  0  1  0  0  0  0  0  0  0  0  0
  158.8060  212.6800  147.8150 C   0  0  0  0  0  2  0  0  0  0  0  0
  157.8410  214.4160  146.4120 O   0  0  0  0  0  1  0  0  0  0  0  0
  161.3740  213.1990  146.6840 C   0  0  0  0  0  2  0  0  0  0  0  0
  158.6160  211.8000  153.3570 C   0  0  2  0  0  3  0  0  0  0  0  0
  157.9090  214.1450  155.4430 C   0  0  0  0  0  2  0  0  0  0  0  0
  159.7410  214.4480  150.7470 C   0  0  0  0  0  2  0  0  0  0  0  0
  162.1030  213.4990  147.9780 C   0  0  0  0  0  2  0  0  0  0  0  0
  158.8780  213.2170  152.8250 C   0  0  1  0  0  3  0  0  0  0  0  0
  158.6520  210.2720  155.2400 C   0  0  0  0  0  2  0  0  0  0  0  0
  161.2340  213.3590  149.2320 C   0  0  2  0  0  3  0  0  0  0  0  0
  160.3300  214.2710  146.4090 C   0  0  0  0  0  2  0  0  0  0  0  0
  158.5600  212.7850  155.7560 C   0  0  1  0  0  3  0  0  0  0  0  0
  160.5440  212.1300  151.2400 C   0  0  1  0  0  3  0  0  0  0  0  0
  158.8350  213.9950  148.6050 C   0  0  2  0  0  3  0  0  0  0  0  0
  159.3480  213.0910  151.3660 C   0  0  2  0  0  3  0  0  0  0  0  0
  162.3470  210.1320  150.4940 C   0  0  0  0  0  3  0  0  0  0  0  0
  156.9290  214.1250  154.2670 C   0  0  0  0  0  2  0  0  0  0  0  0
  162.0730  211.0690  149.6450 N   0  0  0  0  0  0  0  0  0  0  0  0
  157.6290  214.1080  152.9030 C   0  0  0  0  0  2  0  0  0  0  0  0
  158.1340  211.6430  154.7970 C   0  0  1  0  0  3  0  0  0  0  0  0
  161.5830  209.9370  151.7870 C   0  0  0  0  0  2  0  0  0  0  0  0
  159.8750  210.9750  153.3040 C   0  0  2  0  0  3  0  0  0  0  0  0
  160.0700  212.9710  155.8530 C   0  0  0  0  0  2  0  0  0  0  0  0
  160.5600  212.6880  157.2600 C   0  0  0  0  0  2  0  0  0  0  0  0
  163.4660  210.4170  157.1210 N   0  0  0  0  0  0  0  0  0  0  0  0
  161.1170  210.3140  157.2600 N   0  0  0  0  0  0  0  0  0  0  0  0
  161.5000  211.5350  157.2360 C   0  0  0  0  0  0  0  0  0  0  0  0
  162.3220  209.4940  157.1970 C   0  0  0  0  0  3  0  0  0  0  0  0
  162.8620  211.6520  157.1500 O   0  0  0  0  0  0  0  0  0  0  0  0
  1 26  1  1  0  0  0
  1 27  1  0  0  0  0
  2 14  1  0  0  0  0
  3  7  1  6  0  0  0
  3  6  1  0  0  0  0
  3 19  1  0  0  0  0
  4 23  1  1  0  0  0
  4 18  1  0  0  0  0
  5 11  1  1  0  0  0
  6 19  1  0  0  0  0
  8 12  1  0  0  0  0
  9 25  1  0  0  0  0
 10 17  1  0  0  0  0
 11 20  1  0  0  0  0
 12 15  1  0  0  0  0
 13 24  1  0  0  0  0
 13  9  1  0  0  0  0
 15  5  1  0  0  0  0
 15  4  1  0  0  0  0
 16  8  1  0  0  0  0
 16  3  1  0  0  0  0
 17 28  1  0  0  0  0
 18 20  1  0  0  0  0
 18  1  1  0  0  0  0
 19  5  1  0  0  0  0
 20 13  1  0  0  0  0
 21 26  1  0  0  0  0
 22 10  1  0  0  0  0
 23 21  2  0  0  0  0
 24 22  1  0  0  0  0
 25 14  1  0  0  0  0
 25 17  1  0  0  0  0
 27  9  1  0  0  0  0
 27  2  1  0  0  0  0
 28 29  1  0  0  0  0
 30 34  1  0  0  0  0
 30 33  2  0  0  0  0
 32 29  1  0  0  0  0
 32 31  2  0  0  0  0
 33 31  1  0  0  0  0
 34 32  1  0  0  0  0
M  END
>  <MODEL>
2

>  <REMARK>
 VINA RESULT:      -4.1      3.548      8.187
  Name = 
  3 active torsions:
  status: ('A' for Active; 'I' for Inactive)
    1  A    between atoms: C_17  and  C_28
    2  A    between atoms: C_28  and  C_29
    3  A    between atoms: C_29  and  C_32
                            x       y       z     vdW  Elec       q    Type
                         _______ _______ _______ _____ _____    ______ ____

>  <TORSDO>
F 3

$$$$
=
 OpenBabel11122414233D

 34 41  0  0  1  0  0  0  0  0999 V2000
  161.8150  207.5140  150.0010 C   0  0  1  0  0  3  0  0  0  0  0  0
  162.3530  209.9600  150.6190 C   0  0  0  0  0  2  0  0  0  0  0  0
  161.9790  201.7930  151.4760 C   0  0  2  0  0  0  0  0  0  0  0  0
  161.1780  205.1370  149.6420 C   0  0  2  0  0  3  0  0  0  0  0  0
  160.3510  203.7100  151.5630 N   0  0  1  0  0  0  0  0  0  0  0  0
  162.7580  203.0070  151.0100 C   0  0  0  0  0  2  0  0  0  0  0  0
  162.6990  200.9780  152.3480 O   0  0  0  0  0  1  0  0  0  0  0  0
  160.9630  201.8210  149.1360 C   0  0  0  0  0  2  0  0  0  0  0  0
  161.8480  208.3910  152.3200 C   0  0  2  0  0  3  0  0  0  0  0  0
  160.1890  209.2620  154.9350 C   0  0  0  0  0  2  0  0  0  0  0  0
  160.0900  204.9270  152.3490 C   0  0  0  0  0  2  0  0  0  0  0  0
  159.8810  202.8790  149.2010 C   0  0  0  0  0  2  0  0  0  0  0  0
  160.8910  207.3110  152.8480 C   0  0  1  0  0  3  0  0  0  0  0  0
  162.2770  210.7450  151.9280 C   0  0  0  0  0  2  0  0  0  0  0  0
  160.2100  204.0530  150.1280 C   0  0  2  0  0  3  0  0  0  0  0  0
  161.0650  201.0920  150.4680 C   0  0  0  0  0  2  0  0  0  0  0  0
  160.5390  210.1390  153.7190 C   0  0  1  0  0  3  0  0  0  0  0  0
  160.9100  206.3780  150.4830 C   0  0  1  0  0  3  0  0  0  0  0  0
  161.6430  203.1620  152.0530 C   0  0  2  0  0  3  0  0  0  0  0  0
  161.0740  206.0560  151.9790 C   0  0  2  0  0  3  0  0  0  0  0  0
  161.1870  206.5940  147.7120 C   0  0  0  0  0  3  0  0  0  0  0  0
  161.2270  208.1860  155.2620 C   0  0  0  0  0  2  0  0  0  0  0  0
  161.0100  205.4210  148.2280 N   0  0  0  0  0  0  0  0  0  0  0  0
  161.1510  206.9750  154.3240 C   0  0  0  0  0  2  0  0  0  0  0  0
  161.8660  209.7490  153.0160 C   0  0  1  0  0  3  0  0  0  0  0  0
  161.4680  207.8300  148.5420 C   0  0  0  0  0  2  0  0  0  0  0  0
  161.5310  208.7220  150.8860 C   0  0  2  0  0  3  0  0  0  0  0  0
  159.3390  210.1810  152.7790 C   0  0  0  0  0  2  0  0  0  0  0  0
  158.8390  211.6030  152.6050 C   0  0  0  0  0  2  0  0  0  0  0  0
  156.5540  211.9480  155.4820 N   0  0  0  0  0  0  0  0  0  0  0  0
  158.3200  213.1130  154.4460 N   0  0  0  0  0  0  0  0  0  0  0  0
  158.0930  212.0190  153.8220 C   0  0  0  0  0  0  0  0  0  0  0  0
  157.3750  213.1680  155.5570 C   0  0  0  0  0  3  0  0  0  0  0  0
  157.0690  211.3030  154.3820 O   0  0  0  0  0  0  0  0  0  0  0  0
  1 26  1  6  0  0  0
  1 18  1  0  0  0  0
  1 27  1  0  0  0  0
  2 27  1  0  0  0  0
  2 14  1  0  0  0  0
  3 19  1  0  0  0  0
  3  7  1  1  0  0  0
  4 23  1  6  0  0  0
  4 15  1  0  0  0  0
  4 18  1  0  0  0  0
  5 19  1  0  0  0  0
  5 11  1  1  0  0  0
  6  3  1  0  0  0  0
  6 19  1  0  0  0  0
  8 12  1  0  0  0  0
  8 16  1  0  0  0  0
  9 13  1  0  0  0  0
  9 25  1  0  0  0  0
 10 22  1  0  0  0  0
 12 15  1  0  0  0  0
 13 24  1  0  0  0  0
 14 25  1  0  0  0  0
 15  5  1  0  0  0  0
 16  3  1  0  0  0  0
 17 10  1  0  0  0  0
 18 20  1  0  0  0  0
 20 11  1  0  0  0  0
 20 13  1  0  0  0  0
 21 23  2  0  0  0  0
 21 26  1  0  0  0  0
 24 22  1  0  0  0  0
 25 17  1  0  0  0  0
 27  9  1  0  0  0  0
 28 17  1  0  0  0  0
 29 28  1  0  0  0  0
 29 32  1  0  0  0  0
 30 33  2  0  0  0  0
 31 33  1  0  0  0  0
 32 34  1  0  0  0  0
 32 31  2  0  0  0  0
 34 30  1  0  0  0  0
M  END
>  <MODEL>
3

>  <REMARK>
 VINA RESULT:      -3.5      2.643      8.457
  Name = 
  3 active torsions:
  status: ('A' for Active; 'I' for Inactive)
    1  A    between atoms: C_17  and  C_28
    2  A    between atoms: C_28  and  C_29
    3  A    between atoms: C_29  and  C_32
                            x       y       z     vdW  Elec       q    Type
                         _______ _______ _______ _____ _____    ______ ____

>  <TORSDO>
F 3

$$$$
