=
 OpenBabel11122414233D

 34 41  0  0  1  0  0  0  0  0999 V2000
  161.7120  209.1190  150.5890 C   0  0  0  0  0  0  0  0  0  0  0  0
  160.8360  211.0490  151.9520 C   0  0  0  0  0  2  0  0  0  0  0  0
  160.3980  202.8050  149.7590 C   0  0  2  0  0  3  0  0  0  0  0  0
  161.8650  207.0690  149.3540 C   0  0  0  0  0  0  0  0  0  0  0  0
  160.8720  204.9550  150.2910 C   0  0  1  0  0  3  0  0  0  0  0  0
  161.7800  203.4430  147.9950 C   0  0  0  0  0  2  0  0  0  0  0  0
  161.6850  209.1560  153.1080 C   0  0  2  0  0  3  0  0  0  0  0  0
  160.1950  208.2110  155.7030 C   0  0  0  0  0  2  0  0  0  0  0  0
  160.6410  205.7150  151.6130 C   0  0  0  0  0  2  0  0  0  0  0  0
  161.8480  204.9670  147.9480 C   0  0  0  0  0  2  0  0  0  0  0  0
  161.0670  207.7380  153.0540 C   0  0  1  0  0  3  0  0  0  0  0  0
  160.3090  211.1270  153.2550 O   0  0  0  0  0  0  0  0  0  0  0  0
  161.9350  205.5650  149.3560 C   0  0  1  0  0  3  0  0  0  0  0  0
  160.4790  203.0500  148.3600 O   0  0  0  0  0  0  0  0  0  0  0  0
  160.1350  209.6530  155.2280 C   0  0  1  0  0  0  0  0  0  0  0  0
  161.7030  207.7260  150.5760 C   0  0  0  0  0  0  0  0  0  0  0  0
  161.2240  203.6260  150.5600 O   0  0  0  0  0  0  0  0  0  0  0  0
  161.5660  206.9210  151.8440 C   0  0  2  0  0  3  0  0  0  0  0  0
  161.9860  209.1530  148.2410 C   0  0  0  0  0  3  0  0  0  0  0  0
  161.4760  207.7070  155.4820 O   0  0  0  0  0  0  0  0  0  0  0  0
  162.0110  207.7940  148.2120 N   0  0  0  0  0  0  0  0  0  0  0  0
  161.3880  206.9240  154.3220 C   0  0  0  0  0  2  0  0  0  0  0  0
  160.9930  210.1650  154.0350 C   0  0  1  0  0  3  0  0  0  0  0  0
  161.8340  209.8080  149.4230 N   0  0  0  0  0  0  0  0  0  0  0  0
  161.5630  209.8070  151.8300 N   0  0  0  0  0  0  0  0  0  0  0  0
  158.8200  210.1560  155.2310 O   0  0  0  0  0  0  0  0  0  0  0  0
  159.6600  210.6030  156.2740 C   0  0  2  0  0  3  0  0  0  0  0  0
  159.0390  214.1810  156.5470 N   0  0  0  0  0  2  0  0  0  0  0  0
  160.7240  212.6200  157.2530 C   0  0  0  0  0  2  0  0  0  0  0  0
  160.0500  212.0560  156.0360 C   0  0  2  0  0  3  0  0  0  0  0  0
  160.3090  214.0710  157.2560 C   0  0  0  0  0  2  0  0  0  0  0  0
  158.8160  212.9110  155.8650 C   0  0  0  0  0  2  0  0  0  0  0  0
  160.8700  200.6110  148.9080 O   0  0  0  0  0  1  0  0  0  0  0  0
  160.6260  201.3340  150.0770 C   0  0  0  0  0  2  0  0  0  0  0  0
  1 25  1  0  0  0  0
  2 12  1  0  0  0  0
  3 34  1  6  0  0  0
  3 17  1  0  0  0  0
  4 13  1  0  0  0  0
  4 16  2  0  0  0  0
  5 17  1  0  0  0  0
  5  9  1  1  0  0  0
  6 14  1  0  0  0  0
  7 25  1  6  0  0  0
  7 23  1  0  0  0  0
 10  6  1  0  0  0  0
 11  7  1  0  0  0  0
 11 22  1  1  0  0  0
 13 10  1  6  0  0  0
 13  5  1  0  0  0  0
 14  3  1  0  0  0  0
 15 26  1  0  0  0  0
 15  8  1  1  0  0  0
 15 27  1  0  0  0  0
 16  1  1  0  0  0  0
 16 18  1  0  0  0  0
 18  9  1  6  0  0  0
 18 11  1  0  0  0  0
 19 24  1  0  0  0  0
 20  8  1  0  0  0  0
 21 19  2  0  0  0  0
 21  4  1  0  0  0  0
 22 20  1  0  0  0  0
 23 12  1  6  0  0  0
 23 15  1  0  0  0  0
 24  1  2  0  0  0  0
 25  2  1  0  0  0  0
 27 26  1  6  0  0  0
 28 31  1  0  0  0  0
 29 31  1  0  0  0  0
 30 32  1  1  0  0  0
 30 27  1  0  0  0  0
 30 29  1  0  0  0  0
 32 28  1  0  0  0  0
 33 34  1  0  0  0  0
M  END
>  <MODEL>
1

>  <REMARK>
 VINA RESULT:      -8.6      0.000      0.000
  Name = 
  2 active torsions:
  status: ('A' for Active; 'I' for Inactive)
    1  A    between atoms: C_3  and  C_7
    2  A    between atoms: C_29  and  C_32
                            x       y       z     vdW  Elec       q    Type
                         _______ _______ _______ _____ _____    ______ ____

>  <TORSDO>
F 2

$$$$
=
 OpenBabel11122414233D

 34 41  0  0  1  0  0  0  0  0999 V2000
  161.0470  206.8910  154.2600 C   0  0  0  0  0  0  0  0  0  0  0  0
  160.8360  204.6870  153.0590 C   0  0  0  0  0  2  0  0  0  0  0  0
  158.9270  212.9980  153.5480 C   0  0  2  0  0  3  0  0  0  0  0  0
  160.6030  209.0910  155.1060 C   0  0  0  0  0  0  0  0  0  0  0  0
  159.7520  210.8880  153.5640 C   0  0  1  0  0  3  0  0  0  0  0  0
  159.7410  212.8170  155.7250 C   0  0  0  0  0  2  0  0  0  0  0  0
  161.8150  206.5080  151.8920 C   0  0  2  0  0  3  0  0  0  0  0  0
  161.1300  206.8610  148.8500 C   0  0  0  0  0  2  0  0  0  0  0  0
  160.0230  209.9290  152.3870 C   0  0  0  0  0  2  0  0  0  0  0  0
  159.9400  211.3400  156.0550 C   0  0  0  0  0  2  0  0  0  0  0  0
  161.0760  207.8140  151.5120 C   0  0  1  0  0  3  0  0  0  0  0  0
  160.7550  204.3550  151.6930 O   0  0  0  0  0  0  0  0  0  0  0  0
  160.5220  210.5740  154.8630 C   0  0  1  0  0  3  0  0  0  0  0  0
  158.5880  212.9600  154.9300 O   0  0  0  0  0  0  0  0  0  0  0  0
  161.0650  205.5040  149.5310 C   0  0  1  0  0  0  0  0  0  0  0  0
  160.8980  208.2570  154.0250 C   0  0  0  0  0  0  0  0  0  0  0  0
  160.0380  212.2050  153.1820 O   0  0  0  0  0  0  0  0  0  0  0  0
  161.0870  208.8520  152.6530 C   0  0  2  0  0  3  0  0  0  0  0  0
  160.5720  207.2180  156.5520 C   0  0  0  0  0  3  0  0  0  0  0  0
  162.2210  207.5730  149.3460 O   0  0  0  0  0  0  0  0  0  0  0  0
  160.4540  208.5570  156.3490 N   0  0  0  0  0  0  0  0  0  0  0  0
  161.6970  208.4850  150.2730 C   0  0  0  0  0  2  0  0  0  0  0  0
  161.5510  205.2910  150.9930 C   0  0  1  0  0  3  0  0  0  0  0  0
  160.8640  206.3940  155.5120 N   0  0  0  0  0  0  0  0  0  0  0  0
  161.3630  206.0270  153.1700 N   0  0  0  0  0  0  0  0  0  0  0  0
  159.8730  204.8180  149.2290 O   0  0  0  0  0  0  0  0  0  0  0  0
  161.0380  204.3610  148.5750 C   0  0  2  0  0  3  0  0  0  0  0  0
  160.3670  200.9370  149.6180 N   0  0  0  0  0  2  0  0  0  0  0  0
  161.8230  202.0610  148.0720 C   0  0  0  0  0  2  0  0  0  0  0  0
  161.4740  203.0270  149.1660 C   0  0  2  0  0  3  0  0  0  0  0  0
  161.4200  200.7190  148.6330 C   0  0  0  0  0  2  0  0  0  0  0  0
  160.3210  202.3700  149.8890 C   0  0  0  0  0  2  0  0  0  0  0  0
  159.3580  214.4530  151.6890 O   0  0  0  0  0  1  0  0  0  0  0  0
  159.0980  214.4290  153.0600 C   0  0  0  0  0  2  0  0  0  0  0  0
  1 24  1  0  0  0  0
  2 25  1  0  0  0  0
  3 34  1  1  0  0  0
  3 14  1  0  0  0  0
  4 21  2  0  0  0  0
  5  9  1  6  0  0  0
  5 13  1  0  0  0  0
  6 10  1  0  0  0  0
  7 25  1  1  0  0  0
  8 20  1  0  0  0  0
 11 22  1  6  0  0  0
 11  7  1  0  0  0  0
 11 18  1  0  0  0  0
 12  2  1  0  0  0  0
 13  4  1  0  0  0  0
 13 10  1  1  0  0  0
 14  6  1  0  0  0  0
 15  8  1  6  0  0  0
 15 23  1  0  0  0  0
 16  1  2  0  0  0  0
 16  4  1  0  0  0  0
 17  3  1  0  0  0  0
 17  5  1  0  0  0  0
 18  9  1  6  0  0  0
 18 16  1  0  0  0  0
 20 22  1  0  0  0  0
 21 19  1  0  0  0  0
 23 12  1  1  0  0  0
 23  7  1  0  0  0  0
 24 19  2  0  0  0  0
 25  1  1  0  0  0  0
 26 15  1  0  0  0  0
 27 30  1  0  0  0  0
 27 26  1  1  0  0  0
 27 15  1  0  0  0  0
 28 32  1  0  0  0  0
 29 31  1  0  0  0  0
 30 29  1  6  0  0  0
 30 32  1  0  0  0  0
 31 28  1  0  0  0  0
 33 34  1  0  0  0  0
M  END
>  <MODEL>
2

>  <REMARK>
 VINA RESULT:      -7.1      2.470      9.099
  Name = 
  2 active torsions:
  status: ('A' for Active; 'I' for Inactive)
    1  A    between atoms: C_3  and  C_7
    2  A    between atoms: C_29  and  C_32
                            x       y       z     vdW  Elec       q    Type
                         _______ _______ _______ _____ _____    ______ ____

>  <TORSDO>
F 2

$$$$
=
 OpenBabel11122414233D

 34 41  0  0  1  0  0  0  0  0999 V2000
  161.3680  206.8320  153.3150 C   0  0  0  0  0  0  0  0  0  0  0  0
  161.4080  205.2960  151.3190 C   0  0  0  0  0  2  0  0  0  0  0  0
  158.6620  212.5040  154.9880 C   0  0  2  0  0  3  0  0  0  0  0  0
  160.6860  208.4540  154.9450 C   0  0  0  0  0  0  0  0  0  0  0  0
  159.6940  210.6460  154.2060 C   0  0  1  0  0  3  0  0  0  0  0  0
  159.4390  211.5220  156.9540 C   0  0  0  0  0  2  0  0  0  0  0  0
  162.2270  207.5090  151.0450 C   0  0  2  0  0  3  0  0  0  0  0  0
  161.5810  209.0090  148.3660 C   0  0  0  0  0  2  0  0  0  0  0  0
  160.0880  210.2740  152.7620 C   0  0  0  0  0  2  0  0  0  0  0  0
  159.7770  210.0600  156.6740 C   0  0  0  0  0  2  0  0  0  0  0  0
  161.3690  208.7900  151.1770 C   0  0  1  0  0  3  0  0  0  0  0  0
  161.3930  205.5420  149.9320 O   0  0  0  0  0  0  0  0  0  0  0  0
  160.4610  209.8960  155.3130 C   0  0  1  0  0  3  0  0  0  0  0  0
  158.2960  211.8810  156.2140 O   0  0  0  0  0  0  0  0  0  0  0  0
  161.6370  207.4920  148.4380 C   0  0  1  0  0  0  0  0  0  0  0  0
  161.0880  208.1580  153.6410 C   0  0  0  0  0  0  0  0  0  0  0  0
  159.8560  212.0230  154.4040 O   0  0  0  0  0  0  0  0  0  0  0  0
  161.2490  209.2730  152.6380 C   0  0  2  0  0  3  0  0  0  0  0  0
  160.8080  206.1600  155.5110 C   0  0  0  0  0  3  0  0  0  0  0  0
  162.5830  209.5460  149.1730 O   0  0  0  0  0  0  0  0  0  0  0  0
  160.5610  207.4510  155.8570 N   0  0  0  0  0  0  0  0  0  0  0  0
  161.9480  209.9560  150.3540 C   0  0  0  0  0  2  0  0  0  0  0  0
  162.1080  206.7440  149.7180 C   0  0  1  0  0  3  0  0  0  0  0  0
  161.2060  205.8560  154.2470 N   0  0  0  0  0  0  0  0  0  0  0  0
  161.7950  206.5140  151.9910 N   0  0  0  0  0  0  0  0  0  0  0  0
  160.5280  206.8920  147.8120 O   0  0  0  0  0  0  0  0  0  0  0  0
  161.7480  206.8380  147.1030 C   0  0  2  0  0  3  0  0  0  0  0  0
  161.5730  203.3020  146.2500 N   0  0  0  0  0  2  0  0  0  0  0  0
  163.0810  205.1370  145.8840 C   0  0  0  0  0  2  0  0  0  0  0  0
  162.3020  205.4200  147.1350 C   0  0  2  0  0  3  0  0  0  0  0  0
  162.8450  203.6670  145.6350 C   0  0  0  0  0  2  0  0  0  0  0  0
  161.1740  204.4140  147.1060 C   0  0  0  0  0  2  0  0  0  0  0  0
  157.7330  214.4530  156.0360 O   0  0  0  0  0  1  0  0  0  0  0  0
  158.7000  214.0190  155.1280 C   0  0  0  0  0  2  0  0  0  0  0  0
  1 16  2  0  0  0  0
  1 24  1  0  0  0  0
  2 25  1  0  0  0  0
  3 34  1  1  0  0  0
  3 14  1  0  0  0  0
  4 13  1  0  0  0  0
  4 21  2  0  0  0  0
  5  9  1  6  0  0  0
  5 17  1  0  0  0  0
  5 13  1  0  0  0  0
  7 11  1  0  0  0  0
  7 25  1  1  0  0  0
  8 20  1  0  0  0  0
 10  6  1  0  0  0  0
 11 22  1  6  0  0  0
 11 18  1  0  0  0  0
 12  2  1  0  0  0  0
 13 10  1  1  0  0  0
 14  6  1  0  0  0  0
 15  8  1  1  0  0  0
 15 23  1  0  0  0  0
 16  4  1  0  0  0  0
 17  3  1  0  0  0  0
 18  9  1  6  0  0  0
 18 16  1  0  0  0  0
 19 21  1  0  0  0  0
 20 22  1  0  0  0  0
 23 12  1  1  0  0  0
 23  7  1  0  0  0  0
 24 19  2  0  0  0  0
 25  1  1  0  0  0  0
 26 15  1  0  0  0  0
 27 30  1  0  0  0  0
 27 26  1  1  0  0  0
 27 15  1  0  0  0  0
 28 32  1  0  0  0  0
 30 29  1  6  0  0  0
 31 29  1  0  0  0  0
 31 28  1  0  0  0  0
 32 30  1  0  0  0  0
 34 33  1  0  0  0  0
M  END
>  <MODEL>
3

>  <REMARK>
 VINA RESULT:      -6.9      2.532      9.150
  Name = 
  2 active torsions:
  status: ('A' for Active; 'I' for Inactive)
    1  A    between atoms: C_3  and  C_7
    2  A    between atoms: C_29  and  C_32
                            x       y       z     vdW  Elec       q    Type
                         _______ _______ _______ _____ _____    ______ ____

>  <TORSDO>
F 2

$$$$
=
 OpenBabel11122414233D

 34 41  0  0  1  0  0  0  0  0999 V2000
  161.5530  206.8230  148.9870 C   0  0  0  0  0  0  0  0  0  0  0  0
  162.2160  204.9720  147.4120 C   0  0  0  0  0  2  0  0  0  0  0  0
  161.5810  207.9550  155.3900 C   0  0  2  0  0  3  0  0  0  0  0  0
  161.4470  208.2950  150.8780 C   0  0  0  0  0  0  0  0  0  0  0  0
  161.4460  207.3530  153.2110 C   0  0  1  0  0  3  0  0  0  0  0  0
  161.2350  210.0090  154.3450 C   0  0  0  0  0  2  0  0  0  0  0  0
  160.5520  204.5120  149.0430 C   0  0  2  0  0  3  0  0  0  0  0  0
  160.5800  201.7030  150.4410 C   0  0  0  0  0  2  0  0  0  0  0  0
  161.2840  205.9520  152.5860 C   0  0  0  0  0  2  0  0  0  0  0  0
  161.5490  209.8640  152.8580 C   0  0  0  0  0  2  0  0  0  0  0  0
  160.7880  204.5200  150.5720 C   0  0  1  0  0  3  0  0  0  0  0  0
  162.1640  203.5690  147.5230 O   0  0  0  0  0  0  0  0  0  0  0  0
  161.0350  208.5310  152.3060 C   0  0  1  0  0  3  0  0  0  0  0  0
  162.1410  209.2270  155.0860 O   0  0  0  0  0  0  0  0  0  0  0  0
  161.1640  201.9100  149.0530 C   0  0  1  0  0  0  0  0  0  0  0  0
  161.2410  207.0260  150.3300 C   0  0  0  0  0  0  0  0  0  0  0  0
  160.7160  207.4300  154.4040 O   0  0  0  0  0  0  0  0  0  0  0  0
  160.6550  205.9310  151.1840 C   0  0  2  0  0  3  0  0  0  0  0  0
  162.2830  209.0630  148.8020 C   0  0  0  0  0  3  0  0  0  0  0  0
  159.4240  202.4700  150.5730 O   0  0  0  0  0  0  0  0  0  0  0  0
  161.9560  209.2900  150.1020 N   0  0  0  0  0  0  0  0  0  0  0  0
  159.7960  203.6030  151.3120 C   0  0  0  0  0  2  0  0  0  0  0  0
  161.0170  203.2570  148.2890 C   0  0  1  0  0  3  0  0  0  0  0  0
  162.0840  207.8360  148.2530 N   0  0  0  0  0  0  0  0  0  0  0  0
  161.3360  205.5370  148.4070 N   0  0  0  0  0  0  0  0  0  0  0  0
  162.4400  201.3280  148.9250 O   0  0  0  0  0  0  0  0  0  0  0  0
  161.3750  200.6400  148.3020 C   0  0  2  0  0  3  0  0  0  0  0  0
  160.7790  199.4760  144.9040 N   0  0  0  0  0  2  0  0  0  0  0  0
  160.1910  201.3780  146.2500 C   0  0  0  0  0  2  0  0  0  0  0  0
  161.4670  200.8030  146.7910 C   0  0  2  0  0  3  0  0  0  0  0  0
  160.0590  200.7450  144.8860 C   0  0  0  0  0  2  0  0  0  0  0  0
  161.5810  199.4530  146.1210 C   0  0  0  0  0  2  0  0  0  0  0  0
  159.9430  206.9530  156.8310 O   0  0  0  0  0  1  0  0  0  0  0  0
  160.9070  207.9600  156.7550 C   0  0  0  0  0  2  0  0  0  0  0  0
  1 16  1  0  0  0  0
  2 12  1  0  0  0  0
  2 25  1  0  0  0  0
  3 34  1  1  0  0  0
  4 13  1  0  0  0  0
  5  9  1  6  0  0  0
  5 17  1  0  0  0  0
  6 14  1  0  0  0  0
  7 25  1  6  0  0  0
  7 11  1  0  0  0  0
  8 20  1  0  0  0  0
 10  6  1  0  0  0  0
 11 18  1  0  0  0  0
 11 22  1  1  0  0  0
 13 10  1  1  0  0  0
 13  5  1  0  0  0  0
 14  3  1  0  0  0  0
 15  8  1  1  0  0  0
 16  4  2  0  0  0  0
 16 18  1  0  0  0  0
 17  3  1  0  0  0  0
 18  9  1  1  0  0  0
 19 21  2  0  0  0  0
 20 22  1  0  0  0  0
 21  4  1  0  0  0  0
 23 12  1  1  0  0  0
 23  7  1  0  0  0  0
 23 15  1  0  0  0  0
 24 19  1  0  0  0  0
 24  1  2  0  0  0  0
 25  1  1  0  0  0  0
 26 15  1  0  0  0  0
 27 26  1  1  0  0  0
 27 15  1  0  0  0  0
 28 32  1  0  0  0  0
 29 30  1  0  0  0  0
 30 32  1  6  0  0  0
 30 27  1  0  0  0  0
 31 28  1  0  0  0  0
 31 29  1  0  0  0  0
 34 33  1  0  0  0  0
M  END
>  <MODEL>
4

>  <REMARK>
 VINA RESULT:      -5.7      2.452      9.164
  Name = 
  2 active torsions:
  status: ('A' for Active; 'I' for Inactive)
    1  A    between atoms: C_3  and  C_7
    2  A    between atoms: C_29  and  C_32
                            x       y       z     vdW  Elec       q    Type
                         _______ _______ _______ _____ _____    ______ ____

>  <TORSDO>
F 2

$$$$
