=
 OpenBabel11122412533D

 32 38  0  0  1  0  0  0  0  0999 V2000
  161.4830  202.1590  150.1130 C   0  0  1  0  0  3  0  0  0  0  0  0
  161.1400  206.9750  152.2570 C   0  0  0  0  0  0  0  0  0  0  0  0
  162.2740  209.8620  148.3920 C   0  0  0  0  0  3  0  0  0  0  0  0
  162.0870  211.0000  149.1770 C   0  0  0  0  0  3  0  0  0  0  0  0
  160.6720  207.9660  154.5540 C   0  0  0  0  0  0  0  0  0  0  0  0
  160.3780  209.0990  155.1990 C   0  0  0  0  0  0  0  0  0  0  0  0
  160.7390  204.5360  151.8140 C   0  0  1  0  0  3  0  0  0  0  0  0
  161.2230  206.0260  149.9030 C   0  0  0  0  0  2  0  0  0  0  0  0
  160.1630  211.3420  155.5960 C   0  0  2  0  0  3  0  0  0  0  0  0
  161.4160  203.5600  149.5040 C   0  0  2  0  0  3  0  0  0  0  0  0
  162.0560  208.5960  148.9370 C   0  0  0  0  0  3  0  0  0  0  0  0
  161.4060  207.1470  150.8360 N   0  0  0  0  0  0  0  0  0  0  0  0
  161.6470  208.4520  150.2750 C   0  0  0  0  0  0  0  0  0  0  0  0
  161.0370  209.4320  152.4640 C   0  0  0  0  0  0  0  0  0  0  0  0
  160.0030  210.6210  156.8820 N   0  0  0  0  0  0  0  0  0  0  0  0
  161.6880  202.1550  151.6440 C   0  0  0  0  0  2  0  0  0  0  0  0
  161.5720  204.6920  150.5400 C   0  0  2  0  0  3  0  0  0  0  0  0
  160.1740  209.2540  156.5810 N   0  0  0  0  0  0  0  0  0  0  0  0
  160.8180  203.1380  152.4360 C   0  0  0  0  0  2  0  0  0  0  0  0
  160.1450  202.7330  149.6640 C   0  0  1  0  0  3  0  0  0  0  0  0
  161.6810  210.8690  150.5050 C   0  0  0  0  0  3  0  0  0  0  0  0
  161.4620  209.5970  151.0630 C   0  0  0  0  0  0  0  0  0  0  0  0
  160.7470  210.5120  153.2070 C   0  0  0  0  0  3  0  0  0  0  0  0
  161.1810  205.5770  152.8230 C   0  0  0  0  0  2  0  0  0  0  0  0
  160.7400  206.7020  155.3510 C   0  0  0  0  0  1  0  0  0  0  0  0
  158.9170  212.1610  155.3130 C   0  0  0  0  0  1  0  0  0  0  0  0
  160.9560  208.0550  153.0680 C   0  0  0  0  0  0  0  0  0  0  0  0
  160.3420  210.3350  154.5620 N   0  0  0  0  0  0  0  0  0  0  0  0
  159.7890  202.1710  148.4090 O   0  0  0  0  0  0  0  0  0  0  0  0
  160.7460  201.7390  147.4880 C   0  0  0  0  0  0  0  0  0  0  0  0
  161.2050  202.6130  146.3680 C   0  0  0  0  0  1  0  0  0  0  0  0
  161.2330  200.5850  147.6020 O   0  0  0  0  0  0  0  0  0  0  0  0
  1 16  1  1  0  0  0
  2 24  1  0  0  0  0
  2 27  2  0  0  0  0
  3 11  2  0  0  0  0
  3  4  1  0  0  0  0
  4 21  2  0  0  0  0
  5  6  2  0  0  0  0
  5 25  1  0  0  0  0
  6 18  1  0  0  0  0
  7 19  1  1  0  0  0
  7 24  1  0  0  0  0
  8 17  1  0  0  0  0
  8 12  1  0  0  0  0
  9 26  1  6  0  0  0
  9 15  1  0  0  0  0
 10 20  1  0  0  0  0
 10  1  1  0  0  0  0
 10 17  1  0  0  0  0
 11 13  1  0  0  0  0
 12  2  1  0  0  0  0
 13 12  1  0  0  0  0
 13 22  2  0  0  0  0
 14 27  1  0  0  0  0
 14 23  2  0  0  0  0
 16 19  1  0  0  0  0
 17  7  1  0  0  0  0
 18 15  2  0  0  0  0
 20  1  1  0  0  0  0
 21 22  1  0  0  0  0
 22 14  1  0  0  0  0
 23 28  1  0  0  0  0
 27  5  1  0  0  0  0
 28  6  1  0  0  0  0
 28  9  1  0  0  0  0
 29 20  1  0  0  0  0
 30 32  2  0  0  0  0
 30 29  1  0  0  0  0
 31 30  1  0  0  0  0
M  END
>  <MODEL>
1

>  <REMARK>
 VINA RESULT:      -9.4      0.000      0.000
  Name = 
  2 active torsions:
  status: ('A' for Active; 'I' for Inactive)
    1  A    between atoms: C_20  and  O_29
    2  A    between atoms: O_29  and  C_30
                            x       y       z     vdW  Elec       q    Type
                         _______ _______ _______ _____ _____    ______ ____

>  <TORSDO>
F 2

$$$$
=
 OpenBabel11122412533D

 32 38  0  0  1  0  0  0  0  0999 V2000
  161.5840  209.7710  154.0530 C   0  0  1  0  0  3  0  0  0  0  0  0
  161.4520  206.4200  149.9720 C   0  0  0  0  0  0  0  0  0  0  0  0
  160.9080  202.0680  152.2810 C   0  0  0  0  0  3  0  0  0  0  0  0
  160.8700  201.4110  151.0510 C   0  0  0  0  0  3  0  0  0  0  0  0
  161.6720  206.5530  147.4400 C   0  0  0  0  0  0  0  0  0  0  0  0
  161.4880  205.8720  146.3050 C   0  0  0  0  0  0  0  0  0  0  0  0
  161.1950  208.5080  151.3430 C   0  0  1  0  0  3  0  0  0  0  0  0
  160.8480  206.3200  152.4370 C   0  0  0  0  0  2  0  0  0  0  0  0
  161.1750  204.0890  144.9060 C   0  0  2  0  0  3  0  0  0  0  0  0
  161.1650  208.3050  153.9320 C   0  0  2  0  0  3  0  0  0  0  0  0
  161.0240  203.4580  152.3240 C   0  0  0  0  0  3  0  0  0  0  0  0
  161.2080  205.6460  151.1800 N   0  0  0  0  0  0  0  0  0  0  0  0
  161.1040  204.2100  151.1380 C   0  0  0  0  0  0  0  0  0  0  0  0
  161.1560  204.3450  148.6680 C   0  0  0  0  0  0  0  0  0  0  0  0
  161.5330  205.2720  144.0850 N   0  0  0  0  0  0  0  0  0  0  0  0
  162.2870  210.3240  152.7950 C   0  0  0  0  0  2  0  0  0  0  0  0
  161.5330  207.6680  152.5760 C   0  0  2  0  0  3  0  0  0  0  0  0
  161.7420  206.3250  144.9990 N   0  0  0  0  0  0  0  0  0  0  0  0
  161.6300  209.9730  151.4550 C   0  0  0  0  0  2  0  0  0  0  0  0
  160.1190  209.4110  153.8420 C   0  0  1  0  0  3  0  0  0  0  0  0
  160.9490  202.1460  149.8670 C   0  0  0  0  0  3  0  0  0  0  0  0
  161.0690  203.5470  149.9030 C   0  0  0  0  0  0  0  0  0  0  0  0
  161.0150  203.7490  147.4740 C   0  0  0  0  0  3  0  0  0  0  0  0
  161.8330  207.8720  150.1230 C   0  0  0  0  0  2  0  0  0  0  0  0
  162.1410  207.9700  147.3400 C   0  0  0  0  0  1  0  0  0  0  0  0
  159.8250  203.5550  144.4660 C   0  0  0  0  0  1  0  0  0  0  0  0
  161.4330  205.8230  148.7460 C   0  0  0  0  0  0  0  0  0  0  0  0
  161.1070  204.5340  146.2890 N   0  0  0  0  0  0  0  0  0  0  0  0
  159.4280  209.5040  155.0800 O   0  0  0  0  0  0  0  0  0  0  0  0
  158.7350  210.6550  155.4620 C   0  0  0  0  0  0  0  0  0  0  0  0
  158.0290  211.5110  154.4640 C   0  0  0  0  0  1  0  0  0  0  0  0
  158.7030  210.9790  156.6770 O   0  0  0  0  0  0  0  0  0  0  0  0
  1 16  1  6  0  0  0
  2 24  1  0  0  0  0
  2 12  1  0  0  0  0
  3 11  1  0  0  0  0
  4  3  2  0  0  0  0
  5 27  1  0  0  0  0
  6  5  2  0  0  0  0
  7 24  1  6  0  0  0
  7 19  1  0  0  0  0
  7 17  1  0  0  0  0
  8 17  1  0  0  0  0
  9 26  1  6  0  0  0
  9 28  1  0  0  0  0
 10  1  1  0  0  0  0
 12  8  1  0  0  0  0
 13 12  1  0  0  0  0
 13 11  2  0  0  0  0
 14 27  1  0  0  0  0
 14 22  1  0  0  0  0
 15  9  1  0  0  0  0
 15 18  2  0  0  0  0
 17 10  1  0  0  0  0
 18  6  1  0  0  0  0
 19 16  1  0  0  0  0
 20 10  1  0  0  0  0
 20  1  1  0  0  0  0
 20 29  1  0  0  0  0
 21 22  2  0  0  0  0
 21  4  1  0  0  0  0
 22 13  1  0  0  0  0
 23 14  2  0  0  0  0
 25  5  1  0  0  0  0
 27  2  2  0  0  0  0
 28  6  1  0  0  0  0
 28 23  1  0  0  0  0
 29 30  1  0  0  0  0
 30 32  2  0  0  0  0
 31 30  1  0  0  0  0
M  END
>  <MODEL>
2

>  <REMARK>
 VINA RESULT:      -8.1      3.623      8.757
  Name = 
  2 active torsions:
  status: ('A' for Active; 'I' for Inactive)
    1  A    between atoms: C_20  and  O_29
    2  A    between atoms: O_29  and  C_30
                            x       y       z     vdW  Elec       q    Type
                         _______ _______ _______ _____ _____    ______ ____

>  <TORSDO>
F 2

$$$$
=
 OpenBabel11122412533D

 32 38  0  0  1  0  0  0  0  0999 V2000
  162.5750  205.7610  151.4950 C   0  0  1  0  0  3  0  0  0  0  0  0
  160.2480  210.2360  153.0640 C   0  0  0  0  0  0  0  0  0  0  0  0
  161.1820  213.2350  149.2310 C   0  0  0  0  0  3  0  0  0  0  0  0
  160.4740  214.2640  149.8530 C   0  0  0  0  0  3  0  0  0  0  0  0
  159.0070  211.0710  155.1240 C   0  0  0  0  0  0  0  0  0  0  0  0
  158.2330  212.0560  155.5890 C   0  0  0  0  0  0  0  0  0  0  0  0
  160.7600  207.7930  152.7870 C   0  0  1  0  0  3  0  0  0  0  0  0
  161.1310  209.3090  150.8710 C   0  0  0  0  0  2  0  0  0  0  0  0
  157.2260  214.1060  155.7220 C   0  0  2  0  0  3  0  0  0  0  0  0
  162.1910  207.0420  150.7530 C   0  0  2  0  0  3  0  0  0  0  0  0
  161.2730  211.9840  149.8420 C   0  0  0  0  0  3  0  0  0  0  0  0
  160.7390  210.4500  151.7110 N   0  0  0  0  0  0  0  0  0  0  0  0
  160.6590  211.7450  151.0850 C   0  0  0  0  0  0  0  0  0  0  0  0
  159.3140  212.5200  153.0120 C   0  0  0  0  0  0  0  0  0  0  0  0
  157.0380  213.4070  157.0170 N   0  0  0  0  0  0  0  0  0  0  0  0
  162.4410  205.8660  153.0290 C   0  0  0  0  0  2  0  0  0  0  0  0
  161.7480  208.1870  151.6870 C   0  0  2  0  0  3  0  0  0  0  0  0
  157.7020  212.1690  156.8860 N   0  0  0  0  0  0  0  0  0  0  0  0
  161.1530  206.5200  153.5430 C   0  0  0  0  0  2  0  0  0  0  0  0
  161.2520  205.8400  150.7450 C   0  0  1  0  0  3  0  0  0  0  0  0
  159.8600  214.0390  151.0860 C   0  0  0  0  0  3  0  0  0  0  0  0
  159.9510  212.7820  151.7100 C   0  0  0  0  0  0  0  0  0  0  0  0
  158.5400  213.4580  153.5800 C   0  0  0  0  0  3  0  0  0  0  0  0
  160.6170  208.9480  153.7580 C   0  0  0  0  0  2  0  0  0  0  0  0
  159.3100  209.9250  156.0360 C   0  0  0  0  0  1  0  0  0  0  0  0
  155.8730  214.4510  155.1290 C   0  0  0  0  0  1  0  0  0  0  0  0
  159.5570  211.2130  153.7180 C   0  0  0  0  0  0  0  0  0  0  0  0
  157.9360  213.1910  154.8420 N   0  0  0  0  0  0  0  0  0  0  0  0
  161.3720  205.1600  149.5040 O   0  0  0  0  0  0  0  0  0  0  0  0
  161.0240  203.8160  149.3540 C   0  0  0  0  0  0  0  0  0  0  0  0
  160.6200  202.9770  150.5210 C   0  0  0  0  0  1  0  0  0  0  0  0
  161.0490  203.2970  148.2080 O   0  0  0  0  0  0  0  0  0  0  0  0
  1 16  1  1  0  0  0
  2 27  2  0  0  0  0
  2 24  1  0  0  0  0
  3 11  2  0  0  0  0
  3  4  1  0  0  0  0
  4 21  2  0  0  0  0
  5  6  2  0  0  0  0
  5 25  1  0  0  0  0
  6 18  1  0  0  0  0
  7 19  1  1  0  0  0
  7 24  1  0  0  0  0
  8 17  1  0  0  0  0
  8 12  1  0  0  0  0
  9 26  1  6  0  0  0
  9 15  1  0  0  0  0
 10  1  1  0  0  0  0
 10 17  1  0  0  0  0
 11 13  1  0  0  0  0
 12  2  1  0  0  0  0
 13 22  2  0  0  0  0
 13 12  1  0  0  0  0
 14 23  2  0  0  0  0
 14 27  1  0  0  0  0
 16 19  1  0  0  0  0
 17  7  1  0  0  0  0
 18 15  2  0  0  0  0
 20 10  1  0  0  0  0
 20  1  1  0  0  0  0
 21 22  1  0  0  0  0
 22 14  1  0  0  0  0
 23 28  1  0  0  0  0
 27  5  1  0  0  0  0
 28  6  1  0  0  0  0
 28  9  1  0  0  0  0
 29 20  1  0  0  0  0
 30 29  1  0  0  0  0
 30 31  1  0  0  0  0
 32 30  2  0  0  0  0
M  END
>  <MODEL>
3

>  <REMARK>
 VINA RESULT:      -7.4      2.238      3.640
  Name = 
  2 active torsions:
  status: ('A' for Active; 'I' for Inactive)
    1  A    between atoms: C_20  and  O_29
    2  A    between atoms: O_29  and  C_30
                            x       y       z     vdW  Elec       q    Type
                         _______ _______ _______ _____ _____    ______ ____

>  <TORSDO>
F 2

$$$$
=
 OpenBabel11122412533D

 32 38  0  0  1  0  0  0  0  0999 V2000
  161.9270  203.5490  146.4990 C   0  0  1  0  0  3  0  0  0  0  0  0
  161.4710  206.9130  150.5460 C   0  0  0  0  0  0  0  0  0  0  0  0
  162.3300  211.2580  148.3230 C   0  0  0  0  0  3  0  0  0  0  0  0
  162.1270  211.9260  149.5320 C   0  0  0  0  0  3  0  0  0  0  0  0
  161.0540  206.7710  153.0530 C   0  0  0  0  0  0  0  0  0  0  0  0
  160.7400  207.4890  154.1350 C   0  0  0  0  0  0  0  0  0  0  0  0
  161.1540  204.8960  149.0840 C   0  0  1  0  0  3  0  0  0  0  0  0
  161.4990  207.0970  148.0130 C   0  0  0  0  0  2  0  0  0  0  0  0
  160.4490  209.3160  155.4810 C   0  0  2  0  0  3  0  0  0  0  0  0
  161.7780  205.0690  146.5680 C   0  0  2  0  0  3  0  0  0  0  0  0
  162.1860  209.8720  148.2610 C   0  0  0  0  0  3  0  0  0  0  0  0
  161.6730  207.7040  149.3410 N   0  0  0  0  0  0  0  0  0  0  0  0
  161.8370  209.1340  149.4070 C   0  0  0  0  0  0  0  0  0  0  0  0
  161.2750  209.0210  151.8130 C   0  0  0  0  0  0  0  0  0  0  0  0
  160.3690  208.0970  156.3220 N   0  0  0  0  0  0  0  0  0  0  0  0
  162.1930  202.8860  147.8680 C   0  0  0  0  0  2  0  0  0  0  0  0
  161.9280  205.6400  147.9930 C   0  0  2  0  0  3  0  0  0  0  0  0
  160.5850  207.0110  155.4480 N   0  0  0  0  0  0  0  0  0  0  0  0
  161.3160  203.3740  149.0270 C   0  0  0  0  0  2  0  0  0  0  0  0
  160.5500  204.1870  146.3720 C   0  0  1  0  0  3  0  0  0  0  0  0
  161.7810  211.2040  150.6750 C   0  0  0  0  0  3  0  0  0  0  0  0
  161.6370  209.8060  150.6200 C   0  0  0  0  0  0  0  0  0  0  0  0
  160.9700  209.6490  152.9600 C   0  0  0  0  0  3  0  0  0  0  0  0
  161.5930  205.4130  150.4390 C   0  0  0  0  0  2  0  0  0  0  0  0
  161.2070  205.2910  153.2120 C   0  0  0  0  0  1  0  0  0  0  0  0
  159.1600  210.1070  155.6090 C   0  0  0  0  0  1  0  0  0  0  0  0
  161.2760  207.5170  151.7520 C   0  0  0  0  0  0  0  0  0  0  0  0
  160.6280  208.8750  154.1070 N   0  0  0  0  0  0  0  0  0  0  0  0
  160.1680  204.2140  145.0040 O   0  0  0  0  0  0  0  0  0  0  0  0
  159.3800  203.2130  144.4300 C   0  0  0  0  0  0  0  0  0  0  0  0
  159.7060  201.7670  144.6000 C   0  0  0  0  0  1  0  0  0  0  0  0
  158.3700  203.5370  143.7530 O   0  0  0  0  0  0  0  0  0  0  0  0
  1 10  1  0  0  0  0
  1 16  1  1  0  0  0
  2 27  2  0  0  0  0
  3  4  1  0  0  0  0
  4 21  2  0  0  0  0
  5 25  1  0  0  0  0
  5  6  2  0  0  0  0
  6 18  1  0  0  0  0
  7 19  1  1  0  0  0
  7 24  1  0  0  0  0
  8 12  1  0  0  0  0
  9 26  1  6  0  0  0
  9 15  1  0  0  0  0
 10 17  1  0  0  0  0
 11  3  2  0  0  0  0
 11 13  1  0  0  0  0
 12 13  1  0  0  0  0
 12  2  1  0  0  0  0
 13 22  2  0  0  0  0
 14 23  2  0  0  0  0
 16 19  1  0  0  0  0
 17  8  1  0  0  0  0
 17  7  1  0  0  0  0
 18 15  2  0  0  0  0
 20  1  1  0  0  0  0
 20 10  1  0  0  0  0
 22 21  1  0  0  0  0
 22 14  1  0  0  0  0
 23 28  1  0  0  0  0
 24  2  1  0  0  0  0
 27 14  1  0  0  0  0
 27  5  1  0  0  0  0
 28  6  1  0  0  0  0
 28  9  1  0  0  0  0
 29 20  1  0  0  0  0
 30 31  1  0  0  0  0
 30 29  1  0  0  0  0
 32 30  2  0  0  0  0
M  END
>  <MODEL>
4

>  <REMARK>
 VINA RESULT:      -7.4      1.786      2.587
  Name = 
  2 active torsions:
  status: ('A' for Active; 'I' for Inactive)
    1  A    between atoms: C_20  and  O_29
    2  A    between atoms: O_29  and  C_30
                            x       y       z     vdW  Elec       q    Type
                         _______ _______ _______ _____ _____    ______ ____

>  <TORSDO>
F 2

$$$$
