=
 OpenBabel11122413053D

 32 37  0  0  1  0  0  0  0  0999 V2000
  160.9040  201.3330  149.9150 C   0  0  0  0  0  2  0  0  0  0  0  0
  161.2180  206.1830  151.8710 C   0  0  2  0  0  3  0  0  0  0  0  0
  162.2850  209.7250  148.6160 C   0  0  0  0  0  3  0  0  0  0  0  0
  162.1430  210.6920  149.6100 C   0  0  0  0  0  3  0  0  0  0  0  0
  160.7450  206.9610  154.2230 C   0  0  0  0  0  0  0  0  0  0  0  0
  160.5770  208.0530  155.2370 C   0  0  1  0  0  3  0  0  0  0  0  0
  160.5170  203.9710  150.9200 C   0  0  1  0  0  3  0  0  0  0  0  0
  161.5040  205.7060  149.4150 N   0  0  0  0  0  2  0  0  0  0  0  0
  160.6830  210.4190  155.6550 C   0  0  2  0  0  3  0  0  0  0  0  0
  161.2700  203.4530  148.4910 C   0  0  0  0  0  2  0  0  0  0  0  0
  162.0600  208.3810  148.9140 C   0  0  0  0  0  3  0  0  0  0  0  0
  161.4680  206.6790  150.4690 C   0  0  0  0  0  0  0  0  0  0  0  0
  161.6990  207.9790  150.2120 C   0  0  0  0  0  0  0  0  0  0  0  0
  161.1360  208.6380  152.4590 C   0  0  0  0  0  0  0  0  0  0  0  0
  161.7090  209.7200  156.5400 C   0  0  0  0  0  2  0  0  0  0  0  0
  162.0810  201.9220  150.6980 C   0  0  0  0  0  2  0  0  0  0  0  0
  160.7070  204.4820  149.4730 C   0  0  1  0  0  3  0  0  0  0  0  0
  161.8380  208.2950  156.0330 C   0  0  0  0  0  2  0  0  0  0  0  0
  161.7060  203.1810  151.4910 C   0  0  0  0  0  2  0  0  0  0  0  0
  160.6000  202.0780  148.5990 C   0  0  1  0  0  3  0  0  0  0  0  0
  161.7690  210.3150  150.8990 C   0  0  0  0  0  3  0  0  0  0  0  0
  161.5400  208.9660  151.2190 C   0  0  0  0  0  0  0  0  0  0  0  0
  160.9350  209.6380  153.4150 O   0  0  0  0  0  0  0  0  0  0  0  0
  160.1230  205.1180  151.8510 C   0  0  0  0  0  2  0  0  0  0  0  0
  160.7470  205.7650  154.6240 O   0  0  0  0  0  0  0  0  0  0  0  0
  159.5060  210.8650  156.5010 C   0  0  0  0  0  1  0  0  0  0  0  0
  160.9300  207.2640  152.8270 N   0  0  0  0  0  0  0  0  0  0  0  0
  160.2230  209.4020  154.6270 C   0  0  1  0  0  3  0  0  0  0  0  0
  161.0310  201.2300  147.4120 C   0  0  0  0  0  2  0  0  0  0  0  0
  160.7350  201.9260  146.1280 C   0  0  0  0  0  0  0  0  0  0  0  0
  161.3590  202.9740  145.8220 O   0  0  0  0  0  1  0  0  0  0  0  0
  159.7910  201.4020  145.2550 O   0  0  0  0  0  0  0  0  0  0  0  0
  1 16  1  0  0  0  0
  2 24  1  6  0  0  0
  2 27  1  0  0  0  0
  3 11  2  0  0  0  0
  3  4  1  0  0  0  0
  4 21  2  0  0  0  0
  5 25  2  0  0  0  0
  5  6  1  0  0  0  0
  6 18  1  6  0  0  0
  7 19  1  1  0  0  0
  7 24  1  0  0  0  0
  8 17  1  0  0  0  0
  8 12  1  0  0  0  0
  9 26  1  1  0  0  0
  9 15  1  0  0  0  0
 10 20  1  0  0  0  0
 11 13  1  0  0  0  0
 12  2  1  0  0  0  0
 13 12  2  0  0  0  0
 13 22  1  0  0  0  0
 14 27  1  0  0  0  0
 14 23  1  0  0  0  0
 16 19  1  0  0  0  0
 17 10  1  6  0  0  0
 17  7  1  0  0  0  0
 18 15  1  0  0  0  0
 20 29  1  6  0  0  0
 20  1  1  0  0  0  0
 21 22  1  0  0  0  0
 22 14  2  0  0  0  0
 27  5  1  0  0  0  0
 28 23  1  6  0  0  0
 28  6  1  0  0  0  0
 28  9  1  0  0  0  0
 30 29  1  0  0  0  0
 31 30  1  0  0  0  0
 32 30  2  0  0  0  0
M  END
>  <MODEL>
1

>  <REMARK>
 VINA RESULT:     -10.0      0.000      0.000
  Name = 
  2 active torsions:
  status: ('A' for Active; 'I' for Inactive)
    1  A    between atoms: C_20  and  C_29
    2  A    between atoms: C_29  and  C_30
                            x       y       z     vdW  Elec       q    Type
                         _______ _______ _______ _____ _____    ______ ____

>  <TORSDO>
F 2

$$$$
=
 OpenBabel11122413053D

 32 37  0  0  1  0  0  0  0  0999 V2000
  161.4560  210.5700  153.9360 C   0  0  0  0  0  2  0  0  0  0  0  0
  161.4690  206.7320  150.3700 C   0  0  2  0  0  3  0  0  0  0  0  0
  160.9790  202.1660  152.1560 C   0  0  0  0  0  3  0  0  0  0  0  0
  160.9540  201.6530  150.8600 C   0  0  0  0  0  3  0  0  0  0  0  0
  161.5380  206.9250  147.8560 C   0  0  0  0  0  0  0  0  0  0  0  0
  161.4730  206.3120  146.4900 C   0  0  1  0  0  3  0  0  0  0  0  0
  160.9190  208.6080  151.9420 C   0  0  1  0  0  3  0  0  0  0  0  0
  161.1430  206.2800  152.8260 N   0  0  0  0  0  2  0  0  0  0  0  0
  161.2870  204.2750  145.2240 C   0  0  2  0  0  3  0  0  0  0  0  0
  161.0490  208.0810  154.4800 C   0  0  0  0  0  2  0  0  0  0  0  0
  161.0760  203.5420  152.3590 C   0  0  0  0  0  3  0  0  0  0  0  0
  161.2350  205.7540  151.4940 C   0  0  0  0  0  0  0  0  0  0  0  0
  161.1610  204.4290  151.2710 C   0  0  0  0  0  0  0  0  0  0  0  0
  161.1370  204.7190  148.8810 C   0  0  0  0  0  0  0  0  0  0  0  0
  162.6200  204.9370  144.8930 C   0  0  0  0  0  2  0  0  0  0  0  0
  162.6850  209.9890  153.2320 C   0  0  0  0  0  2  0  0  0  0  0  0
  160.6130  207.6160  153.0890 C   0  0  1  0  0  3  0  0  0  0  0  0
  162.8440  206.0290  145.9230 C   0  0  0  0  0  2  0  0  0  0  0  0
  162.3360  209.2050  151.9600 C   0  0  0  0  0  2  0  0  0  0  0  0
  160.6790  209.5370  154.7800 C   0  0  1  0  0  3  0  0  0  0  0  0
  161.0200  202.5180  149.7680 C   0  0  0  0  0  3  0  0  0  0  0  0
  161.1220  203.9080  149.9530 C   0  0  0  0  0  0  0  0  0  0  0  0
  161.0400  204.1790  147.5950 O   0  0  0  0  0  0  0  0  0  0  0  0
  160.6080  207.9760  150.5840 C   0  0  0  0  0  2  0  0  0  0  0  0
  161.8540  208.1430  147.9540 O   0  0  0  0  0  0  0  0  0  0  0  0
  160.3310  204.4550  144.0610 C   0  0  0  0  0  1  0  0  0  0  0  0
  161.2770  206.1410  149.0360 N   0  0  0  0  0  0  0  0  0  0  0  0
  160.7410  204.9780  146.4530 C   0  0  1  0  0  3  0  0  0  0  0  0
  160.9030  209.8030  156.2600 C   0  0  0  0  0  2  0  0  0  0  0  0
  160.2070  211.0510  156.6860 C   0  0  0  0  0  0  0  0  0  0  0  0
  160.8570  211.9800  157.2290 O   0  0  0  0  0  1  0  0  0  0  0  0
  158.8450  211.1980  156.4580 O   0  0  0  0  0  0  0  0  0  0  0  0
  1 20  1  0  0  0  0
  2 24  1  1  0  0  0
  2 12  1  0  0  0  0
  3 11  2  0  0  0  0
  4  3  1  0  0  0  0
  5 25  2  0  0  0  0
  5 27  1  0  0  0  0
  6 18  1  1  0  0  0
  6  5  1  0  0  0  0
  7 24  1  6  0  0  0
  7 19  1  0  0  0  0
  7 17  1  0  0  0  0
  8 17  1  0  0  0  0
  9 26  1  6  0  0  0
  9 28  1  0  0  0  0
 10 20  1  0  0  0  0
 12  8  1  0  0  0  0
 13 12  2  0  0  0  0
 13 11  1  0  0  0  0
 14 27  1  0  0  0  0
 14 22  2  0  0  0  0
 15  9  1  0  0  0  0
 15 18  1  0  0  0  0
 16  1  1  0  0  0  0
 17 10  1  1  0  0  0
 19 16  1  0  0  0  0
 20 29  1  1  0  0  0
 21 22  1  0  0  0  0
 21  4  2  0  0  0  0
 22 13  1  0  0  0  0
 23 14  1  0  0  0  0
 27  2  1  0  0  0  0
 28  6  1  0  0  0  0
 28 23  1  1  0  0  0
 29 30  1  0  0  0  0
 30 31  1  0  0  0  0
 32 30  2  0  0  0  0
M  END
>  <MODEL>
2

>  <REMARK>
 VINA RESULT:      -8.4      2.267      8.820
  Name = 
  2 active torsions:
  status: ('A' for Active; 'I' for Inactive)
    1  A    between atoms: C_20  and  C_29
    2  A    between atoms: C_29  and  C_30
                            x       y       z     vdW  Elec       q    Type
                         _______ _______ _______ _____ _____    ______ ____

>  <TORSDO>
F 2

$$$$
=
 OpenBabel11122413053D

 32 37  0  0  1  0  0  0  0  0999 V2000
  160.8250  208.0670  156.9060 C   0  0  0  0  0  2  0  0  0  0  0  0
  160.9130  205.8760  152.1490 C   0  0  2  0  0  3  0  0  0  0  0  0
  161.8140  208.9510  148.4050 C   0  0  0  0  0  3  0  0  0  0  0  0
  161.8120  207.8790  147.5150 C   0  0  0  0  0  3  0  0  0  0  0  0
  160.7090  203.4370  151.5400 C   0  0  0  0  0  0  0  0  0  0  0  0
  160.7500  202.3260  150.5330 C   0  0  1  0  0  3  0  0  0  0  0  0
  161.4030  206.7470  154.4490 C   0  0  1  0  0  3  0  0  0  0  0  0
  161.3890  208.3220  152.5080 N   0  0  0  0  0  2  0  0  0  0  0  0
  161.0190  201.7450  148.2150 C   0  0  2  0  0  3  0  0  0  0  0  0
  161.4340  209.3260  154.7380 C   0  0  0  0  0  2  0  0  0  0  0  0
  161.6290  208.7240  149.7690 C   0  0  0  0  0  3  0  0  0  0  0  0
  161.2710  207.2290  151.5870 C   0  0  0  0  0  0  0  0  0  0  0  0
  161.4280  207.4230  150.2640 C   0  0  0  0  0  0  0  0  0  0  0  0
  161.3150  205.0650  149.7910 C   0  0  0  0  0  0  0  0  0  0  0  0
  159.6280  201.3170  148.6680 C   0  0  0  0  0  2  0  0  0  0  0  0
  159.6080  207.6630  156.0700 C   0  0  0  0  0  2  0  0  0  0  0  0
  161.8350  208.1210  153.8850 C   0  0  1  0  0  3  0  0  0  0  0  0
  159.3770  201.9710  150.0140 C   0  0  0  0  0  2  0  0  0  0  0  0
  159.9500  206.6760  154.9460 C   0  0  0  0  0  2  0  0  0  0  0  0
  161.7140  209.1340  156.2330 C   0  0  1  0  0  3  0  0  0  0  0  0
  161.6320  206.5810  147.9880 C   0  0  0  0  0  3  0  0  0  0  0  0
  161.4400  206.3320  149.3580 C   0  0  0  0  0  0  0  0  0  0  0  0
  161.3880  204.0060  148.8800 O   0  0  0  0  0  0  0  0  0  0  0  0
  161.6920  205.6340  153.4410 C   0  0  0  0  0  2  0  0  0  0  0  0
  160.3120  203.1740  152.7080 O   0  0  0  0  0  0  0  0  0  0  0  0
  161.9030  200.5210  148.0710 C   0  0  0  0  0  1  0  0  0  0  0  0
  161.0820  204.7810  151.1800 N   0  0  0  0  0  0  0  0  0  0  0  0
  161.5730  202.6550  149.2950 C   0  0  1  0  0  3  0  0  0  0  0  0
  161.5430  210.4700  156.9380 C   0  0  0  0  0  2  0  0  0  0  0  0
  160.3500  211.1960  156.4170 C   0  0  0  0  0  0  0  0  0  0  0  0
  159.2120  210.9610  156.8970 O   0  0  0  0  0  1  0  0  0  0  0  0
  160.5000  212.1540  155.4230 O   0  0  0  0  0  0  0  0  0  0  0  0
  2 24  1  1  0  0  0
  3 11  2  0  0  0  0
  4 21  2  0  0  0  0
  4  3  1  0  0  0  0
  5 25  2  0  0  0  0
  6 18  1  6  0  0  0
  6  5  1  0  0  0  0
  7 24  1  6  0  0  0
  7 19  1  0  0  0  0
  8 17  1  0  0  0  0
  9 26  1  1  0  0  0
  9 15  1  0  0  0  0
  9 28  1  0  0  0  0
 10 20  1  0  0  0  0
 11 13  1  0  0  0  0
 12  2  1  0  0  0  0
 12  8  1  0  0  0  0
 13 12  2  0  0  0  0
 14 27  1  0  0  0  0
 15 18  1  0  0  0  0
 16  1  1  0  0  0  0
 17  7  1  0  0  0  0
 17 10  1  1  0  0  0
 19 16  1  0  0  0  0
 20  1  1  0  0  0  0
 20 29  1  1  0  0  0
 21 22  1  0  0  0  0
 22 14  2  0  0  0  0
 22 13  1  0  0  0  0
 23 14  1  0  0  0  0
 27  5  1  0  0  0  0
 27  2  1  0  0  0  0
 28 23  1  6  0  0  0
 28  6  1  0  0  0  0
 30 31  1  0  0  0  0
 30 29  1  0  0  0  0
 32 30  2  0  0  0  0
M  END
>  <MODEL>
3

>  <REMARK>
 VINA RESULT:      -7.8      1.739      8.010
  Name = 
  2 active torsions:
  status: ('A' for Active; 'I' for Inactive)
    1  A    between atoms: C_20  and  C_29
    2  A    between atoms: C_29  and  C_30
                            x       y       z     vdW  Elec       q    Type
                         _______ _______ _______ _____ _____    ______ ____

>  <TORSDO>
F 2

$$$$
