=
 OpenBabel11122412333D

 30 35  0  0  1  0  0  0  0  0999 V2000
  161.2540  210.8450  150.8960 C   0  0  0  0  0  0  0  0  0  0  0  0
  161.2850  212.3450  148.8950 C   0  0  0  0  0  0  0  0  0  0  0  0
  158.9040  213.6060  153.1440 C   0  0  0  0  0  2  0  0  0  0  0  0
  160.8160  210.6130  152.2250 C   0  0  0  0  0  0  0  0  0  0  0  0
  162.1990  209.8570  150.2650 C   0  0  0  0  0  2  0  0  0  0  0  0
  161.4960  206.9720  152.3780 O   0  0  0  0  0  0  0  0  0  0  0  0
  161.7770  210.3190  155.0180 C   0  0  1  0  0  3  0  0  0  0  0  0
  161.4590  208.1640  151.9660 C   0  0  0  0  0  0  0  0  0  0  0  0
  160.8000  211.4600  155.2650 C   0  0  2  0  0  3  0  0  0  0  0  0
  158.8290  212.7610  154.4290 C   0  0  1  0  0  3  0  0  0  0  0  0
  161.9010  208.4820  150.6390 N   0  0  0  0  0  0  0  0  0  0  0  0
  160.8570  209.2290  152.8340 C   0  0  1  0  0  3  0  0  0  0  0  0
  160.8790  213.5340  148.2840 C   0  0  0  0  0  3  0  0  0  0  0  0
  160.2540  211.1460  156.6160 C   0  0  0  0  0  2  0  0  0  0  0  0
  162.2970  209.9350  156.2690 O   0  0  0  0  0  0  0  0  0  0  0  0
  162.0430  211.4900  148.1650 F   0  0  0  0  0  0  0  0  0  0  0  0
  159.7090  212.7550  152.2300 C   0  0  0  0  0  0  0  0  0  0  0  0
  160.0870  214.4530  148.9680 C   0  0  0  0  0  3  0  0  0  0  0  0
  160.8920  212.0550  150.2270 C   0  0  0  0  0  0  0  0  0  0  0  0
  160.1090  211.6250  152.8780 C   0  0  0  0  0  0  0  0  0  0  0  0
  157.4170  212.2370  154.6110 C   0  0  0  0  0  1  0  0  0  0  0  0
  159.7540  211.6370  154.2530 N   0  0  0  0  0  0  0  0  0  0  0  0
  161.4080  210.4090  157.2610 C   0  0  0  0  0  2  0  0  0  0  0  0
  160.0940  208.5710  155.0100 O   0  0  0  0  0  1  0  0  0  0  0  0
  159.6900  214.1920  150.2780 C   0  0  0  0  0  3  0  0  0  0  0  0
  160.0830  213.0080  150.9110 C   0  0  0  0  0  0  0  0  0  0  0  0
  161.1970  209.0790  154.3200 C   0  0  2  0  0  3  0  0  0  0  0  0
  162.3100  207.4280  149.7220 C   0  0  0  0  0  2  0  0  0  0  0  0
  160.5330  206.2110  148.8360 C   0  0  0  0  0  1  0  0  0  0  0  0
  161.3860  207.3630  148.6040 N   0  0  0  0  0  2  0  0  0  0  0  0
  1  4  1  0  0  0  0
  2 19  1  0  0  0  0
  3 10  1  0  0  0  0
  4 12  1  0  0  0  0
  4 20  2  0  0  0  0
  5 11  1  0  0  0  0
  5  1  1  0  0  0  0
  7  9  1  0  0  0  0
  7 15  1  1  0  0  0
  8  6  2  0  0  0  0
  9 14  1  1  0  0  0
 10 21  1  6  0  0  0
 11  8  1  0  0  0  0
 12  8  1  6  0  0  0
 12 27  1  0  0  0  0
 13  2  2  0  0  0  0
 13 18  1  0  0  0  0
 14 23  1  0  0  0  0
 15 23  1  0  0  0  0
 16  2  1  0  0  0  0
 17 20  1  0  0  0  0
 17  3  1  0  0  0  0
 18 25  2  0  0  0  0
 19  1  2  0  0  0  0
 19 26  1  0  0  0  0
 20 22  1  0  0  0  0
 22 10  1  0  0  0  0
 22  9  1  0  0  0  0
 25 26  1  0  0  0  0
 26 17  2  0  0  0  0
 27 24  1  1  0  0  0
 27  7  1  0  0  0  0
 28 11  1  0  0  0  0
 30 29  1  0  0  0  0
 30 28  1  0  0  0  0
M  END
>  <MODEL>
1

>  <REMARK>
 VINA RESULT:      -6.6      0.000      0.000
  Name = 
  2 active torsions:
  status: ('A' for Active; 'I' for Inactive)
    1  A    between atoms: N_11  and  C_28
    2  A    between atoms: C_28  and  N_30
                            x       y       z     vdW  Elec       q    Type
                         _______ _______ _______ _____ _____    ______ ____

>  <TORSDO>
F 2

$$$$
=
 OpenBabel11122412333D

 30 35  0  0  1  0  0  0  0  0999 V2000
  161.5990  209.1050  150.8940 C   0  0  0  0  0  0  0  0  0  0  0  0
  162.1020  210.4750  148.8640 C   0  0  0  0  0  0  0  0  0  0  0  0
  159.7690  212.4090  152.8790 C   0  0  0  0  0  2  0  0  0  0  0  0
  161.0280  209.0320  152.1910 C   0  0  0  0  0  0  0  0  0  0  0  0
  162.3430  207.9090  150.3650 C   0  0  0  0  0  2  0  0  0  0  0  0
  160.8690  205.3410  152.4900 O   0  0  0  0  0  0  0  0  0  0  0  0
  161.7010  208.6540  155.0560 C   0  0  1  0  0  3  0  0  0  0  0  0
  161.1270  206.4930  152.0460 C   0  0  0  0  0  0  0  0  0  0  0  0
  160.9860  209.9910  155.1970 C   0  0  2  0  0  3  0  0  0  0  0  0
  159.4170  211.6560  154.1760 C   0  0  1  0  0  3  0  0  0  0  0  0
  161.7210  206.6490  150.7500 N   0  0  0  0  0  0  0  0  0  0  0  0
  160.7170  207.7010  152.8360 C   0  0  1  0  0  3  0  0  0  0  0  0
  162.0150  211.6980  148.1920 C   0  0  0  0  0  3  0  0  0  0  0  0
  160.2910  209.8630  156.5090 C   0  0  0  0  0  2  0  0  0  0  0  0
  162.0330  208.2190  156.3540 O   0  0  0  0  0  0  0  0  0  0  0  0
  162.7010  209.4450  148.2170 F   0  0  0  0  0  0  0  0  0  0  0  0
  160.4270  211.3630  152.0540 C   0  0  0  0  0  0  0  0  0  0  0  0
  161.4010  212.7970  148.7880 C   0  0  0  0  0  3  0  0  0  0  0  0
  161.5620  210.3360  150.1680 C   0  0  0  0  0  0  0  0  0  0  0  0
  160.5190  210.2010  152.7590 C   0  0  0  0  0  0  0  0  0  0  0  0
  157.9150  211.4630  154.2620 C   0  0  0  0  0  1  0  0  0  0  0  0
  160.0800  210.3500  154.1030 N   0  0  0  0  0  0  0  0  0  0  0  0
  161.2040  208.9180  157.2610 C   0  0  0  0  0  2  0  0  0  0  0  0
  159.6760  207.3190  154.9630 O   0  0  0  0  0  1  0  0  0  0  0  0
  160.8640  212.6850  150.0690 C   0  0  0  0  0  3  0  0  0  0  0  0
  160.9390  211.4710  150.7610 C   0  0  0  0  0  0  0  0  0  0  0  0
  160.9100  207.5430  154.3480 C   0  0  2  0  0  3  0  0  0  0  0  0
  161.9490  205.4930  149.8950 C   0  0  0  0  0  2  0  0  0  0  0  0
  161.5110  205.1790  147.6300 C   0  0  0  0  0  1  0  0  0  0  0  0
  160.8790  205.3840  148.9200 N   0  0  0  0  0  2  0  0  0  0  0  0
  1  4  1  0  0  0  0
  2 19  1  0  0  0  0
  3 10  1  0  0  0  0
  4 20  2  0  0  0  0
  4 12  1  0  0  0  0
  5 11  1  0  0  0  0
  5  1  1  0  0  0  0
  7  9  1  0  0  0  0
  7 15  1  1  0  0  0
  8  6  2  0  0  0  0
  9 14  1  1  0  0  0
 10 21  1  6  0  0  0
 11  8  1  0  0  0  0
 12  8  1  6  0  0  0
 12 27  1  0  0  0  0
 13 18  1  0  0  0  0
 13  2  2  0  0  0  0
 14 23  1  0  0  0  0
 15 23  1  0  0  0  0
 16  2  1  0  0  0  0
 17 20  1  0  0  0  0
 17  3  1  0  0  0  0
 18 25  2  0  0  0  0
 19 26  1  0  0  0  0
 19  1  2  0  0  0  0
 20 22  1  0  0  0  0
 22 10  1  0  0  0  0
 22  9  1  0  0  0  0
 25 26  1  0  0  0  0
 26 17  2  0  0  0  0
 27 24  1  1  0  0  0
 27  7  1  0  0  0  0
 28 11  1  0  0  0  0
 29 30  1  0  0  0  0
 30 28  1  0  0  0  0
M  END
>  <MODEL>
2

>  <REMARK>
 VINA RESULT:      -6.4      1.346      1.718
  Name = 
  2 active torsions:
  status: ('A' for Active; 'I' for Inactive)
    1  A    between atoms: N_11  and  C_28
    2  A    between atoms: C_28  and  N_30
                            x       y       z     vdW  Elec       q    Type
                         _______ _______ _______ _____ _____    ______ ____

>  <TORSDO>
F 2

$$$$
=
 OpenBabel11122412333D

 30 35  0  0  1  0  0  0  0  0999 V2000
  160.5210  209.2340  153.4650 C   0  0  0  0  0  0  0  0  0  0  0  0
  160.8490  207.1910  154.8710 C   0  0  0  0  0  0  0  0  0  0  0  0
  159.2500  211.5460  156.8180 C   0  0  0  0  0  2  0  0  0  0  0  0
  160.1610  210.6040  153.3910 C   0  0  0  0  0  0  0  0  0  0  0  0
  160.8120  208.4930  152.1870 C   0  0  0  0  0  2  0  0  0  0  0  0
  161.5770  211.3420  150.0450 O   0  0  0  0  0  0  0  0  0  0  0  0
  158.1200  212.4580  152.2940 C   0  0  1  0  0  3  0  0  0  0  0  0
  161.2030  210.7090  151.0710 C   0  0  0  0  0  0  0  0  0  0  0  0
  157.9880  212.8630  153.7560 C   0  0  2  0  0  3  0  0  0  0  0  0
  159.0120  212.8550  156.0430 C   0  0  1  0  0  3  0  0  0  0  0  0
  161.5150  209.3160  151.2120 N   0  0  0  0  0  0  0  0  0  0  0  0
  160.5210  211.4450  152.1870 C   0  0  1  0  0  3  0  0  0  0  0  0
  160.8220  206.5880  156.1310 C   0  0  0  0  0  3  0  0  0  0  0  0
  157.7260  214.3280  153.6770 C   0  0  0  0  0  2  0  0  0  0  0  0
  157.2830  213.3110  151.5480 O   0  0  0  0  0  0  0  0  0  0  0  0
  161.2430  206.4320  153.8190 F   0  0  0  0  0  0  0  0  0  0  0  0
  159.7180  210.6120  155.7610 C   0  0  0  0  0  0  0  0  0  0  0  0
  160.4420  207.3110  157.2600 C   0  0  0  0  0  3  0  0  0  0  0  0
  160.4890  208.5560  154.7230 C   0  0  0  0  0  0  0  0  0  0  0  0
  159.6970  211.2320  154.5480 C   0  0  0  0  0  0  0  0  0  0  0  0
  160.0720  213.8720  156.4230 C   0  0  0  0  0  1  0  0  0  0  0  0
  159.1270  212.5320  154.6170 N   0  0  0  0  0  0  0  0  0  0  0  0
  157.0240  214.4520  152.3410 C   0  0  0  0  0  2  0  0  0  0  0  0
  160.1070  213.7850  151.8670 O   0  0  0  0  0  1  0  0  0  0  0  0
  160.0820  208.6510  157.1400 C   0  0  0  0  0  3  0  0  0  0  0  0
  160.1020  209.2780  155.8890 C   0  0  0  0  0  0  0  0  0  0  0  0
  159.5390  212.5190  151.7080 C   0  0  2  0  0  3  0  0  0  0  0  0
  162.3390  208.6380  150.2230 C   0  0  0  0  0  2  0  0  0  0  0  0
  162.2970  207.4000  148.2510 C   0  0  0  0  0  1  0  0  0  0  0  0
  161.5150  207.7500  149.4220 N   0  0  0  0  0  2  0  0  0  0  0  0
  1 19  1  0  0  0  0
  2 13  1  0  0  0  0
  4  1  2  0  0  0  0
  4 20  1  0  0  0  0
  5  1  1  0  0  0  0
  6  8  2  0  0  0  0
  7 15  1  6  0  0  0
  7  9  1  0  0  0  0
  8 11  1  0  0  0  0
  9 14  1  6  0  0  0
  9 22  1  0  0  0  0
 10 21  1  1  0  0  0
 10  3  1  0  0  0  0
 11  5  1  0  0  0  0
 12  8  1  6  0  0  0
 12  4  1  0  0  0  0
 13 18  2  0  0  0  0
 15 23  1  0  0  0  0
 16  2  1  0  0  0  0
 17 26  1  0  0  0  0
 17  3  1  0  0  0  0
 19  2  2  0  0  0  0
 19 26  1  0  0  0  0
 20 22  1  0  0  0  0
 20 17  2  0  0  0  0
 22 10  1  0  0  0  0
 23 14  1  0  0  0  0
 25 18  1  0  0  0  0
 26 25  2  0  0  0  0
 27 24  1  1  0  0  0
 27 12  1  0  0  0  0
 27  7  1  0  0  0  0
 28 11  1  0  0  0  0
 29 30  1  0  0  0  0
 30 28  1  0  0  0  0
M  END
>  <MODEL>
3

>  <REMARK>
 VINA RESULT:      -5.8      2.774      5.352
  Name = 
  2 active torsions:
  status: ('A' for Active; 'I' for Inactive)
    1  A    between atoms: N_11  and  C_28
    2  A    between atoms: C_28  and  N_30
                            x       y       z     vdW  Elec       q    Type
                         _______ _______ _______ _____ _____    ______ ____

>  <TORSDO>
F 2

$$$$
=
 OpenBabel11122412333D

 30 35  0  0  1  0  0  0  0  0999 V2000
  161.1100  207.8390  151.2990 C   0  0  0  0  0  0  0  0  0  0  0  0
  161.3280  205.5060  150.4250 C   0  0  0  0  0  0  0  0  0  0  0  0
  160.7040  206.4780  155.3210 C   0  0  0  0  0  2  0  0  0  0  0  0
  160.9520  208.7010  152.4140 C   0  0  0  0  0  0  0  0  0  0  0  0
  161.0960  208.4360  149.9170 C   0  0  0  0  0  2  0  0  0  0  0  0
  161.9600  211.8710  150.7770 O   0  0  0  0  0  0  0  0  0  0  0  0
  159.0760  210.6250  153.6730 C   0  0  1  0  0  3  0  0  0  0  0  0
  161.6490  210.6600  150.9450 C   0  0  0  0  0  0  0  0  0  0  0  0
  159.2210  209.6860  154.8620 C   0  0  2  0  0  3  0  0  0  0  0  0
  160.5550  207.8710  155.9600 C   0  0  1  0  0  3  0  0  0  0  0  0
  161.7650  209.7290  149.8600 N   0  0  0  0  0  0  0  0  0  0  0  0
  161.2560  210.1790  152.3110 C   0  0  1  0  0  3  0  0  0  0  0  0
  161.3950  204.1330  150.6790 C   0  0  0  0  0  3  0  0  0  0  0  0
  159.1740  210.6110  156.0280 C   0  0  0  0  0  2  0  0  0  0  0  0
  158.2770  211.7070  154.0900 O   0  0  0  0  0  0  0  0  0  0  0  0
  161.4460  205.9130  149.1370 F   0  0  0  0  0  0  0  0  0  0  0  0
  160.8660  206.7870  153.8770 C   0  0  0  0  0  0  0  0  0  0  0  0
  161.2970  203.6440  151.9800 C   0  0  0  0  0  3  0  0  0  0  0  0
  161.1600  206.4240  151.4930 C   0  0  0  0  0  0  0  0  0  0  0  0
  160.7620  208.1300  153.6730 C   0  0  0  0  0  0  0  0  0  0  0  0
  161.8000  208.1990  156.7630 C   0  0  0  0  0  1  0  0  0  0  0  0
  160.4110  208.8290  154.8590 N   0  0  0  0  0  0  0  0  0  0  0  0
  158.3110  211.7390  155.5030 C   0  0  0  0  0  2  0  0  0  0  0  0
  161.1560  211.8130  154.0630 O   0  0  0  0  0  1  0  0  0  0  0  0
  161.1300  204.5250  153.0450 C   0  0  0  0  0  3  0  0  0  0  0  0
  161.0600  205.9040  152.8160 C   0  0  0  0  0  0  0  0  0  0  0  0
  160.3870  211.1740  153.0880 C   0  0  2  0  0  3  0  0  0  0  0  0
  162.3250  210.1460  148.5830 C   0  0  0  0  0  2  0  0  0  0  0  0
  162.2900  212.2490  147.5830 C   0  0  0  0  0  1  0  0  0  0  0  0
  161.4520  211.1250  147.9600 N   0  0  0  0  0  2  0  0  0  0  0  0
  1 19  2  0  0  0  0
  1  4  1  0  0  0  0
  2 13  2  0  0  0  0
  2 19  1  0  0  0  0
  3 10  1  0  0  0  0
  4 20  2  0  0  0  0
  5  1  1  0  0  0  0
  6  8  2  0  0  0  0
  7 15  1  1  0  0  0
  7  9  1  0  0  0  0
  9 14  1  1  0  0  0
 10 21  1  6  0  0  0
 11  5  1  0  0  0  0
 11  8  1  0  0  0  0
 12  8  1  6  0  0  0
 12  4  1  0  0  0  0
 12 27  1  0  0  0  0
 13 18  1  0  0  0  0
 15 23  1  0  0  0  0
 16  2  1  0  0  0  0
 17  3  1  0  0  0  0
 18 25  2  0  0  0  0
 19 26  1  0  0  0  0
 20 17  1  0  0  0  0
 20 22  1  0  0  0  0
 22  9  1  0  0  0  0
 22 10  1  0  0  0  0
 23 14  1  0  0  0  0
 26 25  1  0  0  0  0
 26 17  2  0  0  0  0
 27  7  1  0  0  0  0
 27 24  1  1  0  0  0
 28 11  1  0  0  0  0
 29 30  1  0  0  0  0
 30 28  1  0  0  0  0
M  END
>  <MODEL>
4

>  <REMARK>
 VINA RESULT:      -5.7      2.628      5.408
  Name = 
  2 active torsions:
  status: ('A' for Active; 'I' for Inactive)
    1  A    between atoms: N_11  and  C_28
    2  A    between atoms: C_28  and  N_30
                            x       y       z     vdW  Elec       q    Type
                         _______ _______ _______ _____ _____    ______ ____

>  <TORSDO>
F 2

$$$$
=
 OpenBabel11122412333D

 30 35  0  0  1  0  0  0  0  0999 V2000
  161.0900  207.0660  151.1370 C   0  0  0  0  0  0  0  0  0  0  0  0
  161.0560  204.5960  150.7460 C   0  0  0  0  0  0  0  0  0  0  0  0
  160.6600  206.5780  155.3530 C   0  0  0  0  0  2  0  0  0  0  0  0
  161.0470  208.1440  152.0580 C   0  0  0  0  0  0  0  0  0  0  0  0
  161.0980  207.3750  149.6640 C   0  0  0  0  0  2  0  0  0  0  0  0
  162.3160  210.8070  149.8130 O   0  0  0  0  0  0  0  0  0  0  0  0
  159.4020  210.4590  152.9180 C   0  0  1  0  0  3  0  0  0  0  0  0
  161.8940  209.6910  150.2230 C   0  0  0  0  0  0  0  0  0  0  0  0
  159.4860  209.7650  154.2700 C   0  0  2  0  0  3  0  0  0  0  0  0
  160.6650  208.0780  155.7010 C   0  0  1  0  0  3  0  0  0  0  0  0
  161.8890  208.5570  149.3450 N   0  0  0  0  0  0  0  0  0  0  0  0
  161.4910  209.5330  151.6590 C   0  0  1  0  0  3  0  0  0  0  0  0
  160.9950  203.3020  151.2700 C   0  0  0  0  0  3  0  0  0  0  0  0
  159.5600  210.9030  155.2280 C   0  0  0  0  0  2  0  0  0  0  0  0
  158.7240  211.6780  153.1160 O   0  0  0  0  0  0  0  0  0  0  0  0
  161.1780  204.7250  149.4020 F   0  0  0  0  0  0  0  0  0  0  0  0
  160.8130  206.5770  153.8750 C   0  0  0  0  0  0  0  0  0  0  0  0
  160.8830  203.0920  152.6420 C   0  0  0  0  0  3  0  0  0  0  0  0
  161.0070  205.7200  151.6110 C   0  0  0  0  0  0  0  0  0  0  0  0
  160.8350  207.8560  153.4080 C   0  0  0  0  0  0  0  0  0  0  0  0
  161.9560  208.4320  156.4140 C   0  0  0  0  0  1  0  0  0  0  0  0
  160.5860  208.8090  154.4320 N   0  0  0  0  0  0  0  0  0  0  0  0
  158.7990  211.9860  154.4930 C   0  0  0  0  0  2  0  0  0  0  0  0
  161.5980  211.4850  153.0500 O   0  0  0  0  0  1  0  0  0  0  0  0
  160.8310  204.1800  153.5110 C   0  0  0  0  0  3  0  0  0  0  0  0
  160.8910  205.4850  153.0110 C   0  0  0  0  0  0  0  0  0  0  0  0
  160.7450  210.7450  152.2280 C   0  0  2  0  0  3  0  0  0  0  0  0
  162.4530  208.6530  148.0070 C   0  0  0  0  0  2  0  0  0  0  0  0
  161.5730  206.8870  146.7690 C   0  0  0  0  0  1  0  0  0  0  0  0
  162.7480  207.3230  147.5020 N   0  0  0  0  0  2  0  0  0  0  0  0
  1 19  2  0  0  0  0
  1  4  1  0  0  0  0
  2 13  2  0  0  0  0
  2 19  1  0  0  0  0
  3 10  1  0  0  0  0
  4 20  2  0  0  0  0
  5  1  1  0  0  0  0
  6  8  2  0  0  0  0
  7 15  1  1  0  0  0
  7  9  1  0  0  0  0
  9 22  1  0  0  0  0
  9 14  1  1  0  0  0
 10 21  1  6  0  0  0
 11  5  1  0  0  0  0
 11  8  1  0  0  0  0
 12  8  1  6  0  0  0
 12  4  1  0  0  0  0
 12 27  1  0  0  0  0
 13 18  1  0  0  0  0
 15 23  1  0  0  0  0
 16  2  1  0  0  0  0
 17  3  1  0  0  0  0
 18 25  2  0  0  0  0
 19 26  1  0  0  0  0
 20 17  1  0  0  0  0
 20 22  1  0  0  0  0
 22 10  1  0  0  0  0
 23 14  1  0  0  0  0
 26 25  1  0  0  0  0
 26 17  2  0  0  0  0
 27  7  1  0  0  0  0
 27 24  1  1  0  0  0
 28 11  1  0  0  0  0
 29 30  1  0  0  0  0
 30 28  1  0  0  0  0
M  END
>  <MODEL>
5

>  <REMARK>
 VINA RESULT:      -5.3      2.823      5.562
  Name = 
  2 active torsions:
  status: ('A' for Active; 'I' for Inactive)
    1  A    between atoms: N_11  and  C_28
    2  A    between atoms: C_28  and  N_30
                            x       y       z     vdW  Elec       q    Type
                         _______ _______ _______ _____ _____    ______ ____

>  <TORSDO>
F 2

$$$$
=
 OpenBabel11122412333D

 30 35  0  0  1  0  0  0  0  0999 V2000
  160.6870  210.3550  151.6460 C   0  0  0  0  0  0  0  0  0  0  0  0
  161.8300  208.3450  150.6930 C   0  0  0  0  0  0  0  0  0  0  0  0
  160.4170  208.5800  155.5160 C   0  0  0  0  0  2  0  0  0  0  0  0
  160.1160  210.9980  152.7740 C   0  0  0  0  0  0  0  0  0  0  0  0
  160.5900  211.0300  150.3040 C   0  0  0  0  0  2  0  0  0  0  0  0
  160.0460  214.4530  151.4310 O   0  0  0  0  0  0  0  0  0  0  0  0
  157.5510  211.9990  153.8830 C   0  0  1  0  0  3  0  0  0  0  0  0
  160.1860  213.2020  151.5010 C   0  0  0  0  0  0  0  0  0  0  0  0
  157.9130  211.0700  155.0330 C   0  0  2  0  0  3  0  0  0  0  0  0
  159.7060  209.7630  156.1980 C   0  0  1  0  0  3  0  0  0  0  0  0
  160.7400  212.4760  150.3940 N   0  0  0  0  0  0  0  0  0  0  0  0
  159.8650  212.4900  152.7810 C   0  0  1  0  0  3  0  0  0  0  0  0
  162.3700  207.0710  150.8870 C   0  0  0  0  0  3  0  0  0  0  0  0
  157.4160  211.8070  156.2290 C   0  0  0  0  0  2  0  0  0  0  0  0
  156.3740  212.6800  154.2500 O   0  0  0  0  0  0  0  0  0  0  0  0
  161.9150  208.8820  149.4510 F   0  0  0  0  0  0  0  0  0  0  0  0
  160.5950  209.0560  154.1200 C   0  0  0  0  0  0  0  0  0  0  0  0
  162.3310  206.4630  152.1390 C   0  0  0  0  0  3  0  0  0  0  0  0
  161.2330  209.0410  151.7760 C   0  0  0  0  0  0  0  0  0  0  0  0
  160.0260  210.2850  153.9710 C   0  0  0  0  0  0  0  0  0  0  0  0
  160.6580  210.4410  157.1650 C   0  0  0  0  0  1  0  0  0  0  0  0
  159.3280  210.7020  155.1360 N   0  0  0  0  0  0  0  0  0  0  0  0
  156.2560  212.5940  155.6560 C   0  0  0  0  0  2  0  0  0  0  0  0
  159.0020  213.8130  154.5860 O   0  0  0  0  0  1  0  0  0  0  0  0
  161.7490  207.1250  153.2170 C   0  0  0  0  0  3  0  0  0  0  0  0
  161.2020  208.4010  153.0490 C   0  0  0  0  0  0  0  0  0  0  0  0
  158.6210  213.0320  153.4930 C   0  0  2  0  0  3  0  0  0  0  0  0
  161.2310  213.1800  149.2180 C   0  0  0  0  0  2  0  0  0  0  0  0
  163.0430  212.5790  147.8860 C   0  0  0  0  0  1  0  0  0  0  0  0
  161.6780  212.2210  148.2230 N   0  0  0  0  0  2  0  0  0  0  0  0
  1 19  2  0  0  0  0
  1  4  1  0  0  0  0
  2 13  2  0  0  0  0
  2 19  1  0  0  0  0
  3 10  1  0  0  0  0
  4 12  1  0  0  0  0
  4 20  2  0  0  0  0
  5 11  1  0  0  0  0
  5  1  1  0  0  0  0
  6  8  2  0  0  0  0
  7 15  1  1  0  0  0
  7  9  1  0  0  0  0
  9 22  1  0  0  0  0
  9 14  1  1  0  0  0
 10 21  1  1  0  0  0
 11  8  1  0  0  0  0
 12  8  1  6  0  0  0
 12 27  1  0  0  0  0
 13 18  1  0  0  0  0
 15 23  1  0  0  0  0
 16  2  1  0  0  0  0
 17  3  1  0  0  0  0
 18 25  2  0  0  0  0
 19 26  1  0  0  0  0
 20 17  1  0  0  0  0
 20 22  1  0  0  0  0
 22 10  1  0  0  0  0
 23 14  1  0  0  0  0
 26 25  1  0  0  0  0
 26 17  2  0  0  0  0
 27  7  1  0  0  0  0
 27 24  1  1  0  0  0
 28 11  1  0  0  0  0
 29 30  1  0  0  0  0
 30 28  1  0  0  0  0
M  END
>  <MODEL>
6

>  <REMARK>
 VINA RESULT:      -5.1      2.607      4.991
  Name = 
  2 active torsions:
  status: ('A' for Active; 'I' for Inactive)
    1  A    between atoms: N_11  and  C_28
    2  A    between atoms: C_28  and  N_30
                            x       y       z     vdW  Elec       q    Type
                         _______ _______ _______ _____ _____    ______ ____

>  <TORSDO>
F 2

$$$$
=
 OpenBabel11122412333D

 30 35  0  0  1  0  0  0  0  0999 V2000
  161.6100  208.3250  151.9000 C   0  0  0  0  0  0  0  0  0  0  0  0
  162.3690  208.2440  149.5180 C   0  0  0  0  0  0  0  0  0  0  0  0
  160.4130  212.4060  151.5570 C   0  0  0  0  0  2  0  0  0  0  0  0
  161.0290  209.0710  152.9570 C   0  0  0  0  0  0  0  0  0  0  0  0
  162.1220  206.9400  152.1890 C   0  0  0  0  0  2  0  0  0  0  0  0
  160.1870  206.2410  155.1980 O   0  0  0  0  0  0  0  0  0  0  0  0
  161.6050  210.2490  155.6190 C   0  0  1  0  0  3  0  0  0  0  0  0
  160.6560  206.8980  154.2290 C   0  0  0  0  0  0  0  0  0  0  0  0
  161.1490  211.5290  154.9330 C   0  0  2  0  0  3  0  0  0  0  0  0
  159.9220  212.5630  153.0080 C   0  0  1  0  0  3  0  0  0  0  0  0
  161.2750  206.2170  153.1290 N   0  0  0  0  0  0  0  0  0  0  0  0
  160.4730  208.3860  154.1850 C   0  0  1  0  0  3  0  0  0  0  0  0
  162.5130  208.8850  148.2840 C   0  0  0  0  0  3  0  0  0  0  0  0
  160.4350  212.2570  156.0190 C   0  0  0  0  0  2  0  0  0  0  0  0
  161.8440  210.5620  156.9710 O   0  0  0  0  0  0  0  0  0  0  0  0
  162.7700  206.9510  149.6050 F   0  0  0  0  0  0  0  0  0  0  0  0
  160.8700  210.9930  151.5100 C   0  0  0  0  0  0  0  0  0  0  0  0
  162.1100  210.2080  148.1170 C   0  0  0  0  0  3  0  0  0  0  0  0
  161.8050  208.9350  150.6220 C   0  0  0  0  0  0  0  0  0  0  0  0
  160.7420  210.4200  152.7390 C   0  0  0  0  0  0  0  0  0  0  0  0
  158.4090  212.6790  153.0240 C   0  0  0  0  0  1  0  0  0  0  0  0
  160.3310  211.3530  153.7290 N   0  0  0  0  0  0  0  0  0  0  0  0
  161.1540  211.7630  157.2570 C   0  0  0  0  0  2  0  0  0  0  0  0
  159.3690  209.4110  156.0510 O   0  0  0  0  0  1  0  0  0  0  0  0
  161.5560  210.9070  149.1860 C   0  0  0  0  0  3  0  0  0  0  0  0
  161.4000  210.2870  150.4300 C   0  0  0  0  0  0  0  0  0  0  0  0
  160.6260  209.0660  155.5500 C   0  0  2  0  0  3  0  0  0  0  0  0
  161.2900  204.7620  153.0710 C   0  0  0  0  0  2  0  0  0  0  0  0
  161.3200  202.8790  151.7020 C   0  0  0  0  0  1  0  0  0  0  0  0
  161.1840  204.3240  151.6910 N   0  0  0  0  0  2  0  0  0  0  0  0
  1  5  1  0  0  0  0
  1  4  1  0  0  0  0
  2 16  1  0  0  0  0
  2 19  1  0  0  0  0
  3 10  1  0  0  0  0
  5 11  1  0  0  0  0
  7 15  1  1  0  0  0
  8  6  2  0  0  0  0
  9  7  1  0  0  0  0
  9 14  1  1  0  0  0
 10 21  1  6  0  0  0
 10 22  1  0  0  0  0
 11  8  1  0  0  0  0
 12  4  1  6  0  0  0
 12  8  1  0  0  0  0
 12 27  1  0  0  0  0
 13  2  2  0  0  0  0
 14 23  1  0  0  0  0
 15 23  1  0  0  0  0
 17  3  1  0  0  0  0
 17 20  1  0  0  0  0
 18 13  1  0  0  0  0
 18 25  2  0  0  0  0
 19  1  2  0  0  0  0
 20  4  2  0  0  0  0
 20 22  1  0  0  0  0
 22  9  1  0  0  0  0
 25 26  1  0  0  0  0
 26 19  1  0  0  0  0
 26 17  2  0  0  0  0
 27  7  1  0  0  0  0
 27 24  1  6  0  0  0
 28 11  1  0  0  0  0
 30 29  1  0  0  0  0
 30 28  1  0  0  0  0
M  END
>  <MODEL>
7

>  <REMARK>
 VINA RESULT:      -5.1      2.056      2.984
  Name = 
  2 active torsions:
  status: ('A' for Active; 'I' for Inactive)
    1  A    between atoms: N_11  and  C_28
    2  A    between atoms: C_28  and  N_30
                            x       y       z     vdW  Elec       q    Type
                         _______ _______ _______ _____ _____    ______ ____

>  <TORSDO>
F 2

$$$$
=
 OpenBabel11122412333D

 30 35  0  0  1  0  0  0  0  0999 V2000
  160.9180  210.6680  152.1300 C   0  0  0  0  0  0  0  0  0  0  0  0
  161.9930  210.6260  149.8730 C   0  0  0  0  0  0  0  0  0  0  0  0
  158.8850  214.3220  151.2830 C   0  0  0  0  0  2  0  0  0  0  0  0
  160.0440  211.3170  153.0400 C   0  0  0  0  0  0  0  0  0  0  0  0
  161.6860  209.4630  152.6020 C   0  0  0  0  0  2  0  0  0  0  0  0
  159.5690  208.5070  155.4110 O   0  0  0  0  0  0  0  0  0  0  0  0
  159.9700  212.7550  155.6350 C   0  0  1  0  0  3  0  0  0  0  0  0
  160.0050  209.1980  154.4490 C   0  0  0  0  0  0  0  0  0  0  0  0
  159.3340  213.8480  154.7870 C   0  0  2  0  0  3  0  0  0  0  0  0
  158.1780  214.4450  152.6460 C   0  0  1  0  0  3  0  0  0  0  0  0
  160.9060  208.6180  153.4960 N   0  0  0  0  0  0  0  0  0  0  0  0
  159.4970  210.5950  154.2510 C   0  0  1  0  0  3  0  0  0  0  0  0
  162.1540  211.2080  148.6120 C   0  0  0  0  0  3  0  0  0  0  0  0
  158.3330  214.4500  155.7110 C   0  0  0  0  0  2  0  0  0  0  0  0
  159.9460  213.1970  156.9720 O   0  0  0  0  0  0  0  0  0  0  0  0
  162.6600  209.4720  150.1230 F   0  0  0  0  0  0  0  0  0  0  0  0
  159.6530  213.0570  151.4180 C   0  0  0  0  0  0  0  0  0  0  0  0
  161.4880  212.3850  148.2800 C   0  0  0  0  0  3  0  0  0  0  0  0
  161.1420  211.2290  150.8350 C   0  0  0  0  0  0  0  0  0  0  0  0
  159.4910  212.5440  152.6690 C   0  0  0  0  0  0  0  0  0  0  0  0
  156.6910  214.2010  152.4720 C   0  0  0  0  0  1  0  0  0  0  0  0
  158.7490  213.4120  153.5160 N   0  0  0  0  0  0  0  0  0  0  0  0
  158.9700  214.2150  157.0650 C   0  0  0  0  0  2  0  0  0  0  0  0
  157.9450  211.4400  155.8730 O   0  0  0  0  0  1  0  0  0  0  0  0
  160.6500  212.9970  149.2080 C   0  0  0  0  0  3  0  0  0  0  0  0
  160.4710  212.4330  150.4760 C   0  0  0  0  0  0  0  0  0  0  0  0
  159.3040  211.3730  155.5570 C   0  0  2  0  0  3  0  0  0  0  0  0
  161.2580  207.2070  153.5720 C   0  0  0  0  0  2  0  0  0  0  0  0
  161.3640  205.5160  151.9750 C   0  0  0  0  0  1  0  0  0  0  0  0
  161.9250  206.8010  152.3480 N   0  0  0  0  0  2  0  0  0  0  0  0
  1  5  1  0  0  0  0
  1  4  1  0  0  0  0
  2 16  1  0  0  0  0
  2 19  1  0  0  0  0
  3 17  1  0  0  0  0
  3 10  1  0  0  0  0
  5 11  1  0  0  0  0
  7 15  1  1  0  0  0
  8  6  2  0  0  0  0
  9  7  1  0  0  0  0
  9 14  1  1  0  0  0
 10 21  1  6  0  0  0
 10 22  1  0  0  0  0
 11 28  1  0  0  0  0
 11  8  1  0  0  0  0
 12  4  1  6  0  0  0
 12  8  1  0  0  0  0
 12 27  1  0  0  0  0
 13  2  2  0  0  0  0
 14 23  1  0  0  0  0
 15 23  1  0  0  0  0
 17 20  1  0  0  0  0
 18 13  1  0  0  0  0
 18 25  2  0  0  0  0
 19  1  2  0  0  0  0
 20  4  2  0  0  0  0
 20 22  1  0  0  0  0
 22  9  1  0  0  0  0
 25 26  1  0  0  0  0
 26 19  1  0  0  0  0
 26 17  2  0  0  0  0
 27  7  1  0  0  0  0
 27 24  1  6  0  0  0
 29 30  1  0  0  0  0
 30 28  1  0  0  0  0
M  END
>  <MODEL>
8

>  <REMARK>
 VINA RESULT:      -4.9      1.983      2.843
  Name = 
  2 active torsions:
  status: ('A' for Active; 'I' for Inactive)
    1  A    between atoms: N_11  and  C_28
    2  A    between atoms: C_28  and  N_30
                            x       y       z     vdW  Elec       q    Type
                         _______ _______ _______ _____ _____    ______ ____

>  <TORSDO>
F 2

$$$$
=
 OpenBabel11122412333D

 30 35  0  0  1  0  0  0  0  0999 V2000
  161.4370  210.3310  150.0710 C   0  0  0  0  0  0  0  0  0  0  0  0
  162.3670  208.0520  149.6290 C   0  0  0  0  0  0  0  0  0  0  0  0
  160.4590  209.3380  154.1030 C   0  0  0  0  0  2  0  0  0  0  0  0
  160.8430  211.2360  150.9870 C   0  0  0  0  0  0  0  0  0  0  0  0
  161.5980  210.7570  148.6360 C   0  0  0  0  0  2  0  0  0  0  0  0
  161.4470  214.3690  149.1000 O   0  0  0  0  0  0  0  0  0  0  0  0
  158.3470  212.7410  151.5480 C   0  0  1  0  0  3  0  0  0  0  0  0
  161.3890  213.1430  149.3920 C   0  0  0  0  0  0  0  0  0  0  0  0
  158.4310  211.9980  152.8740 C   0  0  2  0  0  3  0  0  0  0  0  0
  159.8600  210.7060  154.4760 C   0  0  1  0  0  3  0  0  0  0  0  0
  161.9520  212.1640  148.5080 N   0  0  0  0  0  0  0  0  0  0  0  0
  160.8190  212.7230  150.7150 C   0  0  1  0  0  3  0  0  0  0  0  0
  162.6840  206.7750  150.1020 C   0  0  0  0  0  3  0  0  0  0  0  0
  157.9150  212.9970  153.8510 C   0  0  0  0  0  2  0  0  0  0  0  0
  157.2510  213.6220  151.6300 O   0  0  0  0  0  0  0  0  0  0  0  0
  162.6750  208.3380  148.3400 F   0  0  0  0  0  0  0  0  0  0  0  0
  160.8660  209.5260  152.6860 C   0  0  0  0  0  0  0  0  0  0  0  0
  162.4100  206.4150  151.4200 C   0  0  0  0  0  3  0  0  0  0  0  0
  161.7610  209.0030  150.4890 C   0  0  0  0  0  0  0  0  0  0  0  0
  160.5090  210.7700  152.2600 C   0  0  0  0  0  0  0  0  0  0  0  0
  160.7860  211.4220  155.4420 C   0  0  0  0  0  1  0  0  0  0  0  0
  159.7530  211.4770  153.2330 N   0  0  0  0  0  0  0  0  0  0  0  0
  156.9600  213.8080  153.0010 C   0  0  0  0  0  2  0  0  0  0  0  0
  159.9630  214.4520  152.1390 O   0  0  0  0  0  1  0  0  0  0  0  0
  161.8130  207.3310  152.2830 C   0  0  0  0  0  3  0  0  0  0  0  0
  161.4880  208.6150  151.8330 C   0  0  0  0  0  0  0  0  0  0  0  0
  159.5970  213.5400  151.1470 C   0  0  2  0  0  3  0  0  0  0  0  0
  162.6750  212.5740  147.3130 C   0  0  0  0  0  2  0  0  0  0  0  0
  161.9360  214.0290  145.6510 C   0  0  0  0  0  1  0  0  0  0  0  0
  161.7510  212.6970  146.1990 N   0  0  0  0  0  2  0  0  0  0  0  0
  1 19  2  0  0  0  0
  1  4  1  0  0  0  0
  2 13  2  0  0  0  0
  2 19  1  0  0  0  0
  3 10  1  0  0  0  0
  4 20  2  0  0  0  0
  5  1  1  0  0  0  0
  6  8  2  0  0  0  0
  7 15  1  1  0  0  0
  7  9  1  0  0  0  0
  9 22  1  0  0  0  0
  9 14  1  1  0  0  0
 10 21  1  1  0  0  0
 11  5  1  0  0  0  0
 11  8  1  0  0  0  0
 12  8  1  6  0  0  0
 12  4  1  0  0  0  0
 12 27  1  0  0  0  0
 13 18  1  0  0  0  0
 15 23  1  0  0  0  0
 16  2  1  0  0  0  0
 17  3  1  0  0  0  0
 18 25  2  0  0  0  0
 19 26  1  0  0  0  0
 20 17  1  0  0  0  0
 20 22  1  0  0  0  0
 22 10  1  0  0  0  0
 23 14  1  0  0  0  0
 26 25  1  0  0  0  0
 26 17  2  0  0  0  0
 27  7  1  0  0  0  0
 27 24  1  1  0  0  0
 28 11  1  0  0  0  0
 29 30  1  0  0  0  0
 30 28  1  0  0  0  0
M  END
>  <MODEL>
9

>  <REMARK>
 VINA RESULT:      -4.7      2.922      5.235
  Name = 
  2 active torsions:
  status: ('A' for Active; 'I' for Inactive)
    1  A    between atoms: N_11  and  C_28
    2  A    between atoms: C_28  and  N_30
                            x       y       z     vdW  Elec       q    Type
                         _______ _______ _______ _____ _____    ______ ____

>  <TORSDO>
F 2

$$$$
