=
 OpenBabel11122412323D

 30 35  0  0  1  0  0  0  0  0999 V2000
  161.2170  210.8690  151.1450 C   0  0  0  0  0  0  0  0  0  0  0  0
  161.6770  212.1090  148.9510 C   0  0  0  0  0  0  0  0  0  0  0  0
  158.5060  214.2490  152.6280 S   0  0  0  0  0  0  0  0  0  0  0  0
  160.5470  210.8120  152.3900 C   0  0  0  0  0  0  0  0  0  0  0  0
  162.1920  209.7770  150.7960 C   0  0  0  0  0  2  0  0  0  0  0  0
  160.7280  207.2100  152.9400 O   0  0  0  0  0  0  0  0  0  0  0  0
  161.1180  211.1190  155.2340 C   0  0  1  0  0  3  0  0  0  0  0  0
  161.0330  208.3480  152.4940 C   0  0  0  0  0  0  0  0  0  0  0  0
  159.6300  211.3320  155.2740 C   0  0  1  0  0  3  0  0  0  0  0  0
  158.3520  213.2890  154.1850 C   0  0  1  0  0  3  0  0  0  0  0  0
  161.7100  208.4750  151.2350 N   0  0  0  0  0  0  0  0  0  0  0  0
  160.6480  209.5790  153.2720 C   0  0  1  0  0  3  0  0  0  0  0  0
  161.1360  213.0710  147.9330 C   0  0  0  0  0  2  0  0  0  0  0  0
  159.4430  212.0820  156.5730 C   0  0  0  0  0  2  0  0  0  0  0  0
  161.5940  211.2120  156.6030 N   0  0  0  0  0  2  0  0  0  0  0  0
  162.6730  211.4040  148.6400 O   0  0  0  0  0  0  0  0  0  0  0  0
  159.5300  212.9600  151.9320 C   0  0  0  0  0  0  0  0  0  0  0  0
  160.4150  214.2320  148.5600 C   0  0  0  0  0  3  0  0  0  0  0  0
  161.0110  211.9760  150.2770 C   0  0  0  0  0  0  0  0  0  0  0  0
  159.7480  211.9060  152.7850 C   0  0  0  0  0  0  0  0  0  0  0  0
  156.9030  212.8850  154.3810 C   0  0  0  0  0  1  0  0  0  0  0  0
  159.1920  212.0940  154.0920 N   0  0  0  0  0  0  0  0  0  0  0  0
  160.7330  212.1120  157.2600 N   0  0  0  0  0  2  0  0  0  0  0  0
  161.3070  208.6170  155.5010 C   0  0  0  0  0  1  0  0  0  0  0  0
  159.9310  214.1870  149.8020 C   0  0  0  0  0  3  0  0  0  0  0  0
  160.1370  213.0140  150.6730 C   0  0  0  0  0  0  0  0  0  0  0  0
  161.4930  209.7940  154.5460 C   0  0  2  0  0  3  0  0  0  0  0  0
  162.1160  207.3010  150.4770 C   0  0  0  0  0  2  0  0  0  0  0  0
  160.6250  205.5020  149.6620 C   0  0  0  0  0  1  0  0  0  0  0  0
  161.0480  206.9420  149.4600 C   0  0  0  0  0  2  0  0  0  0  0  0
  1  4  1  0  0  0  0
  2 19  1  0  0  0  0
  3 10  1  0  0  0  0
  4 20  2  0  0  0  0
  5  1  1  0  0  0  0
  5 11  1  0  0  0  0
  7  9  1  0  0  0  0
  7 15  1  1  0  0  0
  8  6  2  0  0  0  0
  8 12  1  0  0  0  0
  9 14  1  1  0  0  0
 10 21  1  6  0  0  0
 11  8  1  0  0  0  0
 12  4  1  6  0  0  0
 12 27  1  0  0  0  0
 13 18  1  0  0  0  0
 13  2  1  0  0  0  0
 14 23  1  0  0  0  0
 15 23  1  0  0  0  0
 16  2  2  0  0  0  0
 17  3  1  0  0  0  0
 17 20  1  0  0  0  0
 18 25  2  0  0  0  0
 19 26  1  0  0  0  0
 19  1  2  0  0  0  0
 20 22  1  0  0  0  0
 22 10  1  0  0  0  0
 22  9  1  0  0  0  0
 25 26  1  0  0  0  0
 26 17  2  0  0  0  0
 27  7  1  0  0  0  0
 27 24  1  1  0  0  0
 28 11  1  0  0  0  0
 30 29  1  0  0  0  0
 30 28  1  0  0  0  0
M  END
>  <MODEL>
1

>  <REMARK>
 VINA RESULT:      -6.9      0.000      0.000
  Name = 
  2 active torsions:
  status: ('A' for Active; 'I' for Inactive)
    1  A    between atoms: N_11  and  C_28
    2  A    between atoms: C_28  and  C_30
                            x       y       z     vdW  Elec       q    Type
                         _______ _______ _______ _____ _____    ______ ____

>  <TORSDO>
F 2

$$$$
=
 OpenBabel11122412323D

 30 35  0  0  1  0  0  0  0  0999 V2000
  161.4420  208.6940  152.4120 C   0  0  0  0  0  0  0  0  0  0  0  0
  162.3290  208.6160  150.0110 C   0  0  0  0  0  0  0  0  0  0  0  0
  159.9760  212.9980  151.8590 S   0  0  0  0  0  0  0  0  0  0  0  0
  160.7660  209.4020  153.4350 C   0  0  0  0  0  0  0  0  0  0  0  0
  162.0060  207.3350  152.7240 C   0  0  0  0  0  2  0  0  0  0  0  0
  159.7320  206.5590  155.4730 O   0  0  0  0  0  0  0  0  0  0  0  0
  161.3510  210.7850  155.9350 C   0  0  1  0  0  3  0  0  0  0  0  0
  160.4060  207.2300  154.6470 C   0  0  0  0  0  0  0  0  0  0  0  0
  160.0170  211.4110  155.6340 C   0  0  1  0  0  3  0  0  0  0  0  0
  159.4810  212.9360  153.6250 C   0  0  1  0  0  3  0  0  0  0  0  0
  161.1110  206.5730  153.5840 N   0  0  0  0  0  0  0  0  0  0  0  0
  160.4360  208.7320  154.7580 C   0  0  1  0  0  3  0  0  0  0  0  0
  162.1580  209.1230  148.6080 C   0  0  0  0  0  2  0  0  0  0  0  0
  160.0640  212.6860  156.4450 C   0  0  0  0  0  2  0  0  0  0  0  0
  161.8040  211.3470  157.1960 N   0  0  0  0  0  2  0  0  0  0  0  0
  163.0410  207.5940  150.1960 O   0  0  0  0  0  0  0  0  0  0  0  0
  160.5280  211.3000  151.9520 C   0  0  0  0  0  0  0  0  0  0  0  0
  161.8510  210.5930  148.5580 C   0  0  0  0  0  3  0  0  0  0  0  0
  161.6310  209.2950  151.1380 C   0  0  0  0  0  0  0  0  0  0  0  0
  160.3680  210.7340  153.1930 C   0  0  0  0  0  0  0  0  0  0  0  0
  157.9770  213.1010  153.7290 C   0  0  0  0  0  1  0  0  0  0  0  0
  159.8800  211.6440  154.1860 N   0  0  0  0  0  0  0  0  0  0  0  0
  161.2780  212.6520  157.2590 N   0  0  0  0  0  2  0  0  0  0  0  0
  160.6950  208.7400  157.2590 C   0  0  0  0  0  1  0  0  0  0  0  0
  161.3540  211.2570  149.6030 C   0  0  0  0  0  3  0  0  0  0  0  0
  161.1430  210.6010  150.9080 C   0  0  0  0  0  0  0  0  0  0  0  0
  161.2790  209.2480  155.9430 C   0  0  2  0  0  3  0  0  0  0  0  0
  161.1200  205.1220  153.4700 C   0  0  0  0  0  2  0  0  0  0  0  0
  161.0480  203.2120  151.9000 C   0  0  0  0  0  1  0  0  0  0  0  0
  161.2020  204.7140  152.0110 C   0  0  0  0  0  2  0  0  0  0  0  0
  1  5  1  0  0  0  0
  1  4  1  0  0  0  0
  2 16  2  0  0  0  0
  2 19  1  0  0  0  0
  3 17  1  0  0  0  0
  3 10  1  0  0  0  0
  5 11  1  0  0  0  0
  7 27  1  0  0  0  0
  7 15  1  1  0  0  0
  8 12  1  0  0  0  0
  8  6  2  0  0  0  0
  9  7  1  0  0  0  0
  9 14  1  1  0  0  0
 10 21  1  6  0  0  0
 10 22  1  0  0  0  0
 11  8  1  0  0  0  0
 12  4  1  6  0  0  0
 12 27  1  0  0  0  0
 13  2  1  0  0  0  0
 14 23  1  0  0  0  0
 15 23  1  0  0  0  0
 17 20  1  0  0  0  0
 18 13  1  0  0  0  0
 18 25  2  0  0  0  0
 19  1  2  0  0  0  0
 20  4  2  0  0  0  0
 20 22  1  0  0  0  0
 22  9  1  0  0  0  0
 25 26  1  0  0  0  0
 26 19  1  0  0  0  0
 26 17  2  0  0  0  0
 27 24  1  1  0  0  0
 28 11  1  0  0  0  0
 29 30  1  0  0  0  0
 30 28  1  0  0  0  0
M  END
>  <MODEL>
2

>  <REMARK>
 VINA RESULT:      -5.9      1.832      2.543
  Name = 
  2 active torsions:
  status: ('A' for Active; 'I' for Inactive)
    1  A    between atoms: N_11  and  C_28
    2  A    between atoms: C_28  and  C_30
                            x       y       z     vdW  Elec       q    Type
                         _______ _______ _______ _____ _____    ______ ____

>  <TORSDO>
F 2

$$$$
=
 OpenBabel11122412323D

 30 35  0  0  1  0  0  0  0  0999 V2000
  161.0040  207.3580  151.3110 C   0  0  0  0  0  0  0  0  0  0  0  0
  160.8320  204.8530  150.8070 C   0  0  0  0  0  0  0  0  0  0  0  0
  160.8640  206.5830  155.8220 S   0  0  0  0  0  0  0  0  0  0  0  0
  161.0940  208.4030  152.2630 C   0  0  0  0  0  0  0  0  0  0  0  0
  160.9230  207.7140  149.8510 C   0  0  0  0  0  2  0  0  0  0  0  0
  162.5660  210.9630  150.1220 O   0  0  0  0  0  0  0  0  0  0  0  0
  159.4400  210.5200  153.3970 C   0  0  1  0  0  3  0  0  0  0  0  0
  161.9190  209.9320  150.4480 C   0  0  0  0  0  0  0  0  0  0  0  0
  160.4790  210.4340  154.4820 C   0  0  1  0  0  3  0  0  0  0  0  0
  160.8920  208.4070  156.0220 C   0  0  1  0  0  3  0  0  0  0  0  0
  161.7940  208.8370  149.5290 N   0  0  0  0  0  0  0  0  0  0  0  0
  161.3110  209.8400  151.8220 C   0  0  1  0  0  3  0  0  0  0  0  0
  161.1460  203.4660  151.2900 C   0  0  0  0  0  2  0  0  0  0  0  0
  159.7650  211.0450  155.6660 C   0  0  0  0  0  2  0  0  0  0  0  0
  158.5160  211.5710  153.7830 N   0  0  0  0  0  2  0  0  0  0  0  0
  160.5270  205.0110  149.5960 O   0  0  0  0  0  0  0  0  0  0  0  0
  160.9730  206.7730  154.0490 C   0  0  0  0  0  0  0  0  0  0  0  0
  160.8900  203.2940  152.7610 C   0  0  0  0  0  3  0  0  0  0  0  0
  160.9280  206.0070  151.7440 C   0  0  0  0  0  0  0  0  0  0  0  0
  161.0190  208.0830  153.6350 C   0  0  0  0  0  0  0  0  0  0  0  0
  162.1530  208.8100  156.7640 C   0  0  0  0  0  1  0  0  0  0  0  0
  160.8740  209.0320  154.6980 N   0  0  0  0  0  0  0  0  0  0  0  0
  158.4890  211.5770  155.1910 N   0  0  0  0  0  2  0  0  0  0  0  0
  160.4560  212.2060  151.8190 C   0  0  0  0  0  1  0  0  0  0  0  0
  160.8310  204.3280  153.6020 C   0  0  0  0  0  3  0  0  0  0  0  0
  160.9390  205.7210  153.1280 C   0  0  0  0  0  0  0  0  0  0  0  0
  160.0710  210.7410  152.0110 C   0  0  2  0  0  3  0  0  0  0  0  0
  162.3500  208.9120  148.1870 C   0  0  0  0  0  2  0  0  0  0  0  0
  161.5410  206.9530  146.9090 C   0  0  0  0  0  1  0  0  0  0  0  0
  162.7060  207.5220  147.6920 C   0  0  0  0  0  2  0  0  0  0  0  0
  1 19  2  0  0  0  0
  1  4  1  0  0  0  0
  2 13  1  0  0  0  0
  2 19  1  0  0  0  0
  3 10  1  0  0  0  0
  4 20  2  0  0  0  0
  5  1  1  0  0  0  0
  6  8  2  0  0  0  0
  7 15  1  1  0  0  0
  7  9  1  0  0  0  0
  9 22  1  0  0  0  0
  9 14  1  1  0  0  0
 10 21  1  6  0  0  0
 11  5  1  0  0  0  0
 11  8  1  0  0  0  0
 12  8  1  6  0  0  0
 12 27  1  0  0  0  0
 12  4  1  0  0  0  0
 13 18  1  0  0  0  0
 15 23  1  0  0  0  0
 16  2  2  0  0  0  0
 17  3  1  0  0  0  0
 18 25  2  0  0  0  0
 19 26  1  0  0  0  0
 20 17  1  0  0  0  0
 20 22  1  0  0  0  0
 22 10  1  0  0  0  0
 23 14  1  0  0  0  0
 26 25  1  0  0  0  0
 26 17  2  0  0  0  0
 27 24  1  1  0  0  0
 27  7  1  0  0  0  0
 28 11  1  0  0  0  0
 29 30  1  0  0  0  0
 30 28  1  0  0  0  0
M  END
>  <MODEL>
3

>  <REMARK>
 VINA RESULT:      -5.0      2.622      5.626
  Name = 
  2 active torsions:
  status: ('A' for Active; 'I' for Inactive)
    1  A    between atoms: N_11  and  C_28
    2  A    between atoms: C_28  and  C_30
                            x       y       z     vdW  Elec       q    Type
                         _______ _______ _______ _____ _____    ______ ____

>  <TORSDO>
F 2

$$$$
=
 OpenBabel11122412323D

 30 35  0  0  1  0  0  0  0  0999 V2000
  159.1730  212.6680  153.0290 C   0  0  0  0  0  0  0  0  0  0  0  0
  159.3510  212.2080  155.5420 C   0  0  0  0  0  0  0  0  0  0  0  0
  162.4200  209.5730  152.1090 S   0  0  0  0  0  0  0  0  0  0  0  0
  159.5810  212.3690  151.7070 C   0  0  0  0  0  0  0  0  0  0  0  0
  158.1960  213.7920  153.2480 C   0  0  0  0  0  2  0  0  0  0  0  0
  156.6780  213.6790  149.9300 O   0  0  0  0  0  0  0  0  0  0  0  0
  161.2100  213.5130  149.5760 C   0  0  1  0  0  3  0  0  0  0  0  0
  157.5260  213.5340  150.8500 C   0  0  0  0  0  0  0  0  0  0  0  0
  161.1970  212.0820  149.1120 C   0  0  1  0  0  3  0  0  0  0  0  0
  162.2470  210.0810  150.3540 C   0  0  1  0  0  3  0  0  0  0  0  0
  157.1730  213.8170  152.2120 N   0  0  0  0  0  0  0  0  0  0  0  0
  158.9030  213.0250  150.5160 C   0  0  1  0  0  3  0  0  0  0  0  0
  159.6640  211.1860  156.5970 C   0  0  0  0  0  2  0  0  0  0  0  0
  162.4130  212.0190  148.2160 C   0  0  0  0  0  2  0  0  0  0  0  0
  161.9740  214.2660  148.5970 N   0  0  0  0  0  2  0  0  0  0  0  0
  158.7360  213.2520  155.8840 O   0  0  0  0  0  0  0  0  0  0  0  0
  161.1220  210.7120  152.5680 C   0  0  0  0  0  0  0  0  0  0  0  0
  160.8630  210.3480  156.2520 C   0  0  0  0  0  3  0  0  0  0  0  0
  159.7300  211.9540  154.1240 C   0  0  0  0  0  0  0  0  0  0  0  0
  160.6060  211.4190  151.5090 C   0  0  0  0  0  0  0  0  0  0  0  0
  161.7670  208.8970  149.5350 C   0  0  0  0  0  1  0  0  0  0  0  0
  161.2750  211.1720  150.2670 N   0  0  0  0  0  0  0  0  0  0  0  0
  162.9370  213.3770  148.0790 N   0  0  0  0  0  2  0  0  0  0  0  0
  159.1510  214.4530  148.4610 C   0  0  0  0  0  1  0  0  0  0  0  0
  161.3080  210.2160  155.0020 C   0  0  0  0  0  3  0  0  0  0  0  0
  160.6940  210.9500  153.8780 C   0  0  0  0  0  0  0  0  0  0  0  0
  159.7880  214.0620  149.7920 C   0  0  2  0  0  3  0  0  0  0  0  0
  155.8580  214.3350  152.5570 C   0  0  0  0  0  2  0  0  0  0  0  0
  154.9720  214.4000  154.8660 C   0  0  0  0  0  1  0  0  0  0  0  0
  155.2490  213.5080  153.6740 C   0  0  0  0  0  2  0  0  0  0  0  0
  1  5  1  0  0  0  0
  1 19  1  0  0  0  0
  2 16  2  0  0  0  0
  2 13  1  0  0  0  0
  3 17  1  0  0  0  0
  4  1  2  0  0  0  0
  6  8  2  0  0  0  0
  7 15  1  6  0  0  0
  7 27  1  0  0  0  0
  8 11  1  0  0  0  0
  9 14  1  6  0  0  0
  9  7  1  0  0  0  0
  9 22  1  0  0  0  0
 10 21  1  6  0  0  0
 10  3  1  0  0  0  0
 11 28  1  0  0  0  0
 11  5  1  0  0  0  0
 12  8  1  1  0  0  0
 12  4  1  0  0  0  0
 17 26  1  0  0  0  0
 18 13  1  0  0  0  0
 19  2  1  0  0  0  0
 20  4  1  0  0  0  0
 20 17  2  0  0  0  0
 22 10  1  0  0  0  0
 22 20  1  0  0  0  0
 23 14  1  0  0  0  0
 23 15  1  0  0  0  0
 25 18  2  0  0  0  0
 26 19  2  0  0  0  0
 26 25  1  0  0  0  0
 27 24  1  6  0  0  0
 27 12  1  0  0  0  0
 28 30  1  0  0  0  0
 30 29  1  0  0  0  0
M  END
>  <MODEL>
4

>  <REMARK>
 VINA RESULT:      -4.3      3.049      7.157
  Name = 
  2 active torsions:
  status: ('A' for Active; 'I' for Inactive)
    1  A    between atoms: N_11  and  C_28
    2  A    between atoms: C_28  and  C_30
                            x       y       z     vdW  Elec       q    Type
                         _______ _______ _______ _____ _____    ______ ____

>  <TORSDO>
F 2

$$$$
=
 OpenBabel11122412323D

 30 35  0  0  1  0  0  0  0  0999 V2000
  160.7950  210.1480  151.6120 C   0  0  0  0  0  0  0  0  0  0  0  0
  161.6440  207.7540  151.2840 C   0  0  0  0  0  0  0  0  0  0  0  0
  160.0490  209.4010  156.0690 S   0  0  0  0  0  0  0  0  0  0  0  0
  160.3110  211.1570  152.4790 C   0  0  0  0  0  0  0  0  0  0  0  0
  160.8840  210.4410  150.1390 C   0  0  0  0  0  2  0  0  0  0  0  0
  161.1530  214.0690  150.4500 O   0  0  0  0  0  0  0  0  0  0  0  0
  157.8130  212.5200  153.1220 C   0  0  1  0  0  3  0  0  0  0  0  0
  160.8710  212.8740  150.7310 C   0  0  0  0  0  0  0  0  0  0  0  0
  158.5750  212.8300  154.3820 C   0  0  1  0  0  3  0  0  0  0  0  0
  159.3770  211.1080  156.1260 C   0  0  1  0  0  3  0  0  0  0  0  0
  161.3350  211.8040  149.8940 N   0  0  0  0  0  0  0  0  0  0  0  0
  160.0770  212.5710  151.9740 C   0  0  1  0  0  3  0  0  0  0  0  0
  162.3350  206.5840  151.9230 C   0  0  0  0  0  2  0  0  0  0  0  0
  157.4690  213.1400  155.3640 C   0  0  0  0  0  2  0  0  0  0  0  0
  156.5140  213.1570  153.2480 N   0  0  0  0  0  2  0  0  0  0  0  0
  161.5490  207.7820  150.0280 O   0  0  0  0  0  0  0  0  0  0  0  0
  160.4330  209.6090  154.3350 C   0  0  0  0  0  0  0  0  0  0  0  0
  161.8710  206.3380  153.3310 C   0  0  0  0  0  3  0  0  0  0  0  0
  161.1280  208.8670  152.1290 C   0  0  0  0  0  0  0  0  0  0  0  0
  160.0850  210.8400  153.8350 C   0  0  0  0  0  0  0  0  0  0  0  0
  160.2320  211.9520  157.0520 C   0  0  0  0  0  1  0  0  0  0  0  0
  159.3980  211.6740  154.7760 N   0  0  0  0  0  0  0  0  0  0  0  0
  156.2080  213.1600  154.6230 N   0  0  0  0  0  2  0  0  0  0  0  0
  158.4440  214.4530  151.6280 C   0  0  0  0  0  1  0  0  0  0  0  0
  161.2760  207.2810  154.0640 C   0  0  0  0  0  3  0  0  0  0  0  0
  160.9660  208.6130  153.5100 C   0  0  0  0  0  0  0  0  0  0  0  0
  158.5840  212.9500  151.8610 C   0  0  2  0  0  3  0  0  0  0  0  0
  162.0830  212.0720  148.6750 C   0  0  0  0  0  2  0  0  0  0  0  0
  161.7130  213.0760  146.4440 C   0  0  0  0  0  1  0  0  0  0  0  0
  161.1380  212.1450  147.4900 C   0  0  0  0  0  2  0  0  0  0  0  0
  1 19  2  0  0  0  0
  1  4  1  0  0  0  0
  2 13  1  0  0  0  0
  2 19  1  0  0  0  0
  3 10  1  0  0  0  0
  4 20  2  0  0  0  0
  5  1  1  0  0  0  0
  6  8  2  0  0  0  0
  7 15  1  1  0  0  0
  7  9  1  0  0  0  0
  9 22  1  0  0  0  0
  9 14  1  1  0  0  0
 10 21  1  1  0  0  0
 11  5  1  0  0  0  0
 11  8  1  0  0  0  0
 12  8  1  6  0  0  0
 12  4  1  0  0  0  0
 13 18  1  0  0  0  0
 15 23  1  0  0  0  0
 16  2  2  0  0  0  0
 17  3  1  0  0  0  0
 18 25  2  0  0  0  0
 19 26  1  0  0  0  0
 20 17  1  0  0  0  0
 20 22  1  0  0  0  0
 22 10  1  0  0  0  0
 23 14  1  0  0  0  0
 26 25  1  0  0  0  0
 26 17  2  0  0  0  0
 27 24  1  1  0  0  0
 27 12  1  0  0  0  0
 27  7  1  0  0  0  0
 28 11  1  0  0  0  0
 29 30  1  0  0  0  0
 30 28  1  0  0  0  0
M  END
>  <MODEL>
5

>  <REMARK>
 VINA RESULT:      -4.1      2.114      5.145
  Name = 
  2 active torsions:
  status: ('A' for Active; 'I' for Inactive)
    1  A    between atoms: N_11  and  C_28
    2  A    between atoms: C_28  and  C_30
                            x       y       z     vdW  Elec       q    Type
                         _______ _______ _______ _____ _____    ______ ____

>  <TORSDO>
F 2

$$$$
