=
 OpenBabel11122413353D

 37 43  0  0  1  0  0  0  0  0999 V2000
  161.9590  210.5760  154.1390 C   0  0  0  0  0  2  0  0  0  0  0  0
  161.3310  207.1060  149.9790 C   0  0  0  0  0  0  0  0  0  0  0  0
  161.3520  211.1220  150.7780 C   0  0  1  0  0  3  0  0  0  0  0  0
  162.7030  210.3050  155.4530 C   0  0  2  0  0  3  0  0  0  0  0  0
  158.9130  212.0410  153.6910 C   0  0  0  0  0  2  0  0  0  0  0  0
  162.3140  209.2460  149.3130 C   0  0  0  0  0  0  0  0  0  0  0  0
  160.1210  210.9800  151.6750 C   0  0  2  0  0  3  0  0  0  0  0  0
  160.5860  210.8790  156.8700 C   0  0  2  0  0  3  0  0  0  0  0  0
  162.0380  209.7500  150.7220 C   0  0  2  0  0  3  0  0  0  0  0  0
  159.9150  212.2370  152.5620 C   0  0  1  0  0  3  0  0  0  0  0  0
  162.7650  210.2020  148.2450 C   0  0  0  0  0  2  0  0  0  0  0  0
  161.8090  209.9720  156.6580 C   0  0  0  0  0  2  0  0  0  0  0  0
  161.2130  208.7700  151.5670 C   0  0  2  0  0  3  0  0  0  0  0  0
  162.3020  206.4760  150.7470 F   0  0  0  0  0  0  0  0  0  0  0  0
  160.4190  213.0600  149.3180 C   0  0  0  0  0  2  0  0  0  0  0  0
  162.3310  211.6440  148.5400 C   0  0  0  0  0  2  0  0  0  0  0  0
  160.4540  207.8670  150.7870 O   0  0  0  0  0  0  0  0  0  0  0  0
  159.5540  210.8960  155.7210 C   0  0  1  0  0  3  0  0  0  0  0  0
  159.6290  212.1480  154.9550 N   0  0  0  0  0  2  0  0  0  0  0  0
  161.0480  211.6730  149.3690 C   0  0  1  0  0  3  0  0  0  0  0  0
  160.2840  209.6200  152.4100 C   0  0  1  0  0  3  0  0  0  0  0  0
  161.9750  208.0020  148.9630 C   0  0  0  0  0  3  0  0  0  0  0  0
  159.5810  213.5350  151.8100 C   0  0  1  0  0  3  0  0  0  0  0  0
  160.6030  206.1380  149.3150 F   0  0  0  0  0  0  0  0  0  0  0  0
  159.6380  209.6220  154.8540 C   0  0  0  0  0  2  0  0  0  0  0  0
  160.9710  212.1660  157.2600 O   0  0  0  0  0  1  0  0  0  0  0  0
  160.8060  209.5980  153.8570 C   0  0  2  0  0  3  0  0  0  0  0  0
  160.9060  214.1390  150.7010 S   0  0  0  0  0  0  0  0  0  0  0  0
  157.9870  213.3720  149.8850 C   0  0  0  0  0  3  0  0  0  0  0  0
  158.1900  213.6480  151.2420 C   0  0  0  0  0  0  0  0  0  0  0  0
  157.0940  213.9980  152.0460 C   0  0  0  0  0  3  0  0  0  0  0  0
  154.6580  214.4530  152.3510 C   0  0  0  0  0  1  0  0  0  0  0  0
  155.6190  213.8080  150.1360 C   0  0  0  0  0  3  0  0  0  0  0  0
  155.8130  214.0790  151.4940 C   0  0  0  0  0  0  0  0  0  0  0  0
  156.7060  213.4540  149.3330 C   0  0  0  0  0  3  0  0  0  0  0  0
  164.3320  211.4440  156.9050 C   0  0  0  0  0  2  0  0  0  0  0  0
  163.6190  211.4410  155.7810 C   0  0  0  0  0  3  0  0  0  0  0  0
  1  4  1  0  0  0  0
  2 14  1  0  0  0  0
  2 17  1  0  0  0  0
  3  7  1  0  0  0  0
  4 37  1  0  0  0  0
  4 12  1  0  0  0  0
  5 19  1  0  0  0  0
  6  9  1  0  0  0  0
  7 21  1  0  0  0  0
  7 10  1  0  0  0  0
  8 26  1  0  0  0  0
  9  3  1  0  0  0  0
  9 13  1  0  0  0  0
 10  5  1  0  0  0  0
 11 16  1  0  0  0  0
 11  6  1  0  0  0  0
 12  8  1  0  0  0  0
 13 21  1  0  0  0  0
 15 20  1  0  0  0  0
 15 28  1  0  0  0  0
 16 20  1  0  0  0  0
 17 13  1  0  0  0  0
 18  8  1  0  0  0  0
 19 18  1  0  0  0  0
 20  3  1  0  0  0  0
 21 27  1  0  0  0  0
 22  6  2  0  0  0  0
 22  2  1  0  0  0  0
 23 10  1  0  0  0  0
 24  2  1  0  0  0  0
 25 18  1  0  0  0  0
 27  1  1  0  0  0  0
 27 25  1  0  0  0  0
 28 23  1  0  0  0  0
 29 30  1  0  0  0  0
 30 23  1  0  0  0  0
 30 31  2  0  0  0  0
 33 34  2  0  0  0  0
 34 31  1  0  0  0  0
 34 32  1  0  0  0  0
 35 29  2  0  0  0  0
 35 33  1  0  0  0  0
 37 36  2  0  0  0  0
M  END
>  <MODEL>
1

>  <REMARK>
 VINA RESULT:      -3.6      0.000      0.000
  Name = 
  2 active torsions:
  status: ('A' for Active; 'I' for Inactive)
    1  A    between atoms: C_4  and  C_37
    2  A    between atoms: C_23  and  C_30
                            x       y       z     vdW  Elec       q    Type
                         _______ _______ _______ _____ _____    ______ ____

>  <TORSDO>
F 2

$$$$
