=
 OpenBabel11122414393D

 34 40  0  0  1  0  0  0  0  0999 V2000
  161.0020  206.9670  154.3020 C   0  0  0  0  0  0  0  0  0  0  0  0
  161.2350  204.8050  153.0340 C   0  0  0  0  0  2  0  0  0  0  0  0
  158.8930  213.2800  154.2030 C   0  0  0  0  0  0  0  0  0  0  0  0
  159.9190  209.0380  155.0120 C   0  0  0  0  0  0  0  0  0  0  0  0
  160.1340  211.1390  153.5560 C   0  0  2  0  0  3  0  0  0  0  0  0
  160.1130  213.0900  152.1530 O   0  0  0  0  0  1  0  0  0  0  0  0
  159.3480  214.4530  154.2910 O   0  0  0  0  0  0  0  0  0  0  0  0
  157.8080  211.5770  155.6740 C   0  0  0  0  0  2  0  0  0  0  0  0
  162.1090  206.8060  151.9640 C   0  0  2  0  0  3  0  0  0  0  0  0
  161.3300  206.8870  148.8580 C   0  0  0  0  0  2  0  0  0  0  0  0
  160.2170  210.1510  152.4000 C   0  0  0  0  0  2  0  0  0  0  0  0
  158.0980  210.5730  154.7420 O   0  0  0  0  0  0  0  0  0  0  0  0
  161.1860  207.9860  151.6190 C   0  0  1  0  0  3  0  0  0  0  0  0
  161.8960  204.3780  151.7460 C   0  0  0  0  0  2  0  0  0  0  0  0
  159.4930  210.4670  154.7850 C   0  0  1  0  0  3  0  0  0  0  0  0
  157.8850  212.8780  155.0870 O   0  0  0  0  0  0  0  0  0  0  0  0
  161.0280  205.7470  149.8240 C   0  0  2  0  0  3  0  0  0  0  0  0
  160.6360  208.3050  154.0370 C   0  0  0  0  0  0  0  0  0  0  0  0
  159.3580  212.3770  153.0880 C   0  0  2  0  0  3  0  0  0  0  0  0
  161.1190  208.9800  152.7760 C   0  0  2  0  0  3  0  0  0  0  0  0
  159.9380  207.1100  156.4800 C   0  0  0  0  0  3  0  0  0  0  0  0
  160.8440  208.2110  149.4300 C   0  0  0  0  0  2  0  0  0  0  0  0
  159.5710  208.4290  156.2210 C   0  0  0  0  0  3  0  0  0  0  0  0
  161.6790  208.6230  150.4730 O   0  0  0  0  0  0  0  0  0  0  0  0
  162.0990  205.6510  150.9330 C   0  0  1  0  0  3  0  0  0  0  0  0
  160.6550  206.3860  155.5280 C   0  0  0  0  0  3  0  0  0  0  0  0
  161.8320  206.1640  153.3290 C   0  0  1  0  0  3  0  0  0  0  0  0
  160.9770  204.5540  149.0970 O   0  0  0  0  0  0  0  0  0  0  0  0
  161.5920  204.8510  147.8790 C   0  0  0  0  0  2  0  0  0  0  0  0
  160.7520  201.1050  146.6540 S   0  0  0  0  0  0  0  0  0  0  0  0
  160.9070  203.6650  145.8000 C   0  0  0  0  0  2  0  0  0  0  0  0
  161.7440  203.5880  147.0530 C   0  0  2  0  0  3  0  0  0  0  0  0
  160.8300  202.2600  145.2500 C   0  0  0  0  0  2  0  0  0  0  0  0
  161.2410  202.3980  147.8370 C   0  0  0  0  0  2  0  0  0  0  0  0
  1 26  1  0  0  0  0
  2 27  1  0  0  0  0
  3  7  2  0  0  0  0
  3 16  1  0  0  0  0
  4 23  2  0  0  0  0
  5 11  1  6  0  0  0
  5 15  1  0  0  0  0
  6 19  1  0  0  0  0
  9 27  1  0  0  0  0
 10 22  1  0  0  0  0
 10 17  1  0  0  0  0
 11 20  1  0  0  0  0
 12 15  1  0  0  0  0
 12  8  1  0  0  0  0
 13  9  1  0  0  0  0
 13 20  1  0  0  0  0
 14  2  1  0  0  0  0
 15  4  1  0  0  0  0
 16  8  1  0  0  0  0
 17 25  1  0  0  0  0
 18  1  2  0  0  0  0
 18  4  1  0  0  0  0
 19  5  1  0  0  0  0
 19  3  1  0  0  0  0
 20 18  1  0  0  0  0
 22 24  1  0  0  0  0
 23 21  1  0  0  0  0
 24 13  1  0  0  0  0
 25 14  1  0  0  0  0
 25  9  1  0  0  0  0
 26 21  2  0  0  0  0
 27  1  1  0  0  0  0
 28 17  1  0  0  0  0
 29 28  1  0  0  0  0
 30 34  1  0  0  0  0
 31 32  1  0  0  0  0
 32 34  1  0  0  0  0
 32 29  1  0  0  0  0
 33 31  1  0  0  0  0
 33 30  1  0  0  0  0
M  END
>  <MODEL>
1

>  <REMARK>
 VINA RESULT:      -8.2      0.000      0.000
  Name = 
  3 active torsions:
  status: ('A' for Active; 'I' for Inactive)
    1  A    between atoms: C_17  and  O_28
    2  A    between atoms: O_28  and  C_29
    3  A    between atoms: C_29  and  C_32
                            x       y       z     vdW  Elec       q    Type
                         _______ _______ _______ _____ _____    ______ ____

>  <TORSDO>
F 3

$$$$
=
 OpenBabel11122414393D

 34 40  0  0  1  0  0  0  0  0999 V2000
  161.8390  209.1880  151.4480 C   0  0  0  0  0  0  0  0  0  0  0  0
  161.0510  211.1300  152.8420 C   0  0  0  0  0  2  0  0  0  0  0  0
  161.1360  202.7300  149.9940 C   0  0  0  0  0  0  0  0  0  0  0  0
  161.6140  207.1400  150.1350 C   0  0  0  0  0  0  0  0  0  0  0  0
  161.5140  204.8760  151.3340 C   0  0  2  0  0  3  0  0  0  0  0  0
  161.2040  202.7370  152.3860 O   0  0  0  0  0  1  0  0  0  0  0  0
  161.7870  201.6520  150.0420 O   0  0  0  0  0  0  0  0  0  0  0  0
  160.5650  204.5010  148.3270 C   0  0  0  0  0  2  0  0  0  0  0  0
  161.6800  209.1060  154.0330 C   0  0  2  0  0  3  0  0  0  0  0  0
  159.5780  208.4310  156.3540 C   0  0  0  0  0  2  0  0  0  0  0  0
  160.8650  205.6670  152.4630 C   0  0  0  0  0  2  0  0  0  0  0  0
  160.1970  205.3700  149.3600 O   0  0  0  0  0  0  0  0  0  0  0  0
  160.9390  207.7820  153.7900 C   0  0  1  0  0  3  0  0  0  0  0  0
  160.9460  211.4220  154.3200 C   0  0  0  0  0  2  0  0  0  0  0  0
  161.4050  205.6520  150.0080 C   0  0  1  0  0  3  0  0  0  0  0  0
  160.6000  203.1420  148.7680 O   0  0  0  0  0  0  0  0  0  0  0  0
  159.5540  209.6660  155.4600 C   0  0  2  0  0  3  0  0  0  0  0  0
  161.6470  207.7900  151.3920 C   0  0  0  0  0  0  0  0  0  0  0  0
  160.8530  203.4930  151.2640 C   0  0  2  0  0  3  0  0  0  0  0  0
  161.6040  206.9850  152.6690 C   0  0  2  0  0  3  0  0  0  0  0  0
  161.9560  209.2670  149.0240 C   0  0  0  0  0  3  0  0  0  0  0  0
  159.6680  207.1670  155.5110 C   0  0  0  0  0  2  0  0  0  0  0  0
  161.7630  207.8890  148.9630 C   0  0  0  0  0  3  0  0  0  0  0  0
  160.9520  207.0340  154.9750 O   0  0  0  0  0  0  0  0  0  0  0  0
  160.9790  210.0700  155.0210 C   0  0  1  0  0  3  0  0  0  0  0  0
  162.0010  209.9110  150.2590 C   0  0  0  0  0  3  0  0  0  0  0  0
  161.9560  209.9210  152.7640 C   0  0  1  0  0  3  0  0  0  0  0  0
  158.9520  210.7110  156.1660 O   0  0  0  0  0  0  0  0  0  0  0  0
  157.6190  210.7030  155.7470 C   0  0  0  0  0  2  0  0  0  0  0  0
  155.5910  213.8070  154.1650 S   0  0  0  0  0  0  0  0  0  0  0  0
  157.9080  213.1510  155.3940 C   0  0  0  0  0  2  0  0  0  0  0  0
  157.3630  211.8700  154.8120 C   0  0  2  0  0  3  0  0  0  0  0  0
  157.2950  214.2780  154.5960 C   0  0  0  0  0  2  0  0  0  0  0  0
  155.8760  212.0720  154.6360 C   0  0  0  0  0  2  0  0  0  0  0  0
  1 27  1  0  0  0  0
  2 14  1  0  0  0  0
  3  7  2  0  0  0  0
  3 19  1  0  0  0  0
  4 18  2  0  0  0  0
  5 11  1  1  0  0  0
  8 16  1  0  0  0  0
  8 12  1  0  0  0  0
  9 25  1  0  0  0  0
 11 20  1  0  0  0  0
 12 15  1  0  0  0  0
 13  9  1  0  0  0  0
 13 24  1  0  0  0  0
 14 25  1  0  0  0  0
 15  4  1  0  0  0  0
 15  5  1  0  0  0  0
 16  3  1  0  0  0  0
 17 28  1  0  0  0  0
 17 10  1  0  0  0  0
 18  1  1  0  0  0  0
 18 20  1  0  0  0  0
 19  5  1  0  0  0  0
 19  6  1  0  0  0  0
 20 13  1  0  0  0  0
 21 26  1  0  0  0  0
 22 10  1  0  0  0  0
 23 21  2  0  0  0  0
 23  4  1  0  0  0  0
 24 22  1  0  0  0  0
 25 17  1  0  0  0  0
 26  1  2  0  0  0  0
 27  2  1  0  0  0  0
 27  9  1  0  0  0  0
 29 28  1  0  0  0  0
 30 33  1  0  0  0  0
 30 34  1  0  0  0  0
 32 31  1  0  0  0  0
 32 29  1  0  0  0  0
 33 31  1  0  0  0  0
 34 32  1  0  0  0  0
M  END
>  <MODEL>
2

>  <REMARK>
 VINA RESULT:      -8.1      3.290      8.917
  Name = 
  3 active torsions:
  status: ('A' for Active; 'I' for Inactive)
    1  A    between atoms: C_17  and  O_28
    2  A    between atoms: O_28  and  C_29
    3  A    between atoms: C_29  and  C_32
                            x       y       z     vdW  Elec       q    Type
                         _______ _______ _______ _____ _____    ______ ____

>  <TORSDO>
F 3

$$$$
=
 OpenBabel11122414393D

 34 40  0  0  1  0  0  0  0  0999 V2000
  161.3410  208.1530  152.7990 C   0  0  0  0  0  0  0  0  0  0  0  0
  160.7730  205.7040  152.9280 C   0  0  0  0  0  2  0  0  0  0  0  0
  161.5350  213.6320  149.0240 C   0  0  0  0  0  0  0  0  0  0  0  0
  161.0620  210.4800  152.1130 C   0  0  0  0  0  0  0  0  0  0  0  0
  161.9400  211.2370  149.8250 C   0  0  2  0  0  3  0  0  0  0  0  0
  162.5450  211.9780  147.6210 O   0  0  0  0  0  1  0  0  0  0  0  0
  162.3680  214.4510  148.5510 O   0  0  0  0  0  0  0  0  0  0  0  0
  159.9800  213.4570  150.9710 C   0  0  0  0  0  2  0  0  0  0  0  0
  162.2460  206.3960  151.1220 C   0  0  2  0  0  3  0  0  0  0  0  0
  161.4400  204.9750  148.3660 C   0  0  0  0  0  2  0  0  0  0  0  0
  161.6390  209.8050  149.4000 C   0  0  0  0  0  2  0  0  0  0  0  0
  159.8740  212.0750  150.7760 O   0  0  0  0  0  0  0  0  0  0  0  0
  161.7750  207.4000  150.0570 C   0  0  1  0  0  3  0  0  0  0  0  0
  161.2030  204.4580  152.1910 C   0  0  0  0  0  2  0  0  0  0  0  0
  161.1480  211.5920  151.0980 C   0  0  1  0  0  3  0  0  0  0  0  0
  160.4800  214.1170  149.8060 O   0  0  0  0  0  0  0  0  0  0  0  0
  160.7960  204.7190  149.7240 C   0  0  2  0  0  3  0  0  0  0  0  0
  161.4510  209.1540  151.8090 C   0  0  0  0  0  0  0  0  0  0  0  0
  161.6220  212.1730  148.6520 C   0  0  2  0  0  3  0  0  0  0  0  0
  162.0940  208.8320  150.4820 C   0  0  2  0  0  3  0  0  0  0  0  0
  160.4650  209.7940  154.3600 C   0  0  0  0  0  3  0  0  0  0  0  0
  161.4590  206.4670  148.0610 C   0  0  0  0  0  2  0  0  0  0  0  0
  160.5670  210.7840  153.3850 C   0  0  0  0  0  3  0  0  0  0  0  0
  162.4190  207.1090  148.8480 O   0  0  0  0  0  0  0  0  0  0  0  0
  161.8040  204.9330  150.8740 C   0  0  1  0  0  3  0  0  0  0  0  0
  160.8560  208.4870  154.0700 C   0  0  0  0  0  3  0  0  0  0  0  0
  161.8100  206.7380  152.5520 C   0  0  1  0  0  3  0  0  0  0  0  0
  160.3130  203.4070  149.7430 O   0  0  0  0  0  0  0  0  0  0  0  0
  161.3300  202.6430  149.1650 C   0  0  0  0  0  2  0  0  0  0  0  0
  160.4670  201.0630  145.5590 S   0  0  0  0  0  0  0  0  0  0  0  0
  161.7110  200.5330  147.9000 C   0  0  0  0  0  2  0  0  0  0  0  0
  160.7360  201.6500  148.1850 C   0  0  2  0  0  3  0  0  0  0  0  0
  161.1980  199.8210  146.6700 C   0  0  0  0  0  2  0  0  0  0  0  0
  160.4610  202.3310  146.8640 C   0  0  0  0  0  2  0  0  0  0  0  0
  1 26  1  0  0  0  0
  3 16  1  0  0  0  0
  4 23  2  0  0  0  0
  5 11  1  6  0  0  0
  5 15  1  0  0  0  0
  6 19  1  0  0  0  0
  7  3  2  0  0  0  0
  9 27  1  0  0  0  0
 10 17  1  0  0  0  0
 11 20  1  0  0  0  0
 12  8  1  0  0  0  0
 12 15  1  0  0  0  0
 13 20  1  0  0  0  0
 13  9  1  0  0  0  0
 14  2  1  0  0  0  0
 15  4  1  0  0  0  0
 16  8  1  0  0  0  0
 17 28  1  0  0  0  0
 17 25  1  0  0  0  0
 18  4  1  0  0  0  0
 18  1  2  0  0  0  0
 19  3  1  0  0  0  0
 19  5  1  0  0  0  0
 20 18  1  0  0  0  0
 22 10  1  0  0  0  0
 22 24  1  0  0  0  0
 23 21  1  0  0  0  0
 24 13  1  0  0  0  0
 25  9  1  0  0  0  0
 25 14  1  0  0  0  0
 26 21  2  0  0  0  0
 27  1  1  0  0  0  0
 27  2  1  0  0  0  0
 29 28  1  0  0  0  0
 30 33  1  0  0  0  0
 30 34  1  0  0  0  0
 31 32  1  0  0  0  0
 32 29  1  0  0  0  0
 33 31  1  0  0  0  0
 34 32  1  0  0  0  0
M  END
>  <MODEL>
3

>  <REMARK>
 VINA RESULT:      -8.1      2.125      3.374
  Name = 
  3 active torsions:
  status: ('A' for Active; 'I' for Inactive)
    1  A    between atoms: C_17  and  O_28
    2  A    between atoms: O_28  and  C_29
    3  A    between atoms: C_29  and  C_32
                            x       y       z     vdW  Elec       q    Type
                         _______ _______ _______ _____ _____    ______ ____

>  <TORSDO>
F 3

$$$$
=
 OpenBabel11122414393D

 34 40  0  0  1  0  0  0  0  0999 V2000
  161.1400  207.2670  153.5690 C   0  0  0  0  0  0  0  0  0  0  0  0
  160.9490  204.7940  153.1380 C   0  0  0  0  0  2  0  0  0  0  0  0
  160.1610  213.4180  151.2230 C   0  0  0  0  0  0  0  0  0  0  0  0
  160.4590  209.6110  153.4840 C   0  0  0  0  0  0  0  0  0  0  0  0
  160.9870  211.0040  151.3960 C   0  0  2  0  0  3  0  0  0  0  0  0
  161.2570  212.3180  149.4030 O   0  0  0  0  0  1  0  0  0  0  0  0
  160.8150  214.4500  150.9110 O   0  0  0  0  0  0  0  0  0  0  0  0
  158.8480  212.5500  153.1630 C   0  0  0  0  0  2  0  0  0  0  0  0
  162.1200  206.1130  151.4660 C   0  0  2  0  0  3  0  0  0  0  0  0
  161.2610  205.2470  148.5030 C   0  0  0  0  0  2  0  0  0  0  0  0
  160.8570  209.6780  150.6580 C   0  0  0  0  0  2  0  0  0  0  0  0
  158.9250  211.2510  152.6470 O   0  0  0  0  0  0  0  0  0  0  0  0
  161.4050  207.2420  150.7060 C   0  0  1  0  0  3  0  0  0  0  0  0
  161.4810  203.8380  152.0980 C   0  0  0  0  0  2  0  0  0  0  0  0
  160.2810  210.9240  152.7630 C   0  0  1  0  0  3  0  0  0  0  0  0
  159.1290  213.5320  152.1630 O   0  0  0  0  0  0  0  0  0  0  0  0
  160.7980  204.5840  149.7970 C   0  0  2  0  0  3  0  0  0  0  0  0
  161.0040  208.4710  152.8450 C   0  0  0  0  0  0  0  0  0  0  0  0
  160.4220  212.1180  150.5050 C   0  0  2  0  0  3  0  0  0  0  0  0
  161.5530  208.5710  151.4420 C   0  0  2  0  0  3  0  0  0  0  0  0
  160.1930  208.3400  155.5310 C   0  0  0  0  0  3  0  0  0  0  0  0
  161.0330  206.7510  148.5660 C   0  0  0  0  0  2  0  0  0  0  0  0
  160.0530  209.5300  154.8190 C   0  0  0  0  0  3  0  0  0  0  0  0
  161.9620  207.3450  149.4240 O   0  0  0  0  0  0  0  0  0  0  0  0
  161.8730  204.6930  150.9000 C   0  0  1  0  0  3  0  0  0  0  0  0
  160.7400  207.2170  154.9110 C   0  0  0  0  0  3  0  0  0  0  0  0
  161.7830  206.0430  152.9600 C   0  0  1  0  0  3  0  0  0  0  0  0
  160.5150  203.2420  149.5290 O   0  0  0  0  0  0  0  0  0  0  0  0
  161.3300  202.9150  148.4420 C   0  0  0  0  0  2  0  0  0  0  0  0
  160.5140  200.5970  145.2480 S   0  0  0  0  0  0  0  0  0  0  0  0
  161.7000  200.5750  147.6770 C   0  0  0  0  0  2  0  0  0  0  0  0
  160.7400  201.7390  147.6880 C   0  0  2  0  0  3  0  0  0  0  0  0
  161.2000  199.6180  146.6200 C   0  0  0  0  0  2  0  0  0  0  0  0
  160.5050  202.1190  146.2440 C   0  0  0  0  0  2  0  0  0  0  0  0
  1 26  1  0  0  0  0
  3 16  1  0  0  0  0
  4 23  2  0  0  0  0
  5 11  1  6  0  0  0
  5 15  1  0  0  0  0
  6 19  1  0  0  0  0
  7  3  2  0  0  0  0
  9 27  1  0  0  0  0
 10 22  1  0  0  0  0
 10 17  1  0  0  0  0
 11 20  1  0  0  0  0
 12 15  1  0  0  0  0
 12  8  1  0  0  0  0
 13 20  1  0  0  0  0
 13  9  1  0  0  0  0
 14  2  1  0  0  0  0
 15  4  1  0  0  0  0
 16  8  1  0  0  0  0
 17 25  1  0  0  0  0
 18  4  1  0  0  0  0
 18  1  2  0  0  0  0
 19  3  1  0  0  0  0
 19  5  1  0  0  0  0
 20 18  1  0  0  0  0
 22 24  1  0  0  0  0
 23 21  1  0  0  0  0
 24 13  1  0  0  0  0
 25  9  1  0  0  0  0
 25 14  1  0  0  0  0
 26 21  2  0  0  0  0
 27  2  1  0  0  0  0
 27  1  1  0  0  0  0
 28 17  1  0  0  0  0
 29 28  1  0  0  0  0
 30 34  1  0  0  0  0
 30 33  1  0  0  0  0
 31 32  1  0  0  0  0
 32 29  1  0  0  0  0
 33 31  1  0  0  0  0
 34 32  1  0  0  0  0
M  END
>  <MODEL>
4

>  <REMARK>
 VINA RESULT:      -7.8      1.452      2.081
  Name = 
  3 active torsions:
  status: ('A' for Active; 'I' for Inactive)
    1  A    between atoms: C_17  and  O_28
    2  A    between atoms: O_28  and  C_29
    3  A    between atoms: C_29  and  C_32
                            x       y       z     vdW  Elec       q    Type
                         _______ _______ _______ _____ _____    ______ ____

>  <TORSDO>
F 3

$$$$
=
 OpenBabel11122414393D

 34 40  0  0  1  0  0  0  0  0999 V2000
  160.9520  206.9760  154.5180 C   0  0  0  0  0  0  0  0  0  0  0  0
  161.2060  204.8710  153.1620 C   0  0  0  0  0  2  0  0  0  0  0  0
  158.8320  213.2850  154.6600 C   0  0  0  0  0  0  0  0  0  0  0  0
  159.8540  209.0140  155.3000 C   0  0  0  0  0  0  0  0  0  0  0  0
  160.0860  211.1750  153.9400 C   0  0  2  0  0  3  0  0  0  0  0  0
  160.0810  213.1840  152.6210 O   0  0  0  0  0  1  0  0  0  0  0  0
  159.2830  214.4530  154.8040 O   0  0  0  0  0  0  0  0  0  0  0  0
  157.7300  211.5190  156.0410 C   0  0  0  0  0  2  0  0  0  0  0  0
  162.0910  206.9170  152.1910 C   0  0  2  0  0  3  0  0  0  0  0  0
  161.3560  207.1300  149.0800 C   0  0  0  0  0  2  0  0  0  0  0  0
  160.1870  210.2380  152.7430 C   0  0  0  0  0  2  0  0  0  0  0  0
  158.0340  210.5560  155.0720 O   0  0  0  0  0  0  0  0  0  0  0  0
  161.1700  208.1090  151.8830 C   0  0  1  0  0  3  0  0  0  0  0  0
  161.8860  204.5010  151.8660 C   0  0  0  0  0  2  0  0  0  0  0  0
  159.4290  210.4500  155.1300 C   0  0  1  0  0  3  0  0  0  0  0  0
  157.8120  212.8440  155.5120 O   0  0  0  0  0  0  0  0  0  0  0  0
  161.0420  205.9490  149.9920 C   0  0  2  0  0  3  0  0  0  0  0  0
  160.5870  208.3240  154.3050 C   0  0  0  0  0  0  0  0  0  0  0  0
  159.3140  212.4310  153.5140 C   0  0  2  0  0  3  0  0  0  0  0  0
  161.0860  209.0530  153.0810 C   0  0  2  0  0  3  0  0  0  0  0  0
  159.8570  207.0240  156.6850 C   0  0  0  0  0  3  0  0  0  0  0  0
  160.8590  208.4280  149.7020 C   0  0  0  0  0  2  0  0  0  0  0  0
  159.4910  208.3530  156.4770 C   0  0  0  0  0  3  0  0  0  0  0  0
  161.6790  208.7950  150.7730 O   0  0  0  0  0  0  0  0  0  0  0  0
  162.0970  205.8070  151.1110 C   0  0  1  0  0  3  0  0  0  0  0  0
  160.5890  206.3430  155.7130 C   0  0  0  0  0  3  0  0  0  0  0  0
  161.7960  206.2160  153.5230 C   0  0  1  0  0  3  0  0  0  0  0  0
  161.0040  204.7880  149.2150 O   0  0  0  0  0  0  0  0  0  0  0  0
  161.8290  205.0630  148.1210 C   0  0  0  0  0  2  0  0  0  0  0  0
  161.2080  205.0790  144.1390 S   0  0  0  0  0  0  0  0  0  0  0  0
  161.2770  203.4570  146.3010 C   0  0  0  0  0  2  0  0  0  0  0  0
  161.0630  204.8540  146.8290 C   0  0  2  0  0  3  0  0  0  0  0  0
  160.7970  203.4630  144.8680 C   0  0  0  0  0  2  0  0  0  0  0  0
  161.5730  205.8010  145.7690 C   0  0  0  0  0  2  0  0  0  0  0  0
  1 26  1  0  0  0  0
  2 27  1  0  0  0  0
  3  7  2  0  0  0  0
  3 16  1  0  0  0  0
  4 23  2  0  0  0  0
  5 11  1  6  0  0  0
  5 15  1  0  0  0  0
  6 19  1  0  0  0  0
  9 27  1  0  0  0  0
 10 22  1  0  0  0  0
 10 17  1  0  0  0  0
 11 20  1  0  0  0  0
 12 15  1  0  0  0  0
 12  8  1  0  0  0  0
 13  9  1  0  0  0  0
 13 20  1  0  0  0  0
 14  2  1  0  0  0  0
 15  4  1  0  0  0  0
 16  8  1  0  0  0  0
 17 25  1  0  0  0  0
 18  1  2  0  0  0  0
 18  4  1  0  0  0  0
 19  5  1  0  0  0  0
 19  3  1  0  0  0  0
 20 18  1  0  0  0  0
 22 24  1  0  0  0  0
 23 21  1  0  0  0  0
 24 13  1  0  0  0  0
 25 14  1  0  0  0  0
 25  9  1  0  0  0  0
 26 21  2  0  0  0  0
 27  1  1  0  0  0  0
 28 17  1  0  0  0  0
 29 28  1  0  0  0  0
 30 33  1  0  0  0  0
 30 34  1  0  0  0  0
 31 32  1  0  0  0  0
 32 29  1  0  0  0  0
 33 31  1  0  0  0  0
 34 32  1  0  0  0  0
M  END
>  <MODEL>
5

>  <REMARK>
 VINA RESULT:      -7.4      0.989      1.158
  Name = 
  3 active torsions:
  status: ('A' for Active; 'I' for Inactive)
    1  A    between atoms: C_17  and  O_28
    2  A    between atoms: O_28  and  C_29
    3  A    between atoms: C_29  and  C_32
                            x       y       z     vdW  Elec       q    Type
                         _______ _______ _______ _____ _____    ______ ____

>  <TORSDO>
F 3

$$$$
=
 OpenBabel11122414393D

 34 40  0  0  1  0  0  0  0  0999 V2000
  161.6400  206.1230  147.3060 C   0  0  0  0  0  0  0  0  0  0  0  0
  161.2600  207.9670  148.9760 C   0  0  0  0  0  2  0  0  0  0  0  0
  160.8370  199.6770  145.8510 C   0  0  0  0  0  0  0  0  0  0  0  0
  161.1000  204.1040  146.0420 C   0  0  0  0  0  0  0  0  0  0  0  0
  161.5260  201.8040  147.0950 C   0  0  2  0  0  3  0  0  0  0  0  0
  161.6990  199.6200  148.0830 O   0  0  0  0  0  1  0  0  0  0  0  0
  161.5240  198.6430  145.6280 O   0  0  0  0  0  0  0  0  0  0  0  0
  159.6500  201.4530  144.5560 C   0  0  0  0  0  2  0  0  0  0  0  0
  162.3570  205.9570  149.7910 C   0  0  2  0  0  3  0  0  0  0  0  0
  161.1880  205.0770  152.6400 C   0  0  0  0  0  2  0  0  0  0  0  0
  161.2490  202.5180  148.4120 C   0  0  0  0  0  2  0  0  0  0  0  0
  159.6020  202.2660  145.6950 O   0  0  0  0  0  0  0  0  0  0  0  0
  161.6490  204.5940  149.7410 C   0  0  1  0  0  3  0  0  0  0  0  0
  161.6380  208.2100  150.4170 C   0  0  0  0  0  2  0  0  0  0  0  0
  160.9400  202.6090  145.9190 C   0  0  1  0  0  3  0  0  0  0  0  0
  159.9020  200.0870  144.8940 O   0  0  0  0  0  0  0  0  0  0  0  0
  160.8010  206.3330  151.8660 C   0  0  2  0  0  3  0  0  0  0  0  0
  161.5150  204.7170  147.2480 C   0  0  0  0  0  0  0  0  0  0  0  0
  160.9540  200.3830  147.1790 C   0  0  2  0  0  3  0  0  0  0  0  0
  161.9430  203.8760  148.4260 C   0  0  2  0  0  3  0  0  0  0  0  0
  160.9380  206.2790  144.9860 C   0  0  0  0  0  3  0  0  0  0  0  0
  161.0590  203.8470  151.7540 C   0  0  0  0  0  2  0  0  0  0  0  0
  160.8090  204.8930  144.9260 C   0  0  0  0  0  3  0  0  0  0  0  0
  162.0960  203.8150  150.8170 O   0  0  0  0  0  0  0  0  0  0  0  0
  161.9750  206.8430  151.0010 C   0  0  1  0  0  3  0  0  0  0  0  0
  161.3580  206.8890  146.1680 C   0  0  0  0  0  3  0  0  0  0  0  0
  162.1500  206.8240  148.5430 C   0  0  1  0  0  3  0  0  0  0  0  0
  160.4140  207.3160  152.7820 O   0  0  0  0  0  0  0  0  0  0  0  0
  160.8670  206.8490  154.0190 C   0  0  0  0  0  2  0  0  0  0  0  0
  160.5850  210.6490  155.3330 S   0  0  0  0  0  0  0  0  0  0  0  0
  159.9400  208.1000  155.9620 C   0  0  0  0  0  2  0  0  0  0  0  0
  161.0720  208.0150  154.9670 C   0  0  2  0  0  3  0  0  0  0  0  0
  160.0350  209.4660  156.6010 C   0  0  0  0  0  2  0  0  0  0  0  0
  161.0690  209.3140  154.1950 C   0  0  0  0  0  2  0  0  0  0  0  0
  1 27  1  0  0  0  0
  2 14  1  0  0  0  0
  3 19  1  0  0  0  0
  4 18  2  0  0  0  0
  5 19  1  0  0  0  0
  5 11  1  1  0  0  0
  7  3  2  0  0  0  0
  8 16  1  0  0  0  0
  8 12  1  0  0  0  0
  9 25  1  0  0  0  0
 11 20  1  0  0  0  0
 12 15  1  0  0  0  0
 13  9  1  0  0  0  0
 13 24  1  0  0  0  0
 14 25  1  0  0  0  0
 15  4  1  0  0  0  0
 15  5  1  0  0  0  0
 16  3  1  0  0  0  0
 17 10  1  0  0  0  0
 17 28  1  0  0  0  0
 18  1  1  0  0  0  0
 18 20  1  0  0  0  0
 19  6  1  0  0  0  0
 20 13  1  0  0  0  0
 21 26  1  0  0  0  0
 22 10  1  0  0  0  0
 23 21  2  0  0  0  0
 23  4  1  0  0  0  0
 24 22  1  0  0  0  0
 25 17  1  0  0  0  0
 26  1  2  0  0  0  0
 27  2  1  0  0  0  0
 27  9  1  0  0  0  0
 28 29  1  0  0  0  0
 29 32  1  0  0  0  0
 30 33  1  0  0  0  0
 31 33  1  0  0  0  0
 32 31  1  0  0  0  0
 34 32  1  0  0  0  0
 34 30  1  0  0  0  0
M  END
>  <MODEL>
6

>  <REMARK>
 VINA RESULT:      -6.9      3.475     10.093
  Name = 
  3 active torsions:
  status: ('A' for Active; 'I' for Inactive)
    1  A    between atoms: C_17  and  O_28
    2  A    between atoms: O_28  and  C_29
    3  A    between atoms: C_29  and  C_32
                            x       y       z     vdW  Elec       q    Type
                         _______ _______ _______ _____ _____    ______ ____

>  <TORSDO>
F 3

$$$$
=
 OpenBabel11122414393D

 34 40  0  0  1  0  0  0  0  0999 V2000
  160.7340  203.8300  151.2850 C   0  0  0  0  0  0  0  0  0  0  0  0
  161.5480  205.7600  152.6830 C   0  0  0  0  0  2  0  0  0  0  0  0
  160.6730  200.9310  145.2940 C   0  0  0  0  0  0  0  0  0  0  0  0
  160.8720  202.0950  149.5720 C   0  0  0  0  0  0  0  0  0  0  0  0
  160.3970  202.6960  147.1250 C   0  0  2  0  0  3  0  0  0  0  0  0
  160.1720  203.2160  144.7890 O   0  0  0  0  0  1  0  0  0  0  0  0
  159.8640  200.6180  144.3790 O   0  0  0  0  0  0  0  0  0  0  0  0
  161.8070  199.8530  147.2410 C   0  0  0  0  0  2  0  0  0  0  0  0
  160.4040  206.3110  150.6100 C   0  0  2  0  0  3  0  0  0  0  0  0
  161.9170  208.6610  149.0450 C   0  0  0  0  0  2  0  0  0  0  0  0
  160.9450  204.0650  147.5070 C   0  0  0  0  0  2  0  0  0  0  0  0
  162.1130  201.1110  147.7730 O   0  0  0  0  0  0  0  0  0  0  0  0
  160.9610  205.8520  149.2520 C   0  0  1  0  0  3  0  0  0  0  0  0
  161.4260  207.2630  152.6170 C   0  0  0  0  0  2  0  0  0  0  0  0
  160.8650  201.6330  148.1370 C   0  0  1  0  0  3  0  0  0  0  0  0
  161.4810  199.9330  145.8520 O   0  0  0  0  0  0  0  0  0  0  0  0
  162.2950  208.1140  150.4180 C   0  0  2  0  0  3  0  0  0  0  0  0
  160.7120  203.4560  149.9240 C   0  0  0  0  0  0  0  0  0  0  0  0
  160.8360  202.3780  145.6890 C   0  0  2  0  0  3  0  0  0  0  0  0
  160.3960  204.4870  148.8660 C   0  0  2  0  0  3  0  0  0  0  0  0
  161.0740  201.5100  151.9160 C   0  0  0  0  0  3  0  0  0  0  0  0
  161.7850  207.5270  148.0390 C   0  0  0  0  0  2  0  0  0  0  0  0
  161.0580  201.1370  150.5730 C   0  0  0  0  0  3  0  0  0  0  0  0
  160.6160  206.8000  148.2800 O   0  0  0  0  0  0  0  0  0  0  0  0
  161.0550  207.5950  151.1770 C   0  0  1  0  0  3  0  0  0  0  0  0
  160.9060  202.8480  152.2690 C   0  0  0  0  0  3  0  0  0  0  0  0
  160.4950  205.2570  151.7200 C   0  0  1  0  0  3  0  0  0  0  0  0
  162.9150  209.1350  151.1450 O   0  0  0  0  0  0  0  0  0  0  0  0
  162.1480  210.2740  150.8870 C   0  0  0  0  0  2  0  0  0  0  0  0
  159.8680  210.8270  154.1640 S   0  0  0  0  0  0  0  0  0  0  0  0
  162.3820  210.2370  153.3650 C   0  0  0  0  0  2  0  0  0  0  0  0
  161.7160  210.9130  152.1920 C   0  0  2  0  0  3  0  0  0  0  0  0
  161.6280  210.6780  154.5980 C   0  0  0  0  0  2  0  0  0  0  0  0
  160.2270  210.7410  152.3820 C   0  0  0  0  0  2  0  0  0  0  0  0
  1 27  1  0  0  0  0
  1 26  1  0  0  0  0
  3 19  1  0  0  0  0
  3 16  1  0  0  0  0
  4 18  1  0  0  0  0
  4 23  2  0  0  0  0
  5 11  1  1  0  0  0
  5 15  1  0  0  0  0
  6 19  1  0  0  0  0
  7  3  2  0  0  0  0
  8 12  1  0  0  0  0
  9 25  1  0  0  0  0
  9 27  1  0  0  0  0
 10 17  1  0  0  0  0
 11 20  1  0  0  0  0
 12 15  1  0  0  0  0
 13  9  1  0  0  0  0
 14  2  1  0  0  0  0
 15  4  1  0  0  0  0
 16  8  1  0  0  0  0
 17 28  1  0  0  0  0
 17 25  1  0  0  0  0
 18  1  2  0  0  0  0
 19  5  1  0  0  0  0
 20 13  1  0  0  0  0
 20 18  1  0  0  0  0
 21 26  2  0  0  0  0
 22 24  1  0  0  0  0
 22 10  1  0  0  0  0
 23 21  1  0  0  0  0
 24 13  1  0  0  0  0
 25 14  1  0  0  0  0
 27  2  1  0  0  0  0
 29 28  1  0  0  0  0
 29 32  1  0  0  0  0
 30 33  1  0  0  0  0
 31 33  1  0  0  0  0
 32 34  1  0  0  0  0
 32 31  1  0  0  0  0
 34 30  1  0  0  0  0
M  END
>  <MODEL>
7

>  <REMARK>
 VINA RESULT:      -6.7      3.587      9.117
  Name = 
  3 active torsions:
  status: ('A' for Active; 'I' for Inactive)
    1  A    between atoms: C_17  and  O_28
    2  A    between atoms: O_28  and  C_29
    3  A    between atoms: C_29  and  C_32
                            x       y       z     vdW  Elec       q    Type
                         _______ _______ _______ _____ _____    ______ ____

>  <TORSDO>
F 3

$$$$
=
 OpenBabel11122414393D

 34 40  0  0  1  0  0  0  0  0999 V2000
  161.3860  208.1610  149.4980 C   0  0  0  0  0  0  0  0  0  0  0  0
  161.9280  206.4720  147.7120 C   0  0  0  0  0  2  0  0  0  0  0  0
  161.0460  209.4520  156.0200 C   0  0  0  0  0  0  0  0  0  0  0  0
  161.6560  209.3320  151.6250 C   0  0  0  0  0  0  0  0  0  0  0  0
  160.6560  208.3210  153.7590 C   0  0  2  0  0  3  0  0  0  0  0  0
  159.9330  207.3430  155.8320 O   0  0  0  0  0  1  0  0  0  0  0  0
  160.1970  209.7500  156.9030 O   0  0  0  0  0  0  0  0  0  0  0  0
  162.7100  210.6070  154.5570 C   0  0  0  0  0  2  0  0  0  0  0  0
  160.3610  205.7810  149.4380 C   0  0  2  0  0  3  0  0  0  0  0  0
  160.9840  202.8020  150.4380 C   0  0  0  0  0  2  0  0  0  0  0  0
  160.9120  206.9860  153.0720 C   0  0  0  0  0  2  0  0  0  0  0  0
  162.7860  209.4780  153.7330 O   0  0  0  0  0  0  0  0  0  0  0  0
  160.7820  205.7320  150.9160 C   0  0  1  0  0  3  0  0  0  0  0  0
  161.4380  205.0890  147.3530 C   0  0  0  0  0  2  0  0  0  0  0  0
  161.5260  209.4220  153.1250 C   0  0  1  0  0  3  0  0  0  0  0  0
  162.1510  210.2920  155.8340 O   0  0  0  0  0  0  0  0  0  0  0  0
  161.7040  203.5340  149.3100 C   0  0  2  0  0  3  0  0  0  0  0  0
  161.2330  208.1910  150.9020 C   0  0  0  0  0  0  0  0  0  0  0  0
  160.9170  208.1550  155.2620 C   0  0  2  0  0  3  0  0  0  0  0  0
  160.5080  207.0670  151.6030 C   0  0  2  0  0  3  0  0  0  0  0  0
  162.3750  210.3770  149.5600 C   0  0  0  0  0  3  0  0  0  0  0  0
  160.9680  203.6560  151.6990 C   0  0  0  0  0  2  0  0  0  0  0  0
  162.2290  210.4100  150.9450 C   0  0  0  0  0  3  0  0  0  0  0  0
  160.0640  204.7130  151.5540 O   0  0  0  0  0  0  0  0  0  0  0  0
  160.7670  204.5400  148.6060 C   0  0  1  0  0  3  0  0  0  0  0  0
  161.9490  209.2620  148.8400 C   0  0  0  0  0  3  0  0  0  0  0  0
  160.8840  207.0010  148.6700 C   0  0  1  0  0  3  0  0  0  0  0  0
  162.1690  202.5850  148.3950 O   0  0  0  0  0  0  0  0  0  0  0  0
  161.6060  201.3780  148.8140 C   0  0  0  0  0  2  0  0  0  0  0  0
  160.2920  200.9270  145.0310 S   0  0  0  0  0  0  0  0  0  0  0  0
  161.6720  199.6810  146.9930 C   0  0  0  0  0  2  0  0  0  0  0  0
  160.8380  200.7400  147.6720 C   0  0  2  0  0  3  0  0  0  0  0  0
  160.9910  199.3770  145.6800 C   0  0  0  0  0  2  0  0  0  0  0  0
  160.5210  201.7790  146.6220 C   0  0  0  0  0  2  0  0  0  0  0  0
  1 18  1  0  0  0  0
  2 27  1  0  0  0  0
  3  7  2  0  0  0  0
  4 15  1  0  0  0  0
  5 11  1  6  0  0  0
  5 19  1  0  0  0  0
  8 16  1  0  0  0  0
  9 13  1  0  0  0  0
 10 22  1  0  0  0  0
 12  8  1  0  0  0  0
 13 24  1  0  0  0  0
 13 20  1  0  0  0  0
 14  2  1  0  0  0  0
 14 25  1  0  0  0  0
 15 12  1  0  0  0  0
 15  5  1  0  0  0  0
 16  3  1  0  0  0  0
 17 10  1  0  0  0  0
 18 20  1  0  0  0  0
 18  4  2  0  0  0  0
 19  6  1  0  0  0  0
 19  3  1  0  0  0  0
 20 11  1  0  0  0  0
 21 23  2  0  0  0  0
 23  4  1  0  0  0  0
 24 22  1  0  0  0  0
 25 17  1  0  0  0  0
 25  9  1  0  0  0  0
 26  1  2  0  0  0  0
 26 21  1  0  0  0  0
 27  9  1  0  0  0  0
 27  1  1  0  0  0  0
 28 29  1  0  0  0  0
 28 17  1  0  0  0  0
 30 33  1  0  0  0  0
 30 34  1  0  0  0  0
 31 32  1  0  0  0  0
 32 29  1  0  0  0  0
 33 31  1  0  0  0  0
 34 32  1  0  0  0  0
M  END
>  <MODEL>
8

>  <REMARK>
 VINA RESULT:      -6.6      2.427      4.435
  Name = 
  3 active torsions:
  status: ('A' for Active; 'I' for Inactive)
    1  A    between atoms: C_17  and  O_28
    2  A    between atoms: O_28  and  C_29
    3  A    between atoms: C_29  and  C_32
                            x       y       z     vdW  Elec       q    Type
                         _______ _______ _______ _____ _____    ______ ____

>  <TORSDO>
F 3

$$$$
=
 OpenBabel11122414393D

 34 40  0  0  1  0  0  0  0  0999 V2000
  160.8240  204.7040  151.7280 C   0  0  0  0  0  0  0  0  0  0  0  0
  161.4640  205.8420  153.8800 C   0  0  0  0  0  2  0  0  0  0  0  0
  161.2970  204.6790  145.0880 C   0  0  0  0  0  0  0  0  0  0  0  0
  161.1480  203.8800  149.4520 C   0  0  0  0  0  0  0  0  0  0  0  0
  160.8260  205.4780  147.4720 C   0  0  2  0  0  3  0  0  0  0  0  0
  160.7470  206.9560  145.5790 O   0  0  0  0  0  1  0  0  0  0  0  0
  160.5670  204.7890  144.0670 O   0  0  0  0  0  0  0  0  0  0  0  0
  162.3300  202.8690  146.4650 C   0  0  0  0  0  2  0  0  0  0  0  0
  160.4500  207.2310  152.1620 C   0  0  2  0  0  3  0  0  0  0  0  0
  161.9800  210.0320  151.8890 C   0  0  0  0  0  2  0  0  0  0  0  0
  161.2930  206.5490  148.4500 C   0  0  0  0  0  2  0  0  0  0  0  0
  162.5490  203.7740  147.5100 O   0  0  0  0  0  0  0  0  0  0  0  0
  161.1190  207.4060  150.7890 C   0  0  1  0  0  3  0  0  0  0  0  0
  161.2910  207.2260  154.4590 C   0  0  0  0  0  2  0  0  0  0  0  0
  161.2610  204.0840  147.9620 C   0  0  1  0  0  3  0  0  0  0  0  0
  162.1010  203.5410  145.2250 O   0  0  0  0  0  0  0  0  0  0  0  0
  162.2810  208.9470  152.9180 C   0  0  2  0  0  3  0  0  0  0  0  0
  160.9130  204.9550  150.3410 C   0  0  0  0  0  0  0  0  0  0  0  0
  161.3770  205.8130  146.0800 C   0  0  2  0  0  3  0  0  0  0  0  0
  160.6340  206.3400  149.8090 C   0  0  2  0  0  3  0  0  0  0  0  0
  161.2060  202.3400  151.3230 C   0  0  0  0  0  3  0  0  0  0  0  0
  161.9630  209.4440  150.4860 C   0  0  0  0  0  2  0  0  0  0  0  0
  161.2980  202.5840  149.9540 C   0  0  0  0  0  3  0  0  0  0  0  0
  160.8080  208.6800  150.2960 O   0  0  0  0  0  0  0  0  0  0  0  0
  161.0110  208.1460  153.2780 C   0  0  1  0  0  3  0  0  0  0  0  0
  160.9630  203.3940  152.2040 C   0  0  0  0  0  3  0  0  0  0  0  0
  160.5010  205.8020  152.7140 C   0  0  1  0  0  3  0  0  0  0  0  0
  162.8090  209.5550  154.0600 O   0  0  0  0  0  0  0  0  0  0  0  0
  162.0890  210.7450  154.1970 C   0  0  0  0  0  2  0  0  0  0  0  0
  159.7540  211.9280  157.2610 S   0  0  0  0  0  0  0  0  0  0  0  0
  159.6700  210.8790  154.7700 C   0  0  0  0  0  2  0  0  0  0  0  0
  161.0570  210.6020  155.2980 C   0  0  2  0  0  3  0  0  0  0  0  0
  158.7850  211.0750  155.9790 C   0  0  0  0  0  2  0  0  0  0  0  0
  161.3180  211.6190  156.3840 C   0  0  0  0  0  2  0  0  0  0  0  0
  1 26  1  0  0  0  0
  1 27  1  0  0  0  0
  2 14  1  0  0  0  0
  3 16  1  0  0  0  0
  3 19  1  0  0  0  0
  4 23  2  0  0  0  0
  4 18  1  0  0  0  0
  5 15  1  0  0  0  0
  5 11  1  1  0  0  0
  6 19  1  0  0  0  0
  7  3  2  0  0  0  0
  8 12  1  0  0  0  0
  9 27  1  0  0  0  0
  9 25  1  0  0  0  0
 10 17  1  0  0  0  0
 11 20  1  0  0  0  0
 12 15  1  0  0  0  0
 13  9  1  0  0  0  0
 15  4  1  0  0  0  0
 16  8  1  0  0  0  0
 17 25  1  0  0  0  0
 17 28  1  0  0  0  0
 18  1  2  0  0  0  0
 19  5  1  0  0  0  0
 20 18  1  0  0  0  0
 20 13  1  0  0  0  0
 21 26  2  0  0  0  0
 22 10  1  0  0  0  0
 23 21  1  0  0  0  0
 24 22  1  0  0  0  0
 24 13  1  0  0  0  0
 25 14  1  0  0  0  0
 27  2  1  0  0  0  0
 28 29  1  0  0  0  0
 29 32  1  0  0  0  0
 31 32  1  0  0  0  0
 31 33  1  0  0  0  0
 32 34  1  0  0  0  0
 33 30  1  0  0  0  0
 34 30  1  0  0  0  0
M  END
>  <MODEL>
9

>  <REMARK>
 VINA RESULT:      -6.3      3.512      8.640
  Name = 
  3 active torsions:
  status: ('A' for Active; 'I' for Inactive)
    1  A    between atoms: C_17  and  O_28
    2  A    between atoms: O_28  and  C_29
    3  A    between atoms: C_29  and  C_32
                            x       y       z     vdW  Elec       q    Type
                         _______ _______ _______ _____ _____    ______ ____

>  <TORSDO>
F 3

$$$$
