=
 OpenBabel11122414123D

 28 32  0  0  1  0  0  0  0  0999 V2000
  160.8260  209.5120  155.0230 C   0  0  0  0  0  0  0  0  0  0  0  0
  157.5300  210.7690  155.2090 O   0  0  0  0  0  1  0  0  0  0  0  0
  160.8680  212.7100  150.1090 O   0  0  0  0  0  0  0  0  0  0  0  0
  162.2630  210.5530  157.1960 C   0  0  0  0  0  3  0  0  0  0  0  0
  158.9060  213.1900  151.4450 C   0  0  2  0  0  3  0  0  0  0  0  0
  160.1390  208.9680  153.9390 O   0  0  0  0  0  0  0  0  0  0  0  0
  158.4010  211.5750  157.2610 C   0  0  0  0  0  1  0  0  0  0  0  0
  157.8740  211.9420  155.8870 C   0  0  1  0  0  0  0  0  0  0  0  0
  156.2170  213.6480  155.0630 C   0  0  0  0  0  0  0  0  0  0  0  0
  158.9430  212.7530  155.1020 C   0  0  2  0  0  3  0  0  0  0  0  0
  161.6980  208.3610  150.5990 C   0  0  0  0  0  1  0  0  0  0  0  0
  159.4720  211.4410  153.1070 C   0  0  1  0  0  3  0  0  0  0  0  0
  156.9870  213.9800  154.0750 N   0  0  0  0  0  0  0  0  0  0  0  0
  156.6740  212.7450  156.0700 N   0  0  0  0  0  2  0  0  0  0  0  0
  160.8880  209.1030  151.6400 C   0  0  2  0  0  3  0  0  0  0  0  0
  160.7590  210.8970  155.3110 C   0  0  0  0  0  0  0  0  0  0  0  0
  160.1560  212.4670  151.1210 C   0  0  0  0  0  0  0  0  0  0  0  0
  154.9290  214.2390  155.1820 N   0  0  0  0  0  1  0  0  0  0  0  0
  161.5220  210.4670  151.8940 C   0  0  0  0  0  2  0  0  0  0  0  0
  161.4970  211.4000  156.3930 C   0  0  0  0  0  3  0  0  0  0  0  0
  161.6070  208.6720  155.8300 C   0  0  0  0  0  3  0  0  0  0  0  0
  162.3180  209.1880  156.9130 C   0  0  0  0  0  3  0  0  0  0  0  0
  160.8290  208.2650  152.9150 C   0  0  0  0  0  2  0  0  0  0  0  0
  158.4140  212.4880  152.7170 C   0  0  1  0  0  3  0  0  0  0  0  0
  160.4900  211.4830  152.0760 N   0  0  0  0  0  0  0  0  0  0  0  0
  158.3450  213.4670  153.8810 C   0  0  2  0  0  3  0  0  0  0  0  0
  157.8870  212.9930  150.3390 C   0  0  0  0  0  1  0  0  0  0  0  0
  160.0340  211.9040  154.4450 C   0  0  2  0  0  3  0  0  0  0  0  0
  1 16  2  0  0  0  0
  1 21  1  0  0  0  0
  2  8  1  0  0  0  0
  3 17  2  0  0  0  0
  5 27  1  6  0  0  0
  5 24  1  0  0  0  0
  6  1  1  0  0  0  0
  8 14  1  0  0  0  0
  8  7  1  1  0  0  0
  9 18  1  0  0  0  0
  9 14  1  0  0  0  0
 10  8  1  0  0  0  0
 11 15  1  0  0  0  0
 12 28  1  0  0  0  0
 13  9  2  0  0  0  0
 15 19  1  0  0  0  0
 15 23  1  0  0  0  0
 16 20  1  0  0  0  0
 17  5  1  0  0  0  0
 17 25  1  0  0  0  0
 19 25  1  0  0  0  0
 20  4  2  0  0  0  0
 21 22  2  0  0  0  0
 22  4  1  0  0  0  0
 23  6  1  0  0  0  0
 24 12  1  0  0  0  0
 24 26  1  0  0  0  0
 25 12  1  0  0  0  0
 26 13  1  0  0  0  0
 26 10  1  0  0  0  0
 28 10  1  0  0  0  0
 28 16  1  0  0  0  0
M  END
>  <MODEL>
1

>  <REMARK>
 VINA RESULT:      -5.7      0.000      0.000
  Name = 
  0 active torsions:
  status: ('A' for Active; 'I' for Inactive)
                            x       y       z     vdW  Elec       q    Type
                         _______ _______ _______ _____ _____    ______ ____

>  <TORSDO>
F 0

$$$$
=
 OpenBabel11122414123D

 28 32  0  0  1  0  0  0  0  0999 V2000
  160.8210  208.3020  154.9800 C   0  0  0  0  0  0  0  0  0  0  0  0
  159.1400  210.5600  152.8460 O   0  0  0  0  0  1  0  0  0  0  0  0
  163.4910  206.8610  149.9630 O   0  0  0  0  0  0  0  0  0  0  0  0
  162.3290  209.8080  156.8030 C   0  0  0  0  0  3  0  0  0  0  0  0
  162.1760  208.8790  149.7030 C   0  0  2  0  0  3  0  0  0  0  0  0
  160.0740  207.5230  154.0970 O   0  0  0  0  0  0  0  0  0  0  0  0
  160.0840  212.0780  154.4020 C   0  0  0  0  0  1  0  0  0  0  0  0
  160.0840  211.5840  152.9680 C   0  0  1  0  0  0  0  0  0  0  0  0
  160.0410  212.7400  150.7330 C   0  0  0  0  0  0  0  0  0  0  0  0
  161.5030  211.0910  152.5700 C   0  0  2  0  0  3  0  0  0  0  0  0
  161.2310  204.2320  152.7610 C   0  0  0  0  0  1  0  0  0  0  0  0
  161.2750  208.7220  152.0070 C   0  0  1  0  0  3  0  0  0  0  0  0
  160.9480  211.9460  150.2580 N   0  0  0  0  0  0  0  0  0  0  0  0
  159.6830  212.6920  152.1140 N   0  0  0  0  0  2  0  0  0  0  0  0
  160.9860  205.7250  152.7550 C   0  0  2  0  0  3  0  0  0  0  0  0
  161.6380  209.3590  154.5120 C   0  0  0  0  0  0  0  0  0  0  0  0
  162.6830  207.7010  150.4440 C   0  0  0  0  0  0  0  0  0  0  0  0
  159.4440  213.7150  149.8860 N   0  0  0  0  0  1  0  0  0  0  0  0
  162.3200  206.4540  152.6300 C   0  0  0  0  0  2  0  0  0  0  0  0
  162.3960  210.0910  155.4380 C   0  0  0  0  0  3  0  0  0  0  0  0
  160.7690  208.0190  156.3530 C   0  0  0  0  0  3  0  0  0  0  0  0
  161.5150  208.7720  157.2610 C   0  0  0  0  0  3  0  0  0  0  0  0
  160.2520  206.1150  154.0360 C   0  0  0  0  0  2  0  0  0  0  0  0
  161.2050  209.5280  150.6980 C   0  0  1  0  0  3  0  0  0  0  0  0
  162.1860  207.6200  151.7620 N   0  0  0  0  0  0  0  0  0  0  0  0
  161.6570  210.9380  151.0500 C   0  0  2  0  0  3  0  0  0  0  0  0
  161.4080  208.4320  148.4740 C   0  0  0  0  0  1  0  0  0  0  0  0
  161.8460  209.6780  153.0470 C   0  0  2  0  0  3  0  0  0  0  0  0
  1 21  1  0  0  0  0
  2  8  1  0  0  0  0
  3 17  2  0  0  0  0
  4 22  1  0  0  0  0
  5 27  1  6  0  0  0
  5 17  1  0  0  0  0
  5 24  1  0  0  0  0
  6  1  1  0  0  0  0
  8  7  1  1  0  0  0
  9 14  1  0  0  0  0
 10  8  1  0  0  0  0
 10 28  1  0  0  0  0
 12 28  1  0  0  0  0
 13  9  2  0  0  0  0
 13 26  1  0  0  0  0
 14  8  1  0  0  0  0
 15 11  1  0  0  0  0
 15 23  1  0  0  0  0
 16  1  2  0  0  0  0
 16 20  1  0  0  0  0
 17 25  1  0  0  0  0
 18  9  1  0  0  0  0
 19 15  1  0  0  0  0
 20  4  2  0  0  0  0
 21 22  2  0  0  0  0
 23  6  1  0  0  0  0
 24 26  1  0  0  0  0
 24 12  1  0  0  0  0
 25 12  1  0  0  0  0
 25 19  1  0  0  0  0
 26 10  1  0  0  0  0
 28 16  1  0  0  0  0
M  END
>  <MODEL>
2

>  <REMARK>
 VINA RESULT:      -3.0      2.447      4.176
  Name = 
  0 active torsions:
  status: ('A' for Active; 'I' for Inactive)
                            x       y       z     vdW  Elec       q    Type
                         _______ _______ _______ _____ _____    ______ ____

>  <TORSDO>
F 0

$$$$
