=
 OpenBabel11122412533D

 32 38  0  0  1  0  0  0  0  0999 V2000
  160.2990  209.0730  156.0180 C   0  0  1  0  0  3  0  0  0  0  0  0
  161.7210  205.6930  152.2090 C   0  0  0  0  0  0  0  0  0  0  0  0
  161.8360  209.4560  148.9850 C   0  0  0  0  0  3  0  0  0  0  0  0
  161.4430  208.5980  147.9570 C   0  0  0  0  0  3  0  0  0  0  0  0
  161.4370  203.3070  151.2750 C   0  0  0  0  0  0  0  0  0  0  0  0
  161.1880  202.4540  150.1190 C   0  0  0  0  0  0  0  0  0  0  0  0
  160.7220  206.6670  154.2740 C   0  0  1  0  0  3  0  0  0  0  0  0
  162.4380  207.9490  152.9620 C   0  0  0  0  0  2  0  0  0  0  0  0
  160.8130  201.9030  147.9500 C   0  0  0  0  0  0  0  0  0  0  0  0
  161.4390  209.0470  154.9980 C   0  0  2  0  0  3  0  0  0  0  0  0
  162.0700  208.9490  150.2640 C   0  0  0  0  0  3  0  0  0  0  0  0
  162.1480  207.0500  151.8460 N   0  0  0  0  0  0  0  0  0  0  0  0
  161.9100  207.5790  150.5290 C   0  0  0  0  0  0  0  0  0  0  0  0
  161.3820  205.2630  149.7550 C   0  0  0  0  0  0  0  0  0  0  0  0
  160.8210  200.8000  148.6330 N   0  0  0  0  0  0  0  0  0  0  0  0
  159.1310  208.1180  155.6850 C   0  0  0  0  0  2  0  0  0  0  0  0
  161.1940  208.0670  153.8350 C   0  0  2  0  0  3  0  0  0  0  0  0
  161.0580  201.1380  150.0110 C   0  0  0  0  0  2  0  0  0  0  0  0
  159.5040  206.7080  155.1990 C   0  0  0  0  0  2  0  0  0  0  0  0
  161.6060  208.3740  156.3580 C   0  0  1  0  0  3  0  0  0  0  0  0
  161.2880  207.2330  148.2090 C   0  0  0  0  0  2  0  0  0  0  0  0
  161.5180  206.7140  149.4930 C   0  0  0  0  0  0  0  0  0  0  0  0
  161.1280  204.3430  148.6010 C   0  0  0  0  0  2  0  0  0  0  0  0
  160.4570  205.7730  153.0650 C   0  0  0  0  0  2  0  0  0  0  0  0
  161.5760  202.8200  152.4300 O   0  0  0  0  0  0  0  0  0  0  0  0
  160.5970  201.9570  146.4780 C   0  0  0  0  0  1  0  0  0  0  0  0
  161.5210  204.7760  151.0240 C   0  0  0  0  0  0  0  0  0  0  0  0
  161.0420  203.0330  148.8230 C   0  0  0  0  0  0  0  0  0  0  0  0
  162.4350  209.2670  157.2590 C   0  0  0  0  0  2  0  0  0  0  0  0
  162.5670  210.6180  156.6480 C   0  0  0  0  0  0  0  0  0  0  0  0
  163.4260  210.8220  155.7530 O   0  0  0  0  0  0  0  0  0  0  0  0
  161.7170  211.6440  157.0400 O   0  0  0  0  0  1  0  0  0  0  0  0
  1 16  1  6  0  0  0
  1 20  1  0  0  0  0
  2 24  1  0  0  0  0
  3 11  1  0  0  0  0
  4 21  1  0  0  0  0
  4  3  2  0  0  0  0
  5 25  2  0  0  0  0
  6  5  1  0  0  0  0
  7 24  1  6  0  0  0
  7 19  1  0  0  0  0
  8 17  1  0  0  0  0
  9 15  2  0  0  0  0
  9 28  1  0  0  0  0
 10  1  1  0  0  0  0
 10 20  1  0  0  0  0
 11 13  2  0  0  0  0
 12  2  1  0  0  0  0
 12  8  1  0  0  0  0
 13 12  1  0  0  0  0
 14 27  1  0  0  0  0
 15 18  1  0  0  0  0
 17  7  1  0  0  0  0
 17 10  1  0  0  0  0
 18  6  1  0  0  0  0
 19 16  1  0  0  0  0
 20 29  1  0  0  0  0
 21 22  1  0  0  0  0
 22 14  2  0  0  0  0
 22 13  1  0  0  0  0
 23 28  1  0  0  0  0
 23 14  1  0  0  0  0
 26  9  1  0  0  0  0
 27  5  1  0  0  0  0
 27  2  2  0  0  0  0
 28  6  2  0  0  0  0
 30 32  1  0  0  0  0
 30 29  1  0  0  0  0
 31 30  2  0  0  0  0
M  END
>  <MODEL>
1

>  <REMARK>
 VINA RESULT:      -8.3      0.000      0.000
  Name = 
  2 active torsions:
  status: ('A' for Active; 'I' for Inactive)
    1  A    between atoms: C_20  and  C_29
    2  A    between atoms: C_29  and  C_30
                            x       y       z     vdW  Elec       q    Type
                         _______ _______ _______ _____ _____    ______ ____

>  <TORSDO>
F 2

$$$$
=
 OpenBabel11122412533D

 32 38  0  0  1  0  0  0  0  0999 V2000
  160.4780  213.3960  147.0270 C   0  0  1  0  0  3  0  0  0  0  0  0
  161.5200  210.8630  151.5500 C   0  0  0  0  0  0  0  0  0  0  0  0
  161.7010  206.5850  149.0510 C   0  0  0  0  0  3  0  0  0  0  0  0
  161.2100  205.9030  150.1660 C   0  0  0  0  0  3  0  0  0  0  0  0
  161.0530  210.7650  154.0830 C   0  0  0  0  0  0  0  0  0  0  0  0
  160.7010  209.9570  155.2450 C   0  0  0  0  0  0  0  0  0  0  0  0
  160.6780  212.5210  149.8920 C   0  0  1  0  0  3  0  0  0  0  0  0
  162.4020  210.8190  149.2280 C   0  0  0  0  0  2  0  0  0  0  0  0
  160.1930  208.0960  156.4410 C   0  0  0  0  0  0  0  0  0  0  0  0
  161.5660  212.4110  147.4620 C   0  0  2  0  0  3  0  0  0  0  0  0
  161.9650  207.9530  149.1310 C   0  0  0  0  0  3  0  0  0  0  0  0
  162.0070  210.0650  150.4170 N   0  0  0  0  0  0  0  0  0  0  0  0
  161.7390  208.6550  150.3280 C   0  0  2  0  0  3  0  0  0  0  0  0
  161.0400  208.6920  152.7260 C   0  0  0  0  0  0  0  0  0  0  0  0
  160.1680  209.1020  157.2610 N   0  0  0  0  0  0  0  0  0  0  0  0
  159.2420  213.4220  147.9540 C   0  0  0  0  0  2  0  0  0  0  0  0
  161.2090  211.6380  148.7470 C   0  0  2  0  0  3  0  0  0  0  0  0
  160.4900  210.2870  156.5130 C   0  0  0  0  0  2  0  0  0  0  0  0
  159.5090  213.4130  149.4680 C   0  0  0  0  0  2  0  0  0  0  0  0
  161.7570  213.9120  147.6690 C   0  0  1  0  0  3  0  0  0  0  0  0
  160.9880  206.5910  151.3610 C   0  0  0  0  0  3  0  0  0  0  0  0
  161.2490  207.9670  151.4520 C   0  0  0  0  0  0  0  0  0  0  0  0
  160.6790  207.9080  153.9500 C   0  0  0  0  0  2  0  0  0  0  0  0
  160.3040  211.6780  151.1080 C   0  0  0  0  0  2  0  0  0  0  0  0
  161.2190  212.0110  154.1790 O   0  0  0  0  0  0  0  0  0  0  0  0
  159.9100  206.6940  156.8510 C   0  0  0  0  0  1  0  0  0  0  0  0
  161.2110  210.0470  152.7840 C   0  0  0  0  0  0  0  0  0  0  0  0
  160.5280  208.5480  155.1080 C   0  0  0  0  0  0  0  0  0  0  0  0
  162.6780  214.4500  146.5930 C   0  0  0  0  0  2  0  0  0  0  0  0
  162.2490  213.9430  145.2610 C   0  0  0  0  0  0  0  0  0  0  0  0
  161.2360  214.4310  144.6990 O   0  0  0  0  0  1  0  0  0  0  0  0
  162.9890  212.9560  144.6220 O   0  0  0  0  0  0  0  0  0  0  0  0
  1 10  1  0  0  0  0
  1 20  1  0  0  0  0
  1 16  1  1  0  0  0
  2 27  2  0  0  0  0
  3 11  2  0  0  0  0
  3  4  1  0  0  0  0
  4 21  2  0  0  0  0
  5 25  2  0  0  0  0
  5  6  1  0  0  0  0
  6 18  1  0  0  0  0
  7 19  1  6  0  0  0
  7 24  1  0  0  0  0
  8 12  1  0  0  0  0
  9 26  1  0  0  0  0
  9 15  2  0  0  0  0
 10 20  1  0  0  0  0
 10 17  1  0  0  0  0
 11 13  1  0  0  0  0
 12  2  1  0  0  0  0
 13 12  1  0  0  0  0
 13 22  1  0  0  0  0
 14 27  1  0  0  0  0
 14 23  1  0  0  0  0
 16 19  1  0  0  0  0
 17  8  1  0  0  0  0
 17  7  1  0  0  0  0
 18 15  1  0  0  0  0
 21 22  1  0  0  0  0
 22 14  2  0  0  0  0
 23 28  1  0  0  0  0
 24  2  1  0  0  0  0
 27  5  1  0  0  0  0
 28  6  2  0  0  0  0
 28  9  1  0  0  0  0
 29 20  1  0  0  0  0
 30 29  1  0  0  0  0
 31 30  1  0  0  0  0
 32 30  2  0  0  0  0
M  END
>  <MODEL>
2

>  <REMARK>
 VINA RESULT:      -6.4      4.152      8.214
  Name = 
  2 active torsions:
  status: ('A' for Active; 'I' for Inactive)
    1  A    between atoms: C_20  and  C_29
    2  A    between atoms: C_29  and  C_30
                            x       y       z     vdW  Elec       q    Type
                         _______ _______ _______ _____ _____    ______ ____

>  <TORSDO>
F 2

$$$$
=
 OpenBabel11122412533D

 32 38  0  0  1  0  0  0  0  0999 V2000
  160.4390  209.6620  155.9830 C   0  0  1  0  0  3  0  0  0  0  0  0
  161.9560  207.3030  151.5000 C   0  0  0  0  0  0  0  0  0  0  0  0
  162.0280  211.7240  149.2600 C   0  0  0  0  0  3  0  0  0  0  0  0
  161.6590  211.1280  148.0530 C   0  0  0  0  0  3  0  0  0  0  0  0
  161.7240  205.2020  150.0240 C   0  0  0  0  0  0  0  0  0  0  0  0
  161.5010  204.6430  148.6960 C   0  0  0  0  0  0  0  0  0  0  0  0
  160.9220  207.7440  153.7240 C   0  0  1  0  0  3  0  0  0  0  0  0
  162.6250  209.3280  152.7740 C   0  0  0  0  0  2  0  0  0  0  0  0
  161.1550  204.6160  146.4540 C   0  0  0  0  0  0  0  0  0  0  0  0
  161.5890  209.8960  155.0000 C   0  0  2  0  0  3  0  0  0  0  0  0
  162.2610  210.9320  150.3860 C   0  0  0  0  0  3  0  0  0  0  0  0
  162.3600  208.7140  151.4730 N   0  0  0  0  0  0  0  0  0  0  0  0
  162.1240  209.5360  150.3160 C   0  0  0  0  0  0  0  0  0  0  0  0
  161.6450  207.4610  149.0100 C   0  0  0  0  0  0  0  0  0  0  0  0
  161.1770  203.3820  146.8560 N   0  0  0  0  0  0  0  0  0  0  0  0
  159.2920  208.7940  155.4180 C   0  0  0  0  0  2  0  0  0  0  0  0
  161.3710  209.2150  153.6350 C   0  0  2  0  0  3  0  0  0  0  0  0
  161.3960  203.3880  148.2780 C   0  0  0  0  0  2  0  0  0  0  0  0
  159.6950  207.5460  154.6170 C   0  0  0  0  0  2  0  0  0  0  0  0
  161.7560  208.9230  156.1640 C   0  0  1  0  0  3  0  0  0  0  0  0
  161.5280  209.7400  147.9730 C   0  0  0  0  0  2  0  0  0  0  0  0
  161.7570  208.9340  149.1000 C   0  0  0  0  0  0  0  0  0  0  0  0
  161.4180  206.8360  147.6670 C   0  0  0  0  0  2  0  0  0  0  0  0
  160.6830  207.1580  152.3350 C   0  0  0  0  0  2  0  0  0  0  0  0
  161.8630  204.4570  151.0330 O   0  0  0  0  0  0  0  0  0  0  0  0
  160.9490  205.0120  145.0340 C   0  0  0  0  0  1  0  0  0  0  0  0
  161.7830  206.6900  150.1300 C   0  0  0  0  0  0  0  0  0  0  0  0
  161.3550  205.5100  147.5730 C   0  0  0  0  0  0  0  0  0  0  0  0
  162.5610  209.5900  157.2610 C   0  0  0  0  0  2  0  0  0  0  0  0
  162.9720  210.9530  156.8270 C   0  0  0  0  0  0  0  0  0  0  0  0
  162.3610  211.9630  157.2610 O   0  0  0  0  0  1  0  0  0  0  0  0
  164.0540  211.1130  155.9710 O   0  0  0  0  0  0  0  0  0  0  0  0
  1 16  1  6  0  0  0
  1 20  1  0  0  0  0
  2 24  1  0  0  0  0
  3 11  1  0  0  0  0
  4  3  2  0  0  0  0
  5 27  1  0  0  0  0
  5 25  2  0  0  0  0
  6  5  1  0  0  0  0
  7 24  1  6  0  0  0
  7 19  1  0  0  0  0
  8 17  1  0  0  0  0
  9 15  2  0  0  0  0
  9 28  1  0  0  0  0
 10  1  1  0  0  0  0
 10 20  1  0  0  0  0
 12  2  1  0  0  0  0
 12  8  1  0  0  0  0
 13 11  2  0  0  0  0
 13 12  1  0  0  0  0
 14 22  2  0  0  0  0
 14 27  1  0  0  0  0
 15 18  1  0  0  0  0
 17  7  1  0  0  0  0
 17 10  1  0  0  0  0
 18  6  1  0  0  0  0
 19 16  1  0  0  0  0
 20 29  1  0  0  0  0
 21  4  1  0  0  0  0
 21 22  1  0  0  0  0
 22 13  1  0  0  0  0
 23 14  1  0  0  0  0
 26  9  1  0  0  0  0
 27  2  2  0  0  0  0
 28 23  1  0  0  0  0
 28  6  2  0  0  0  0
 30 29  1  0  0  0  0
 30 31  1  0  0  0  0
 32 30  2  0  0  0  0
M  END
>  <MODEL>
3

>  <REMARK>
 VINA RESULT:      -6.4      1.431      2.099
  Name = 
  2 active torsions:
  status: ('A' for Active; 'I' for Inactive)
    1  A    between atoms: C_20  and  C_29
    2  A    between atoms: C_29  and  C_30
                            x       y       z     vdW  Elec       q    Type
                         _______ _______ _______ _____ _____    ______ ____

>  <TORSDO>
F 2

$$$$
