=
 OpenBabel11122414393D

 34 40  0  0  1  0  0  0  0  0999 V2000
  161.0800  208.2680  154.1480 C   0  0  1  0  0  3  0  0  0  0  0  0
  162.1200  206.2960  153.1750 C   0  0  0  0  0  2  0  0  0  0  0  0
  157.4200  213.4510  153.2100 C   0  0  0  0  0  0  0  0  0  0  0  0
  159.8720  210.2970  155.0000 C   0  0  2  0  0  3  0  0  0  0  0  0
  159.6850  212.2830  153.4520 C   0  0  2  0  0  3  0  0  0  0  0  0
  159.3410  214.1470  151.7060 C   0  0  0  0  0  1  0  0  0  0  0  0
  156.6600  213.3610  152.2090 O   0  0  0  0  0  0  0  0  0  0  0  0
  157.6170  213.2120  155.7200 C   0  0  0  0  0  3  0  0  0  0  0  0
  162.0420  208.2420  152.0320 C   0  0  2  0  0  3  0  0  0  0  0  0
  161.5640  208.3290  148.8940 C   0  0  0  0  0  2  0  0  0  0  0  0
  159.9400  211.3250  152.2870 C   0  0  0  0  0  2  0  0  0  0  0  0
  158.6350  212.3440  155.7630 C   0  0  0  0  0  3  0  0  0  0  0  0
  161.2260  209.4520  151.5440 C   0  0  1  0  0  3  0  0  0  0  0  0
  162.7540  205.9850  151.8210 C   0  0  0  0  0  2  0  0  0  0  0  0
  159.0100  211.4910  154.5860 C   0  0  2  0  0  3  0  0  0  0  0  0
  156.8560  213.4670  154.5270 N   0  0  0  0  0  2  0  0  0  0  0  0
  161.7220  207.0710  149.7710 C   0  0  1  0  0  3  0  0  0  0  0  0
  160.2130  209.4720  153.7430 C   0  0  1  0  0  3  0  0  0  0  0  0
  158.9100  213.5490  153.0390 C   0  0  1  0  0  3  0  0  0  0  0  0
  160.8850  210.2900  152.7110 N   0  0  2  0  0  0  0  0  0  0  0  0
  160.0400  208.5000  156.3840 C   0  0  0  0  0  2  0  0  0  0  0  0
  162.4980  209.4780  149.2810 C   0  0  0  0  0  2  0  0  0  0  0  0
  159.1550  209.4860  155.9050 O   0  0  0  0  0  0  0  0  0  0  0  0
  162.0030  210.2740  150.4980 C   0  0  0  0  0  2  0  0  0  0  0  0
  162.6160  207.2700  151.0150 C   0  0  1  0  0  3  0  0  0  0  0  0
  160.3760  207.5070  155.2700 C   0  0  0  0  0  2  0  0  0  0  0  0
  161.2580  207.4470  152.9550 N   0  0  2  0  0  0  0  0  0  0  0  0
  160.4560  206.5920  150.1260 O   0  0  0  0  0  0  0  0  0  0  0  0
  160.1710  205.5910  149.1950 C   0  0  0  0  0  2  0  0  0  0  0  0
  160.1780  202.4310  149.3110 O   0  0  0  0  0  0  0  0  0  0  0  0
  161.4340  203.8700  147.9700 C   0  0  0  0  0  2  0  0  0  0  0  0
  161.1910  204.4720  149.3150 C   0  0  2  0  0  3  0  0  0  0  0  0
  161.0150  202.4470  148.1870 C   0  0  0  0  0  2  0  0  0  0  0  0
  160.6590  203.3990  150.1430 N   0  0  0  0  0  2  0  0  0  0  0  0
  1 26  1  1  0  0  0
  3 16  1  0  0  0  0
  4 23  1  1  0  0  0
  5 11  1  6  0  0  0
  5 15  1  0  0  0  0
  6 19  1  0  0  0  0
  7  3  2  0  0  0  0
  8 12  2  0  0  0  0
  9 27  1  0  0  0  0
 10 22  1  0  0  0  0
 10 17  1  0  0  0  0
 11 20  1  0  0  0  0
 13  9  1  0  0  0  0
 13 20  1  0  0  0  0
 14  2  1  0  0  0  0
 15  4  1  0  0  0  0
 15 12  1  0  0  0  0
 16  8  1  0  0  0  0
 17 28  1  0  0  0  0
 17 25  1  0  0  0  0
 18  1  1  0  0  0  0
 18  4  1  0  0  0  0
 19  3  1  0  0  0  0
 19  5  1  0  0  0  0
 20 18  1  0  0  0  0
 22 24  1  0  0  0  0
 23 21  1  0  0  0  0
 24 13  1  0  0  0  0
 25 14  1  0  0  0  0
 25  9  1  0  0  0  0
 26 21  1  0  0  0  0
 27  2  1  0  0  0  0
 27  1  1  0  0  0  0
 29 32  1  0  0  0  0
 29 28  1  0  0  0  0
 30 34  1  0  0  0  0
 31 33  1  0  0  0  0
 31 32  1  0  0  0  0
 32 34  1  0  0  0  0
 33 30  1  0  0  0  0
M  END
>  <MODEL>
1

>  <REMARK>
 VINA RESULT:      -8.0      0.000      0.000
  Name = 
  3 active torsions:
  status: ('A' for Active; 'I' for Inactive)
    1  A    between atoms: C_17  and  O_28
    2  A    between atoms: O_28  and  C_29
    3  A    between atoms: C_29  and  C_32
                            x       y       z     vdW  Elec       q    Type
                         _______ _______ _______ _____ _____    ______ ____

>  <TORSDO>
F 3

$$$$
=
 OpenBabel11122414393D

 34 40  0  0  1  0  0  0  0  0999 V2000
  161.8670  213.4470  142.2600 C   0  0  1  0  0  3  0  0  0  0  0  0
  162.3120  212.7910  139.9610 C   0  0  0  0  0  2  0  0  0  0  0  0
  157.8690  213.1700  147.2700 C   0  0  0  0  0  0  0  0  0  0  0  0
  161.2840  213.9630  144.6470 C   0  0  2  0  0  3  0  0  0  0  0  0
  158.8490  214.3260  145.2060 C   0  0  2  0  0  3  0  0  0  0  0  0
  156.3220  214.4300  145.7030 C   0  0  0  0  0  1  0  0  0  0  0  0
  157.0950  212.1760  147.2460 O   0  0  0  0  0  0  0  0  0  0  0  0
  160.0260  214.1250  148.1810 C   0  0  0  0  0  3  0  0  0  0  0  0
  160.2270  213.3650  140.6150 C   0  0  2  0  0  3  0  0  0  0  0  0
  157.6490  211.8820  139.5020 C   0  0  0  0  0  2  0  0  0  0  0  0
  158.5020  213.5600  143.9270 C   0  0  0  0  0  2  0  0  0  0  0  0
  160.6190  214.4330  147.0220 C   0  0  0  0  0  3  0  0  0  0  0  0
  159.0800  213.2290  141.6320 C   0  0  1  0  0  3  0  0  0  0  0  0
  161.4400  212.5920  138.7230 C   0  0  0  0  0  2  0  0  0  0  0  0
  160.2050  213.8110  145.7210 C   0  0  2  0  0  3  0  0  0  0  0  0
  158.8910  213.2470  148.2700 N   0  0  0  0  0  2  0  0  0  0  0  0
  159.1100  211.6430  139.0740 C   0  0  1  0  0  3  0  0  0  0  0  0
  160.7880  213.3000  143.3470 C   0  0  1  0  0  3  0  0  0  0  0  0
  157.7300  214.2790  146.2640 C   0  0  1  0  0  3  0  0  0  0  0  0
  159.4970  213.8660  142.8980 N   0  0  2  0  0  0  0  0  0  0  0  0
  163.4750  213.6270  144.1360 C   0  0  0  0  0  2  0  0  0  0  0  0
  157.3040  213.3540  139.7430 C   0  0  0  0  0  2  0  0  0  0  0  0
  162.4680  213.3210  145.0710 O   0  0  0  0  0  0  0  0  0  0  0  0
  157.7800  213.8700  141.1090 C   0  0  0  0  0  2  0  0  0  0  0  0
  160.0190  212.8880  139.1880 C   0  0  1  0  0  3  0  0  0  0  0  0
  163.1930  212.9230  142.8070 C   0  0  0  0  0  2  0  0  0  0  0  0
  161.4130  212.6880  141.1000 N   0  0  2  0  0  0  0  0  0  0  0  0
  159.6340  210.5650  139.7950 O   0  0  0  0  0  0  0  0  0  0  0  0
  159.7730  209.5350  138.8610 C   0  0  0  0  0  2  0  0  0  0  0  0
  161.9380  207.7080  140.2640 O   0  0  0  0  0  0  0  0  0  0  0  0
  161.3730  207.8720  138.0050 C   0  0  0  0  0  2  0  0  0  0  0  0
  161.2430  209.1950  138.6850 C   0  0  2  0  0  3  0  0  0  0  0  0
  162.1200  207.0710  139.0290 C   0  0  0  0  0  2  0  0  0  0  0  0
  161.8790  209.0420  139.9860 N   0  0  0  0  0  2  0  0  0  0  0  0
  1 26  1  1  0  0  0
  1 18  1  0  0  0  0
  2 27  1  0  0  0  0
  3 16  1  0  0  0  0
  4 23  1  1  0  0  0
  4 15  1  0  0  0  0
  5 11  1  6  0  0  0
  5 15  1  0  0  0  0
  5 19  1  0  0  0  0
  6 19  1  0  0  0  0
  7  3  2  0  0  0  0
  8 16  1  0  0  0  0
  9 27  1  0  0  0  0
  9 13  1  0  0  0  0
 10 22  1  0  0  0  0
 12  8  2  0  0  0  0
 13 20  1  0  0  0  0
 14 25  1  0  0  0  0
 14  2  1  0  0  0  0
 15 12  1  0  0  0  0
 17 25  1  0  0  0  0
 17 10  1  0  0  0  0
 17 28  1  0  0  0  0
 18  4  1  0  0  0  0
 19  3  1  0  0  0  0
 20 18  1  0  0  0  0
 20 11  1  0  0  0  0
 21 23  1  0  0  0  0
 22 24  1  0  0  0  0
 24 13  1  0  0  0  0
 25  9  1  0  0  0  0
 26 21  1  0  0  0  0
 27  1  1  0  0  0  0
 29 28  1  0  0  0  0
 31 32  1  0  0  0  0
 31 33  1  0  0  0  0
 32 29  1  0  0  0  0
 32 34  1  0  0  0  0
 33 30  1  0  0  0  0
 34 30  1  0  0  0  0
M  END
>  <MODEL>
2

>  <REMARK>
 VINA RESULT:      -5.8      8.874     10.914
  Name = 
  3 active torsions:
  status: ('A' for Active; 'I' for Inactive)
    1  A    between atoms: C_17  and  O_28
    2  A    between atoms: O_28  and  C_29
    3  A    between atoms: C_29  and  C_32
                            x       y       z     vdW  Elec       q    Type
                         _______ _______ _______ _____ _____    ______ ____

>  <TORSDO>
F 3

$$$$
=
 OpenBabel11122414393D

 34 40  0  0  1  0  0  0  0  0999 V2000
  161.5710  210.2620  152.1650 C   0  0  1  0  0  3  0  0  0  0  0  0
  160.9810  211.8430  153.9170 C   0  0  0  0  0  2  0  0  0  0  0  0
  160.7150  204.4180  149.6620 C   0  0  0  0  0  0  0  0  0  0  0  0
  162.0030  208.5380  150.3910 C   0  0  2  0  0  3  0  0  0  0  0  0
  161.9970  206.1120  151.0910 C   0  0  2  0  0  3  0  0  0  0  0  0
  161.7210  203.6710  151.8680 C   0  0  0  0  0  1  0  0  0  0  0  0
  159.6150  203.8890  149.9760 O   0  0  0  0  0  0  0  0  0  0  0  0
  161.9870  205.7220  147.9080 C   0  0  0  0  0  3  0  0  0  0  0  0
  161.2370  209.6470  154.3820 C   0  0  2  0  0  3  0  0  0  0  0  0
  159.3770  208.1440  156.4710 C   0  0  0  0  0  2  0  0  0  0  0  0
  161.1820  206.5290  152.3170 C   0  0  0  0  0  2  0  0  0  0  0  0
  162.3760  206.7550  148.6640 C   0  0  0  0  0  3  0  0  0  0  0  0
  160.9330  208.1800  154.0260 C   0  0  1  0  0  3  0  0  0  0  0  0
  160.6480  211.7110  155.4010 C   0  0  0  0  0  2  0  0  0  0  0  0
  161.6940  207.1050  149.9540 C   0  0  2  0  0  3  0  0  0  0  0  0
  160.9490  204.8100  148.3040 N   0  0  0  0  0  2  0  0  0  0  0  0
  159.3600  209.6470  156.1320 C   0  0  1  0  0  3  0  0  0  0  0  0
  161.2680  208.8220  151.7160 C   0  0  1  0  0  3  0  0  0  0  0  0
  161.7860  204.6390  150.6930 C   0  0  1  0  0  3  0  0  0  0  0  0
  161.6300  207.8480  152.7680 N   0  0  2  0  0  0  0  0  0  0  0  0
  161.9990  210.7270  149.7690 C   0  0  0  0  0  2  0  0  0  0  0  0
  160.7810  207.5370  156.5380 C   0  0  0  0  0  2  0  0  0  0  0  0
  161.5480  209.4420  149.4070 O   0  0  0  0  0  0  0  0  0  0  0  0
  161.3680  207.2240  155.1530 C   0  0  0  0  0  2  0  0  0  0  0  0
  160.7270  210.2180  155.6940 C   0  0  1  0  0  3  0  0  0  0  0  0
  161.2560  211.2150  151.0140 C   0  0  0  0  0  2  0  0  0  0  0  0
  160.7480  210.5280  153.3400 N   0  0  2  0  0  0  0  0  0  0  0  0
  158.3750  209.8940  155.1680 O   0  0  0  0  0  0  0  0  0  0  0  0
  157.4110  210.6640  155.8220 C   0  0  0  0  0  2  0  0  0  0  0  0
  156.6590  213.6520  155.1120 O   0  0  0  0  0  0  0  0  0  0  0  0
  157.4330  211.9450  153.7210 C   0  0  0  0  0  2  0  0  0  0  0  0
  156.5590  211.3980  154.8010 C   0  0  2  0  0  3  0  0  0  0  0  0
  157.1730  213.4180  153.8300 C   0  0  0  0  0  2  0  0  0  0  0  0
  155.9180  212.5490  155.4200 N   0  0  0  0  0  2  0  0  0  0  0  0
  1 26  1  6  0  0  0
  1 27  1  0  0  0  0
  2 14  1  0  0  0  0
  3  7  2  0  0  0  0
  3 19  1  0  0  0  0
  4 23  1  6  0  0  0
  4 18  1  0  0  0  0
  5 11  1  1  0  0  0
  8 16  1  0  0  0  0
  8 12  2  0  0  0  0
  9 25  1  0  0  0  0
 10 22  1  0  0  0  0
 11 20  1  0  0  0  0
 12 15  1  0  0  0  0
 13  9  1  0  0  0  0
 13 24  1  0  0  0  0
 14 25  1  0  0  0  0
 15  4  1  0  0  0  0
 15  5  1  0  0  0  0
 16  3  1  0  0  0  0
 17 10  1  0  0  0  0
 18  1  1  0  0  0  0
 18 20  1  0  0  0  0
 19  5  1  0  0  0  0
 19  6  1  0  0  0  0
 20 13  1  0  0  0  0
 21 26  1  0  0  0  0
 23 21  1  0  0  0  0
 24 22  1  0  0  0  0
 25 17  1  0  0  0  0
 27  2  1  0  0  0  0
 27  9  1  0  0  0  0
 28 29  1  0  0  0  0
 28 17  1  0  0  0  0
 30 34  1  0  0  0  0
 31 33  1  0  0  0  0
 31 32  1  0  0  0  0
 32 34  1  0  0  0  0
 32 29  1  0  0  0  0
 33 30  1  0  0  0  0
M  END
>  <MODEL>
3

>  <REMARK>
 VINA RESULT:      -5.7      1.610      8.110
  Name = 
  3 active torsions:
  status: ('A' for Active; 'I' for Inactive)
    1  A    between atoms: C_17  and  O_28
    2  A    between atoms: O_28  and  C_29
    3  A    between atoms: C_29  and  C_32
                            x       y       z     vdW  Elec       q    Type
                         _______ _______ _______ _____ _____    ______ ____

>  <TORSDO>
F 3

$$$$
=
 OpenBabel11122414393D

 34 40  0  0  1  0  0  0  0  0999 V2000
  162.1160  207.7780  149.5700 C   0  0  1  0  0  3  0  0  0  0  0  0
  162.1680  209.9340  150.6950 C   0  0  0  0  0  2  0  0  0  0  0  0
  159.6910  201.8420  149.3980 C   0  0  0  0  0  0  0  0  0  0  0  0
  161.8790  205.5240  148.4900 C   0  0  2  0  0  3  0  0  0  0  0  0
  161.5140  203.5340  150.0020 C   0  0  2  0  0  3  0  0  0  0  0  0
  160.9000  201.6230  151.6180 C   0  0  0  0  0  1  0  0  0  0  0  0
  158.5810  201.7300  149.9840 O   0  0  0  0  0  0  0  0  0  0  0  0
  160.8690  202.1520  147.1820 C   0  0  0  0  0  3  0  0  0  0  0  0
  162.0600  208.0140  151.8820 C   0  0  2  0  0  3  0  0  0  0  0  0
  160.3360  207.7760  154.5370 C   0  0  0  0  0  2  0  0  0  0  0  0
  161.0270  204.5120  151.0730 C   0  0  0  0  0  2  0  0  0  0  0  0
  161.5820  203.2440  147.4810 C   0  0  0  0  0  3  0  0  0  0  0  0
  161.4150  206.6350  152.1010 C   0  0  1  0  0  3  0  0  0  0  0  0
  162.0810  210.3750  152.1540 C   0  0  0  0  0  2  0  0  0  0  0  0
  161.2200  204.1490  148.6220 C   0  0  2  0  0  3  0  0  0  0  0  0
  159.7570  201.7030  147.9740 N   0  0  0  0  0  2  0  0  0  0  0  0
  160.5580  209.0440  153.6900 C   0  0  1  0  0  3  0  0  0  0  0  0
  161.4590  206.3920  149.6920 C   0  0  1  0  0  3  0  0  0  0  0  0
  160.9490  202.1120  150.1750 C   0  0  1  0  0  3  0  0  0  0  0  0
  161.8000  205.7530  150.9810 N   0  0  2  0  0  0  0  0  0  0  0  0
  162.2000  207.3230  147.1360 C   0  0  0  0  0  2  0  0  0  0  0  0
  161.5810  206.8960  154.6790 C   0  0  0  0  0  2  0  0  0  0  0  0
  161.4470  206.1440  147.2980 O   0  0  0  0  0  0  0  0  0  0  0  0
  161.8420  206.0180  153.4460 C   0  0  0  0  0  2  0  0  0  0  0  0
  161.9130  209.0860  152.9480 C   0  0  1  0  0  3  0  0  0  0  0  0
  161.7990  208.3550  148.1910 C   0  0  0  0  0  2  0  0  0  0  0  0
  161.5810  208.6030  150.6470 N   0  0  2  0  0  0  0  0  0  0  0  0
  159.4880  209.2000  152.8010 O   0  0  0  0  0  0  0  0  0  0  0  0
  159.2420  210.5750  152.7670 C   0  0  0  0  0  2  0  0  0  0  0  0
  158.8650  213.3560  154.2240 O   0  0  0  0  0  0  0  0  0  0  0  0
  157.5140  211.4530  154.2840 C   0  0  0  0  0  2  0  0  0  0  0  0
  158.9560  211.0810  154.1710 C   0  0  2  0  0  3  0  0  0  0  0  0
  157.5980  212.9110  154.6250 C   0  0  0  0  0  2  0  0  0  0  0  0
  159.7070  212.3020  154.4240 N   0  0  0  0  0  2  0  0  0  0  0  0
  1 26  1  6  0  0  0
  1 18  1  0  0  0  0
  1 27  1  0  0  0  0
  2 14  1  0  0  0  0
  3  7  2  0  0  0  0
  3 19  1  0  0  0  0
  4 23  1  6  0  0  0
  4 15  1  0  0  0  0
  4 18  1  0  0  0  0
  5 19  1  0  0  0  0
  5 11  1  1  0  0  0
  8 12  2  0  0  0  0
  8 16  1  0  0  0  0
  9 13  1  0  0  0  0
  9 25  1  0  0  0  0
 10 22  1  0  0  0  0
 12 15  1  0  0  0  0
 13 24  1  0  0  0  0
 14 25  1  0  0  0  0
 15  5  1  0  0  0  0
 16  3  1  0  0  0  0
 17 10  1  0  0  0  0
 18 20  1  0  0  0  0
 19  6  1  0  0  0  0
 20 11  1  0  0  0  0
 20 13  1  0  0  0  0
 21 23  1  0  0  0  0
 21 26  1  0  0  0  0
 24 22  1  0  0  0  0
 25 17  1  0  0  0  0
 27  2  1  0  0  0  0
 27  9  1  0  0  0  0
 28 17  1  0  0  0  0
 29 28  1  0  0  0  0
 29 32  1  0  0  0  0
 30 34  1  0  0  0  0
 30 33  1  0  0  0  0
 31 33  1  0  0  0  0
 32 31  1  0  0  0  0
 32 34  1  0  0  0  0
M  END
>  <MODEL>
4

>  <REMARK>
 VINA RESULT:      -5.0      1.827      8.735
  Name = 
  3 active torsions:
  status: ('A' for Active; 'I' for Inactive)
    1  A    between atoms: C_17  and  O_28
    2  A    between atoms: O_28  and  C_29
    3  A    between atoms: C_29  and  C_32
                            x       y       z     vdW  Elec       q    Type
                         _______ _______ _______ _____ _____    ______ ____

>  <TORSDO>
F 3

$$$$
