=
 OpenBabel11122413163D

 31 35  0  0  1  0  0  0  0  0999 V2000
  160.8460  202.1110  150.6810 C   0  0  0  0  0  0  0  0  0  0  0  0
  160.8980  205.5910  149.0580 C   0  0  1  0  0  3  0  0  0  0  0  0
  161.3940  205.2940  147.6530 C   0  0  0  0  0  0  0  0  0  0  0  0
  160.9310  208.0980  153.8120 O   0  0  0  0  0  0  0  0  0  0  0  0
  161.2330  208.9210  152.9080 C   0  0  0  0  0  0  0  0  0  0  0  0
  161.3940  203.9120  145.6500 C   0  0  0  0  0  0  0  0  0  0  0  0
  160.9720  204.4670  150.0820 C   0  0  0  0  0  0  0  0  0  0  0  0
  160.8590  202.4460  152.0360 C   0  0  0  0  0  3  0  0  0  0  0  0
  161.0100  204.1260  146.9770 C   0  0  0  0  0  3  0  0  0  0  0  0
  161.2620  207.1510  151.0640 C   0  0  0  0  0  0  0  0  0  0  0  0
  160.7770  200.8120  150.3050 F   0  0  0  0  0  0  0  0  0  0  0  0
  162.4210  207.4880  147.5700 O   0  0  0  0  0  0  0  0  0  0  0  0
  161.0360  202.7690  145.0180 F   0  0  0  0  0  0  0  0  0  0  0  0
  161.0430  206.1660  151.8840 N   0  0  0  0  0  0  0  0  0  0  0  0
  161.4590  206.8770  149.6300 C   0  0  0  0  0  0  0  0  0  0  0  0
  161.3860  208.4960  151.5470 N   0  0  0  0  0  2  0  0  0  0  0  0
  160.8860  203.1170  149.7120 C   0  0  0  0  0  3  0  0  0  0  0  0
  162.1380  204.8800  144.9740 C   0  0  0  0  0  3  0  0  0  0  0  0
  160.9700  204.7970  151.4570 C   0  0  0  0  0  0  0  0  0  0  0  0
  160.9190  203.7860  152.4220 C   0  0  0  0  0  3  0  0  0  0  0  0
  162.1170  207.7240  148.8970 N   0  0  0  0  0  0  0  0  0  0  0  0
  162.1060  206.2810  146.9490 C   0  0  0  0  0  0  0  0  0  0  0  0
  162.4880  206.0660  145.6210 C   0  0  0  0  0  3  0  0  0  0  0  0
  160.5230  210.9400  156.0320 C   0  0  1  0  0  3  0  0  0  0  0  0
  162.4150  210.5310  154.4300 C   0  0  0  0  0  2  0  0  0  0  0  0
  159.0880  210.9630  152.4590 C   0  0  0  0  0  1  0  0  0  0  0  0
  159.9700  210.5500  157.2500 O   0  0  0  0  0  1  0  0  0  0  0  0
  161.7930  210.1350  155.7700 C   0  0  0  0  0  2  0  0  0  0  0  0
  160.1090  211.1180  153.5730 C   0  0  2  0  0  3  0  0  0  0  0  0
  161.4200  210.3660  153.2760 C   0  0  2  0  0  3  0  0  0  0  0  0
  159.5090  210.7110  154.9170 C   0  0  0  0  0  2  0  0  0  0  0  0
  1  8  1  0  0  0  0
  2  3  1  6  0  0  0
  2 15  1  0  0  0  0
  2  7  1  0  0  0  0
  5  4  2  0  0  0  0
  6  9  2  0  0  0  0
  7 19  2  0  0  0  0
  8 20  2  0  0  0  0
  9  3  1  0  0  0  0
 10 16  1  0  0  0  0
 10 14  2  0  0  0  0
 11  1  1  0  0  0  0
 12 21  1  0  0  0  0
 13  6  1  0  0  0  0
 15 10  1  0  0  0  0
 16  5  1  0  0  0  0
 17  7  1  0  0  0  0
 17  1  2  0  0  0  0
 18 23  2  0  0  0  0
 18  6  1  0  0  0  0
 19 14  1  0  0  0  0
 19 20  1  0  0  0  0
 21 15  2  0  0  0  0
 22 12  1  0  0  0  0
 22  3  2  0  0  0  0
 23 22  1  0  0  0  0
 24 27  1  1  0  0  0
 25 28  1  0  0  0  0
 28 24  1  0  0  0  0
 29 26  1  6  0  0  0
 29 31  1  0  0  0  0
 30  5  1  1  0  0  0
 30 29  1  0  0  0  0
 30 25  1  0  0  0  0
 31 24  1  0  0  0  0
M  END
>  <MODEL>
1

>  <REMARK>
 VINA RESULT:     -11.6      0.000      0.000
  Name = 
  1 active torsions:
  status: ('A' for Active; 'I' for Inactive)
    1  A    between atoms: C_5  and  C_30
                            x       y       z     vdW  Elec       q    Type
                         _______ _______ _______ _____ _____    ______ ____

>  <TORSDO>
F 1

$$$$
=
 OpenBabel11122413163D

 31 35  0  0  1  0  0  0  0  0999 V2000
  160.9040  201.9090  150.5520 C   0  0  0  0  0  0  0  0  0  0  0  0
  160.9310  205.4470  149.0590 C   0  0  1  0  0  3  0  0  0  0  0  0
  161.4120  205.2040  147.6390 C   0  0  0  0  0  0  0  0  0  0  0  0
  161.0100  207.7760  153.9020 O   0  0  0  0  0  0  0  0  0  0  0  0
  161.3010  208.6330  153.0260 C   0  0  0  0  0  0  0  0  0  0  0  0
  161.3930  203.8960  145.5870 C   0  0  0  0  0  0  0  0  0  0  0  0
  161.0190  204.2860  150.0400 C   0  0  0  0  0  0  0  0  0  0  0  0
  160.9310  202.1940  151.9190 C   0  0  0  0  0  3  0  0  0  0  0  0
  161.0230  204.0600  146.9240 C   0  0  0  0  0  3  0  0  0  0  0  0
  161.3140  206.9330  151.1170 C   0  0  0  0  0  0  0  0  0  0  0  0
  160.8330  200.6250  150.1290 F   0  0  0  0  0  0  0  0  0  0  0  0
  162.4330  207.4010  147.6250 O   0  0  0  0  0  0  0  0  0  0  0  0
  161.0300  202.7760  144.9160 F   0  0  0  0  0  0  0  0  0  0  0  0
  161.1060  205.9170  151.9030 N   0  0  0  0  0  0  0  0  0  0  0  0
  161.4950  206.7120  149.6720 C   0  0  0  0  0  0  0  0  0  0  0  0
  161.4400  208.2590  151.6490 N   0  0  0  0  0  2  0  0  0  0  0  0
  160.9310  202.9500  149.6210 C   0  0  0  0  0  3  0  0  0  0  0  0
  162.1270  204.8900  144.9390 C   0  0  0  0  0  3  0  0  0  0  0  0
  161.0310  204.5650  151.4270 C   0  0  0  0  0  0  0  0  0  0  0  0
  160.9920  203.5190  152.3540 C   0  0  0  0  0  3  0  0  0  0  0  0
  162.1430  207.5870  148.9640 N   0  0  0  0  0  0  0  0  0  0  0  0
  162.1140  206.2170  146.9640 C   0  0  0  0  0  0  0  0  0  0  0  0
  162.4820  206.0530  145.6250 C   0  0  0  0  0  3  0  0  0  0  0  0
  158.9410  211.3390  154.2310 C   0  0  1  0  0  3  0  0  0  0  0  0
  161.1130  210.2770  154.9160 C   0  0  0  0  0  2  0  0  0  0  0  0
  161.1030  210.8970  151.0750 C   0  0  0  0  0  1  0  0  0  0  0  0
  157.5610  211.3110  154.4190 O   0  0  0  0  0  1  0  0  0  0  0  0
  159.5960  210.2800  155.1140 C   0  0  0  0  0  2  0  0  0  0  0  0
  160.7700  211.0870  152.5440 C   0  0  2  0  0  3  0  0  0  0  0  0
  161.4890  210.0640  153.4450 C   0  0  2  0  0  3  0  0  0  0  0  0
  159.2580  211.0770  152.7620 C   0  0  0  0  0  2  0  0  0  0  0  0
  1  8  1  0  0  0  0
  2  3  1  6  0  0  0
  2 15  1  0  0  0  0
  2  7  1  0  0  0  0
  5  4  2  0  0  0  0
  6  9  1  0  0  0  0
  7 19  2  0  0  0  0
  8 20  2  0  0  0  0
  9  3  2  0  0  0  0
 10 16  1  0  0  0  0
 10 14  2  0  0  0  0
 11  1  1  0  0  0  0
 12 21  1  0  0  0  0
 13  6  1  0  0  0  0
 15 10  1  0  0  0  0
 16  5  1  0  0  0  0
 17  7  1  0  0  0  0
 17  1  2  0  0  0  0
 18  6  2  0  0  0  0
 18 23  1  0  0  0  0
 19 14  1  0  0  0  0
 19 20  1  0  0  0  0
 21 15  2  0  0  0  0
 22 12  1  0  0  0  0
 22  3  1  0  0  0  0
 23 22  2  0  0  0  0
 24 27  1  6  0  0  0
 24 28  1  0  0  0  0
 25 28  1  0  0  0  0
 29 26  1  6  0  0  0
 29 31  1  0  0  0  0
 29 30  1  0  0  0  0
 30  5  1  6  0  0  0
 30 25  1  0  0  0  0
 31 24  1  0  0  0  0
M  END
>  <MODEL>
2

>  <REMARK>
 VINA RESULT:     -11.1      0.897      1.150
  Name = 
  1 active torsions:
  status: ('A' for Active; 'I' for Inactive)
    1  A    between atoms: C_5  and  C_30
                            x       y       z     vdW  Elec       q    Type
                         _______ _______ _______ _____ _____    ______ ____

>  <TORSDO>
F 1

$$$$
=
 OpenBabel11122413163D

 31 35  0  0  1  0  0  0  0  0999 V2000
  161.0920  204.3900  152.4540 C   0  0  0  0  0  0  0  0  0  0  0  0
  160.9360  206.1600  149.0500 C   0  0  1  0  0  3  0  0  0  0  0  0
  161.2920  205.0460  148.0800 C   0  0  0  0  0  0  0  0  0  0  0  0
  161.4140  211.0330  151.2660 O   0  0  0  0  0  0  0  0  0  0  0  0
  161.6130  211.1220  150.0250 C   0  0  0  0  0  0  0  0  0  0  0  0
  161.1080  202.7340  147.3450 C   0  0  0  0  0  0  0  0  0  0  0  0
  161.1270  205.8880  150.5350 C   0  0  0  0  0  0  0  0  0  0  0  0
  161.2370  205.4780  153.3160 C   0  0  0  0  0  3  0  0  0  0  0  0
  160.8570  203.7290  148.2930 C   0  0  0  0  0  3  0  0  0  0  0  0
  161.4800  208.5970  149.6480 C   0  0  0  0  0  0  0  0  0  0  0  0
  161.0020  203.1350  152.9550 F   0  0  0  0  0  0  0  0  0  0  0  0
  162.2770  206.6820  146.5880 O   0  0  0  0  0  0  0  0  0  0  0  0
  160.7030  201.4620  147.5750 F   0  0  0  0  0  0  0  0  0  0  0  0
  161.3570  208.3250  150.9140 N   0  0  0  0  0  0  0  0  0  0  0  0
  161.5350  207.4990  148.6680 C   0  0  0  0  0  0  0  0  0  0  0  0
  161.6350  209.9500  149.1990 N   0  0  0  0  0  2  0  0  0  0  0  0
  161.0220  204.5960  151.0740 C   0  0  0  0  0  3  0  0  0  0  0  0
  161.7680  203.0530  146.1570 C   0  0  0  0  0  3  0  0  0  0  0  0
  161.2590  206.9850  151.4180 C   0  0  0  0  0  0  0  0  0  0  0  0
  161.3180  206.7720  152.7990 C   0  0  0  0  0  3  0  0  0  0  0  0
  162.1050  207.6910  147.5160 N   0  0  0  0  0  0  0  0  0  0  0  0
  161.9160  205.3650  146.8620 C   0  0  0  0  0  0  0  0  0  0  0  0
  162.1660  204.3680  145.9130 C   0  0  0  0  0  3  0  0  0  0  0  0
  159.9600  212.9900  147.1760 C   0  0  1  0  0  3  0  0  0  0  0  0
  160.5770  213.3660  149.5830 C   0  0  0  0  0  2  0  0  0  0  0  0
  163.4960  211.5720  147.7400 C   0  0  0  0  0  1  0  0  0  0  0  0
  158.9310  212.6010  146.3220 O   0  0  0  0  0  1  0  0  0  0  0  0
  159.4620  212.9580  148.6190 C   0  0  0  0  0  2  0  0  0  0  0  0
  162.2780  212.4540  147.9480 C   0  0  2  0  0  3  0  0  0  0  0  0
  161.8180  212.4810  149.4180 C   0  0  2  0  0  3  0  0  0  0  0  0
  161.1480  212.0500  147.0030 C   0  0  0  0  0  2  0  0  0  0  0  0
  1 11  1  0  0  0  0
  1  8  1  0  0  0  0
  2  3  1  6  0  0  0
  2  7  1  0  0  0  0
  3  9  1  0  0  0  0
  5  4  2  0  0  0  0
  6 13  1  0  0  0  0
  6  9  2  0  0  0  0
  7 17  1  0  0  0  0
  7 19  2  0  0  0  0
 10 14  2  0  0  0  0
 12 22  1  0  0  0  0
 12 21  1  0  0  0  0
 14 19  1  0  0  0  0
 15  2  1  0  0  0  0
 15 10  1  0  0  0  0
 16 10  1  0  0  0  0
 16  5  1  0  0  0  0
 17  1  2  0  0  0  0
 18  6  1  0  0  0  0
 19 20  1  0  0  0  0
 20  8  2  0  0  0  0
 21 15  2  0  0  0  0
 22  3  2  0  0  0  0
 23 18  2  0  0  0  0
 23 22  1  0  0  0  0
 24 27  1  6  0  0  0
 24 28  1  0  0  0  0
 28 25  1  0  0  0  0
 29 26  1  1  0  0  0
 29 30  1  0  0  0  0
 30 25  1  0  0  0  0
 30  5  1  6  0  0  0
 31 24  1  0  0  0  0
 31 29  1  0  0  0  0
M  END
>  <MODEL>
3

>  <REMARK>
 VINA RESULT:      -9.0      3.113      4.404
  Name = 
  1 active torsions:
  status: ('A' for Active; 'I' for Inactive)
    1  A    between atoms: C_5  and  C_30
                            x       y       z     vdW  Elec       q    Type
                         _______ _______ _______ _____ _____    ______ ____

>  <TORSDO>
F 1

$$$$
