=
 OpenBabel11122412393D

 30 35  0  0  1  0  0  0  0  0999 V2000
  161.4080  206.2320  150.3730 C   0  0  0  0  0  0  0  0  0  0  0  0
  161.1020  203.7300  150.2880 C   0  0  0  0  0  0  0  0  0  0  0  0
  160.8060  206.2470  154.5280 N   0  0  0  0  0  2  0  0  0  0  0  0
  161.4230  207.4290  151.1470 C   0  0  0  0  0  0  0  0  0  0  0  0
  161.6550  206.3170  149.0380 N   0  0  0  0  0  0  0  0  0  0  0  0
  162.1370  209.8890  148.4610 O   0  0  0  0  0  1  0  0  0  0  0  0
  160.3240  210.1430  151.9790 N   0  0  1  0  0  0  0  0  0  0  0  0
  161.9010  208.6860  149.1220 C   0  0  0  0  0  0  0  0  0  0  0  0
  160.2910  209.5370  153.3250 C   0  0  2  0  0  3  0  0  0  0  0  0
  160.9640  207.6540  154.8780 C   0  0  1  0  0  3  0  0  0  0  0  0
  161.9050  207.4920  148.4020 C   0  0  0  0  0  0  0  0  0  0  0  0
  161.6500  208.6690  150.5010 C   0  0  0  0  0  0  0  0  0  0  0  0
  160.8450  202.5400  150.9770 C   0  0  0  0  0  3  0  0  0  0  0  0
  160.4540  210.6500  154.3330 C   0  0  0  0  0  2  0  0  0  0  0  0
  160.0780  211.5730  152.1570 C   0  0  0  0  0  2  0  0  0  0  0  0
  161.3490  203.5510  148.5530 Cl  0  0  0  0  0  0  0  0  0  0  0  0
  160.9540  206.1300  153.1260 C   0  0  0  0  0  0  0  0  0  0  0  0
  160.6280  202.5380  152.3520 C   0  0  0  0  0  3  0  0  0  0  0  0
  161.1450  204.9690  150.9940 C   0  0  0  0  0  0  0  0  0  0  0  0
  161.1960  207.3300  152.5280 C   0  0  0  0  0  0  0  0  0  0  0  0
  162.0240  207.7960  155.7730 O   0  0  0  0  0  1  0  0  0  0  0  0
  161.2890  208.3980  153.5680 C   0  0  1  0  0  3  0  0  0  0  0  0
  159.8740  211.8480  153.6340 C   0  0  0  0  0  2  0  0  0  0  0  0
  162.8590  210.3400  151.9830 C   0  0  0  0  0  1  0  0  0  0  0  0
  160.6640  203.7330  153.0610 C   0  0  0  0  0  3  0  0  0  0  0  0
  160.9150  204.9400  152.4020 C   0  0  0  0  0  0  0  0  0  0  0  0
  161.5800  209.9890  151.2210 C   0  0  2  0  0  3  0  0  0  0  0  0
  162.1570  207.5160  147.0280 O   0  0  0  0  0  0  0  0  0  0  0  0
  160.6090  206.2140  145.7450 C   0  0  0  0  0  1  0  0  0  0  0  0
  162.0390  206.3550  146.2190 C   0  0  0  0  0  2  0  0  0  0  0  0
  1 19  2  0  0  0  0
  1  4  1  0  0  0  0
  2 13  2  0  0  0  0
  2 19  1  0  0  0  0
  3 10  1  0  0  0  0
  4 20  2  0  0  0  0
  5  1  1  0  0  0  0
  6  8  1  0  0  0  0
  7 15  1  1  0  0  0
  7  9  1  0  0  0  0
  8 12  2  0  0  0  0
  9 22  1  0  0  0  0
  9 14  1  1  0  0  0
 10 21  1  1  0  0  0
 11  5  2  0  0  0  0
 11  8  1  0  0  0  0
 12  4  1  0  0  0  0
 12 27  1  0  0  0  0
 13 18  1  0  0  0  0
 15 23  1  0  0  0  0
 16  2  1  0  0  0  0
 17  3  1  0  0  0  0
 18 25  2  0  0  0  0
 19 26  1  0  0  0  0
 20 17  1  0  0  0  0
 22 20  1  6  0  0  0
 22 10  1  0  0  0  0
 23 14  1  0  0  0  0
 26 25  1  0  0  0  0
 26 17  2  0  0  0  0
 27  7  1  0  0  0  0
 27 24  1  1  0  0  0
 28 11  1  0  0  0  0
 29 30  1  0  0  0  0
 30 28  1  0  0  0  0
M  END
>  <MODEL>
1

>  <REMARK>
 VINA RESULT:      -8.1      0.000      0.000
  Name = 
  2 active torsions:
  status: ('A' for Active; 'I' for Inactive)
    1  A    between atoms: C_11  and  O_28
    2  A    between atoms: O_28  and  C_30
                            x       y       z     vdW  Elec       q    Type
                         _______ _______ _______ _____ _____    ______ ____

>  <TORSDO>
F 2

$$$$
=
 OpenBabel11122412393D

 30 35  0  0  1  0  0  0  0  0999 V2000
  161.3780  207.7720  150.9490 C   0  0  0  0  0  0  0  0  0  0  0  0
  161.4140  205.5000  149.8530 C   0  0  0  0  0  0  0  0  0  0  0  0
  160.5800  206.0450  154.6910 N   0  0  0  0  0  2  0  0  0  0  0  0
  161.1950  208.5490  152.1300 C   0  0  0  0  0  0  0  0  0  0  0  0
  161.6760  208.4140  149.7870 N   0  0  0  0  0  0  0  0  0  0  0  0
  161.7030  211.9430  150.7180 O   0  0  0  0  0  1  0  0  0  0  0  0
  159.7040  210.5660  153.8530 N   0  0  1  0  0  0  0  0  0  0  0  0
  161.5980  210.5590  150.8230 C   0  0  0  0  0  0  0  0  0  0  0  0
  159.6880  209.4680  154.8410 C   0  0  2  0  0  3  0  0  0  0  0  0
  160.5310  207.1980  155.5820 C   0  0  1  0  0  3  0  0  0  0  0  0
  161.7960  209.7650  149.6940 C   0  0  0  0  0  0  0  0  0  0  0  0
  161.2860  209.9600  152.0510 C   0  0  0  0  0  0  0  0  0  0  0  0
  161.2850  204.1150  149.9870 C   0  0  0  0  0  3  0  0  0  0  0  0
  159.6510  210.0900  156.2170 C   0  0  0  0  0  2  0  0  0  0  0  0
  159.2600  211.7680  154.5570 C   0  0  0  0  0  2  0  0  0  0  0  0
  161.7660  206.0640  148.2220 Cl  0  0  0  0  0  0  0  0  0  0  0  0
  160.8090  206.5200  153.3780 C   0  0  0  0  0  0  0  0  0  0  0  0
  161.0040  203.5350  151.2210 C   0  0  0  0  0  3  0  0  0  0  0  0
  161.2570  206.3460  150.9910 C   0  0  0  0  0  0  0  0  0  0  0  0
  160.9170  207.8780  153.3300 C   0  0  0  0  0  0  0  0  0  0  0  0
  161.5180  207.0760  156.5590 O   0  0  0  0  0  1  0  0  0  0  0  0
  160.8160  208.4380  154.7110 C   0  0  1  0  0  3  0  0  0  0  0  0
  158.9510  211.4010  155.9950 C   0  0  0  0  0  2  0  0  0  0  0  0
  162.1870  211.0050  154.1840 C   0  0  0  0  0  1  0  0  0  0  0  0
  160.8460  204.3380  152.3440 C   0  0  0  0  0  3  0  0  0  0  0  0
  160.9650  205.7270  152.2440 C   0  0  0  0  0  0  0  0  0  0  0  0
  161.0040  210.8620  153.2240 C   0  0  2  0  0  3  0  0  0  0  0  0
  162.1090  210.3670  148.4730 O   0  0  0  0  0  0  0  0  0  0  0  0
  162.2340  212.5260  147.4430 C   0  0  0  0  0  1  0  0  0  0  0  0
  161.3250  211.4180  147.9280 C   0  0  0  0  0  2  0  0  0  0  0  0
  1 19  2  0  0  0  0
  1  4  1  0  0  0  0
  2 13  2  0  0  0  0
  2 19  1  0  0  0  0
  3 10  1  0  0  0  0
  4 20  2  0  0  0  0
  5  1  1  0  0  0  0
  6  8  1  0  0  0  0
  7 15  1  1  0  0  0
  7  9  1  0  0  0  0
  8 12  2  0  0  0  0
  9 14  1  1  0  0  0
 10 21  1  1  0  0  0
 11  5  2  0  0  0  0
 11  8  1  0  0  0  0
 12  4  1  0  0  0  0
 12 27  1  0  0  0  0
 13 18  1  0  0  0  0
 15 23  1  0  0  0  0
 16  2  1  0  0  0  0
 17  3  1  0  0  0  0
 18 25  2  0  0  0  0
 19 26  1  0  0  0  0
 20 17  1  0  0  0  0
 22 20  1  6  0  0  0
 22  9  1  0  0  0  0
 22 10  1  0  0  0  0
 23 14  1  0  0  0  0
 26 25  1  0  0  0  0
 26 17  2  0  0  0  0
 27  7  1  0  0  0  0
 27 24  1  1  0  0  0
 28 11  1  0  0  0  0
 29 30  1  0  0  0  0
 30 28  1  0  0  0  0
M  END
>  <MODEL>
2

>  <REMARK>
 VINA RESULT:      -6.4      1.724      2.460
  Name = 
  2 active torsions:
  status: ('A' for Active; 'I' for Inactive)
    1  A    between atoms: C_11  and  O_28
    2  A    between atoms: O_28  and  C_30
                            x       y       z     vdW  Elec       q    Type
                         _______ _______ _______ _____ _____    ______ ____

>  <TORSDO>
F 2

$$$$
=
 OpenBabel11122412393D

 30 35  0  0  1  0  0  0  0  0999 V2000
  161.5100  207.5520  151.3110 C   0  0  0  0  0  0  0  0  0  0  0  0
  161.7150  210.0310  150.8940 C   0  0  0  0  0  0  0  0  0  0  0  0
  162.2540  206.7270  147.2630 N   0  0  0  0  0  2  0  0  0  0  0  0
  161.5200  206.2260  150.7860 C   0  0  0  0  0  0  0  0  0  0  0  0
  161.3020  207.7230  152.6440 N   0  0  0  0  0  0  0  0  0  0  0  0
  160.8310  204.3290  153.9010 O   0  0  0  0  0  1  0  0  0  0  0  0
  160.2030  203.5810  150.0570 N   0  0  1  0  0  0  0  0  0  0  0  0
  161.0670  205.3820  153.0210 C   0  0  0  0  0  0  0  0  0  0  0  0
  160.7200  203.8810  148.7070 C   0  0  2  0  0  3  0  0  0  0  0  0
  162.2200  205.2700  147.2120 C   0  0  1  0  0  3  0  0  0  0  0  0
  161.0910  206.6900  153.5030 C   0  0  0  0  0  0  0  0  0  0  0  0
  161.2720  205.1360  151.6560 C   0  0  0  0  0  0  0  0  0  0  0  0
  161.9380  211.0680  149.9830 C   0  0  0  0  0  3  0  0  0  0  0  0
  160.9580  202.5650  148.0050 C   0  0  0  0  0  2  0  0  0  0  0  0
  159.7360  202.1960  150.0290 C   0  0  0  0  0  2  0  0  0  0  0  0
  161.4360  210.5430  152.5560 Cl  0  0  0  0  0  0  0  0  0  0  0  0
  161.9740  207.1210  148.5920 C   0  0  0  0  0  0  0  0  0  0  0  0
  162.1700  210.8040  148.6360 C   0  0  0  0  0  3  0  0  0  0  0  0
  161.7210  208.6760  150.4490 C   0  0  0  0  0  0  0  0  0  0  0  0
  161.7630  206.0560  149.4160 C   0  0  0  0  0  0  0  0  0  0  0  0
  163.4540  204.7890  146.7760 O   0  0  0  0  0  1  0  0  0  0  0  0
  161.9560  204.7870  148.6530 C   0  0  1  0  0  3  0  0  0  0  0  0
  159.9540  201.6410  148.6360 C   0  0  0  0  0  2  0  0  0  0  0  0
  162.5130  203.0310  150.9660 C   0  0  0  0  0  1  0  0  0  0  0  0
  162.1790  209.4920  148.1790 C   0  0  0  0  0  3  0  0  0  0  0  0
  161.9560  208.4320  149.0630 C   0  0  0  0  0  0  0  0  0  0  0  0
  161.1600  203.7150  151.1710 C   0  0  2  0  0  3  0  0  0  0  0  0
  160.8880  206.9270  154.8640 O   0  0  0  0  0  0  0  0  0  0  0  0
  159.9300  208.9270  155.7690 C   0  0  0  0  0  1  0  0  0  0  0  0
  161.2060  208.1720  155.4680 C   0  0  0  0  0  2  0  0  0  0  0  0
  1  5  1  0  0  0  0
  2 16  1  0  0  0  0
  3 17  1  0  0  0  0
  4  1  1  0  0  0  0
  4 12  1  0  0  0  0
  5 11  2  0  0  0  0
  7 15  1  6  0  0  0
  7 27  1  0  0  0  0
  8 11  1  0  0  0  0
  8  6  1  0  0  0  0
  9 14  1  1  0  0  0
  9  7  1  0  0  0  0
 10 21  1  1  0  0  0
 10  3  1  0  0  0  0
 10 22  1  0  0  0  0
 11 28  1  0  0  0  0
 12  8  2  0  0  0  0
 13  2  2  0  0  0  0
 14 23  1  0  0  0  0
 17 26  2  0  0  0  0
 17 20  1  0  0  0  0
 18 13  1  0  0  0  0
 19  2  1  0  0  0  0
 19  1  2  0  0  0  0
 20  4  2  0  0  0  0
 22  9  1  0  0  0  0
 22 20  1  1  0  0  0
 23 15  1  0  0  0  0
 25 18  2  0  0  0  0
 25 26  1  0  0  0  0
 26 19  1  0  0  0  0
 27 24  1  6  0  0  0
 27 12  1  0  0  0  0
 28 30  1  0  0  0  0
 30 29  1  0  0  0  0
M  END
>  <MODEL>
3

>  <REMARK>
 VINA RESULT:      -6.4      2.462      7.258
  Name = 
  2 active torsions:
  status: ('A' for Active; 'I' for Inactive)
    1  A    between atoms: C_11  and  O_28
    2  A    between atoms: O_28  and  C_30
                            x       y       z     vdW  Elec       q    Type
                         _______ _______ _______ _____ _____    ______ ____

>  <TORSDO>
F 2

$$$$
=
 OpenBabel11122412393D

 30 35  0  0  1  0  0  0  0  0999 V2000
  161.5050  208.0440  151.2050 C   0  0  0  0  0  0  0  0  0  0  0  0
  161.4500  208.2430  153.7190 C   0  0  0  0  0  0  0  0  0  0  0  0
  160.8740  203.9010  151.4360 N   0  0  0  0  0  2  0  0  0  0  0  0
  161.4440  207.2110  150.0500 C   0  0  0  0  0  0  0  0  0  0  0  0
  161.6710  209.3840  151.0340 N   0  0  0  0  0  0  0  0  0  0  0  0
  161.9090  209.7820  147.4130 O   0  0  0  0  0  1  0  0  0  0  0  0
  162.6430  205.8890  147.5850 N   0  0  1  0  0  0  0  0  0  0  0  0
  161.7640  209.1810  148.6610 C   0  0  0  0  0  0  0  0  0  0  0  0
  162.1950  204.6400  148.2350 C   0  0  2  0  0  3  0  0  0  0  0  0
  160.8310  203.4960  150.0360 C   0  0  1  0  0  3  0  0  0  0  0  0
  161.7920  209.9680  149.8120 C   0  0  0  0  0  0  0  0  0  0  0  0
  161.5990  207.7930  148.7680 C   0  0  0  0  0  0  0  0  0  0  0  0
  161.3180  207.6080  154.9580 C   0  0  0  0  0  3  0  0  0  0  0  0
  161.9140  203.6320  147.1470 C   0  0  0  0  0  2  0  0  0  0  0  0
  163.0360  205.5330  146.2220 C   0  0  0  0  0  2  0  0  0  0  0  0
  161.6920  209.9860  153.7940 Cl  0  0  0  0  0  0  0  0  0  0  0  0
  161.1230  205.2930  151.4770 C   0  0  0  0  0  0  0  0  0  0  0  0
  161.1250  206.2320  155.0440 C   0  0  0  0  0  3  0  0  0  0  0  0
  161.3880  207.4790  152.5150 C   0  0  0  0  0  0  0  0  0  0  0  0
  161.2450  205.8350  150.2330 C   0  0  0  0  0  0  0  0  0  0  0  0
  159.5910  202.9260  149.7520 O   0  0  0  0  0  1  0  0  0  0  0  0
  161.0130  204.7800  149.2020 C   0  0  1  0  0  3  0  0  0  0  0  0
  162.8410  204.0420  146.0370 C   0  0  0  0  0  2  0  0  0  0  0  0
  160.2730  206.5780  146.9740 C   0  0  0  0  0  1  0  0  0  0  0  0
  161.0620  205.4670  153.8860 C   0  0  0  0  0  3  0  0  0  0  0  0
  161.1940  206.0700  152.6310 C   0  0  0  0  0  0  0  0  0  0  0  0
  161.6520  206.9780  147.5030 C   0  0  2  0  0  3  0  0  0  0  0  0
  161.9550  211.3500  149.6990 O   0  0  0  0  0  0  0  0  0  0  0  0
  161.0260  213.2020  148.4970 C   0  0  0  0  0  1  0  0  0  0  0  0
  160.8490  212.2390  149.6510 C   0  0  0  0  0  2  0  0  0  0  0  0
  1 19  1  0  0  0  0
  2 16  1  0  0  0  0
  2 13  1  0  0  0  0
  3 17  1  0  0  0  0
  4 20  1  0  0  0  0
  4  1  2  0  0  0  0
  5  1  1  0  0  0  0
  6  8  1  0  0  0  0
  7 15  1  6  0  0  0
  7  9  1  0  0  0  0
  8 12  2  0  0  0  0
  8 11  1  0  0  0  0
  9 14  1  6  0  0  0
  9 22  1  0  0  0  0
 10 21  1  6  0  0  0
 10  3  1  0  0  0  0
 11  5  2  0  0  0  0
 12  4  1  0  0  0  0
 13 18  2  0  0  0  0
 17 26  1  0  0  0  0
 19 26  1  0  0  0  0
 19  2  2  0  0  0  0
 20 17  2  0  0  0  0
 22 10  1  0  0  0  0
 22 20  1  1  0  0  0
 23 15  1  0  0  0  0
 23 14  1  0  0  0  0
 25 18  1  0  0  0  0
 26 25  2  0  0  0  0
 27 24  1  1  0  0  0
 27  7  1  0  0  0  0
 27 12  1  0  0  0  0
 28 11  1  0  0  0  0
 29 30  1  0  0  0  0
 30 28  1  0  0  0  0
M  END
>  <MODEL>
4

>  <REMARK>
 VINA RESULT:      -5.9      2.631      5.708
  Name = 
  2 active torsions:
  status: ('A' for Active; 'I' for Inactive)
    1  A    between atoms: C_11  and  O_28
    2  A    between atoms: O_28  and  C_30
                            x       y       z     vdW  Elec       q    Type
                         _______ _______ _______ _____ _____    ______ ____

>  <TORSDO>
F 2

$$$$
=
 OpenBabel11122412393D

 30 35  0  0  1  0  0  0  0  0999 V2000
  161.0330  209.7390  152.1290 C   0  0  0  0  0  0  0  0  0  0  0  0
  162.0730  209.6330  149.8330 C   0  0  0  0  0  0  0  0  0  0  0  0
  159.7260  213.6690  151.4440 N   0  0  0  0  0  2  0  0  0  0  0  0
  160.3270  210.4960  153.1090 C   0  0  0  0  0  0  0  0  0  0  0  0
  161.3810  208.4570  152.4210 N   0  0  0  0  0  0  0  0  0  0  0  0
  160.1630  207.9750  155.8280 O   0  0  0  0  0  1  0  0  0  0  0  0
  160.0920  211.9390  155.7780 N   0  0  1  0  0  0  0  0  0  0  0  0
  160.4330  208.5810  154.6040 C   0  0  0  0  0  0  0  0  0  0  0  0
  159.7120  213.0930  154.9370 C   0  0  2  0  0  3  0  0  0  0  0  0
  159.0210  214.0010  152.6770 C   0  0  1  0  0  3  0  0  0  0  0  0
  161.0990  207.8630  153.6110 C   0  0  0  0  0  0  0  0  0  0  0  0
  160.0490  209.9080  154.3680 C   0  0  0  0  0  0  0  0  0  0  0  0
  162.3440  210.2750  148.6210 C   0  0  0  0  0  3  0  0  0  0  0  0
  158.8030  213.9780  155.7570 C   0  0  0  0  0  2  0  0  0  0  0  0
  159.7990  212.3140  157.1600 C   0  0  0  0  0  2  0  0  0  0  0  0
  162.6740  207.9820  149.9550 Cl  0  0  0  0  0  0  0  0  0  0  0  0
  160.2480  212.3610  151.5810 C   0  0  0  0  0  0  0  0  0  0  0  0
  161.9280  211.5830  148.3920 C   0  0  0  0  0  3  0  0  0  0  0  0
  161.3610  210.3190  150.8610 C   0  0  0  0  0  0  0  0  0  0  0  0
  159.9470  211.8070  152.7890 C   0  0  0  0  0  0  0  0  0  0  0  0
  157.6880  214.2910  152.3890 O   0  0  0  0  0  1  0  0  0  0  0  0
  159.0960  212.7500  153.5750 C   0  0  1  0  0  3  0  0  0  0  0  0
  159.2450  213.7250  157.1720 C   0  0  0  0  0  2  0  0  0  0  0  0
  157.8790  210.7520  155.3830 C   0  0  0  0  0  1  0  0  0  0  0  0
  161.2340  212.2720  149.3780 C   0  0  0  0  0  3  0  0  0  0  0  0
  160.9500  211.6610  150.6030 C   0  0  0  0  0  0  0  0  0  0  0  0
  159.4020  210.6670  155.4960 C   0  0  2  0  0  3  0  0  0  0  0  0
  161.4770  206.5410  153.8530 O   0  0  0  0  0  0  0  0  0  0  0  0
  161.1830  204.6130  152.4630 C   0  0  0  0  0  1  0  0  0  0  0  0
  162.1060  205.7430  152.8610 C   0  0  0  0  0  2  0  0  0  0  0  0
  1  5  1  0  0  0  0
  1  4  1  0  0  0  0
  2 16  1  0  0  0  0
  2 19  1  0  0  0  0
  3 17  1  0  0  0  0
  3 10  1  0  0  0  0
  4 12  1  0  0  0  0
  5 11  2  0  0  0  0
  7 15  1  1  0  0  0
  8  6  1  0  0  0  0
  9 14  1  1  0  0  0
  9  7  1  0  0  0  0
 10 21  1  6  0  0  0
 10 22  1  0  0  0  0
 11 28  1  0  0  0  0
 11  8  1  0  0  0  0
 12  8  2  0  0  0  0
 12 27  1  0  0  0  0
 13  2  2  0  0  0  0
 14 23  1  0  0  0  0
 15 23  1  0  0  0  0
 17 20  1  0  0  0  0
 18 13  1  0  0  0  0
 18 25  2  0  0  0  0
 19  1  2  0  0  0  0
 20  4  2  0  0  0  0
 22 20  1  6  0  0  0
 22  9  1  0  0  0  0
 25 26  1  0  0  0  0
 26 19  1  0  0  0  0
 26 17  2  0  0  0  0
 27 24  1  6  0  0  0
 27  7  1  0  0  0  0
 29 30  1  0  0  0  0
 30 28  1  0  0  0  0
M  END
>  <MODEL>
5

>  <REMARK>
 VINA RESULT:      -5.5      2.882      6.173
  Name = 
  2 active torsions:
  status: ('A' for Active; 'I' for Inactive)
    1  A    between atoms: C_11  and  O_28
    2  A    between atoms: O_28  and  C_30
                            x       y       z     vdW  Elec       q    Type
                         _______ _______ _______ _____ _____    ______ ____

>  <TORSDO>
F 2

$$$$
=
 OpenBabel11122412393D

 30 35  0  0  1  0  0  0  0  0999 V2000
  160.7120  209.6790  152.6850 C   0  0  0  0  0  0  0  0  0  0  0  0
  160.2850  212.1470  152.3830 C   0  0  0  0  0  0  0  0  0  0  0  0
  161.8330  209.2950  148.6580 N   0  0  0  0  0  2  0  0  0  0  0  0
  161.0900  208.4310  152.1090 C   0  0  0  0  0  0  0  0  0  0  0  0
  160.4040  209.7170  154.0100 N   0  0  0  0  0  0  0  0  0  0  0  0
  160.7740  206.2530  155.0970 O   0  0  0  0  0  1  0  0  0  0  0  0
  160.5420  205.5800  151.1960 N   0  0  1  0  0  0  0  0  0  0  0  0
  160.7690  207.3780  154.2760 C   0  0  0  0  0  0  0  0  0  0  0  0
  161.0260  206.0760  149.8910 C   0  0  2  0  0  3  0  0  0  0  0  0
  162.1820  207.8840  148.5460 C   0  0  1  0  0  3  0  0  0  0  0  0
  160.4290  208.6200  154.8110 C   0  0  0  0  0  0  0  0  0  0  0  0
  161.0940  207.2680  152.9170 C   0  0  0  0  0  0  0  0  0  0  0  0
  160.2740  213.2540  151.5290 C   0  0  0  0  0  3  0  0  0  0  0  0
  161.6300  204.9060  149.1520 C   0  0  0  0  0  2  0  0  0  0  0  0
  160.4530  204.1250  151.0830 C   0  0  0  0  0  2  0  0  0  0  0  0
  159.8050  212.4780  154.0450 Cl  0  0  0  0  0  0  0  0  0  0  0  0
  161.3990  209.5310  149.9840 C   0  0  0  0  0  0  0  0  0  0  0  0
  160.6280  213.1320  150.1890 C   0  0  0  0  0  3  0  0  0  0  0  0
  160.6640  210.8640  151.8840 C   0  0  0  0  0  0  0  0  0  0  0  0
  161.4330  208.4040  150.7490 C   0  0  0  0  0  0  0  0  0  0  0  0
  163.5170  207.7610  148.1650 O   0  0  0  0  0  1  0  0  0  0  0  0
  161.9850  207.2720  149.9480 C   0  0  1  0  0  3  0  0  0  0  0  0
  160.8730  203.7220  149.6840 C   0  0  0  0  0  2  0  0  0  0  0  0
  162.8710  205.5940  152.2160 C   0  0  0  0  0  1  0  0  0  0  0  0
  161.0000  211.8940  149.6800 C   0  0  0  0  0  3  0  0  0  0  0  0
  161.0180  210.7660  150.5050 C   0  0  0  0  0  0  0  0  0  0  0  0
  161.3780  205.8950  152.3690 C   0  0  2  0  0  3  0  0  0  0  0  0
  160.1080  208.7220  156.1660 O   0  0  0  0  0  0  0  0  0  0  0  0
  162.2700  209.2370  157.0590 C   0  0  0  0  0  1  0  0  0  0  0  0
  160.8010  209.6000  157.0410 C   0  0  0  0  0  2  0  0  0  0  0  0
  1  5  1  0  0  0  0
  2 16  1  0  0  0  0
  3 17  1  0  0  0  0
  4  1  1  0  0  0  0
  4 12  1  0  0  0  0
  5 11  2  0  0  0  0
  7 15  1  6  0  0  0
  7 27  1  0  0  0  0
  8 11  1  0  0  0  0
  8  6  1  0  0  0  0
  9 14  1  1  0  0  0
  9 22  1  0  0  0  0
  9  7  1  0  0  0  0
 10 21  1  1  0  0  0
 10  3  1  0  0  0  0
 10 22  1  0  0  0  0
 11 28  1  0  0  0  0
 12  8  2  0  0  0  0
 13  2  2  0  0  0  0
 14 23  1  0  0  0  0
 17 26  2  0  0  0  0
 17 20  1  0  0  0  0
 18 13  1  0  0  0  0
 19  2  1  0  0  0  0
 19  1  2  0  0  0  0
 20  4  2  0  0  0  0
 22 20  1  1  0  0  0
 23 15  1  0  0  0  0
 25 18  2  0  0  0  0
 25 26  1  0  0  0  0
 26 19  1  0  0  0  0
 27 24  1  6  0  0  0
 27 12  1  0  0  0  0
 28 30  1  0  0  0  0
 30 29  1  0  0  0  0
M  END
>  <MODEL>
6

>  <REMARK>
 VINA RESULT:      -5.2      2.599      7.311
  Name = 
  2 active torsions:
  status: ('A' for Active; 'I' for Inactive)
    1  A    between atoms: C_11  and  O_28
    2  A    between atoms: O_28  and  C_30
                            x       y       z     vdW  Elec       q    Type
                         _______ _______ _______ _____ _____    ______ ____

>  <TORSDO>
F 2

$$$$
