=
 OpenBabel11122413343D

 37 43  0  0  1  0  0  0  0  0999 V2000
  161.6220  210.1040  148.4230 C   0  0  0  0  0  2  0  0  0  0  0  0
  161.1610  205.8640  146.4080 C   0  0  0  0  0  0  0  0  0  0  0  0
  160.7630  205.9040  150.7590 C   0  0  1  0  0  3  0  0  0  0  0  0
  161.9920  211.5120  148.5700 N   0  0  0  0  0  0  0  0  0  0  0  0
  160.3670  209.1910  152.2820 C   0  0  0  0  0  2  0  0  0  0  0  0
  161.2840  204.5480  148.6010 C   0  0  1  0  0  3  0  0  0  0  0  0
  161.5480  207.1900  151.0090 C   0  0  2  0  0  3  0  0  0  0  0  0
  161.1660  212.6670  150.5790 C   0  0  2  0  0  3  0  0  0  0  0  0
  160.6730  205.7650  149.2440 C   0  0  2  0  0  3  0  0  0  0  0  0
  161.2230  207.9030  152.3580 C   0  0  2  0  0  3  0  0  0  0  0  0
  160.9260  203.3110  149.3930 C   0  0  0  0  0  2  0  0  0  0  0  0
  160.8450  212.2110  149.1510 C   0  0  0  0  0  2  0  0  0  0  0  0
  161.4380  206.9180  148.6690 C   0  0  1  0  0  3  0  0  0  0  0  0
  160.3230  205.9540  145.1500 C   0  0  0  0  0  1  0  0  0  0  0  0
  161.9470  204.8280  152.7880 C   0  0  0  0  0  3  0  0  0  0  0  0
  161.6180  203.4360  150.7470 C   0  0  0  0  0  2  0  0  0  0  0  0
  160.9030  207.1400  147.2580 C   0  0  0  0  0  2  0  0  0  0  0  0
  160.6430  211.7090  151.6610 C   0  0  0  0  0  2  0  0  0  0  0  0
  160.9450  210.2520  151.3380 C   0  0  1  0  0  3  0  0  0  0  0  0
  161.0860  204.6200  151.5700 C   0  0  2  0  0  3  0  0  0  0  0  0
  161.3070  207.9950  149.7160 C   0  0  2  0  0  3  0  0  0  0  0  0
  160.7960  204.5410  147.1460 C   0  0  0  0  0  2  0  0  0  0  0  0
  160.8040  206.9470  153.4930 C   0  0  1  0  0  3  0  0  0  0  0  0
  162.6230  205.8210  145.9980 C   0  0  0  0  0  1  0  0  0  0  0  0
  162.3600  209.9830  150.8330 C   0  0  0  0  0  2  0  0  0  0  0  0
  160.6340  213.9370  150.7920 O   0  0  0  0  0  1  0  0  0  0  0  0
  162.2370  209.2080  149.5180 C   0  0  2  0  0  3  0  0  0  0  0  0
  161.8090  205.8390  153.6570 C   0  0  0  0  0  3  0  0  0  0  0  0
  160.0560  206.9780  155.8790 C   0  0  0  0  0  3  0  0  0  0  0  0
  160.6290  207.6610  154.8010 C   0  0  0  0  0  0  0  0  0  0  0  0
  161.0260  208.9990  154.9600 C   0  0  0  0  0  3  0  0  0  0  0  0
  161.2310  210.9330  156.3370 F   0  0  0  0  0  0  0  0  0  0  0  0
  160.2740  208.9550  157.2610 C   0  0  0  0  0  3  0  0  0  0  0  0
  160.8480  209.6430  156.1870 C   0  0  0  0  0  0  0  0  0  0  0  0
  159.8780  207.6240  157.1070 C   0  0  0  0  0  3  0  0  0  0  0  0
  160.8400  212.5830  146.7180 C   0  0  0  0  0  1  0  0  0  0  0  0
  162.1620  212.0450  147.2290 C   0  0  0  0  0  2  0  0  0  0  0  0
  1  4  1  0  0  0  0
  1 27  1  0  0  0  0
  2 22  1  0  0  0  0
  2 17  1  0  0  0  0
  3  7  1  0  0  0  0
  3 20  1  0  0  0  0
  4 12  1  0  0  0  0
  5 10  1  0  0  0  0
  6  9  1  0  0  0  0
  6 11  1  0  0  0  0
  7 10  1  0  0  0  0
  8 26  1  0  0  0  0
  8 18  1  0  0  0  0
  9  3  1  0  0  0  0
 10 23  1  0  0  0  0
 11 16  1  0  0  0  0
 12  8  1  0  0  0  0
 13  9  1  0  0  0  0
 13 21  1  0  0  0  0
 14  2  1  0  0  0  0
 15 28  2  0  0  0  0
 16 20  1  0  0  0  0
 17 13  1  0  0  0  0
 19 18  1  0  0  0  0
 19  5  1  0  0  0  0
 20 15  1  0  0  0  0
 21  7  1  0  0  0  0
 22  6  1  0  0  0  0
 23 28  1  0  0  0  0
 23 30  1  0  0  0  0
 24  2  1  0  0  0  0
 25 19  1  0  0  0  0
 27 21  1  0  0  0  0
 27 25  1  0  0  0  0
 29 35  1  0  0  0  0
 30 31  1  0  0  0  0
 30 29  2  0  0  0  0
 31 34  2  0  0  0  0
 34 32  1  0  0  0  0
 34 33  1  0  0  0  0
 35 33  2  0  0  0  0
 36 37  1  0  0  0  0
 37  4  1  0  0  0  0
M  END
>  <MODEL>
1

>  <REMARK>
 VINA RESULT:      -9.8      0.000      0.000
  Name = 
  2 active torsions:
  status: ('A' for Active; 'I' for Inactive)
    1  A    between atoms: N_4  and  C_37
    2  A    between atoms: C_23  and  C_30
                            x       y       z     vdW  Elec       q    Type
                         _______ _______ _______ _____ _____    ______ ____

>  <TORSDO>
F 2

$$$$
