=
 OpenBabel11122412423D

 30 35  0  0  1  0  0  0  0  0999 V2000
  161.6870  207.7390  151.6930 C   0  0  2  0  0  3  0  0  0  0  0  0
  161.9430  210.2780  151.4730 C   0  0  2  0  0  3  0  0  0  0  0  0
  162.0310  207.4560  147.4410 N   0  0  0  0  0  2  0  0  0  0  0  0
  161.3400  206.4350  150.9380 C   0  0  2  0  0  3  0  0  0  0  0  0
  160.8480  207.8150  152.9710 C   0  0  0  0  0  2  0  0  0  0  0  0
  160.6010  204.3520  153.6930 O   0  0  0  0  0  0  0  0  0  0  0  0
  160.4900  203.7300  150.1800 C   0  0  1  0  0  3  0  0  0  0  0  0
  161.1010  205.3430  153.1770 C   0  0  0  0  0  0  0  0  0  0  0  0
  160.8620  204.1600  148.7690 C   0  0  2  0  0  3  0  0  0  0  0  0
  161.7190  206.0750  147.3540 C   0  0  0  0  0  0  0  0  0  0  0  0
  161.1680  206.6560  153.9180 C   0  0  2  0  0  3  0  0  0  0  0  0
  161.7780  205.2630  151.8300 C   0  0  1  0  0  3  0  0  0  0  0  0
  161.5010  211.4760  150.6260 C   0  0  0  0  0  2  0  0  0  0  0  0
  161.5660  202.9710  148.1530 C   0  0  0  0  0  2  0  0  0  0  0  0
  160.1630  202.2520  150.0280 C   0  0  0  0  0  2  0  0  0  0  0  0
  163.3360  210.2550  151.5850 O   0  0  0  0  0  1  0  0  0  0  0  0
  162.0900  207.6710  148.8460 C   0  0  2  0  0  3  0  0  0  0  0  0
  161.8220  211.3030  149.1610 C   0  0  0  0  0  3  0  0  0  0  0  0
  161.4270  208.9820  150.8360 C   0  0  1  0  0  3  0  0  0  0  0  0
  162.1070  206.3790  149.6090 C   0  0  2  0  0  3  0  0  0  0  0  0
  161.4980  205.5020  146.2540 O   0  0  0  0  0  0  0  0  0  0  0  0
  161.6270  205.4100  148.6120 N   0  0  0  0  0  0  0  0  0  0  0  0
  160.9220  201.7580  148.8010 C   0  0  0  0  0  2  0  0  0  0  0  0
  162.4320  203.0520  151.3810 O   0  0  0  0  0  0  0  0  0  0  0  0
  161.9780  210.1020  148.5980 C   0  0  0  0  0  3  0  0  0  0  0  0
  161.9010  208.8700  149.4050 C   0  0  2  0  0  3  0  0  0  0  0  0
  161.6160  203.9350  151.1590 C   0  0  0  0  0  0  0  0  0  0  0  0
  160.2230  206.6900  155.1140 C   0  0  0  0  0  2  0  0  0  0  0  0
  160.4620  207.8970  157.2600 C   0  0  0  0  0  1  0  0  0  0  0  0
  160.2470  208.0570  155.7700 C   0  0  0  0  0  2  0  0  0  0  0  0
  1  5  1  1  0  0  0
  2 16  1  6  0  0  0
  3 17  1  0  0  0  0
  4  1  1  0  0  0  0
  4 12  1  0  0  0  0
  5 11  1  0  0  0  0
  7 27  1  0  0  0  0
  8  6  2  0  0  0  0
  8 11  1  0  0  0  0
  9  7  1  0  0  0  0
 10  3  1  0  0  0  0
 10 22  1  0  0  0  0
 11 28  1  0  0  0  0
 12  8  1  0  0  0  0
 13  2  1  0  0  0  0
 14  9  1  0  0  0  0
 14 23  1  0  0  0  0
 15  7  1  0  0  0  0
 17 26  1  0  0  0  0
 17 20  1  0  0  0  0
 18 13  1  0  0  0  0
 19  2  1  0  0  0  0
 19  1  1  0  0  0  0
 20  4  1  0  0  0  0
 21 10  2  0  0  0  0
 22  9  1  0  0  0  0
 22 20  1  0  0  0  0
 23 15  1  0  0  0  0
 25 18  2  0  0  0  0
 25 26  1  0  0  0  0
 26 19  1  0  0  0  0
 27 24  2  0  0  0  0
 27 12  1  0  0  0  0
 28 30  1  0  0  0  0
 30 29  1  0  0  0  0
M  END
>  <MODEL>
1

>  <REMARK>
 VINA RESULT:      -8.3      0.000      0.000
  Name = 
  2 active torsions:
  status: ('A' for Active; 'I' for Inactive)
    1  A    between atoms: C_11  and  C_28
    2  A    between atoms: C_28  and  C_30
                            x       y       z     vdW  Elec       q    Type
                         _______ _______ _______ _____ _____    ______ ____

>  <TORSDO>
F 2

$$$$
=
 OpenBabel11122412423D

 30 35  0  0  1  0  0  0  0  0999 V2000
  161.3140  208.7510  151.5940 C   0  0  2  0  0  3  0  0  0  0  0  0
  161.3270  209.8410  153.9130 C   0  0  2  0  0  3  0  0  0  0  0  0
  160.8080  204.9620  153.5080 N   0  0  0  0  0  2  0  0  0  0  0  0
  161.4930  207.4250  150.8220 C   0  0  2  0  0  3  0  0  0  0  0  0
  162.1940  209.8270  150.9540 C   0  0  0  0  0  2  0  0  0  0  0  0
  162.0890  208.7160  147.5890 O   0  0  0  0  0  0  0  0  0  0  0  0
  162.0230  205.3610  148.8040 C   0  0  1  0  0  3  0  0  0  0  0  0
  161.6830  208.8020  148.7400 C   0  0  0  0  0  0  0  0  0  0  0  0
  161.6550  204.3830  149.9100 C   0  0  2  0  0  3  0  0  0  0  0  0
  160.9670  204.1770  152.3370 C   0  0  0  0  0  0  0  0  0  0  0  0
  161.7810  210.0980  149.5060 C   0  0  2  0  0  3  0  0  0  0  0  0
  160.9600  207.6510  149.3990 C   0  0  1  0  0  3  0  0  0  0  0  0
  161.8690  209.6650  155.3360 C   0  0  0  0  0  2  0  0  0  0  0  0
  160.8080  203.3190  149.2490 C   0  0  0  0  0  2  0  0  0  0  0  0
  162.1830  204.4700  147.5810 C   0  0  0  0  0  2  0  0  0  0  0  0
  159.9430  210.0390  153.9460 O   0  0  0  0  0  1  0  0  0  0  0  0
  160.8170  206.2890  152.9940 C   0  0  2  0  0  3  0  0  0  0  0  0
  161.4860  208.3390  155.9460 C   0  0  0  0  0  3  0  0  0  0  0  0
  161.6800  208.6050  153.0750 C   0  0  1  0  0  3  0  0  0  0  0  0
  160.6840  206.3090  151.4990 C   0  0  2  0  0  3  0  0  0  0  0  0
  161.0900  202.9240  152.3770 O   0  0  0  0  0  0  0  0  0  0  0  0
  161.0250  204.9290  151.1260 N   0  0  0  0  0  0  0  0  0  0  0  0
  161.3370  203.2250  147.8290 C   0  0  0  0  0  2  0  0  0  0  0  0
  160.0570  206.2200  147.7700 O   0  0  0  0  0  0  0  0  0  0  0  0
  161.1830  207.2690  155.2050 C   0  0  0  0  0  3  0  0  0  0  0  0
  161.1520  207.3510  153.7330 C   0  0  2  0  0  3  0  0  0  0  0  0
  160.9560  206.3990  148.5780 C   0  0  0  0  0  0  0  0  0  0  0  0
  162.7610  211.0720  148.8620 C   0  0  0  0  0  2  0  0  0  0  0  0
  161.1140  212.9130  149.0040 C   0  0  0  0  0  1  0  0  0  0  0  0
  162.0150  212.1300  148.0720 C   0  0  0  0  0  2  0  0  0  0  0  0
  1  5  1  6  0  0  0
  1 19  1  0  0  0  0
  2 16  1  1  0  0  0
  2 13  1  0  0  0  0
  4 20  1  0  0  0  0
  4  1  1  0  0  0  0
  6  8  2  0  0  0  0
  7  9  1  0  0  0  0
  8 12  1  0  0  0  0
  8 11  1  0  0  0  0
  9 22  1  0  0  0  0
 10 21  2  0  0  0  0
 10  3  1  0  0  0  0
 11  5  1  0  0  0  0
 12  4  1  0  0  0  0
 13 18  1  0  0  0  0
 14  9  1  0  0  0  0
 15 23  1  0  0  0  0
 15  7  1  0  0  0  0
 17  3  1  0  0  0  0
 17 26  1  0  0  0  0
 19 26  1  0  0  0  0
 19  2  1  0  0  0  0
 20 17  1  0  0  0  0
 22 20  1  0  0  0  0
 22 10  1  0  0  0  0
 23 14  1  0  0  0  0
 24 27  2  0  0  0  0
 25 18  2  0  0  0  0
 26 25  1  0  0  0  0
 27  7  1  0  0  0  0
 27 12  1  0  0  0  0
 28 11  1  0  0  0  0
 30 28  1  0  0  0  0
 30 29  1  0  0  0  0
M  END
>  <MODEL>
2

>  <REMARK>
 VINA RESULT:      -7.6      1.904      5.130
  Name = 
  2 active torsions:
  status: ('A' for Active; 'I' for Inactive)
    1  A    between atoms: C_11  and  C_28
    2  A    between atoms: C_28  and  C_30
                            x       y       z     vdW  Elec       q    Type
                         _______ _______ _______ _____ _____    ______ ____

>  <TORSDO>
F 2

$$$$
=
 OpenBabel11122412423D

 30 35  0  0  1  0  0  0  0  0999 V2000
  161.9390  207.9510  149.0890 C   0  0  2  0  0  3  0  0  0  0  0  0
  161.9550  206.2360  147.1860 C   0  0  2  0  0  3  0  0  0  0  0  0
  161.3080  204.7300  151.8280 N   0  0  0  0  0  2  0  0  0  0  0  0
  161.5220  208.2060  150.5550 C   0  0  2  0  0  3  0  0  0  0  0  0
  161.4170  209.0930  148.2140 C   0  0  0  0  0  2  0  0  0  0  0  0
  161.5920  211.7370  150.5690 O   0  0  0  0  0  0  0  0  0  0  0  0
  160.7140  209.3940  153.1150 C   0  0  1  0  0  3  0  0  0  0  0  0
  161.8870  210.6420  150.1100 C   0  0  0  0  0  0  0  0  0  0  0  0
  160.7180  207.9600  153.6220 C   0  0  2  0  0  3  0  0  0  0  0  0
  161.0840  205.5420  152.9700 C   0  0  0  0  0  0  0  0  0  0  0  0
  162.0300  210.4350  148.6220 C   0  0  2  0  0  3  0  0  0  0  0  0
  162.2370  209.4860  151.0160 C   0  0  1  0  0  3  0  0  0  0  0  0
  161.2440  204.9770  146.6780 C   0  0  0  0  0  2  0  0  0  0  0  0
  161.3430  208.0150  154.9980 C   0  0  0  0  0  2  0  0  0  0  0  0
  160.4680  210.2150  154.3710 C   0  0  0  0  0  2  0  0  0  0  0  0
  163.3350  206.0170  147.2510 O   0  0  0  0  0  1  0  0  0  0  0  0
  161.6750  205.6840  150.8390 C   0  0  2  0  0  3  0  0  0  0  0  0
  161.2280  203.8650  147.6990 C   0  0  0  0  0  3  0  0  0  0  0  0
  161.3990  206.6160  148.5640 C   0  0  1  0  0  3  0  0  0  0  0  0
  161.9610  207.0290  151.4380 C   0  0  2  0  0  3  0  0  0  0  0  0
  160.6550  205.0720  154.0570 O   0  0  0  0  0  0  0  0  0  0  0  0
  161.3340  206.9310  152.7650 N   0  0  0  0  0  0  0  0  0  0  0  0
  160.9550  209.3760  155.5490 C   0  0  0  0  0  2  0  0  0  0  0  0
  162.9250  210.2800  153.1170 O   0  0  0  0  0  0  0  0  0  0  0  0
  161.3360  204.0940  149.0110 C   0  0  0  0  0  3  0  0  0  0  0  0
  161.5360  205.4600  149.5290 C   0  0  2  0  0  3  0  0  0  0  0  0
  162.0190  209.7780  152.4680 C   0  0  0  0  0  0  0  0  0  0  0  0
  161.3870  211.5620  147.8210 C   0  0  0  0  0  2  0  0  0  0  0  0
  162.0770  213.9380  147.8520 C   0  0  0  0  0  1  0  0  0  0  0  0
  162.4410  212.5520  147.3620 C   0  0  0  0  0  2  0  0  0  0  0  0
  1  5  1  6  0  0  0
  1  4  1  0  0  0  0
  2 16  1  1  0  0  0
  2 19  1  0  0  0  0
  3 10  1  0  0  0  0
  4 12  1  0  0  0  0
  4 20  1  0  0  0  0
  5 11  1  0  0  0  0
  7  9  1  0  0  0  0
  7 15  1  0  0  0  0
  8  6  2  0  0  0  0
  8 12  1  0  0  0  0
  9 14  1  0  0  0  0
 10 21  2  0  0  0  0
 11  8  1  0  0  0  0
 12 27  1  0  0  0  0
 13  2  1  0  0  0  0
 13 18  1  0  0  0  0
 14 23  1  0  0  0  0
 15 23  1  0  0  0  0
 17 20  1  0  0  0  0
 17  3  1  0  0  0  0
 18 25  2  0  0  0  0
 19  1  1  0  0  0  0
 19 26  1  0  0  0  0
 20 22  1  0  0  0  0
 22 10  1  0  0  0  0
 22  9  1  0  0  0  0
 25 26  1  0  0  0  0
 26 17  1  0  0  0  0
 27  7  1  0  0  0  0
 27 24  2  0  0  0  0
 28 11  1  0  0  0  0
 30 28  1  0  0  0  0
 30 29  1  0  0  0  0
M  END
>  <MODEL>
3

>  <REMARK>
 VINA RESULT:      -7.2      1.827      6.656
  Name = 
  2 active torsions:
  status: ('A' for Active; 'I' for Inactive)
    1  A    between atoms: C_11  and  C_28
    2  A    between atoms: C_28  and  C_30
                            x       y       z     vdW  Elec       q    Type
                         _______ _______ _______ _____ _____    ______ ____

>  <TORSDO>
F 2

$$$$
=
 OpenBabel11122412423D

 30 35  0  0  1  0  0  0  0  0999 V2000
  161.3340  205.2690  149.3700 C   0  0  2  0  0  3  0  0  0  0  0  0
  160.9970  202.7490  149.0540 C   0  0  2  0  0  3  0  0  0  0  0  0
  160.9750  204.6670  153.5880 N   0  0  0  0  0  2  0  0  0  0  0  0
  161.1480  206.4550  150.3430 C   0  0  2  0  0  3  0  0  0  0  0  0
  160.7380  205.6390  148.0100 C   0  0  0  0  0  2  0  0  0  0  0  0
  161.3710  209.1280  148.0450 O   0  0  0  0  0  0  0  0  0  0  0  0
  160.7770  209.0980  151.5650 C   0  0  1  0  0  3  0  0  0  0  0  0
  161.5480  207.9670  148.3890 C   0  0  0  0  0  0  0  0  0  0  0  0
  160.7940  208.3370  152.8820 C   0  0  2  0  0  3  0  0  0  0  0  0
  160.9560  206.0420  153.9370 C   0  0  0  0  0  0  0  0  0  0  0  0
  161.4610  206.8380  147.3910 C   0  0  2  0  0  3  0  0  0  0  0  0
  161.9770  207.6270  149.7960 C   0  0  1  0  0  3  0  0  0  0  0  0
  160.1650  201.5620  149.5510 C   0  0  0  0  0  2  0  0  0  0  0  0
  161.6160  209.1800  153.8310 C   0  0  0  0  0  2  0  0  0  0  0  0
  160.7540  210.5570  151.9970 C   0  0  0  0  0  2  0  0  0  0  0  0
  162.3600  202.4480  149.1300 O   0  0  0  0  0  1  0  0  0  0  0  0
  161.2330  204.7080  152.1890 C   0  0  2  0  0  3  0  0  0  0  0  0
  160.2520  201.3760  151.0470 C   0  0  0  0  0  3  0  0  0  0  0  0
  160.6660  203.9920  149.8900 C   0  0  1  0  0  3  0  0  0  0  0  0
  161.6610  206.0740  151.7400 C   0  0  2  0  0  3  0  0  0  0  0  0
  160.6720  206.4380  155.0990 O   0  0  0  0  0  0  0  0  0  0  0  0
  161.2330  206.9300  152.8560 N   0  0  0  0  0  0  0  0  0  0  0  0
  161.3720  210.6130  153.3910 C   0  0  0  0  0  2  0  0  0  0  0  0
  163.0010  209.4860  150.8040 O   0  0  0  0  0  0  0  0  0  0  0  0
  160.5610  202.3770  151.8770 C   0  0  0  0  0  3  0  0  0  0  0  0
  160.8930  203.7170  151.3590 C   0  0  2  0  0  3  0  0  0  0  0  0
  161.9880  208.8070  150.7180 C   0  0  0  0  0  0  0  0  0  0  0  0
  160.7570  207.2600  146.1070 C   0  0  0  0  0  2  0  0  0  0  0  0
  161.3320  205.5290  144.4350 C   0  0  0  0  0  1  0  0  0  0  0  0
  160.2470  206.0440  145.3580 C   0  0  0  0  0  2  0  0  0  0  0  0
  1  5  1  6  0  0  0
  1 19  1  0  0  0  0
  1  4  1  0  0  0  0
  2 16  1  1  0  0  0
  2 13  1  0  0  0  0
  2 19  1  0  0  0  0
  3 10  1  0  0  0  0
  4 20  1  0  0  0  0
  6  8  2  0  0  0  0
  7 15  1  0  0  0  0
  7  9  1  0  0  0  0
  8 12  1  0  0  0  0
  9 14  1  0  0  0  0
 10 21  2  0  0  0  0
 11  5  1  0  0  0  0
 11  8  1  0  0  0  0
 12  4  1  0  0  0  0
 12 27  1  0  0  0  0
 13 18  1  0  0  0  0
 15 23  1  0  0  0  0
 17  3  1  0  0  0  0
 18 25  2  0  0  0  0
 19 26  1  0  0  0  0
 20 17  1  0  0  0  0
 20 22  1  0  0  0  0
 22  9  1  0  0  0  0
 22 10  1  0  0  0  0
 23 14  1  0  0  0  0
 26 25  1  0  0  0  0
 26 17  1  0  0  0  0
 27 24  2  0  0  0  0
 27  7  1  0  0  0  0
 28 11  1  0  0  0  0
 29 30  1  0  0  0  0
 30 28  1  0  0  0  0
M  END
>  <MODEL>
4

>  <REMARK>
 VINA RESULT:      -6.1      2.141      7.310
  Name = 
  2 active torsions:
  status: ('A' for Active; 'I' for Inactive)
    1  A    between atoms: C_11  and  C_28
    2  A    between atoms: C_28  and  C_30
                            x       y       z     vdW  Elec       q    Type
                         _______ _______ _______ _____ _____    ______ ____

>  <TORSDO>
F 2

$$$$
=
 OpenBabel11122412423D

 30 35  0  0  1  0  0  0  0  0999 V2000
  161.8410  206.7720  147.8230 C   0  0  2  0  0  3  0  0  0  0  0  0
  161.7250  206.0080  145.3810 C   0  0  2  0  0  3  0  0  0  0  0  0
  160.9500  202.7590  148.9980 N   0  0  0  0  0  2  0  0  0  0  0  0
  161.4420  206.4240  149.2760 C   0  0  2  0  0  3  0  0  0  0  0  0
  161.4130  208.2100  147.5170 C   0  0  0  0  0  2  0  0  0  0  0  0
  161.7940  209.6140  150.7510 O   0  0  0  0  0  0  0  0  0  0  0  0
  160.7260  206.4950  152.1210 C   0  0  1  0  0  3  0  0  0  0  0  0
  162.0010  208.7900  149.8700 C   0  0  0  0  0  0  0  0  0  0  0  0
  160.6150  204.9840  151.9870 C   0  0  2  0  0  3  0  0  0  0  0  0
  160.7880  203.0360  150.3800 C   0  0  0  0  0  0  0  0  0  0  0  0
  162.1300  209.2110  148.4260 C   0  0  2  0  0  3  0  0  0  0  0  0
  162.2560  207.3400  150.2030 C   0  0  1  0  0  3  0  0  0  0  0  0
  160.9160  205.1300  144.4190 C   0  0  0  0  0  2  0  0  0  0  0  0
  161.2390  204.4160  153.2410 C   0  0  0  0  0  2  0  0  0  0  0  0
  160.5430  206.7350  153.6120 C   0  0  0  0  0  2  0  0  0  0  0  0
  163.0820  205.6810  145.3060 O   0  0  0  0  0  1  0  0  0  0  0  0
  161.3940  204.0090  148.4820 C   0  0  2  0  0  3  0  0  0  0  0  0
  160.8100  203.6980  144.8860 C   0  0  0  0  0  3  0  0  0  0  0  0
  161.1980  205.8200  146.8090 C   0  0  1  0  0  3  0  0  0  0  0  0
  161.7840  204.9580  149.5770 C   0  0  2  0  0  3  0  0  0  0  0  0
  160.3210  202.1900  151.1870 O   0  0  0  0  0  0  0  0  0  0  0  0
  161.1490  204.3630  150.7620 N   0  0  0  0  0  0  0  0  0  0  0  0
  160.9600  205.4490  154.3190 C   0  0  0  0  0  2  0  0  0  0  0  0
  163.0010  207.1350  152.4210 O   0  0  0  0  0  0  0  0  0  0  0  0
  160.9320  203.3530  146.1710 C   0  0  0  0  0  3  0  0  0  0  0  0
  161.2400  204.3610  147.2020 C   0  0  2  0  0  3  0  0  0  0  0  0
  162.0590  207.0160  151.6510 C   0  0  0  0  0  0  0  0  0  0  0  0
  161.5810  210.6130  148.1850 C   0  0  0  0  0  2  0  0  0  0  0  0
  162.2200  212.9450  147.6640 C   0  0  0  0  0  1  0  0  0  0  0  0
  162.6960  211.6380  148.2600 C   0  0  0  0  0  2  0  0  0  0  0  0
  1  5  1  6  0  0  0
  1  4  1  0  0  0  0
  2 16  1  1  0  0  0
  2 19  1  0  0  0  0
  3 10  1  0  0  0  0
  4 20  1  0  0  0  0
  4 12  1  0  0  0  0
  5 11  1  0  0  0  0
  7 15  1  0  0  0  0
  8 12  1  0  0  0  0
  8  6  2  0  0  0  0
  9  7  1  0  0  0  0
  9 14  1  0  0  0  0
 10 22  1  0  0  0  0
 10 21  2  0  0  0  0
 11  8  1  0  0  0  0
 12 27  1  0  0  0  0
 13 18  1  0  0  0  0
 13  2  1  0  0  0  0
 14 23  1  0  0  0  0
 15 23  1  0  0  0  0
 17  3  1  0  0  0  0
 17 20  1  0  0  0  0
 18 25  2  0  0  0  0
 19 26  1  0  0  0  0
 19  1  1  0  0  0  0
 20 22  1  0  0  0  0
 22  9  1  0  0  0  0
 25 26  1  0  0  0  0
 26 17  1  0  0  0  0
 27  7  1  0  0  0  0
 27 24  2  0  0  0  0
 28 30  1  0  0  0  0
 28 11  1  0  0  0  0
 29 30  1  0  0  0  0
M  END
>  <MODEL>
5

>  <REMARK>
 VINA RESULT:      -5.8      1.901      5.922
  Name = 
  2 active torsions:
  status: ('A' for Active; 'I' for Inactive)
    1  A    between atoms: C_11  and  C_28
    2  A    between atoms: C_28  and  C_30
                            x       y       z     vdW  Elec       q    Type
                         _______ _______ _______ _____ _____    ______ ____

>  <TORSDO>
F 2

$$$$
=
 OpenBabel11122412423D

 30 35  0  0  1  0  0  0  0  0999 V2000
  161.2420  209.0290  152.3920 C   0  0  2  0  0  3  0  0  0  0  0  0
  160.7670  207.9370  154.6610 C   0  0  2  0  0  3  0  0  0  0  0  0
  159.5280  212.6410  153.9050 N   0  0  0  0  0  2  0  0  0  0  0  0
  160.8840  210.2060  151.4580 C   0  0  2  0  0  3  0  0  0  0  0  0
  161.1410  207.7180  151.6080 C   0  0  0  0  0  2  0  0  0  0  0  0
  162.0810  208.9040  148.4010 O   0  0  0  0  0  0  0  0  0  0  0  0
  160.4200  211.9710  149.1600 C   0  0  1  0  0  3  0  0  0  0  0  0
  162.0230  208.9420  149.6230 C   0  0  0  0  0  0  0  0  0  0  0  0
  159.9480  212.9740  150.2020 C   0  0  2  0  0  3  0  0  0  0  0  0
  159.5410  213.3440  152.6730 C   0  0  0  0  0  0  0  0  0  0  0  0
  162.1380  207.6830  150.4470 C   0  0  2  0  0  3  0  0  0  0  0  0
  161.9560  210.2590  150.3590 C   0  0  1  0  0  3  0  0  0  0  0  0
  159.7060  207.8340  155.7620 C   0  0  0  0  0  2  0  0  0  0  0  0
  160.5150  214.3080  149.7720 C   0  0  0  0  0  2  0  0  0  0  0  0
  160.4110  212.7720  147.8660 C   0  0  0  0  0  2  0  0  0  0  0  0
  162.0010  208.2950  155.2130 O   0  0  0  0  0  1  0  0  0  0  0  0
  160.2120  211.4360  153.5800 C   0  0  2  0  0  3  0  0  0  0  0  0
  159.3030  209.1820  156.3110 C   0  0  0  0  0  2  0  0  0  0  0  0
  160.3200  208.9660  153.6140 C   0  0  1  0  0  3  0  0  0  0  0  0
  160.8950  211.5240  152.2470 C   0  0  2  0  0  3  0  0  0  0  0  0
  158.9510  214.4460  152.5200 O   0  0  0  0  0  0  0  0  0  0  0  0
  160.2290  212.6740  151.6180 N   0  0  0  0  0  0  0  0  0  0  0  0
  160.5670  214.2390  148.2550 C   0  0  0  0  0  2  0  0  0  0  0  0
  162.7970  211.9880  149.0100 O   0  0  0  0  0  0  0  0  0  0  0  0
  159.4380  210.3110  155.6090 C   0  0  0  0  0  3  0  0  0  0  0  0
  160.0490  210.3020  154.2670 C   0  0  0  0  0  0  0  0  0  0  0  0
  161.7990  211.4420  149.4550 C   0  0  0  0  0  0  0  0  0  0  0  0
  161.9160  206.4280  149.6120 C   0  0  0  0  0  2  0  0  0  0  0  0
  160.9700  204.1450  149.7300 C   0  0  0  0  0  1  0  0  0  0  0  0
  160.8290  205.5680  150.2280 C   0  0  0  0  0  2  0  0  0  0  0  0
  1  5  1  6  0  0  0
  1 19  1  0  0  0  0
  2 16  1  1  0  0  0
  2 13  1  0  0  0  0
  4 20  1  0  0  0  0
  4  1  1  0  0  0  0
  6  8  2  0  0  0  0
  7 27  1  0  0  0  0
  7  9  1  0  0  0  0
  8 12  1  0  0  0  0
  8 11  1  0  0  0  0
  9 22  1  0  0  0  0
 10  3  1  0  0  0  0
 11  5  1  0  0  0  0
 12  4  1  0  0  0  0
 13 18  1  0  0  0  0
 14  9  1  0  0  0  0
 15 23  1  0  0  0  0
 15  7  1  0  0  0  0
 17  3  1  0  0  0  0
 17 26  1  0  0  0  0
 19 26  1  0  0  0  0
 19  2  1  0  0  0  0
 20 17  1  0  0  0  0
 21 10  2  0  0  0  0
 22 20  1  0  0  0  0
 22 10  1  0  0  0  0
 23 14  1  0  0  0  0
 24 27  2  0  0  0  0
 25 18  1  0  0  0  0
 26 25  2  0  0  0  0
 27 12  1  0  0  0  0
 28 30  1  0  0  0  0
 28 11  1  0  0  0  0
 29 30  1  0  0  0  0
M  END
>  <MODEL>
6

>  <REMARK>
 VINA RESULT:      -5.7      3.099      7.387
  Name = 
  2 active torsions:
  status: ('A' for Active; 'I' for Inactive)
    1  A    between atoms: C_11  and  C_28
    2  A    between atoms: C_28  and  C_30
                            x       y       z     vdW  Elec       q    Type
                         _______ _______ _______ _____ _____    ______ ____

>  <TORSDO>
F 2

$$$$
