=
 OpenBabel11122414123D

 28 32  0  0  1  0  0  0  0  0999 V2000
  160.6530  205.7310  150.9710 C   0  0  2  0  0  3  0  0  0  0  0  0
  159.9270  206.6560  153.6690 O   0  0  0  0  0  0  0  0  0  0  0  0
  162.1670  211.1280  147.7680 O   0  0  0  0  0  0  0  0  0  0  0  0
  162.9840  204.2520  151.9900 C   0  0  0  0  0  2  0  0  0  0  0  0
  161.9160  211.1380  150.1190 N   0  0  0  0  0  0  0  0  0  0  0  0
  159.8170  206.3190  149.8280 C   0  0  0  0  0  2  0  0  0  0  0  0
  161.9380  207.4410  154.8600 O   0  0  0  0  0  0  0  0  0  0  0  0
  160.8140  207.8360  153.9460 S   0  0  0  0  0  0  0  0  0  0  0  0
  160.2810  210.5240  154.2800 C   0  0  0  0  0  0  0  0  0  0  0  0
  161.4390  208.5000  152.4860 N   0  0  0  0  0  0  0  0  0  0  0  0
  162.0870  206.6780  146.8010 N   0  0  0  0  0  1  0  0  0  0  0  0
  162.2670  208.8790  150.4570 C   0  0  0  0  0  0  0  0  0  0  0  0
  160.9260  210.7970  153.1790 N   0  0  0  0  0  0  0  0  0  0  0  0
  159.8450  209.1350  154.6870 C   0  0  0  0  0  2  0  0  0  0  0  0
  161.6200  206.9250  148.1540 C   0  0  1  0  0  3  0  0  0  0  0  0
  162.0280  206.4100  151.1260 C   0  0  2  0  0  3  0  0  0  0  0  0
  162.1690  210.5010  148.8610 C   0  0  0  0  0  0  0  0  0  0  0  0
  159.8100  211.6570  155.1190 C   0  0  0  0  0  1  0  0  0  0  0  0
  161.2770  208.3320  148.3030 N   0  0  0  0  0  2  0  0  0  0  0  0
  162.8640  205.7520  152.2250 C   0  0  0  0  0  2  0  0  0  0  0  0
  160.7870  204.2150  150.8120 C   0  0  0  0  0  2  0  0  0  0  0  0
  161.5980  203.6210  151.9580 C   0  0  0  0  0  2  0  0  0  0  0  0
  160.3980  206.0620  148.4350 C   0  0  0  0  0  2  0  0  0  0  0  0
  162.0000  210.0670  151.0330 C   0  0  0  0  0  0  0  0  0  0  0  0
  162.3880  209.0050  148.9670 C   0  0  2  0  0  3  0  0  0  0  0  0
  161.4440  209.8260  152.2650 C   0  0  0  0  0  0  0  0  0  0  0  0
  161.1560  212.3620  150.3080 C   0  0  0  0  0  1  0  0  0  0  0  0
  161.9230  207.8900  151.3680 C   0  0  0  0  0  0  0  0  0  0  0  0
  1  6  1  6  0  0  0
  1 16  1  0  0  0  0
  2  8  2  0  0  0  0
  3 17  2  0  0  0  0
  4 20  1  0  0  0  0
  5 27  1  0  0  0  0
  5 24  1  0  0  0  0
  8 14  1  0  0  0  0
  8  7  2  0  0  0  0
  9 14  1  0  0  0  0
  9 18  1  0  0  0  0
 10  8  1  0  0  0  0
 12 24  1  0  0  0  0
 12 28  2  0  0  0  0
 13  9  2  0  0  0  0
 15 11  1  6  0  0  0
 15 19  1  0  0  0  0
 15 23  1  0  0  0  0
 16 28  1  0  0  0  0
 16 20  1  1  0  0  0
 17 25  1  0  0  0  0
 17  5  1  0  0  0  0
 21  1  1  0  0  0  0
 21 22  1  0  0  0  0
 22  4  1  0  0  0  0
 23  6  1  0  0  0  0
 24 26  2  0  0  0  0
 25 19  1  6  0  0  0
 25 12  1  0  0  0  0
 26 10  1  0  0  0  0
 26 13  1  0  0  0  0
 28 10  1  0  0  0  0
M  END
>  <MODEL>
1

>  <REMARK>
 VINA RESULT:      -4.0      0.000      0.000
  Name = 
  0 active torsions:
  status: ('A' for Active; 'I' for Inactive)
                            x       y       z     vdW  Elec       q    Type
                         _______ _______ _______ _____ _____    ______ ____

>  <TORSDO>
F 0

$$$$
=
 OpenBabel11122414123D

 28 32  0  0  1  0  0  0  0  0999 V2000
  159.8280  210.0320  154.9810 C   0  0  2  0  0  3  0  0  0  0  0  0
  157.3650  211.0830  156.2020 O   0  0  0  0  0  0  0  0  0  0  0  0
  160.1990  213.0170  149.2690 O   0  0  0  0  0  0  0  0  0  0  0  0
  161.5080  211.2410  157.0730 C   0  0  0  0  0  2  0  0  0  0  0  0
  158.6780  213.7460  150.9260 N   0  0  0  0  0  0  0  0  0  0  0  0
  159.6450  209.3320  153.6290 C   0  0  0  0  0  2  0  0  0  0  0  0
  157.6850  213.4400  156.8480 O   0  0  0  0  0  0  0  0  0  0  0  0
  157.2630  212.5100  155.7470 S   0  0  0  0  0  0  0  0  0  0  0  0
  155.4710  213.8140  154.1010 C   0  0  0  0  0  0  0  0  0  0  0  0
  158.2170  212.7830  154.3400 N   0  0  0  0  0  0  0  0  0  0  0  0
  162.7500  210.0090  151.5460 N   0  0  0  0  0  1  0  0  0  0  0  0
  159.7650  212.8190  152.7430 C   0  0  0  0  0  0  0  0  0  0  0  0
  156.4130  214.0120  153.2190 N   0  0  0  0  0  0  0  0  0  0  0  0
  155.5840  212.8510  155.2620 C   0  0  0  0  0  2  0  0  0  0  0  0
  161.5460  210.3360  152.2880 C   0  0  1  0  0  3  0  0  0  0  0  0
  160.3590  211.4730  154.8500 C   0  0  2  0  0  3  0  0  0  0  0  0
  159.8640  213.0750  150.4820 C   0  0  0  0  0  0  0  0  0  0  0  0
  154.1490  214.4530  153.8740 C   0  0  0  0  0  1  0  0  0  0  0  0
  160.5790  210.9630  151.3980 N   0  0  0  0  0  2  0  0  0  0  0  0
  160.6000  212.1140  156.2170 C   0  0  0  0  0  2  0  0  0  0  0  0
  160.7100  209.1890  155.9050 C   0  0  0  0  0  2  0  0  0  0  0  0
  160.8780  209.8670  157.2590 C   0  0  0  0  0  2  0  0  0  0  0  0
  160.9550  209.0650  152.8820 C   0  0  0  0  0  2  0  0  0  0  0  0
  158.7060  213.5360  152.3210 C   0  0  0  0  0  0  0  0  0  0  0  0
  160.6410  212.4060  151.5980 C   0  0  2  0  0  3  0  0  0  0  0  0
  157.7350  213.4700  153.2890 C   0  0  0  0  0  0  0  0  0  0  0  0
  157.4900  213.9810  150.1230 C   0  0  0  0  0  1  0  0  0  0  0  0
  159.4670  212.3480  154.0140 C   0  0  0  0  0  0  0  0  0  0  0  0
  1  6  1  6  0  0  0
  1 21  1  0  0  0  0
  3 17  2  0  0  0  0
  4 22  1  0  0  0  0
  5 24  1  0  0  0  0
  8  2  2  0  0  0  0
  8  7  2  0  0  0  0
  9 14  1  0  0  0  0
 10  8  1  0  0  0  0
 12 28  2  0  0  0  0
 13 26  1  0  0  0  0
 13  9  2  0  0  0  0
 14  8  1  0  0  0  0
 15 11  1  6  0  0  0
 15 23  1  0  0  0  0
 16  1  1  0  0  0  0
 16 20  1  1  0  0  0
 17  5  1  0  0  0  0
 18  9  1  0  0  0  0
 19 25  1  0  0  0  0
 19 15  1  0  0  0  0
 20  4  1  0  0  0  0
 21 22  1  0  0  0  0
 23  6  1  0  0  0  0
 24 12  1  0  0  0  0
 24 26  2  0  0  0  0
 25 17  1  6  0  0  0
 25 12  1  0  0  0  0
 26 10  1  0  0  0  0
 27  5  1  0  0  0  0
 28 10  1  0  0  0  0
 28 16  1  0  0  0  0
M  END
>  <MODEL>
2

>  <REMARK>
 VINA RESULT:      -3.9      3.884      5.849
  Name = 
  0 active torsions:
  status: ('A' for Active; 'I' for Inactive)
                            x       y       z     vdW  Elec       q    Type
                         _______ _______ _______ _____ _____    ______ ____

>  <TORSDO>
F 0

$$$$
=
 OpenBabel11122414123D

 28 32  0  0  1  0  0  0  0  0999 V2000
  161.6180  208.7030  155.8450 C   0  0  2  0  0  3  0  0  0  0  0  0
  162.5300  206.8180  153.7780 O   0  0  0  0  0  0  0  0  0  0  0  0
  159.6560  213.8940  152.5460 O   0  0  0  0  0  0  0  0  0  0  0  0
  159.4320  206.9120  156.6650 C   0  0  0  0  0  2  0  0  0  0  0  0
  160.0990  211.8480  151.4460 N   0  0  0  0  0  0  0  0  0  0  0  0
  162.3360  210.0580  155.8630 C   0  0  0  0  0  2  0  0  0  0  0  0
  160.5980  205.9530  152.5150 O   0  0  0  0  0  0  0  0  0  0  0  0
  161.6280  207.0420  152.5980 S   0  0  0  0  0  0  0  0  0  0  0  0
  162.0910  208.0410  150.0660 C   0  0  0  0  0  0  0  0  0  0  0  0
  160.8620  208.5810  152.6850 N   0  0  0  0  0  0  0  0  0  0  0  0
  159.8140  212.6900  156.9360 N   0  0  0  0  0  1  0  0  0  0  0  0
  159.8570  210.4720  153.2860 C   0  0  0  0  0  0  0  0  0  0  0  0
  161.3490  209.0810  150.3320 N   0  0  0  0  0  0  0  0  0  0  0  0
  162.6080  207.0770  151.1110 C   0  0  0  0  0  2  0  0  0  0  0  0
  160.3810  211.6540  156.0910 C   0  0  1  0  0  3  0  0  0  0  0  0
  160.2370  208.7590  155.1630 C   0  0  2  0  0  3  0  0  0  0  0  0
  159.7660  212.6400  152.5930 C   0  0  0  0  0  0  0  0  0  0  0  0
  162.5900  207.8690  148.6770 C   0  0  0  0  0  1  0  0  0  0  0  0
  160.6850  212.2050  154.7790 N   0  0  0  0  0  2  0  0  0  0  0  0
  159.5190  207.4100  155.2290 C   0  0  0  0  0  2  0  0  0  0  0  0
  161.5250  208.1290  157.2610 C   0  0  0  0  0  2  0  0  0  0  0  0
  160.8320  206.7710  157.2490 C   0  0  0  0  0  2  0  0  0  0  0  0
  161.6520  211.1150  156.7340 C   0  0  0  0  0  2  0  0  0  0  0  0
  160.1280  210.5390  151.9690 C   0  0  0  0  0  0  0  0  0  0  0  0
  159.6100  211.8330  153.8670 C   0  0  2  0  0  3  0  0  0  0  0  0
  160.7920  209.3910  151.6130 C   0  0  0  0  0  0  0  0  0  0  0  0
  160.8290  212.3170  150.2800 C   0  0  0  0  0  1  0  0  0  0  0  0
  160.3090  209.2410  153.7410 C   0  0  0  0  0  0  0  0  0  0  0  0
  1  6  1  1  0  0  0
  1 21  1  0  0  0  0
  3 17  2  0  0  0  0
  4 22  1  0  0  0  0
  5 24  1  0  0  0  0
  5 17  1  0  0  0  0
  6 23  1  0  0  0  0
  7  8  2  0  0  0  0
  8 10  1  0  0  0  0
  8  2  2  0  0  0  0
  9 13  2  0  0  0  0
  9 14  1  0  0  0  0
 10 28  1  0  0  0  0
 12 28  2  0  0  0  0
 12 25  1  0  0  0  0
 13 26  1  0  0  0  0
 14  8  1  0  0  0  0
 15 23  1  0  0  0  0
 15 11  1  1  0  0  0
 16 20  1  6  0  0  0
 16  1  1  0  0  0  0
 18  9  1  0  0  0  0
 19 15  1  0  0  0  0
 20  4  1  0  0  0  0
 22 21  1  0  0  0  0
 24 12  1  0  0  0  0
 25 17  1  6  0  0  0
 25 19  1  0  0  0  0
 26 24  2  0  0  0  0
 26 10  1  0  0  0  0
 27  5  1  0  0  0  0
 28 16  1  0  0  0  0
M  END
>  <MODEL>
3

>  <REMARK>
 VINA RESULT:      -3.6      2.362      5.809
  Name = 
  0 active torsions:
  status: ('A' for Active; 'I' for Inactive)
                            x       y       z     vdW  Elec       q    Type
                         _______ _______ _______ _____ _____    ______ ____

>  <TORSDO>
F 0

$$$$
=
 OpenBabel11122414123D

 28 32  0  0  1  0  0  0  0  0999 V2000
  160.3720  208.1230  154.8860 C   0  0  2  0  0  3  0  0  0  0  0  0
  158.6170  210.3180  155.7600 O   0  0  0  0  0  0  0  0  0  0  0  0
  162.3200  209.8650  148.9830 O   0  0  0  0  0  0  0  0  0  0  0  0
  162.3270  208.6990  157.0090 C   0  0  0  0  0  2  0  0  0  0  0  0
  161.2350  211.4070  150.4110 N   0  0  0  0  0  0  0  0  0  0  0  0
  159.9460  207.4160  153.5940 C   0  0  0  0  0  2  0  0  0  0  0  0
  159.9570  212.3380  156.2110 O   0  0  0  0  0  0  0  0  0  0  0  0
  159.2030  211.5670  155.1660 S   0  0  0  0  0  0  0  0  0  0  0  0
  158.2840  213.3180  153.2400 C   0  0  0  0  0  0  0  0  0  0  0  0
  160.2350  211.1990  153.8390 N   0  0  0  0  0  0  0  0  0  0  0  0
  163.1020  206.3460  151.7660 N   0  0  0  0  0  1  0  0  0  0  0  0
  161.6940  210.3280  152.4030 C   0  0  0  0  0  0  0  0  0  0  0  0
  159.2490  212.9560  152.4390 N   0  0  0  0  0  0  0  0  0  0  0  0
  157.8910  212.5650  154.4910 C   0  0  0  0  0  2  0  0  0  0  0  0
  162.1520  207.2740  152.3550 C   0  0  1  0  0  3  0  0  0  0  0  0
  161.5110  209.1390  154.6730 C   0  0  2  0  0  3  0  0  0  0  0  0
  161.9970  210.2220  150.1470 C   0  0  0  0  0  0  0  0  0  0  0  0
  157.4160  214.4510  152.8280 C   0  0  0  0  0  1  0  0  0  0  0  0
  161.6210  208.1500  151.3210 N   0  0  0  0  0  2  0  0  0  0  0  0
  161.9600  209.7700  155.9910 C   0  0  0  0  0  2  0  0  0  0  0  0
  160.7260  207.0980  155.9660 C   0  0  0  0  0  2  0  0  0  0  0  0
  161.1290  207.7930  157.2610 C   0  0  0  0  0  2  0  0  0  0  0  0
  161.0180  206.4940  153.0050 C   0  0  0  0  0  2  0  0  0  0  0  0
  161.1030  211.3860  151.8150 C   0  0  0  0  0  0  0  0  0  0  0  0
  162.3310  209.4220  151.3910 C   0  0  2  0  0  3  0  0  0  0  0  0
  160.1700  211.8890  152.6870 C   0  0  0  0  0  0  0  0  0  0  0  0
  160.3240  212.0490  149.4780 C   0  0  0  0  0  1  0  0  0  0  0  0
  161.1580  210.2090  153.6770 C   0  0  0  0  0  0  0  0  0  0  0  0
  1  6  1  6  0  0  0
  1 21  1  0  0  0  0
  3 17  2  0  0  0  0
  4 22  1  0  0  0  0
  5 24  1  0  0  0  0
  8  2  2  0  0  0  0
  8  7  2  0  0  0  0
  9 14  1  0  0  0  0
 10  8  1  0  0  0  0
 12 28  2  0  0  0  0
 13 26  1  0  0  0  0
 13  9  2  0  0  0  0
 14  8  1  0  0  0  0
 15 11  1  6  0  0  0
 15 23  1  0  0  0  0
 16  1  1  0  0  0  0
 16 20  1  1  0  0  0
 17  5  1  0  0  0  0
 18  9  1  0  0  0  0
 19 25  1  0  0  0  0
 19 15  1  0  0  0  0
 20  4  1  0  0  0  0
 21 22  1  0  0  0  0
 23  6  1  0  0  0  0
 24 12  1  0  0  0  0
 24 26  2  0  0  0  0
 25 17  1  6  0  0  0
 25 12  1  0  0  0  0
 26 10  1  0  0  0  0
 27  5  1  0  0  0  0
 28 10  1  0  0  0  0
 28 16  1  0  0  0  0
M  END
>  <MODEL>
4

>  <REMARK>
 VINA RESULT:      -3.4      2.668      4.059
  Name = 
  0 active torsions:
  status: ('A' for Active; 'I' for Inactive)
                            x       y       z     vdW  Elec       q    Type
                         _______ _______ _______ _____ _____    ______ ____

>  <TORSDO>
F 0

$$$$
=
 OpenBabel11122414123D

 28 32  0  0  1  0  0  0  0  0999 V2000
  161.1420  210.3650  155.3460 C   0  0  2  0  0  3  0  0  0  0  0  0
  162.8300  209.9530  152.9700 O   0  0  0  0  0  0  0  0  0  0  0  0
  156.5290  214.4240  153.3660 O   0  0  0  0  0  0  0  0  0  0  0  0
  160.3150  207.5410  155.3800 C   0  0  0  0  0  2  0  0  0  0  0  0
  157.9560  213.3520  151.8140 N   0  0  0  0  0  0  0  0  0  0  0  0
  161.0130  211.8180  155.8160 C   0  0  0  0  0  2  0  0  0  0  0  0
  161.6150  208.6100  151.2970 O   0  0  0  0  0  0  0  0  0  0  0  0
  161.8950  209.9990  151.7960 S   0  0  0  0  0  0  0  0  0  0  0  0
  161.6230  211.7800  149.7050 C   0  0  0  0  0  0  0  0  0  0  0  0
  160.4240  210.7930  152.2030 N   0  0  0  0  0  0  0  0  0  0  0  0
  157.5220  212.2640  157.2500 N   0  0  0  0  0  1  0  0  0  0  0  0
  158.5850  211.5890  153.1690 C   0  0  0  0  0  0  0  0  0  0  0  0
  160.4490  212.1370  150.1510 N   0  0  0  0  0  0  0  0  0  0  0  0
  162.6280  210.9810  150.5030 C   0  0  0  0  0  2  0  0  0  0  0  0
  158.5190  211.9870  156.2320 C   0  0  1  0  0  3  0  0  0  0  0  0
  159.9210  209.8770  154.5430 C   0  0  2  0  0  3  0  0  0  0  0  0
  157.3030  213.4700  153.0840 C   0  0  0  0  0  0  0  0  0  0  0  0
  162.0680  212.3150  148.3920 C   0  0  0  0  0  1  0  0  0  0  0  0
  158.4130  212.9710  155.1650 N   0  0  0  0  0  2  0  0  0  0  0  0
  160.0500  208.4040  154.1540 C   0  0  0  0  0  2  0  0  0  0  0  0
  161.4420  209.4430  156.5310 C   0  0  0  0  0  2  0  0  0  0  0  0
  161.5950  207.9990  156.0680 C   0  0  0  0  0  2  0  0  0  0  0  0
  159.9080  212.0430  156.8530 C   0  0  0  0  0  2  0  0  0  0  0  0
  158.7140  212.1720  151.9620 C   0  0  0  0  0  0  0  0  0  0  0  0
  157.6690  212.3720  154.0630 C   0  0  2  0  0  3  0  0  0  0  0  0
  159.8760  211.7140  151.3910 C   0  0  0  0  0  0  0  0  0  0  0  0
  158.2590  214.4530  150.9150 C   0  0  0  0  0  1  0  0  0  0  0  0
  159.6520  210.7160  153.3240 C   0  0  0  0  0  0  0  0  0  0  0  0
  1  6  1  1  0  0  0
  1 21  1  0  0  0  0
  4 22  1  0  0  0  0
  5 24  1  0  0  0  0
  5 17  1  0  0  0  0
  6 23  1  0  0  0  0
  7  8  2  0  0  0  0
  8 10  1  0  0  0  0
  8  2  2  0  0  0  0
  9 13  2  0  0  0  0
  9 14  1  0  0  0  0
 10 28  1  0  0  0  0
 12 28  2  0  0  0  0
 12 25  1  0  0  0  0
 13 26  1  0  0  0  0
 14  8  1  0  0  0  0
 15 23  1  0  0  0  0
 15 11  1  1  0  0  0
 16 20  1  6  0  0  0
 16  1  1  0  0  0  0
 17  3  2  0  0  0  0
 18  9  1  0  0  0  0
 19 15  1  0  0  0  0
 20  4  1  0  0  0  0
 22 21  1  0  0  0  0
 24 12  1  0  0  0  0
 25 17  1  6  0  0  0
 25 19  1  0  0  0  0
 26 24  2  0  0  0  0
 26 10  1  0  0  0  0
 27  5  1  0  0  0  0
 28 16  1  0  0  0  0
M  END
>  <MODEL>
5

>  <REMARK>
 VINA RESULT:      -3.1      3.688      6.494
  Name = 
  0 active torsions:
  status: ('A' for Active; 'I' for Inactive)
                            x       y       z     vdW  Elec       q    Type
                         _______ _______ _______ _____ _____    ______ ____

>  <TORSDO>
F 0

$$$$
=
 OpenBabel11122414123D

 28 32  0  0  1  0  0  0  0  0999 V2000
  162.5560  213.1870  140.0780 C   0  0  2  0  0  3  0  0  0  0  0  0
  160.4080  213.2640  138.0680 O   0  0  0  0  0  0  0  0  0  0  0  0
  159.5200  213.9940  145.7180 O   0  0  0  0  0  0  0  0  0  0  0  0
  163.1880  210.3820  139.4510 C   0  0  0  0  0  2  0  0  0  0  0  0
  158.3110  213.5240  143.7410 N   0  0  0  0  0  0  0  0  0  0  0  0
  162.6820  214.4390  140.9530 C   0  0  0  0  0  2  0  0  0  0  0  0
  159.0290  211.2270  138.2310 O   0  0  0  0  0  0  0  0  0  0  0  0
  159.2140  212.6330  138.7260 S   0  0  0  0  0  0  0  0  0  0  0  0
  156.7670  213.6470  139.5020 C   0  0  0  0  0  0  0  0  0  0  0  0
  159.3700  212.6460  140.4390 N   0  0  0  0  0  0  0  0  0  0  0  0
  163.8290  213.3290  144.4020 N   0  0  0  0  0  1  0  0  0  0  0  0
  160.0530  212.5740  142.5550 C   0  0  0  0  0  0  0  0  0  0  0  0
  157.0710  213.4430  140.7550 N   0  0  0  0  0  0  0  0  0  0  0  0
  157.7670  213.6070  138.3680 C   0  0  0  0  0  2  0  0  0  0  0  0
  162.9420  213.4120  143.2560 C   0  0  1  0  0  3  0  0  0  0  0  0
  161.8320  212.0250  140.7850 C   0  0  2  0  0  3  0  0  0  0  0  0
  159.4930  213.5190  144.5510 C   0  0  0  0  0  0  0  0  0  0  0  0
  155.3880  214.0940  139.1770 C   0  0  0  0  0  1  0  0  0  0  0  0
  161.6780  214.0100  143.6590 N   0  0  0  0  0  2  0  0  0  0  0  0
  161.7900  210.7700  139.9120 C   0  0  0  0  0  2  0  0  0  0  0  0
  163.9300  212.7600  139.5540 C   0  0  0  0  0  2  0  0  0  0  0  0
  163.8100  211.5280  138.6640 C   0  0  0  0  0  2  0  0  0  0  0  0
  163.5940  214.2600  142.1710 C   0  0  0  0  0  2  0  0  0  0  0  0
  158.7520  212.9240  142.5430 C   0  0  0  0  0  0  0  0  0  0  0  0
  160.7080  212.9390  143.8550 C   0  0  2  0  0  3  0  0  0  0  0  0
  158.3500  213.0140  141.2340 C   0  0  0  0  0  0  0  0  0  0  0  0
  157.2020  214.4530  143.8710 C   0  0  0  0  0  1  0  0  0  0  0  0
  160.4460  212.3910  141.2370 C   0  0  0  0  0  0  0  0  0  0  0  0
  1 21  1  1  0  0  0
  1 16  1  0  0  0  0
  1  6  1  0  0  0  0
  2  8  2  0  0  0  0
  4 20  1  0  0  0  0
  5 27  1  0  0  0  0
  5 17  1  0  0  0  0
  6 23  1  0  0  0  0
  7  8  2  0  0  0  0
  8 10  1  0  0  0  0
  9 13  2  0  0  0  0
 10 26  1  0  0  0  0
 10 28  1  0  0  0  0
 13 26  1  0  0  0  0
 14  8  1  0  0  0  0
 14  9  1  0  0  0  0
 15 19  1  0  0  0  0
 15 11  1  1  0  0  0
 16 20  1  6  0  0  0
 16 28  1  0  0  0  0
 17  3  2  0  0  0  0
 18  9  1  0  0  0  0
 19 25  1  0  0  0  0
 22  4  1  0  0  0  0
 22 21  1  0  0  0  0
 23 15  1  0  0  0  0
 24 12  1  0  0  0  0
 24  5  1  0  0  0  0
 25 12  1  6  0  0  0
 25 17  1  0  0  0  0
 26 24  2  0  0  0  0
 28 12  2  0  0  0  0
M  END
>  <MODEL>
6

>  <REMARK>
 VINA RESULT:      -2.8      9.538     12.309
  Name = 
  0 active torsions:
  status: ('A' for Active; 'I' for Inactive)
                            x       y       z     vdW  Elec       q    Type
                         _______ _______ _______ _____ _____    ______ ____

>  <TORSDO>
F 0

$$$$
=
 OpenBabel11122414123D

 28 32  0  0  1  0  0  0  0  0999 V2000
  162.2720  205.3630  146.8080 C   0  0  2  0  0  3  0  0  0  0  0  0
  162.9130  208.1480  147.5110 O   0  0  0  0  0  0  0  0  0  0  0  0
  160.4560  202.6670  152.3860 O   0  0  0  0  0  0  0  0  0  0  0  0
  160.0270  206.1990  145.0980 C   0  0  0  0  0  2  0  0  0  0  0  0
  160.6840  205.0120  152.1850 N   0  0  0  0  0  0  0  0  0  0  0  0
  163.0810  204.2940  147.5530 C   0  0  0  0  0  2  0  0  0  0  0  0
  160.8460  209.3770  148.0540 O   0  0  0  0  0  0  0  0  0  0  0  0
  161.9520  208.5220  148.6030 S   0  0  0  0  0  0  0  0  0  0  0  0
  162.3130  209.1200  151.2730 C   0  0  0  0  0  0  0  0  0  0  0  0
  161.3010  207.1230  149.3640 N   0  0  0  0  0  0  0  0  0  0  0  0
  160.8220  201.2810  148.0630 N   0  0  0  0  0  1  0  0  0  0  0  0
  160.4700  205.1270  149.8860 C   0  0  0  0  0  0  0  0  0  0  0  0
  161.6630  208.0400  151.6120 N   0  0  0  0  0  0  0  0  0  0  0  0
  162.8310  209.3990  149.8800 C   0  0  0  0  0  2  0  0  0  0  0  0
  161.2600  202.6580  148.2060 C   0  0  1  0  0  3  0  0  0  0  0  0
  160.8560  205.5600  147.3830 C   0  0  2  0  0  3  0  0  0  0  0  0
  160.4830  203.6940  151.6580 C   0  0  0  0  0  0  0  0  0  0  0  0
  162.7050  210.0700  152.3470 C   0  0  0  0  0  1  0  0  0  0  0  0
  161.5130  202.9460  149.6100 N   0  0  0  0  0  2  0  0  0  0  0  0
  160.0520  206.5780  146.5730 C   0  0  0  0  0  2  0  0  0  0  0  0
  162.2340  205.0580  145.3090 C   0  0  0  0  0  2  0  0  0  0  0  0
  161.4500  206.1280  144.5590 C   0  0  0  0  0  2  0  0  0  0  0  0
  162.5300  202.8740  147.3960 C   0  0  0  0  0  2  0  0  0  0  0  0
  160.6570  205.8180  151.0270 C   0  0  0  0  0  0  0  0  0  0  0  0
  160.3560  203.6540  150.1480 C   0  0  2  0  0  3  0  0  0  0  0  0
  161.2160  207.0290  150.7030 C   0  0  0  0  0  0  0  0  0  0  0  0
  161.3640  205.3290  153.4290 C   0  0  0  0  0  1  0  0  0  0  0  0
  160.8660  205.9440  148.8370 C   0  0  0  0  0  0  0  0  0  0  0  0
  1 21  1  6  0  0  0
  1 16  1  0  0  0  0
  1  6  1  0  0  0  0
  2  8  2  0  0  0  0
  4 20  1  0  0  0  0
  5 27  1  0  0  0  0
  7  8  2  0  0  0  0
  8 10  1  0  0  0  0
  8 14  1  0  0  0  0
  9 13  2  0  0  0  0
  9 18  1  0  0  0  0
 10 26  1  0  0  0  0
 12 25  1  0  0  0  0
 12 24  1  0  0  0  0
 14  9  1  0  0  0  0
 15 11  1  1  0  0  0
 15 19  1  0  0  0  0
 16 20  1  6  0  0  0
 16 28  1  0  0  0  0
 17  5  1  0  0  0  0
 17  3  2  0  0  0  0
 22  4  1  0  0  0  0
 22 21  1  0  0  0  0
 23  6  1  0  0  0  0
 23 15  1  0  0  0  0
 24  5  1  0  0  0  0
 25 19  1  6  0  0  0
 25 17  1  0  0  0  0
 26 24  2  0  0  0  0
 26 13  1  0  0  0  0
 28 10  1  0  0  0  0
 28 12  2  0  0  0  0
M  END
>  <MODEL>
7

>  <REMARK>
 VINA RESULT:      -1.8      2.850      5.718
  Name = 
  0 active torsions:
  status: ('A' for Active; 'I' for Inactive)
                            x       y       z     vdW  Elec       q    Type
                         _______ _______ _______ _____ _____    ______ ____

>  <TORSDO>
F 0

$$$$
