=
 OpenBabel11122413103D

 31 35  0  0  1  0  0  0  0  0999 V2000
  160.9380  206.5940  146.6390 C   0  0  0  0  0  0  0  0  0  0  0  0
  160.3050  204.9780  150.0300 C   0  0  2  0  0  3  0  0  0  0  0  0
  160.7570  203.5280  149.8890 C   0  0  0  0  0  0  0  0  0  0  0  0
  161.1550  201.5850  148.4730 C   0  0  0  0  0  0  0  0  0  0  0  0
  160.8720  205.8800  148.9590 C   0  0  0  0  0  0  0  0  0  0  0  0
  161.9610  207.4950  146.9410 C   0  0  0  0  0  3  0  0  0  0  0  0
  160.8200  202.9320  148.6180 C   0  0  0  0  0  3  0  0  0  0  0  0
  162.0140  205.9120  151.5630 N   0  0  0  0  0  0  0  0  0  0  0  0
  160.4750  206.4960  145.3700 F   0  0  0  0  0  0  0  0  0  0  0  0
  160.9380  203.2740  152.4180 C   0  0  0  0  0  2  0  0  0  0  0  0
  161.2260  201.0350  147.2370 F   0  0  0  0  0  0  0  0  0  0  0  0
  162.3090  207.0430  150.6820 C   0  0  0  0  0  2  0  0  0  0  0  0
  160.5840  205.5610  151.4320 C   0  0  2  0  0  3  0  0  0  0  0  0
  160.3920  205.7940  147.6450 C   0  0  0  0  0  3  0  0  0  0  0  0
  161.4140  200.8060  149.6000 C   0  0  0  0  0  3  0  0  0  0  0  0
  161.8980  206.7940  149.2610 C   0  0  0  0  0  0  0  0  0  0  0  0
  162.4320  207.6030  148.2530 C   0  0  0  0  0  3  0  0  0  0  0  0
  160.1190  204.5560  152.4940 C   0  0  0  0  0  2  0  0  0  0  0  0
  160.9810  202.7170  151.0280 C   0  0  0  0  0  0  0  0  0  0  0  0
  161.3270  201.3710  150.8720 C   0  0  0  0  0  3  0  0  0  0  0  0
  162.2700  206.4140  152.9100 C   0  0  0  0  0  2  0  0  0  0  0  0
  160.4280  207.0170  154.4390 C   0  0  0  0  0  1  0  0  0  0  0  0
  161.2660  207.5030  153.2650 C   0  0  1  0  0  3  0  0  0  0  0  0
  159.7680  210.7520  154.2140 C   0  0  1  0  0  3  0  0  0  0  0  0
  161.6440  209.2870  155.0350 C   0  0  0  0  0  2  0  0  0  0  0  0
  162.0010  209.8280  151.2210 C   0  0  0  0  0  1  0  0  0  0  0  0
  158.2860  211.0320  154.3390 C   0  0  0  0  0  1  0  0  0  0  0  0
  160.1610  209.6430  155.1880 C   0  0  0  0  0  2  0  0  0  0  0  0
  161.5750  210.0130  152.6650 C   0  0  2  0  0  3  0  0  0  0  0  0
  161.9610  208.8450  153.5970 C   0  0  2  0  0  3  0  0  0  0  0  0
  160.0920  210.3560  152.7760 C   0  0  0  0  0  2  0  0  0  0  0  0
  1  6  2  0  0  0  0
  1 14  1  0  0  0  0
  2  5  1  6  0  0  0
  2 13  1  0  0  0  0
  3  2  1  0  0  0  0
  3 19  1  0  0  0  0
  4  7  1  0  0  0  0
  4 15  2  0  0  0  0
  5 16  1  0  0  0  0
  6 17  1  0  0  0  0
  7  3  2  0  0  0  0
  8 21  1  0  0  0  0
  9  1  1  0  0  0  0
 10 18  1  0  0  0  0
 11  4  1  0  0  0  0
 12  8  1  0  0  0  0
 13  8  1  0  0  0  0
 13 18  1  1  0  0  0
 14  5  2  0  0  0  0
 15 20  1  0  0  0  0
 16 12  1  0  0  0  0
 17 16  2  0  0  0  0
 19 10  1  0  0  0  0
 20 19  2  0  0  0  0
 21 23  1  0  0  0  0
 23 22  1  1  0  0  0
 24 27  1  6  0  0  0
 24 28  1  0  0  0  0
 25 28  1  0  0  0  0
 29 26  1  6  0  0  0
 29 31  1  0  0  0  0
 29 30  1  0  0  0  0
 30 23  1  6  0  0  0
 30 25  1  0  0  0  0
 31 24  1  0  0  0  0
M  END
>  <MODEL>
1

>  <REMARK>
 VINA RESULT:      -8.5      0.000      0.000
  Name = 
  3 active torsions:
  status: ('A' for Active; 'I' for Inactive)
    1  A    between atoms: C_5  and  C_16
    2  A    between atoms: C_5  and  C_30
    3  A    between atoms: N_10  and  C_16
                            x       y       z     vdW  Elec       q    Type
                         _______ _______ _______ _____ _____    ______ ____

>  <TORSDO>
F 3

$$$$
=
 OpenBabel11122413103D

 31 35  0  0  1  0  0  0  0  0999 V2000
  160.3570  207.6110  155.9590 C   0  0  0  0  0  0  0  0  0  0  0  0
  161.8570  208.8750  152.6940 C   0  0  2  0  0  3  0  0  0  0  0  0
  161.4290  207.8740  151.6260 C   0  0  0  0  0  0  0  0  0  0  0  0
  160.7530  205.6110  151.0250 C   0  0  0  0  0  0  0  0  0  0  0  0
  161.0150  208.7990  153.9460 C   0  0  0  0  0  0  0  0  0  0  0  0
  159.4130  208.6010  156.2390 C   0  0  0  0  0  3  0  0  0  0  0  0
  161.0720  206.5650  151.9920 C   0  0  0  0  0  3  0  0  0  0  0  0
  160.5520  210.8890  152.0750 N   0  0  0  0  0  0  0  0  0  0  0  0
  160.4950  206.5520  156.7920 F   0  0  0  0  0  0  0  0  0  0  0  0
  161.8860  209.5610  149.7720 C   0  0  0  0  0  2  0  0  0  0  0  0
  160.3970  204.3600  151.4010 F   0  0  0  0  0  0  0  0  0  0  0  0
  160.0140  211.0600  153.4260 C   0  0  0  0  0  2  0  0  0  0  0  0
  161.9150  210.3260  152.1690 C   0  0  2  0  0  3  0  0  0  0  0  0
  161.1590  207.7130  154.8200 C   0  0  0  0  0  3  0  0  0  0  0  0
  160.8050  205.9450  149.6730 C   0  0  0  0  0  3  0  0  0  0  0  0
  160.0680  209.7980  154.2350 C   0  0  0  0  0  0  0  0  0  0  0  0
  159.2780  209.6990  155.3840 C   0  0  0  0  0  3  0  0  0  0  0  0
  162.6590  210.3440  150.8270 C   0  0  0  0  0  2  0  0  0  0  0  0
  161.5180  208.1900  150.2480 C   0  0  0  0  0  0  0  0  0  0  0  0
  161.1860  207.2300  149.2870 C   0  0  0  0  0  3  0  0  0  0  0  0
  160.6210  212.2420  151.5300 C   0  0  0  0  0  2  0  0  0  0  0  0
  158.1990  212.7000  151.6790 C   0  0  0  0  0  1  0  0  0  0  0  0
  159.3690  212.5470  150.7170 C   0  0  1  0  0  3  0  0  0  0  0  0
  158.0710  213.2530  147.3230 C   0  0  1  0  0  3  0  0  0  0  0  0
  158.1780  214.4530  149.5340 C   0  0  0  0  0  2  0  0  0  0  0  0
  161.6920  213.1180  148.6180 C   0  0  0  0  0  1  0  0  0  0  0  0
  157.2470  212.3000  146.4840 C   0  0  0  0  0  1  0  0  0  0  0  0
  157.3360  213.5480  148.6290 C   0  0  0  0  0  2  0  0  0  0  0  0
  160.2480  213.5680  148.4950 C   0  0  2  0  0  3  0  0  0  0  0  0
  159.5400  213.8130  149.8450 C   0  0  2  0  0  3  0  0  0  0  0  0
  159.4410  212.6360  147.5960 C   0  0  0  0  0  2  0  0  0  0  0  0
  1  6  1  0  0  0  0
  1  9  1  0  0  0  0
  2  3  1  6  0  0  0
  2  5  1  0  0  0  0
  3  7  1  0  0  0  0
  4 11  1  0  0  0  0
  4  7  2  0  0  0  0
  5 16  2  0  0  0  0
  5 14  1  0  0  0  0
  8 13  1  0  0  0  0
  8 12  1  0  0  0  0
 10 19  1  0  0  0  0
 10 18  1  0  0  0  0
 12 16  1  0  0  0  0
 13 18  1  6  0  0  0
 13  2  1  0  0  0  0
 14  1  2  0  0  0  0
 15  4  1  0  0  0  0
 16 17  1  0  0  0  0
 17  6  2  0  0  0  0
 19  3  2  0  0  0  0
 20 15  2  0  0  0  0
 20 19  1  0  0  0  0
 21  8  1  0  0  0  0
 23 21  1  0  0  0  0
 23 22  1  1  0  0  0
 24 27  1  6  0  0  0
 24 31  1  0  0  0  0
 24 28  1  0  0  0  0
 25 30  1  0  0  0  0
 28 25  1  0  0  0  0
 29 26  1  1  0  0  0
 29 30  1  0  0  0  0
 30 23  1  6  0  0  0
 31 29  1  0  0  0  0
M  END
>  <MODEL>
2

>  <REMARK>
 VINA RESULT:      -8.0      3.892      6.709
  Name = 
  3 active torsions:
  status: ('A' for Active; 'I' for Inactive)
    1  A    between atoms: C_5  and  C_16
    2  A    between atoms: C_5  and  C_30
    3  A    between atoms: N_10  and  C_16
                            x       y       z     vdW  Elec       q    Type
                         _______ _______ _______ _____ _____    ______ ____

>  <TORSDO>
F 3

$$$$
=
 OpenBabel11122413103D

 31 35  0  0  1  0  0  0  0  0999 V2000
  161.8730  212.6080  143.0190 C   0  0  0  0  0  0  0  0  0  0  0  0
  160.6960  211.9610  139.4550 C   0  0  2  0  0  3  0  0  0  0  0  0
  160.8590  210.4620  139.2300 C   0  0  0  0  0  0  0  0  0  0  0  0
  161.9900  208.3710  139.7720 C   0  0  0  0  0  0  0  0  0  0  0  0
  160.6880  212.3410  140.9160 C   0  0  0  0  0  0  0  0  0  0  0  0
  160.6820  212.9740  143.6490 C   0  0  0  0  0  3  0  0  0  0  0  0
  161.7660  209.7280  140.0130 C   0  0  0  0  0  3  0  0  0  0  0  0
  158.2310  212.2180  139.4910 N   0  0  0  0  0  0  0  0  0  0  0  0
  163.0250  212.5520  143.7290 F   0  0  0  0  0  0  0  0  0  0  0  0
  159.2340  210.5160  137.2670 C   0  0  0  0  0  2  0  0  0  0  0  0
  162.8570  207.6800  140.5490 F   0  0  0  0  0  0  0  0  0  0  0  0
  158.2410  212.9510  140.7580 C   0  0  0  0  0  2  0  0  0  0  0  0
  159.4600  212.5450  138.7380 C   0  0  2  0  0  3  0  0  0  0  0  0
  161.8770  212.2980  141.6570 C   0  0  0  0  0  3  0  0  0  0  0  0
  161.3220  207.7300  138.7300 C   0  0  0  0  0  3  0  0  0  0  0  0
  159.4910  212.7180  141.5530 C   0  0  0  0  0  0  0  0  0  0  0  0
  159.4960  213.0410  142.9130 C   0  0  0  0  0  3  0  0  0  0  0  0
  159.4270  212.0270  137.2940 C   0  0  0  0  0  2  0  0  0  0  0  0
  160.2180  209.8090  138.1480 C   0  0  0  0  0  0  0  0  0  0  0  0
  160.4400  208.4470  137.9220 C   0  0  0  0  0  3  0  0  0  0  0  0
  157.0690  212.7340  138.7730 C   0  0  0  0  0  2  0  0  0  0  0  0
  154.8720  213.1200  139.8310 C   0  0  0  0  0  1  0  0  0  0  0  0
  155.7990  212.0530  139.2670 C   0  0  1  0  0  3  0  0  0  0  0  0
  152.9370  209.7170  139.4890 C   0  0  1  0  0  3  0  0  0  0  0  0
  153.6220  211.6450  138.0230 C   0  0  0  0  0  2  0  0  0  0  0  0
  156.5410  209.1190  138.2840 C   0  0  0  0  0  1  0  0  0  0  0  0
  152.2060  209.3430  140.7610 C   0  0  0  0  0  1  0  0  0  0  0  0
  152.8310  211.2250  139.2660 C   0  0  0  0  0  2  0  0  0  0  0  0
  155.1470  209.7150  138.3380 C   0  0  2  0  0  3  0  0  0  0  0  0
  155.1010  211.2460  138.1470 C   0  0  2  0  0  3  0  0  0  0  0  0
  154.3960  209.2820  139.5940 C   0  0  0  0  0  2  0  0  0  0  0  0
  1  6  1  0  0  0  0
  1  9  1  0  0  0  0
  2  3  1  1  0  0  0
  2  5  1  0  0  0  0
  3  7  1  0  0  0  0
  4  7  2  0  0  0  0
  4 11  1  0  0  0  0
  5 16  2  0  0  0  0
  5 14  1  0  0  0  0
  8 12  1  0  0  0  0
 10 18  1  0  0  0  0
 10 19  1  0  0  0  0
 12 16  1  0  0  0  0
 13 18  1  6  0  0  0
 13  2  1  0  0  0  0
 13  8  1  0  0  0  0
 14  1  2  0  0  0  0
 15  4  1  0  0  0  0
 16 17  1  0  0  0  0
 17  6  2  0  0  0  0
 19  3  2  0  0  0  0
 20 19  1  0  0  0  0
 20 15  2  0  0  0  0
 21 23  1  0  0  0  0
 21  8  1  0  0  0  0
 23 22  1  6  0  0  0
 24 31  1  0  0  0  0
 24 27  1  1  0  0  0
 25 30  1  0  0  0  0
 25 28  1  0  0  0  0
 28 24  1  0  0  0  0
 29 26  1  1  0  0  0
 29 31  1  0  0  0  0
 30 29  1  0  0  0  0
 30 23  1  1  0  0  0
M  END
>  <MODEL>
3

>  <REMARK>
 VINA RESULT:      -7.1     10.565     13.655
  Name = 
  3 active torsions:
  status: ('A' for Active; 'I' for Inactive)
    1  A    between atoms: C_5  and  C_16
    2  A    between atoms: C_5  and  C_30
    3  A    between atoms: N_10  and  C_16
                            x       y       z     vdW  Elec       q    Type
                         _______ _______ _______ _____ _____    ______ ____

>  <TORSDO>
F 3

$$$$
=
 OpenBabel11122413103D

 31 35  0  0  1  0  0  0  0  0999 V2000
  162.3310  210.5710  149.6000 C   0  0  0  0  0  0  0  0  0  0  0  0
  161.9610  208.4540  152.7440 C   0  0  2  0  0  3  0  0  0  0  0  0
  160.8290  209.0920  153.5430 C   0  0  0  0  0  0  0  0  0  0  0  0
  159.5200  211.0680  154.1110 C   0  0  0  0  0  0  0  0  0  0  0  0
  161.9640  208.8680  151.2920 C   0  0  0  0  0  0  0  0  0  0  0  0
  161.9110  209.6810  148.6080 C   0  0  0  0  0  3  0  0  0  0  0  0
  160.4980  210.4420  153.3370 C   0  0  0  0  0  3  0  0  0  0  0  0
  160.9420  206.3150  152.0140 N   0  0  0  0  0  0  0  0  0  0  0  0
  162.7070  211.8280  149.2660 F   0  0  0  0  0  0  0  0  0  0  0  0
  160.4840  206.9520  154.8830 C   0  0  0  0  0  2  0  0  0  0  0  0
  159.2050  212.3650  153.8840 F   0  0  0  0  0  0  0  0  0  0  0  0
  161.2930  206.5300  150.6090 C   0  0  0  0  0  2  0  0  0  0  0  0
  161.9890  206.9150  152.8670 C   0  0  2  0  0  3  0  0  0  0  0  0
  162.3620  210.1640  150.9360 C   0  0  0  0  0  3  0  0  0  0  0  0
  158.8700  210.3580  155.1200 C   0  0  0  0  0  3  0  0  0  0  0  0
  161.5500  207.9720  150.2890 C   0  0  0  0  0  0  0  0  0  0  0  0
  161.5330  208.3810  148.9520 C   0  0  0  0  0  3  0  0  0  0  0  0
  161.8450  206.5280  154.3450 C   0  0  0  0  0  2  0  0  0  0  0  0
  160.1930  208.3930  154.5980 C   0  0  0  0  0  0  0  0  0  0  0  0
  159.2060  209.0250  155.3620 C   0  0  0  0  0  3  0  0  0  0  0  0
  160.9500  204.8650  152.1810 C   0  0  0  0  0  2  0  0  0  0  0  0
  161.9800  202.8150  151.2680 C   0  0  0  0  0  1  0  0  0  0  0  0
  161.4400  204.1910  150.9050 C   0  0  1  0  0  3  0  0  0  0  0  0
  160.7630  201.4850  148.4720 C   0  0  1  0  0  3  0  0  0  0  0  0
  159.4280  202.8620  150.1030 C   0  0  0  0  0  2  0  0  0  0  0  0
  161.5740  205.2010  147.8910 C   0  0  0  0  0  1  0  0  0  0  0  0
  161.5820  200.2210  148.3150 C   0  0  0  0  0  1  0  0  0  0  0  0
  160.2030  201.5570  149.8910 C   0  0  0  0  0  2  0  0  0  0  0  0
  160.8310  203.9750  148.3880 C   0  0  2  0  0  3  0  0  0  0  0  0
  160.3220  204.0850  149.8410 C   0  0  2  0  0  3  0  0  0  0  0  0
  161.6390  202.6990  148.1690 C   0  0  0  0  0  2  0  0  0  0  0  0
  1 14  1  0  0  0  0
  2  5  1  6  0  0  0
  2 13  1  0  0  0  0
  2  3  1  0  0  0  0
  3 19  1  0  0  0  0
  4 15  2  0  0  0  0
  6 17  1  0  0  0  0
  6  1  2  0  0  0  0
  7  3  2  0  0  0  0
  7  4  1  0  0  0  0
  8 21  1  0  0  0  0
  8 13  1  0  0  0  0
  9  1  1  0  0  0  0
 11  4  1  0  0  0  0
 12  8  1  0  0  0  0
 13 18  1  1  0  0  0
 14  5  2  0  0  0  0
 15 20  1  0  0  0  0
 16 12  1  0  0  0  0
 16  5  1  0  0  0  0
 17 16  2  0  0  0  0
 18 10  1  0  0  0  0
 19 10  1  0  0  0  0
 19 20  2  0  0  0  0
 23 22  1  1  0  0  0
 23 21  1  0  0  0  0
 24 27  1  1  0  0  0
 24 28  1  0  0  0  0
 28 25  1  0  0  0  0
 29 26  1  1  0  0  0
 29 30  1  0  0  0  0
 30 25  1  0  0  0  0
 30 23  1  1  0  0  0
 31 29  1  0  0  0  0
 31 24  1  0  0  0  0
M  END
>  <MODEL>
4

>  <REMARK>
 VINA RESULT:      -6.5      2.630      7.156
  Name = 
  3 active torsions:
  status: ('A' for Active; 'I' for Inactive)
    1  A    between atoms: C_5  and  C_16
    2  A    between atoms: C_5  and  C_30
    3  A    between atoms: N_10  and  C_16
                            x       y       z     vdW  Elec       q    Type
                         _______ _______ _______ _____ _____    ______ ____

>  <TORSDO>
F 3

$$$$
=
 OpenBabel11122413103D

 31 35  0  0  1  0  0  0  0  0999 V2000
  161.7130  206.5500  151.7100 C   0  0  0  0  0  0  0  0  0  0  0  0
  159.9530  209.5650  153.2350 C   0  0  2  0  0  3  0  0  0  0  0  0
  160.5880  209.7660  154.6060 C   0  0  0  0  0  0  0  0  0  0  0  0
  161.7490  208.8320  156.5360 C   0  0  0  0  0  0  0  0  0  0  0  0
  160.7970  208.7170  152.3120 C   0  0  0  0  0  0  0  0  0  0  0  0
  162.4140  207.1360  150.6540 C   0  0  0  0  0  3  0  0  0  0  0  0
  161.2290  208.6930  155.2480 C   0  0  0  0  0  3  0  0  0  0  0  0
  160.7740  211.5420  151.9850 N   0  0  0  0  0  0  0  0  0  0  0  0
  161.8180  205.2200  151.9370 F   0  0  0  0  0  0  0  0  0  0  0  0
  159.7580  212.1730  154.7080 C   0  0  0  0  0  2  0  0  0  0  0  0
  162.3760  207.7900  157.1290 F   0  0  0  0  0  0  0  0  0  0  0  0
  161.2670  210.7360  150.8660 C   0  0  0  0  0  2  0  0  0  0  0  0
  159.5710  210.8950  152.5490 C   0  0  2  0  0  3  0  0  0  0  0  0
  160.9030  207.3380  152.5320 C   0  0  0  0  0  3  0  0  0  0  0  0
  161.6170  210.0440  157.2130 C   0  0  0  0  0  3  0  0  0  0  0  0
  161.4990  209.3030  151.2420 C   0  0  0  0  0  0  0  0  0  0  0  0
  162.2970  208.5080  150.4140 C   0  0  0  0  0  3  0  0  0  0  0  0
  158.8360  211.7850  153.5580 C   0  0  0  0  0  2  0  0  0  0  0  0
  160.4250  210.9790  155.3190 C   0  0  0  0  0  0  0  0  0  0  0  0
  160.9580  211.1130  156.6050 C   0  0  0  0  0  3  0  0  0  0  0  0
  160.4030  212.8200  151.3850 C   0  0  0  0  0  2  0  0  0  0  0  0
  158.5050  212.9420  149.8100 C   0  0  0  0  0  1  0  0  0  0  0  0
  159.9880  212.6190  149.9330 C   0  0  1  0  0  3  0  0  0  0  0  0
  159.8330  212.8440  146.2420 C   0  0  1  0  0  3  0  0  0  0  0  0
  159.9300  214.4530  148.1750 C   0  0  0  0  0  2  0  0  0  0  0  0
  162.7370  211.8170  148.5460 C   0  0  0  0  0  1  0  0  0  0  0  0
  158.9000  212.0500  145.3530 C   0  0  0  0  0  1  0  0  0  0  0  0
  159.0130  213.6910  147.2130 C   0  0  0  0  0  2  0  0  0  0  0  0
  161.6520  212.6850  147.9370 C   0  0  2  0  0  3  0  0  0  0  0  0
  160.8270  213.4880  148.9660 C   0  0  2  0  0  3  0  0  0  0  0  0
  160.7540  211.8890  146.9940 C   0  0  0  0  0  2  0  0  0  0  0  0
  1  9  1  0  0  0  0
  1 14  1  0  0  0  0
  2  5  1  6  0  0  0
  2  3  1  0  0  0  0
  3  7  2  0  0  0  0
  3 19  1  0  0  0  0
  4 11  1  0  0  0  0
  4 15  2  0  0  0  0
  5 14  2  0  0  0  0
  6  1  2  0  0  0  0
  7  4  1  0  0  0  0
  8 13  1  0  0  0  0
 10 19  1  0  0  0  0
 12 16  1  0  0  0  0
 12  8  1  0  0  0  0
 13  2  1  0  0  0  0
 13 18  1  1  0  0  0
 16  5  1  0  0  0  0
 17  6  1  0  0  0  0
 17 16  2  0  0  0  0
 18 10  1  0  0  0  0
 19 20  2  0  0  0  0
 20 15  1  0  0  0  0
 21  8  1  0  0  0  0
 23 22  1  1  0  0  0
 23 21  1  0  0  0  0
 24 27  1  6  0  0  0
 24 31  1  0  0  0  0
 24 28  1  0  0  0  0
 25 30  1  0  0  0  0
 28 25  1  0  0  0  0
 29 26  1  1  0  0  0
 29 30  1  0  0  0  0
 30 23  1  6  0  0  0
 31 29  1  0  0  0  0
M  END
>  <MODEL>
5

>  <REMARK>
 VINA RESULT:      -6.3      4.010      7.481
  Name = 
  3 active torsions:
  status: ('A' for Active; 'I' for Inactive)
    1  A    between atoms: C_5  and  C_16
    2  A    between atoms: C_5  and  C_30
    3  A    between atoms: N_10  and  C_16
                            x       y       z     vdW  Elec       q    Type
                         _______ _______ _______ _____ _____    ______ ____

>  <TORSDO>
F 3

$$$$
=
 OpenBabel11122413103D

 31 35  0  0  1  0  0  0  0  0999 V2000
  161.2080  201.7080  150.3180 C   0  0  0  0  0  0  0  0  0  0  0  0
  162.1720  204.9040  148.4830 C   0  0  2  0  0  3  0  0  0  0  0  0
  161.5120  204.8110  147.1120 C   0  0  0  0  0  0  0  0  0  0  0  0
  160.6260  203.4400  145.3010 C   0  0  0  0  0  0  0  0  0  0  0  0
  161.5610  203.9660  149.4980 C   0  0  0  0  0  0  0  0  0  0  0  0
  160.3800  202.2000  151.3280 C   0  0  0  0  0  3  0  0  0  0  0  0
  161.1590  203.5560  146.5860 C   0  0  0  0  0  3  0  0  0  0  0  0
  160.8830  206.7270  149.5600 N   0  0  0  0  0  0  0  0  0  0  0  0
  161.4360  200.3770  150.2170 F   0  0  0  0  0  0  0  0  0  0  0  0
  161.7210  207.3270  146.7700 C   0  0  0  0  0  2  0  0  0  0  0  0
  160.2780  202.2230  144.8210 F   0  0  0  0  0  0  0  0  0  0  0  0
  160.6000  205.9340  150.7590 C   0  0  0  0  0  2  0  0  0  0  0  0
  162.2100  206.3460  149.0350 C   0  0  2  0  0  3  0  0  0  0  0  0
  161.8010  202.5880  149.4090 C   0  0  0  0  0  3  0  0  0  0  0  0
  160.4560  204.5770  144.5120 C   0  0  0  0  0  3  0  0  0  0  0  0
  160.7320  204.4590  150.5220 C   0  0  0  0  0  0  0  0  0  0  0  0
  160.1530  203.5750  151.4370 C   0  0  0  0  0  3  0  0  0  0  0  0
  162.7060  207.2900  147.9320 C   0  0  0  0  0  2  0  0  0  0  0  0
  161.3730  205.9530  146.2870 C   0  0  0  0  0  0  0  0  0  0  0  0
  160.8280  205.8280  145.0050 C   0  0  0  0  0  3  0  0  0  0  0  0
  160.9240  208.1080  150.0310 C   0  0  0  0  0  2  0  0  0  0  0  0
  162.5270  209.2770  151.5010 C   0  0  0  0  0  1  0  0  0  0  0  0
  161.4870  208.1660  151.4450 C   0  0  1  0  0  3  0  0  0  0  0  0
  161.6350  210.0080  154.6520 C   0  0  1  0  0  3  0  0  0  0  0  0
  160.0810  209.8880  152.6750 C   0  0  0  0  0  2  0  0  0  0  0  0
  160.8320  206.3130  153.9480 C   0  0  0  0  0  1  0  0  0  0  0  0
  162.8590  210.7030  155.2090 C   0  0  0  0  0  1  0  0  0  0  0  0
  161.2740  210.6190  153.2990 C   0  0  0  0  0  2  0  0  0  0  0  0
  160.7030  207.8240  153.8990 C   0  0  2  0  0  3  0  0  0  0  0  0
  160.3780  208.3900  152.5000 C   0  0  2  0  0  3  0  0  0  0  0  0
  161.9140  208.5140  154.5190 C   0  0  0  0  0  2  0  0  0  0  0  0
  1  6  1  0  0  0  0
  2  3  1  6  0  0  0
  2 13  1  0  0  0  0
  2  5  1  0  0  0  0
  4  7  2  0  0  0  0
  5 16  2  0  0  0  0
  6 17  2  0  0  0  0
  7  3  1  0  0  0  0
  8 21  1  0  0  0  0
  8 12  1  0  0  0  0
  9  1  1  0  0  0  0
 10 18  1  0  0  0  0
 11  4  1  0  0  0  0
 13 18  1  6  0  0  0
 13  8  1  0  0  0  0
 14  5  1  0  0  0  0
 14  1  2  0  0  0  0
 15 20  2  0  0  0  0
 15  4  1  0  0  0  0
 16 12  1  0  0  0  0
 16 17  1  0  0  0  0
 19 10  1  0  0  0  0
 19  3  2  0  0  0  0
 20 19  1  0  0  0  0
 21 23  1  0  0  0  0
 23 22  1  6  0  0  0
 24 27  1  6  0  0  0
 25 28  1  0  0  0  0
 28 24  1  0  0  0  0
 29 26  1  6  0  0  0
 29 31  1  0  0  0  0
 30 23  1  6  0  0  0
 30 25  1  0  0  0  0
 30 29  1  0  0  0  0
 31 24  1  0  0  0  0
M  END
>  <MODEL>
6

>  <REMARK>
 VINA RESULT:      -6.2      1.620      4.399
  Name = 
  3 active torsions:
  status: ('A' for Active; 'I' for Inactive)
    1  A    between atoms: C_5  and  C_16
    2  A    between atoms: C_5  and  C_30
    3  A    between atoms: N_10  and  C_16
                            x       y       z     vdW  Elec       q    Type
                         _______ _______ _______ _____ _____    ______ ____

>  <TORSDO>
F 3

$$$$
=
 OpenBabel11122413103D

 31 35  0  0  1  0  0  0  0  0999 V2000
  161.5860  202.5690  151.5700 C   0  0  0  0  0  0  0  0  0  0  0  0
  162.3270  205.9750  150.0340 C   0  0  2  0  0  3  0  0  0  0  0  0
  161.7220  205.9400  148.6350 C   0  0  0  0  0  0  0  0  0  0  0  0
  161.0170  204.6530  146.6880 C   0  0  0  0  0  0  0  0  0  0  0  0
  161.7680  204.9090  150.9460 C   0  0  0  0  0  0  0  0  0  0  0  0
  160.6860  202.9050  152.5830 C   0  0  0  0  0  3  0  0  0  0  0  0
  161.4960  204.7070  147.9970 C   0  0  0  0  0  3  0  0  0  0  0  0
  160.8500  207.5880  151.2010 N   0  0  0  0  0  0  0  0  0  0  0  0
  161.9330  201.2750  151.3730 F   0  0  0  0  0  0  0  0  0  0  0  0
  161.7220  208.4840  148.5020 C   0  0  0  0  0  2  0  0  0  0  0  0
  160.7920  203.4550  146.0990 F   0  0  0  0  0  0  0  0  0  0  0  0
  160.5990  206.6790  152.3200 C   0  0  0  0  0  2  0  0  0  0  0  0
  162.2220  207.3650  150.6990 C   0  0  2  0  0  3  0  0  0  0  0  0
  162.1290  203.5680  150.7580 C   0  0  0  0  0  3  0  0  0  0  0  0
  160.7740  205.8330  145.9850 C   0  0  0  0  0  3  0  0  0  0  0  0
  160.8660  205.2440  151.9730 C   0  0  0  0  0  0  0  0  0  0  0  0
  160.3370  204.2420  152.7920 C   0  0  0  0  0  3  0  0  0  0  0  0
  162.6690  208.4350  149.6950 C   0  0  0  0  0  2  0  0  0  0  0  0
  161.5100  207.1300  147.8970 C   0  0  0  0  0  0  0  0  0  0  0  0
  161.0200  207.0660  146.5890 C   0  0  0  0  0  3  0  0  0  0  0  0
  160.7550  208.9240  151.7800 C   0  0  0  0  0  2  0  0  0  0  0  0
  162.5060  209.9450  153.1910 C   0  0  0  0  0  1  0  0  0  0  0  0
  161.3650  208.9370  153.1770 C   0  0  1  0  0  3  0  0  0  0  0  0
  161.8700  210.2010  156.6180 C   0  0  1  0  0  3  0  0  0  0  0  0
  160.3880  210.7530  154.6600 C   0  0  0  0  0  2  0  0  0  0  0  0
  160.2110  206.9570  155.3840 C   0  0  0  0  0  1  0  0  0  0  0  0
  163.2110  210.4860  157.2610 C   0  0  0  0  0  1  0  0  0  0  0  0
  161.7060  211.0710  155.3730 C   0  0  0  0  0  2  0  0  0  0  0  0
  160.4540  208.4440  155.5600 C   0  0  2  0  0  3  0  0  0  0  0  0
  160.3160  209.2700  154.2630 C   0  0  2  0  0  3  0  0  0  0  0  0
  161.7800  208.7190  156.2640 C   0  0  0  0  0  2  0  0  0  0  0  0
  1  6  1  0  0  0  0
  2  3  1  6  0  0  0
  2 13  1  0  0  0  0
  2  5  1  0  0  0  0
  4  7  2  0  0  0  0
  5 16  2  0  0  0  0
  6 17  2  0  0  0  0
  7  3  1  0  0  0  0
  8 21  1  0  0  0  0
  8 12  1  0  0  0  0
  9  1  1  0  0  0  0
 10 18  1  0  0  0  0
 11  4  1  0  0  0  0
 13 18  1  6  0  0  0
 13  8  1  0  0  0  0
 14  5  1  0  0  0  0
 14  1  2  0  0  0  0
 15 20  2  0  0  0  0
 15  4  1  0  0  0  0
 16 12  1  0  0  0  0
 16 17  1  0  0  0  0
 19 10  1  0  0  0  0
 19  3  2  0  0  0  0
 20 19  1  0  0  0  0
 21 23  1  0  0  0  0
 23 22  1  6  0  0  0
 24 27  1  6  0  0  0
 25 28  1  0  0  0  0
 28 24  1  0  0  0  0
 29 26  1  6  0  0  0
 29 31  1  0  0  0  0
 30 23  1  6  0  0  0
 30 25  1  0  0  0  0
 30 29  1  0  0  0  0
 31 24  1  0  0  0  0
M  END
>  <MODEL>
7

>  <REMARK>
 VINA RESULT:      -6.1      1.618      4.462
  Name = 
  3 active torsions:
  status: ('A' for Active; 'I' for Inactive)
    1  A    between atoms: C_5  and  C_16
    2  A    between atoms: C_5  and  C_30
    3  A    between atoms: N_10  and  C_16
                            x       y       z     vdW  Elec       q    Type
                         _______ _______ _______ _____ _____    ______ ____

>  <TORSDO>
F 3

$$$$
=
 OpenBabel11122413103D

 31 35  0  0  1  0  0  0  0  0999 V2000
  161.3020  205.4710  153.6170 C   0  0  0  0  0  0  0  0  0  0  0  0
  162.3280  208.2120  151.1790 C   0  0  2  0  0  3  0  0  0  0  0  0
  161.7640  207.7950  149.8250 C   0  0  0  0  0  0  0  0  0  0  0  0
  161.0290  206.0290  148.3150 C   0  0  0  0  0  0  0  0  0  0  0  0
  161.6680  207.5020  152.3370 C   0  0  0  0  0  0  0  0  0  0  0  0
  160.3980  206.1470  154.4390 C   0  0  0  0  0  3  0  0  0  0  0  0
  161.4720  206.4440  149.5720 C   0  0  0  0  0  3  0  0  0  0  0  0
  160.9340  210.1840  151.7400 N   0  0  0  0  0  0  0  0  0  0  0  0
  161.5620  204.1590  153.8310 F   0  0  0  0  0  0  0  0  0  0  0  0
  161.9490  210.1790  148.9440 C   0  0  0  0  0  2  0  0  0  0  0  0
  160.7380  204.7240  148.0970 F   0  0  0  0  0  0  0  0  0  0  0  0
  160.5860  209.6670  153.0650 C   0  0  0  0  0  2  0  0  0  0  0  0
  162.3010  209.7400  151.3960 C   0  0  2  0  0  3  0  0  0  0  0  0
  161.9380  206.1480  152.5740 C   0  0  0  0  0  3  0  0  0  0  0  0
  160.8920  206.9560  147.2830 C   0  0  0  0  0  3  0  0  0  0  0  0
  160.7620  208.1820  153.1730 C   0  0  0  0  0  0  0  0  0  0  0  0
  160.1380  207.5030  154.2240 C   0  0  0  0  0  3  0  0  0  0  0  0
  162.8530  210.4330  150.1440 C   0  0  0  0  0  2  0  0  0  0  0  0
  161.6600  208.7210  148.7590 C   0  0  0  0  0  0  0  0  0  0  0  0
  161.2060  208.2970  147.5060 C   0  0  0  0  0  3  0  0  0  0  0  0
  160.9180  211.6360  151.8920 C   0  0  0  0  0  2  0  0  0  0  0  0
  158.6020  211.8880  152.7110 C   0  0  0  0  0  1  0  0  0  0  0  0
  159.5390  212.1850  151.5480 C   0  0  1  0  0  3  0  0  0  0  0  0
  156.9210  214.3570  150.0900 C   0  0  1  0  0  3  0  0  0  0  0  0
  158.5060  214.4530  152.0430 C   0  0  0  0  0  2  0  0  0  0  0  0
  160.4670  213.5560  148.8310 C   0  0  0  0  0  1  0  0  0  0  0  0
  155.5480  213.8990  149.6450 C   0  0  0  0  0  1  0  0  0  0  0  0
  157.0980  214.0660  151.5790 C   0  0  0  0  0  2  0  0  0  0  0  0
  159.3720  214.0570  149.7540 C   0  0  2  0  0  3  0  0  0  0  0  0
  159.5800  213.7000  151.2410 C   0  0  2  0  0  3  0  0  0  0  0  0
  157.9870  213.6430  149.2630 C   0  0  0  0  0  2  0  0  0  0  0  0
  1  9  1  0  0  0  0
  1  6  1  0  0  0  0
  2  3  1  6  0  0  0
  2 13  1  0  0  0  0
  2  5  1  0  0  0  0
  4  7  2  0  0  0  0
  5 14  1  0  0  0  0
  5 16  2  0  0  0  0
  7  3  1  0  0  0  0
  8 21  1  0  0  0  0
  8 12  1  0  0  0  0
 10 18  1  0  0  0  0
 11  4  1  0  0  0  0
 12 16  1  0  0  0  0
 13 18  1  6  0  0  0
 13  8  1  0  0  0  0
 14  1  2  0  0  0  0
 15 20  2  0  0  0  0
 15  4  1  0  0  0  0
 16 17  1  0  0  0  0
 17  6  2  0  0  0  0
 19 10  1  0  0  0  0
 19  3  2  0  0  0  0
 20 19  1  0  0  0  0
 23 21  1  0  0  0  0
 23 22  1  1  0  0  0
 24 27  1  6  0  0  0
 24 28  1  0  0  0  0
 28 25  1  0  0  0  0
 29 26  1  6  0  0  0
 29 30  1  0  0  0  0
 30 23  1  6  0  0  0
 30 25  1  0  0  0  0
 31 29  1  0  0  0  0
 31 24  1  0  0  0  0
M  END
>  <MODEL>
8

>  <REMARK>
 VINA RESULT:      -5.7      3.151      5.810
  Name = 
  3 active torsions:
  status: ('A' for Active; 'I' for Inactive)
    1  A    between atoms: C_5  and  C_16
    2  A    between atoms: C_5  and  C_30
    3  A    between atoms: N_10  and  C_16
                            x       y       z     vdW  Elec       q    Type
                         _______ _______ _______ _____ _____    ______ ____

>  <TORSDO>
F 3

$$$$
=
 OpenBabel11122413103D

 31 35  0  0  1  0  0  0  0  0999 V2000
  161.4340  203.3710  145.5420 C   0  0  0  0  0  0  0  0  0  0  0  0
  160.4310  205.1780  148.7420 C   0  0  2  0  0  3  0  0  0  0  0  0
  160.7960  204.2350  149.8830 C   0  0  0  0  0  0  0  0  0  0  0  0
  161.1750  201.9650  150.6860 C   0  0  0  0  0  0  0  0  0  0  0  0
  161.1390  204.8440  147.4500 C   0  0  0  0  0  0  0  0  0  0  0  0
  162.4880  204.1660  145.0870 C   0  0  0  0  0  3  0  0  0  0  0  0
  160.9190  202.8560  149.6430 C   0  0  0  0  0  3  0  0  0  0  0  0
  162.0720  207.0130  149.0360 N   0  0  0  0  0  0  0  0  0  0  0  0
  161.0670  202.2690  144.8460 F   0  0  0  0  0  0  0  0  0  0  0  0
  160.7600  206.1510  151.5620 C   0  0  0  0  0  2  0  0  0  0  0  0
  161.3060  200.6420  150.4300 F   0  0  0  0  0  0  0  0  0  0  0  0
  162.5100  206.9590  147.6390 C   0  0  0  0  0  2  0  0  0  0  0  0
  160.6370  206.6660  149.1020 C   0  0  2  0  0  3  0  0  0  0  0  0
  160.7590  203.7120  146.7170 C   0  0  0  0  0  3  0  0  0  0  0  0
  161.2920  202.4380  151.9930 C   0  0  0  0  0  3  0  0  0  0  0  0
  162.1960  205.6470  146.9840 C   0  0  0  0  0  0  0  0  0  0  0  0
  162.8600  205.3090  145.8000 C   0  0  0  0  0  3  0  0  0  0  0  0
  160.0240  206.9360  150.4830 C   0  0  0  0  0  2  0  0  0  0  0  0
  160.8760  204.6980  151.2190 C   0  0  0  0  0  0  0  0  0  0  0  0
  161.1430  203.7990  152.2570 C   0  0  0  0  0  3  0  0  0  0  0  0
  162.2540  208.4070  149.4280 C   0  0  0  0  0  2  0  0  0  0  0  0
  163.0080  207.4240  151.5630 C   0  0  0  0  0  1  0  0  0  0  0  0
  162.1800  208.5420  150.9430 C   0  0  1  0  0  3  0  0  0  0  0  0
  160.3370  211.1730  152.7820 C   0  0  1  0  0  3  0  0  0  0  0  0
  162.5790  210.0400  152.9560 C   0  0  0  0  0  2  0  0  0  0  0  0
  162.0360  211.2820  149.3320 C   0  0  0  0  0  1  0  0  0  0  0  0
  158.8870  211.0930  153.2080 C   0  0  0  0  0  1  0  0  0  0  0  0
  161.1210  210.0300  153.4250 C   0  0  0  0  0  2  0  0  0  0  0  0
  161.8900  211.1220  150.8340 C   0  0  2  0  0  3  0  0  0  0  0  0
  162.6690  209.9280  151.4260 C   0  0  2  0  0  3  0  0  0  0  0  0
  160.4250  211.1050  151.2590 C   0  0  0  0  0  2  0  0  0  0  0  0
  1 14  1  0  0  0  0
  2  5  1  6  0  0  0
  2 13  1  0  0  0  0
  2  3  1  0  0  0  0
  3 19  1  0  0  0  0
  4 15  2  0  0  0  0
  6  1  2  0  0  0  0
  6 17  1  0  0  0  0
  7  3  2  0  0  0  0
  7  4  1  0  0  0  0
  8 13  1  0  0  0  0
  8 21  1  0  0  0  0
  9  1  1  0  0  0  0
 11  4  1  0  0  0  0
 12  8  1  0  0  0  0
 13 18  1  1  0  0  0
 14  5  2  0  0  0  0
 15 20  1  0  0  0  0
 16  5  1  0  0  0  0
 16 12  1  0  0  0  0
 17 16  2  0  0  0  0
 18 10  1  0  0  0  0
 19 10  1  0  0  0  0
 19 20  2  0  0  0  0
 21 23  1  0  0  0  0
 23 22  1  1  0  0  0
 24 27  1  6  0  0  0
 24 28  1  0  0  0  0
 25 28  1  0  0  0  0
 29 26  1  6  0  0  0
 29 31  1  0  0  0  0
 29 30  1  0  0  0  0
 30 23  1  6  0  0  0
 30 25  1  0  0  0  0
 31 24  1  0  0  0  0
M  END
>  <MODEL>
9

>  <REMARK>
 VINA RESULT:      -5.7      1.706      2.697
  Name = 
  3 active torsions:
  status: ('A' for Active; 'I' for Inactive)
    1  A    between atoms: C_5  and  C_16
    2  A    between atoms: C_5  and  C_30
    3  A    between atoms: N_10  and  C_16
                            x       y       z     vdW  Elec       q    Type
                         _______ _______ _______ _____ _____    ______ ____

>  <TORSDO>
F 3

$$$$
