=
 OpenBabel11122414173D

 34 40  0  0  1  0  0  0  0  0999 V2000
  160.8310  207.3690  154.1970 C   0  0  0  0  0  0  0  0  0  0  0  0
  161.2540  205.4260  152.6250 C   0  0  0  0  0  2  0  0  0  0  0  0
  157.8630  212.4170  154.7230 C   0  0  0  0  0  0  0  0  0  0  0  0
  160.0980  209.2970  155.4390 C   0  0  0  0  0  0  0  0  0  0  0  0
  160.2730  211.6360  154.4560 C   0  0  2  0  0  3  0  0  0  0  0  0
  159.7060  213.9330  154.9260 O   0  0  0  0  0  1  0  0  0  0  0  0
  156.9770  212.3720  153.8860 O   0  0  0  0  0  0  0  0  0  0  0  0
  158.7130  212.3100  157.0880 C   0  0  0  0  0  2  0  0  0  0  0  0
  162.1050  207.6190  152.0350 C   0  0  2  0  0  3  0  0  0  0  0  0
  161.9800  208.3260  148.8800 C   0  0  0  0  0  2  0  0  0  0  0  0
  160.3570  210.8950  153.1170 C   0  0  0  0  0  2  0  0  0  0  0  0
  159.8000  211.2430  156.9460 C   0  0  0  0  0  2  0  0  0  0  0  0
  161.3690  208.9610  151.8680 C   0  0  1  0  0  3  0  0  0  0  0  0
  161.9100  205.3080  151.2620 C   0  0  0  0  0  2  0  0  0  0  0  0
  159.9480  210.7260  155.5800 N   0  0  0  0  0  0  0  0  0  0  0  0
  157.5270  212.0920  156.1550 C   0  0  0  0  0  2  0  0  0  0  0  0
  161.3430  207.1450  149.6030 C   0  0  2  0  0  3  0  0  0  0  0  0
  160.7020  208.7600  154.2950 C   0  0  0  0  0  0  0  0  0  0  0  0
  159.2600  212.7760  154.2850 C   0  0  2  0  0  3  0  0  0  0  0  0
  161.2550  209.6710  153.2280 C   0  0  2  0  0  3  0  0  0  0  0  0
  159.7580  207.1090  156.2860 C   0  0  0  0  0  3  0  0  0  0  0  0
  161.5440  209.6540  149.4810 C   0  0  0  0  0  2  0  0  0  0  0  0
  159.6400  208.4570  156.4080 N   0  0  0  0  0  0  0  0  0  0  0  0
  162.1100  209.8490  150.8780 C   0  0  0  0  0  2  0  0  0  0  0  0
  162.2340  206.7280  150.7870 C   0  0  1  0  0  3  0  0  0  0  0  0
  160.3470  206.5720  155.1860 N   0  0  0  0  0  0  0  0  0  0  0  0
  161.4400  206.8010  153.0320 N   0  0  0  0  0  0  0  0  0  0  0  0
  161.2100  206.0920  148.6930 O   0  0  0  0  0  0  0  0  0  0  0  0
  161.9530  206.4870  147.5790 C   0  0  0  0  0  2  0  0  0  0  0  0
  161.0410  203.5650  146.4920 O   0  0  0  0  0  0  0  0  0  0  0  0
  162.3310  205.2570  145.4690 C   0  0  0  0  0  2  0  0  0  0  0  0
  162.6150  205.2770  146.9430 C   0  0  2  0  0  3  0  0  0  0  0  0
  161.5780  203.9640  145.2610 C   0  0  0  0  0  2  0  0  0  0  0  0
  161.9560  204.0170  147.4550 C   0  0  0  0  0  2  0  0  0  0  0  0
  1 18  2  0  0  0  0
  1 26  1  0  0  0  0
  2 27  1  0  0  0  0
  3 16  1  0  0  0  0
  4 15  1  0  0  0  0
  4 23  2  0  0  0  0
  5 11  1  6  0  0  0
  5 15  1  0  0  0  0
  7  3  2  0  0  0  0
  9 27  1  1  0  0  0
 10 22  1  0  0  0  0
 10 17  1  0  0  0  0
 12  8  1  0  0  0  0
 13 24  1  6  0  0  0
 13  9  1  0  0  0  0
 13 20  1  0  0  0  0
 14  2  1  0  0  0  0
 15 12  1  0  0  0  0
 16  8  1  0  0  0  0
 17 28  1  6  0  0  0
 17 25  1  0  0  0  0
 18  4  1  0  0  0  0
 19  5  1  0  0  0  0
 19  3  1  0  0  0  0
 19  6  1  1  0  0  0
 20 11  1  6  0  0  0
 20 18  1  0  0  0  0
 21 23  1  0  0  0  0
 22 24  1  0  0  0  0
 25 14  1  1  0  0  0
 25  9  1  0  0  0  0
 26 21  2  0  0  0  0
 27  1  1  0  0  0  0
 29 28  1  0  0  0  0
 30 34  1  0  0  0  0
 31 32  1  0  0  0  0
 32 34  1  0  0  0  0
 32 29  1  1  0  0  0
 33 31  1  0  0  0  0
 33 30  1  0  0  0  0
M  END
>  <MODEL>
1

>  <REMARK>
 VINA RESULT:      -8.9      0.000      0.000
  Name = 
  3 active torsions:
  status: ('A' for Active; 'I' for Inactive)
    1  A    between atoms: C_17  and  O_28
    2  A    between atoms: O_28  and  C_29
    3  A    between atoms: C_29  and  C_32
                            x       y       z     vdW  Elec       q    Type
                         _______ _______ _______ _____ _____    ______ ____

>  <TORSDO>
F 3

$$$$
=
 OpenBabel11122414173D

 34 40  0  0  1  0  0  0  0  0999 V2000
  161.8140  206.7950  148.4850 C   0  0  0  0  0  0  0  0  0  0  0  0
  161.6390  209.2120  149.2270 C   0  0  0  0  0  2  0  0  0  0  0  0
  159.2760  201.5210  149.0490 C   0  0  0  0  0  0  0  0  0  0  0  0
  161.5820  204.4640  147.9260 C   0  0  0  0  0  0  0  0  0  0  0  0
  161.4340  202.6880  149.7380 C   0  0  2  0  0  3  0  0  0  0  0  0
  161.0940  200.3180  150.0430 O   0  0  0  0  0  1  0  0  0  0  0  0
  158.1540  201.7340  149.4760 O   0  0  0  0  0  0  0  0  0  0  0  0
  160.8940  200.8930  147.2270 C   0  0  0  0  0  2  0  0  0  0  0  0
  162.2600  207.5270  150.8560 C   0  0  2  0  0  3  0  0  0  0  0  0
  161.0550  207.9910  153.8240 C   0  0  0  0  0  2  0  0  0  0  0  0
  161.0380  203.8630  150.6370 C   0  0  0  0  0  2  0  0  0  0  0  0
  161.8510  202.0860  147.2800 C   0  0  0  0  0  2  0  0  0  0  0  0
  161.5290  206.2420  151.2890 C   0  0  1  0  0  3  0  0  0  0  0  0
  161.7790  209.9070  150.5690 C   0  0  0  0  0  2  0  0  0  0  0  0
  161.5080  203.0750  148.3090 N   0  0  0  0  0  0  0  0  0  0  0  0
  159.4550  201.2570  147.5760 C   0  0  0  0  0  2  0  0  0  0  0  0
  160.6940  208.7270  152.5390 C   0  0  2  0  0  3  0  0  0  0  0  0
  161.7440  205.4580  148.8980 C   0  0  0  0  0  0  0  0  0  0  0  0
  160.4390  201.5500  150.0080 C   0  0  2  0  0  3  0  0  0  0  0  0
  161.9030  205.0820  150.3500 C   0  0  2  0  0  3  0  0  0  0  0  0
  161.5310  206.1270  146.2360 C   0  0  0  0  0  3  0  0  0  0  0  0
  160.8710  206.4870  153.6800 C   0  0  0  0  0  2  0  0  0  0  0  0
  161.4790  204.8230  146.6150 N   0  0  0  0  0  0  0  0  0  0  0  0
  161.8900  205.8880  152.7250 C   0  0  0  0  0  2  0  0  0  0  0  0
  161.9360  208.8150  151.6330 C   0  0  1  0  0  3  0  0  0  0  0  0
  161.6940  207.1030  147.1670 N   0  0  0  0  0  0  0  0  0  0  0  0
  161.9720  207.8250  149.4660 N   0  0  0  0  0  0  0  0  0  0  0  0
  160.2400  210.0060  152.8760 O   0  0  0  0  0  0  0  0  0  0  0  0
  160.6520  210.1930  154.1970 C   0  0  0  0  0  2  0  0  0  0  0  0
  157.6520  211.4180  153.9720 O   0  0  0  0  0  0  0  0  0  0  0  0
  158.9120  210.7640  155.8570 C   0  0  0  0  0  2  0  0  0  0  0  0
  159.8570  211.3200  154.8330 C   0  0  2  0  0  3  0  0  0  0  0  0
  157.5460  211.1520  155.3430 C   0  0  0  0  0  2  0  0  0  0  0  0
  158.9440  211.9370  153.7970 C   0  0  0  0  0  2  0  0  0  0  0  0
  1 18  1  0  0  0  0
  1 27  1  0  0  0  0
  2 27  1  0  0  0  0
  2 14  1  0  0  0  0
  3  7  2  0  0  0  0
  3 19  1  0  0  0  0
  4 15  1  0  0  0  0
  4 18  2  0  0  0  0
  5 19  1  0  0  0  0
  5 11  1  1  0  0  0
  8 12  1  0  0  0  0
  8 16  1  0  0  0  0
  9 27  1  6  0  0  0
  9 13  1  0  0  0  0
  9 25  1  0  0  0  0
 12 15  1  0  0  0  0
 13 24  1  1  0  0  0
 15  5  1  0  0  0  0
 16  3  1  0  0  0  0
 17 28  1  1  0  0  0
 17 10  1  0  0  0  0
 18 20  1  0  0  0  0
 19  6  1  6  0  0  0
 20 11  1  1  0  0  0
 20 13  1  0  0  0  0
 21 23  2  0  0  0  0
 21 26  1  0  0  0  0
 22 10  1  0  0  0  0
 23  4  1  0  0  0  0
 24 22  1  0  0  0  0
 25 14  1  6  0  0  0
 25 17  1  0  0  0  0
 26  1  2  0  0  0  0
 28 29  1  0  0  0  0
 30 33  1  0  0  0  0
 32 29  1  6  0  0  0
 32 31  1  0  0  0  0
 33 31  1  0  0  0  0
 34 30  1  0  0  0  0
 34 32  1  0  0  0  0
M  END
>  <MODEL>
2

>  <REMARK>
 VINA RESULT:      -6.8      2.880      9.262
  Name = 
  3 active torsions:
  status: ('A' for Active; 'I' for Inactive)
    1  A    between atoms: C_17  and  O_28
    2  A    between atoms: O_28  and  C_29
    3  A    between atoms: C_29  and  C_32
                            x       y       z     vdW  Elec       q    Type
                         _______ _______ _______ _____ _____    ______ ____

>  <TORSDO>
F 3

$$$$
=
 OpenBabel11122414173D

 34 40  0  0  1  0  0  0  0  0999 V2000
  161.1820  209.3380  151.9150 C   0  0  0  0  0  0  0  0  0  0  0  0
  160.8190  207.0580  152.9610 C   0  0  0  0  0  2  0  0  0  0  0  0
  159.7230  212.6640  147.2920 C   0  0  0  0  0  0  0  0  0  0  0  0
  161.1880  211.4080  150.6850 C   0  0  0  0  0  0  0  0  0  0  0  0
  161.7730  211.4630  148.2120 C   0  0  2  0  0  3  0  0  0  0  0  0
  161.8950  212.9680  146.3290 O   0  0  0  0  0  1  0  0  0  0  0  0
  158.7220  212.1540  146.8160 O   0  0  0  0  0  0  0  0  0  0  0  0
  160.9180  214.4530  148.5960 C   0  0  0  0  0  2  0  0  0  0  0  0
  162.0800  207.2140  150.8950 C   0  0  2  0  0  3  0  0  0  0  0  0
  161.5880  204.7880  148.8100 C   0  0  0  0  0  2  0  0  0  0  0  0
  161.4320  209.9710  148.2590 C   0  0  0  0  0  2  0  0  0  0  0  0
  161.6580  213.5990  149.6270 C   0  0  0  0  0  2  0  0  0  0  0  0
  161.6890  207.8170  149.5330 C   0  0  1  0  0  3  0  0  0  0  0  0
  161.1750  205.6450  152.5370 C   0  0  0  0  0  2  0  0  0  0  0  0
  161.4300  212.1580  149.4760 N   0  0  0  0  0  0  0  0  0  0  0  0
  159.5710  213.8690  148.1830 C   0  0  0  0  0  2  0  0  0  0  0  0
  160.8100  205.1040  150.0820 C   0  0  2  0  0  3  0  0  0  0  0  0
  161.4270  210.0290  150.7220 C   0  0  0  0  0  0  0  0  0  0  0  0
  161.0670  212.0550  146.9840 C   0  0  2  0  0  3  0  0  0  0  0  0
  161.9970  209.3240  149.5170 C   0  0  2  0  0  3  0  0  0  0  0  0
  160.4600  211.3400  152.9410 C   0  0  0  0  0  3  0  0  0  0  0  0
  161.6130  205.9740  147.8580 C   0  0  0  0  0  2  0  0  0  0  0  0
  160.7090  212.0320  151.7980 N   0  0  0  0  0  0  0  0  0  0  0  0
  162.4450  207.1190  148.4100 C   0  0  0  0  0  2  0  0  0  0  0  0
  161.7600  205.7260  151.1230 C   0  0  1  0  0  3  0  0  0  0  0  0
  160.6930  210.0030  152.9950 N   0  0  0  0  0  0  0  0  0  0  0  0
  161.4140  207.9260  151.9690 N   0  0  0  0  0  0  0  0  0  0  0  0
  160.2590  203.9150  150.5690 O   0  0  0  0  0  0  0  0  0  0  0  0
  161.3200  203.0070  150.5760 C   0  0  0  0  0  2  0  0  0  0  0  0
  160.1000  201.6610  147.8830 O   0  0  0  0  0  0  0  0  0  0  0  0
  161.8740  200.9760  149.2820 C   0  0  0  0  0  2  0  0  0  0  0  0
  160.8320  201.6380  150.1360 C   0  0  2  0  0  3  0  0  0  0  0  0
  161.1820  200.7750  147.9540 C   0  0  0  0  0  2  0  0  0  0  0  0
  159.6520  201.8000  149.2060 C   0  0  0  0  0  2  0  0  0  0  0  0
  1 27  1  0  0  0  0
  1 26  1  0  0  0  0
  3 16  1  0  0  0  0
  4 18  1  0  0  0  0
  4 23  2  0  0  0  0
  5 11  1  1  0  0  0
  5 15  1  0  0  0  0
  7  3  2  0  0  0  0
  8 12  1  0  0  0  0
  9 25  1  0  0  0  0
  9 27  1  1  0  0  0
 10 17  1  0  0  0  0
 13 24  1  6  0  0  0
 13  9  1  0  0  0  0
 14  2  1  0  0  0  0
 15 12  1  0  0  0  0
 15  4  1  0  0  0  0
 16  8  1  0  0  0  0
 17 28  1  1  0  0  0
 17 25  1  0  0  0  0
 18  1  2  0  0  0  0
 19  6  1  1  0  0  0
 19  3  1  0  0  0  0
 19  5  1  0  0  0  0
 20 11  1  6  0  0  0
 20 13  1  0  0  0  0
 20 18  1  0  0  0  0
 21 26  2  0  0  0  0
 22 24  1  0  0  0  0
 22 10  1  0  0  0  0
 23 21  1  0  0  0  0
 25 14  1  1  0  0  0
 27  2  1  0  0  0  0
 28 29  1  0  0  0  0
 30 33  1  0  0  0  0
 30 34  1  0  0  0  0
 31 32  1  0  0  0  0
 32 29  1  6  0  0  0
 33 31  1  0  0  0  0
 34 32  1  0  0  0  0
M  END
>  <MODEL>
3

>  <REMARK>
 VINA RESULT:      -6.7      3.229      5.180
  Name = 
  3 active torsions:
  status: ('A' for Active; 'I' for Inactive)
    1  A    between atoms: C_17  and  O_28
    2  A    between atoms: O_28  and  C_29
    3  A    between atoms: C_29  and  C_32
                            x       y       z     vdW  Elec       q    Type
                         _______ _______ _______ _____ _____    ______ ____

>  <TORSDO>
F 3

$$$$
