=
 OpenBabel11122413403D

 37 43  0  0  1  0  0  0  0  0999 V2000
  161.8430  210.3470  154.3800 C   0  0  0  0  0  2  0  0  0  0  0  0
  161.4350  205.7690  152.2370 C   0  0  1  0  0  0  0  0  0  0  0  0
  161.2860  209.7430  150.7680 C   0  0  1  0  0  3  0  0  0  0  0  0
  162.3660  210.3180  155.8220 C   0  0  2  0  0  3  0  0  0  0  0  0
  159.4190  212.4430  152.8430 C   0  0  0  0  0  2  0  0  0  0  0  0
  161.9940  207.3370  150.2990 C   0  0  1  0  0  3  0  0  0  0  0  0
  160.1930  210.3460  151.6270 C   0  0  2  0  0  3  0  0  0  0  0  0
  160.5790  212.0030  156.4530 C   0  0  0  0  0  0  0  0  0  0  0  0
  161.0240  208.3020  150.9880 C   0  0  1  0  0  3  0  0  0  0  0  0
  160.5140  211.8120  151.9910 C   0  0  1  0  0  3  0  0  0  0  0  0
  163.0820  208.0880  149.5140 C   0  0  0  0  0  2  0  0  0  0  0  0
  161.3590  210.7900  156.8810 C   0  0  0  0  0  2  0  0  0  0  0  0
  160.9950  208.1830  152.4220 N   0  0  2  0  0  0  0  0  0  0  0  0
  162.0950  205.1360  153.4440 C   0  0  0  0  0  1  0  0  0  0  0  0
  161.3780  211.4760  148.9070 C   0  0  0  0  0  2  0  0  0  0  0  0
  162.4820  209.2120  148.6250 C   0  0  0  0  0  2  0  0  0  0  0  0
  160.4550  206.8660  152.7270 C   0  0  0  0  0  2  0  0  0  0  0  0
  159.5800  211.9310  155.3260 C   0  0  1  0  0  3  0  0  0  0  0  0
  160.0090  212.8550  154.1800 C   0  0  0  0  0  2  0  0  0  0  0  0
  161.3120  209.9960  149.2710 C   0  0  1  0  0  3  0  0  0  0  0  0
  160.1060  209.2880  152.7960 C   0  0  1  0  0  3  0  0  0  0  0  0
  162.5450  206.3160  151.3030 C   0  0  0  0  0  2  0  0  0  0  0  0
  160.8110  212.7170  150.7700 C   0  0  1  0  0  3  0  0  0  0  0  0
  160.7090  204.7910  151.5580 O   0  0  0  0  0  1  0  0  0  0  0  0
  159.2810  210.4810  154.8940 C   0  0  0  0  0  2  0  0  0  0  0  0
  160.7570  213.0590  157.0380 O   0  0  0  0  0  0  0  0  0  0  0  0
  160.4460  209.7320  154.2270 C   0  0  2  0  0  3  0  0  0  0  0  0
  161.8830  212.2720  149.9550 O   0  0  0  0  0  0  0  0  0  0  0  0
  159.8240  213.8910  148.7780 C   0  0  0  0  0  3  0  0  0  0  0  0
  159.6310  213.3330  150.0460 C   0  0  0  0  0  0  0  0  0  0  0  0
  158.3490  213.3270  150.6130 C   0  0  0  0  0  3  0  0  0  0  0  0
  155.6750  213.8810  150.6350 Cl  0  0  0  0  0  0  0  0  0  0  0  0
  157.4710  214.4490  148.6550 C   0  0  0  0  0  3  0  0  0  0  0  0
  157.2710  213.8870  149.9200 C   0  0  0  0  0  0  0  0  0  0  0  0
  158.7470  214.4510  148.0840 C   0  0  0  0  0  3  0  0  0  0  0  0
  163.8730  211.0660  157.2610 C   0  0  0  0  0  1  0  0  0  0  0  0
  163.5340  211.0790  155.9070 O   0  0  0  0  0  0  0  0  0  0  0  0
  1  4  1  0  0  0  0
  2 17  1  0  0  0  0
  2 14  1  1  0  0  0
  3  9  1  0  0  0  0
  3  7  1  0  0  0  0
  4 37  1  0  0  0  0
  4 12  1  0  0  0  0
  5 19  1  0  0  0  0
  6  9  1  0  0  0  0
  6 22  1  0  0  0  0
  7 10  1  0  0  0  0
  7 21  1  0  0  0  0
  8 12  1  0  0  0  0
  8 26  2  0  0  0  0
  9 13  1  0  0  0  0
 10  5  1  0  0  0  0
 11  6  1  0  0  0  0
 13 17  1  0  0  0  0
 13 21  1  0  0  0  0
 15 20  1  0  0  0  0
 15 28  1  0  0  0  0
 16 20  1  0  0  0  0
 16 11  1  0  0  0  0
 18  8  1  0  0  0  0
 19 18  1  0  0  0  0
 20  3  1  0  0  0  0
 21 27  1  0  0  0  0
 22  2  1  0  0  0  0
 23 10  1  0  0  0  0
 24  2  1  0  0  0  0
 25 18  1  0  0  0  0
 27  1  1  0  0  0  0
 27 25  1  0  0  0  0
 28 23  1  0  0  0  0
 29 30  1  0  0  0  0
 30 31  2  0  0  0  0
 30 23  1  0  0  0  0
 33 34  2  0  0  0  0
 34 31  1  0  0  0  0
 34 32  1  0  0  0  0
 35 33  1  0  0  0  0
 35 29  2  0  0  0  0
 37 36  1  0  0  0  0
M  END
>  <MODEL>
1

>  <REMARK>
 VINA RESULT:      -0.0      0.000      0.000
  Name = 
  2 active torsions:
  status: ('A' for Active; 'I' for Inactive)
    1  A    between atoms: C_4  and  O_37
    2  A    between atoms: C_23  and  C_30
                            x       y       z     vdW  Elec       q    Type
                         _______ _______ _______ _____ _____    ______ ____

>  <TORSDO>
F 2

$$$$
=
 OpenBabel11122413403D

 37 43  0  0  1  0  0  0  0  0999 V2000
  158.0170  212.6460  150.9120 C   0  0  0  0  0  2  0  0  0  0  0  0
  162.0160  213.5930  147.9410 C   0  0  1  0  0  0  0  0  0  0  0  0
  161.1230  210.6300  150.8380 C   0  0  1  0  0  3  0  0  0  0  0  0
  156.7580  213.4400  150.5380 C   0  0  2  0  0  3  0  0  0  0  0  0
  159.2790  211.6780  154.0910 C   0  0  0  0  0  2  0  0  0  0  0  0
  162.2940  211.1490  148.6320 C   0  0  1  0  0  3  0  0  0  0  0  0
  160.7820  211.4770  152.0480 C   0  0  2  0  0  3  0  0  0  0  0  0
  156.3880  213.9210  153.0000 C   0  0  0  0  0  0  0  0  0  0  0  0
  161.8270  211.6340  150.0070 C   0  0  1  0  0  3  0  0  0  0  0  0
  159.6290  210.8500  152.8600 C   0  0  1  0  0  3  0  0  0  0  0  0
  161.9080  209.6830  148.3840 C   0  0  0  0  0  2  0  0  0  0  0  0
  156.2990  214.4530  151.5960 C   0  0  0  0  0  2  0  0  0  0  0  0
  160.9020  212.7350  149.9600 N   0  0  2  0  0  0  0  0  0  0  0  0
  161.1540  214.4530  147.0410 C   0  0  0  0  0  1  0  0  0  0  0  0
  161.5040  208.3860  151.9770 C   0  0  0  0  0  2  0  0  0  0  0  0
  162.2710  208.7760  149.5930 C   0  0  0  0  0  2  0  0  0  0  0  0
  161.6260  213.8750  149.4150 C   0  0  0  0  0  2  0  0  0  0  0  0
  157.7220  213.6350  153.6430 C   0  0  1  0  0  3  0  0  0  0  0  0
  157.8380  212.1440  153.9800 C   0  0  0  0  0  2  0  0  0  0  0  0
  162.0270  209.4180  150.9810 C   0  0  1  0  0  3  0  0  0  0  0  0
  160.5420  212.8850  151.3740 C   0  0  1  0  0  3  0  0  0  0  0  0
  161.8240  212.1100  147.5320 C   0  0  0  0  0  2  0  0  0  0  0  0
  159.8740  209.3780  153.2770 C   0  0  1  0  0  3  0  0  0  0  0  0
  163.3520  213.9480  147.7560 O   0  0  0  0  0  1  0  0  0  0  0  0
  158.9040  214.1950  152.8250 C   0  0  0  0  0  2  0  0  0  0  0  0
  155.3600  213.7260  153.6280 O   0  0  0  0  0  0  0  0  0  0  0  0
  159.1480  213.5240  151.4640 C   0  0  2  0  0  3  0  0  0  0  0  0
  160.1160  208.4940  152.1940 O   0  0  0  0  0  0  0  0  0  0  0  0
  160.4640  207.9440  155.2550 C   0  0  0  0  0  3  0  0  0  0  0  0
  160.6740  209.1260  154.5370 C   0  0  0  0  0  0  0  0  0  0  0  0
  161.6380  210.0440  154.9800 C   0  0  0  0  0  3  0  0  0  0  0  0
  163.5740  210.9350  156.6880 Cl  0  0  0  0  0  0  0  0  0  0  0  0
  162.1590  208.6030  156.8550 C   0  0  0  0  0  3  0  0  0  0  0  0
  162.3760  209.7840  156.1390 C   0  0  0  0  0  0  0  0  0  0  0  0
  161.2030  207.6830  156.4130 C   0  0  0  0  0  3  0  0  0  0  0  0
  154.6220  213.3650  149.9610 C   0  0  0  0  0  1  0  0  0  0  0  0
  155.7190  212.5520  150.2500 O   0  0  0  0  0  0  0  0  0  0  0  0
  1 27  1  0  0  0  0
  2 14  1  6  0  0  0
  2 17  1  0  0  0  0
  3 20  1  0  0  0  0
  3  7  1  0  0  0  0
  4  1  1  0  0  0  0
  4 12  1  0  0  0  0
  6  9  1  0  0  0  0
  7 10  1  0  0  0  0
  8 26  2  0  0  0  0
  8 18  1  0  0  0  0
  9  3  1  0  0  0  0
 10 23  1  0  0  0  0
 10  5  1  0  0  0  0
 11  6  1  0  0  0  0
 11 16  1  0  0  0  0
 12  8  1  0  0  0  0
 13  9  1  0  0  0  0
 13 21  1  0  0  0  0
 15 28  1  0  0  0  0
 16 20  1  0  0  0  0
 17 13  1  0  0  0  0
 18 19  1  0  0  0  0
 19  5  1  0  0  0  0
 20 15  1  0  0  0  0
 21 27  1  0  0  0  0
 21  7  1  0  0  0  0
 22  2  1  0  0  0  0
 22  6  1  0  0  0  0
 23 30  1  0  0  0  0
 24  2  1  0  0  0  0
 25 18  1  0  0  0  0
 27 25  1  0  0  0  0
 28 23  1  0  0  0  0
 29 35  1  0  0  0  0
 30 31  1  0  0  0  0
 30 29  2  0  0  0  0
 31 34  2  0  0  0  0
 34 32  1  0  0  0  0
 34 33  1  0  0  0  0
 35 33  2  0  0  0  0
 36 37  1  0  0  0  0
 37  4  1  0  0  0  0
M  END
>  <MODEL>
2

>  <REMARK>
 VINA RESULT:       0.3      2.947      6.783
  Name = 
  2 active torsions:
  status: ('A' for Active; 'I' for Inactive)
    1  A    between atoms: C_4  and  O_37
    2  A    between atoms: C_23  and  C_30
                            x       y       z     vdW  Elec       q    Type
                         _______ _______ _______ _____ _____    ______ ____

>  <TORSDO>
F 2

$$$$
=
 OpenBabel11122413403D

 37 43  0  0  1  0  0  0  0  0999 V2000
  161.8250  210.3200  154.3850 C   0  0  0  0  0  2  0  0  0  0  0  0
  161.4680  205.7490  152.2180 C   0  0  1  0  0  0  0  0  0  0  0  0
  161.2560  209.7290  150.7730 C   0  0  1  0  0  3  0  0  0  0  0  0
  162.3570  210.2900  155.8250 C   0  0  2  0  0  3  0  0  0  0  0  0
  159.3640  212.3910  152.8740 C   0  0  0  0  0  2  0  0  0  0  0  0
  161.9940  207.3360  150.2870 C   0  0  1  0  0  3  0  0  0  0  0  0
  160.1590  210.3120  151.6420 C   0  0  2  0  0  3  0  0  0  0  0  0
  160.5500  211.9470  156.4750 C   0  0  0  0  0  0  0  0  0  0  0  0
  161.0150  208.2830  150.9870 C   0  0  1  0  0  3  0  0  0  0  0  0
  160.4620  211.7800  152.0130 C   0  0  1  0  0  3  0  0  0  0  0  0
  163.0670  208.1060  149.5000 C   0  0  0  0  0  2  0  0  0  0  0  0
  161.3490  210.7420  156.8910 C   0  0  0  0  0  2  0  0  0  0  0  0
  160.9960  208.1550  152.4200 N   0  0  2  0  0  0  0  0  0  0  0  0
  162.1430  205.1180  153.4180 C   0  0  0  0  0  1  0  0  0  0  0  0
  161.3130  211.4740  148.9220 C   0  0  0  0  0  2  0  0  0  0  0  0
  162.4460  209.2270  148.6210 C   0  0  0  0  0  2  0  0  0  0  0  0
  160.4750  206.8290  152.7210 C   0  0  0  0  0  2  0  0  0  0  0  0
  159.5460  211.8680  155.3530 C   0  0  1  0  0  3  0  0  0  0  0  0
  159.9550  212.8030  154.2100 C   0  0  0  0  0  2  0  0  0  0  0  0
  161.2700  209.9900  149.2780 C   0  0  1  0  0  3  0  0  0  0  0  0
  160.0940  209.2460  152.8050 C   0  0  1  0  0  3  0  0  0  0  0  0
  162.5650  206.3170  151.2810 C   0  0  0  0  0  2  0  0  0  0  0  0
  160.7390  212.6960  150.7950 C   0  0  1  0  0  3  0  0  0  0  0  0
  160.7510  204.7650  151.5380 O   0  0  0  0  0  1  0  0  0  0  0  0
  159.2650  210.4160  154.9150 C   0  0  0  0  0  2  0  0  0  0  0  0
  160.7170  213.0020  157.0650 O   0  0  0  0  0  0  0  0  0  0  0  0
  160.4350  209.6860  154.2370 C   0  0  2  0  0  3  0  0  0  0  0  0
  161.8130  212.2710  149.9720 O   0  0  0  0  0  0  0  0  0  0  0  0
  158.4020  213.6230  150.8160 C   0  0  0  0  0  3  0  0  0  0  0  0
  159.5470  213.2990  150.0810 C   0  0  0  0  0  0  0  0  0  0  0  0
  159.5830  213.5620  148.7040 C   0  0  0  0  0  3  0  0  0  0  0  0
  158.5280  214.4530  146.3480 Cl  0  0  0  0  0  0  0  0  0  0  0  0
  157.3330  214.4490  148.8060 C   0  0  0  0  0  3  0  0  0  0  0  0
  158.4770  214.1330  148.0680 C   0  0  0  0  0  0  0  0  0  0  0  0
  157.2960  214.1950  150.1800 C   0  0  0  0  0  3  0  0  0  0  0  0
  163.8550  211.0610  157.2610 C   0  0  0  0  0  1  0  0  0  0  0  0
  163.5140  211.0670  155.9070 O   0  0  0  0  0  0  0  0  0  0  0  0
  1  4  1  0  0  0  0
  2 17  1  0  0  0  0
  2 14  1  1  0  0  0
  3  9  1  0  0  0  0
  3  7  1  0  0  0  0
  4 37  1  0  0  0  0
  4 12  1  0  0  0  0
  5 19  1  0  0  0  0
  6  9  1  0  0  0  0
  6 22  1  0  0  0  0
  7 10  1  0  0  0  0
  7 21  1  0  0  0  0
  8 12  1  0  0  0  0
  8 26  2  0  0  0  0
  9 13  1  0  0  0  0
 10  5  1  0  0  0  0
 11  6  1  0  0  0  0
 13 17  1  0  0  0  0
 13 21  1  0  0  0  0
 15 20  1  0  0  0  0
 15 28  1  0  0  0  0
 16 20  1  0  0  0  0
 16 11  1  0  0  0  0
 18  8  1  0  0  0  0
 19 18  1  0  0  0  0
 20  3  1  0  0  0  0
 21 27  1  0  0  0  0
 22  2  1  0  0  0  0
 23 10  1  0  0  0  0
 24  2  1  0  0  0  0
 25 18  1  0  0  0  0
 27  1  1  0  0  0  0
 27 25  1  0  0  0  0
 28 23  1  0  0  0  0
 30 23  1  0  0  0  0
 30 29  2  0  0  0  0
 31 30  1  0  0  0  0
 32 34  1  0  0  0  0
 33 35  2  0  0  0  0
 34 31  2  0  0  0  0
 34 33  1  0  0  0  0
 35 29  1  0  0  0  0
 37 36  1  0  0  0  0
M  END
>  <MODEL>
3

>  <REMARK>
 VINA RESULT:       0.3      0.864      1.162
  Name = 
  2 active torsions:
  status: ('A' for Active; 'I' for Inactive)
    1  A    between atoms: C_4  and  O_37
    2  A    between atoms: C_23  and  C_30
                            x       y       z     vdW  Elec       q    Type
                         _______ _______ _______ _____ _____    ______ ____

>  <TORSDO>
F 2

$$$$
