=
 OpenBabel11122412573D

 32 37  0  0  1  0  0  0  0  0999 V2000
  160.4270  201.2360  149.9550 C   0  0  0  0  0  2  0  0  0  0  0  0
  161.2060  206.4080  151.9530 C   0  0  0  0  0  0  0  0  0  0  0  0
  162.3990  209.6610  148.4420 C   0  0  0  0  0  2  0  0  0  0  0  0
  161.7060  210.7350  149.2570 C   0  0  0  0  0  2  0  0  0  0  0  0
  160.8330  207.0950  154.3610 C   0  0  0  0  0  0  0  0  0  0  0  0
  160.7610  208.1240  155.2100 C   0  0  0  0  0  0  0  0  0  0  0  0
  161.1470  204.0250  151.3610 C   0  0  0  0  0  0  0  0  0  0  0  0
  161.4970  205.6900  149.6390 C   0  0  0  0  0  3  0  0  0  0  0  0
  160.7810  210.3840  155.8680 C   0  0  1  0  0  3  0  0  0  0  0  0
  161.3820  203.3310  148.9140 C   0  0  0  0  0  2  0  0  0  0  0  0
  161.7180  208.3250  148.6910 C   0  0  0  0  0  2  0  0  0  0  0  0
  161.4390  206.7310  150.5820 C   0  0  0  0  0  0  0  0  0  0  0  0
  161.5950  208.0120  150.1660 C   0  0  0  0  0  0  0  0  0  0  0  0
  161.2710  208.8000  152.4930 C   0  0  0  0  0  0  0  0  0  0  0  0
  160.4500  209.5190  157.0940 C   0  0  0  0  0  3  0  0  0  0  0  0
  161.3940  201.5500  151.0950 C   0  0  0  0  0  2  0  0  0  0  0  0
  161.3510  204.3540  150.0050 C   0  0  0  0  0  0  0  0  0  0  0  0
  160.4730  208.0460  156.6570 C   0  0  0  0  0  3  0  0  0  0  0  0
  160.9970  202.7080  151.8240 O   0  0  0  0  0  0  0  0  0  0  0  0
  160.1650  202.4180  149.0230 C   0  0  1  0  0  3  0  0  0  0  0  0
  161.9460  210.4580  150.7330 C   0  0  0  0  0  2  0  0  0  0  0  0
  161.5280  209.1010  151.1130 N   0  0  0  0  0  0  0  0  0  0  0  0
  161.1830  209.7800  153.4050 C   0  0  0  0  0  3  0  0  0  0  0  0
  161.0660  205.0530  152.3000 C   0  0  0  0  0  3  0  0  0  0  0  0
  160.6420  205.8040  154.8470 O   0  0  0  0  0  1  0  0  0  0  0  0
  162.0820  211.1270  156.1160 C   0  0  0  0  0  1  0  0  0  0  0  0
  161.1080  207.3740  152.9060 C   0  0  0  0  0  0  0  0  0  0  0  0
  160.9440  209.4500  154.7740 N   0  0  0  0  0  0  0  0  0  0  0  0
  159.7630  201.8940  147.6530 C   0  0  0  0  0  2  0  0  0  0  0  0
  160.9770  201.7300  146.7500 C   0  0  0  0  0  3  0  0  0  0  0  0
  161.3610  200.2660  146.6380 C   0  0  0  0  0  1  0  0  0  0  0  0
  160.6480  202.2610  145.3710 C   0  0  0  0  0  1  0  0  0  0  0  0
  1 16  1  0  0  0  0
  2 24  1  0  0  0  0
  2 27  2  0  0  0  0
  3 11  1  0  0  0  0
  3  4  1  0  0  0  0
  4 21  1  0  0  0  0
  5 25  1  0  0  0  0
  5  6  2  0  0  0  0
  6 18  1  0  0  0  0
  7 19  1  0  0  0  0
  7 24  2  0  0  0  0
  8 17  2  0  0  0  0
  8 12  1  0  0  0  0
  9 26  1  1  0  0  0
  9 15  1  0  0  0  0
 10 20  1  0  0  0  0
 10 17  1  0  0  0  0
 11 13  1  0  0  0  0
 12  2  1  0  0  0  0
 13 12  2  0  0  0  0
 13 22  1  0  0  0  0
 14 27  1  0  0  0  0
 14 23  2  0  0  0  0
 16 19  1  0  0  0  0
 17  7  1  0  0  0  0
 18 15  2  0  0  0  0
 20 29  1  6  0  0  0
 20  1  1  0  0  0  0
 21 22  1  0  0  0  0
 22 14  1  0  0  0  0
 23 28  1  0  0  0  0
 27  5  1  0  0  0  0
 28  6  1  0  0  0  0
 28  9  1  0  0  0  0
 30 29  1  0  0  0  0
 31 30  1  0  0  0  0
 32 30  1  0  0  0  0
M  END
>  <MODEL>
1

>  <REMARK>
 VINA RESULT:      -9.4      0.000      0.000
  Name = 
  2 active torsions:
  status: ('A' for Active; 'I' for Inactive)
    1  A    between atoms: C_20  and  C_29
    2  A    between atoms: C_29  and  C_30
                            x       y       z     vdW  Elec       q    Type
                         _______ _______ _______ _____ _____    ______ ____

>  <TORSDO>
F 2

$$$$
=
 OpenBabel11122412573D

 32 37  0  0  1  0  0  0  0  0999 V2000
  160.9870  207.5530  156.9230 C   0  0  0  0  0  2  0  0  0  0  0  0
  161.2220  207.4870  151.3280 C   0  0  0  0  0  0  0  0  0  0  0  0
  161.8590  211.9750  149.3820 C   0  0  0  0  0  2  0  0  0  0  0  0
  162.6070  211.3280  148.2340 C   0  0  0  0  0  2  0  0  0  0  0  0
  161.1840  205.3920  149.9070 C   0  0  0  0  0  0  0  0  0  0  0  0
  161.3340  204.8990  148.6750 C   0  0  0  0  0  0  0  0  0  0  0  0
  160.7570  207.3160  153.7340 C   0  0  0  0  0  0  0  0  0  0  0  0
  161.3060  209.4630  152.7580 C   0  0  0  0  0  3  0  0  0  0  0  0
  161.7860  204.9630  146.3660 C   0  0  1  0  0  3  0  0  0  0  0  0
  160.9310  209.4010  155.2000 C   0  0  0  0  0  2  0  0  0  0  0  0
  162.0610  211.1480  150.6430 C   0  0  0  0  0  2  0  0  0  0  0  0
  161.4240  208.8930  151.4790 C   0  0  0  0  0  0  0  0  0  0  0  0
  161.7350  209.6870  150.4250 C   0  0  0  0  0  0  0  0  0  0  0  0
  161.6980  207.7100  148.9320 C   0  0  0  0  0  0  0  0  0  0  0  0
  161.5600  203.5000  146.7820 C   0  0  0  0  0  3  0  0  0  0  0  0
  159.9020  206.9220  156.0520 C   0  0  0  0  0  2  0  0  0  0  0  0
  160.9830  208.7010  153.8790 C   0  0  0  0  0  0  0  0  0  0  0  0
  161.2330  203.4780  148.2830 C   0  0  0  0  0  3  0  0  0  0  0  0
  160.4190  206.4710  154.8020 O   0  0  0  0  0  0  0  0  0  0  0  0
  161.7830  208.6520  156.2190 C   0  0  1  0  0  3  0  0  0  0  0  0
  161.9520  209.9920  147.9180 C   0  0  0  0  0  2  0  0  0  0  0  0
  161.8730  209.1250  149.1010 N   0  0  0  0  0  0  0  0  0  0  0  0
  161.8340  207.1400  147.7250 C   0  0  0  0  0  3  0  0  0  0  0  0
  160.8930  206.7390  152.4720 C   0  0  0  0  0  3  0  0  0  0  0  0
  160.8860  204.5200  150.9530 O   0  0  0  0  0  1  0  0  0  0  0  0
  160.7230  205.3670  145.3600 C   0  0  0  0  0  1  0  0  0  0  0  0
  161.3540  206.8740  150.1210 C   0  0  0  0  0  0  0  0  0  0  0  0
  161.6370  205.7330  147.5820 N   0  0  0  0  0  0  0  0  0  0  0  0
  162.3390  209.6100  157.2610 C   0  0  0  0  0  2  0  0  0  0  0  0
  162.5580  210.9960  156.6710 C   0  0  0  0  0  3  0  0  0  0  0  0
  161.5680  211.9850  157.2550 C   0  0  0  0  0  1  0  0  0  0  0  0
  163.9640  211.4570  156.9920 C   0  0  0  0  0  1  0  0  0  0  0  0
  2 12  1  0  0  0  0
  2 24  1  0  0  0  0
  3 11  1  0  0  0  0
  4  3  1  0  0  0  0
  5 27  1  0  0  0  0
  5 25  1  0  0  0  0
  6  5  2  0  0  0  0
  7 17  1  0  0  0  0
  7 19  1  0  0  0  0
  8 17  2  0  0  0  0
  9 26  1  6  0  0  0
  9 15  1  0  0  0  0
  9 28  1  0  0  0  0
 10 20  1  0  0  0  0
 12  8  1  0  0  0  0
 13 11  1  0  0  0  0
 13 12  2  0  0  0  0
 14 22  1  0  0  0  0
 14 27  1  0  0  0  0
 15 18  2  0  0  0  0
 16  1  1  0  0  0  0
 17 10  1  0  0  0  0
 18  6  1  0  0  0  0
 19 16  1  0  0  0  0
 20  1  1  0  0  0  0
 20 29  1  1  0  0  0
 21  4  1  0  0  0  0
 21 22  1  0  0  0  0
 22 13  1  0  0  0  0
 23 14  2  0  0  0  0
 24  7  2  0  0  0  0
 27  2  2  0  0  0  0
 28 23  1  0  0  0  0
 28  6  1  0  0  0  0
 30 32  1  0  0  0  0
 30 31  1  0  0  0  0
 30 29  1  0  0  0  0
M  END
>  <MODEL>
2

>  <REMARK>
 VINA RESULT:      -8.9      1.869      7.929
  Name = 
  2 active torsions:
  status: ('A' for Active; 'I' for Inactive)
    1  A    between atoms: C_20  and  C_29
    2  A    between atoms: C_29  and  C_30
                            x       y       z     vdW  Elec       q    Type
                         _______ _______ _______ _____ _____    ______ ____

>  <TORSDO>
F 2

$$$$
=
 OpenBabel11122412573D

 32 37  0  0  1  0  0  0  0  0999 V2000
  160.9530  207.6760  157.2610 C   0  0  0  0  0  2  0  0  0  0  0  0
  161.0690  206.0630  151.9000 C   0  0  0  0  0  0  0  0  0  0  0  0
  161.9570  209.7910  148.7940 C   0  0  0  0  0  2  0  0  0  0  0  0
  162.6380  208.8050  147.8660 C   0  0  0  0  0  2  0  0  0  0  0  0
  160.8640  203.6660  151.1100 C   0  0  0  0  0  0  0  0  0  0  0  0
  160.9560  202.8460  150.0600 C   0  0  0  0  0  0  0  0  0  0  0  0
  160.6420  206.5910  154.2610 C   0  0  0  0  0  0  0  0  0  0  0  0
  161.3110  208.3450  152.7310 C   0  0  0  0  0  3  0  0  0  0  0  0
  161.3640  202.2430  147.8220 C   0  0  1  0  0  3  0  0  0  0  0  0
  160.9820  208.9810  155.0960 C   0  0  0  0  0  2  0  0  0  0  0  0
  162.1310  209.3300  150.2330 C   0  0  0  0  0  2  0  0  0  0  0  0
  161.3650  207.4390  151.6580 C   0  0  0  0  0  0  0  0  0  0  0  0
  161.7050  207.8910  150.4260 C   0  0  0  0  0  0  0  0  0  0  0  0
  161.5080  205.5870  149.5340 C   0  0  0  0  0  0  0  0  0  0  0  0
  161.0520  200.9690  148.6240 C   0  0  0  0  0  3  0  0  0  0  0  0
  159.8110  206.9070  156.5990 C   0  0  0  0  0  2  0  0  0  0  0  0
  160.9610  207.9430  154.0190 C   0  0  0  0  0  0  0  0  0  0  0  0
  160.7550  201.3820  150.0740 C   0  0  0  0  0  3  0  0  0  0  0  0
  160.2710  206.0960  155.5210 O   0  0  0  0  0  0  0  0  0  0  0  0
  161.8040  208.4830  156.2810 C   0  0  1  0  0  3  0  0  0  0  0  0
  161.8910  207.4810  147.9310 C   0  0  0  0  0  2  0  0  0  0  0  0
  161.7790  206.9790  149.3070 N   0  0  0  0  0  0  0  0  0  0  0  0
  161.5830  204.7010  148.5290 C   0  0  0  0  0  3  0  0  0  0  0  0
  160.7140  205.6820  153.2050 C   0  0  0  0  0  3  0  0  0  0  0  0
  160.5310  203.1370  152.3550 O   0  0  0  0  0  1  0  0  0  0  0  0
  160.3100  202.4280  146.7450 C   0  0  0  0  0  1  0  0  0  0  0  0
  161.1350  205.1350  150.9080 C   0  0  0  0  0  0  0  0  0  0  0  0
  161.2910  203.3250  148.7790 N   0  0  0  0  0  0  0  0  0  0  0  0
  162.4430  209.6490  157.0180 C   0  0  0  0  0  2  0  0  0  0  0  0
  162.4920  210.8920  156.1420 C   0  0  0  0  0  3  0  0  0  0  0  0
  161.5990  211.9790  156.7100 C   0  0  0  0  0  1  0  0  0  0  0  0
  163.9150  211.4040  156.0820 C   0  0  0  0  0  1  0  0  0  0  0  0
  2 24  1  0  0  0  0
  3 11  1  0  0  0  0
  4 21  1  0  0  0  0
  4  3  1  0  0  0  0
  5 25  1  0  0  0  0
  6 18  1  0  0  0  0
  6  5  2  0  0  0  0
  7 19  1  0  0  0  0
  8 17  2  0  0  0  0
  9 26  1  6  0  0  0
  9 15  1  0  0  0  0
  9 28  1  0  0  0  0
 10 20  1  0  0  0  0
 11 13  1  0  0  0  0
 12  2  1  0  0  0  0
 12  8  1  0  0  0  0
 13 12  2  0  0  0  0
 14 27  1  0  0  0  0
 15 18  2  0  0  0  0
 16  1  1  0  0  0  0
 17  7  1  0  0  0  0
 17 10  1  0  0  0  0
 19 16  1  0  0  0  0
 20 29  1  1  0  0  0
 20  1  1  0  0  0  0
 21 22  1  0  0  0  0
 22 14  1  0  0  0  0
 22 13  1  0  0  0  0
 23 28  1  0  0  0  0
 23 14  2  0  0  0  0
 24  7  2  0  0  0  0
 27  5  1  0  0  0  0
 27  2  2  0  0  0  0
 28  6  1  0  0  0  0
 30 31  1  0  0  0  0
 30 29  1  0  0  0  0
 32 30  1  0  0  0  0
M  END
>  <MODEL>
3

>  <REMARK>
 VINA RESULT:      -8.2      1.592      7.893
  Name = 
  2 active torsions:
  status: ('A' for Active; 'I' for Inactive)
    1  A    between atoms: C_20  and  C_29
    2  A    between atoms: C_29  and  C_30
                            x       y       z     vdW  Elec       q    Type
                         _______ _______ _______ _____ _____    ______ ____

>  <TORSDO>
F 2

$$$$
=
 OpenBabel11122412573D

 32 37  0  0  1  0  0  0  0  0999 V2000
  161.3810  213.0880  147.9390 C   0  0  0  0  0  2  0  0  0  0  0  0
  161.3650  208.0750  150.4340 C   0  0  0  0  0  0  0  0  0  0  0  0
  161.1100  208.3810  155.3510 C   0  0  0  0  0  2  0  0  0  0  0  0
  160.3670  207.0610  155.3560 C   0  0  0  0  0  2  0  0  0  0  0  0
  161.3190  205.8570  149.2150 C   0  0  0  0  0  0  0  0  0  0  0  0
  161.1860  204.5340  149.3470 C   0  0  0  0  0  0  0  0  0  0  0  0
  161.7220  210.1420  149.1550 C   0  0  0  0  0  0  0  0  0  0  0  0
  161.3580  210.2470  151.5470 C   0  0  0  0  0  3  0  0  0  0  0  0
  160.8310  202.5050  150.4860 C   0  0  1  0  0  3  0  0  0  0  0  0
  161.6300  212.3950  150.3570 C   0  0  0  0  0  2  0  0  0  0  0  0
  160.8030  209.1260  154.0620 C   0  0  0  0  0  2  0  0  0  0  0  0
  161.2530  208.8470  151.6300 C   0  0  0  0  0  0  0  0  0  0  0  0
  161.0380  208.2700  152.8370 C   0  0  0  0  0  0  0  0  0  0  0  0
  161.0020  206.0400  151.7550 C   0  0  0  0  0  0  0  0  0  0  0  0
  160.9420  202.2110  148.9810 C   0  0  0  0  0  3  0  0  0  0  0  0
  162.4560  212.0310  147.6890 C   0  0  0  0  0  2  0  0  0  0  0  0
  161.5840  210.9000  150.3370 C   0  0  0  0  0  0  0  0  0  0  0  0
  161.2060  203.5390  148.2550 C   0  0  0  0  0  3  0  0  0  0  0  0
  161.9600  210.7100  147.8950 O   0  0  0  0  0  0  0  0  0  0  0  0
  160.6900  212.9570  149.2960 C   0  0  1  0  0  3  0  0  0  0  0  0
  160.9420  206.1740  154.2610 C   0  0  0  0  0  2  0  0  0  0  0  0
  160.9160  206.8340  152.9490 N   0  0  0  0  0  0  0  0  0  0  0  0
  160.8750  204.7050  151.8070 C   0  0  0  0  0  3  0  0  0  0  0  0
  161.5980  208.7550  149.2260 C   0  0  0  0  0  3  0  0  0  0  0  0
  161.5160  206.3920  147.9440 O   0  0  0  0  0  1  0  0  0  0  0  0
  161.9580  201.7990  151.2180 C   0  0  0  0  0  1  0  0  0  0  0  0
  161.2410  206.7200  150.4470 C   0  0  0  0  0  0  0  0  0  0  0  0
  160.9830  203.9390  150.6070 N   0  0  0  0  0  0  0  0  0  0  0  0
  160.1590  214.3180  149.7180 C   0  0  0  0  0  2  0  0  0  0  0  0
  158.6580  214.2680  149.9670 C   0  0  0  0  0  3  0  0  0  0  0  0
  157.9380  213.6950  148.7610 C   0  0  0  0  0  1  0  0  0  0  0  0
  158.3820  213.3900  151.1690 C   0  0  0  0  0  1  0  0  0  0  0  0
  1 20  1  0  0  0  0
  2 27  2  0  0  0  0
  2 12  1  0  0  0  0
  3  4  1  0  0  0  0
  5  6  2  0  0  0  0
  5 27  1  0  0  0  0
  6 28  1  0  0  0  0
  7 24  2  0  0  0  0
  7 17  1  0  0  0  0
  8 12  1  0  0  0  0
  9 28  1  0  0  0  0
  9 26  1  1  0  0  0
 11  3  1  0  0  0  0
 12 13  2  0  0  0  0
 13 22  1  0  0  0  0
 13 11  1  0  0  0  0
 14 23  2  0  0  0  0
 14 22  1  0  0  0  0
 15  9  1  0  0  0  0
 16 19  1  0  0  0  0
 16  1  1  0  0  0  0
 17 10  1  0  0  0  0
 17  8  2  0  0  0  0
 18 15  2  0  0  0  0
 18  6  1  0  0  0  0
 19  7  1  0  0  0  0
 20 29  1  1  0  0  0
 20 10  1  0  0  0  0
 21  4  1  0  0  0  0
 22 21  1  0  0  0  0
 24  2  1  0  0  0  0
 25  5  1  0  0  0  0
 27 14  1  0  0  0  0
 28 23  1  0  0  0  0
 29 30  1  0  0  0  0
 30 32  1  0  0  0  0
 31 30  1  0  0  0  0
M  END
>  <MODEL>
4

>  <REMARK>
 VINA RESULT:      -7.9      2.824      8.272
  Name = 
  2 active torsions:
  status: ('A' for Active; 'I' for Inactive)
    1  A    between atoms: C_20  and  C_29
    2  A    between atoms: C_29  and  C_30
                            x       y       z     vdW  Elec       q    Type
                         _______ _______ _______ _____ _____    ______ ____

>  <TORSDO>
F 2

$$$$
=
 OpenBabel11122412573D

 32 37  0  0  1  0  0  0  0  0999 V2000
  161.5840  212.6570  148.7870 C   0  0  0  0  0  2  0  0  0  0  0  0
  161.4810  207.0750  149.2160 C   0  0  0  0  0  0  0  0  0  0  0  0
  161.3080  205.5130  153.8910 C   0  0  0  0  0  2  0  0  0  0  0  0
  160.5320  204.3010  153.4170 C   0  0  0  0  0  2  0  0  0  0  0  0
  161.3610  205.4800  147.2530 C   0  0  0  0  0  0  0  0  0  0  0  0
  161.1970  204.2070  146.8820 C   0  0  0  0  0  0  0  0  0  0  0  0
  161.8700  209.4650  148.7990 C   0  0  0  0  0  0  0  0  0  0  0  0
  161.5440  208.6680  151.0630 C   0  0  0  0  0  3  0  0  0  0  0  0
  160.8090  201.9050  147.1830 C   0  0  1  0  0  3  0  0  0  0  0  0
  161.8520  211.1010  150.7600 C   0  0  0  0  0  2  0  0  0  0  0  0
  161.0000  206.6940  152.9840 C   0  0  0  0  0  2  0  0  0  0  0  0
  161.4060  207.3430  150.6160 C   0  0  0  0  0  0  0  0  0  0  0  0
  161.1960  206.3570  151.5220 C   0  0  0  0  0  0  0  0  0  0  0  0
  161.0870  204.7000  149.6830 C   0  0  0  0  0  0  0  0  0  0  0  0
  160.8900  202.1970  145.6750 C   0  0  0  0  0  3  0  0  0  0  0  0
  162.6280  211.7530  148.1330 C   0  0  0  0  0  2  0  0  0  0  0  0
  161.7690  209.7250  150.1820 C   0  0  0  0  0  0  0  0  0  0  0  0
  161.1760  203.6960  145.4960 C   0  0  0  0  0  3  0  0  0  0  0  0
  162.1030  210.4610  147.8390 O   0  0  0  0  0  0  0  0  0  0  0  0
  160.9100  212.0380  150.0110 C   0  0  1  0  0  3  0  0  0  0  0  0
  161.0690  203.8820  152.0560 C   0  0  0  0  0  2  0  0  0  0  0  0
  161.0390  204.9870  151.0890 N   0  0  0  0  0  0  0  0  0  0  0  0
  160.9280  203.4450  149.2330 C   0  0  0  0  0  3  0  0  0  0  0  0
  161.7120  208.1550  148.3460 C   0  0  0  0  0  3  0  0  0  0  0  0
  161.5520  206.4500  146.2720 O   0  0  0  0  0  1  0  0  0  0  0  0
  161.9290  200.9560  147.5690 C   0  0  0  0  0  1  0  0  0  0  0  0
  161.3230  205.8170  148.7210 C   0  0  0  0  0  0  0  0  0  0  0  0
  160.9990  203.1850  147.8300 N   0  0  0  0  0  0  0  0  0  0  0  0
  160.4190  213.1490  150.9260 C   0  0  0  0  0  2  0  0  0  0  0  0
  159.1840  212.7160  151.7010 C   0  0  0  0  0  3  0  0  0  0  0  0
  159.4930  212.6210  153.1830 C   0  0  0  0  0  1  0  0  0  0  0  0
  158.0820  213.7320  151.4920 C   0  0  0  0  0  1  0  0  0  0  0  0
  1 20  1  0  0  0  0
  2 12  1  0  0  0  0
  4  3  1  0  0  0  0
  5 27  1  0  0  0  0
  6  5  2  0  0  0  0
  6 28  1  0  0  0  0
  7 17  1  0  0  0  0
  9 26  1  1  0  0  0
  9 28  1  0  0  0  0
 11  3  1  0  0  0  0
 12  8  1  0  0  0  0
 12 13  2  0  0  0  0
 13 11  1  0  0  0  0
 14 22  1  0  0  0  0
 15  9  1  0  0  0  0
 16  1  1  0  0  0  0
 17 10  1  0  0  0  0
 17  8  2  0  0  0  0
 18 15  2  0  0  0  0
 18  6  1  0  0  0  0
 19 16  1  0  0  0  0
 19  7  1  0  0  0  0
 20 10  1  0  0  0  0
 20 29  1  1  0  0  0
 21  4  1  0  0  0  0
 22 13  1  0  0  0  0
 22 21  1  0  0  0  0
 23 14  2  0  0  0  0
 24  7  2  0  0  0  0
 24  2  1  0  0  0  0
 25  5  1  0  0  0  0
 27  2  2  0  0  0  0
 27 14  1  0  0  0  0
 28 23  1  0  0  0  0
 29 30  1  0  0  0  0
 30 31  1  0  0  0  0
 32 30  1  0  0  0  0
M  END
>  <MODEL>
5

>  <REMARK>
 VINA RESULT:      -7.8      2.976      8.851
  Name = 
  2 active torsions:
  status: ('A' for Active; 'I' for Inactive)
    1  A    between atoms: C_20  and  C_29
    2  A    between atoms: C_29  and  C_30
                            x       y       z     vdW  Elec       q    Type
                         _______ _______ _______ _____ _____    ______ ____

>  <TORSDO>
F 2

$$$$
=
 OpenBabel11122412573D

 32 37  0  0  1  0  0  0  0  0999 V2000
  161.0490  202.1880  147.1750 C   0  0  0  0  0  2  0  0  0  0  0  0
  161.4180  206.5050  150.7220 C   0  0  0  0  0  0  0  0  0  0  0  0
  162.7080  210.7130  148.4950 C   0  0  0  0  0  2  0  0  0  0  0  0
  161.9040  211.4650  149.5360 C   0  0  0  0  0  2  0  0  0  0  0  0
  160.8310  206.4040  153.1830 C   0  0  0  0  0  0  0  0  0  0  0  0
  160.6450  207.1170  154.2970 C   0  0  0  0  0  0  0  0  0  0  0  0
  161.5220  204.4210  149.4250 C   0  0  0  0  0  0  0  0  0  0  0  0
  161.9170  206.5460  148.3340 C   0  0  0  0  0  3  0  0  0  0  0  0
  160.5040  209.0620  155.6150 C   0  0  1  0  0  3  0  0  0  0  0  0
  161.9740  204.5260  146.9130 C   0  0  0  0  0  2  0  0  0  0  0  0
  162.0780  209.3490  148.2620 C   0  0  0  0  0  2  0  0  0  0  0  0
  161.7370  207.2430  149.5420 C   0  0  0  0  0  0  0  0  0  0  0  0
  161.8600  208.5920  149.5530 C   0  0  0  0  0  0  0  0  0  0  0  0
  161.3240  208.6130  151.9730 C   0  0  0  0  0  0  0  0  0  0  0  0
  160.1240  207.8520  156.4840 C   0  0  0  0  0  3  0  0  0  0  0  0
  161.9110  202.1570  148.4350 C   0  0  0  0  0  2  0  0  0  0  0  0
  161.8110  205.1590  148.2580 C   0  0  0  0  0  0  0  0  0  0  0  0
  160.2530  206.5880  155.6200 C   0  0  0  0  0  3  0  0  0  0  0  0
  161.4030  203.0230  149.4470 O   0  0  0  0  0  0  0  0  0  0  0  0
  160.7990  203.5950  146.6310 C   0  0  1  0  0  3  0  0  0  0  0  0
  162.0460  210.7500  150.8720 C   0  0  0  0  0  2  0  0  0  0  0  0
  161.6680  209.3330  150.7800 N   0  0  0  0  0  0  0  0  0  0  0  0
  161.1180  209.2600  153.1310 C   0  0  0  0  0  3  0  0  0  0  0  0
  161.3200  205.1060  150.6230 C   0  0  0  0  0  3  0  0  0  0  0  0
  160.6690  205.0210  153.2310 O   0  0  0  0  0  1  0  0  0  0  0  0
  161.7430  209.7220  156.1910 C   0  0  0  0  0  1  0  0  0  0  0  0
  161.2010  207.1260  151.9130 C   0  0  0  0  0  0  0  0  0  0  0  0
  160.7940  208.5170  154.3060 N   0  0  0  0  0  0  0  0  0  0  0  0
  160.5280  203.5120  145.1370 C   0  0  0  0  0  2  0  0  0  0  0  0
  160.2770  204.8920  144.5470 C   0  0  0  0  0  3  0  0  0  0  0  0
  159.7210  205.8280  145.6030 C   0  0  0  0  0  1  0  0  0  0  0  0
  161.5820  205.4550  144.0260 C   0  0  0  0  0  1  0  0  0  0  0  0
  1 16  1  0  0  0  0
  2 27  2  0  0  0  0
  3  4  1  0  0  0  0
  4 21  1  0  0  0  0
  5 25  1  0  0  0  0
  5  6  2  0  0  0  0
  6 28  1  0  0  0  0
  6 18  1  0  0  0  0
  7 19  1  0  0  0  0
  7 24  2  0  0  0  0
  8 12  1  0  0  0  0
  9 26  1  1  0  0  0
  9 15  1  0  0  0  0
 10 17  1  0  0  0  0
 11  3  1  0  0  0  0
 11 13  1  0  0  0  0
 12 13  2  0  0  0  0
 12  2  1  0  0  0  0
 13 22  1  0  0  0  0
 14 23  2  0  0  0  0
 16 19  1  0  0  0  0
 17  8  2  0  0  0  0
 17  7  1  0  0  0  0
 18 15  2  0  0  0  0
 20 29  1  6  0  0  0
 20 10  1  0  0  0  0
 20  1  1  0  0  0  0
 22 21  1  0  0  0  0
 22 14  1  0  0  0  0
 23 28  1  0  0  0  0
 24  2  1  0  0  0  0
 27 14  1  0  0  0  0
 27  5  1  0  0  0  0
 28  9  1  0  0  0  0
 30 29  1  0  0  0  0
 30 31  1  0  0  0  0
 32 30  1  0  0  0  0
M  END
>  <MODEL>
6

>  <REMARK>
 VINA RESULT:      -6.9      1.534      2.161
  Name = 
  2 active torsions:
  status: ('A' for Active; 'I' for Inactive)
    1  A    between atoms: C_20  and  C_29
    2  A    between atoms: C_29  and  C_30
                            x       y       z     vdW  Elec       q    Type
                         _______ _______ _______ _____ _____    ______ ____

>  <TORSDO>
F 2

$$$$
