=
 OpenBabel11122412583D

 32 38  0  0  1  0  0  0  0  0999 V2000
  161.2220  209.4660  156.8120 C   0  0  1  0  0  3  0  0  0  0  0  0
  160.6430  207.2390  152.2080 C   0  0  0  0  0  0  0  0  0  0  0  0
  161.9560  211.3530  149.7470 C   0  0  0  0  0  3  0  0  0  0  0  0
  162.4250  210.5860  148.6820 C   0  0  0  0  0  3  0  0  0  0  0  0
  160.6940  205.0520  150.9240 C   0  0  0  0  0  0  0  0  0  0  0  0
  161.0320  204.3490  149.7690 C   0  0  0  0  0  0  0  0  0  0  0  0
  161.6360  207.9690  154.4410 C   0  0  1  0  0  3  0  0  0  0  0  0
  160.1340  209.5170  153.1490 C   0  0  0  0  0  2  0  0  0  0  0  0
  161.8080  204.0220  147.6650 N   0  0  0  0  0  0  0  0  0  0  0  0
  160.1970  209.7090  155.6900 C   0  0  2  0  0  3  0  0  0  0  0  0
  161.3450  210.7310  150.8370 C   0  0  0  0  0  3  0  0  0  0  0  0
  160.5770  208.6970  152.0110 N   0  0  0  0  0  0  0  0  0  0  0  0
  161.1970  209.3340  150.8770 C   0  0  0  0  0  0  0  0  0  0  0  0
  161.4860  207.0950  149.8100 C   0  0  0  0  0  0  0  0  0  0  0  0
  161.3320  202.7240  148.1470 C   0  0  0  0  0  3  0  0  0  0  0  0
  162.3310  208.4510  156.4900 C   0  0  0  0  0  2  0  0  0  0  0  0
  160.3310  208.7720  154.4740 C   0  0  2  0  0  3  0  0  0  0  0  0
  160.8570  202.9610  149.5180 N   0  0  0  0  0  0  0  0  0  0  0  0
  161.8580  207.3970  155.6960 O   0  0  0  0  0  0  0  0  0  0  0  0
  161.3780  210.6430  155.8620 C   0  0  1  0  0  3  0  0  0  0  0  0
  162.2800  209.1980  148.7060 C   0  0  0  0  0  2  0  0  0  0  0  0
  161.6680  208.5620  149.7990 C   0  0  0  0  0  0  0  0  0  0  0  0
  161.8090  206.3370  148.6630 C   0  0  0  0  0  3  0  0  0  0  0  0
  161.6160  206.8930  153.3470 C   0  0  0  0  0  2  0  0  0  0  0  0
  160.0810  204.3310  152.0800 C   0  0  0  0  0  1  0  0  0  0  0  0
  162.1330  204.3280  146.2830 C   0  0  0  0  0  1  0  0  0  0  0  0
  160.9390  206.4510  150.9540 C   0  0  0  0  0  0  0  0  0  0  0  0
  161.5770  204.9670  148.6910 C   0  0  0  0  0  0  0  0  0  0  0  0
  160.9450  211.8310  156.5080 O   0  0  0  0  0  0  0  0  0  0  0  0
  159.7940  212.5170  156.1160 C   0  0  0  0  0  0  0  0  0  0  0  0
  158.6620  212.7490  157.0610 C   0  0  0  0  0  1  0  0  0  0  0  0
  159.7060  212.9510  154.9390 O   0  0  0  0  0  0  0  0  0  0  0  0
  1 16  1  6  0  0  0
  2 24  1  0  0  0  0
  3 11  1  0  0  0  0
  4 21  1  0  0  0  0
  4  3  2  0  0  0  0
  5 27  1  0  0  0  0
  5 25  1  0  0  0  0
  6  5  2  0  0  0  0
  7 24  1  6  0  0  0
  7 17  1  0  0  0  0
  7 19  1  0  0  0  0
  8 17  1  0  0  0  0
  9 15  1  0  0  0  0
  9 28  1  0  0  0  0
 10 20  1  0  0  0  0
 10  1  1  0  0  0  0
 11 13  2  0  0  0  0
 12  2  1  0  0  0  0
 12  8  1  0  0  0  0
 13 12  1  0  0  0  0
 14 27  1  0  0  0  0
 15 18  2  0  0  0  0
 17 10  1  0  0  0  0
 18  6  1  0  0  0  0
 19 16  1  0  0  0  0
 20 29  1  0  0  0  0
 20  1  1  0  0  0  0
 21 22  1  0  0  0  0
 22 14  2  0  0  0  0
 22 13  1  0  0  0  0
 23 28  2  0  0  0  0
 23 14  1  0  0  0  0
 26  9  1  0  0  0  0
 27  2  2  0  0  0  0
 28  6  1  0  0  0  0
 30 29  1  0  0  0  0
 30 31  1  0  0  0  0
 32 30  2  0  0  0  0
M  END
>  <MODEL>
1

>  <REMARK>
 VINA RESULT:      -6.9      0.000      0.000
  Name = 
  2 active torsions:
  status: ('A' for Active; 'I' for Inactive)
    1  A    between atoms: C_20  and  O_29
    2  A    between atoms: O_29  and  C_30
                            x       y       z     vdW  Elec       q    Type
                         _______ _______ _______ _____ _____    ______ ____

>  <TORSDO>
F 2

$$$$
=
 OpenBabel11122412583D

 32 38  0  0  1  0  0  0  0  0999 V2000
  161.6780  205.2760  148.2190 C   0  0  1  0  0  3  0  0  0  0  0  0
  161.5470  208.8290  151.9410 C   0  0  0  0  0  0  0  0  0  0  0  0
  161.1870  212.5930  148.7150 C   0  0  0  0  0  3  0  0  0  0  0  0
  160.5110  213.3610  149.6620 C   0  0  0  0  0  3  0  0  0  0  0  0
  160.9270  209.3040  154.3540 C   0  0  0  0  0  0  0  0  0  0  0  0
  160.3900  210.1720  155.3050 C   0  0  0  0  0  0  0  0  0  0  0  0
  160.8350  207.0250  150.2840 C   0  0  1  0  0  3  0  0  0  0  0  0
  162.6230  208.6830  149.6710 C   0  0  0  0  0  2  0  0  0  0  0  0
  159.4880  212.0800  156.1290 N   0  0  0  0  0  0  0  0  0  0  0  0
  162.6930  206.3610  148.6210 C   0  0  2  0  0  3  0  0  0  0  0  0
  161.6650  211.3270  149.0580 C   0  0  0  0  0  3  0  0  0  0  0  0
  161.9580  209.5000  150.6960 N   0  0  0  0  0  0  0  0  0  0  0  0
  161.4730  210.8130  150.3520 C   0  0  2  0  0  3  0  0  0  0  0  0
  160.6150  211.0790  152.6820 C   0  0  0  0  0  0  0  0  0  0  0  0
  159.6530  211.1670  157.2610 C   0  0  0  0  0  3  0  0  0  0  0  0
  160.3470  205.2960  148.9870 C   0  0  0  0  0  2  0  0  0  0  0  0
  162.2970  207.1970  149.8540 C   0  0  2  0  0  3  0  0  0  0  0  0
  160.2160  209.9320  156.6940 N   0  0  0  0  0  0  0  0  0  0  0  0
  160.5240  205.6640  150.3280 O   0  0  0  0  0  0  0  0  0  0  0  0
  161.7800  206.5740  147.4310 C   0  0  1  0  0  3  0  0  0  0  0  0
  160.3170  212.8640  150.9520 C   0  0  0  0  0  3  0  0  0  0  0  0
  160.7930  211.5910  151.3070 C   0  0  0  0  0  0  0  0  0  0  0  0
  160.0810  211.9190  153.6830 C   0  0  0  0  0  3  0  0  0  0  0  0
  160.5580  207.6910  151.6390 C   0  0  0  0  0  2  0  0  0  0  0  0
  161.3850  207.9430  154.7660 C   0  0  0  0  0  1  0  0  0  0  0  0
  159.2010  213.4990  156.2400 C   0  0  0  0  0  1  0  0  0  0  0  0
  161.0280  209.7580  153.0120 C   0  0  0  0  0  0  0  0  0  0  0  0
  159.9750  211.4210  154.9770 C   0  0  0  0  0  0  0  0  0  0  0  0
  162.5080  206.3430  146.2340 O   0  0  0  0  0  0  0  0  0  0  0  0
  162.1950  205.3010  145.3590 C   0  0  0  0  0  0  0  0  0  0  0  0
  160.9500  205.3200  144.5350 C   0  0  0  0  0  1  0  0  0  0  0  0
  162.9780  204.3220  145.2610 O   0  0  0  0  0  0  0  0  0  0  0  0
  1 10  1  0  0  0  0
  1 16  1  1  0  0  0
  2 27  2  0  0  0  0
  3 11  2  0  0  0  0
  3  4  1  0  0  0  0
  4 21  2  0  0  0  0
  5 25  1  0  0  0  0
  5  6  2  0  0  0  0
  6 18  1  0  0  0  0
  7 19  1  0  0  0  0
  7 24  1  1  0  0  0
  8 17  1  0  0  0  0
  8 12  1  0  0  0  0
  9 26  1  0  0  0  0
  9 15  1  0  0  0  0
 10 17  1  0  0  0  0
 11 13  1  0  0  0  0
 12  2  1  0  0  0  0
 13 12  1  0  0  0  0
 13 22  1  0  0  0  0
 14 27  1  0  0  0  0
 14 23  1  0  0  0  0
 16 19  1  0  0  0  0
 17  7  1  0  0  0  0
 18 15  2  0  0  0  0
 20  1  1  0  0  0  0
 20 10  1  0  0  0  0
 21 22  1  0  0  0  0
 22 14  2  0  0  0  0
 23 28  2  0  0  0  0
 24  2  1  0  0  0  0
 27  5  1  0  0  0  0
 28  6  1  0  0  0  0
 28  9  1  0  0  0  0
 29 20  1  0  0  0  0
 30 29  1  0  0  0  0
 31 30  1  0  0  0  0
 32 30  2  0  0  0  0
M  END
>  <MODEL>
2

>  <REMARK>
 VINA RESULT:      -6.4      3.320      8.070
  Name = 
  2 active torsions:
  status: ('A' for Active; 'I' for Inactive)
    1  A    between atoms: C_20  and  O_29
    2  A    between atoms: O_29  and  C_30
                            x       y       z     vdW  Elec       q    Type
                         _______ _______ _______ _____ _____    ______ ____

>  <TORSDO>
F 2

$$$$
=
 OpenBabel11122412583D

 32 38  0  0  1  0  0  0  0  0999 V2000
  160.8400  211.1070  153.9090 C   0  0  1  0  0  3  0  0  0  0  0  0
  161.9700  207.4820  150.4340 C   0  0  0  0  0  0  0  0  0  0  0  0
  160.6660  203.7720  153.4740 C   0  0  0  0  0  3  0  0  0  0  0  0
  160.3420  202.9690  152.3810 C   0  0  0  0  0  3  0  0  0  0  0  0
  162.1620  206.9450  147.9620 C   0  0  0  0  0  0  0  0  0  0  0  0
  161.9730  206.0460  146.9130 C   0  0  0  0  0  0  0  0  0  0  0  0
  160.7330  209.2980  151.7290 C   0  0  1  0  0  3  0  0  0  0  0  0
  162.2620  207.6990  152.9240 C   0  0  0  0  0  2  0  0  0  0  0  0
  161.4170  204.1000  145.8950 N   0  0  0  0  0  0  0  0  0  0  0  0
  161.9500  210.0410  153.8800 C   0  0  2  0  0  3  0  0  0  0  0  0
  161.2060  205.0430  153.2680 C   0  0  0  0  0  3  0  0  0  0  0  0
  161.9730  206.8450  151.7620 N   0  0  0  0  0  0  0  0  0  0  0  0
  161.4280  205.5270  151.9670 C   0  0  0  0  0  0  0  0  0  0  0  0
  161.3650  205.1950  149.4930 C   0  0  0  0  0  0  0  0  0  0  0  0
  161.9180  204.9960  144.8510 C   0  0  0  0  0  3  0  0  0  0  0  0
  159.8240  211.0380  152.7570 C   0  0  0  0  0  2  0  0  0  0  0  0
  161.9830  209.1720  152.6080 C   0  0  2  0  0  3  0  0  0  0  0  0
  162.2480  206.2550  145.5350 N   0  0  0  0  0  0  0  0  0  0  0  0
  160.4280  210.6490  151.5530 O   0  0  0  0  0  0  0  0  0  0  0  0
  160.7080  209.8270  154.7220 C   0  0  1  0  0  3  0  0  0  0  0  0
  160.5610  203.4360  151.0840 C   0  0  0  0  0  2  0  0  0  0  0  0
  161.1030  204.7140  150.8660 C   0  0  0  0  0  0  0  0  0  0  0  0
  161.1930  204.3220  148.3960 C   0  0  0  0  0  3  0  0  0  0  0  0
  160.9160  208.5990  150.3740 C   0  0  0  0  0  2  0  0  0  0  0  0
  162.7030  208.3100  147.6830 C   0  0  0  0  0  1  0  0  0  0  0  0
  161.2060  202.6720  145.7350 C   0  0  0  0  0  1  0  0  0  0  0  0
  161.8370  206.5190  149.2780 C   0  0  0  0  0  0  0  0  0  0  0  0
  161.4980  204.7930  147.1240 C   0  0  0  0  0  0  0  0  0  0  0  0
  161.0120  210.0990  156.0820 O   0  0  0  0  0  0  0  0  0  0  0  0
  162.0990  209.5150  156.7350 C   0  0  0  0  0  0  0  0  0  0  0  0
  163.2280  210.3370  157.2610 C   0  0  0  0  0  1  0  0  0  0  0  0
  162.1290  208.2670  156.8860 O   0  0  0  0  0  0  0  0  0  0  0  0
  1 16  1  6  0  0  0
  1 20  1  0  0  0  0
  2 12  1  0  0  0  0
  4  3  2  0  0  0  0
  5 27  1  0  0  0  0
  6 28  1  0  0  0  0
  6  5  2  0  0  0  0
  7 24  1  6  0  0  0
  7 17  1  0  0  0  0
  9 28  1  0  0  0  0
 10  1  1  0  0  0  0
 10 20  1  0  0  0  0
 11  3  1  0  0  0  0
 12 13  1  0  0  0  0
 12  8  1  0  0  0  0
 13 11  2  0  0  0  0
 14 22  2  0  0  0  0
 15 18  2  0  0  0  0
 15  9  1  0  0  0  0
 17  8  1  0  0  0  0
 17 10  1  0  0  0  0
 18  6  1  0  0  0  0
 19  7  1  0  0  0  0
 19 16  1  0  0  0  0
 20 29  1  0  0  0  0
 21  4  1  0  0  0  0
 22 21  1  0  0  0  0
 22 13  1  0  0  0  0
 23 14  1  0  0  0  0
 24  2  1  0  0  0  0
 25  5  1  0  0  0  0
 26  9  1  0  0  0  0
 27 14  1  0  0  0  0
 27  2  2  0  0  0  0
 28 23  2  0  0  0  0
 29 30  1  0  0  0  0
 30 32  2  0  0  0  0
 30 31  1  0  0  0  0
M  END
>  <MODEL>
3

>  <REMARK>
 VINA RESULT:      -5.9      1.900      4.316
  Name = 
  2 active torsions:
  status: ('A' for Active; 'I' for Inactive)
    1  A    between atoms: C_20  and  O_29
    2  A    between atoms: O_29  and  C_30
                            x       y       z     vdW  Elec       q    Type
                         _______ _______ _______ _____ _____    ______ ____

>  <TORSDO>
F 2

$$$$
=
 OpenBabel11122412583D

 32 38  0  0  1  0  0  0  0  0999 V2000
  161.9610  205.3350  145.0580 C   0  0  1  0  0  3  0  0  0  0  0  0
  160.9770  207.1100  149.7880 C   0  0  0  0  0  0  0  0  0  0  0  0
  160.4560  202.5480  151.6900 C   0  0  0  0  0  3  0  0  0  0  0  0
  160.8600  203.0060  152.9430 C   0  0  0  0  0  3  0  0  0  0  0  0
  161.3430  209.0150  151.4220 C   0  0  0  0  0  0  0  0  0  0  0  0
  161.5870  209.4440  152.7260 C   0  0  0  0  0  0  0  0  0  0  0  0
  162.2160  206.3550  147.6900 C   0  0  1  0  0  3  0  0  0  0  0  0
  160.0770  205.2270  148.3820 C   0  0  0  0  0  2  0  0  0  0  0  0
  161.9090  209.2770  154.9630 N   0  0  0  0  0  0  0  0  0  0  0  0
  160.6770  205.3040  145.9050 C   0  0  2  0  0  3  0  0  0  0  0  0
  160.3190  203.4460  150.6310 C   0  0  0  0  0  3  0  0  0  0  0  0
  160.4560  205.7350  149.7090 N   0  0  0  0  0  0  0  0  0  0  0  0
  160.5860  204.8150  150.8100 C   0  0  2  0  0  3  0  0  0  0  0  0
  161.2400  206.7170  152.2900 C   0  0  0  0  0  0  0  0  0  0  0  0
  161.9460  210.7030  154.6350 C   0  0  0  0  0  3  0  0  0  0  0  0
  163.2040  205.9060  145.7580 C   0  0  0  0  0  2  0  0  0  0  0  0
  160.7820  206.0120  147.2700 C   0  0  2  0  0  3  0  0  0  0  0  0
  161.7590  210.7800  153.1790 N   0  0  0  0  0  0  0  0  0  0  0  0
  162.8770  206.9620  146.6210 O   0  0  0  0  0  0  0  0  0  0  0  0
  161.5500  204.0710  145.7990 C   0  0  1  0  0  3  0  0  0  0  0  0
  161.1250  204.3630  153.1360 C   0  0  0  0  0  3  0  0  0  0  0  0
  160.9920  205.2760  152.0760 C   0  0  0  0  0  0  0  0  0  0  0  0
  161.4870  207.2040  153.5920 C   0  0  0  0  0  3  0  0  0  0  0  0
  162.2460  207.2560  148.9330 C   0  0  0  0  0  2  0  0  0  0  0  0
  161.2480  210.0150  150.3160 C   0  0  0  0  0  1  0  0  0  0  0  0
  161.8010  208.7340  156.3050 C   0  0  0  0  0  1  0  0  0  0  0  0
  161.1820  207.6220  151.1930 C   0  0  0  0  0  0  0  0  0  0  0  0
  161.6660  208.5720  153.7620 C   0  0  0  0  0  0  0  0  0  0  0  0
  160.9620  203.1580  144.8830 O   0  0  0  0  0  0  0  0  0  0  0  0
  160.4690  201.9140  145.2820 C   0  0  0  0  0  0  0  0  0  0  0  0
  160.8260  201.3200  146.6040 C   0  0  0  0  0  1  0  0  0  0  0  0
  159.7060  201.2780  144.5120 O   0  0  0  0  0  0  0  0  0  0  0  0
  1 16  1  1  0  0  0
  1 20  1  0  0  0  0
  1 10  1  0  0  0  0
  2 27  2  0  0  0  0
  3  4  1  0  0  0  0
  4 21  2  0  0  0  0
  5  6  2  0  0  0  0
  6 18  1  0  0  0  0
  6 28  1  0  0  0  0
  7 24  1  1  0  0  0
  8 12  1  0  0  0  0
  9 26  1  0  0  0  0
 10 17  1  0  0  0  0
 11 13  1  0  0  0  0
 11  3  2  0  0  0  0
 12  2  1  0  0  0  0
 12 13  1  0  0  0  0
 13 22  1  0  0  0  0
 14 23  1  0  0  0  0
 15  9  1  0  0  0  0
 16 19  1  0  0  0  0
 17  7  1  0  0  0  0
 17  8  1  0  0  0  0
 18 15  2  0  0  0  0
 19  7  1  0  0  0  0
 20 10  1  0  0  0  0
 22 14  2  0  0  0  0
 22 21  1  0  0  0  0
 23 28  2  0  0  0  0
 24  2  1  0  0  0  0
 25  5  1  0  0  0  0
 27  5  1  0  0  0  0
 27 14  1  0  0  0  0
 28  9  1  0  0  0  0
 29 30  1  0  0  0  0
 29 20  1  0  0  0  0
 30 31  1  0  0  0  0
 32 30  2  0  0  0  0
M  END
>  <MODEL>
4

>  <REMARK>
 VINA RESULT:      -5.0      3.816      8.981
  Name = 
  2 active torsions:
  status: ('A' for Active; 'I' for Inactive)
    1  A    between atoms: C_20  and  O_29
    2  A    between atoms: O_29  and  C_30
                            x       y       z     vdW  Elec       q    Type
                         _______ _______ _______ _____ _____    ______ ____

>  <TORSDO>
F 2

$$$$
=
 OpenBabel11122412583D

 32 38  0  0  1  0  0  0  0  0999 V2000
  161.2990  203.8580  149.1100 C   0  0  1  0  0  3  0  0  0  0  0  0
  161.5120  207.8440  152.3600 C   0  0  0  0  0  0  0  0  0  0  0  0
  161.7380  211.1820  148.6840 C   0  0  0  0  0  3  0  0  0  0  0  0
  161.1380  212.1430  149.4980 C   0  0  0  0  0  3  0  0  0  0  0  0
  160.8850  208.6960  154.6650 C   0  0  0  0  0  0  0  0  0  0  0  0
  160.4350  209.7370  155.4760 C   0  0  0  0  0  0  0  0  0  0  0  0
  160.6250  205.9460  150.9050 C   0  0  1  0  0  3  0  0  0  0  0  0
  162.6300  207.2780  150.1770 C   0  0  0  0  0  2  0  0  0  0  0  0
  159.7620  211.8320  156.0180 N   0  0  0  0  0  0  0  0  0  0  0  0
  162.4320  204.8510  149.4240 C   0  0  2  0  0  3  0  0  0  0  0  0
  162.0390  209.9210  149.2020 C   0  0  0  0  0  3  0  0  0  0  0  0
  162.0440  208.2960  151.0630 N   0  0  0  0  0  0  0  0  0  0  0  0
  161.7420  209.6040  150.5390 C   0  0  2  0  0  3  0  0  0  0  0  0
  160.8560  210.2690  152.7760 C   0  0  0  0  0  0  0  0  0  0  0  0
  159.7730  211.0570  157.2590 C   0  0  0  0  0  3  0  0  0  0  0  0
  159.9580  204.1400  149.8080 C   0  0  0  0  0  2  0  0  0  0  0  0
  162.1090  205.8800  150.5250 C   0  0  2  0  0  3  0  0  0  0  0  0
  160.1890  209.7000  156.8750 N   0  0  0  0  0  0  0  0  0  0  0  0
  160.1400  204.6510  151.1000 O   0  0  0  0  0  0  0  0  0  0  0  0
  161.5910  205.0230  148.1750 C   0  0  1  0  0  3  0  0  0  0  0  0
  160.8420  211.8420  150.8280 C   0  0  0  0  0  3  0  0  0  0  0  0
  161.1390  210.5750  151.3590 C   0  0  0  0  0  0  0  0  0  0  0  0
  160.4030  211.2890  153.6410 C   0  0  0  0  0  3  0  0  0  0  0  0
  160.3950  206.8090  152.1540 C   0  0  0  0  0  2  0  0  0  0  0  0
  161.1510  207.3520  155.2620 C   0  0  0  0  0  1  0  0  0  0  0  0
  159.6560  213.2780  155.9410 C   0  0  0  0  0  1  0  0  0  0  0  0
  161.0850  208.9590  153.2840 C   0  0  0  0  0  0  0  0  0  0  0  0
  160.1950  210.9760  154.9790 C   0  0  0  0  0  0  0  0  0  0  0  0
  162.3200  204.5520  147.0510 O   0  0  0  0  0  0  0  0  0  0  0  0
  161.7350  204.4030  145.7920 C   0  0  0  0  0  0  0  0  0  0  0  0
  160.9550  203.1830  145.4320 C   0  0  0  0  0  1  0  0  0  0  0  0
  161.8670  205.3180  144.9390 O   0  0  0  0  0  0  0  0  0  0  0  0
  1 10  1  0  0  0  0
  1 16  1  1  0  0  0
  2 27  2  0  0  0  0
  3 11  2  0  0  0  0
  3  4  1  0  0  0  0
  4 21  2  0  0  0  0
  5 25  1  0  0  0  0
  5  6  2  0  0  0  0
  6 18  1  0  0  0  0
  7 19  1  0  0  0  0
  7 24  1  1  0  0  0
  8 17  1  0  0  0  0
  8 12  1  0  0  0  0
  9 15  1  0  0  0  0
 10 17  1  0  0  0  0
 11 13  1  0  0  0  0
 12  2  1  0  0  0  0
 13 12  1  0  0  0  0
 13 22  1  0  0  0  0
 14 27  1  0  0  0  0
 14 23  1  0  0  0  0
 16 19  1  0  0  0  0
 17  7  1  0  0  0  0
 18 15  2  0  0  0  0
 20  1  1  0  0  0  0
 20 10  1  0  0  0  0
 21 22  1  0  0  0  0
 22 14  2  0  0  0  0
 23 28  2  0  0  0  0
 24  2  1  0  0  0  0
 26  9  1  0  0  0  0
 27  5  1  0  0  0  0
 28  6  1  0  0  0  0
 28  9  1  0  0  0  0
 29 20  1  0  0  0  0
 30 29  1  0  0  0  0
 31 30  1  0  0  0  0
 32 30  2  0  0  0  0
M  END
>  <MODEL>
5

>  <REMARK>
 VINA RESULT:      -4.5      3.166      7.919
  Name = 
  2 active torsions:
  status: ('A' for Active; 'I' for Inactive)
    1  A    between atoms: C_20  and  O_29
    2  A    between atoms: O_29  and  C_30
                            x       y       z     vdW  Elec       q    Type
                         _______ _______ _______ _____ _____    ______ ____

>  <TORSDO>
F 2

$$$$
