=
 OpenBabel11122414283D

 34 41  0  0  1  0  0  0  0  0999 V2000
  161.3800  209.3510  151.1490 C   0  0  2  0  0  3  0  0  0  0  0  0
  161.5680  211.0410  152.8770 C   0  0  0  0  0  2  0  0  0  0  0  0
  160.6040  203.1090  148.9740 C   0  0  2  0  0  3  0  0  0  0  0  0
  161.2030  207.4560  149.4760 C   0  0  1  0  0  3  0  0  0  0  0  0
  160.9000  205.1080  150.3640 C   0  0  1  0  0  3  0  0  0  0  0  0
  160.7150  202.4400  151.3320 S   0  0  0  0  0  0  0  0  0  0  0  0
  160.2150  201.8340  149.6830 C   0  0  0  0  0  2  0  0  0  0  0  0
  162.2470  204.5840  147.2830 S   0  0  0  0  0  0  0  0  0  0  0  0
  161.0030  208.9230  153.4140 C   0  0  1  0  0  3  0  0  0  0  0  0
  160.1420  207.9490  156.4250 C   0  0  0  0  0  2  0  0  0  0  0  0
  161.3940  205.6330  151.7090 C   0  0  0  0  0  2  0  0  0  0  0  0
  161.0070  205.5710  147.9840 O   0  0  0  0  0  0  0  0  0  0  0  0
  161.2570  207.4180  153.2770 C   0  0  2  0  0  3  0  0  0  0  0  0
  161.3570  211.0310  154.3890 C   0  0  0  0  0  2  0  0  0  0  0  0
  161.5010  205.9740  149.2370 C   0  0  1  0  0  3  0  0  0  0  0  0
  161.5300  202.9590  147.7820 C   0  0  0  0  0  2  0  0  0  0  0  0
  160.0180  209.2820  155.6700 C   0  0  2  0  0  3  0  0  0  0  0  0
  161.6330  207.8470  150.9020 C   0  0  2  0  0  3  0  0  0  0  0  0
  161.3510  203.6710  150.1540 C   0  0  1  0  0  3  0  0  0  0  0  0
  160.9280  207.0090  151.8970 N   0  0  1  0  0  0  0  0  0  0  0  0
  161.7050  209.7890  148.7040 C   0  0  0  0  0  2  0  0  0  0  0  0
  160.8750  206.8280  155.6830 C   0  0  0  0  0  2  0  0  0  0  0  0
  161.9580  208.3070  148.4540 C   0  0  0  0  0  2  0  0  0  0  0  0
  160.3690  206.6500  154.2610 C   0  0  0  0  0  2  0  0  0  0  0  0
  161.2250  209.5610  154.7660 C   0  0  1  0  0  3  0  0  0  0  0  0
  162.1580  210.1660  150.1100 C   0  0  0  0  0  2  0  0  0  0  0  0
  161.8430  209.6620  152.4970 N   0  0  1  0  0  0  0  0  0  0  0  0
  159.8380  210.3080  156.6020 O   0  0  0  0  0  0  0  0  0  0  0  0
  158.4540  210.4830  156.6780 C   0  0  0  0  0  2  0  0  0  0  0  0
  155.8620  212.2070  155.7320 O   0  0  0  0  0  0  0  0  0  0  0  0
  158.1700  212.6060  155.4460 C   0  0  0  0  0  2  0  0  0  0  0  0
  157.9430  211.1230  155.4000 C   0  0  2  0  0  3  0  0  0  0  0  0
  156.7820  213.1900  155.3440 C   0  0  0  0  0  2  0  0  0  0  0  0
  156.4380  210.9910  155.3380 C   0  0  0  0  0  2  0  0  0  0  0  0
  1 26  1  6  0  0  0
  1 27  1  0  0  0  0
  2 14  1  0  0  0  0
  3 16  1  6  0  0  0
  3  7  1  0  0  0  0
  3 19  1  0  0  0  0
  4 23  1  6  0  0  0
  4 18  1  0  0  0  0
  5 11  1  1  0  0  0
  7  6  1  0  0  0  0
  8 16  1  0  0  0  0
  8 12  1  0  0  0  0
  9 25  1  0  0  0  0
 11 20  1  0  0  0  0
 12 15  1  0  0  0  0
 13  9  1  0  0  0  0
 13 24  1  0  0  0  0
 14 25  1  0  0  0  0
 15  4  1  0  0  0  0
 15  5  1  0  0  0  0
 17 10  1  0  0  0  0
 17 28  1  0  0  0  0
 18  1  1  0  0  0  0
 18 20  1  0  0  0  0
 19  5  1  0  0  0  0
 19  6  1  0  0  0  0
 20 13  1  0  0  0  0
 21 26  1  0  0  0  0
 22 10  1  0  0  0  0
 23 21  1  0  0  0  0
 24 22  1  0  0  0  0
 25 17  1  0  0  0  0
 27  2  1  0  0  0  0
 27  9  1  0  0  0  0
 28 29  1  0  0  0  0
 32 31  1  0  0  0  0
 32 29  1  0  0  0  0
 33 31  1  0  0  0  0
 33 30  1  0  0  0  0
 34 32  1  0  0  0  0
 34 30  1  0  0  0  0
M  END
>  <MODEL>
1

>  <REMARK>
 VINA RESULT:      -8.2      0.000      0.000
  Name = 
  3 active torsions:
  status: ('A' for Active; 'I' for Inactive)
    1  A    between atoms: C_17  and  O_28
    2  A    between atoms: O_28  and  C_29
    3  A    between atoms: C_29  and  C_32
                            x       y       z     vdW  Elec       q    Type
                         _______ _______ _______ _____ _____    ______ ____

>  <TORSDO>
F 3

$$$$
=
 OpenBabel11122414283D

 34 41  0  0  1  0  0  0  0  0999 V2000
  160.6120  207.1790  154.0670 C   0  0  2  0  0  3  0  0  0  0  0  0
  161.5770  205.1220  153.2200 C   0  0  0  0  0  2  0  0  0  0  0  0
  158.7080  213.5330  153.5330 C   0  0  2  0  0  3  0  0  0  0  0  0
  159.6700  209.4140  154.8010 C   0  0  1  0  0  3  0  0  0  0  0  0
  159.6480  211.3050  153.1230 C   0  0  1  0  0  3  0  0  0  0  0  0
  159.7500  213.4950  151.3110 S   0  0  0  0  0  0  0  0  0  0  0  0
  158.5860  214.4530  152.3410 C   0  0  0  0  0  2  0  0  0  0  0  0
  159.5760  212.9390  156.1070 S   0  0  0  0  0  0  0  0  0  0  0  0
  161.1820  206.8520  151.8250 C   0  0  1  0  0  3  0  0  0  0  0  0
  161.5950  206.7330  148.5740 C   0  0  0  0  0  2  0  0  0  0  0  0
  160.6770  210.5100  152.3250 C   0  0  0  0  0  2  0  0  0  0  0  0
  158.7850  211.5830  155.3750 O   0  0  0  0  0  0  0  0  0  0  0  0
  161.2850  208.3520  151.5280 C   0  0  2  0  0  3  0  0  0  0  0  0
  162.0080  204.6520  151.8330 C   0  0  0  0  0  2  0  0  0  0  0  0
  159.7700  210.9290  154.6140 C   0  0  1  0  0  3  0  0  0  0  0  0
  159.0520  214.1900  154.8560 C   0  0  0  0  0  2  0  0  0  0  0  0
  161.2350  205.6790  149.6330 C   0  0  2  0  0  3  0  0  0  0  0  0
  160.6670  208.7090  153.8630 C   0  0  2  0  0  3  0  0  0  0  0  0
  159.9020  212.7970  152.9840 C   0  0  1  0  0  3  0  0  0  0  0  0
  160.3970  209.0780  152.4560 N   0  0  1  0  0  0  0  0  0  0  0  0
  159.9190  207.5380  156.4480 C   0  0  0  0  0  2  0  0  0  0  0  0
  161.9020  208.1350  149.1070 C   0  0  0  0  0  2  0  0  0  0  0  0
  159.9760  209.0490  156.2540 C   0  0  0  0  0  2  0  0  0  0  0  0
  160.8460  208.6240  150.0850 C   0  0  0  0  0  2  0  0  0  0  0  0
  161.9730  205.8990  150.9580 C   0  0  1  0  0  3  0  0  0  0  0  0
  160.9300  206.8570  155.5310 C   0  0  0  0  0  2  0  0  0  0  0  0
  161.6040  206.5770  153.1820 N   0  0  1  0  0  0  0  0  0  0  0  0
  161.5050  204.4100  149.1100 O   0  0  0  0  0  0  0  0  0  0  0  0
  161.2690  204.5320  147.7380 C   0  0  0  0  0  2  0  0  0  0  0  0
  160.2430  201.5890  146.8020 O   0  0  0  0  0  0  0  0  0  0  0  0
  161.3290  203.3010  145.5950 C   0  0  0  0  0  2  0  0  0  0  0  0
  161.8390  203.3290  147.0070 C   0  0  2  0  0  3  0  0  0  0  0  0
  160.5810  201.9940  145.5040 C   0  0  0  0  0  2  0  0  0  0  0  0
  161.2840  202.0610  147.6160 C   0  0  0  0  0  2  0  0  0  0  0  0
  1 26  1  1  0  0  0
  3  7  1  6  0  0  0
  3 16  1  0  0  0  0
  4 23  1  1  0  0  0
  5 11  1  6  0  0  0
  5 15  1  0  0  0  0
  6  7  1  0  0  0  0
  6 19  1  0  0  0  0
  9 27  1  0  0  0  0
 10 22  1  0  0  0  0
 10 17  1  0  0  0  0
 11 20  1  0  0  0  0
 12  8  1  0  0  0  0
 13  9  1  0  0  0  0
 13 20  1  0  0  0  0
 14  2  1  0  0  0  0
 15  4  1  0  0  0  0
 15 12  1  0  0  0  0
 16  8  1  0  0  0  0
 17 25  1  0  0  0  0
 18  1  1  0  0  0  0
 18  4  1  0  0  0  0
 19  5  1  0  0  0  0
 19  3  1  0  0  0  0
 20 18  1  0  0  0  0
 22 24  1  0  0  0  0
 23 21  1  0  0  0  0
 24 13  1  0  0  0  0
 25  9  1  0  0  0  0
 25 14  1  0  0  0  0
 26 21  1  0  0  0  0
 27  2  1  0  0  0  0
 27  1  1  0  0  0  0
 28 17  1  0  0  0  0
 29 28  1  0  0  0  0
 30 34  1  0  0  0  0
 31 32  1  0  0  0  0
 32 34  1  0  0  0  0
 32 29  1  0  0  0  0
 33 31  1  0  0  0  0
 33 30  1  0  0  0  0
M  END
>  <MODEL>
2

>  <REMARK>
 VINA RESULT:      -7.7      3.118      9.080
  Name = 
  3 active torsions:
  status: ('A' for Active; 'I' for Inactive)
    1  A    between atoms: C_17  and  O_28
    2  A    between atoms: O_28  and  C_29
    3  A    between atoms: C_29  and  C_32
                            x       y       z     vdW  Elec       q    Type
                         _______ _______ _______ _____ _____    ______ ____

>  <TORSDO>
F 3

$$$$
=
 OpenBabel11122414283D

 34 41  0  0  1  0  0  0  0  0999 V2000
  161.3130  204.9440  152.0530 C   0  0  2  0  0  3  0  0  0  0  0  0
  161.1270  206.3750  154.0010 C   0  0  0  0  0  2  0  0  0  0  0  0
  161.6880  203.8080  145.5060 C   0  0  2  0  0  3  0  0  0  0  0  0
  161.4620  203.5970  149.9120 C   0  0  1  0  0  3  0  0  0  0  0  0
  161.4560  204.8500  147.7150 C   0  0  1  0  0  3  0  0  0  0  0  0
  161.2960  206.2140  145.2250 S   0  0  0  0  0  0  0  0  0  0  0  0
  161.8860  204.7350  144.3310 C   0  0  0  0  0  2  0  0  0  0  0  0
  160.3580  201.7530  146.8260 S   0  0  0  0  0  0  0  0  0  0  0  0
  161.4360  207.2760  151.9550 C   0  0  1  0  0  3  0  0  0  0  0  0
  161.9160  210.4710  151.3980 C   0  0  0  0  0  2  0  0  0  0  0  0
  160.8920  206.0420  148.4810 C   0  0  0  0  0  2  0  0  0  0  0  0
  161.6160  202.4290  147.8080 O   0  0  0  0  0  0  0  0  0  0  0  0
  161.0520  207.3350  150.4730 C   0  0  2  0  0  3  0  0  0  0  0  0
  161.1950  207.8860  154.2120 C   0  0  0  0  0  2  0  0  0  0  0  0
  161.0490  203.5490  148.4390 C   0  0  1  0  0  3  0  0  0  0  0  0
  160.8670  202.5600  145.2460 C   0  0  0  0  0  2  0  0  0  0  0  0
  162.2360  209.5460  152.5820 C   0  0  2  0  0  3  0  0  0  0  0  0
  160.9420  204.8970  150.5540 C   0  0  2  0  0  3  0  0  0  0  0  0
  160.8920  204.8060  146.3040 C   0  0  1  0  0  3  0  0  0  0  0  0
  161.4670  206.0740  149.8280 N   0  0  1  0  0  0  0  0  0  0  0  0
  161.2600  202.4410  152.1290 C   0  0  0  0  0  2  0  0  0  0  0  0
  161.1510  209.8290  150.2370 C   0  0  0  0  0  2  0  0  0  0  0  0
  160.8910  202.3870  150.6510 C   0  0  0  0  0  2  0  0  0  0  0  0
  161.7680  208.5110  149.7990 C   0  0  0  0  0  2  0  0  0  0  0  0
  161.1510  208.4870  152.8130 C   0  0  1  0  0  3  0  0  0  0  0  0
  160.7160  203.7210  152.7550 C   0  0  0  0  0  2  0  0  0  0  0  0
  160.7580  206.1750  152.6070 N   0  0  1  0  0  0  0  0  0  0  0  0
  162.4260  210.3300  153.7240 O   0  0  0  0  0  0  0  0  0  0  0  0
  161.1940  210.9550  153.9360 C   0  0  0  0  0  2  0  0  0  0  0  0
  160.0440  209.8690  156.7790 O   0  0  0  0  0  0  0  0  0  0  0  0
  162.1480  210.7700  156.2090 C   0  0  0  0  0  2  0  0  0  0  0  0
  161.1060  211.4500  155.3700 C   0  0  2  0  0  3  0  0  0  0  0  0
  161.3500  210.0370  157.2580 C   0  0  0  0  0  2  0  0  0  0  0  0
  159.7990  210.9940  155.9790 C   0  0  0  0  0  2  0  0  0  0  0  0
  1 27  1  0  0  0  0
  1 26  1  1  0  0  0
  2 14  1  0  0  0  0
  3  7  1  6  0  0  0
  3 19  1  0  0  0  0
  4 18  1  0  0  0  0
  4 23  1  1  0  0  0
  5 15  1  0  0  0  0
  5 11  1  1  0  0  0
  6 19  1  0  0  0  0
  7  6  1  0  0  0  0
  8 12  1  0  0  0  0
  9 27  1  0  0  0  0
  9 25  1  0  0  0  0
 10 17  1  0  0  0  0
 11 20  1  0  0  0  0
 12 15  1  0  0  0  0
 13  9  1  0  0  0  0
 15  4  1  0  0  0  0
 16  3  1  0  0  0  0
 16  8  1  0  0  0  0
 17 25  1  0  0  0  0
 17 28  1  0  0  0  0
 18  1  1  0  0  0  0
 19  5  1  0  0  0  0
 20 13  1  0  0  0  0
 20 18  1  0  0  0  0
 21 26  1  0  0  0  0
 22 10  1  0  0  0  0
 23 21  1  0  0  0  0
 24 22  1  0  0  0  0
 24 13  1  0  0  0  0
 25 14  1  0  0  0  0
 27  2  1  0  0  0  0
 28 29  1  0  0  0  0
 29 32  1  0  0  0  0
 30 33  1  0  0  0  0
 31 33  1  0  0  0  0
 32 34  1  0  0  0  0
 32 31  1  0  0  0  0
 34 30  1  0  0  0  0
M  END
>  <MODEL>
3

>  <REMARK>
 VINA RESULT:      -7.5      2.088      4.510
  Name = 
  3 active torsions:
  status: ('A' for Active; 'I' for Inactive)
    1  A    between atoms: C_17  and  O_28
    2  A    between atoms: O_28  and  C_29
    3  A    between atoms: C_29  and  C_32
                            x       y       z     vdW  Elec       q    Type
                         _______ _______ _______ _____ _____    ______ ____

>  <TORSDO>
F 3

$$$$
=
 OpenBabel11122414283D

 34 41  0  0  1  0  0  0  0  0999 V2000
  161.9130  208.5250  149.5840 C   0  0  2  0  0  3  0  0  0  0  0  0
  161.8520  207.2690  147.5110 C   0  0  0  0  0  2  0  0  0  0  0  0
  161.1250  209.2230  156.1550 C   0  0  2  0  0  3  0  0  0  0  0  0
  161.8830  209.6970  151.8300 C   0  0  1  0  0  3  0  0  0  0  0  0
  161.1540  208.3700  153.8550 C   0  0  1  0  0  3  0  0  0  0  0  0
  160.1930  206.9530  156.1260 S   0  0  0  0  0  0  0  0  0  0  0  0
  160.8740  208.2180  157.2540 C   0  0  0  0  0  2  0  0  0  0  0  0
  160.5570  211.5850  154.8000 S   0  0  0  0  0  0  0  0  0  0  0  0
  161.5290  206.2220  149.4840 C   0  0  1  0  0  3  0  0  0  0  0  0
  161.2100  202.9760  149.8200 C   0  0  0  0  0  2  0  0  0  0  0  0
  160.5310  207.3720  152.8850 C   0  0  0  0  0  2  0  0  0  0  0  0
  161.8270  210.6970  154.0240 O   0  0  0  0  0  0  0  0  0  0  0  0
  160.8370  206.1760  150.8500 C   0  0  2  0  0  3  0  0  0  0  0  0
  161.6490  205.7930  147.1760 C   0  0  0  0  0  2  0  0  0  0  0  0
  161.1870  209.7620  153.1910 C   0  0  1  0  0  3  0  0  0  0  0  0
  160.5430  210.6080  156.3660 C   0  0  0  0  0  2  0  0  0  0  0  0
  161.9560  203.8650  148.8140 C   0  0  2  0  0  3  0  0  0  0  0  0
  161.2530  208.5790  150.9790 C   0  0  2  0  0  3  0  0  0  0  0  0
  160.3270  208.4670  155.1270 C   0  0  1  0  0  3  0  0  0  0  0  0
  161.3580  207.2800  151.6800 N   0  0  1  0  0  0  0  0  0  0  0  0
  162.3970  210.9780  149.7350 C   0  0  0  0  0  2  0  0  0  0  0  0
  160.3660  203.7130  150.8650 C   0  0  0  0  0  2  0  0  0  0  0  0
  161.7430  211.0390  151.1110 C   0  0  0  0  0  2  0  0  0  0  0  0
  161.1360  204.8390  151.5370 C   0  0  0  0  0  2  0  0  0  0  0  0
  161.1870  205.1480  148.4770 C   0  0  1  0  0  3  0  0  0  0  0  0
  161.7450  209.8830  148.8970 C   0  0  0  0  0  2  0  0  0  0  0  0
  161.2460  207.4760  148.8180 N   0  0  1  0  0  0  0  0  0  0  0  0
  162.2170  203.1160  147.6630 O   0  0  0  0  0  0  0  0  0  0  0  0
  160.9560  202.7660  147.1720 C   0  0  0  0  0  2  0  0  0  0  0  0
  158.9560  201.7720  144.8060 O   0  0  0  0  0  0  0  0  0  0  0  0
  160.4700  203.5790  144.8900 C   0  0  0  0  0  2  0  0  0  0  0  0
  161.0480  202.4480  145.6900 C   0  0  2  0  0  3  0  0  0  0  0  0
  159.3270  202.9460  144.1360 C   0  0  0  0  0  2  0  0  0  0  0  0
  160.1430  201.2800  145.3690 C   0  0  0  0  0  2  0  0  0  0  0  0
  1 26  1  6  0  0  0
  1 18  1  0  0  0  0
  2 27  1  0  0  0  0
  3 16  1  1  0  0  0
  3  7  1  0  0  0  0
  4 23  1  6  0  0  0
  4 15  1  0  0  0  0
  5 11  1  6  0  0  0
  5 19  1  0  0  0  0
  6  7  1  0  0  0  0
  8 16  1  0  0  0  0
  9 13  1  0  0  0  0
 10 22  1  0  0  0  0
 12  8  1  0  0  0  0
 13 24  1  0  0  0  0
 13 20  1  0  0  0  0
 14  2  1  0  0  0  0
 14 25  1  0  0  0  0
 15  5  1  0  0  0  0
 15 12  1  0  0  0  0
 17 10  1  0  0  0  0
 18 20  1  0  0  0  0
 18  4  1  0  0  0  0
 19  6  1  0  0  0  0
 19  3  1  0  0  0  0
 20 11  1  0  0  0  0
 21 23  1  0  0  0  0
 22 24  1  0  0  0  0
 25 17  1  0  0  0  0
 25  9  1  0  0  0  0
 26 21  1  0  0  0  0
 27  9  1  0  0  0  0
 27  1  1  0  0  0  0
 28 17  1  0  0  0  0
 29 28  1  0  0  0  0
 30 34  1  0  0  0  0
 31 32  1  0  0  0  0
 32 29  1  0  0  0  0
 33 30  1  0  0  0  0
 33 31  1  0  0  0  0
 34 32  1  0  0  0  0
M  END
>  <MODEL>
4

>  <REMARK>
 VINA RESULT:      -7.1      2.915      8.499
  Name = 
  3 active torsions:
  status: ('A' for Active; 'I' for Inactive)
    1  A    between atoms: C_17  and  O_28
    2  A    between atoms: O_28  and  C_29
    3  A    between atoms: C_29  and  C_32
                            x       y       z     vdW  Elec       q    Type
                         _______ _______ _______ _____ _____    ______ ____

>  <TORSDO>
F 3

$$$$
