=
 OpenBabel11122413583D

 37 43  0  0  1  0  0  0  0  0999 V2000
  160.6520  210.4730  155.5190 C   0  0  2  0  0  3  0  0  0  0  0  0
  159.2270  213.1580  152.0320 C   0  0  0  0  0  0  0  0  0  0  0  0
  161.6910  210.0950  150.7910 C   0  0  0  0  0  0  0  0  0  0  0  0
  161.4760  206.9410  152.8920 O   0  0  0  0  0  0  0  0  0  0  0  0
  160.8440  212.2850  150.3020 C   0  0  0  0  0  0  0  0  0  0  0  0
  161.7880  209.1600  151.9730 C   0  0  2  0  0  3  0  0  0  0  0  0
  160.3330  208.1530  156.2180 N   0  0  0  0  0  0  0  0  0  0  0  0
  161.1800  211.2860  151.1960 C   0  0  0  0  0  0  0  0  0  0  0  0
  161.2050  207.7310  151.7590 C   0  0  1  0  0  3  0  0  0  0  0  0
  161.1360  212.1100  148.9820 N   0  0  0  0  0  0  0  0  0  0  0  0
  159.6370  209.3820  155.8500 C   0  0  0  0  0  2  0  0  0  0  0  0
  160.7980  211.2920  152.5440 N   0  0  0  0  0  0  0  0  0  0  0  0
  158.0210  212.3510  151.5810 C   0  0  0  0  0  1  0  0  0  0  0  0
  162.4390  208.5820  148.9360 C   0  0  0  0  0  2  0  0  0  0  0  0
  161.7000  210.9440  148.5350 C   0  0  0  0  0  3  0  0  0  0  0  0
  159.9960  212.3750  153.1180 C   0  0  0  0  0  2  0  0  0  0  0  0
  161.2160  207.7240  155.1180 C   0  0  1  0  0  3  0  0  0  0  0  0
  160.5000  207.2180  153.8540 C   0  0  0  0  0  2  0  0  0  0  0  0
  161.9850  209.8990  149.4370 C   0  0  0  0  0  0  0  0  0  0  0  0
  160.9700  209.9360  153.0600 C   0  0  2  0  0  3  0  0  0  0  0  0
  160.1200  213.4970  150.8140 C   0  0  0  0  0  2  0  0  0  0  0  0
  161.8320  207.0010  150.5460 C   0  0  2  0  0  3  0  0  0  0  0  0
  158.7300  214.4530  152.6370 C   0  0  0  0  0  1  0  0  0  0  0  0
  162.2050  208.7010  154.8210 O   0  0  0  0  0  0  0  0  0  0  0  0
  159.3370  207.1310  156.5000 C   0  0  0  0  0  1  0  0  0  0  0  0
  161.6250  209.9470  154.4540 C   0  0  2  0  0  3  0  0  0  0  0  0
  161.4340  207.5920  149.2780 N   0  0  0  0  0  2  0  0  0  0  0  0
  161.4950  204.7840  151.7130 C   0  0  0  0  0  3  0  0  0  0  0  0
  161.4940  205.5400  150.5300 C   0  0  0  0  0  0  0  0  0  0  0  0
  161.1790  204.9230  149.3150 C   0  0  0  0  0  3  0  0  0  0  0  0
  160.5640  202.9670  148.1000 F   0  0  0  0  0  0  0  0  0  0  0  0
  160.8700  202.8100  150.4580 C   0  0  0  0  0  3  0  0  0  0  0  0
  160.8680  203.5600  149.2780 C   0  0  0  0  0  0  0  0  0  0  0  0
  161.1840  203.4220  151.6750 C   0  0  0  0  0  3  0  0  0  0  0  0
  161.4020  210.9300  156.7660 C   0  0  0  0  0  3  0  0  0  0  0  0
  162.7440  211.0880  156.4780 F   0  0  0  0  0  0  0  0  0  0  0  0
  160.8910  212.1360  157.2090 F   0  0  0  0  0  0  0  0  0  0  0  0
  1 11  1  0  0  0  0
  1 35  1  1  0  0  0
  2 23  1  0  0  0  0
  2 16  1  0  0  0  0
  3  8  1  0  0  0  0
  4 18  1  0  0  0  0
  5 21  1  0  0  0  0
  5  8  2  0  0  0  0
  6  3  1  6  0  0  0
  6 20  1  0  0  0  0
  7 25  1  0  0  0  0
  8 12  1  0  0  0  0
  9  6  1  0  0  0  0
  9  4  1  1  0  0  0
 10  5  1  0  0  0  0
 11  7  1  0  0  0  0
 12 16  1  0  0  0  0
 13  2  1  0  0  0  0
 14 27  1  0  0  0  0
 14 19  1  0  0  0  0
 15 10  2  0  0  0  0
 15 19  1  0  0  0  0
 17 18  1  6  0  0  0
 17  7  1  0  0  0  0
 19  3  2  0  0  0  0
 20 12  1  6  0  0  0
 20 26  1  0  0  0  0
 21  2  1  0  0  0  0
 22 29  1  6  0  0  0
 22  9  1  0  0  0  0
 24 17  1  0  0  0  0
 26 24  1  1  0  0  0
 26  1  1  0  0  0  0
 27 22  1  0  0  0  0
 29 28  2  0  0  0  0
 30 29  1  0  0  0  0
 31 33  1  0  0  0  0
 32 34  2  0  0  0  0
 33 30  2  0  0  0  0
 33 32  1  0  0  0  0
 34 28  1  0  0  0  0
 35 37  1  0  0  0  0
 36 35  1  0  0  0  0
M  END
>  <MODEL>
1

>  <REMARK>
 VINA RESULT:      -6.6      0.000      0.000
  Name = 
  2 active torsions:
  status: ('A' for Active; 'I' for Inactive)
    1  A    between atoms: C_1  and  C_4
    2  A    between atoms: C_23  and  C_30
                            x       y       z     vdW  Elec       q    Type
                         _______ _______ _______ _____ _____    ______ ____

>  <TORSDO>
F 2

$$$$
=
 OpenBabel11122413583D

 37 43  0  0  1  0  0  0  0  0999 V2000
  161.6770  211.8430  148.0360 C   0  0  2  0  0  3  0  0  0  0  0  0
  161.7820  207.2950  148.8790 C   0  0  0  0  0  0  0  0  0  0  0  0
  161.5810  209.5570  152.3190 C   0  0  0  0  0  0  0  0  0  0  0  0
  159.7320  212.8500  151.9420 O   0  0  0  0  0  0  0  0  0  0  0  0
  162.2350  207.4600  151.3550 C   0  0  0  0  0  0  0  0  0  0  0  0
  161.2340  210.9510  151.8570 C   0  0  2  0  0  3  0  0  0  0  0  0
  160.0770  213.6650  148.3290 N   0  0  0  0  0  0  0  0  0  0  0  0
  161.9920  208.8170  151.2570 C   0  0  0  0  0  0  0  0  0  0  0  0
  159.8630  211.5070  152.3440 C   0  0  1  0  0  3  0  0  0  0  0  0
  162.1670  206.8680  152.5820 N   0  0  0  0  0  0  0  0  0  0  0  0
  160.2610  212.3380  147.7530 C   0  0  0  0  0  2  0  0  0  0  0  0
  161.8890  209.4990  150.0370 N   0  0  0  0  0  0  0  0  0  0  0  0
  160.2890  207.0330  148.9810 C   0  0  0  0  0  1  0  0  0  0  0  0
  160.9500  209.6970  154.7420 C   0  0  0  0  0  2  0  0  0  0  0  0
  161.8070  207.5880  153.6910 C   0  0  0  0  0  3  0  0  0  0  0  0
  162.0320  208.8140  148.7510 C   0  0  0  0  0  2  0  0  0  0  0  0
  160.3320  213.6270  149.7810 C   0  0  1  0  0  3  0  0  0  0  0  0
  159.2910  212.8630  150.6160 C   0  0  0  0  0  2  0  0  0  0  0  0
  161.4960  208.9570  153.5810 C   0  0  0  0  0  0  0  0  0  0  0  0
  161.2440  210.7830  150.3000 C   0  0  2  0  0  3  0  0  0  0  0  0
  162.5100  206.6840  150.1000 C   0  0  0  0  0  2  0  0  0  0  0  0
  159.7180  211.4870  153.8850 C   0  0  2  0  0  3  0  0  0  0  0  0
  162.2960  206.6180  147.6260 C   0  0  0  0  0  1  0  0  0  0  0  0
  161.6620  213.2170  150.0730 O   0  0  0  0  0  0  0  0  0  0  0  0
  158.7120  214.0930  148.0640 C   0  0  0  0  0  1  0  0  0  0  0  0
  161.9460  211.9270  149.5450 C   0  0  2  0  0  3  0  0  0  0  0  0
  159.6060  210.1350  154.4130 N   0  0  0  0  0  2  0  0  0  0  0  0
  158.7200  213.4610  155.1080 C   0  0  0  0  0  3  0  0  0  0  0  0
  158.5410  212.2910  154.3530 C   0  0  0  0  0  0  0  0  0  0  0  0
  157.2480  211.8640  154.0340 C   0  0  0  0  0  3  0  0  0  0  0  0
  154.8890  212.1780  154.1560 F   0  0  0  0  0  0  0  0  0  0  0  0
  156.3190  213.7610  155.2180 C   0  0  0  0  0  3  0  0  0  0  0  0
  156.1380  212.5960  154.4660 C   0  0  0  0  0  0  0  0  0  0  0  0
  157.6090  214.1930  155.5390 C   0  0  0  0  0  3  0  0  0  0  0  0
  162.7110  212.6430  147.2510 C   0  0  0  0  0  3  0  0  0  0  0  0
  163.9640  212.0790  147.4100 F   0  0  0  0  0  0  0  0  0  0  0  0
  162.3860  212.6450  145.9070 F   0  0  0  0  0  0  0  0  0  0  0  0
  1 35  1  6  0  0  0
  1 26  1  0  0  0  0
  2 13  1  0  0  0  0
  2 21  1  0  0  0  0
  3 19  1  0  0  0  0
  5 10  2  0  0  0  0
  6  3  1  1  0  0  0
  6  9  1  0  0  0  0
  7 17  1  0  0  0  0
  8  5  1  0  0  0  0
  8  3  2  0  0  0  0
  9  4  1  1  0  0  0
  9 22  1  0  0  0  0
 10 15  1  0  0  0  0
 11  1  1  0  0  0  0
 11  7  1  0  0  0  0
 12  8  1  0  0  0  0
 16  2  1  0  0  0  0
 16 12  1  0  0  0  0
 17 24  1  0  0  0  0
 17 18  1  1  0  0  0
 18  4  1  0  0  0  0
 19 15  2  0  0  0  0
 19 14  1  0  0  0  0
 20 12  1  1  0  0  0
 20  6  1  0  0  0  0
 21  5  1  0  0  0  0
 22 29  1  6  0  0  0
 22 27  1  0  0  0  0
 23  2  1  0  0  0  0
 25  7  1  0  0  0  0
 26 24  1  1  0  0  0
 26 20  1  0  0  0  0
 27 14  1  0  0  0  0
 28 34  1  0  0  0  0
 29 28  2  0  0  0  0
 30 29  1  0  0  0  0
 30 33  2  0  0  0  0
 31 33  1  0  0  0  0
 32 34  2  0  0  0  0
 33 32  1  0  0  0  0
 35 36  1  0  0  0  0
 37 35  1  0  0  0  0
M  END
>  <MODEL>
2

>  <REMARK>
 VINA RESULT:      -6.3      3.426      7.843
  Name = 
  2 active torsions:
  status: ('A' for Active; 'I' for Inactive)
    1  A    between atoms: C_1  and  C_4
    2  A    between atoms: C_23  and  C_30
                            x       y       z     vdW  Elec       q    Type
                         _______ _______ _______ _____ _____    ______ ____

>  <TORSDO>
F 2

$$$$
=
 OpenBabel11122413583D

 37 43  0  0  1  0  0  0  0  0999 V2000
  160.6300  210.2080  155.3770 C   0  0  2  0  0  3  0  0  0  0  0  0
  158.4750  213.5050  152.9510 C   0  0  0  0  0  0  0  0  0  0  0  0
  161.2570  211.4370  150.7210 C   0  0  0  0  0  0  0  0  0  0  0  0
  161.7410  207.8170  151.7570 O   0  0  0  0  0  0  0  0  0  0  0  0
  160.0350  213.4860  150.9680 C   0  0  0  0  0  0  0  0  0  0  0  0
  161.6120  210.2270  151.5520 C   0  0  2  0  0  3  0  0  0  0  0  0
  160.7470  207.7680  155.3410 N   0  0  0  0  0  0  0  0  0  0  0  0
  160.6070  212.3440  151.4950 C   0  0  0  0  0  0  0  0  0  0  0  0
  161.2430  208.8460  150.9340 C   0  0  1  0  0  3  0  0  0  0  0  0
  160.2230  213.7640  149.6460 N   0  0  0  0  0  0  0  0  0  0  0  0
  159.8350  208.9050  155.4000 C   0  0  0  0  0  2  0  0  0  0  0  0
  160.3600  211.8830  152.7950 N   0  0  0  0  0  0  0  0  0  0  0  0
  157.3720  212.6660  152.3270 C   0  0  0  0  0  1  0  0  0  0  0  0
  162.0520  210.6990  148.4600 C   0  0  0  0  0  2  0  0  0  0  0  0
  160.9170  212.9020  148.8380 C   0  0  0  0  0  3  0  0  0  0  0  0
  159.4580  212.5860  153.7090 C   0  0  0  0  0  2  0  0  0  0  0  0
  161.5760  207.8470  154.1240 C   0  0  1  0  0  3  0  0  0  0  0  0
  160.8310  207.6190  152.7990 C   0  0  0  0  0  2  0  0  0  0  0  0
  161.4470  211.7060  149.3610 C   0  0  0  0  0  0  0  0  0  0  0  0
  160.7910  210.4880  152.8610 C   0  0  2  0  0  3  0  0  0  0  0  0
  159.1820  214.3420  151.8590 C   0  0  0  0  0  2  0  0  0  0  0  0
  161.8570  208.6310  149.5300 C   0  0  2  0  0  3  0  0  0  0  0  0
  157.8420  214.4530  153.9460 C   0  0  0  0  0  1  0  0  0  0  0  0
  162.3670  209.0280  154.1000 O   0  0  0  0  0  0  0  0  0  0  0  0
  159.9550  206.5470  155.3380 C   0  0  0  0  0  1  0  0  0  0  0  0
  161.5670  210.2030  154.1600 C   0  0  2  0  0  3  0  0  0  0  0  0
  161.2510  209.4900  148.5240 N   0  0  0  0  0  2  0  0  0  0  0  0
  161.0400  206.2580  149.8340 C   0  0  0  0  0  3  0  0  0  0  0  0
  161.7520  207.2040  149.0800 C   0  0  0  0  0  0  0  0  0  0  0  0
  162.3790  206.8130  147.8920 C   0  0  0  0  0  3  0  0  0  0  0  0
  162.9060  205.1110  146.3080 F   0  0  0  0  0  0  0  0  0  0  0  0
  161.5880  204.5460  148.2120 C   0  0  0  0  0  3  0  0  0  0  0  0
  162.2980  205.4860  147.4580 C   0  0  0  0  0  0  0  0  0  0  0  0
  160.9600  204.9320  149.3990 C   0  0  0  0  0  3  0  0  0  0  0  0
  161.4150  210.4020  156.6700 C   0  0  0  0  0  3  0  0  0  0  0  0
  162.7720  210.3530  156.4100 F   0  0  0  0  0  0  0  0  0  0  0  0
  161.1080  211.6280  157.2300 F   0  0  0  0  0  0  0  0  0  0  0  0
  1 11  1  0  0  0  0
  1 35  1  1  0  0  0
  2 16  1  0  0  0  0
  2 23  1  0  0  0  0
  3  8  1  0  0  0  0
  4 18  1  0  0  0  0
  5  8  2  0  0  0  0
  5 21  1  0  0  0  0
  6  3  1  6  0  0  0
  6 20  1  0  0  0  0
  7 11  1  0  0  0  0
  8 12  1  0  0  0  0
  9  6  1  0  0  0  0
  9  4  1  1  0  0  0
 10  5  1  0  0  0  0
 12 16  1  0  0  0  0
 13  2  1  0  0  0  0
 14 27  1  0  0  0  0
 14 19  1  0  0  0  0
 15 19  1  0  0  0  0
 15 10  2  0  0  0  0
 17 18  1  6  0  0  0
 17  7  1  0  0  0  0
 19  3  2  0  0  0  0
 20 12  1  1  0  0  0
 20 26  1  0  0  0  0
 21  2  1  0  0  0  0
 22 29  1  6  0  0  0
 22  9  1  0  0  0  0
 24 17  1  0  0  0  0
 25  7  1  0  0  0  0
 26 24  1  6  0  0  0
 26  1  1  0  0  0  0
 27 22  1  0  0  0  0
 29 28  2  0  0  0  0
 30 29  1  0  0  0  0
 31 33  1  0  0  0  0
 32 34  2  0  0  0  0
 33 30  2  0  0  0  0
 33 32  1  0  0  0  0
 34 28  1  0  0  0  0
 35 37  1  0  0  0  0
 36 35  1  0  0  0  0
M  END
>  <MODEL>
3

>  <REMARK>
 VINA RESULT:      -6.1      1.351      1.727
  Name = 
  2 active torsions:
  status: ('A' for Active; 'I' for Inactive)
    1  A    between atoms: C_1  and  C_4
    2  A    between atoms: C_23  and  C_30
                            x       y       z     vdW  Elec       q    Type
                         _______ _______ _______ _____ _____    ______ ____

>  <TORSDO>
F 2

$$$$
