=
 OpenBabel11122412313D

 30 35  0  0  1  0  0  0  0  0999 V2000
  161.3920  206.0620  149.9270 C   0  0  1  0  0  3  0  0  0  0  0  0
  161.3440  203.5140  149.6960 C   0  0  0  0  0  0  0  0  0  0  0  0
  160.8150  205.6150  154.0960 N   0  0  0  0  0  2  0  0  0  0  0  0
  161.7420  207.1200  150.9880 C   0  0  1  0  0  3  0  0  0  0  0  0
  162.3470  206.1070  148.8900 O   0  0  0  0  0  0  0  0  0  0  0  0
  162.1320  209.7730  148.3590 N   0  0  0  0  0  1  0  0  0  0  0  0
  160.4380  209.9200  151.9750 C   0  0  1  0  0  3  0  0  0  0  0  0
  162.4700  208.5410  149.0620 C   0  0  2  0  0  3  0  0  0  0  0  0
  160.4060  209.1900  153.3060 C   0  0  2  0  0  3  0  0  0  0  0  0
  160.8510  207.0090  154.5310 C   0  0  1  0  0  3  0  0  0  0  0  0
  162.1750  207.3150  148.1750 C   0  0  2  0  0  3  0  0  0  0  0  0
  161.7690  208.4530  150.3530 N   0  0  0  0  0  0  0  0  0  0  0  0
  161.1820  202.2440  150.2580 C   0  0  0  0  0  3  0  0  0  0  0  0
  160.9870  210.1830  154.2840 C   0  0  0  0  0  2  0  0  0  0  0  0
  160.3380  211.3840  152.3670 C   0  0  0  0  0  2  0  0  0  0  0  0
  161.5880  203.6120  148.3300 O   0  0  0  0  0  1  0  0  0  0  0  0
  160.7480  205.6760  152.6970 N   0  0  0  0  0  0  0  0  0  0  0  0
  160.9010  202.1040  151.6170 C   0  0  0  0  0  3  0  0  0  0  0  0
  161.2530  204.6660  150.5080 C   0  0  0  0  0  0  0  0  0  0  0  0
  160.7450  207.0140  152.1450 C   0  0  1  0  0  3  0  0  0  0  0  0
  161.9260  207.1850  155.5860 C   0  0  0  0  0  1  0  0  0  0  0  0
  161.1700  207.8680  153.3120 C   0  0  1  0  0  3  0  0  0  0  0  0
  160.7160  211.5220  153.7720 N   0  0  0  0  0  2  0  0  0  0  0  0
  162.6670  210.4340  151.2150 O   0  0  0  0  0  0  0  0  0  0  0  0
  160.7640  203.2350  152.4200 C   0  0  0  0  0  3  0  0  0  0  0  0
  160.9180  204.5150  151.8710 C   0  0  0  0  0  0  0  0  0  0  0  0
  161.6850  209.6430  151.1640 C   0  0  0  0  0  0  0  0  0  0  0  0
  160.8220  207.3870  147.4500 C   0  0  0  0  0  2  0  0  0  0  0  0
  161.9790  206.1000  145.8060 O   0  0  0  0  0  1  0  0  0  0  0  0
  160.7240  206.3170  146.3770 C   0  0  0  0  0  2  0  0  0  0  0  0
  1  5  1  6  0  0  0
  1 19  1  0  0  0  0
  1  4  1  0  0  0  0
  2 13  2  0  0  0  0
  2 19  1  0  0  0  0
  3 10  1  0  0  0  0
  4 12  1  6  0  0  0
  4 20  1  0  0  0  0
  7 15  1  1  0  0  0
  7  9  1  0  0  0  0
  8  6  1  6  0  0  0
  8 12  1  0  0  0  0
  9 22  1  0  0  0  0
  9 14  1  1  0  0  0
 10 21  1  1  0  0  0
 11 28  1  1  0  0  0
 11  5  1  0  0  0  0
 11  8  1  0  0  0  0
 12 27  1  0  0  0  0
 13 18  1  0  0  0  0
 15 23  1  0  0  0  0
 16  2  1  0  0  0  0
 17  3  1  0  0  0  0
 18 25  2  0  0  0  0
 19 26  2  0  0  0  0
 20 17  1  1  0  0  0
 20 22  1  0  0  0  0
 22 10  1  0  0  0  0
 23 14  1  0  0  0  0
 26 25  1  0  0  0  0
 26 17  1  0  0  0  0
 27 24  2  0  0  0  0
 27  7  1  0  0  0  0
 29 30  1  0  0  0  0
 30 28  1  0  0  0  0
M  END
>  <MODEL>
1

>  <REMARK>
 VINA RESULT:      -7.1      0.000      0.000
  Name = 
  2 active torsions:
  status: ('A' for Active; 'I' for Inactive)
    1  A    between atoms: C_11  and  C_28
    2  A    between atoms: C_28  and  C_30
                            x       y       z     vdW  Elec       q    Type
                         _______ _______ _______ _____ _____    ______ ____

>  <TORSDO>
F 2

$$$$
=
 OpenBabel11122412313D

 30 35  0  0  1  0  0  0  0  0999 V2000
  161.5230  207.6830  151.2700 C   0  0  1  0  0  3  0  0  0  0  0  0
  161.9120  210.1770  150.8480 C   0  0  0  0  0  0  0  0  0  0  0  0
  161.9100  207.0000  147.1120 N   0  0  0  0  0  2  0  0  0  0  0  0
  161.8770  206.3330  150.6240 C   0  0  1  0  0  3  0  0  0  0  0  0
  162.2200  207.8140  152.4900 O   0  0  0  0  0  0  0  0  0  0  0  0
  161.2110  204.5070  153.8370 N   0  0  0  0  0  1  0  0  0  0  0  0
  160.2970  203.5560  150.0650 C   0  0  1  0  0  3  0  0  0  0  0  0
  161.9120  205.4360  152.9590 C   0  0  2  0  0  3  0  0  0  0  0  0
  160.6780  203.8770  148.6300 C   0  0  2  0  0  3  0  0  0  0  0  0
  161.7700  205.5460  147.0560 C   0  0  1  0  0  3  0  0  0  0  0  0
  161.6800  206.8900  153.4150 C   0  0  2  0  0  3  0  0  0  0  0  0
  161.5200  205.2420  151.5540 N   0  0  0  0  0  0  0  0  0  0  0  0
  162.1120  211.2450  149.9680 C   0  0  0  0  0  3  0  0  0  0  0  0
  161.2490  202.5820  148.1040 C   0  0  0  0  0  2  0  0  0  0  0  0
  160.0050  202.0660  150.0340 C   0  0  0  0  0  2  0  0  0  0  0  0
  161.8470  210.4400  152.2120 O   0  0  0  0  0  1  0  0  0  0  0  0
  161.5470  207.3470  148.4210 N   0  0  0  0  0  0  0  0  0  0  0  0
  162.1480  211.0290  148.5910 C   0  0  0  0  0  3  0  0  0  0  0  0
  161.7740  208.8640  150.3480 C   0  0  0  0  0  0  0  0  0  0  0  0
  161.1770  206.2320  149.2660 C   0  0  1  0  0  3  0  0  0  0  0  0
  162.9850  204.9440  146.3780 C   0  0  0  0  0  1  0  0  0  0  0  0
  161.6640  205.0360  148.4900 C   0  0  1  0  0  3  0  0  0  0  0  0
  160.6310  201.4890  148.8450 N   0  0  0  0  0  2  0  0  0  0  0  0
  162.1860  203.0010  151.4580 O   0  0  0  0  0  0  0  0  0  0  0  0
  161.9670  209.7430  148.0830 C   0  0  0  0  0  3  0  0  0  0  0  0
  161.7600  208.6630  148.9500 C   0  0  0  0  0  0  0  0  0  0  0  0
  161.3820  203.8920  151.0660 C   0  0  0  0  0  0  0  0  0  0  0  0
  160.2180  207.1990  153.7750 C   0  0  0  0  0  2  0  0  0  0  0  0
  161.3630  207.8170  155.7760 O   0  0  0  0  0  1  0  0  0  0  0  0
  160.0950  207.6250  155.2270 C   0  0  0  0  0  2  0  0  0  0  0  0
  1 19  1  6  0  0  0
  1  5  1  0  0  0  0
  2 16  1  0  0  0  0
  3 17  1  0  0  0  0
  4  1  1  0  0  0  0
  4 12  1  1  0  0  0
  5 11  1  0  0  0  0
  7 15  1  6  0  0  0
  7 27  1  0  0  0  0
  8 11  1  0  0  0  0
  8  6  1  1  0  0  0
  9 14  1  1  0  0  0
  9  7  1  0  0  0  0
 10 21  1  1  0  0  0
 10  3  1  0  0  0  0
 10 22  1  0  0  0  0
 11 28  1  6  0  0  0
 12  8  1  0  0  0  0
 13  2  2  0  0  0  0
 14 23  1  0  0  0  0
 17 26  1  0  0  0  0
 18 13  1  0  0  0  0
 19  2  1  0  0  0  0
 20 17  1  6  0  0  0
 20  4  1  0  0  0  0
 22  9  1  0  0  0  0
 22 20  1  0  0  0  0
 23 15  1  0  0  0  0
 25 18  2  0  0  0  0
 25 26  1  0  0  0  0
 26 19  2  0  0  0  0
 27 24  2  0  0  0  0
 27 12  1  0  0  0  0
 28 30  1  0  0  0  0
 30 29  1  0  0  0  0
M  END
>  <MODEL>
2

>  <REMARK>
 VINA RESULT:      -6.9      2.458      7.108
  Name = 
  2 active torsions:
  status: ('A' for Active; 'I' for Inactive)
    1  A    between atoms: C_11  and  C_28
    2  A    between atoms: C_28  and  C_30
                            x       y       z     vdW  Elec       q    Type
                         _______ _______ _______ _____ _____    ______ ____

>  <TORSDO>
F 2

$$$$
=
 OpenBabel11122412313D

 30 35  0  0  1  0  0  0  0  0999 V2000
  161.2850  204.4280  147.4070 C   0  0  1  0  0  3  0  0  0  0  0  0
  161.0710  202.4930  145.7460 C   0  0  0  0  0  0  0  0  0  0  0  0
  161.1100  201.6240  150.5730 N   0  0  0  0  0  2  0  0  0  0  0  0
  161.8000  204.6720  148.8360 C   0  0  1  0  0  3  0  0  0  0  0  0
  162.1320  205.0820  146.4870 O   0  0  0  0  0  0  0  0  0  0  0  0
  162.0710  208.3660  148.2140 N   0  0  0  0  0  1  0  0  0  0  0  0
  160.7620  206.3530  151.4080 C   0  0  1  0  0  3  0  0  0  0  0  0
  162.4080  206.9600  148.0250 C   0  0  2  0  0  3  0  0  0  0  0  0
  160.8250  204.9830  152.0600 C   0  0  2  0  0  3  0  0  0  0  0  0
  161.2690  202.5030  151.7300 C   0  0  1  0  0  3  0  0  0  0  0  0
  161.9570  206.4780  146.6330 C   0  0  2  0  0  3  0  0  0  0  0  0
  161.8370  206.1260  149.0950 N   0  0  0  0  0  0  0  0  0  0  0  0
  160.8960  201.1320  145.4800 C   0  0  0  0  0  3  0  0  0  0  0  0
  161.5570  205.2270  153.3580 C   0  0  0  0  0  2  0  0  0  0  0  0
  160.7860  207.3120  152.5860 C   0  0  0  0  0  2  0  0  0  0  0  0
  161.1800  203.3720  144.6750 O   0  0  0  0  0  1  0  0  0  0  0  0
  160.9060  202.4890  149.4880 N   0  0  0  0  0  0  0  0  0  0  0  0
  160.7470  200.2210  146.5260 C   0  0  0  0  0  3  0  0  0  0  0  0
  161.1280  202.9530  147.0800 C   0  0  0  0  0  0  0  0  0  0  0  0
  160.9210  203.8970  149.8220 C   0  0  1  0  0  3  0  0  0  0  0  0
  162.4530  202.0450  152.5580 C   0  0  0  0  0  1  0  0  0  0  0  0
  161.5110  203.9160  151.2090 C   0  0  1  0  0  3  0  0  0  0  0  0
  161.3120  206.6090  153.7540 N   0  0  0  0  0  2  0  0  0  0  0  0
  162.9290  207.2440  150.8370 O   0  0  0  0  0  0  0  0  0  0  0  0
  160.7560  200.6690  147.8460 C   0  0  0  0  0  3  0  0  0  0  0  0
  160.9250  202.0300  148.1300 C   0  0  0  0  0  0  0  0  0  0  0  0
  161.9040  206.6170  150.4500 C   0  0  0  0  0  0  0  0  0  0  0  0
  160.5430  206.9400  146.2460 C   0  0  0  0  0  2  0  0  0  0  0  0
  161.0270  206.2650  144.0080 O   0  0  0  0  0  1  0  0  0  0  0  0
  160.0540  206.2110  145.0070 C   0  0  0  0  0  2  0  0  0  0  0  0
  1  5  1  6  0  0  0
  1  4  1  0  0  0  0
  2 19  1  0  0  0  0
  3 10  1  0  0  0  0
  4 12  1  1  0  0  0
  4 20  1  0  0  0  0
  5 11  1  0  0  0  0
  7  9  1  0  0  0  0
  7 15  1  1  0  0  0
  8  6  1  1  0  0  0
  8 12  1  0  0  0  0
  9 14  1  1  0  0  0
 10 21  1  6  0  0  0
 11 28  1  1  0  0  0
 11  8  1  0  0  0  0
 12 27  1  0  0  0  0
 13  2  2  0  0  0  0
 13 18  1  0  0  0  0
 14 23  1  0  0  0  0
 15 23  1  0  0  0  0
 16  2  1  0  0  0  0
 17  3  1  0  0  0  0
 18 25  2  0  0  0  0
 19  1  1  0  0  0  0
 19 26  2  0  0  0  0
 20 17  1  6  0  0  0
 20 22  1  0  0  0  0
 22 10  1  0  0  0  0
 22  9  1  0  0  0  0
 25 26  1  0  0  0  0
 26 17  1  0  0  0  0
 27 24  2  0  0  0  0
 27  7  1  0  0  0  0
 29 30  1  0  0  0  0
 30 28  1  0  0  0  0
M  END
>  <MODEL>
3

>  <REMARK>
 VINA RESULT:      -5.4      2.393      3.937
  Name = 
  2 active torsions:
  status: ('A' for Active; 'I' for Inactive)
    1  A    between atoms: C_11  and  C_28
    2  A    between atoms: C_28  and  C_30
                            x       y       z     vdW  Elec       q    Type
                         _______ _______ _______ _____ _____    ______ ____

>  <TORSDO>
F 2

$$$$
=
 OpenBabel11122412313D

 30 35  0  0  1  0  0  0  0  0999 V2000
  160.3400  211.4650  152.3830 C   0  0  1  0  0  3  0  0  0  0  0  0
  161.9120  211.1970  150.3810 C   0  0  0  0  0  0  0  0  0  0  0  0
  157.9740  214.1040  150.0710 N   0  0  0  0  0  2  0  0  0  0  0  0
  158.8640  211.8010  152.6560 C   0  0  1  0  0  3  0  0  0  0  0  0
  160.5800  210.1140  152.7110 O   0  0  0  0  0  0  0  0  0  0  0  0
  159.0510  210.2870  156.0880 N   0  0  0  0  0  1  0  0  0  0  0  0
  157.2730  213.6300  154.8110 C   0  0  1  0  0  3  0  0  0  0  0  0
  159.0760  210.2780  154.6300 C   0  0  2  0  0  3  0  0  0  0  0  0
  156.7650  214.3000  153.5460 C   0  0  2  0  0  3  0  0  0  0  0  0
  156.8950  214.4040  151.0100 C   0  0  1  0  0  3  0  0  0  0  0  0
  160.4970  209.9740  154.1170 C   0  0  2  0  0  3  0  0  0  0  0  0
  158.5640  211.5430  154.0790 N   0  0  0  0  0  0  0  0  0  0  0  0
  162.2920  211.5360  149.0790 C   0  0  0  0  0  3  0  0  0  0  0  0
  155.2720  214.3910  153.7520 C   0  0  0  0  0  2  0  0  0  0  0  0
  156.2510  214.0270  155.8610 C   0  0  0  0  0  2  0  0  0  0  0  0
  162.6870  210.2830  151.0850 O   0  0  0  0  0  1  0  0  0  0  0  0
  158.9400  213.4330  150.8330 N   0  0  0  0  0  0  0  0  0  0  0  0
  161.5610  212.4750  148.3520 C   0  0  0  0  0  3  0  0  0  0  0  0
  160.7650  211.7840  150.9600 C   0  0  0  0  0  0  0  0  0  0  0  0
  158.5930  213.2450  152.2260 C   0  0  1  0  0  3  0  0  0  0  0  0
  155.5610  214.0570  150.3800 C   0  0  0  0  0  1  0  0  0  0  0  0
  157.1200  213.5570  152.2590 C   0  0  1  0  0  3  0  0  0  0  0  0
  155.0240  214.4520  155.1880 N   0  0  0  0  0  2  0  0  0  0  0  0
  156.4620  211.3760  155.0940 O   0  0  0  0  0  0  0  0  0  0  0  0
  160.4540  213.0950  148.9290 C   0  0  0  0  0  3  0  0  0  0  0  0
  160.0630  212.7720  150.2350 C   0  0  0  0  0  0  0  0  0  0  0  0
  157.3930  212.1260  154.6890 C   0  0  0  0  0  0  0  0  0  0  0  0
  161.6010  210.7480  154.8550 C   0  0  0  0  0  2  0  0  0  0  0  0
  163.3820  210.5390  156.4310 O   0  0  0  0  0  1  0  0  0  0  0  0
  162.2920  209.8650  155.8790 C   0  0  0  0  0  2  0  0  0  0  0  0
  1 19  1  6  0  0  0
  1  4  1  0  0  0  0
  1  5  1  0  0  0  0
  2 19  1  0  0  0  0
  2 16  1  0  0  0  0
  3 17  1  0  0  0  0
  3 10  1  0  0  0  0
  4 12  1  1  0  0  0
  5 11  1  0  0  0  0
  7 15  1  1  0  0  0
  8  6  1  1  0  0  0
  9 14  1  1  0  0  0
  9  7  1  0  0  0  0
 10 21  1  6  0  0  0
 10 22  1  0  0  0  0
 11  8  1  0  0  0  0
 11 28  1  1  0  0  0
 12  8  1  0  0  0  0
 12 27  1  0  0  0  0
 13  2  2  0  0  0  0
 14 23  1  0  0  0  0
 18 25  2  0  0  0  0
 18 13  1  0  0  0  0
 20 17  1  6  0  0  0
 20 22  1  0  0  0  0
 20  4  1  0  0  0  0
 22  9  1  0  0  0  0
 23 15  1  0  0  0  0
 25 26  1  0  0  0  0
 26 17  1  0  0  0  0
 26 19  2  0  0  0  0
 27  7  1  0  0  0  0
 27 24  2  0  0  0  0
 28 30  1  0  0  0  0
 30 29  1  0  0  0  0
M  END
>  <MODEL>
4

>  <REMARK>
 VINA RESULT:      -4.3      5.015      7.964
  Name = 
  2 active torsions:
  status: ('A' for Active; 'I' for Inactive)
    1  A    between atoms: C_11  and  C_28
    2  A    between atoms: C_28  and  C_30
                            x       y       z     vdW  Elec       q    Type
                         _______ _______ _______ _____ _____    ______ ____

>  <TORSDO>
F 2

$$$$
