=
 OpenBabel11122412443D

 30 36  0  0  1  0  0  0  0  0999 V2000
  161.5950  207.9240  151.4740 C   0  0  0  0  0  0  0  0  0  0  0  0
  161.1410  208.8700  153.7430 C   0  0  0  0  0  0  0  0  0  0  0  0
  160.7900  204.0460  152.8540 N   0  0  0  0  0  2  0  0  0  0  0  0
  161.5910  206.8040  150.5920 C   0  0  0  0  0  0  0  0  0  0  0  0
  162.1610  209.2280  150.9820 C   0  0  0  0  0  2  0  0  0  0  0  0
  162.6210  208.4980  147.5490 O   0  0  0  0  0  0  0  0  0  0  0  0
  161.6760  204.6570  148.2140 C   0  0  1  0  0  3  0  0  0  0  0  0
  162.1180  208.3390  148.6960 C   0  0  0  0  0  0  0  0  0  0  0  0
  160.8690  203.9450  149.2590 C   0  0  1  0  0  3  0  0  0  0  0  0
  161.0440  203.2110  151.6900 C   0  0  2  0  0  3  0  0  0  0  0  0
  161.7680  209.5240  149.5470 C   0  0  2  0  0  3  0  0  0  0  0  0
  161.7870  207.0180  149.1620 N   0  0  0  0  0  0  0  0  0  0  0  0
  160.7620  208.6650  155.0720 C   0  0  0  0  0  3  0  0  0  0  0  0
  160.8910  202.4940  148.8130 C   0  0  0  0  0  2  0  0  0  0  0  0
  161.4270  203.9190  146.9110 C   0  0  0  0  0  2  0  0  0  0  0  0
  161.4120  210.1420  153.3590 F   0  0  0  0  0  0  0  0  0  0  0  0
  160.9710  205.3950  152.4700 C   0  0  0  0  0  0  0  0  0  0  0  0
  160.4480  207.3880  155.5340 C   0  0  0  0  0  3  0  0  0  0  0  0
  161.2100  207.7780  152.8400 C   0  0  0  0  0  0  0  0  0  0  0  0
  161.3310  205.5300  151.1540 C   0  0  0  0  0  0  0  0  0  0  0  0
  162.0990  202.1760  152.0260 C   0  0  0  0  0  1  0  0  0  0  0  0
  161.5670  204.1560  150.5900 C   0  0  2  0  0  3  0  0  0  0  0  0
  160.9750  202.5220  147.2990 C   0  0  0  0  0  2  0  0  0  0  0  0
  160.5100  206.5110  147.2690 O   0  0  0  0  0  0  0  0  0  0  0  0
  160.5100  206.3010  154.6650 C   0  0  0  0  0  3  0  0  0  0  0  0
  160.8800  206.4850  153.3290 C   0  0  0  0  0  0  0  0  0  0  0  0
  161.2920  206.0970  148.1710 C   0  0  0  0  0  0  0  0  0  0  0  0
  162.4590  210.8010  149.0840 C   0  0  0  0  0  3  0  0  0  0  0  0
  161.6100  211.4830  148.0300 C   0  0  0  0  0  2  0  0  0  0  0  0
  161.6090  212.0020  149.4510 C   0  0  0  0  0  2  0  0  0  0  0  0
  1 19  1  0  0  0  0
  2 13  1  0  0  0  0
  4 20  1  0  0  0  0
  4  1  2  0  0  0  0
  5  1  1  0  0  0  0
  6  8  2  0  0  0  0
  7 15  1  6  0  0  0
  7  9  1  0  0  0  0
  8 12  1  0  0  0  0
  8 11  1  0  0  0  0
  9 14  1  6  0  0  0
  9 22  1  0  0  0  0
 10 21  1  1  0  0  0
 10  3  1  0  0  0  0
 11 28  1  6  0  0  0
 11  5  1  0  0  0  0
 12  4  1  0  0  0  0
 13 18  2  0  0  0  0
 15 23  1  0  0  0  0
 16  2  1  0  0  0  0
 17  3  1  0  0  0  0
 17 26  1  0  0  0  0
 19 26  1  0  0  0  0
 19  2  2  0  0  0  0
 20 17  2  0  0  0  0
 22 20  1  1  0  0  0
 22 10  1  0  0  0  0
 23 14  1  0  0  0  0
 24 27  2  0  0  0  0
 25 18  1  0  0  0  0
 26 25  2  0  0  0  0
 27  7  1  0  0  0  0
 27 12  1  0  0  0  0
 28 30  1  0  0  0  0
 29 28  1  0  0  0  0
 29 30  1  0  0  0  0
M  END
>  <MODEL>
1

>  <REMARK>
 VINA RESULT:     -10.1      0.000      0.000
  Name = 
  1 active torsions:
  status: ('A' for Active; 'I' for Inactive)
    1  A    between atoms: C_11  and  C_28
                            x       y       z     vdW  Elec       q    Type
                         _______ _______ _______ _____ _____    ______ ____

>  <TORSDO>
F 1

$$$$
=
 OpenBabel11122412443D

 30 36  0  0  1  0  0  0  0  0999 V2000
  161.3050  207.5850  151.2240 C   0  0  0  0  0  0  0  0  0  0  0  0
  161.8700  210.0170  151.1090 C   0  0  0  0  0  0  0  0  0  0  0  0
  161.5470  207.2580  147.0500 N   0  0  0  0  0  2  0  0  0  0  0  0
  161.1590  206.3290  150.5650 C   0  0  0  0  0  0  0  0  0  0  0  0
  160.9320  207.6830  152.6790 C   0  0  0  0  0  2  0  0  0  0  0  0
  160.4000  204.2720  153.4600 O   0  0  0  0  0  0  0  0  0  0  0  0
  160.7920  203.3000  149.5880 C   0  0  1  0  0  3  0  0  0  0  0  0
  160.8680  205.2340  152.7880 C   0  0  0  0  0  0  0  0  0  0  0  0
  161.4820  203.9310  148.4160 C   0  0  1  0  0  3  0  0  0  0  0  0
  161.1870  205.8720  146.7960 C   0  0  2  0  0  3  0  0  0  0  0  0
  161.3740  206.4680  153.4720 C   0  0  2  0  0  3  0  0  0  0  0  0
  161.0060  205.1160  151.3600 N   0  0  0  0  0  0  0  0  0  0  0  0
  162.2070  211.1330  150.3380 C   0  0  0  0  0  3  0  0  0  0  0  0
  161.2600  202.9450  147.2840 C   0  0  0  0  0  2  0  0  0  0  0  0
  160.9440  201.7990  149.4110 C   0  0  0  0  0  2  0  0  0  0  0  0
  161.7840  210.1880  152.4510 F   0  0  0  0  0  0  0  0  0  0  0  0
  161.5600  207.4550  148.4510 C   0  0  0  0  0  0  0  0  0  0  0  0
  162.3340  211.0300  148.9540 C   0  0  0  0  0  3  0  0  0  0  0  0
  161.6550  208.7580  150.4910 C   0  0  0  0  0  0  0  0  0  0  0  0
  161.2330  206.3220  149.1500 C   0  0  0  0  0  0  0  0  0  0  0  0
  159.9940  205.8180  145.8620 C   0  0  0  0  0  1  0  0  0  0  0  0
  160.8110  205.2690  148.1640 C   0  0  2  0  0  3  0  0  0  0  0  0
  161.1930  201.5740  147.9300 C   0  0  0  0  0  2  0  0  0  0  0  0
  162.2130  203.1170  151.4940 O   0  0  0  0  0  0  0  0  0  0  0  0
  162.1270  209.8030  148.3270 C   0  0  0  0  0  3  0  0  0  0  0  0
  161.7970  208.6720  149.0810 C   0  0  0  0  0  0  0  0  0  0  0  0
  161.3740  203.8160  150.8590 C   0  0  0  0  0  0  0  0  0  0  0  0
  160.8720  206.5890  154.9070 C   0  0  0  0  0  3  0  0  0  0  0  0
  161.4630  207.8310  155.5460 C   0  0  0  0  0  2  0  0  0  0  0  0
  160.0340  207.8450  155.0490 C   0  0  0  0  0  2  0  0  0  0  0  0
  1  5  1  0  0  0  0
  2 16  1  0  0  0  0
  3 17  1  0  0  0  0
  4  1  1  0  0  0  0
  4 12  1  0  0  0  0
  5 11  1  0  0  0  0
  7 15  1  6  0  0  0
  7 27  1  0  0  0  0
  8  6  2  0  0  0  0
  8 11  1  0  0  0  0
  9 14  1  6  0  0  0
  9  7  1  0  0  0  0
 10 21  1  6  0  0  0
 10  3  1  0  0  0  0
 10 22  1  0  0  0  0
 11 28  1  1  0  0  0
 12  8  1  0  0  0  0
 13  2  2  0  0  0  0
 14 23  1  0  0  0  0
 17 26  2  0  0  0  0
 17 20  1  0  0  0  0
 18 13  1  0  0  0  0
 19  2  1  0  0  0  0
 19  1  2  0  0  0  0
 20  4  2  0  0  0  0
 22  9  1  0  0  0  0
 22 20  1  1  0  0  0
 23 15  1  0  0  0  0
 25 18  2  0  0  0  0
 25 26  1  0  0  0  0
 26 19  1  0  0  0  0
 27 12  1  0  0  0  0
 27 24  2  0  0  0  0
 28 30  1  0  0  0  0
 28 29  1  0  0  0  0
 30 29  1  0  0  0  0
M  END
>  <MODEL>
2

>  <REMARK>
 VINA RESULT:      -9.4      1.904      4.891
  Name = 
  1 active torsions:
  status: ('A' for Active; 'I' for Inactive)
    1  A    between atoms: C_11  and  C_28
                            x       y       z     vdW  Elec       q    Type
                         _______ _______ _______ _____ _____    ______ ____

>  <TORSDO>
F 1

$$$$
=
 OpenBabel11122412443D

 30 36  0  0  1  0  0  0  0  0999 V2000
  160.9390  204.5670  148.8120 C   0  0  0  0  0  0  0  0  0  0  0  0
  160.9000  202.0670  148.8550 C   0  0  0  0  0  0  0  0  0  0  0  0
  161.3120  204.7030  152.9870 N   0  0  0  0  0  2  0  0  0  0  0  0
  161.1110  205.8010  149.5050 C   0  0  0  0  0  0  0  0  0  0  0  0
  160.5330  204.6040  147.3640 C   0  0  0  0  0  2  0  0  0  0  0  0
  160.8310  208.0640  146.6780 O   0  0  0  0  0  0  0  0  0  0  0  0
  161.5010  208.8000  150.5640 C   0  0  1  0  0  3  0  0  0  0  0  0
  161.0610  206.9990  147.3170 C   0  0  0  0  0  0  0  0  0  0  0  0
  162.0350  207.9860  151.7050 C   0  0  1  0  0  3  0  0  0  0  0  0
  161.3020  206.1280  153.2830 C   0  0  2  0  0  3  0  0  0  0  0  0
  161.2440  205.6990  146.5910 C   0  0  2  0  0  3  0  0  0  0  0  0
  161.2450  207.0380  148.7440 N   0  0  0  0  0  0  0  0  0  0  0  0
  160.9680  200.8810  149.5910 C   0  0  0  0  0  3  0  0  0  0  0  0
  162.0740  208.9640  152.8660 C   0  0  0  0  0  2  0  0  0  0  0  0
  162.0140  210.2130  150.7750 C   0  0  0  0  0  2  0  0  0  0  0  0
  160.7560  201.9620  147.5110 F   0  0  0  0  0  0  0  0  0  0  0  0
  161.2580  204.5500  151.5820 C   0  0  0  0  0  0  0  0  0  0  0  0
  161.1360  200.9110  150.9730 C   0  0  0  0  0  3  0  0  0  0  0  0
  161.0050  203.3230  149.5080 C   0  0  0  0  0  0  0  0  0  0  0  0
  161.2040  205.7490  150.9180 C   0  0  0  0  0  0  0  0  0  0  0  0
  160.1710  206.4400  154.2420 C   0  0  0  0  0  1  0  0  0  0  0  0
  161.0640  206.8430  151.9390 C   0  0  2  0  0  3  0  0  0  0  0  0
  162.3310  210.3280  152.2560 C   0  0  0  0  0  2  0  0  0  0  0  0
  162.8970  208.6890  148.6340 O   0  0  0  0  0  0  0  0  0  0  0  0
  161.2410  202.1320  151.6350 C   0  0  0  0  0  3  0  0  0  0  0  0
  161.1840  203.3310  150.9170 C   0  0  0  0  0  0  0  0  0  0  0  0
  161.9230  208.1950  149.2690 C   0  0  0  0  0  0  0  0  0  0  0  0
  160.7080  205.7440  145.1650 C   0  0  0  0  0  3  0  0  0  0  0  0
  161.8330  205.4530  144.1920 C   0  0  0  0  0  2  0  0  0  0  0  0
  160.8310  204.3720  144.5310 C   0  0  0  0  0  2  0  0  0  0  0  0
  1  4  2  0  0  0  0
  1 19  1  0  0  0  0
  2 19  2  0  0  0  0
  2 13  1  0  0  0  0
  3 10  1  0  0  0  0
  4 20  1  0  0  0  0
  5  1  1  0  0  0  0
  6  8  2  0  0  0  0
  7 15  1  1  0  0  0
  7  9  1  0  0  0  0
  8 12  1  0  0  0  0
  9 22  1  0  0  0  0
  9 14  1  1  0  0  0
 10 21  1  1  0  0  0
 11 28  1  6  0  0  0
 11  8  1  0  0  0  0
 11  5  1  0  0  0  0
 12 27  1  0  0  0  0
 12  4  1  0  0  0  0
 13 18  2  0  0  0  0
 15 23  1  0  0  0  0
 16  2  1  0  0  0  0
 17  3  1  0  0  0  0
 18 25  1  0  0  0  0
 19 26  1  0  0  0  0
 20 17  2  0  0  0  0
 22 20  1  6  0  0  0
 22 10  1  0  0  0  0
 23 14  1  0  0  0  0
 24 27  2  0  0  0  0
 26 17  1  0  0  0  0
 26 25  2  0  0  0  0
 27  7  1  0  0  0  0
 29 30  1  0  0  0  0
 29 28  1  0  0  0  0
 30 28  1  0  0  0  0
M  END
>  <MODEL>
3

>  <REMARK>
 VINA RESULT:      -8.1      2.293      5.731
  Name = 
  1 active torsions:
  status: ('A' for Active; 'I' for Inactive)
    1  A    between atoms: C_11  and  C_28
                            x       y       z     vdW  Elec       q    Type
                         _______ _______ _______ _____ _____    ______ ____

>  <TORSDO>
F 1

$$$$
