=
 OpenBabel11122413503D

 37 42  0  0  1  0  0  0  0  0999 V2000
  161.5310  208.7300  152.2900 S   0  0  0  0  0  0  0  0  0  0  0  0
  159.8350  211.9140  154.7390 C   0  0  0  0  0  0  0  0  0  0  0  0
  156.9460  214.2410  153.2520 C   0  0  0  0  0  2  0  0  0  0  0  0
  161.6510  210.3140  154.4940 C   0  0  0  0  0  0  0  0  0  0  0  0
  158.6630  212.3800  153.9030 C   0  0  1  0  0  3  0  0  0  0  0  0
  160.5450  211.0080  153.9830 C   0  0  0  0  0  0  0  0  0  0  0  0
  158.1410  213.8160  154.1360 C   0  0  2  0  0  3  0  0  0  0  0  0
  162.0410  210.5750  155.8120 C   0  0  0  0  0  3  0  0  0  0  0  0
  160.0220  210.8820  152.6680 N   0  0  0  0  0  0  0  0  0  0  0  0
  160.5770  207.6790  152.7740 O   0  0  0  0  0  0  0  0  0  0  0  0
  159.4400  213.0370  157.0390 C   0  0  0  0  0  2  0  0  0  0  0  0
  161.3180  211.4870  156.5980 C   0  0  0  0  0  3  0  0  0  0  0  0
  160.6240  210.0930  151.5980 C   0  0  0  0  0  2  0  0  0  0  0  0
  157.6420  214.3460  151.0990 C   0  0  1  0  0  3  0  0  0  0  0  0
  156.9200  213.5670  152.0210 O   0  0  0  0  0  0  0  0  0  0  0  0
  160.2070  212.1710  156.0800 C   0  0  0  0  0  0  0  0  0  0  0  0
  159.0800  211.9700  152.4530 C   0  0  2  0  0  3  0  0  0  0  0  0
  162.4710  209.3730  153.6600 C   0  0  0  0  0  2  0  0  0  0  0  0
  157.8080  214.0020  155.5470 N   0  0  0  0  0  0  0  0  0  0  0  0
  162.4520  208.1440  151.2580 O   0  0  0  0  0  0  0  0  0  0  0  0
  159.1390  214.4090  151.4400 C   0  0  0  0  0  2  0  0  0  0  0  0
  159.8230  213.0500  151.6320 C   0  0  0  0  0  2  0  0  0  0  0  0
  158.9270  214.3220  156.4160 C   0  0  0  0  0  2  0  0  0  0  0  0
  155.6620  214.4450  156.6990 C   0  0  0  0  0  3  0  0  0  0  0  0
  156.5650  213.5360  156.1190 C   0  0  0  0  0  0  0  0  0  0  0  0
  156.2590  212.2080  156.1140 N   0  0  0  0  0  0  0  0  0  0  0  0
  154.8380  210.2710  156.6500 C   0  0  0  0  0  1  0  0  0  0  0  0
  154.1920  212.6120  157.2440 C   0  0  0  0  0  3  0  0  0  0  0  0
  155.1080  211.7310  156.6570 C   0  0  0  0  0  0  0  0  0  0  0  0
  154.4730  213.9770  157.2610 C   0  0  0  0  0  3  0  0  0  0  0  0
  157.4180  212.8360  146.9810 O   0  0  0  0  0  0  0  0  0  0  0  0
  158.4440  213.4220  147.4190 C   0  0  0  0  0  0  0  0  0  0  0  0
  157.4270  213.8290  149.7120 C   0  0  0  0  0  0  0  0  0  0  0  0
  158.5030  213.8970  148.7700 N   0  0  0  0  0  2  0  0  0  0  0  0
  156.3130  213.3390  149.3840 O   0  0  0  0  0  0  0  0  0  0  0  0
  159.7750  212.4540  145.7380 O   0  0  0  0  0  1  0  0  0  0  0  0
  159.6240  213.5880  146.5320 C   0  0  0  0  0  2  0  0  0  0  0  0
  1 10  2  0  0  0  0
  1 18  1  0  0  0  0
  2 16  1  0  0  0  0
  4  8  2  0  0  0  0
  5  7  1  0  0  0  0
  5  2  1  1  0  0  0
  6  4  1  0  0  0  0
  6  2  2  0  0  0  0
  7  3  1  6  0  0  0
  7 19  1  0  0  0  0
  8 12  1  0  0  0  0
  9  6  1  0  0  0  0
 13  1  1  0  0  0  0
 13  9  1  0  0  0  0
 14 33  1  6  0  0  0
 14 21  1  0  0  0  0
 14 15  1  0  0  0  0
 15  3  1  0  0  0  0
 16 12  2  0  0  0  0
 16 11  1  0  0  0  0
 17 22  1  1  0  0  0
 17  9  1  0  0  0  0
 17  5  1  0  0  0  0
 18  4  1  0  0  0  0
 19 25  1  0  0  0  0
 19 23  1  0  0  0  0
 20  1  2  0  0  0  0
 21 22  1  0  0  0  0
 23 11  1  0  0  0  0
 24 30  1  0  0  0  0
 25 24  2  0  0  0  0
 26 25  1  0  0  0  0
 26 29  2  0  0  0  0
 27 29  1  0  0  0  0
 28 30  2  0  0  0  0
 29 28  1  0  0  0  0
 31 32  2  0  0  0  0
 32 34  1  0  0  0  0
 34 33  1  0  0  0  0
 35 33  2  0  0  0  0
 36 37  1  0  0  0  0
 37 32  1  0  0  0  0
M  END
>  <MODEL>
1

>  <REMARK>
 VINA RESULT:      -4.5      0.000      0.000
  Name = 
  3 active torsions:
  status: ('A' for Active; 'I' for Inactive)
    1  A    between atoms: C_4  and  C_37
    2  A    between atoms: C_8  and  C_18
    3  A    between atoms: N_23  and  C_30
                            x       y       z     vdW  Elec       q    Type
                         _______ _______ _______ _____ _____    ______ ____

>  <TORSDO>
F 3

$$$$
=
 OpenBabel11122413503D

 37 42  0  0  1  0  0  0  0  0999 V2000
  161.1070  205.4640  149.9860 S   0  0  0  0  0  0  0  0  0  0  0  0
  160.8570  208.6400  152.9620 C   0  0  0  0  0  0  0  0  0  0  0  0
  160.1980  212.4060  151.8000 C   0  0  0  0  0  2  0  0  0  0  0  0
  161.4990  206.3330  152.5300 C   0  0  0  0  0  0  0  0  0  0  0  0
  160.3890  209.8210  152.1410 C   0  0  1  0  0  3  0  0  0  0  0  0
  161.1250  207.6110  152.0880 C   0  0  0  0  0  0  0  0  0  0  0  0
  160.6940  211.2370  152.6810 C   0  0  2  0  0  3  0  0  0  0  0  0
  161.6140  206.1220  153.9070 C   0  0  0  0  0  3  0  0  0  0  0  0
  160.9760  208.0090  150.7320 N   0  0  0  0  0  0  0  0  0  0  0  0
  159.6480  205.1190  150.0490 O   0  0  0  0  0  0  0  0  0  0  0  0
  160.5630  209.4320  155.4100 C   0  0  0  0  0  2  0  0  0  0  0  0
  161.3320  207.1590  154.8110 C   0  0  0  0  0  3  0  0  0  0  0  0
  161.3020  207.1820  149.5740 C   0  0  0  0  0  2  0  0  0  0  0  0
  161.3630  212.3920  149.8580 C   0  0  1  0  0  3  0  0  0  0  0  0
  160.1260  212.0630  150.4410 O   0  0  0  0  0  0  0  0  0  0  0  0
  160.9500  208.4310  154.3590 C   0  0  0  0  0  0  0  0  0  0  0  0
  160.8710  209.4600  150.6980 C   0  0  2  0  0  3  0  0  0  0  0  0
  161.8560  205.2240  151.5840 C   0  0  0  0  0  2  0  0  0  0  0  0
  160.1680  211.3770  154.0370 N   0  0  0  0  0  0  0  0  0  0  0  0
  161.7880  204.6050  148.9590 O   0  0  0  0  0  0  0  0  0  0  0  0
  162.5050  211.5110  150.3880 C   0  0  0  0  0  2  0  0  0  0  0  0
  162.2630  210.0000  150.2950 C   0  0  0  0  0  2  0  0  0  0  0  0
  161.0120  210.8470  155.0940 C   0  0  0  0  0  2  0  0  0  0  0  0
  158.0270  210.8140  155.1470 C   0  0  0  0  0  3  0  0  0  0  0  0
  158.7740  211.6550  154.3040 C   0  0  0  0  0  0  0  0  0  0  0  0
  158.1640  212.7310  153.7290 N   0  0  0  0  0  0  0  0  0  0  0  0
  156.2310  214.1830  153.2680 C   0  0  0  0  0  1  0  0  0  0  0  0
  156.0840  212.1930  154.7760 C   0  0  0  0  0  3  0  0  0  0  0  0
  156.8520  213.0150  153.9430 C   0  0  0  0  0  0  0  0  0  0  0  0
  156.6800  211.0890  155.3820 C   0  0  0  0  0  3  0  0  0  0  0  0
  160.7090  212.3140  145.5150 O   0  0  0  0  0  0  0  0  0  0  0  0
  159.7550  212.4360  146.3290 C   0  0  0  0  0  0  0  0  0  0  0  0
  161.2660  212.3080  148.3670 C   0  0  0  0  0  0  0  0  0  0  0  0
  159.9890  212.4720  147.7420 N   0  0  0  0  0  2  0  0  0  0  0  0
  162.3000  212.0970  147.6770 O   0  0  0  0  0  0  0  0  0  0  0  0
  157.4680  212.5370  146.8740 O   0  0  0  0  0  1  0  0  0  0  0  0
  158.3700  212.5840  145.8120 C   0  0  0  0  0  2  0  0  0  0  0  0
  1 10  2  0  0  0  0
  1 18  1  0  0  0  0
  2 16  1  0  0  0  0
  4  8  2  0  0  0  0
  5  7  1  0  0  0  0
  5  2  1  1  0  0  0
  6  4  1  0  0  0  0
  6  2  2  0  0  0  0
  7  3  1  6  0  0  0
  7 19  1  0  0  0  0
  8 12  1  0  0  0  0
  9  6  1  0  0  0  0
 13  1  1  0  0  0  0
 13  9  1  0  0  0  0
 14 33  1  6  0  0  0
 14 21  1  0  0  0  0
 14 15  1  0  0  0  0
 15  3  1  0  0  0  0
 16 12  2  0  0  0  0
 16 11  1  0  0  0  0
 17 22  1  1  0  0  0
 17  9  1  0  0  0  0
 17  5  1  0  0  0  0
 18  4  1  0  0  0  0
 19 25  1  0  0  0  0
 19 23  1  0  0  0  0
 20  1  2  0  0  0  0
 22 21  1  0  0  0  0
 23 11  1  0  0  0  0
 24 30  1  0  0  0  0
 25 24  2  0  0  0  0
 26 29  2  0  0  0  0
 26 25  1  0  0  0  0
 27 29  1  0  0  0  0
 28 30  2  0  0  0  0
 29 28  1  0  0  0  0
 31 32  2  0  0  0  0
 32 34  1  0  0  0  0
 34 33  1  0  0  0  0
 35 33  2  0  0  0  0
 37 32  1  0  0  0  0
 37 36  1  0  0  0  0
M  END
>  <MODEL>
2

>  <REMARK>
 VINA RESULT:      -4.4      2.513      3.993
  Name = 
  3 active torsions:
  status: ('A' for Active; 'I' for Inactive)
    1  A    between atoms: C_4  and  C_37
    2  A    between atoms: C_8  and  C_18
    3  A    between atoms: N_23  and  C_30
                            x       y       z     vdW  Elec       q    Type
                         _______ _______ _______ _____ _____    ______ ____

>  <TORSDO>
F 3

$$$$
=
 OpenBabel11122413503D

 37 42  0  0  1  0  0  0  0  0999 V2000
  161.1970  206.4150  151.0400 S   0  0  0  0  0  0  0  0  0  0  0  0
  160.4710  209.3040  154.2230 C   0  0  0  0  0  0  0  0  0  0  0  0
  158.8510  212.8530  153.3550 C   0  0  0  0  0  2  0  0  0  0  0  0
  161.5950  207.2390  153.5980 C   0  0  0  0  0  0  0  0  0  0  0  0
  159.6700  210.3760  153.5160 C   0  0  1  0  0  3  0  0  0  0  0  0
  160.8940  208.4090  153.2670 C   0  0  0  0  0  0  0  0  0  0  0  0
  159.6820  211.7980  154.1200 C   0  0  2  0  0  3  0  0  0  0  0  0
  161.8760  207.0000  154.9470 C   0  0  0  0  0  3  0  0  0  0  0  0
  160.5400  208.8200  151.9540 N   0  0  0  0  0  0  0  0  0  0  0  0
  159.8700  205.7300  151.1880 O   0  0  0  0  0  0  0  0  0  0  0  0
  160.2140  209.8940  156.7320 C   0  0  0  0  0  2  0  0  0  0  0  0
  161.4380  207.8980  155.9330 C   0  0  0  0  0  3  0  0  0  0  0  0
  160.9480  208.1460  150.7250 C   0  0  0  0  0  2  0  0  0  0  0  0
  159.8130  213.2030  151.3350 C   0  0  1  0  0  3  0  0  0  0  0  0
  158.7430  212.5630  151.9860 O   0  0  0  0  0  0  0  0  0  0  0  0
  160.7320  209.0620  155.5930 C   0  0  0  0  0  0  0  0  0  0  0  0
  160.0950  210.2040  152.0210 C   0  0  2  0  0  3  0  0  0  0  0  0
  162.1170  206.2890  152.5590 C   0  0  0  0  0  2  0  0  0  0  0  0
  159.2570  211.7480  155.5180 N   0  0  0  0  0  0  0  0  0  0  0  0
  161.9670  205.7890  149.9120 O   0  0  0  0  0  0  0  0  0  0  0  0
  161.1710  212.5970  151.7220 C   0  0  0  0  0  2  0  0  0  0  0  0
  161.2820  211.0780  151.5510 C   0  0  0  0  0  2  0  0  0  0  0  0
  160.2910  211.3880  156.4730 C   0  0  0  0  0  2  0  0  0  0  0  0
  157.3490  212.5440  156.8810 C   0  0  0  0  0  3  0  0  0  0  0  0
  157.8650  211.6740  155.9040 C   0  0  0  0  0  0  0  0  0  0  0  0
  157.0400  210.7500  155.3350 N   0  0  0  0  0  0  0  0  0  0  0  0
  154.8840  209.5960  155.0540 C   0  0  0  0  0  1  0  0  0  0  0  0
  155.1910  211.4920  156.6560 C   0  0  0  0  0  3  0  0  0  0  0  0
  155.7310  210.6400  155.6850 C   0  0  0  0  0  0  0  0  0  0  0  0
  156.0080  212.4500  157.2530 C   0  0  0  0  0  3  0  0  0  0  0  0
  159.5940  212.9380  146.9560 O   0  0  0  0  0  0  0  0  0  0  0  0
  160.6940  212.9220  147.5690 C   0  0  0  0  0  0  0  0  0  0  0  0
  159.6090  213.1640  149.8530 C   0  0  0  0  0  0  0  0  0  0  0  0
  160.7460  212.9970  148.9980 N   0  0  0  0  0  2  0  0  0  0  0  0
  158.4500  213.2750  149.3700 O   0  0  0  0  0  0  0  0  0  0  0  0
  163.0410  212.7920  147.6710 O   0  0  0  0  0  1  0  0  0  0  0  0
  161.9570  212.7850  146.7970 C   0  0  0  0  0  2  0  0  0  0  0  0
  1 10  2  0  0  0  0
  1 18  1  0  0  0  0
  2 16  1  0  0  0  0
  4  8  2  0  0  0  0
  5  7  1  0  0  0  0
  5  2  1  1  0  0  0
  6  4  1  0  0  0  0
  6  2  2  0  0  0  0
  7  3  1  6  0  0  0
  7 19  1  0  0  0  0
  8 12  1  0  0  0  0
  9 17  1  0  0  0  0
  9  6  1  0  0  0  0
 13  1  1  0  0  0  0
 13  9  1  0  0  0  0
 14 33  1  6  0  0  0
 14 21  1  0  0  0  0
 14 15  1  0  0  0  0
 15  3  1  0  0  0  0
 16 12  2  0  0  0  0
 16 11  1  0  0  0  0
 17 22  1  1  0  0  0
 17  5  1  0  0  0  0
 18  4  1  0  0  0  0
 19 25  1  0  0  0  0
 19 23  1  0  0  0  0
 20  1  2  0  0  0  0
 22 21  1  0  0  0  0
 23 11  1  0  0  0  0
 24 30  1  0  0  0  0
 25 24  2  0  0  0  0
 26 29  2  0  0  0  0
 26 25  1  0  0  0  0
 27 29  1  0  0  0  0
 28 30  2  0  0  0  0
 29 28  1  0  0  0  0
 31 32  2  0  0  0  0
 32 34  1  0  0  0  0
 34 33  1  0  0  0  0
 35 33  2  0  0  0  0
 37 32  1  0  0  0  0
 37 36  1  0  0  0  0
M  END
>  <MODEL>
3

>  <REMARK>
 VINA RESULT:      -2.8      2.018      2.611
  Name = 
  3 active torsions:
  status: ('A' for Active; 'I' for Inactive)
    1  A    between atoms: C_4  and  C_37
    2  A    between atoms: C_8  and  C_18
    3  A    between atoms: N_23  and  C_30
                            x       y       z     vdW  Elec       q    Type
                         _______ _______ _______ _____ _____    ______ ____

>  <TORSDO>
F 3

$$$$
=
 OpenBabel11122413503D

 37 42  0  0  1  0  0  0  0  0999 V2000
  157.6680  213.3400  148.2140 S   0  0  0  0  0  0  0  0  0  0  0  0
  160.5580  211.6170  150.9870 C   0  0  0  0  0  0  0  0  0  0  0  0
  159.5910  211.1610  154.8370 C   0  0  0  0  0  2  0  0  0  0  0  0
  160.2140  212.5800  148.7790 C   0  0  0  0  0  0  0  0  0  0  0  0
  159.7330  211.4230  152.2400 C   0  0  1  0  0  3  0  0  0  0  0  0
  159.7800  212.3080  150.0850 C   0  0  0  0  0  0  0  0  0  0  0  0
  160.4830  211.3550  153.5900 C   0  0  2  0  0  3  0  0  0  0  0  0
  161.4880  212.1410  148.4040 C   0  0  0  0  0  3  0  0  0  0  0  0
  158.5300  212.6920  150.6400 N   0  0  0  0  0  0  0  0  0  0  0  0
  157.0850  212.0190  147.8050 O   0  0  0  0  0  0  0  0  0  0  0  0
  162.7250  210.2800  151.4590 C   0  0  0  0  0  2  0  0  0  0  0  0
  162.2870  211.4230  149.3100 C   0  0  0  0  0  3  0  0  0  0  0  0
  157.5400  213.5330  149.9760 C   0  0  0  0  0  2  0  0  0  0  0  0
  158.3170  213.0130  155.1100 C   0  0  1  0  0  3  0  0  0  0  0  0
  158.2990  211.6810  154.6610 O   0  0  0  0  0  0  0  0  0  0  0  0
  161.8410  211.1490  150.6120 C   0  0  0  0  0  0  0  0  0  0  0  0
  158.5940  212.4820  152.0790 C   0  0  2  0  0  3  0  0  0  0  0  0
  159.4020  213.3890  147.8100 C   0  0  0  0  0  2  0  0  0  0  0  0
  161.5040  210.3100  153.5400 N   0  0  0  0  0  0  0  0  0  0  0  0
  156.9400  214.4530  147.5170 O   0  0  0  0  0  0  0  0  0  0  0  0
  159.1880  213.9120  154.2180 C   0  0  0  0  0  2  0  0  0  0  0  0
  158.8600  213.8640  152.7210 C   0  0  0  0  0  2  0  0  0  0  0  0
  162.7600  210.6930  152.9190 C   0  0  0  0  0  2  0  0  0  0  0  0
  160.8560  208.4180  155.0000 C   0  0  0  0  0  3  0  0  0  0  0  0
  161.1920  208.9110  153.7260 C   0  0  0  0  0  0  0  0  0  0  0  0
  161.2330  208.0490  152.6710 N   0  0  0  0  0  0  0  0  0  0  0  0
  161.0510  205.8250  151.6320 C   0  0  0  0  0  1  0  0  0  0  0  0
  160.6280  206.2060  154.0670 C   0  0  0  0  0  3  0  0  0  0  0  0
  160.9630  206.7240  152.8110 C   0  0  0  0  0  0  0  0  0  0  0  0
  160.5730  207.0620  155.1660 C   0  0  0  0  0  3  0  0  0  0  0  0
  154.1680  214.4500  155.0030 O   0  0  0  0  0  0  0  0  0  0  0  0
  154.8250  214.2380  153.9490 C   0  0  0  0  0  0  0  0  0  0  0  0
  156.9210  213.5420  155.2060 C   0  0  0  0  0  0  0  0  0  0  0  0
  156.1740  213.7570  154.0030 N   0  0  0  0  0  2  0  0  0  0  0  0
  156.4140  213.7890  156.3330 O   0  0  0  0  0  0  0  0  0  0  0  0
  155.0340  214.0300  151.6150 O   0  0  0  0  0  1  0  0  0  0  0  0
  154.1780  214.4530  152.6290 C   0  0  0  0  0  2  0  0  0  0  0  0
  1 13  1  0  0  0  0
  4  6  1  0  0  0  0
  5  2  1  6  0  0  0
  5  7  1  0  0  0  0
  6  9  1  0  0  0  0
  6  2  2  0  0  0  0
  7  3  1  1  0  0  0
  8  4  2  0  0  0  0
  8 12  1  0  0  0  0
  9 17  1  0  0  0  0
 10  1  2  0  0  0  0
 11 23  1  0  0  0  0
 12 16  2  0  0  0  0
 13  9  1  0  0  0  0
 14 33  1  6  0  0  0
 15  3  1  0  0  0  0
 15 14  1  0  0  0  0
 16  2  1  0  0  0  0
 16 11  1  0  0  0  0
 17  5  1  0  0  0  0
 17 22  1  1  0  0  0
 18  1  1  0  0  0  0
 18  4  1  0  0  0  0
 19  7  1  0  0  0  0
 19 25  1  0  0  0  0
 20  1  2  0  0  0  0
 21 14  1  0  0  0  0
 22 21  1  0  0  0  0
 23 19  1  0  0  0  0
 24 30  1  0  0  0  0
 25 24  2  0  0  0  0
 26 29  2  0  0  0  0
 26 25  1  0  0  0  0
 27 29  1  0  0  0  0
 28 30  2  0  0  0  0
 29 28  1  0  0  0  0
 32 34  1  0  0  0  0
 32 31  2  0  0  0  0
 33 35  2  0  0  0  0
 34 33  1  0  0  0  0
 36 37  1  0  0  0  0
 37 32  1  0  0  0  0
M  END
>  <MODEL>
4

>  <REMARK>
 VINA RESULT:      -1.9      2.676      6.541
  Name = 
  3 active torsions:
  status: ('A' for Active; 'I' for Inactive)
    1  A    between atoms: C_4  and  C_37
    2  A    between atoms: C_8  and  C_18
    3  A    between atoms: N_23  and  C_30
                            x       y       z     vdW  Elec       q    Type
                         _______ _______ _______ _____ _____    ______ ____

>  <TORSDO>
F 3

$$$$
