=
 OpenBabel11122412393D

 30 35  0  0  1  0  0  0  0  0999 V2000
  161.0460  204.7760  148.7890 C   0  0  0  0  0  0  0  0  0  0  0  0
  161.0260  202.3660  148.1980 C   0  0  0  0  0  0  0  0  0  0  0  0
  161.0470  203.9250  152.8150 N   0  0  0  0  0  2  0  0  0  0  0  0
  161.0990  205.7960  149.7760 C   0  0  0  0  0  0  0  0  0  0  0  0
  161.0230  205.1320  147.4360 O   0  0  0  0  0  0  0  0  0  0  0  0
  161.2430  208.6990  147.5820 O   0  0  0  0  0  0  0  0  0  0  0  0
  160.7600  208.5090  151.3220 C   0  0  1  0  0  3  0  0  0  0  0  0
  161.1100  207.5050  147.9680 C   0  0  0  0  0  0  0  0  0  0  0  0
  160.7310  207.5640  152.5140 C   0  0  2  0  0  3  0  0  0  0  0  0
  161.0060  205.2010  153.2540 C   0  0  0  0  0  0  0  0  0  0  0  0
  160.6850  206.4470  146.9890 C   0  0  1  0  0  3  0  0  0  0  0  0
  161.2920  207.1610  149.3510 N   0  0  0  0  0  0  0  0  0  0  0  0
  161.0300  201.0290  148.6070 C   0  0  0  0  0  3  0  0  0  0  0  0
  161.6540  208.1830  153.5440 C   0  0  0  0  0  2  0  0  0  0  0  0
  161.0480  209.8830  151.9050 C   0  0  0  0  0  2  0  0  0  0  0  0
  161.0010  202.6290  146.8680 F   0  0  0  0  0  0  0  0  0  0  0  0
  161.0790  204.0740  151.4800 C   0  0  0  0  0  0  0  0  0  0  0  0
  161.0530  200.7000  149.9620 C   0  0  0  0  0  3  0  0  0  0  0  0
  161.0480  203.4030  149.1590 C   0  0  0  0  0  0  0  0  0  0  0  0
  161.0710  205.4030  151.1330 C   0  0  0  0  0  0  0  0  0  0  0  0
  160.9130  205.4830  154.4790 O   0  0  0  0  0  0  0  0  0  0  0  0
  161.0310  206.1410  152.2710 N   0  0  0  0  0  0  0  0  0  0  0  0
  161.5220  209.6780  153.3370 C   0  0  0  0  0  2  0  0  0  0  0  0
  163.1970  207.8690  150.7570 C   0  0  0  0  0  1  0  0  0  0  0  0
  161.0740  201.7080  150.9250 C   0  0  0  0  0  3  0  0  0  0  0  0
  161.0730  203.0520  150.5350 C   0  0  0  0  0  0  0  0  0  0  0  0
  161.7930  208.1870  150.2510 C   0  0  2  0  0  3  0  0  0  0  0  0
  161.1400  206.6890  145.6730 O   0  0  0  0  0  0  0  0  0  0  0  0
  160.9510  204.8020  144.2310 C   0  0  0  0  0  1  0  0  0  0  0  0
  161.8210  205.5490  145.2190 C   0  0  0  0  0  2  0  0  0  0  0  0
  1 19  2  0  0  0  0
  1  4  1  0  0  0  0
  2 13  2  0  0  0  0
  2 19  1  0  0  0  0
  3 10  1  0  0  0  0
  4 20  2  0  0  0  0
  5  1  1  0  0  0  0
  6  8  2  0  0  0  0
  7 15  1  1  0  0  0
  7  9  1  0  0  0  0
  8 12  1  0  0  0  0
  9 14  1  1  0  0  0
 10 21  2  0  0  0  0
 11 28  1  6  0  0  0
 11  5  1  0  0  0  0
 11  8  1  0  0  0  0
 12  4  1  0  0  0  0
 12 27  1  0  0  0  0
 13 18  1  0  0  0  0
 15 23  1  0  0  0  0
 16  2  1  0  0  0  0
 17  3  1  0  0  0  0
 18 25  2  0  0  0  0
 19 26  1  0  0  0  0
 20 17  1  0  0  0  0
 20 22  1  0  0  0  0
 22  9  1  0  0  0  0
 22 10  1  0  0  0  0
 23 14  1  0  0  0  0
 26 25  1  0  0  0  0
 26 17  2  0  0  0  0
 27 24  1  1  0  0  0
 27  7  1  0  0  0  0
 29 30  1  0  0  0  0
 30 28  1  0  0  0  0
M  END
>  <MODEL>
1

>  <REMARK>
 VINA RESULT:      -7.7      0.000      0.000
  Name = 
  2 active torsions:
  status: ('A' for Active; 'I' for Inactive)
    1  A    between atoms: C_11  and  O_28
    2  A    between atoms: O_28  and  C_30
                            x       y       z     vdW  Elec       q    Type
                         _______ _______ _______ _____ _____    ______ ____

>  <TORSDO>
F 2

$$$$
=
 OpenBabel11122412393D

 30 35  0  0  1  0  0  0  0  0999 V2000
  161.3850  208.6700  151.9380 C   0  0  0  0  0  0  0  0  0  0  0  0
  161.0130  209.5260  154.2370 C   0  0  0  0  0  0  0  0  0  0  0  0
  160.9650  204.7700  153.1780 N   0  0  0  0  0  2  0  0  0  0  0  0
  161.4500  207.5790  151.0310 C   0  0  0  0  0  0  0  0  0  0  0  0
  161.5620  209.9730  151.4570 O   0  0  0  0  0  0  0  0  0  0  0  0
  161.9750  209.4380  147.9440 O   0  0  0  0  0  0  0  0  0  0  0  0
  162.1670  205.7250  148.5990 C   0  0  1  0  0  3  0  0  0  0  0  0
  161.8660  209.1830  149.1750 C   0  0  0  0  0  0  0  0  0  0  0  0
  161.9470  204.6460  149.6500 C   0  0  2  0  0  3  0  0  0  0  0  0
  161.2050  204.1880  151.9840 C   0  0  0  0  0  0  0  0  0  0  0  0
  162.1580  210.2530  150.1880 C   0  0  1  0  0  3  0  0  0  0  0  0
  161.5340  207.8570  149.6180 N   0  0  0  0  0  0  0  0  0  0  0  0
  160.7420  209.2700  155.5850 C   0  0  0  0  0  3  0  0  0  0  0  0
  161.0840  203.5970  148.9780 C   0  0  0  0  0  2  0  0  0  0  0  0
  162.0920  205.0050  147.2620 C   0  0  0  0  0  2  0  0  0  0  0  0
  161.1720  210.8150  153.8500 F   0  0  0  0  0  0  0  0  0  0  0  0
  161.0490  206.0800  152.8910 C   0  0  0  0  0  0  0  0  0  0  0  0
  160.5700  207.9620  156.0400 C   0  0  0  0  0  3  0  0  0  0  0  0
  161.1130  208.4570  153.3170 C   0  0  0  0  0  0  0  0  0  0  0  0
  161.3170  206.2750  151.5580 C   0  0  0  0  0  0  0  0  0  0  0  0
  161.2660  202.9370  151.8490 O   0  0  0  0  0  0  0  0  0  0  0  0
  161.4140  205.0600  150.9600 N   0  0  0  0  0  0  0  0  0  0  0  0
  161.4950  203.6290  147.5200 C   0  0  0  0  0  2  0  0  0  0  0  0
  159.6970  206.4710  148.7160 C   0  0  0  0  0  1  0  0  0  0  0  0
  160.6660  206.8950  155.1480 C   0  0  0  0  0  3  0  0  0  0  0  0
  160.9340  207.1320  153.7950 C   0  0  0  0  0  0  0  0  0  0  0  0
  161.1660  206.8720  148.6140 C   0  0  2  0  0  3  0  0  0  0  0  0
  161.8430  211.5530  149.7340 O   0  0  0  0  0  0  0  0  0  0  0  0
  160.3360  213.3860  149.9580 C   0  0  0  0  0  1  0  0  0  0  0  0
  160.8080  212.0680  150.5330 C   0  0  0  0  0  2  0  0  0  0  0  0
  1 19  1  0  0  0  0
  2 13  1  0  0  0  0
  4 20  1  0  0  0  0
  4  1  2  0  0  0  0
  5  1  1  0  0  0  0
  6  8  2  0  0  0  0
  7 15  1  6  0  0  0
  7 27  1  0  0  0  0
  7  9  1  0  0  0  0
  8 12  1  0  0  0  0
  8 11  1  0  0  0  0
  9 14  1  6  0  0  0
  9 22  1  0  0  0  0
 10  3  1  0  0  0  0
 11 28  1  6  0  0  0
 11  5  1  0  0  0  0
 12  4  1  0  0  0  0
 13 18  2  0  0  0  0
 15 23  1  0  0  0  0
 16  2  1  0  0  0  0
 17  3  1  0  0  0  0
 17 26  1  0  0  0  0
 19 26  1  0  0  0  0
 19  2  2  0  0  0  0
 20 17  2  0  0  0  0
 21 10  2  0  0  0  0
 22 20  1  0  0  0  0
 22 10  1  0  0  0  0
 23 14  1  0  0  0  0
 25 18  1  0  0  0  0
 26 25  2  0  0  0  0
 27 24  1  1  0  0  0
 27 12  1  0  0  0  0
 28 30  1  0  0  0  0
 29 30  1  0  0  0  0
M  END
>  <MODEL>
2

>  <REMARK>
 VINA RESULT:      -7.5      2.795      6.035
  Name = 
  2 active torsions:
  status: ('A' for Active; 'I' for Inactive)
    1  A    between atoms: C_11  and  O_28
    2  A    between atoms: O_28  and  C_30
                            x       y       z     vdW  Elec       q    Type
                         _______ _______ _______ _____ _____    ______ ____

>  <TORSDO>
F 2

$$$$
=
 OpenBabel11122412393D

 30 35  0  0  1  0  0  0  0  0999 V2000
  161.3210  208.7950  151.5990 C   0  0  0  0  0  0  0  0  0  0  0  0
  161.7060  211.0690  150.6850 C   0  0  0  0  0  0  0  0  0  0  0  0
  161.5800  207.1020  147.8580 N   0  0  0  0  0  2  0  0  0  0  0  0
  161.2220  207.3920  151.3970 C   0  0  0  0  0  0  0  0  0  0  0  0
  161.1990  209.3110  152.8950 O   0  0  0  0  0  0  0  0  0  0  0  0
  160.7960  206.3490  154.8600 O   0  0  0  0  0  0  0  0  0  0  0  0
  160.4560  204.3580  151.6700 C   0  0  1  0  0  3  0  0  0  0  0  0
  160.8840  207.0910  153.8440 C   0  0  0  0  0  0  0  0  0  0  0  0
  160.6250  204.4140  150.1590 C   0  0  2  0  0  3  0  0  0  0  0  0
  161.3280  205.8300  148.2330 C   0  0  0  0  0  0  0  0  0  0  0  0
  160.6250  208.5660  153.9710 C   0  0  1  0  0  3  0  0  0  0  0  0
  161.1610  206.5280  152.5510 N   0  0  0  0  0  0  0  0  0  0  0  0
  161.9550  211.8950  149.5850 C   0  0  0  0  0  3  0  0  0  0  0  0
  161.4520  203.1970  149.7990 C   0  0  0  0  0  2  0  0  0  0  0  0
  160.5150  202.8810  152.0270 C   0  0  0  0  0  2  0  0  0  0  0  0
  161.6000  211.6460  151.9080 F   0  0  0  0  0  0  0  0  0  0  0  0
  161.5490  207.7650  149.0260 C   0  0  0  0  0  0  0  0  0  0  0  0
  162.0720  211.3560  148.3030 C   0  0  0  0  0  3  0  0  0  0  0  0
  161.5730  209.6720  150.5090 C   0  0  0  0  0  0  0  0  0  0  0  0
  161.3000  206.9100  150.0710 C   0  0  0  0  0  0  0  0  0  0  0  0
  161.2200  204.8950  147.3960 O   0  0  0  0  0  0  0  0  0  0  0  0
  161.1620  205.6550  149.5720 N   0  0  0  0  0  0  0  0  0  0  0  0
  161.0560  202.1420  150.8110 C   0  0  0  0  0  2  0  0  0  0  0  0
  162.9510  204.8960  152.0610 C   0  0  0  0  0  1  0  0  0  0  0  0
  161.9430  209.9820  148.1090 C   0  0  0  0  0  3  0  0  0  0  0  0
  161.6960  209.1390  149.1990 C   0  0  0  0  0  0  0  0  0  0  0  0
  161.5000  205.1160  152.4780 C   0  0  2  0  0  3  0  0  0  0  0  0
  160.9940  209.0910  155.2300 O   0  0  0  0  0  0  0  0  0  0  0  0
  162.6310  210.5760  156.1210 C   0  0  0  0  0  1  0  0  0  0  0  0
  161.6060  210.3390  155.0330 C   0  0  0  0  0  2  0  0  0  0  0  0
  1  5  1  0  0  0  0
  2 16  1  0  0  0  0
  3 10  1  0  0  0  0
  3 17  1  0  0  0  0
  4  1  1  0  0  0  0
  4 12  1  0  0  0  0
  5 11  1  0  0  0  0
  7 15  1  1  0  0  0
  7 27  1  0  0  0  0
  8 11  1  0  0  0  0
  8  6  2  0  0  0  0
  9 14  1  1  0  0  0
  9  7  1  0  0  0  0
 10 22  1  0  0  0  0
 11 28  1  1  0  0  0
 12  8  1  0  0  0  0
 13  2  2  0  0  0  0
 14 23  1  0  0  0  0
 17 26  2  0  0  0  0
 17 20  1  0  0  0  0
 18 13  1  0  0  0  0
 19  2  1  0  0  0  0
 19  1  2  0  0  0  0
 20  4  2  0  0  0  0
 21 10  2  0  0  0  0
 22 20  1  0  0  0  0
 22  9  1  0  0  0  0
 23 15  1  0  0  0  0
 25 18  2  0  0  0  0
 25 26  1  0  0  0  0
 26 19  1  0  0  0  0
 27 24  1  6  0  0  0
 27 12  1  0  0  0  0
 30 28  1  0  0  0  0
 30 29  1  0  0  0  0
M  END
>  <MODEL>
3

>  <REMARK>
 VINA RESULT:      -6.6      2.682      7.221
  Name = 
  2 active torsions:
  status: ('A' for Active; 'I' for Inactive)
    1  A    between atoms: C_11  and  O_28
    2  A    between atoms: O_28  and  C_30
                            x       y       z     vdW  Elec       q    Type
                         _______ _______ _______ _____ _____    ______ ____

>  <TORSDO>
F 2

$$$$
=
 OpenBabel11122412393D

 30 35  0  0  1  0  0  0  0  0999 V2000
  161.7650  206.6470  148.3360 C   0  0  0  0  0  0  0  0  0  0  0  0
  161.9450  205.5710  146.1080 C   0  0  0  0  0  0  0  0  0  0  0  0
  160.7640  203.0800  150.1260 N   0  0  0  0  0  2  0  0  0  0  0  0
  161.5450  206.5400  149.7350 C   0  0  0  0  0  0  0  0  0  0  0  0
  162.0770  207.8950  147.7850 O   0  0  0  0  0  0  0  0  0  0  0  0
  162.1790  210.0010  150.6750 O   0  0  0  0  0  0  0  0  0  0  0  0
  160.7680  207.1560  152.7160 C   0  0  1  0  0  3  0  0  0  0  0  0
  161.9770  208.9800  149.9610 C   0  0  0  0  0  0  0  0  0  0  0  0
  160.4580  205.6660  152.7040 C   0  0  2  0  0  3  0  0  0  0  0  0
  160.5850  203.5630  151.3730 C   0  0  0  0  0  0  0  0  0  0  0  0
  161.8360  209.1250  148.4730 C   0  0  1  0  0  3  0  0  0  0  0  0
  161.8100  207.6880  150.5680 N   0  0  0  0  0  0  0  0  0  0  0  0
  161.8740  204.4170  145.3220 C   0  0  0  0  0  3  0  0  0  0  0  0
  161.0760  205.1130  153.9720 C   0  0  0  0  0  2  0  0  0  0  0  0
  160.8700  207.5330  154.1860 C   0  0  0  0  0  2  0  0  0  0  0  0
  162.2530  206.7420  145.4980 F   0  0  0  0  0  0  0  0  0  0  0  0
  161.1300  204.1730  149.4350 C   0  0  0  0  0  0  0  0  0  0  0  0
  161.5600  203.1840  145.8950 C   0  0  0  0  0  3  0  0  0  0  0  0
  161.7010  205.5000  147.4990 C   0  0  0  0  0  0  0  0  0  0  0  0
  161.1820  205.2760  150.2510 C   0  0  0  0  0  0  0  0  0  0  0  0
  160.1800  202.8380  152.3200 O   0  0  0  0  0  0  0  0  0  0  0  0
  160.8400  204.8930  151.5080 N   0  0  0  0  0  0  0  0  0  0  0  0
  160.9700  206.2390  154.9800 C   0  0  0  0  0  2  0  0  0  0  0  0
  163.2820  206.7290  152.3060 C   0  0  0  0  0  1  0  0  0  0  0  0
  161.3150  203.0940  147.2650 C   0  0  0  0  0  3  0  0  0  0  0  0
  161.3850  204.2380  148.0680 C   0  0  0  0  0  0  0  0  0  0  0  0
  162.0450  207.5680  151.9980 C   0  0  2  0  0  3  0  0  0  0  0  0
  162.6040  210.1850  147.9400 O   0  0  0  0  0  0  0  0  0  0  0  0
  162.7790  212.5610  148.0160 C   0  0  0  0  0  1  0  0  0  0  0  0
  161.8490  211.3660  148.0140 C   0  0  0  0  0  2  0  0  0  0  0  0
  1  4  1  0  0  0  0
  2 19  1  0  0  0  0
  3 10  1  0  0  0  0
  4 20  2  0  0  0  0
  4 12  1  0  0  0  0
  5  1  1  0  0  0  0
  5 11  1  0  0  0  0
  7 15  1  1  0  0  0
  8 12  1  0  0  0  0
  8  6  2  0  0  0  0
  9  7  1  0  0  0  0
  9 14  1  1  0  0  0
 10 22  1  0  0  0  0
 10 21  2  0  0  0  0
 11 28  1  6  0  0  0
 11  8  1  0  0  0  0
 12 27  1  0  0  0  0
 13 18  1  0  0  0  0
 13  2  2  0  0  0  0
 14 23  1  0  0  0  0
 15 23  1  0  0  0  0
 16  2  1  0  0  0  0
 17  3  1  0  0  0  0
 17 20  1  0  0  0  0
 18 25  2  0  0  0  0
 19 26  1  0  0  0  0
 19  1  2  0  0  0  0
 20 22  1  0  0  0  0
 22  9  1  0  0  0  0
 25 26  1  0  0  0  0
 26 17  2  0  0  0  0
 27 24  1  6  0  0  0
 27  7  1  0  0  0  0
 28 30  1  0  0  0  0
 30 29  1  0  0  0  0
M  END
>  <MODEL>
4

>  <REMARK>
 VINA RESULT:      -5.9      2.128      3.564
  Name = 
  2 active torsions:
  status: ('A' for Active; 'I' for Inactive)
    1  A    between atoms: C_11  and  O_28
    2  A    between atoms: O_28  and  C_30
                            x       y       z     vdW  Elec       q    Type
                         _______ _______ _______ _____ _____    ______ ____

>  <TORSDO>
F 2

$$$$
=
 OpenBabel11122412393D

 30 35  0  0  1  0  0  0  0  0999 V2000
  161.4120  207.8040  151.0530 C   0  0  0  0  0  0  0  0  0  0  0  0
  161.6280  205.5920  149.9510 C   0  0  0  0  0  0  0  0  0  0  0  0
  160.4550  206.0640  154.6570 N   0  0  0  0  0  2  0  0  0  0  0  0
  161.1820  208.5730  152.2250 C   0  0  0  0  0  0  0  0  0  0  0  0
  161.7090  208.4580  149.8520 O   0  0  0  0  0  0  0  0  0  0  0  0
  161.7520  211.8940  150.8450 O   0  0  0  0  0  0  0  0  0  0  0  0
  160.3720  210.8720  154.2060 C   0  0  1  0  0  3  0  0  0  0  0  0
  161.5730  210.6460  150.9070 C   0  0  0  0  0  0  0  0  0  0  0  0
  160.0860  209.6820  155.1110 C   0  0  2  0  0  3  0  0  0  0  0  0
  160.2580  207.2080  155.3470 C   0  0  0  0  0  0  0  0  0  0  0  0
  161.4420  209.8460  149.6420 C   0  0  1  0  0  3  0  0  0  0  0  0
  161.4220  209.9950  152.1790 N   0  0  0  0  0  0  0  0  0  0  0  0
  161.5810  204.1970  150.0380 C   0  0  0  0  0  3  0  0  0  0  0  0
  160.7030  210.0330  156.4490 C   0  0  0  0  0  2  0  0  0  0  0  0
  160.4560  212.0720  155.1360 C   0  0  0  0  0  2  0  0  0  0  0  0
  161.9220  206.1490  148.7500 F   0  0  0  0  0  0  0  0  0  0  0  0
  160.8090  206.5110  153.4400 C   0  0  0  0  0  0  0  0  0  0  0  0
  161.2830  203.5690  151.2470 C   0  0  0  0  0  3  0  0  0  0  0  0
  161.3740  206.3830  151.0950 C   0  0  0  0  0  0  0  0  0  0  0  0
  160.8360  207.8840  153.4090 C   0  0  0  0  0  0  0  0  0  0  0  0
  159.8570  207.2070  156.5410 O   0  0  0  0  0  0  0  0  0  0  0  0
  160.4900  208.3450  154.6370 N   0  0  0  0  0  0  0  0  0  0  0  0
  160.5700  211.5390  156.5570 C   0  0  0  0  0  2  0  0  0  0  0  0
  162.8950  210.3280  154.1350 C   0  0  0  0  0  1  0  0  0  0  0  0
  161.0290  204.3320  152.3860 C   0  0  0  0  0  3  0  0  0  0  0  0
  161.0730  205.7300  152.3190 C   0  0  0  0  0  0  0  0  0  0  0  0
  161.6480  210.7800  153.3810 C   0  0  2  0  0  3  0  0  0  0  0  0
  162.1970  210.3710  148.5690 O   0  0  0  0  0  0  0  0  0  0  0  0
  162.3370  212.5120  147.5310 C   0  0  0  0  0  1  0  0  0  0  0  0
  161.4360  211.3620  147.9290 C   0  0  0  0  0  2  0  0  0  0  0  0
  1 19  2  0  0  0  0
  1  4  1  0  0  0  0
  2 13  2  0  0  0  0
  2 19  1  0  0  0  0
  3 10  1  0  0  0  0
  4 20  2  0  0  0  0
  5  1  1  0  0  0  0
  6  8  2  0  0  0  0
  7  9  1  0  0  0  0
  7 15  1  1  0  0  0
  8 12  1  0  0  0  0
  9 14  1  1  0  0  0
 10 21  2  0  0  0  0
 11 28  1  6  0  0  0
 11  5  1  0  0  0  0
 11  8  1  0  0  0  0
 12  4  1  0  0  0  0
 12 27  1  0  0  0  0
 13 18  1  0  0  0  0
 14 23  1  0  0  0  0
 15 23  1  0  0  0  0
 16  2  1  0  0  0  0
 17  3  1  0  0  0  0
 18 25  2  0  0  0  0
 19 26  1  0  0  0  0
 20 17  1  0  0  0  0
 20 22  1  0  0  0  0
 22  9  1  0  0  0  0
 22 10  1  0  0  0  0
 26 25  1  0  0  0  0
 26 17  2  0  0  0  0
 27 24  1  1  0  0  0
 27  7  1  0  0  0  0
 29 30  1  0  0  0  0
 30 28  1  0  0  0  0
M  END
>  <MODEL>
5

>  <REMARK>
 VINA RESULT:      -5.6      2.730      4.094
  Name = 
  2 active torsions:
  status: ('A' for Active; 'I' for Inactive)
    1  A    between atoms: C_11  and  O_28
    2  A    between atoms: O_28  and  C_30
                            x       y       z     vdW  Elec       q    Type
                         _______ _______ _______ _____ _____    ______ ____

>  <TORSDO>
F 2

$$$$
=
 OpenBabel11122412393D

 30 35  0  0  1  0  0  0  0  0999 V2000
  161.4820  206.0960  150.3420 C   0  0  0  0  0  0  0  0  0  0  0  0
  161.1230  205.3550  152.6820 C   0  0  0  0  0  0  0  0  0  0  0  0
  160.9010  202.2840  148.9050 N   0  0  0  0  0  2  0  0  0  0  0  0
  161.5140  205.8000  148.9530 C   0  0  0  0  0  0  0  0  0  0  0  0
  161.7130  207.4090  150.7680 O   0  0  0  0  0  0  0  0  0  0  0  0
  162.1360  209.1520  147.6730 O   0  0  0  0  0  0  0  0  0  0  0  0
  162.1790  205.8280  145.8830 C   0  0  1  0  0  3  0  0  0  0  0  0
  162.0070  208.1930  148.4830 C   0  0  0  0  0  0  0  0  0  0  0  0
  161.9080  204.3390  146.0430 C   0  0  2  0  0  3  0  0  0  0  0  0
  161.1290  202.5600  147.6030 C   0  0  0  0  0  0  0  0  0  0  0  0
  162.3310  208.3930  149.9360 C   0  0  1  0  0  3  0  0  0  0  0  0
  161.6200  206.8910  148.0150 N   0  0  0  0  0  0  0  0  0  0  0  0
  160.8310  204.3280  153.5860 C   0  0  0  0  0  3  0  0  0  0  0  0
  161.0120  203.9640  144.8810 C   0  0  0  0  0  2  0  0  0  0  0  0
  162.0880  206.0950  144.3890 C   0  0  0  0  0  2  0  0  0  0  0  0
  161.3350  206.6000  153.1750 F   0  0  0  0  0  0  0  0  0  0  0  0
  161.0380  203.4860  149.4900 C   0  0  0  0  0  0  0  0  0  0  0  0
  160.6050  203.0280  153.1360 C   0  0  0  0  0  3  0  0  0  0  0  0
  161.1900  205.0830  151.2960 C   0  0  0  0  0  0  0  0  0  0  0  0
  161.3260  204.4560  148.5610 C   0  0  0  0  0  0  0  0  0  0  0  0
  161.1420  201.6610  146.7220 O   0  0  0  0  0  0  0  0  0  0  0  0
  161.3800  203.8710  147.3370 N   0  0  0  0  0  0  0  0  0  0  0  0
  161.4360  204.8780  143.7500 C   0  0  0  0  0  2  0  0  0  0  0  0
  159.7390  206.4290  146.4790 C   0  0  0  0  0  1  0  0  0  0  0  0
  160.6680  202.7400  151.7730 C   0  0  0  0  0  3  0  0  0  0  0  0
  160.9560  203.7550  150.8530 C   0  0  0  0  0  0  0  0  0  0  0  0
  161.2230  206.7540  146.6230 C   0  0  2  0  0  3  0  0  0  0  0  0
  162.0700  209.7060  150.3900 O   0  0  0  0  0  0  0  0  0  0  0  0
  160.8840  210.4240  152.3290 C   0  0  0  0  0  1  0  0  0  0  0  0
  162.1070  209.7090  151.7940 C   0  0  0  0  0  2  0  0  0  0  0  0
  1  5  1  0  0  0  0
  1 19  1  0  0  0  0
  2 16  1  0  0  0  0
  2 13  1  0  0  0  0
  3 17  1  0  0  0  0
  4  1  2  0  0  0  0
  6  8  2  0  0  0  0
  7 15  1  6  0  0  0
  7  9  1  0  0  0  0
  7 27  1  0  0  0  0
  8 11  1  0  0  0  0
  9 14  1  6  0  0  0
  9 22  1  0  0  0  0
 10  3  1  0  0  0  0
 11 28  1  1  0  0  0
 11  5  1  0  0  0  0
 12  8  1  0  0  0  0
 12  4  1  0  0  0  0
 17 26  1  0  0  0  0
 18 13  2  0  0  0  0
 19  2  2  0  0  0  0
 20  4  1  0  0  0  0
 20 17  2  0  0  0  0
 21 10  2  0  0  0  0
 22 10  1  0  0  0  0
 22 20  1  0  0  0  0
 23 15  1  0  0  0  0
 23 14  1  0  0  0  0
 25 18  1  0  0  0  0
 26 19  1  0  0  0  0
 26 25  2  0  0  0  0
 27 24  1  1  0  0  0
 27 12  1  0  0  0  0
 28 30  1  0  0  0  0
 30 29  1  0  0  0  0
M  END
>  <MODEL>
6

>  <REMARK>
 VINA RESULT:      -5.5      2.416      5.691
  Name = 
  2 active torsions:
  status: ('A' for Active; 'I' for Inactive)
    1  A    between atoms: C_11  and  O_28
    2  A    between atoms: O_28  and  C_30
                            x       y       z     vdW  Elec       q    Type
                         _______ _______ _______ _____ _____    ______ ____

>  <TORSDO>
F 2

$$$$
=
 OpenBabel11122412393D

 30 35  0  0  1  0  0  0  0  0999 V2000
  160.8500  210.8390  151.5310 C   0  0  0  0  0  0  0  0  0  0  0  0
  159.8640  212.9510  152.3800 C   0  0  0  0  0  0  0  0  0  0  0  0
  159.9570  208.8620  155.0270 N   0  0  0  0  0  2  0  0  0  0  0  0
  161.1350  209.4590  151.7110 C   0  0  0  0  0  0  0  0  0  0  0  0
  161.2030  211.4590  150.3270 O   0  0  0  0  0  0  0  0  0  0  0  0
  162.5860  208.7480  148.4480 O   0  0  0  0  0  0  0  0  0  0  0  0
  162.4540  206.6120  151.5580 C   0  0  1  0  0  3  0  0  0  0  0  0
  162.1200  209.3920  149.4280 C   0  0  0  0  0  0  0  0  0  0  0  0
  161.9050  206.5320  152.9750 C   0  0  2  0  0  3  0  0  0  0  0  0
  160.5100  207.6760  154.6940 C   0  0  0  0  0  0  0  0  0  0  0  0
  162.1470  210.8950  149.4150 C   0  0  1  0  0  3  0  0  0  0  0  0
  161.6290  208.7010  150.5880 N   0  0  0  0  0  0  0  0  0  0  0  0
  159.2100  213.6460  153.4020 C   0  0  0  0  0  3  0  0  0  0  0  0
  161.2350  205.1760  153.0730 C   0  0  0  0  0  2  0  0  0  0  0  0
  162.7400  205.1740  151.1560 C   0  0  0  0  0  2  0  0  0  0  0  0
  160.1720  213.6240  151.2440 F   0  0  0  0  0  0  0  0  0  0  0  0
  160.1650  209.6040  153.9260 C   0  0  0  0  0  0  0  0  0  0  0  0
  158.8700  213.0050  154.5930 C   0  0  0  0  0  3  0  0  0  0  0  0
  160.1870  211.5850  152.5440 C   0  0  0  0  0  0  0  0  0  0  0  0
  160.8110  208.8760  152.9570 C   0  0  0  0  0  0  0  0  0  0  0  0
  160.5620  206.7120  155.5030 O   0  0  0  0  0  0  0  0  0  0  0  0
  161.0330  207.6270  153.4390 N   0  0  0  0  0  0  0  0  0  0  0  0
  162.0470  204.2730  152.1680 C   0  0  0  0  0  2  0  0  0  0  0  0
  160.0820  206.7750  150.5500 C   0  0  0  0  0  1  0  0  0  0  0  0
  159.1800  211.6580  154.7740 C   0  0  0  0  0  3  0  0  0  0  0  0
  159.8330  210.9450  153.7610 C   0  0  0  0  0  0  0  0  0  0  0  0
  161.5310  207.2520  150.5300 C   0  0  2  0  0  3  0  0  0  0  0  0
  162.0200  211.4430  148.1190 O   0  0  0  0  0  0  0  0  0  0  0  0
  162.3680  213.7990  148.0260 C   0  0  0  0  0  1  0  0  0  0  0  0
  163.0070  212.4290  147.9510 C   0  0  0  0  0  2  0  0  0  0  0  0
  1  4  2  0  0  0  0
  1 19  1  0  0  0  0
  2 19  2  0  0  0  0
  2 13  1  0  0  0  0
  4 20  1  0  0  0  0
  5  1  1  0  0  0  0
  6  8  2  0  0  0  0
  7 15  1  6  0  0  0
  7  9  1  0  0  0  0
  8 12  1  0  0  0  0
  9 14  1  6  0  0  0
  9 22  1  0  0  0  0
 10  3  1  0  0  0  0
 10 21  2  0  0  0  0
 11 28  1  6  0  0  0
 11  8  1  0  0  0  0
 11  5  1  0  0  0  0
 12  4  1  0  0  0  0
 13 18  2  0  0  0  0
 15 23  1  0  0  0  0
 16  2  1  0  0  0  0
 17  3  1  0  0  0  0
 18 25  1  0  0  0  0
 19 26  1  0  0  0  0
 20 22  1  0  0  0  0
 20 17  2  0  0  0  0
 22 10  1  0  0  0  0
 23 14  1  0  0  0  0
 26 17  1  0  0  0  0
 26 25  2  0  0  0  0
 27 24  1  1  0  0  0
 27 12  1  0  0  0  0
 27  7  1  0  0  0  0
 30 29  1  0  0  0  0
 30 28  1  0  0  0  0
M  END
>  <MODEL>
7

>  <REMARK>
 VINA RESULT:      -5.4      3.676      6.891
  Name = 
  2 active torsions:
  status: ('A' for Active; 'I' for Inactive)
    1  A    between atoms: C_11  and  O_28
    2  A    between atoms: O_28  and  C_30
                            x       y       z     vdW  Elec       q    Type
                         _______ _______ _______ _____ _____    ______ ____

>  <TORSDO>
F 2

$$$$
=
 OpenBabel11122412393D

 30 35  0  0  1  0  0  0  0  0999 V2000
  161.3180  203.7790  147.6790 C   0  0  0  0  0  0  0  0  0  0  0  0
  161.2160  203.9960  145.2100 C   0  0  0  0  0  0  0  0  0  0  0  0
  161.4180  207.8640  148.1670 N   0  0  0  0  0  2  0  0  0  0  0  0
  161.3420  204.3850  148.9640 C   0  0  0  0  0  0  0  0  0  0  0  0
  161.3110  202.3830  147.5810 O   0  0  0  0  0  0  0  0  0  0  0  0
  161.2470  201.3770  151.0130 O   0  0  0  0  0  0  0  0  0  0  0  0
  161.8480  204.9680  152.0080 C   0  0  1  0  0  3  0  0  0  0  0  0
  161.3420  202.1240  150.0000 C   0  0  0  0  0  0  0  0  0  0  0  0
  161.8770  206.4010  151.4960 C   0  0  2  0  0  3  0  0  0  0  0  0
  161.5280  207.8680  149.5130 C   0  0  0  0  0  0  0  0  0  0  0  0
  161.6880  201.5310  148.6640 C   0  0  1  0  0  3  0  0  0  0  0  0
  161.1930  203.5470  150.1280 N   0  0  0  0  0  0  0  0  0  0  0  0
  161.1690  204.8140  144.0760 C   0  0  0  0  0  3  0  0  0  0  0  0
  161.0180  207.1930  152.4590 C   0  0  0  0  0  2  0  0  0  0  0  0
  161.6390  205.0830  153.5100 C   0  0  0  0  0  2  0  0  0  0  0  0
  161.2060  202.6520  145.0300 F   0  0  0  0  0  0  0  0  0  0  0  0
  161.3460  206.5520  147.8810 C   0  0  0  0  0  0  0  0  0  0  0  0
  161.1770  206.2030  144.2020 C   0  0  0  0  0  3  0  0  0  0  0  0
  161.2700  204.5720  146.5000 C   0  0  0  0  0  0  0  0  0  0  0  0
  161.3990  205.7960  149.0260 C   0  0  0  0  0  0  0  0  0  0  0  0
  161.6740  208.9340  150.1680 O   0  0  0  0  0  0  0  0  0  0  0  0
  161.5090  206.6350  150.0870 N   0  0  0  0  0  0  0  0  0  0  0  0
  161.2050  206.5130  153.8000 C   0  0  0  0  0  2  0  0  0  0  0  0
  159.3680  204.6850  151.3470 C   0  0  0  0  0  1  0  0  0  0  0  0
  161.2320  206.7900  145.4650 C   0  0  0  0  0  3  0  0  0  0  0  0
  161.2770  205.9870  146.6110 C   0  0  0  0  0  0  0  0  0  0  0  0
  160.7670  204.0780  151.4130 C   0  0  2  0  0  3  0  0  0  0  0  0
  161.2000  200.2160  148.4940 O   0  0  0  0  0  0  0  0  0  0  0  0
  161.5810  199.1730  146.3850 C   0  0  0  0  0  1  0  0  0  0  0  0
  160.6890  200.0930  147.1920 C   0  0  0  0  0  2  0  0  0  0  0  0
  1  4  1  0  0  0  0
  2 19  1  0  0  0  0
  3 10  1  0  0  0  0
  4 20  2  0  0  0  0
  4 12  1  0  0  0  0
  5  1  1  0  0  0  0
  5 11  1  0  0  0  0
  7 15  1  1  0  0  0
  8 12  1  0  0  0  0
  8  6  2  0  0  0  0
  9  7  1  0  0  0  0
  9 14  1  1  0  0  0
 10 22  1  0  0  0  0
 10 21  2  0  0  0  0
 11 28  1  6  0  0  0
 11  8  1  0  0  0  0
 12 27  1  0  0  0  0
 13 18  1  0  0  0  0
 13  2  2  0  0  0  0
 14 23  1  0  0  0  0
 15 23  1  0  0  0  0
 16  2  1  0  0  0  0
 17  3  1  0  0  0  0
 17 20  1  0  0  0  0
 18 25  2  0  0  0  0
 19 26  1  0  0  0  0
 19  1  2  0  0  0  0
 20 22  1  0  0  0  0
 22  9  1  0  0  0  0
 25 26  1  0  0  0  0
 26 17  2  0  0  0  0
 27 24  1  6  0  0  0
 27  7  1  0  0  0  0
 29 30  1  0  0  0  0
 30 28  1  0  0  0  0
M  END
>  <MODEL>
8

>  <REMARK>
 VINA RESULT:      -5.2      2.022      4.817
  Name = 
  2 active torsions:
  status: ('A' for Active; 'I' for Inactive)
    1  A    between atoms: C_11  and  O_28
    2  A    between atoms: O_28  and  C_30
                            x       y       z     vdW  Elec       q    Type
                         _______ _______ _______ _____ _____    ______ ____

>  <TORSDO>
F 2

$$$$
=
 OpenBabel11122412393D

 30 35  0  0  1  0  0  0  0  0999 V2000
  161.1170  203.9290  148.5970 C   0  0  0  0  0  0  0  0  0  0  0  0
  160.8310  201.5770  149.3320 C   0  0  0  0  0  0  0  0  0  0  0  0
  161.2780  205.2650  152.4850 N   0  0  0  0  0  2  0  0  0  0  0  0
  161.3260  205.2980  148.9160 C   0  0  0  0  0  0  0  0  0  0  0  0
  161.0470  203.5430  147.2530 O   0  0  0  0  0  0  0  0  0  0  0  0
  161.6150  206.6310  145.5400 O   0  0  0  0  0  0  0  0  0  0  0  0
  161.3410  208.4380  148.8440 C   0  0  1  0  0  3  0  0  0  0  0  0
  161.3920  205.8270  146.4870 C   0  0  0  0  0  0  0  0  0  0  0  0
  161.2940  208.2460  150.3530 C   0  0  2  0  0  3  0  0  0  0  0  0
  161.3850  206.5820  152.2050 C   0  0  0  0  0  0  0  0  0  0  0  0
  160.8100  204.4730  146.1940 C   0  0  1  0  0  3  0  0  0  0  0  0
  161.6230  206.2210  147.8490 N   0  0  0  0  0  0  0  0  0  0  0  0
  160.7320  200.6470  150.3710 C   0  0  0  0  0  3  0  0  0  0  0  0
  162.3310  209.1970  150.9140 C   0  0  0  0  0  2  0  0  0  0  0  0
  161.7940  209.8740  148.6360 C   0  0  0  0  0  2  0  0  0  0  0  0
  160.7530  201.1230  148.0570 F   0  0  0  0  0  0  0  0  0  0  0  0
  161.2440  204.7050  151.2640 C   0  0  0  0  0  0  0  0  0  0  0  0
  160.8060  201.0580  151.7030 C   0  0  0  0  0  3  0  0  0  0  0  0
  161.0100  202.9500  149.6210 C   0  0  0  0  0  0  0  0  0  0  0  0
  161.3430  205.6610  150.2820 C   0  0  0  0  0  0  0  0  0  0  0  0
  161.3940  207.4590  153.1080 O   0  0  0  0  0  0  0  0  0  0  0  0
  161.4410  206.8760  150.8770 N   0  0  0  0  0  0  0  0  0  0  0  0
  162.3310  210.3790  149.9670 C   0  0  0  0  0  2  0  0  0  0  0  0
  163.6680  207.3290  148.6840 C   0  0  0  0  0  1  0  0  0  0  0  0
  160.9800  202.4070  152.0080 C   0  0  0  0  0  3  0  0  0  0  0  0
  161.0840  203.3520  150.9810 C   0  0  0  0  0  0  0  0  0  0  0  0
  162.2730  207.4990  148.0900 C   0  0  2  0  0  3  0  0  0  0  0  0
  161.2060  203.9540  144.9400 O   0  0  0  0  0  0  0  0  0  0  0  0
  160.0800  201.8540  144.8860 C   0  0  0  0  0  1  0  0  0  0  0  0
  160.1150  203.2780  144.3710 C   0  0  0  0  0  2  0  0  0  0  0  0
  1  4  2  0  0  0  0
  1 19  1  0  0  0  0
  2 19  2  0  0  0  0
  2 13  1  0  0  0  0
  4 20  1  0  0  0  0
  5  1  1  0  0  0  0
  6  8  2  0  0  0  0
  7 15  1  1  0  0  0
  7  9  1  0  0  0  0
  8 12  1  0  0  0  0
  9 22  1  0  0  0  0
  9 14  1  1  0  0  0
 10  3  1  0  0  0  0
 10 21  2  0  0  0  0
 11 28  1  6  0  0  0
 11  8  1  0  0  0  0
 11  5  1  0  0  0  0
 12 27  1  0  0  0  0
 12  4  1  0  0  0  0
 13 18  2  0  0  0  0
 15 23  1  0  0  0  0
 16  2  1  0  0  0  0
 17  3  1  0  0  0  0
 18 25  1  0  0  0  0
 19 26  1  0  0  0  0
 20 22  1  0  0  0  0
 20 17  2  0  0  0  0
 22 10  1  0  0  0  0
 23 14  1  0  0  0  0
 26 17  1  0  0  0  0
 26 25  2  0  0  0  0
 27 24  1  1  0  0  0
 27  7  1  0  0  0  0
 30 29  1  0  0  0  0
 30 28  1  0  0  0  0
M  END
>  <MODEL>
9

>  <REMARK>
 VINA RESULT:      -5.0      1.553      2.133
  Name = 
  2 active torsions:
  status: ('A' for Active; 'I' for Inactive)
    1  A    between atoms: C_11  and  O_28
    2  A    between atoms: O_28  and  C_30
                            x       y       z     vdW  Elec       q    Type
                         _______ _______ _______ _____ _____    ______ ____

>  <TORSDO>
F 2

$$$$
