=
 OpenBabel11122413073D

 31 35  0  0  1  0  0  0  0  0999 V2000
  160.8170  206.9380  154.3110 C   0  0  0  0  0  0  0  0  0  0  0  0
  161.8580  207.8920  150.7350 C   0  0  2  0  0  3  0  0  0  0  0  0
  161.5080  206.6580  149.9070 C   0  0  0  0  0  0  0  0  0  0  0  0
  161.0660  204.2740  149.6840 C   0  0  0  0  0  0  0  0  0  0  0  0
  161.3890  207.9650  152.1790 C   0  0  0  0  0  0  0  0  0  0  0  0
  160.8090  208.1920  154.9210 C   0  0  0  0  0  3  0  0  0  0  0  0
  161.3190  205.3920  150.4820 C   0  0  0  0  0  3  0  0  0  0  0  0
  161.7920  210.4340  150.7660 C   0  0  0  0  0  0  0  0  0  0  0  0
  160.5460  205.8280  155.0380 F   0  0  0  0  0  0  0  0  0  0  0  0
  161.7630  207.9970  147.8810 O   0  0  0  0  0  0  0  0  0  0  0  0
  160.8460  202.9460  150.3150 C   0  0  0  0  0  1  0  0  0  0  0  0
  161.7010  210.4090  152.0620 N   0  0  0  0  0  0  0  0  0  0  0  0
  161.4890  209.1790  149.9650 C   0  0  1  0  0  3  0  0  0  0  0  0
  161.9910  211.7070  150.1370 N   0  0  0  0  0  2  0  0  0  0  0  0
  161.1230  206.8240  152.9530 C   0  0  0  0  0  3  0  0  0  0  0  0
  161.0250  204.4010  148.2950 C   0  0  0  0  0  3  0  0  0  0  0  0
  161.3980  209.2250  152.8090 C   0  0  0  0  0  0  0  0  0  0  0  0
  161.1040  209.3340  154.1720 C   0  0  0  0  0  3  0  0  0  0  0  0
  162.2120  209.1290  148.6220 C   0  0  0  0  0  2  0  0  0  0  0  0
  161.5110  206.7660  148.4970 C   0  0  0  0  0  0  0  0  0  0  0  0
  161.2520  205.6460  147.7020 C   0  0  0  0  0  3  0  0  0  0  0  0
  160.1540  212.2430  148.6560 C   0  0  0  0  0  1  0  0  0  0  0  0
  161.6550  212.0110  148.7530 C   0  0  1  0  0  3  0  0  0  0  0  0
  161.3200  213.9390  145.7230 C   0  0  1  0  0  3  0  0  0  0  0  0
  161.5230  214.4530  148.0420 C   0  0  0  0  0  2  0  0  0  0  0  0
  163.9860  211.9230  147.1240 F   0  0  0  0  0  0  0  0  0  0  0  0
  160.3470  213.6660  144.5950 C   0  0  0  0  0  1  0  0  0  0  0  0
  160.5770  214.1900  146.9570 N   0  0  0  0  0  2  0  0  0  0  0  0
  163.1760  212.9970  146.9950 N   0  0  0  0  0  0  0  0  0  0  0  0
  162.4450  213.2420  148.2530 C   0  0  2  0  0  3  0  0  0  0  0  0
  162.2390  212.7330  145.9020 C   0  0  0  0  0  2  0  0  0  0  0  0
  1  6  1  0  0  0  0
  1  9  1  0  0  0  0
  2  3  1  6  0  0  0
  2  5  1  0  0  0  0
  3  7  1  0  0  0  0
  4 11  1  0  0  0  0
  4  7  2  0  0  0  0
  5 17  2  0  0  0  0
  5 15  1  0  0  0  0
  8 12  2  0  0  0  0
 10 20  1  0  0  0  0
 10 19  1  0  0  0  0
 12 17  1  0  0  0  0
 13 19  1  6  0  0  0
 13  2  1  0  0  0  0
 13  8  1  0  0  0  0
 14  8  1  0  0  0  0
 15  1  2  0  0  0  0
 16  4  1  0  0  0  0
 17 18  1  0  0  0  0
 18  6  2  0  0  0  0
 20  3  2  0  0  0  0
 21 16  2  0  0  0  0
 21 20  1  0  0  0  0
 23 22  1  1  0  0  0
 23 14  1  0  0  0  0
 24 27  1  6  0  0  0
 24 31  1  0  0  0  0
 24 28  1  0  0  0  0
 25 30  1  0  0  0  0
 28 25  1  0  0  0  0
 29 26  1  0  0  0  0
 29 30  1  0  0  0  0
 30 23  1  6  0  0  0
 31 29  1  0  0  0  0
M  END
>  <MODEL>
1

>  <REMARK>
 VINA RESULT:      -8.0      0.000      0.000
  Name = 
  2 active torsions:
  status: ('A' for Active; 'I' for Inactive)
    1  A    between atoms: C_5  and  N_16
    2  A    between atoms: C_5  and  C_30
                            x       y       z     vdW  Elec       q    Type
                         _______ _______ _______ _____ _____    ______ ____

>  <TORSDO>
F 2

$$$$
=
 OpenBabel11122413073D

 31 35  0  0  1  0  0  0  0  0999 V2000
  161.2070  204.8190  150.8060 C   0  0  0  0  0  0  0  0  0  0  0  0
  160.9510  208.6260  151.2770 C   0  0  2  0  0  3  0  0  0  0  0  0
  161.0910  208.8210  152.7840 C   0  0  0  0  0  0  0  0  0  0  0  0
  160.9460  208.0200  155.0790 C   0  0  0  0  0  0  0  0  0  0  0  0
  161.2160  207.2510  150.6870 C   0  0  0  0  0  0  0  0  0  0  0  0
  161.4440  204.7430  149.4340 C   0  0  0  0  0  3  0  0  0  0  0  0
  160.8740  207.7850  153.7040 C   0  0  0  0  0  3  0  0  0  0  0  0
  161.6500  209.5430  149.0100 C   0  0  0  0  0  0  0  0  0  0  0  0
  161.0850  203.6850  151.5370 F   0  0  0  0  0  0  0  0  0  0  0  0
  161.4680  211.2040  152.3970 O   0  0  0  0  0  0  0  0  0  0  0  0
  160.7350  206.9010  156.0350 C   0  0  0  0  0  1  0  0  0  0  0  0
  161.5490  208.3500  148.5040 N   0  0  0  0  0  0  0  0  0  0  0  0
  161.7360  209.7170  150.5170 C   0  0  1  0  0  3  0  0  0  0  0  0
  161.8670  210.6340  148.1050 N   0  0  0  0  0  2  0  0  0  0  0  0
  161.0750  206.0640  151.4250 C   0  0  0  0  0  3  0  0  0  0  0  0
  161.2120  209.3040  155.5550 C   0  0  0  0  0  3  0  0  0  0  0  0
  161.4360  207.1630  149.2980 C   0  0  0  0  0  0  0  0  0  0  0  0
  161.5540  205.9140  148.6800 C   0  0  0  0  0  3  0  0  0  0  0  0
  161.2200  211.0690  151.0000 C   0  0  0  0  0  2  0  0  0  0  0  0
  161.3130  210.1280  153.2800 C   0  0  0  0  0  0  0  0  0  0  0  0
  161.3920  210.3580  154.6560 C   0  0  0  0  0  3  0  0  0  0  0  0
  163.9700  211.8140  148.3100 C   0  0  0  0  0  1  0  0  0  0  0  0
  162.4600  211.9120  148.4730 C   0  0  1  0  0  3  0  0  0  0  0  0
  159.8030  214.2510  149.1710 C   0  0  1  0  0  3  0  0  0  0  0  0
  162.0220  214.4160  148.3140 C   0  0  0  0  0  2  0  0  0  0  0  0
  160.2720  211.6680  146.6700 F   0  0  0  0  0  0  0  0  0  0  0  0
  158.9530  214.2860  150.4230 C   0  0  0  0  0  1  0  0  0  0  0  0
  161.2060  214.4520  149.5290 N   0  0  0  0  0  2  0  0  0  0  0  0
  160.4540  212.8660  147.2710 N   0  0  0  0  0  0  0  0  0  0  0  0
  161.8770  213.0560  147.6130 C   0  0  2  0  0  3  0  0  0  0  0  0
  159.6290  212.9000  148.4790 C   0  0  0  0  0  2  0  0  0  0  0  0
  1 15  1  0  0  0  0
  1  9  1  0  0  0  0
  2  5  1  1  0  0  0
  2  3  1  0  0  0  0
  3 20  2  0  0  0  0
  3  7  1  0  0  0  0
  4 16  1  0  0  0  0
  4 11  1  0  0  0  0
  5 15  2  0  0  0  0
  6  1  2  0  0  0  0
  7  4  2  0  0  0  0
  8 13  1  0  0  0  0
 10 20  1  0  0  0  0
 12  8  2  0  0  0  0
 12 17  1  0  0  0  0
 13 19  1  6  0  0  0
 13  2  1  0  0  0  0
 14 23  1  0  0  0  0
 14  8  1  0  0  0  0
 17  5  1  0  0  0  0
 18 17  2  0  0  0  0
 18  6  1  0  0  0  0
 19 10  1  0  0  0  0
 20 21  1  0  0  0  0
 21 16  2  0  0  0  0
 23 22  1  6  0  0  0
 24 28  1  0  0  0  0
 24 27  1  1  0  0  0
 25 28  1  0  0  0  0
 26 29  1  0  0  0  0
 29 30  1  0  0  0  0
 29 31  1  0  0  0  0
 30 25  1  0  0  0  0
 30 23  1  1  0  0  0
 31 24  1  0  0  0  0
M  END
>  <MODEL>
2

>  <REMARK>
 VINA RESULT:      -7.5      2.061      4.481
  Name = 
  2 active torsions:
  status: ('A' for Active; 'I' for Inactive)
    1  A    between atoms: C_5  and  N_16
    2  A    between atoms: C_5  and  C_30
                            x       y       z     vdW  Elec       q    Type
                         _______ _______ _______ _____ _____    ______ ____

>  <TORSDO>
F 2

$$$$
=
 OpenBabel11122413073D

 31 35  0  0  1  0  0  0  0  0999 V2000
  161.6480  204.6110  145.6360 C   0  0  0  0  0  0  0  0  0  0  0  0
  160.8380  205.0790  149.3650 C   0  0  2  0  0  3  0  0  0  0  0  0
  161.0610  203.6950  149.9670 C   0  0  0  0  0  0  0  0  0  0  0  0
  161.2190  201.2720  149.7870 C   0  0  0  0  0  0  0  0  0  0  0  0
  161.2690  205.3330  147.9290 C   0  0  0  0  0  0  0  0  0  0  0  0
  161.7880  205.9390  145.2320 C   0  0  0  0  0  3  0  0  0  0  0  0
  161.0790  202.5270  149.1900 C   0  0  0  0  0  3  0  0  0  0  0  0
  161.2100  207.5680  149.7350 C   0  0  0  0  0  0  0  0  0  0  0  0
  161.7600  203.6110  144.7280 F   0  0  0  0  0  0  0  0  0  0  0  0
  161.0320  204.7050  152.1910 O   0  0  0  0  0  0  0  0  0  0  0  0
  161.2580  200.0490  148.9430 C   0  0  0  0  0  1  0  0  0  0  0  0
  161.2580  207.7450  148.4480 N   0  0  0  0  0  0  0  0  0  0  0  0
  161.3830  206.1720  150.3100 C   0  0  1  0  0  3  0  0  0  0  0  0
  161.1850  208.7360  150.5670 N   0  0  0  0  0  2  0  0  0  0  0  0
  161.3710  204.3120  146.9720 C   0  0  0  0  0  3  0  0  0  0  0  0
  161.3170  201.1640  151.1750 C   0  0  0  0  0  3  0  0  0  0  0  0
  161.3930  206.6720  147.5080 C   0  0  0  0  0  0  0  0  0  0  0  0
  161.6560  206.9680  146.1670 C   0  0  0  0  0  3  0  0  0  0  0  0
  160.7010  205.9870  151.6620 C   0  0  0  0  0  2  0  0  0  0  0  0
  161.1140  203.5700  151.3760 C   0  0  0  0  0  0  0  0  0  0  0  0
  161.2610  202.3130  151.9680 C   0  0  0  0  0  3  0  0  0  0  0  0
  162.7490  209.7520  152.1080 C   0  0  0  0  0  1  0  0  0  0  0  0
  161.5970  208.7680  151.9630 C   0  0  1  0  0  3  0  0  0  0  0  0
  161.5580  210.2950  155.2310 C   0  0  1  0  0  3  0  0  0  0  0  0
  160.4030  210.6620  153.1770 C   0  0  0  0  0  2  0  0  0  0  0  0
  160.4340  207.0960  153.9500 F   0  0  0  0  0  0  0  0  0  0  0  0
  162.7720  210.6710  156.0540 C   0  0  0  0  0  1  0  0  0  0  0  0
  161.5790  211.0310  153.9680 N   0  0  0  0  0  2  0  0  0  0  0  0
  160.4040  208.4310  154.1630 N   0  0  0  0  0  0  0  0  0  0  0  0
  160.4120  209.1550  152.8770 C   0  0  2  0  0  3  0  0  0  0  0  0
  161.5750  208.7920  154.9610 C   0  0  0  0  0  2  0  0  0  0  0  0
  1 15  1  0  0  0  0
  2  5  1  6  0  0  0
  2  3  1  0  0  0  0
  2 13  1  0  0  0  0
  3 20  1  0  0  0  0
  4 16  2  0  0  0  0
  6  1  2  0  0  0  0
  6 18  1  0  0  0  0
  7  4  1  0  0  0  0
  7  3  2  0  0  0  0
  8 13  1  0  0  0  0
  8 14  1  0  0  0  0
  9  1  1  0  0  0  0
 11  4  1  0  0  0  0
 12  8  2  0  0  0  0
 13 19  1  1  0  0  0
 14 23  1  0  0  0  0
 15  5  2  0  0  0  0
 16 21  1  0  0  0  0
 17  5  1  0  0  0  0
 17 12  1  0  0  0  0
 18 17  2  0  0  0  0
 19 10  1  0  0  0  0
 20 21  2  0  0  0  0
 20 10  1  0  0  0  0
 23 22  1  6  0  0  0
 24 27  1  1  0  0  0
 25 28  1  0  0  0  0
 26 29  1  0  0  0  0
 28 24  1  0  0  0  0
 29 31  1  0  0  0  0
 30 23  1  1  0  0  0
 30 25  1  0  0  0  0
 30 29  1  0  0  0  0
 31 24  1  0  0  0  0
M  END
>  <MODEL>
3

>  <REMARK>
 VINA RESULT:      -7.0      3.891      6.678
  Name = 
  2 active torsions:
  status: ('A' for Active; 'I' for Inactive)
    1  A    between atoms: C_5  and  N_16
    2  A    between atoms: C_5  and  C_30
                            x       y       z     vdW  Elec       q    Type
                         _______ _______ _______ _____ _____    ______ ____

>  <TORSDO>
F 2

$$$$
=
 OpenBabel11122413073D

 31 35  0  0  1  0  0  0  0  0999 V2000
  162.0130  208.8110  148.5250 C   0  0  0  0  0  0  0  0  0  0  0  0
  160.9130  207.8410  152.0780 C   0  0  2  0  0  3  0  0  0  0  0  0
  161.0030  206.3170  152.0900 C   0  0  0  0  0  0  0  0  0  0  0  0
  161.0380  204.1580  150.9660 C   0  0  0  0  0  0  0  0  0  0  0  0
  161.4790  208.6010  150.8910 C   0  0  0  0  0  0  0  0  0  0  0  0
  162.2630  210.1730  148.6940 C   0  0  0  0  0  3  0  0  0  0  0  0
  161.0220  205.5530  150.9130 C   0  0  0  0  0  3  0  0  0  0  0  0
  161.3920  209.9400  153.4320 C   0  0  0  0  0  0  0  0  0  0  0  0
  162.1470  208.2440  147.3020 F   0  0  0  0  0  0  0  0  0  0  0  0
  160.8390  206.3680  154.5260 O   0  0  0  0  0  0  0  0  0  0  0  0
  161.0800  203.3680  149.7080 C   0  0  0  0  0  1  0  0  0  0  0  0
  161.5610  210.6050  152.3270 N   0  0  0  0  0  0  0  0  0  0  0  0
  161.4350  208.4210  153.4110 C   0  0  1  0  0  3  0  0  0  0  0  0
  161.3610  210.6830  154.6580 N   0  0  0  0  0  2  0  0  0  0  0  0
  161.6060  208.0350  149.6120 C   0  0  0  0  0  3  0  0  0  0  0  0
  161.0100  203.5040  152.1990 C   0  0  0  0  0  3  0  0  0  0  0  0
  161.7150  209.9820  151.0470 C   0  0  0  0  0  0  0  0  0  0  0  0
  162.1100  210.7580  149.9520 C   0  0  0  0  0  3  0  0  0  0  0  0
  160.6290  207.7780  154.5350 C   0  0  0  0  0  2  0  0  0  0  0  0
  160.9270  205.6440  153.3320 C   0  0  0  0  0  0  0  0  0  0  0  0
  160.9510  204.2480  153.3800 C   0  0  0  0  0  3  0  0  0  0  0  0
  163.0840  210.4840  156.3450 C   0  0  0  0  0  1  0  0  0  0  0  0
  161.6520  210.1280  155.9720 C   0  0  1  0  0  3  0  0  0  0  0  0
  158.6310  212.0590  155.5770 C   0  0  1  0  0  3  0  0  0  0  0  0
  159.2400  210.0960  156.7870 C   0  0  0  0  0  2  0  0  0  0  0  0
  161.7890  212.6650  157.2510 F   0  0  0  0  0  0  0  0  0  0  0  0
  158.0750  212.5860  154.2710 C   0  0  0  0  0  1  0  0  0  0  0  0
  158.7010  210.5990  155.5230 N   0  0  0  0  0  2  0  0  0  0  0  0
  160.5630  212.1260  157.0640 N   0  0  0  0  0  0  0  0  0  0  0  0
  160.6520  210.6540  157.0260 C   0  0  2  0  0  3  0  0  0  0  0  0
  160.0260  212.6400  155.8050 C   0  0  0  0  0  2  0  0  0  0  0  0
  1  6  2  0  0  0  0
  1 15  1  0  0  0  0
  2  5  1  6  0  0  0
  2  3  1  0  0  0  0
  2 13  1  0  0  0  0
  3 20  1  0  0  0  0
  4 16  2  0  0  0  0
  5 17  1  0  0  0  0
  6 18  1  0  0  0  0
  7  4  1  0  0  0  0
  7  3  2  0  0  0  0
  8 14  1  0  0  0  0
  9  1  1  0  0  0  0
 10 19  1  0  0  0  0
 11  4  1  0  0  0  0
 12  8  2  0  0  0  0
 13  8  1  0  0  0  0
 13 19  1  1  0  0  0
 14 23  1  0  0  0  0
 15  5  2  0  0  0  0
 16 21  1  0  0  0  0
 17 12  1  0  0  0  0
 18 17  2  0  0  0  0
 20 21  2  0  0  0  0
 20 10  1  0  0  0  0
 23 22  1  1  0  0  0
 24 27  1  6  0  0  0
 24 31  1  0  0  0  0
 25 30  1  0  0  0  0
 28 24  1  0  0  0  0
 28 25  1  0  0  0  0
 29 26  1  0  0  0  0
 30 23  1  6  0  0  0
 30 29  1  0  0  0  0
 31 29  1  0  0  0  0
M  END
>  <MODEL>
4

>  <REMARK>
 VINA RESULT:      -7.0      3.301      6.568
  Name = 
  2 active torsions:
  status: ('A' for Active; 'I' for Inactive)
    1  A    between atoms: C_5  and  N_16
    2  A    between atoms: C_5  and  C_30
                            x       y       z     vdW  Elec       q    Type
                         _______ _______ _______ _____ _____    ______ ____

>  <TORSDO>
F 2

$$$$
=
 OpenBabel11122413073D

 31 35  0  0  1  0  0  0  0  0999 V2000
  160.8420  202.5520  150.1920 C   0  0  0  0  0  0  0  0  0  0  0  0
  161.7660  206.1910  151.0180 C   0  0  2  0  0  3  0  0  0  0  0  0
  161.6460  206.9150  149.6800 C   0  0  0  0  0  0  0  0  0  0  0  0
  161.6210  206.9430  147.2460 C   0  0  0  0  0  0  0  0  0  0  0  0
  161.2670  204.7590  151.1260 C   0  0  0  0  0  0  0  0  0  0  0  0
  160.6110  202.0460  151.4710 C   0  0  0  0  0  3  0  0  0  0  0  0
  161.6650  206.2390  148.4510 C   0  0  0  0  0  3  0  0  0  0  0  0
  161.2680  206.3690  153.5060 C   0  0  0  0  0  0  0  0  0  0  0  0
  160.7520  201.7360  149.1140 F   0  0  0  0  0  0  0  0  0  0  0  0
  161.7040  209.0440  150.8760 O   0  0  0  0  0  0  0  0  0  0  0  0
  161.6190  206.2050  145.9550 C   0  0  0  0  0  1  0  0  0  0  0  0
  161.1600  205.0750  153.5700 N   0  0  0  0  0  0  0  0  0  0  0  0
  161.1970  207.0650  152.1570 C   0  0  1  0  0  3  0  0  0  0  0  0
  161.2580  207.1000  154.7400 N   0  0  0  0  0  2  0  0  0  0  0  0
  161.1870  203.8950  150.0230 C   0  0  0  0  0  3  0  0  0  0  0  0
  161.5820  208.3380  147.2520 C   0  0  0  0  0  3  0  0  0  0  0  0
  161.0510  204.2340  152.4150 C   0  0  0  0  0  0  0  0  0  0  0  0
  160.7200  202.8850  152.5820 C   0  0  0  0  0  3  0  0  0  0  0  0
  161.9400  208.3970  152.1240 C   0  0  0  0  0  2  0  0  0  0  0  0
  161.6550  208.3300  149.6730 C   0  0  0  0  0  0  0  0  0  0  0  0
  161.6030  209.0300  148.4650 C   0  0  0  0  0  3  0  0  0  0  0  0
  159.4630  208.5960  155.3660 C   0  0  0  0  0  1  0  0  0  0  0  0
  160.8990  208.5050  154.8690 C   0  0  1  0  0  3  0  0  0  0  0  0
  160.4610  211.5160  156.8070 C   0  0  1  0  0  3  0  0  0  0  0  0
  161.2950  209.3260  157.2470 C   0  0  0  0  0  2  0  0  0  0  0  0
  162.7040  210.5720  154.1200 F   0  0  0  0  0  0  0  0  0  0  0  0
  159.2300  212.3980  156.8170 C   0  0  0  0  0  1  0  0  0  0  0  0
  160.1020  210.1740  157.2610 N   0  0  0  0  0  2  0  0  0  0  0  0
  162.2130  210.5990  155.3800 N   0  0  0  0  0  0  0  0  0  0  0  0
  161.8700  209.2350  155.8250 C   0  0  2  0  0  3  0  0  0  0  0  0
  161.0270  211.4540  155.3890 C   0  0  0  0  0  2  0  0  0  0  0  0
  1  6  1  0  0  0  0
  2  3  1  6  0  0  0
  2  5  1  0  0  0  0
  2 13  1  0  0  0  0
  4 16  2  0  0  0  0
  4  7  1  0  0  0  0
  5 17  2  0  0  0  0
  6 18  2  0  0  0  0
  7  3  2  0  0  0  0
  8 12  2  0  0  0  0
  8 14  1  0  0  0  0
  9  1  1  0  0  0  0
 10 19  1  0  0  0  0
 11  4  1  0  0  0  0
 13 19  1  1  0  0  0
 13  8  1  0  0  0  0
 14 23  1  0  0  0  0
 15  1  2  0  0  0  0
 15  5  1  0  0  0  0
 16 21  1  0  0  0  0
 17 18  1  0  0  0  0
 17 12  1  0  0  0  0
 20  3  1  0  0  0  0
 20 10  1  0  0  0  0
 21 20  2  0  0  0  0
 23 22  1  1  0  0  0
 24 27  1  6  0  0  0
 24 28  1  0  0  0  0
 25 28  1  0  0  0  0
 26 29  1  0  0  0  0
 29 31  1  0  0  0  0
 29 30  1  0  0  0  0
 30 23  1  6  0  0  0
 30 25  1  0  0  0  0
 31 24  1  0  0  0  0
M  END
>  <MODEL>
5

>  <REMARK>
 VINA RESULT:      -6.7      3.903      6.652
  Name = 
  2 active torsions:
  status: ('A' for Active; 'I' for Inactive)
    1  A    between atoms: C_5  and  N_16
    2  A    between atoms: C_5  and  C_30
                            x       y       z     vdW  Elec       q    Type
                         _______ _______ _______ _____ _____    ______ ____

>  <TORSDO>
F 2

$$$$
=
 OpenBabel11122413073D

 31 35  0  0  1  0  0  0  0  0999 V2000
  160.8650  204.8070  152.7390 C   0  0  0  0  0  0  0  0  0  0  0  0
  162.0320  206.6080  149.5490 C   0  0  2  0  0  3  0  0  0  0  0  0
  161.6870  205.6320  148.4280 C   0  0  0  0  0  0  0  0  0  0  0  0
  161.2110  203.3930  147.5960 C   0  0  0  0  0  0  0  0  0  0  0  0
  161.5200  206.3240  150.9520 C   0  0  0  0  0  0  0  0  0  0  0  0
  160.8600  205.8650  153.6470 C   0  0  0  0  0  3  0  0  0  0  0  0
  161.4580  204.2670  148.6580 C   0  0  0  0  0  3  0  0  0  0  0  0
  162.0080  209.0610  150.2220 C   0  0  0  0  0  0  0  0  0  0  0  0
  160.5530  203.5560  153.1550 F   0  0  0  0  0  0  0  0  0  0  0  0
  162.0270  207.4330  146.8140 O   0  0  0  0  0  0  0  0  0  0  0  0
  160.9490  201.9550  147.8650 C   0  0  0  0  0  1  0  0  0  0  0  0
  161.8770  208.7100  151.4670 N   0  0  0  0  0  0  0  0  0  0  0  0
  161.7090  208.0560  149.1210 C   0  0  1  0  0  3  0  0  0  0  0  0
  162.2490  210.4460  149.9410 N   0  0  0  0  0  2  0  0  0  0  0  0
  161.2110  205.0320  151.4050 C   0  0  0  0  0  3  0  0  0  0  0  0
  161.2150  203.8690  146.2840 C   0  0  0  0  0  3  0  0  0  0  0  0
  161.5310  207.3840  151.8810 C   0  0  0  0  0  0  0  0  0  0  0  0
  161.1970  207.1520  153.2200 C   0  0  0  0  0  3  0  0  0  0  0  0
  162.4720  208.3300  147.8290 C   0  0  0  0  0  2  0  0  0  0  0  0
  161.7350  206.0930  147.0910 C   0  0  0  0  0  0  0  0  0  0  0  0
  161.4810  205.2170  146.0320 C   0  0  0  0  0  3  0  0  0  0  0  0
  160.4510  211.1470  148.4810 C   0  0  0  0  0  1  0  0  0  0  0  0
  161.9610  211.0980  148.6710 C   0  0  1  0  0  3  0  0  0  0  0  0
  161.7380  213.6760  146.1590 C   0  0  1  0  0  3  0  0  0  0  0  0
  161.4900  213.5970  148.5290 C   0  0  0  0  0  2  0  0  0  0  0  0
  164.4870  211.7630  147.5450 F   0  0  0  0  0  0  0  0  0  0  0  0
  161.0150  213.5690  144.8330 C   0  0  0  0  0  1  0  0  0  0  0  0
  160.7840  213.4930  147.2500 N   0  0  0  0  0  2  0  0  0  0  0  0
  163.5220  212.7090  147.5120 N   0  0  0  0  0  0  0  0  0  0  0  0
  162.5770  212.5150  148.6280 C   0  0  2  0  0  3  0  0  0  0  0  0
  162.8260  212.6060  146.2300 C   0  0  0  0  0  2  0  0  0  0  0  0
  1  9  1  0  0  0  0
  1  6  1  0  0  0  0
  2  3  1  6  0  0  0
  2  5  1  0  0  0  0
  3  7  1  0  0  0  0
  4 11  1  0  0  0  0
  4  7  2  0  0  0  0
  5 15  1  0  0  0  0
  5 17  2  0  0  0  0
  8 12  2  0  0  0  0
 10 20  1  0  0  0  0
 10 19  1  0  0  0  0
 12 17  1  0  0  0  0
 13 19  1  6  0  0  0
 13  2  1  0  0  0  0
 13  8  1  0  0  0  0
 14  8  1  0  0  0  0
 15  1  2  0  0  0  0
 16  4  1  0  0  0  0
 17 18  1  0  0  0  0
 18  6  2  0  0  0  0
 20  3  2  0  0  0  0
 21 16  2  0  0  0  0
 21 20  1  0  0  0  0
 23 22  1  1  0  0  0
 23 14  1  0  0  0  0
 24 27  1  6  0  0  0
 24 31  1  0  0  0  0
 24 28  1  0  0  0  0
 25 30  1  0  0  0  0
 28 25  1  0  0  0  0
 29 26  1  0  0  0  0
 29 30  1  0  0  0  0
 30 23  1  6  0  0  0
 31 29  1  0  0  0  0
M  END
>  <MODEL>
6

>  <REMARK>
 VINA RESULT:      -6.7      1.315      1.746
  Name = 
  2 active torsions:
  status: ('A' for Active; 'I' for Inactive)
    1  A    between atoms: C_5  and  N_16
    2  A    between atoms: C_5  and  C_30
                            x       y       z     vdW  Elec       q    Type
                         _______ _______ _______ _____ _____    ______ ____

>  <TORSDO>
F 2

$$$$
=
 OpenBabel11122413073D

 31 35  0  0  1  0  0  0  0  0999 V2000
  161.0560  201.2400  149.3550 C   0  0  0  0  0  0  0  0  0  0  0  0
  161.6160  205.0430  149.4430 C   0  0  2  0  0  3  0  0  0  0  0  0
  161.2390  205.5040  148.0380 C   0  0  0  0  0  0  0  0  0  0  0  0
  160.9020  205.0990  145.6610 C   0  0  0  0  0  0  0  0  0  0  0  0
  161.3170  203.6090  149.8500 C   0  0  0  0  0  0  0  0  0  0  0  0
  161.0530  200.9470  150.7190 C   0  0  0  0  0  3  0  0  0  0  0  0
  161.1860  204.6270  146.9440 C   0  0  0  0  0  3  0  0  0  0  0  0
  161.4180  205.6050  151.9160 C   0  0  0  0  0  0  0  0  0  0  0  0
  160.9330  200.2430  148.4480 F   0  0  0  0  0  0  0  0  0  0  0  0
  161.1810  207.8050  148.8540 O   0  0  0  0  0  0  0  0  0  0  0  0
  160.8290  204.1490  144.5190 C   0  0  0  0  0  1  0  0  0  0  0  0
  161.4810  204.3390  152.2010 N   0  0  0  0  0  0  0  0  0  0  0  0
  161.0910  206.0420  150.4970 C   0  0  1  0  0  3  0  0  0  0  0  0
  161.4730  206.5380  153.0040 N   0  0  0  0  0  2  0  0  0  0  0  0
  161.2060  202.5600  148.9240 C   0  0  0  0  0  3  0  0  0  0  0  0
  160.6910  206.4620  145.4480 C   0  0  0  0  0  3  0  0  0  0  0  0
  161.3330  203.3010  151.2250 C   0  0  0  0  0  0  0  0  0  0  0  0
  161.1960  201.9760  151.6530 C   0  0  0  0  0  3  0  0  0  0  0  0
  161.6520  207.4150  150.1420 C   0  0  0  0  0  2  0  0  0  0  0  0
  161.0700  206.8880  147.8020 C   0  0  0  0  0  0  0  0  0  0  0  0
  160.7790  207.3560  146.5180 C   0  0  0  0  0  3  0  0  0  0  0  0
  159.7060  207.9780  153.8150 C   0  0  0  0  0  1  0  0  0  0  0  0
  160.9600  207.9000  152.9570 C   0  0  1  0  0  3  0  0  0  0  0  0
  160.7440  211.4540  153.5350 C   0  0  1  0  0  3  0  0  0  0  0  0
  161.6110  209.5920  154.7460 C   0  0  0  0  0  2  0  0  0  0  0  0
  162.6850  209.4010  151.2630 F   0  0  0  0  0  0  0  0  0  0  0  0
  159.5250  212.3220  153.3030 C   0  0  0  0  0  1  0  0  0  0  0  0
  160.4290  210.4270  154.5270 N   0  0  0  0  0  2  0  0  0  0  0  0
  162.3310  209.9570  152.4440 N   0  0  0  0  0  0  0  0  0  0  0  0
  162.0310  208.9070  153.4350 C   0  0  2  0  0  3  0  0  0  0  0  0
  161.1560  210.7980  152.2180 C   0  0  0  0  0  2  0  0  0  0  0  0
  1  6  1  0  0  0  0
  2  3  1  6  0  0  0
  2  5  1  0  0  0  0
  2 13  1  0  0  0  0
  4  7  1  0  0  0  0
  5 17  2  0  0  0  0
  6 18  2  0  0  0  0
  7  3  2  0  0  0  0
  8 12  2  0  0  0  0
  8 14  1  0  0  0  0
  9  1  1  0  0  0  0
 10 19  1  0  0  0  0
 11  4  1  0  0  0  0
 13 19  1  6  0  0  0
 13  8  1  0  0  0  0
 15  1  2  0  0  0  0
 15  5  1  0  0  0  0
 16  4  2  0  0  0  0
 16 21  1  0  0  0  0
 17 18  1  0  0  0  0
 17 12  1  0  0  0  0
 20  3  1  0  0  0  0
 20 10  1  0  0  0  0
 21 20  2  0  0  0  0
 23 14  1  0  0  0  0
 23 22  1  1  0  0  0
 24 27  1  6  0  0  0
 24 28  1  0  0  0  0
 26 29  1  0  0  0  0
 28 25  1  0  0  0  0
 29 30  1  0  0  0  0
 30 23  1  6  0  0  0
 30 25  1  0  0  0  0
 31 29  1  0  0  0  0
 31 24  1  0  0  0  0
M  END
>  <MODEL>
7

>  <REMARK>
 VINA RESULT:      -6.7      3.531      5.935
  Name = 
  2 active torsions:
  status: ('A' for Active; 'I' for Inactive)
    1  A    between atoms: C_5  and  N_16
    2  A    between atoms: C_5  and  C_30
                            x       y       z     vdW  Elec       q    Type
                         _______ _______ _______ _____ _____    ______ ____

>  <TORSDO>
F 2

$$$$
=
 OpenBabel11122413073D

 31 35  0  0  1  0  0  0  0  0999 V2000
  160.6800  212.1060  151.8770 C   0  0  0  0  0  0  0  0  0  0  0  0
  161.7930  208.4870  151.2060 C   0  0  2  0  0  3  0  0  0  0  0  0
  161.3290  207.7230  152.4430 C   0  0  0  0  0  0  0  0  0  0  0  0
  160.6690  207.6210  154.7840 C   0  0  0  0  0  0  0  0  0  0  0  0
  161.3370  209.9250  151.0170 C   0  0  0  0  0  0  0  0  0  0  0  0
  160.7900  212.6520  150.5990 C   0  0  0  0  0  3  0  0  0  0  0  0
  161.0250  208.3610  153.6550 C   0  0  0  0  0  3  0  0  0  0  0  0
  161.9600  208.3890  148.6700 C   0  0  0  0  0  0  0  0  0  0  0  0
  160.3110  212.8880  152.9200 F   0  0  0  0  0  0  0  0  0  0  0  0
  161.6990  205.6320  151.2370 O   0  0  0  0  0  0  0  0  0  0  0  0
  160.3300  208.3180  156.0520 C   0  0  0  0  0  1  0  0  0  0  0  0
  161.8710  209.6860  148.6210 N   0  0  0  0  0  0  0  0  0  0  0  0
  161.5410  207.6530  149.9310 C   0  0  1  0  0  3  0  0  0  0  0  0
  162.2740  207.6970  147.4540 N   0  0  0  0  0  2  0  0  0  0  0  0
  160.9700  210.7560  152.0880 C   0  0  0  0  0  3  0  0  0  0  0  0
  160.6350  206.2260  154.7240 C   0  0  0  0  0  3  0  0  0  0  0  0
  161.4640  210.4910  149.7330 C   0  0  0  0  0  0  0  0  0  0  0  0
  161.1850  211.8470  149.5290 C   0  0  0  0  0  3  0  0  0  0  0  0
  162.2520  206.3150  150.1140 C   0  0  0  0  0  2  0  0  0  0  0  0
  161.3370  206.3090  152.4070 C   0  0  0  0  0  0  0  0  0  0  0  0
  160.9730  205.5720  153.5370 C   0  0  0  0  0  3  0  0  0  0  0  0
  160.4550  206.1110  147.2820 C   0  0  0  0  0  1  0  0  0  0  0  0
  161.9620  206.2990  147.1910 C   0  0  1  0  0  3  0  0  0  0  0  0
  161.3320  203.3200  145.2580 C   0  0  1  0  0  3  0  0  0  0  0  0
  161.3530  205.6600  144.8020 C   0  0  0  0  0  2  0  0  0  0  0  0
  164.3110  204.7580  146.7400 F   0  0  0  0  0  0  0  0  0  0  0  0
  160.4710  202.1480  145.6810 C   0  0  0  0  0  1  0  0  0  0  0  0
  160.5160  204.5320  145.2110 N   0  0  0  0  0  2  0  0  0  0  0  0
  163.3010  204.6310  145.8500 N   0  0  0  0  0  0  0  0  0  0  0  0
  162.4980  205.8670  145.8070 C   0  0  2  0  0  3  0  0  0  0  0  0
  162.4730  203.4960  146.2570 C   0  0  0  0  0  2  0  0  0  0  0  0
  1 15  1  0  0  0  0
  1  9  1  0  0  0  0
  2  5  1  6  0  0  0
  2  3  1  0  0  0  0
  3  7  1  0  0  0  0
  4 11  1  0  0  0  0
  5 15  2  0  0  0  0
  6  1  2  0  0  0  0
  7  4  2  0  0  0  0
  8 13  1  0  0  0  0
 10 20  1  0  0  0  0
 12  8  2  0  0  0  0
 12 17  1  0  0  0  0
 13 19  1  1  0  0  0
 13  2  1  0  0  0  0
 14  8  1  0  0  0  0
 16  4  1  0  0  0  0
 17  5  1  0  0  0  0
 18 17  2  0  0  0  0
 18  6  1  0  0  0  0
 19 10  1  0  0  0  0
 20  3  2  0  0  0  0
 20 21  1  0  0  0  0
 21 16  2  0  0  0  0
 23 22  1  6  0  0  0
 23 14  1  0  0  0  0
 24 27  1  1  0  0  0
 24 31  1  0  0  0  0
 25 28  1  0  0  0  0
 25 30  1  0  0  0  0
 28 24  1  0  0  0  0
 29 31  1  0  0  0  0
 29 26  1  0  0  0  0
 30 29  1  0  0  0  0
 30 23  1  1  0  0  0
M  END
>  <MODEL>
8

>  <REMARK>
 VINA RESULT:      -6.5      3.426      6.363
  Name = 
  2 active torsions:
  status: ('A' for Active; 'I' for Inactive)
    1  A    between atoms: C_5  and  N_16
    2  A    between atoms: C_5  and  C_30
                            x       y       z     vdW  Elec       q    Type
                         _______ _______ _______ _____ _____    ______ ____

>  <TORSDO>
F 2

$$$$
=
 OpenBabel11122413073D

 31 35  0  0  1  0  0  0  0  0999 V2000
  162.0560  206.6400  147.0260 C   0  0  0  0  0  0  0  0  0  0  0  0
  160.6670  205.1880  150.3040 C   0  0  2  0  0  3  0  0  0  0  0  0
  160.8750  203.6830  150.1580 C   0  0  0  0  0  0  0  0  0  0  0  0
  161.1960  201.6780  148.8160 C   0  0  0  0  0  0  0  0  0  0  0  0
  161.2940  206.1190  149.2790 C   0  0  0  0  0  0  0  0  0  0  0  0
  162.1790  207.9860  147.3710 C   0  0  0  0  0  3  0  0  0  0  0  0
  161.0770  203.0660  148.9150 C   0  0  0  0  0  3  0  0  0  0  0  0
  160.8360  207.1410  151.9250 C   0  0  0  0  0  0  0  0  0  0  0  0
  162.3610  206.2310  145.7720 F   0  0  0  0  0  0  0  0  0  0  0  0
  160.4520  203.4360  152.5510 O   0  0  0  0  0  0  0  0  0  0  0  0
  161.4320  201.0460  147.4910 C   0  0  0  0  0  1  0  0  0  0  0  0
  161.0670  207.9410  150.9260 N   0  0  0  0  0  0  0  0  0  0  0  0
  160.9990  205.6410  151.7420 C   0  0  1  0  0  3  0  0  0  0  0  0
  160.6180  207.7310  153.2140 N   0  0  0  0  0  2  0  0  0  0  0  0
  161.5980  205.7160  147.9690 C   0  0  0  0  0  3  0  0  0  0  0  0
  161.0890  200.8830  149.9590 C   0  0  0  0  0  3  0  0  0  0  0  0
  161.4030  207.4840  149.6110 C   0  0  0  0  0  0  0  0  0  0  0  0
  161.8490  208.4080  148.6610 C   0  0  0  0  0  3  0  0  0  0  0  0
  160.1320  204.8190  152.6910 C   0  0  0  0  0  2  0  0  0  0  0  0
  160.7220  202.8650  151.3020 C   0  0  0  0  0  0  0  0  0  0  0  0
  160.8490  201.4770  151.2000 C   0  0  0  0  0  3  0  0  0  0  0  0
  162.3010  207.0230  154.8030 C   0  0  0  0  0  1  0  0  0  0  0  0
  160.8120  207.0450  154.4840 C   0  0  1  0  0  3  0  0  0  0  0  0
  161.7020  209.7760  156.6660 C   0  0  1  0  0  3  0  0  0  0  0  0
  159.8090  209.2310  155.3210 C   0  0  0  0  0  2  0  0  0  0  0  0
  160.8480  206.2980  157.2290 F   0  0  0  0  0  0  0  0  0  0  0  0
  163.0340  210.4950  156.6960 C   0  0  0  0  0  1  0  0  0  0  0  0
  161.0960  209.9290  155.3440 N   0  0  0  0  0  2  0  0  0  0  0  0
  160.6320  207.6010  156.9400 N   0  0  0  0  0  0  0  0  0  0  0  0
  160.0080  207.7340  155.6100 C   0  0  2  0  0  3  0  0  0  0  0  0
  161.9190  208.2960  156.9730 C   0  0  0  0  0  2  0  0  0  0  0  0
  1  6  2  0  0  0  0
  1 15  1  0  0  0  0
  2  5  1  6  0  0  0
  2 13  1  0  0  0  0
  3  2  1  0  0  0  0
  3 20  1  0  0  0  0
  4  7  1  0  0  0  0
  4 16  2  0  0  0  0
  5 17  1  0  0  0  0
  6 18  1  0  0  0  0
  7  3  2  0  0  0  0
  8 14  1  0  0  0  0
  9  1  1  0  0  0  0
 10 19  1  0  0  0  0
 11  4  1  0  0  0  0
 12  8  2  0  0  0  0
 13  8  1  0  0  0  0
 13 19  1  1  0  0  0
 14 23  1  0  0  0  0
 15  5  2  0  0  0  0
 16 21  1  0  0  0  0
 17 12  1  0  0  0  0
 18 17  2  0  0  0  0
 20 10  1  0  0  0  0
 21 20  2  0  0  0  0
 23 22  1  1  0  0  0
 24 27  1  6  0  0  0
 24 31  1  0  0  0  0
 25 28  1  0  0  0  0
 25 30  1  0  0  0  0
 28 24  1  0  0  0  0
 29 31  1  0  0  0  0
 29 26  1  0  0  0  0
 30 23  1  6  0  0  0
 30 29  1  0  0  0  0
M  END
>  <MODEL>
9

>  <REMARK>
 VINA RESULT:      -6.3      3.767      7.317
  Name = 
  2 active torsions:
  status: ('A' for Active; 'I' for Inactive)
    1  A    between atoms: C_5  and  N_16
    2  A    between atoms: C_5  and  C_30
                            x       y       z     vdW  Elec       q    Type
                         _______ _______ _______ _____ _____    ______ ____

>  <TORSDO>
F 2

$$$$
