=
 OpenBabel11122413253D

 31 35  0  0  1  0  0  0  0  0999 V2000
  162.1850  206.9810  137.8880 C   0  0  0  0  0  0  0  0  0  0  0  0
  161.4770  210.7130  137.7450 C   0  0  2  0  0  3  0  0  0  0  0  0
  160.0020  211.0590  137.6750 C   0  0  0  0  0  0  0  0  0  0  0  0
  157.6910  210.4150  137.2860 C   0  0  0  0  0  0  0  0  0  0  0  0
  161.7440  209.3310  138.2710 C   0  0  0  0  0  0  0  0  0  0  0  0
  162.2380  206.7650  139.2690 C   0  0  0  0  0  3  0  0  0  0  0  0
  159.0420  210.0760  137.3910 C   0  0  0  0  0  3  0  0  0  0  0  0
  162.1780  211.5740  140.1210 C   0  0  1  0  0  3  0  0  0  0  0  0
  162.3720  205.9470  137.0330 F   0  0  0  0  0  0  0  0  0  0  0  0
  160.5530  213.4300  138.0710 N   0  0  0  0  0  2  0  0  0  0  0  0
  156.7250  209.4080  137.0120 N   0  0  0  0  0  1  0  0  0  0  0  0
  161.5450  210.2500  140.5920 C   0  0  0  0  0  2  0  0  0  0  0  0
  162.2700  211.7460  138.5720 C   0  0  2  0  0  3  0  0  0  0  0  0
  161.9350  208.2630  137.3880 C   0  0  0  0  0  3  0  0  0  0  0  0
  157.2890  211.7430  137.4500 C   0  0  0  0  0  3  0  0  0  0  0  0
  161.8100  209.1160  139.6550 C   0  0  0  0  0  0  0  0  0  0  0  0
  162.0460  207.8310  140.1530 C   0  0  0  0  0  3  0  0  0  0  0  0
  161.9890  213.1620  138.0600 C   0  0  0  0  0  2  0  0  0  0  0  0
  159.5920  212.4030  137.8050 C   0  0  0  0  0  0  0  0  0  0  0  0
  158.2380  212.7350  137.7070 C   0  0  0  0  0  3  0  0  0  0  0  0
  162.6610  212.5720  142.7740 O   0  0  0  0  0  0  0  0  0  0  0  0
  161.7570  213.1250  142.0910 C   0  0  0  0  0  0  0  0  0  0  0  0
  161.4860  212.6890  140.7570 N   0  0  0  0  0  2  0  0  0  0  0  0
  158.9980  213.5830  144.8540 C   0  0  1  0  0  3  0  0  0  0  0  0
  161.2560  214.3750  144.1910 C   0  0  0  0  0  2  0  0  0  0  0  0
  159.0390  214.2580  141.2650 O   0  0  0  0  0  0  0  0  0  0  0  0
  158.2180  212.5240  145.6050 C   0  0  0  0  0  1  0  0  0  0  0  0
  160.4930  213.3400  145.0140 C   0  0  0  0  0  2  0  0  0  0  0  0
  159.4910  214.0530  142.4220 C   0  0  0  0  0  0  0  0  0  0  0  0
  160.9590  214.2380  142.6930 C   0  0  2  0  0  3  0  0  0  0  0  0
  158.6160  213.5710  143.4470 N   0  0  0  0  0  2  0  0  0  0  0  0
  1  6  1  0  0  0  0
  2  3  1  1  0  0  0
  2  5  1  0  0  0  0
  2 13  1  0  0  0  0
  3 19  1  0  0  0  0
  4  7  1  0  0  0  0
  4 15  2  0  0  0  0
  5 16  2  0  0  0  0
  6 17  2  0  0  0  0
  7  3  2  0  0  0  0
  8 12  1  0  0  0  0
  8 23  1  6  0  0  0
  9  1  1  0  0  0  0
 11  4  1  0  0  0  0
 13 18  1  1  0  0  0
 13  8  1  0  0  0  0
 14  1  2  0  0  0  0
 14  5  1  0  0  0  0
 15 20  1  0  0  0  0
 16 17  1  0  0  0  0
 16 12  1  0  0  0  0
 18 10  1  0  0  0  0
 19 10  1  0  0  0  0
 20 19  2  0  0  0  0
 22 21  2  0  0  0  0
 23 22  1  0  0  0  0
 24 28  1  0  0  0  0
 24 27  1  1  0  0  0
 25 28  1  0  0  0  0
 26 29  2  0  0  0  0
 29 30  1  0  0  0  0
 29 31  1  0  0  0  0
 30 22  1  1  0  0  0
 30 25  1  0  0  0  0
 31 24  1  0  0  0  0
M  END
>  <MODEL>
1

>  <REMARK>
 VINA RESULT:      -5.7      0.000      0.000
  Name = 
  2 active torsions:
  status: ('A' for Active; 'I' for Inactive)
    1  A    between atoms: C_5  and  C_30
    2  A    between atoms: C_10  and  N_16
                            x       y       z     vdW  Elec       q    Type
                         _______ _______ _______ _____ _____    ______ ____

>  <TORSDO>
F 2

$$$$
=
 OpenBabel11122413253D

 31 35  0  0  1  0  0  0  0  0999 V2000
  161.2300  201.1890  148.8060 C   0  0  0  0  0  0  0  0  0  0  0  0
  162.2800  204.7160  149.7600 C   0  0  2  0  0  3  0  0  0  0  0  0
  161.7430  205.7910  148.8350 C   0  0  0  0  0  0  0  0  0  0  0  0
  160.7200  206.4620  146.7340 C   0  0  0  0  0  0  0  0  0  0  0  0
  161.5130  203.4260  149.6890 C   0  0  0  0  0  0  0  0  0  0  0  0
  160.0690  201.0330  149.5700 C   0  0  0  0  0  3  0  0  0  0  0  0
  161.1730  205.4590  147.5960 C   0  0  0  0  0  3  0  0  0  0  0  0
  160.9970  205.1650  152.0020 C   0  0  1  0  0  3  0  0  0  0  0  0
  161.6560  200.1810  148.0080 F   0  0  0  0  0  0  0  0  0  0  0  0
  162.5010  207.5190  150.4230 N   0  0  0  0  0  2  0  0  0  0  0  0
  160.1310  206.1130  145.4880 N   0  0  0  0  0  1  0  0  0  0  0  0
  159.8600  204.4020  151.2970 C   0  0  0  0  0  2  0  0  0  0  0  0
  162.3500  205.2000  151.2230 C   0  0  2  0  0  3  0  0  0  0  0  0
  161.9520  202.3860  148.8630 C   0  0  0  0  0  3  0  0  0  0  0  0
  160.8480  207.8040  147.0950 C   0  0  0  0  0  3  0  0  0  0  0  0
  160.3550  203.2640  150.4640 C   0  0  0  0  0  0  0  0  0  0  0  0
  159.6280  202.0720  150.3950 C   0  0  0  0  0  3  0  0  0  0  0  0
  163.1110  206.5270  151.3050 C   0  0  0  0  0  2  0  0  0  0  0  0
  161.9000  207.1510  149.1770 C   0  0  0  0  0  0  0  0  0  0  0  0
  161.4390  208.1480  148.3140 C   0  0  0  0  0  3  0  0  0  0  0  0
  161.6450  206.6020  154.4060 O   0  0  0  0  0  0  0  0  0  0  0  0
  160.8730  207.1560  153.5790 C   0  0  0  0  0  0  0  0  0  0  0  0
  160.5330  206.5020  152.3540 N   0  0  0  0  0  2  0  0  0  0  0  0
  162.0720  210.5380  155.1870 C   0  0  1  0  0  3  0  0  0  0  0  0
  161.0480  209.6030  153.1270 C   0  0  0  0  0  2  0  0  0  0  0  0
  159.4660  208.1500  156.1060 O   0  0  0  0  0  0  0  0  0  0  0  0
  163.3680  210.8410  155.9080 C   0  0  0  0  0  1  0  0  0  0  0  0
  162.3650  209.9680  153.8060 C   0  0  0  0  0  2  0  0  0  0  0  0
  160.2960  208.7510  155.3770 C   0  0  0  0  0  0  0  0  0  0  0  0
  160.3030  208.5030  153.8930 C   0  0  2  0  0  3  0  0  0  0  0  0
  161.2760  209.6050  155.9760 N   0  0  0  0  0  2  0  0  0  0  0  0
  1 14  2  0  0  0  0
  1  6  1  0  0  0  0
  2  3  1  6  0  0  0
  2 13  1  0  0  0  0
  3 19  1  0  0  0  0
  4 15  2  0  0  0  0
  4  7  1  0  0  0  0
  5  2  1  0  0  0  0
  5 16  2  0  0  0  0
  6 17  2  0  0  0  0
  7  3  2  0  0  0  0
  8 23  1  6  0  0  0
  9  1  1  0  0  0  0
 10 18  1  0  0  0  0
 11  4  1  0  0  0  0
 12  8  1  0  0  0  0
 13 18  1  6  0  0  0
 13  8  1  0  0  0  0
 14  5  1  0  0  0  0
 15 20  1  0  0  0  0
 16 12  1  0  0  0  0
 17 16  1  0  0  0  0
 19 10  1  0  0  0  0
 20 19  2  0  0  0  0
 22 21  2  0  0  0  0
 23 22  1  0  0  0  0
 24 27  1  1  0  0  0
 24 31  1  0  0  0  0
 25 28  1  0  0  0  0
 25 30  1  0  0  0  0
 28 24  1  0  0  0  0
 29 31  1  0  0  0  0
 29 26  2  0  0  0  0
 30 22  1  1  0  0  0
 30 29  1  0  0  0  0
M  END
>  <MODEL>
2

>  <REMARK>
 VINA RESULT:      -4.0     10.212     12.566
  Name = 
  2 active torsions:
  status: ('A' for Active; 'I' for Inactive)
    1  A    between atoms: C_5  and  C_30
    2  A    between atoms: C_10  and  N_16
                            x       y       z     vdW  Elec       q    Type
                         _______ _______ _______ _____ _____    ______ ____

>  <TORSDO>
F 2

$$$$
=
 OpenBabel11122413253D

 31 35  0  0  1  0  0  0  0  0999 V2000
  162.2620  206.0490  146.6330 C   0  0  0  0  0  0  0  0  0  0  0  0
  162.6570  208.3700  149.6170 C   0  0  2  0  0  3  0  0  0  0  0  0
  162.0100  209.7290  149.4310 C   0  0  0  0  0  0  0  0  0  0  0  0
  161.0260  211.4300  148.0000 C   0  0  0  0  0  0  0  0  0  0  0  0
  162.1180  207.3180  148.6900 C   0  0  0  0  0  0  0  0  0  0  0  0
  161.0970  205.3570  146.9770 C   0  0  0  0  0  3  0  0  0  0  0  0
  161.5810  210.1580  148.1660 C   0  0  0  0  0  3  0  0  0  0  0  0
  161.1790  207.2570  151.4750 C   0  0  1  0  0  3  0  0  0  0  0  0
  162.8970  205.7690  145.4690 F   0  0  0  0  0  0  0  0  0  0  0  0
  162.3730  210.2140  151.8220 N   0  0  0  0  0  2  0  0  0  0  0  0
  160.5810  211.8480  146.7160 N   0  0  0  0  0  1  0  0  0  0  0  0
  160.2290  206.9690  150.2970 C   0  0  0  0  0  2  0  0  0  0  0  0
  162.5540  207.8800  151.0760 C   0  0  2  0  0  3  0  0  0  0  0  0
  162.7730  207.0310  147.4880 C   0  0  0  0  0  3  0  0  0  0  0  0
  160.9090  212.2890  149.0950 C   0  0  0  0  0  3  0  0  0  0  0  0
  160.9560  206.6150  149.0400 C   0  0  0  0  0  0  0  0  0  0  0  0
  160.4400  205.6430  148.1780 C   0  0  0  0  0  3  0  0  0  0  0  0
  163.0810  208.9540  152.0330 C   0  0  0  0  0  2  0  0  0  0  0  0
  161.9210  210.6160  150.5250 C   0  0  0  0  0  0  0  0  0  0  0  0
  161.3570  211.8840  150.3540 C   0  0  0  0  0  3  0  0  0  0  0  0
  161.4110  206.9930  154.3290 O   0  0  0  0  0  0  0  0  0  0  0  0
  160.6210  207.8660  153.8800 C   0  0  0  0  0  0  0  0  0  0  0  0
  160.4800  208.0610  152.4710 N   0  0  0  0  0  2  0  0  0  0  0  0
  161.2630  210.5750  156.6570 C   0  0  1  0  0  3  0  0  0  0  0  0
  160.0060  210.1890  154.5510 C   0  0  0  0  0  2  0  0  0  0  0  0
  159.7430  207.2550  156.7450 O   0  0  0  0  0  0  0  0  0  0  0  0
  162.5760  211.0250  157.2610 C   0  0  0  0  0  1  0  0  0  0  0  0
  161.3110  210.7160  155.1410 C   0  0  0  0  0  2  0  0  0  0  0  0
  160.1510  208.3420  156.2590 C   0  0  0  0  0  0  0  0  0  0  0  0
  159.8190  208.6930  154.8340 C   0  0  2  0  0  3  0  0  0  0  0  0
  160.9920  209.1950  157.0430 N   0  0  0  0  0  2  0  0  0  0  0  0
  1  6  2  0  0  0  0
  1 14  1  0  0  0  0
  2  5  1  6  0  0  0
  2 13  1  0  0  0  0
  3  2  1  0  0  0  0
  3 19  1  0  0  0  0
  4  7  1  0  0  0  0
  4 15  2  0  0  0  0
  5 16  1  0  0  0  0
  6 17  1  0  0  0  0
  7  3  2  0  0  0  0
  8 23  1  1  0  0  0
  9  1  1  0  0  0  0
 10 18  1  0  0  0  0
 11  4  1  0  0  0  0
 12  8  1  0  0  0  0
 13  8  1  0  0  0  0
 13 18  1  1  0  0  0
 14  5  2  0  0  0  0
 15 20  1  0  0  0  0
 16 12  1  0  0  0  0
 17 16  2  0  0  0  0
 19 10  1  0  0  0  0
 20 19  2  0  0  0  0
 22 21  2  0  0  0  0
 23 22  1  0  0  0  0
 24 31  1  0  0  0  0
 24 27  1  1  0  0  0
 25 30  1  0  0  0  0
 25 28  1  0  0  0  0
 28 24  1  0  0  0  0
 29 26  2  0  0  0  0
 29 31  1  0  0  0  0
 30 22  1  6  0  0  0
 30 29  1  0  0  0  0
M  END
>  <MODEL>
3

>  <REMARK>
 VINA RESULT:      -3.3      9.021     12.087
  Name = 
  2 active torsions:
  status: ('A' for Active; 'I' for Inactive)
    1  A    between atoms: C_5  and  C_30
    2  A    between atoms: C_10  and  N_16
                            x       y       z     vdW  Elec       q    Type
                         _______ _______ _______ _____ _____    ______ ____

>  <TORSDO>
F 2

$$$$
=
 OpenBabel11122413253D

 31 35  0  0  1  0  0  0  0  0999 V2000
  162.6810  213.6050  147.2910 C   0  0  0  0  0  0  0  0  0  0  0  0
  160.0660  214.2010  149.9840 C   0  0  2  0  0  3  0  0  0  0  0  0
  158.6420  213.9500  149.5270 C   0  0  0  0  0  0  0  0  0  0  0  0
  157.0120  213.6190  147.7540 C   0  0  0  0  0  0  0  0  0  0  0  0
  161.0980  213.5320  149.1220 C   0  0  0  0  0  0  0  0  0  0  0  0
  163.0170  212.2680  147.5270 C   0  0  0  0  0  3  0  0  0  0  0  0
  158.3350  213.8060  148.1650 C   0  0  0  0  0  3  0  0  0  0  0  0
  160.4880  212.2670  151.7050 C   0  0  1  0  0  3  0  0  0  0  0  0
  163.2850  214.2890  146.2890 F   0  0  0  0  0  0  0  0  0  0  0  0
  157.8750  214.1210  151.8650 N   0  0  0  0  0  2  0  0  0  0  0  0
  156.7140  213.4600  146.3730 N   0  0  0  0  0  1  0  0  0  0  0  0
  160.7330  211.4310  150.4340 C   0  0  0  0  0  2  0  0  0  0  0  0
  160.2760  213.7940  151.4570 C   0  0  2  0  0  3  0  0  0  0  0  0
  161.7200  214.2370  148.0860 C   0  0  0  0  0  3  0  0  0  0  0  0
  155.9840  213.5880  148.6990 C   0  0  0  0  0  3  0  0  0  0  0  0
  161.4450  212.1950  149.3650 C   0  0  0  0  0  0  0  0  0  0  0  0
  162.3960  211.5610  148.5600 C   0  0  0  0  0  3  0  0  0  0  0  0
  159.2150  214.4530  152.3440 C   0  0  0  0  0  2  0  0  0  0  0  0
  157.5940  213.9530  150.4720 C   0  0  0  0  0  0  0  0  0  0  0  0
  156.2740  213.7570  150.0550 C   0  0  0  0  0  3  0  0  0  0  0  0
  160.4080  211.9130  154.5560 O   0  0  0  0  0  0  0  0  0  0  0  0
  159.4220  211.5080  153.8840 C   0  0  0  0  0  0  0  0  0  0  0  0
  159.3930  211.6770  152.4650 N   0  0  0  0  0  2  0  0  0  0  0  0
  156.6020  212.4480  156.4570 C   0  0  1  0  0  3  0  0  0  0  0  0
  156.9480  211.4820  154.1960 C   0  0  0  0  0  2  0  0  0  0  0  0
  159.3540  210.0500  156.5730 O   0  0  0  0  0  0  0  0  0  0  0  0
  156.4300  213.7230  157.2560 C   0  0  0  0  0  1  0  0  0  0  0  0
  156.7020  212.7730  154.9730 C   0  0  0  0  0  2  0  0  0  0  0  0
  158.4970  210.8230  156.0710 C   0  0  0  0  0  0  0  0  0  0  0  0
  158.2830  210.8350  154.5820 C   0  0  2  0  0  3  0  0  0  0  0  0
  157.7900  211.7370  156.9160 N   0  0  0  0  0  2  0  0  0  0  0  0
  1  6  2  0  0  0  0
  1 14  1  0  0  0  0
  2  5  1  6  0  0  0
  2 13  1  0  0  0  0
  3  2  1  0  0  0  0
  3 19  1  0  0  0  0
  4  7  1  0  0  0  0
  4 15  2  0  0  0  0
  5 16  1  0  0  0  0
  6 17  1  0  0  0  0
  7  3  2  0  0  0  0
  8 23  1  6  0  0  0
  9  1  1  0  0  0  0
 10 18  1  0  0  0  0
 11  4  1  0  0  0  0
 12  8  1  0  0  0  0
 13  8  1  0  0  0  0
 13 18  1  1  0  0  0
 14  5  2  0  0  0  0
 15 20  1  0  0  0  0
 16 12  1  0  0  0  0
 17 16  2  0  0  0  0
 19 10  1  0  0  0  0
 20 19  2  0  0  0  0
 22 21  2  0  0  0  0
 23 22  1  0  0  0  0
 24 31  1  0  0  0  0
 24 27  1  1  0  0  0
 25 30  1  0  0  0  0
 25 28  1  0  0  0  0
 28 24  1  0  0  0  0
 29 26  2  0  0  0  0
 29 31  1  0  0  0  0
 30 22  1  6  0  0  0
 30 29  1  0  0  0  0
M  END
>  <MODEL>
4

>  <REMARK>
 VINA RESULT:      -3.3      8.965     12.131
  Name = 
  2 active torsions:
  status: ('A' for Active; 'I' for Inactive)
    1  A    between atoms: C_5  and  C_30
    2  A    between atoms: C_10  and  N_16
                            x       y       z     vdW  Elec       q    Type
                         _______ _______ _______ _____ _____    ______ ____

>  <TORSDO>
F 2

$$$$
