=
 OpenBabel11122413243D

 31 35  0  0  1  0  0  0  0  0999 V2000
  160.9210  206.5960  146.6210 C   0  0  0  0  0  0  0  0  0  0  0  0
  160.4840  204.9660  150.0280 C   0  0  2  0  0  3  0  0  0  0  0  0
  161.2480  203.6230  149.9620 C   0  0  2  0  0  3  0  0  0  0  0  0
  161.5810  201.4920  148.6920 C   0  0  2  0  0  3  0  0  0  0  0  0
  160.9500  205.9200  148.9530 C   0  0  0  0  0  0  0  0  0  0  0  0
  161.8630  207.5890  146.8910 C   0  0  0  0  0  3  0  0  0  0  0  0
  160.9750  202.8860  148.6450 C   0  0  0  0  0  2  0  0  0  0  0  0
  162.0280  206.1480  151.6390 C   0  0  2  0  0  3  0  0  0  0  0  0
  160.4510  206.4330  145.3610 F   0  0  0  0  0  0  0  0  0  0  0  0
  160.9780  203.3850  152.5290 C   0  0  0  0  0  2  0  0  0  0  0  0
  161.4060  200.8650  147.4600 O   0  0  0  0  0  1  0  0  0  0  0  0
  162.3490  207.2470  150.6250 C   0  0  0  0  0  2  0  0  0  0  0  0
  160.6010  205.6260  151.4180 C   0  0  2  0  0  3  0  0  0  0  0  0
  160.4660  205.7660  147.6480 C   0  0  0  0  0  3  0  0  0  0  0  0
  160.8740  200.6880  149.7760 C   0  0  0  0  0  2  0  0  0  0  0  0
  161.9020  206.9300  149.2260 C   0  0  0  0  0  0  0  0  0  0  0  0
  162.3440  207.7600  148.1910 C   0  0  0  0  0  3  0  0  0  0  0  0
  160.1450  204.6620  152.5220 C   0  0  0  0  0  2  0  0  0  0  0  0
  160.9500  202.7560  151.1750 C   0  0  0  0  0  0  0  0  0  0  0  0
  160.8770  201.4170  151.0920 C   0  0  0  0  0  3  0  0  0  0  0  0
  160.6300  208.4040  152.6830 O   0  0  0  0  0  0  0  0  0  0  0  0
  161.4350  207.8090  153.4510 C   0  0  0  0  0  0  0  0  0  0  0  0
  162.1740  206.6790  152.9880 N   0  0  0  0  0  2  0  0  0  0  0  0
  159.3890  209.7940  155.8650 C   0  0  1  0  0  3  0  0  0  0  0  0
  160.5740  207.7310  155.8090 C   0  0  0  0  0  2  0  0  0  0  0  0
  162.5820  210.3590  154.0310 O   0  0  0  0  0  1  0  0  0  0  0  0
  158.1310  210.3870  155.7730 O   0  0  0  0  0  1  0  0  0  0  0  0
  159.2770  208.3670  155.5700 N   0  0  0  0  0  2  0  0  0  0  0  0
  161.7180  209.8170  154.9830 C   0  0  2  0  0  3  0  0  0  0  0  0
  161.6420  208.2870  154.8590 C   0  0  2  0  0  3  0  0  0  0  0  0
  160.3380  210.4610  154.8730 C   0  0  0  0  0  2  0  0  0  0  0  0
  1  6  2  0  0  0  0
  1 14  1  0  0  0  0
  2  5  1  6  0  0  0
  2 13  1  0  0  0  0
  3  7  1  6  0  0  0
  3  2  1  0  0  0  0
  3 19  1  0  0  0  0
  4 11  1  6  0  0  0
  4 15  1  0  0  0  0
  5 16  1  0  0  0  0
  6 17  1  0  0  0  0
  7  4  1  0  0  0  0
  8 23  1  1  0  0  0
  9  1  1  0  0  0  0
 12  8  1  0  0  0  0
 13  8  1  0  0  0  0
 13 18  1  1  0  0  0
 14  5  2  0  0  0  0
 15 20  1  0  0  0  0
 16 12  1  0  0  0  0
 17 16  2  0  0  0  0
 18 10  1  0  0  0  0
 19 10  1  0  0  0  0
 20 19  2  0  0  0  0
 21 22  2  0  0  0  0
 23 22  1  0  0  0  0
 24 27  1  6  0  0  0
 28 25  1  0  0  0  0
 28 24  1  0  0  0  0
 29 26  1  6  0  0  0
 30 22  1  6  0  0  0
 30 29  1  0  0  0  0
 30 25  1  0  0  0  0
 31 29  1  0  0  0  0
 31 24  1  0  0  0  0
M  END
>  <MODEL>
1

>  <REMARK>
 VINA RESULT:      -7.6      0.000      0.000
  Name = 
  2 active torsions:
  status: ('A' for Active; 'I' for Inactive)
    1  A    between atoms: C_5  and  C_30
    2  A    between atoms: C_10  and  N_16
                            x       y       z     vdW  Elec       q    Type
                         _______ _______ _______ _____ _____    ______ ____

>  <TORSDO>
F 2

$$$$
=
 OpenBabel11122413243D

 31 35  0  0  1  0  0  0  0  0999 V2000
  161.2010  203.9230  145.9070 C   0  0  0  0  0  0  0  0  0  0  0  0
  160.7580  205.8110  149.1780 C   0  0  2  0  0  3  0  0  0  0  0  0
  161.4620  204.9620  150.2620 C   0  0  2  0  0  3  0  0  0  0  0  0
  161.6780  202.6920  151.2960 C   0  0  2  0  0  3  0  0  0  0  0  0
  161.2450  205.4530  147.7930 C   0  0  0  0  0  0  0  0  0  0  0  0
  162.1910  204.6730  145.2700 C   0  0  0  0  0  3  0  0  0  0  0  0
  161.1320  203.4720  150.1090 C   0  0  0  0  0  2  0  0  0  0  0  0
  162.3810  207.7450  149.1650 C   0  0  2  0  0  3  0  0  0  0  0  0
  160.7020  202.8150  145.3110 F   0  0  0  0  0  0  0  0  0  0  0  0
  161.2290  206.9460  151.9140 C   0  0  0  0  0  2  0  0  0  0  0  0
  161.4530  201.3310  151.1030 O   0  0  0  0  0  1  0  0  0  0  0  0
  162.7310  207.5260  147.6920 C   0  0  0  0  0  2  0  0  0  0  0  0
  160.9290  207.3240  149.4320 C   0  0  2  0  0  3  0  0  0  0  0  0
  160.7310  204.3120  147.1630 C   0  0  0  0  0  3  0  0  0  0  0  0
  160.9570  203.1530  152.5560 C   0  0  0  0  0  2  0  0  0  0  0  0
  162.2440  206.2130  147.1430 C   0  0  0  0  0  0  0  0  0  0  0  0
  162.7020  205.8190  145.8820 C   0  0  0  0  0  3  0  0  0  0  0  0
  160.4530  207.7000  150.8410 C   0  0  0  0  0  2  0  0  0  0  0  0
  161.1480  205.4760  151.6580 C   0  0  0  0  0  0  0  0  0  0  0  0
  161.0160  204.6490  152.7080 C   0  0  0  0  0  3  0  0  0  0  0  0
  161.2970  209.9520  147.7200 O   0  0  0  0  0  0  0  0  0  0  0  0
  161.9950  210.2070  148.7400 C   0  0  0  0  0  0  0  0  0  0  0  0
  162.5750  209.1490  149.5020 N   0  0  0  0  0  2  0  0  0  0  0  0
  160.8710  213.5400  147.4790 C   0  0  1  0  0  3  0  0  0  0  0  0
  160.9360  212.3410  149.5340 C   0  0  0  0  0  2  0  0  0  0  0  0
  164.1380  211.7570  147.6630 O   0  0  0  0  0  1  0  0  0  0  0  0
  160.0640  213.9220  146.4090 O   0  0  0  0  0  1  0  0  0  0  0  0
  160.1320  212.6220  148.3440 N   0  0  0  0  0  2  0  0  0  0  0  0
  163.0170  212.4510  148.1210 C   0  0  2  0  0  3  0  0  0  0  0  0
  162.2400  211.6280  149.1610 C   0  0  2  0  0  3  0  0  0  0  0  0
  162.1290  212.8590  146.9480 C   0  0  0  0  0  2  0  0  0  0  0  0
  1 14  1  0  0  0  0
  2  5  1  6  0  0  0
  2 13  1  0  0  0  0
  2  3  1  0  0  0  0
  3  7  1  1  0  0  0
  3 19  1  0  0  0  0
  4 11  1  6  0  0  0
  4 15  1  0  0  0  0
  6 17  1  0  0  0  0
  6  1  2  0  0  0  0
  7  4  1  0  0  0  0
  8 13  1  0  0  0  0
  8 23  1  6  0  0  0
  9  1  1  0  0  0  0
 12  8  1  0  0  0  0
 13 18  1  1  0  0  0
 14  5  2  0  0  0  0
 15 20  1  0  0  0  0
 16 12  1  0  0  0  0
 16  5  1  0  0  0  0
 17 16  2  0  0  0  0
 18 10  1  0  0  0  0
 19 10  1  0  0  0  0
 19 20  2  0  0  0  0
 21 22  2  0  0  0  0
 22 23  1  0  0  0  0
 24 27  1  6  0  0  0
 24 28  1  0  0  0  0
 28 25  1  0  0  0  0
 29 26  1  6  0  0  0
 29 30  1  0  0  0  0
 30 22  1  6  0  0  0
 30 25  1  0  0  0  0
 31 24  1  0  0  0  0
 31 29  1  0  0  0  0
M  END
>  <MODEL>
2

>  <REMARK>
 VINA RESULT:      -7.5      3.664      5.001
  Name = 
  2 active torsions:
  status: ('A' for Active; 'I' for Inactive)
    1  A    between atoms: C_5  and  C_30
    2  A    between atoms: C_10  and  N_16
                            x       y       z     vdW  Elec       q    Type
                         _______ _______ _______ _____ _____    ______ ____

>  <TORSDO>
F 2

$$$$
=
 OpenBabel11122413243D

 31 35  0  0  1  0  0  0  0  0999 V2000
  160.8180  204.6170  144.8840 C   0  0  0  0  0  0  0  0  0  0  0  0
  160.6420  204.9300  148.6690 C   0  0  2  0  0  3  0  0  0  0  0  0
  161.3690  203.6890  149.2360 C   0  0  2  0  0  3  0  0  0  0  0  0
  161.5460  201.1920  149.1870 C   0  0  2  0  0  3  0  0  0  0  0  0
  161.0340  205.1920  147.2330 C   0  0  0  0  0  0  0  0  0  0  0  0
  161.8010  205.5520  144.5590 C   0  0  0  0  0  3  0  0  0  0  0  0
  160.9680  202.4120  148.4870 C   0  0  0  0  0  2  0  0  0  0  0  0
  162.3430  206.6600  149.3670 C   0  0  2  0  0  3  0  0  0  0  0  0
  160.2380  203.8770  143.9090 F   0  0  0  0  0  0  0  0  0  0  0  0
  161.3160  204.7780  151.5880 C   0  0  0  0  0  2  0  0  0  0  0  0
  161.2530  200.0470  148.4500 O   0  0  0  0  0  1  0  0  0  0  0  0
  162.5990  207.0870  147.9210 C   0  0  0  0  0  2  0  0  0  0  0  0
  160.8920  206.1860  149.5300 C   0  0  2  0  0  3  0  0  0  0  0  0
  160.4360  204.4380  146.2150 C   0  0  0  0  0  3  0  0  0  0  0  0
  160.9180  201.0800  150.5710 C   0  0  0  0  0  2  0  0  0  0  0  0
  162.0270  206.1420  146.9010 C   0  0  0  0  0  0  0  0  0  0  0  0
  162.3950  206.3180  145.5640 C   0  0  0  0  0  3  0  0  0  0  0  0
  160.5130  205.9300  150.9940 C   0  0  0  0  0  2  0  0  0  0  0  0
  161.1580  203.5610  150.7370 C   0  0  0  0  0  0  0  0  0  0  0  0
  161.0500  202.3660  151.3410 C   0  0  0  0  0  3  0  0  0  0  0  0
  161.4430  209.3360  148.9670 O   0  0  0  0  0  0  0  0  0  0  0  0
  162.1260  209.0980  150.0010 C   0  0  0  0  0  0  0  0  0  0  0  0
  162.6160  207.7820  150.2560 N   0  0  0  0  0  2  0  0  0  0  0  0
  160.1350  211.0810  152.4630 C   0  0  1  0  0  3  0  0  0  0  0  0
  162.1330  209.7880  152.4160 C   0  0  0  0  0  2  0  0  0  0  0  0
  161.9250  211.8560  149.2890 O   0  0  0  0  0  1  0  0  0  0  0  0
  158.7840  211.0760  152.8070 O   0  0  0  0  0  1  0  0  0  0  0  0
  160.6870  209.7390  152.6420 N   0  0  0  0  0  2  0  0  0  0  0  0
  161.7670  211.5320  150.6370 C   0  0  2  0  0  3  0  0  0  0  0  0
  162.4490  210.1970  150.9730 C   0  0  2  0  0  3  0  0  0  0  0  0
  160.2860  211.5190  151.0090 C   0  0  0  0  0  2  0  0  0  0  0  0
  1 14  1  0  0  0  0
  2  5  1  6  0  0  0
  2  3  1  0  0  0  0
  2 13  1  0  0  0  0
  3  7  1  6  0  0  0
  3 19  1  0  0  0  0
  4 11  1  6  0  0  0
  4 15  1  0  0  0  0
  6  1  2  0  0  0  0
  6 17  1  0  0  0  0
  7  4  1  0  0  0  0
  8 13  1  0  0  0  0
  8 23  1  1  0  0  0
  9  1  1  0  0  0  0
 12  8  1  0  0  0  0
 13 18  1  1  0  0  0
 14  5  2  0  0  0  0
 15 20  1  0  0  0  0
 16  5  1  0  0  0  0
 16 12  1  0  0  0  0
 17 16  2  0  0  0  0
 18 10  1  0  0  0  0
 19 20  2  0  0  0  0
 19 10  1  0  0  0  0
 21 22  2  0  0  0  0
 22 23  1  0  0  0  0
 24 28  1  0  0  0  0
 24 27  1  6  0  0  0
 25 28  1  0  0  0  0
 29 26  1  6  0  0  0
 29 30  1  0  0  0  0
 29 31  1  0  0  0  0
 30 22  1  6  0  0  0
 30 25  1  0  0  0  0
 31 24  1  0  0  0  0
M  END
>  <MODEL>
3

>  <REMARK>
 VINA RESULT:      -7.2      2.336      2.860
  Name = 
  2 active torsions:
  status: ('A' for Active; 'I' for Inactive)
    1  A    between atoms: C_5  and  C_30
    2  A    between atoms: C_10  and  N_16
                            x       y       z     vdW  Elec       q    Type
                         _______ _______ _______ _____ _____    ______ ____

>  <TORSDO>
F 2

$$$$
=
 OpenBabel11122413243D

 31 35  0  0  1  0  0  0  0  0999 V2000
  160.8000  207.2930  156.3700 C   0  0  0  0  0  0  0  0  0  0  0  0
  161.7200  208.2250  152.8000 C   0  0  2  0  0  3  0  0  0  0  0  0
  160.9710  207.2250  151.8890 C   0  0  2  0  0  3  0  0  0  0  0  0
  160.4950  204.8130  151.4160 C   0  0  2  0  0  3  0  0  0  0  0  0
  161.0990  208.2910  154.1760 C   0  0  0  0  0  0  0  0  0  0  0  0
  159.8910  208.2960  156.7080 C   0  0  0  0  0  3  0  0  0  0  0  0
  161.0710  205.7920  152.4270 C   0  0  0  0  0  2  0  0  0  0  0  0
  160.3960  210.2860  152.1880 C   0  0  2  0  0  3  0  0  0  0  0  0
  161.0950  206.3170  157.2610 F   0  0  0  0  0  0  0  0  0  0  0  0
  161.5930  208.6830  149.8380 C   0  0  0  0  0  2  0  0  0  0  0  0
  160.5070  203.5260  151.9520 O   0  0  0  0  0  1  0  0  0  0  0  0
  159.9250  210.4900  153.6290 C   0  0  0  0  0  2  0  0  0  0  0  0
  161.7860  209.6340  152.1730 C   0  0  2  0  0  3  0  0  0  0  0  0
  161.4010  207.2910  155.1090 C   0  0  0  0  0  3  0  0  0  0  0  0
  161.3540  204.8480  150.1580 C   0  0  0  0  0  2  0  0  0  0  0  0
  160.1800  209.3090  154.5230 C   0  0  0  0  0  0  0  0  0  0  0  0
  159.5910  209.3050  155.7900 C   0  0  0  0  0  3  0  0  0  0  0  0
  162.4010  209.5800  150.7690 C   0  0  0  0  0  2  0  0  0  0  0  0
  161.4440  207.3270  150.4470 C   0  0  0  0  0  0  0  0  0  0  0  0
  161.5220  206.2520  149.6450 C   0  0  0  0  0  3  0  0  0  0  0  0
  158.2440  212.1540  152.0880 O   0  0  0  0  0  0  0  0  0  0  0  0
  159.3170  212.4670  151.5020 C   0  0  0  0  0  0  0  0  0  0  0  0
  160.4290  211.5730  151.5060 N   0  0  0  0  0  2  0  0  0  0  0  0
  157.9400  213.8280  148.3060 C   0  0  1  0  0  3  0  0  0  0  0  0
  158.0730  214.4530  150.5990 C   0  0  0  0  0  2  0  0  0  0  0  0
  161.3400  212.9340  149.5420 O   0  0  0  0  0  1  0  0  0  0  0  0
  157.1200  213.2790  147.3220 O   0  0  0  0  0  1  0  0  0  0  0  0
  157.2660  213.7490  149.6010 N   0  0  0  0  0  2  0  0  0  0  0  0
  160.1590  213.6680  149.4270 C   0  0  2  0  0  3  0  0  0  0  0  0
  159.4370  213.7780  150.7790 C   0  0  2  0  0  3  0  0  0  0  0  0
  159.2580  213.0600  148.3550 C   0  0  0  0  0  2  0  0  0  0  0  0
  1  6  1  0  0  0  0
  1  9  1  0  0  0  0
  2  5  1  1  0  0  0
  3  7  1  1  0  0  0
  3  2  1  0  0  0  0
  4 11  1  1  0  0  0
  4  7  1  0  0  0  0
  5 16  2  0  0  0  0
  5 14  1  0  0  0  0
  8 23  1  1  0  0  0
  8 12  1  0  0  0  0
 10 19  1  0  0  0  0
 10 18  1  0  0  0  0
 12 16  1  0  0  0  0
 13 18  1  6  0  0  0
 13  8  1  0  0  0  0
 13  2  1  0  0  0  0
 14  1  2  0  0  0  0
 15  4  1  0  0  0  0
 16 17  1  0  0  0  0
 17  6  2  0  0  0  0
 19  3  1  0  0  0  0
 20 15  1  0  0  0  0
 20 19  2  0  0  0  0
 22 23  1  0  0  0  0
 22 21  2  0  0  0  0
 24 27  1  6  0  0  0
 24 31  1  0  0  0  0
 24 28  1  0  0  0  0
 25 30  1  0  0  0  0
 28 25  1  0  0  0  0
 29 26  1  1  0  0  0
 29 30  1  0  0  0  0
 30 22  1  6  0  0  0
 31 29  1  0  0  0  0
M  END
>  <MODEL>
4

>  <REMARK>
 VINA RESULT:      -6.9      4.498      6.719
  Name = 
  2 active torsions:
  status: ('A' for Active; 'I' for Inactive)
    1  A    between atoms: C_5  and  C_30
    2  A    between atoms: C_10  and  N_16
                            x       y       z     vdW  Elec       q    Type
                         _______ _______ _______ _____ _____    ______ ____

>  <TORSDO>
F 2

$$$$
=
 OpenBabel11122413243D

 31 35  0  0  1  0  0  0  0  0999 V2000
  161.6120  206.1500  151.9750 C   0  0  0  0  0  0  0  0  0  0  0  0
  160.2840  209.5860  152.9160 C   0  0  2  0  0  3  0  0  0  0  0  0
  161.1470  210.0680  154.1050 C   0  0  2  0  0  3  0  0  0  0  0  0
  162.0440  209.5040  156.3740 C   0  0  2  0  0  3  0  0  0  0  0  0
  160.9750  208.4870  152.1420 C   0  0  0  0  0  0  0  0  0  0  0  0
  162.3330  206.4240  150.8120 C   0  0  0  0  0  3  0  0  0  0  0  0
  161.3620  208.9500  155.1320 C   0  0  0  0  0  2  0  0  0  0  0  0
  161.1410  211.2270  151.1990 C   0  0  2  0  0  3  0  0  0  0  0  0
  161.5740  204.8890  152.4670 F   0  0  0  0  0  0  0  0  0  0  0  0
  160.1140  212.4320  153.8480 C   0  0  0  0  0  2  0  0  0  0  0  0
  162.3160  208.4640  157.2610 O   0  0  0  0  0  1  0  0  0  0  0  0
  161.6630  210.1090  150.2950 C   0  0  0  0  0  2  0  0  0  0  0  0
  159.9050  210.7480  151.9730 C   0  0  2  0  0  3  0  0  0  0  0  0
  160.9370  207.1770  152.6370 C   0  0  0  0  0  3  0  0  0  0  0  0
  161.1090  210.5070  157.0380 C   0  0  0  0  0  2  0  0  0  0  0  0
  161.7030  208.7620  150.9610 C   0  0  0  0  0  0  0  0  0  0  0  0
  162.3690  207.7230  150.3030 C   0  0  0  0  0  3  0  0  0  0  0  0
  159.2160  211.8790  152.7480 C   0  0  0  0  0  2  0  0  0  0  0  0
  160.5640  211.3210  154.7400 C   0  0  0  0  0  0  0  0  0  0  0  0
  160.6380  211.5510  156.0620 C   0  0  0  0  0  3  0  0  0  0  0  0
  161.9950  211.6510  148.5120 O   0  0  0  0  0  0  0  0  0  0  0  0
  161.2670  212.5360  149.0390 C   0  0  0  0  0  0  0  0  0  0  0  0
  160.8140  212.3910  150.3850 N   0  0  0  0  0  2  0  0  0  0  0  0
  160.8740  213.3310  145.4100 C   0  0  1  0  0  3  0  0  0  0  0  0
  159.6210  213.5290  147.4240 C   0  0  0  0  0  2  0  0  0  0  0  0
  163.2050  214.4160  148.1070 O   0  0  0  0  0  1  0  0  0  0  0  0
  161.0570  212.5760  144.2530 O   0  0  0  0  0  1  0  0  0  0  0  0
  159.9110  212.6600  146.2820 N   0  0  0  0  0  2  0  0  0  0  0  0
  162.0100  214.3230  147.3910 C   0  0  2  0  0  3  0  0  0  0  0  0
  160.8780  213.7650  148.2680 C   0  0  2  0  0  3  0  0  0  0  0  0
  162.2110  213.4880  146.1290 C   0  0  0  0  0  2  0  0  0  0  0  0
  1  9  1  0  0  0  0
  1 14  1  0  0  0  0
  2  5  1  6  0  0  0
  2  3  1  0  0  0  0
  3 19  1  0  0  0  0
  3  7  1  1  0  0  0
  4 15  1  0  0  0  0
  4 11  1  1  0  0  0
  5 14  2  0  0  0  0
  6  1  2  0  0  0  0
  7  4  1  0  0  0  0
  8 23  1  6  0  0  0
  8 13  1  0  0  0  0
 10 19  1  0  0  0  0
 12 16  1  0  0  0  0
 12  8  1  0  0  0  0
 13 18  1  1  0  0  0
 13  2  1  0  0  0  0
 16  5  1  0  0  0  0
 17  6  1  0  0  0  0
 17 16  2  0  0  0  0
 18 10  1  0  0  0  0
 19 20  2  0  0  0  0
 20 15  1  0  0  0  0
 21 22  2  0  0  0  0
 22 23  1  0  0  0  0
 24 27  1  6  0  0  0
 24 31  1  0  0  0  0
 24 28  1  0  0  0  0
 25 30  1  0  0  0  0
 28 25  1  0  0  0  0
 29 26  1  1  0  0  0
 29 30  1  0  0  0  0
 30 22  1  6  0  0  0
 31 29  1  0  0  0  0
M  END
>  <MODEL>
5

>  <REMARK>
 VINA RESULT:      -6.4      4.594      8.131
  Name = 
  2 active torsions:
  status: ('A' for Active; 'I' for Inactive)
    1  A    between atoms: C_5  and  C_30
    2  A    between atoms: C_10  and  N_16
                            x       y       z     vdW  Elec       q    Type
                         _______ _______ _______ _____ _____    ______ ____

>  <TORSDO>
F 2

$$$$
=
 OpenBabel11122413243D

 31 35  0  0  1  0  0  0  0  0999 V2000
  160.9620  201.5320  149.5070 C   0  0  0  0  0  0  0  0  0  0  0  0
  162.1090  205.1050  150.1250 C   0  0  2  0  0  3  0  0  0  0  0  0
  161.2140  206.0020  149.2390 C   0  0  2  0  0  3  0  0  0  0  0  0
  160.3280  206.4060  146.9330 C   0  0  2  0  0  3  0  0  0  0  0  0
  161.4800  203.7500  150.3520 C   0  0  0  0  0  0  0  0  0  0  0  0
  160.2380  201.2540  150.6670 C   0  0  0  0  0  3  0  0  0  0  0  0
  161.0470  205.4130  147.8330 C   0  0  0  0  0  2  0  0  0  0  0  0
  161.1860  205.8220  152.3630 C   0  0  2  0  0  3  0  0  0  0  0  0
  161.0590  200.6010  148.5290 F   0  0  0  0  0  0  0  0  0  0  0  0
  162.1290  208.0820  150.4850 C   0  0  0  0  0  2  0  0  0  0  0  0
  160.1000  205.8270  145.6860 O   0  0  0  0  0  1  0  0  0  0  0  0
  160.7270  204.4030  152.7020 C   0  0  0  0  0  2  0  0  0  0  0  0
  162.4380  205.7760  151.4750 C   0  0  2  0  0  3  0  0  0  0  0  0
  161.5800  202.7750  149.3510 C   0  0  0  0  0  3  0  0  0  0  0  0
  161.2060  207.6400  146.7670 C   0  0  0  0  0  2  0  0  0  0  0  0
  160.7490  203.4630  151.5280 C   0  0  0  0  0  0  0  0  0  0  0  0
  160.1410  202.2130  151.6770 C   0  0  0  0  0  3  0  0  0  0  0  0
  163.0630  207.1600  151.2610 C   0  0  0  0  0  2  0  0  0  0  0  0
  161.7290  207.4320  149.2010 C   0  0  0  0  0  0  0  0  0  0  0  0
  161.6320  208.1950  148.1000 C   0  0  0  0  0  3  0  0  0  0  0  0
  160.2090  208.4240  152.9990 O   0  0  0  0  0  0  0  0  0  0  0  0
  160.9320  207.8460  153.8560 C   0  0  0  0  0  0  0  0  0  0  0  0
  161.4610  206.5460  153.5970 N   0  0  0  0  0  2  0  0  0  0  0  0
  159.2150  210.3850  155.9930 C   0  0  1  0  0  3  0  0  0  0  0  0
  160.2000  208.2310  156.2280 C   0  0  0  0  0  2  0  0  0  0  0  0
  162.3390  210.3280  153.9640 O   0  0  0  0  0  1  0  0  0  0  0  0
  158.0140  211.0780  155.8550 O   0  0  0  0  0  1  0  0  0  0  0  0
  158.9560  208.9470  155.9410 N   0  0  0  0  0  2  0  0  0  0  0  0
  161.4830  210.0350  155.0260 C   0  0  2  0  0  3  0  0  0  0  0  0
  161.2600  208.5200  155.1580 C   0  0  2  0  0  3  0  0  0  0  0  0
  160.1640  210.7870  154.8680 C   0  0  0  0  0  2  0  0  0  0  0  0
  1  6  1  0  0  0  0
  2  5  1  1  0  0  0
  2 13  1  0  0  0  0
  3  7  1  6  0  0  0
  3  2  1  0  0  0  0
  4 11  1  6  0  0  0
  4  7  1  0  0  0  0
  5 16  2  0  0  0  0
  6 17  2  0  0  0  0
  8 12  1  0  0  0  0
  8 23  1  1  0  0  0
  9  1  1  0  0  0  0
 10 18  1  0  0  0  0
 13 18  1  6  0  0  0
 13  8  1  0  0  0  0
 14  1  2  0  0  0  0
 14  5  1  0  0  0  0
 15  4  1  0  0  0  0
 15 20  1  0  0  0  0
 16 17  1  0  0  0  0
 16 12  1  0  0  0  0
 19  3  1  0  0  0  0
 19 10  1  0  0  0  0
 20 19  2  0  0  0  0
 21 22  2  0  0  0  0
 23 22  1  0  0  0  0
 24 27  1  6  0  0  0
 28 24  1  0  0  0  0
 28 25  1  0  0  0  0
 29 26  1  6  0  0  0
 29 30  1  0  0  0  0
 30 22  1  6  0  0  0
 30 25  1  0  0  0  0
 31 29  1  0  0  0  0
 31 24  1  0  0  0  0
M  END
>  <MODEL>
6

>  <REMARK>
 VINA RESULT:      -6.2      1.718      4.029
  Name = 
  2 active torsions:
  status: ('A' for Active; 'I' for Inactive)
    1  A    between atoms: C_5  and  C_30
    2  A    between atoms: C_10  and  N_16
                            x       y       z     vdW  Elec       q    Type
                         _______ _______ _______ _____ _____    ______ ____

>  <TORSDO>
F 2

$$$$
=
 OpenBabel11122413243D

 31 35  0  0  1  0  0  0  0  0999 V2000
  160.7030  208.5390  154.9590 C   0  0  0  0  0  0  0  0  0  0  0  0
  161.9510  209.2620  151.4410 C   0  0  2  0  0  3  0  0  0  0  0  0
  161.2070  208.2760  150.5110 C   0  0  2  0  0  3  0  0  0  0  0  0
  160.6050  205.8830  150.0890 C   0  0  2  0  0  3  0  0  0  0  0  0
  161.2350  209.4250  152.7610 C   0  0  0  0  0  0  0  0  0  0  0  0
  159.8420  209.6120  155.1890 C   0  0  0  0  0  3  0  0  0  0  0  0
  161.1680  206.8630  151.1070 C   0  0  0  0  0  2  0  0  0  0  0  0
  160.8220  211.3780  150.6550 C   0  0  2  0  0  3  0  0  0  0  0  0
  160.8630  207.5830  155.9050 F   0  0  0  0  0  0  0  0  0  0  0  0
  162.0800  209.6050  148.4640 C   0  0  0  0  0  2  0  0  0  0  0  0
  160.4890  204.6220  150.6700 O   0  0  0  0  0  1  0  0  0  0  0  0
  160.2580  211.6720  152.0460 C   0  0  0  0  0  2  0  0  0  0  0  0
  162.1610  210.6370  150.7720 C   0  0  2  0  0  3  0  0  0  0  0  0
  161.3960  208.4460  153.7510 C   0  0  0  0  0  3  0  0  0  0  0  0
  161.5560  205.8100  148.9020 C   0  0  0  0  0  2  0  0  0  0  0  0
  160.3640  210.5130  152.9980 C   0  0  0  0  0  0  0  0  0  0  0  0
  159.6810  210.6000  154.2160 C   0  0  0  0  0  3  0  0  0  0  0  0
  162.8750  210.4860  149.4220 C   0  0  0  0  0  2  0  0  0  0  0  0
  161.7940  208.2880  149.1080 C   0  0  0  0  0  0  0  0  0  0  0  0
  161.8580  207.1790  148.3540 C   0  0  0  0  0  3  0  0  0  0  0  0
  159.9810  211.8610  147.9730 O   0  0  0  0  0  0  0  0  0  0  0  0
  160.5400  212.8090  148.5890 C   0  0  0  0  0  0  0  0  0  0  0  0
  160.9940  212.6310  149.9310 N   0  0  0  0  0  2  0  0  0  0  0  0
  161.0000  213.9070  145.0480 C   0  0  1  0  0  3  0  0  0  0  0  0
  159.6330  214.4510  146.9190 C   0  0  0  0  0  2  0  0  0  0  0  0
  163.1500  213.8550  148.0900 O   0  0  0  0  0  1  0  0  0  0  0  0
  161.0550  213.2100  143.8420 O   0  0  0  0  0  1  0  0  0  0  0  0
  159.7410  213.6060  145.7280 N   0  0  0  0  0  2  0  0  0  0  0  0
  162.1240  214.2690  147.2400 C   0  0  2  0  0  3  0  0  0  0  0  0
  160.7510  214.1360  147.9190 C   0  0  2  0  0  3  0  0  0  0  0  0
  162.1800  213.4970  145.9250 C   0  0  0  0  0  2  0  0  0  0  0  0
  1  6  1  0  0  0  0
  1  9  1  0  0  0  0
  2  5  1  1  0  0  0
  3  7  1  1  0  0  0
  3  2  1  0  0  0  0
  4 11  1  1  0  0  0
  4  7  1  0  0  0  0
  5 16  2  0  0  0  0
  5 14  1  0  0  0  0
  8 23  1  1  0  0  0
  8 13  1  0  0  0  0
  8 12  1  0  0  0  0
 10 19  1  0  0  0  0
 10 18  1  0  0  0  0
 12 16  1  0  0  0  0
 13 18  1  6  0  0  0
 13  2  1  0  0  0  0
 14  1  2  0  0  0  0
 15  4  1  0  0  0  0
 16 17  1  0  0  0  0
 17  6  2  0  0  0  0
 19  3  1  0  0  0  0
 20 15  1  0  0  0  0
 20 19  2  0  0  0  0
 21 22  2  0  0  0  0
 22 23  1  0  0  0  0
 24 27  1  6  0  0  0
 24 28  1  0  0  0  0
 24 31  1  0  0  0  0
 25 30  1  0  0  0  0
 28 25  1  0  0  0  0
 29 30  1  0  0  0  0
 29 26  1  1  0  0  0
 30 22  1  6  0  0  0
 31 29  1  0  0  0  0
M  END
>  <MODEL>
7

>  <REMARK>
 VINA RESULT:      -5.7      5.047      7.630
  Name = 
  2 active torsions:
  status: ('A' for Active; 'I' for Inactive)
    1  A    between atoms: C_5  and  C_30
    2  A    between atoms: C_10  and  N_16
                            x       y       z     vdW  Elec       q    Type
                         _______ _______ _______ _____ _____    ______ ____

>  <TORSDO>
F 2

$$$$
=
 OpenBabel11122413243D

 31 35  0  0  1  0  0  0  0  0999 V2000
  162.1900  211.0370  149.3720 C   0  0  0  0  0  0  0  0  0  0  0  0
  162.1270  208.1950  151.8970 C   0  0  2  0  0  3  0  0  0  0  0  0
  160.8630  208.4150  152.7590 C   0  0  2  0  0  3  0  0  0  0  0  0
  159.5690  210.0380  154.1590 C   0  0  2  0  0  3  0  0  0  0  0  0
  162.0380  208.9380  150.5850 C   0  0  0  0  0  0  0  0  0  0  0  0
  161.7790  210.3960  148.2020 C   0  0  0  0  0  3  0  0  0  0  0  0
  160.7050  209.8870  153.1590 C   0  0  0  0  0  2  0  0  0  0  0  0
  161.3470  206.1210  150.6870 C   0  0  2  0  0  3  0  0  0  0  0  0
  162.4570  212.3640  149.3590 F   0  0  0  0  0  0  0  0  0  0  0  0
  161.1830  206.0490  153.7680 C   0  0  0  0  0  2  0  0  0  0  0  0
  159.3760  211.3880  154.4460 O   0  0  0  0  0  1  0  0  0  0  0  0
  161.4540  206.7990  149.3200 C   0  0  0  0  0  2  0  0  0  0  0  0
  162.3980  206.6960  151.6470 C   0  0  2  0  0  3  0  0  0  0  0  0
  162.3180  210.3100  150.5570 C   0  0  0  0  0  3  0  0  0  0  0  0
  159.9410  209.2960  155.4360 C   0  0  0  0  0  2  0  0  0  0  0  0
  161.6260  208.2910  149.3970 C   0  0  0  0  0  0  0  0  0  0  0  0
  161.5080  209.0270  148.2130 C   0  0  0  0  0  3  0  0  0  0  0  0
  162.4770  205.9250  152.9700 C   0  0  0  0  0  2  0  0  0  0  0  0
  160.8480  207.4910  153.9670 C   0  0  0  0  0  0  0  0  0  0  0  0
  160.3390  207.8730  155.1500 C   0  0  0  0  0  3  0  0  0  0  0  0
  161.0610  204.6840  148.2410 O   0  0  0  0  0  0  0  0  0  0  0  0
  161.3840  204.0280  149.2690 C   0  0  0  0  0  0  0  0  0  0  0  0
  161.5340  204.6850  150.5270 N   0  0  0  0  0  2  0  0  0  0  0  0
  159.1240  201.0610  149.0420 C   0  0  1  0  0  3  0  0  0  0  0  0
  161.0150  201.9520  147.9040 C   0  0  0  0  0  2  0  0  0  0  0  0
  161.4810  202.3870  151.6040 O   0  0  0  0  0  1  0  0  0  0  0  0
  157.7360  200.9310  149.0150 O   0  0  0  0  0  1  0  0  0  0  0  0
  159.5520  201.9370  147.9520 N   0  0  0  0  0  2  0  0  0  0  0  0
  161.0720  201.7810  150.4160 C   0  0  2  0  0  3  0  0  0  0  0  0
  161.6010  202.5440  149.1910 C   0  0  2  0  0  3  0  0  0  0  0  0
  159.5510  201.6480  150.3840 C   0  0  0  0  0  2  0  0  0  0  0  0
  1 14  1  0  0  0  0
  2  5  1  6  0  0  0
  2  3  1  0  0  0  0
  3  7  1  1  0  0  0
  3 19  1  0  0  0  0
  4 11  1  1  0  0  0
  4 15  1  0  0  0  0
  6 17  1  0  0  0  0
  6  1  2  0  0  0  0
  7  4  1  0  0  0  0
  8 23  1  6  0  0  0
  8 13  1  0  0  0  0
  9  1  1  0  0  0  0
 10 19  1  0  0  0  0
 12 16  1  0  0  0  0
 12  8  1  0  0  0  0
 13  2  1  0  0  0  0
 13 18  1  1  0  0  0
 14  5  2  0  0  0  0
 16  5  1  0  0  0  0
 17 16  2  0  0  0  0
 18 10  1  0  0  0  0
 19 20  2  0  0  0  0
 20 15  1  0  0  0  0
 21 22  2  0  0  0  0
 22 23  1  0  0  0  0
 24 27  1  1  0  0  0
 24 31  1  0  0  0  0
 25 28  1  0  0  0  0
 25 30  1  0  0  0  0
 28 24  1  0  0  0  0
 29 26  1  1  0  0  0
 30 22  1  1  0  0  0
 30 29  1  0  0  0  0
 31 29  1  0  0  0  0
M  END
>  <MODEL>
8

>  <REMARK>
 VINA RESULT:      -5.4      2.773      7.186
  Name = 
  2 active torsions:
  status: ('A' for Active; 'I' for Inactive)
    1  A    between atoms: C_5  and  C_30
    2  A    between atoms: C_10  and  N_16
                            x       y       z     vdW  Elec       q    Type
                         _______ _______ _______ _____ _____    ______ ____

>  <TORSDO>
F 2

$$$$
=
 OpenBabel11122413243D

 31 35  0  0  1  0  0  0  0  0999 V2000
  161.6390  212.2750  149.1780 C   0  0  0  0  0  0  0  0  0  0  0  0
  162.2170  208.9960  151.0150 C   0  0  2  0  0  3  0  0  0  0  0  0
  160.9750  208.7820  151.9100 C   0  0  2  0  0  3  0  0  0  0  0  0
  159.4710  209.7900  153.6400 C   0  0  2  0  0  3  0  0  0  0  0  0
  161.9310  209.9740  149.8990 C   0  0  0  0  0  0  0  0  0  0  0  0
  161.2990  211.8360  147.8980 C   0  0  0  0  0  3  0  0  0  0  0  0
  160.5680  210.0760  152.6260 C   0  0  0  0  0  2  0  0  0  0  0  0
  161.7760  207.1230  149.3810 C   0  0  2  0  0  3  0  0  0  0  0  0
  161.6570  213.6000  149.4580 F   0  0  0  0  0  0  0  0  0  0  0  0
  161.7710  206.3580  152.3710 C   0  0  0  0  0  2  0  0  0  0  0  0
  159.0470  210.9850  154.2180 O   0  0  0  0  0  1  0  0  0  0  0  0
  161.6920  208.0870  148.1970 C   0  0  0  0  0  2  0  0  0  0  0  0
  162.7470  207.6660  150.4390 C   0  0  2  0  0  3  0  0  0  0  0  0
  161.9540  211.3480  150.1730 C   0  0  0  0  0  3  0  0  0  0  0  0
  160.0320  208.8740  154.7200 C   0  0  0  0  0  2  0  0  0  0  0  0
  161.5910  209.5320  148.6000 C   0  0  0  0  0  0  0  0  0  0  0  0
  161.2850  210.4700  147.6090 C   0  0  0  0  0  3  0  0  0  0  0  0
  163.0260  206.6570  151.5600 C   0  0  0  0  0  2  0  0  0  0  0  0
  161.1860  207.6330  152.8850 C   0  0  0  0  0  0  0  0  0  0  0  0
  160.6710  207.6480  154.1250 C   0  0  0  0  0  3  0  0  0  0  0  0
  160.7250  205.7530  147.1110 O   0  0  0  0  0  0  0  0  0  0  0  0
  161.6520  205.1900  147.7560 C   0  0  0  0  0  0  0  0  0  0  0  0
  162.2150  205.8170  148.9070 N   0  0  0  0  0  2  0  0  0  0  0  0
  160.5130  202.6000  145.3140 C   0  0  1  0  0  3  0  0  0  0  0  0
  162.4960  203.8090  145.8350 C   0  0  0  0  0  2  0  0  0  0  0  0
  160.8070  202.7750  149.0240 O   0  0  0  0  0  1  0  0  0  0  0  0
  159.4170  202.5280  144.4580 O   0  0  0  0  0  1  0  0  0  0  0  0
  161.2740  203.8160  145.0300 N   0  0  0  0  0  2  0  0  0  0  0  0
  161.2300  202.6840  147.6980 C   0  0  2  0  0  3  0  0  0  0  0  0
  162.1680  203.8450  147.3320 C   0  0  2  0  0  3  0  0  0  0  0  0
  160.0270  202.6140  146.7610 C   0  0  0  0  0  2  0  0  0  0  0  0
  1  9  1  0  0  0  0
  1 14  1  0  0  0  0
  2  5  1  6  0  0  0
  2  3  1  0  0  0  0
  3  7  1  1  0  0  0
  3 19  1  0  0  0  0
  4 11  1  1  0  0  0
  4 15  1  0  0  0  0
  5 14  2  0  0  0  0
  6  1  2  0  0  0  0
  7  4  1  0  0  0  0
  8 23  1  6  0  0  0
  8 13  1  0  0  0  0
 10 19  1  0  0  0  0
 12 16  1  0  0  0  0
 12  8  1  0  0  0  0
 13  2  1  0  0  0  0
 13 18  1  1  0  0  0
 16  5  1  0  0  0  0
 17  6  1  0  0  0  0
 17 16  2  0  0  0  0
 18 10  1  0  0  0  0
 19 20  2  0  0  0  0
 20 15  1  0  0  0  0
 21 22  2  0  0  0  0
 22 23  1  0  0  0  0
 24 27  1  6  0  0  0
 24 31  1  0  0  0  0
 25 30  1  0  0  0  0
 28 24  1  0  0  0  0
 28 25  1  0  0  0  0
 29 26  1  1  0  0  0
 30 29  1  0  0  0  0
 30 22  1  6  0  0  0
 31 29  1  0  0  0  0
M  END
>  <MODEL>
9

>  <REMARK>
 VINA RESULT:      -5.2      3.322      7.795
  Name = 
  2 active torsions:
  status: ('A' for Active; 'I' for Inactive)
    1  A    between atoms: C_5  and  C_30
    2  A    between atoms: C_10  and  N_16
                            x       y       z     vdW  Elec       q    Type
                         _______ _______ _______ _____ _____    ______ ____

>  <TORSDO>
F 2

$$$$
