=
 OpenBabel11122414273D

 34 41  0  0  1  0  0  0  0  0999 V2000
  161.6670  207.7540  149.6960 C   0  0  0  0  0  0  0  0  0  0  0  0
  161.6480  205.9760  147.8190 C   0  0  0  0  0  2  0  0  0  0  0  0
  161.7550  209.2520  156.0130 C   0  0  2  0  0  3  0  0  0  0  0  0
  161.6200  209.2360  151.6230 C   0  0  0  0  0  0  0  0  0  0  0  0
  161.1090  208.2640  153.8690 C   0  0  0  0  0  0  0  0  0  0  0  0
  160.7680  207.0530  156.4570 S   0  0  0  0  0  0  0  0  0  0  0  0
  161.7070  208.4020  157.2600 C   0  0  0  0  0  2  0  0  0  0  0  0
  160.9320  211.2340  154.7250 C   0  0  0  0  0  2  0  0  0  0  0  0
  161.2430  205.3210  150.0350 C   0  0  0  0  0  0  0  0  0  0  0  0
  160.7190  202.3400  150.9320 C   0  0  0  0  0  2  0  0  0  0  0  0
  160.9630  207.0530  153.3170 C   0  0  0  0  0  3  0  0  0  0  0  0
  161.8720  210.7160  153.6230 C   0  0  0  0  0  2  0  0  0  0  0  0
  161.0690  205.4870  151.3670 C   0  0  0  0  0  0  0  0  0  0  0  0
  161.3470  204.5060  147.9120 C   0  0  0  0  0  3  0  0  0  0  0  0
  161.4560  209.4180  153.0460 N   0  0  0  0  0  0  0  0  0  0  0  0
  161.3030  210.6970  156.1210 C   0  0  0  0  0  2  0  0  0  0  0  0
  160.7300  202.8030  149.5530 N   0  0  0  0  0  0  0  0  0  0  0  0
  161.4960  207.9500  151.0710 C   0  0  0  0  0  0  0  0  0  0  0  0
  160.7030  208.4590  155.3000 C   0  0  1  0  0  3  0  0  0  0  0  0
  161.1940  206.8240  151.9190 N   0  0  0  0  0  0  0  0  0  0  0  0
  162.0750  210.1190  149.3990 C   0  0  0  0  0  3  0  0  0  0  0  0
  159.9230  203.2790  151.8060 C   0  0  0  0  0  2  0  0  0  0  0  0
  161.9090  210.3180  150.7740 C   0  0  0  0  0  3  0  0  0  0  0  0
  160.8740  204.3370  152.3160 C   0  0  0  0  0  2  0  0  0  0  0  0
  161.1400  204.1340  149.1780 C   0  0  0  0  0  0  0  0  0  0  0  0
  161.9550  208.8360  148.8570 C   0  0  0  0  0  3  0  0  0  0  0  0
  161.5350  206.4240  149.1960 N   0  0  0  0  0  0  0  0  0  0  0  0
  160.2870  201.8470  148.5460 C   0  0  0  0  0  2  0  0  0  0  0  0
  161.3740  200.8160  148.2830 C   0  0  0  0  0  2  0  0  0  0  0  0
  160.3900  199.4600  145.4670 N   0  0  0  0  0  2  0  0  0  0  0  0
  160.7710  201.6710  146.1910 C   0  0  0  0  0  2  0  0  0  0  0  0
  161.7400  200.8340  146.8770 N   0  0  0  0  0  0  0  0  0  0  0  0
  160.1880  200.8400  145.0820 C   0  0  0  0  0  2  0  0  0  0  0  0
  161.5350  199.4820  146.3680 C   0  0  0  0  0  2  0  0  0  0  0  0
  1 18  1  0  0  0  0
  2 14  1  0  0  0  0
  2 27  1  0  0  0  0
  3 16  1  1  0  0  0
  3  7  1  0  0  0  0
  4 15  1  0  0  0  0
  6  7  1  0  0  0  0
  8 16  1  0  0  0  0
  9 13  2  0  0  0  0
 10 22  1  0  0  0  0
 11  5  2  0  0  0  0
 12  8  1  0  0  0  0
 13 20  1  0  0  0  0
 13 24  1  0  0  0  0
 14 25  2  0  0  0  0
 15 12  1  0  0  0  0
 15  5  1  0  0  0  0
 17 10  1  0  0  0  0
 18  4  2  0  0  0  0
 18 20  1  0  0  0  0
 19  5  1  6  0  0  0
 19  3  1  0  0  0  0
 19  6  1  0  0  0  0
 20 11  1  0  0  0  0
 21 23  2  0  0  0  0
 22 24  1  0  0  0  0
 23  4  1  0  0  0  0
 25 17  1  0  0  0  0
 25  9  1  0  0  0  0
 26 21  1  0  0  0  0
 26  1  2  0  0  0  0
 27  1  1  0  0  0  0
 27  9  1  0  0  0  0
 28 17  1  0  0  0  0
 29 28  1  0  0  0  0
 30 34  1  0  0  0  0
 31 32  1  0  0  0  0
 32 29  1  0  0  0  0
 33 30  1  0  0  0  0
 33 31  1  0  0  0  0
 34 32  1  0  0  0  0
M  END
>  <MODEL>
1

>  <REMARK>
 VINA RESULT:      -8.7      0.000      0.000
  Name = 
  3 active torsions:
  status: ('A' for Active; 'I' for Inactive)
    1  A    between atoms: N_17  and  C_28
    2  A    between atoms: C_28  and  C_29
    3  A    between atoms: C_29  and  N_32
                            x       y       z     vdW  Elec       q    Type
                         _______ _______ _______ _____ _____    ______ ____

>  <TORSDO>
F 3

$$$$
=
 OpenBabel11122414273D

 34 41  0  0  1  0  0  0  0  0999 V2000
  161.0490  204.8450  152.1400 C   0  0  0  0  0  0  0  0  0  0  0  0
  161.1970  206.4300  154.1780 C   0  0  0  0  0  2  0  0  0  0  0  0
  162.0380  203.7100  145.8240 C   0  0  2  0  0  3  0  0  0  0  0  0
  160.9470  203.5630  150.0760 C   0  0  0  0  0  0  0  0  0  0  0  0
  161.2930  204.7570  147.9070 C   0  0  0  0  0  0  0  0  0  0  0  0
  161.9480  206.1330  145.4660 S   0  0  0  0  0  0  0  0  0  0  0  0
  162.5480  204.5830  144.7030 C   0  0  0  0  0  2  0  0  0  0  0  0
  160.3500  202.0740  146.6830 C   0  0  0  0  0  2  0  0  0  0  0  0
  161.5280  207.2880  152.0200 C   0  0  0  0  0  0  0  0  0  0  0  0
  162.2190  210.3060  151.4040 C   0  0  0  0  0  2  0  0  0  0  0  0
  161.4320  205.9170  148.5620 C   0  0  0  0  0  3  0  0  0  0  0  0
  161.1390  202.1840  147.9990 C   0  0  0  0  0  2  0  0  0  0  0  0
  161.6090  207.2560  150.6700 C   0  0  0  0  0  0  0  0  0  0  0  0
  161.4210  207.9160  154.2060 C   0  0  0  0  0  3  0  0  0  0  0  0
  161.0530  203.5170  148.6370 N   0  0  0  0  0  0  0  0  0  0  0  0
  161.1750  202.5170  145.4590 C   0  0  0  0  0  2  0  0  0  0  0  0
  161.7730  209.8030  152.6930 N   0  0  0  0  0  0  0  0  0  0  0  0
  161.1320  204.7850  150.7440 C   0  0  0  0  0  0  0  0  0  0  0  0
  161.1730  204.7830  146.4120 C   0  0  1  0  0  3  0  0  0  0  0  0
  161.4100  205.9850  149.9960 N   0  0  0  0  0  0  0  0  0  0  0  0
  160.5850  202.4730  152.2240 C   0  0  0  0  0  3  0  0  0  0  0  0
  161.3740  209.7420  150.2870 C   0  0  0  0  0  2  0  0  0  0  0  0
  160.6730  202.4090  150.8300 C   0  0  0  0  0  3  0  0  0  0  0  0
  162.0160  208.4470  149.8460 C   0  0  0  0  0  2  0  0  0  0  0  0
  161.6320  208.3960  152.9770 C   0  0  0  0  0  0  0  0  0  0  0  0
  160.7740  203.6920  152.8830 C   0  0  0  0  0  3  0  0  0  0  0  0
  161.2510  206.1130  152.7610 N   0  0  0  0  0  0  0  0  0  0  0  0
  161.4550  210.8040  153.7030 C   0  0  0  0  0  2  0  0  0  0  0  0
  160.3210  211.6970  153.2240 C   0  0  0  0  0  2  0  0  0  0  0  0
  158.2980  211.6740  155.8010 N   0  0  0  0  0  2  0  0  0  0  0  0
  158.0490  212.1720  153.5100 C   0  0  0  0  0  2  0  0  0  0  0  0
  159.0430  211.1180  153.6030 N   0  0  0  0  0  0  0  0  0  0  0  0
  157.3720  212.2470  154.8500 C   0  0  0  0  0  2  0  0  0  0  0  0
  159.1370  210.7750  155.0190 C   0  0  0  0  0  2  0  0  0  0  0  0
  1 27  1  0  0  0  0
  1 26  1  0  0  0  0
  2 14  1  0  0  0  0
  3  7  1  6  0  0  0
  3 19  1  0  0  0  0
  4 18  1  0  0  0  0
  4 23  2  0  0  0  0
  5 11  2  0  0  0  0
  5 15  1  0  0  0  0
  7  6  1  0  0  0  0
  8 12  1  0  0  0  0
  9 27  1  0  0  0  0
  9 25  1  0  0  0  0
 10 17  1  0  0  0  0
 11 20  1  0  0  0  0
 12 15  1  0  0  0  0
 13  9  2  0  0  0  0
 15  4  1  0  0  0  0
 16  3  1  0  0  0  0
 16  8  1  0  0  0  0
 17 25  1  0  0  0  0
 17 28  1  0  0  0  0
 18  1  2  0  0  0  0
 19  6  1  6  0  0  0
 19  5  1  0  0  0  0
 20 13  1  0  0  0  0
 20 18  1  0  0  0  0
 21 26  2  0  0  0  0
 22 10  1  0  0  0  0
 23 21  1  0  0  0  0
 24 22  1  0  0  0  0
 24 13  1  0  0  0  0
 25 14  2  0  0  0  0
 27  2  1  0  0  0  0
 29 32  1  0  0  0  0
 29 28  1  0  0  0  0
 31 32  1  0  0  0  0
 31 33  1  0  0  0  0
 32 34  1  0  0  0  0
 33 30  1  0  0  0  0
 34 30  1  0  0  0  0
M  END
>  <MODEL>
2

>  <REMARK>
 VINA RESULT:      -8.0      2.566      9.323
  Name = 
  3 active torsions:
  status: ('A' for Active; 'I' for Inactive)
    1  A    between atoms: N_17  and  C_28
    2  A    between atoms: C_28  and  C_29
    3  A    between atoms: C_29  and  N_32
                            x       y       z     vdW  Elec       q    Type
                         _______ _______ _______ _____ _____    ______ ____

>  <TORSDO>
F 3

$$$$
=
 OpenBabel11122414273D

 34 41  0  0  1  0  0  0  0  0999 V2000
  161.5840  209.0310  150.5890 C   0  0  0  0  0  0  0  0  0  0  0  0
  161.4340  210.8720  152.3980 C   0  0  0  0  0  2  0  0  0  0  0  0
  160.5150  202.9120  148.7010 C   0  0  2  0  0  3  0  0  0  0  0  0
  161.6800  207.1300  149.0760 C   0  0  0  0  0  0  0  0  0  0  0  0
  161.2710  204.8430  150.0000 C   0  0  0  0  0  0  0  0  0  0  0  0
  160.5440  202.2710  151.0660 S   0  0  0  0  0  0  0  0  0  0  0  0
  159.9670  201.7060  149.4250 C   0  0  0  0  0  2  0  0  0  0  0  0
  162.2550  203.9230  147.2120 C   0  0  0  0  0  2  0  0  0  0  0  0
  161.0470  208.6360  152.9910 C   0  0  0  0  0  0  0  0  0  0  0  0
  160.2770  207.6840  155.9000 C   0  0  0  0  0  2  0  0  0  0  0  0
  161.1160  205.3600  151.2260 C   0  0  0  0  0  3  0  0  0  0  0  0
  161.4850  205.2320  147.4590 C   0  0  0  0  0  2  0  0  0  0  0  0
  160.9440  207.3000  152.7980 C   0  0  0  0  0  0  0  0  0  0  0  0
  161.1760  210.7310  153.8720 C   0  0  0  0  0  3  0  0  0  0  0  0
  161.5520  205.7090  148.8590 N   0  0  0  0  0  0  0  0  0  0  0  0
  161.3990  202.6720  147.4910 C   0  0  0  0  0  2  0  0  0  0  0  0
  160.7560  209.0150  155.5610 N   0  0  0  0  0  0  0  0  0  0  0  0
  161.4790  207.6540  150.3640 C   0  0  0  0  0  0  0  0  0  0  0  0
  161.3650  203.3530  149.8520 C   0  0  1  0  0  3  0  0  0  0  0  0
  161.1610  206.7760  151.4620 N   0  0  0  0  0  0  0  0  0  0  0  0
  162.1030  209.3830  148.2540 C   0  0  0  0  0  3  0  0  0  0  0  0
  161.1150  206.6250  155.2270 C   0  0  0  0  0  2  0  0  0  0  0  0
  161.9940  208.0080  148.0250 C   0  0  0  0  0  3  0  0  0  0  0  0
  160.4960  206.3510  153.8760 C   0  0  0  0  0  2  0  0  0  0  0  0
  160.9340  209.4590  154.2000 C   0  0  0  0  0  0  0  0  0  0  0  0
  161.8970  209.8980  149.5370 C   0  0  0  0  0  3  0  0  0  0  0  0
  161.3640  209.5040  151.9170 N   0  0  0  0  0  0  0  0  0  0  0  0
  161.0670  209.8950  156.6810 C   0  0  0  0  0  2  0  0  0  0  0  0
  159.7910  210.4840  157.2600 C   0  0  0  0  0  2  0  0  0  0  0  0
  156.9660  211.9830  156.5470 N   0  0  0  0  0  2  0  0  0  0  0  0
  159.0930  212.7150  157.2520 C   0  0  0  0  0  2  0  0  0  0  0  0
  159.3100  211.5560  156.4060 N   0  0  0  0  0  0  0  0  0  0  0  0
  157.6690  213.1470  157.0380 C   0  0  0  0  0  2  0  0  0  0  0  0
  157.9910  211.1560  155.9240 C   0  0  0  0  0  2  0  0  0  0  0  0
  1 27  1  0  0  0  0
  2 14  1  0  0  0  0
  3 16  1  6  0  0  0
  3  7  1  0  0  0  0
  3 19  1  0  0  0  0
  4 18  2  0  0  0  0
  5 11  2  0  0  0  0
  7  6  1  0  0  0  0
  8 12  1  0  0  0  0
  8 16  1  0  0  0  0
  9 25  1  0  0  0  0
 11 20  1  0  0  0  0
 12 15  1  0  0  0  0
 13  9  2  0  0  0  0
 13 24  1  0  0  0  0
 14 25  2  0  0  0  0
 15  4  1  0  0  0  0
 15  5  1  0  0  0  0
 17 10  1  0  0  0  0
 17 28  1  0  0  0  0
 18  1  1  0  0  0  0
 18 20  1  0  0  0  0
 19  5  1  1  0  0  0
 19  6  1  0  0  0  0
 20 13  1  0  0  0  0
 21 26  1  0  0  0  0
 22 10  1  0  0  0  0
 23 21  2  0  0  0  0
 23  4  1  0  0  0  0
 24 22  1  0  0  0  0
 25 17  1  0  0  0  0
 26  1  2  0  0  0  0
 27  2  1  0  0  0  0
 27  9  1  0  0  0  0
 28 29  1  0  0  0  0
 30 33  1  0  0  0  0
 32 31  1  0  0  0  0
 32 29  1  0  0  0  0
 33 31  1  0  0  0  0
 34 32  1  0  0  0  0
 34 30  1  0  0  0  0
M  END
>  <MODEL>
3

>  <REMARK>
 VINA RESULT:      -7.7      2.432      8.912
  Name = 
  3 active torsions:
  status: ('A' for Active; 'I' for Inactive)
    1  A    between atoms: N_17  and  C_28
    2  A    between atoms: C_28  and  C_29
    3  A    between atoms: C_29  and  N_32
                            x       y       z     vdW  Elec       q    Type
                         _______ _______ _______ _____ _____    ______ ____

>  <TORSDO>
F 3

$$$$
=
 OpenBabel11122414273D

 34 41  0  0  1  0  0  0  0  0999 V2000
  160.8310  206.8870  153.8160 C   0  0  0  0  0  0  0  0  0  0  0  0
  161.4200  204.7780  152.4410 C   0  0  0  0  0  2  0  0  0  0  0  0
  158.8710  213.0730  154.0490 C   0  0  2  0  0  3  0  0  0  0  0  0
  160.2940  209.0030  154.8870 C   0  0  0  0  0  0  0  0  0  0  0  0
  160.1300  211.0560  153.4690 C   0  0  0  0  0  0  0  0  0  0  0  0
  159.7060  213.3300  151.7590 S   0  0  0  0  0  0  0  0  0  0  0  0
  158.5580  214.0810  152.9700 C   0  0  0  0  0  2  0  0  0  0  0  0
  160.0170  212.5080  156.2020 C   0  0  0  0  0  2  0  0  0  0  0  0
  161.1620  206.8360  151.3460 C   0  0  0  0  0  0  0  0  0  0  0  0
  161.4280  207.2240  148.2250 C   0  0  0  0  0  2  0  0  0  0  0  0
  160.4450  210.3370  152.3840 C   0  0  0  0  0  3  0  0  0  0  0  0
  159.4480  211.0990  155.9570 C   0  0  0  0  0  2  0  0  0  0  0  0
  160.9340  208.1660  151.2390 C   0  0  0  0  0  0  0  0  0  0  0  0
  161.6950  204.6550  150.9690 C   0  0  0  0  0  3  0  0  0  0  0  0
  160.0290  210.4180  154.7780 N   0  0  0  0  0  0  0  0  0  0  0  0
  159.2570  213.5970  155.4200 C   0  0  0  0  0  2  0  0  0  0  0  0
  161.8190  206.0250  148.9490 N   0  0  0  0  0  0  0  0  0  0  0  0
  160.5870  208.2630  153.7300 C   0  0  0  0  0  0  0  0  0  0  0  0
  160.0940  212.5510  153.3590 C   0  0  1  0  0  3  0  0  0  0  0  0
  160.6380  208.9160  152.4460 N   0  0  0  0  0  0  0  0  0  0  0  0
  160.5050  206.9690  156.2110 C   0  0  0  0  0  3  0  0  0  0  0  0
  161.9220  208.4630  148.9330 C   0  0  0  0  0  2  0  0  0  0  0  0
  160.2560  208.3430  156.1280 C   0  0  0  0  0  3  0  0  0  0  0  0
  160.8520  208.8780  149.9160 C   0  0  0  0  0  2  0  0  0  0  0  0
  161.5240  205.8250  150.3460 C   0  0  0  0  0  0  0  0  0  0  0  0
  160.7920  206.2370  155.0550 C   0  0  0  0  0  3  0  0  0  0  0  0
  161.1190  206.1890  152.6050 N   0  0  0  0  0  0  0  0  0  0  0  0
  162.5490  205.0190  148.1870 C   0  0  0  0  0  2  0  0  0  0  0  0
  161.5810  204.1460  147.4040 C   0  0  0  0  0  2  0  0  0  0  0  0
  160.4560  204.4820  144.3460 N   0  0  0  0  0  2  0  0  0  0  0  0
  162.3280  205.3080  145.5170 C   0  0  0  0  0  2  0  0  0  0  0  0
  162.0580  203.9810  146.0410 N   0  0  0  0  0  0  0  0  0  0  0  0
  161.5350  205.4400  144.2470 C   0  0  0  0  0  2  0  0  0  0  0  0
  160.9410  203.4580  145.2620 C   0  0  0  0  0  2  0  0  0  0  0  0
  1 26  1  0  0  0  0
  2 27  1  0  0  0  0
  3  7  1  6  0  0  0
  3 16  1  0  0  0  0
  4 23  2  0  0  0  0
  5 15  1  0  0  0  0
  6  7  1  0  0  0  0
  9 27  1  0  0  0  0
 10 22  1  0  0  0  0
 10 17  1  0  0  0  0
 11 20  1  0  0  0  0
 11  5  2  0  0  0  0
 12  8  1  0  0  0  0
 13  9  2  0  0  0  0
 13 20  1  0  0  0  0
 14  2  1  0  0  0  0
 15  4  1  0  0  0  0
 15 12  1  0  0  0  0
 16  8  1  0  0  0  0
 17 25  1  0  0  0  0
 18  1  2  0  0  0  0
 18  4  1  0  0  0  0
 19  6  1  6  0  0  0
 19  5  1  0  0  0  0
 19  3  1  0  0  0  0
 20 18  1  0  0  0  0
 22 24  1  0  0  0  0
 23 21  1  0  0  0  0
 24 13  1  0  0  0  0
 25 14  2  0  0  0  0
 25  9  1  0  0  0  0
 26 21  2  0  0  0  0
 27  1  1  0  0  0  0
 28 17  1  0  0  0  0
 29 28  1  0  0  0  0
 30 34  1  0  0  0  0
 31 32  1  0  0  0  0
 32 29  1  0  0  0  0
 33 30  1  0  0  0  0
 33 31  1  0  0  0  0
 34 32  1  0  0  0  0
M  END
>  <MODEL>
4

>  <REMARK>
 VINA RESULT:      -6.6      2.464      4.543
  Name = 
  3 active torsions:
  status: ('A' for Active; 'I' for Inactive)
    1  A    between atoms: N_17  and  C_28
    2  A    between atoms: C_28  and  C_29
    3  A    between atoms: C_29  and  N_32
                            x       y       z     vdW  Elec       q    Type
                         _______ _______ _______ _____ _____    ______ ____

>  <TORSDO>
F 3

$$$$
=
 OpenBabel11122414273D

 34 41  0  0  1  0  0  0  0  0999 V2000
  161.7120  208.5420  149.6870 C   0  0  0  0  0  0  0  0  0  0  0  0
  161.9040  207.0230  147.6020 C   0  0  0  0  0  2  0  0  0  0  0  0
  161.3880  209.2110  156.1370 C   0  0  2  0  0  3  0  0  0  0  0  0
  161.4710  209.7560  151.7790 C   0  0  0  0  0  0  0  0  0  0  0  0
  160.9150  208.4720  153.8520 C   0  0  0  0  0  0  0  0  0  0  0  0
  160.5280  206.9180  156.2420 S   0  0  0  0  0  0  0  0  0  0  0  0
  161.3340  208.2050  157.2610 C   0  0  0  0  0  2  0  0  0  0  0  0
  160.5000  211.2910  155.0640 C   0  0  0  0  0  2  0  0  0  0  0  0
  161.4340  206.0650  149.6910 C   0  0  0  0  0  0  0  0  0  0  0  0
  161.0640  202.9670  150.1720 C   0  0  0  0  0  2  0  0  0  0  0  0
  160.8770  207.3360  153.1430 C   0  0  0  0  0  3  0  0  0  0  0  0
  161.5260  210.9760  153.9610 C   0  0  0  0  0  2  0  0  0  0  0  0
  161.1830  206.0460  151.0200 C   0  0  0  0  0  0  0  0  0  0  0  0
  161.6970  205.5390  147.4910 C   0  0  0  0  0  3  0  0  0  0  0  0
  161.2260  209.7420  153.2020 N   0  0  0  0  0  0  0  0  0  0  0  0
  160.8360  210.6000  156.4000 C   0  0  0  0  0  2  0  0  0  0  0  0
  161.1130  203.6040  148.8660 N   0  0  0  0  0  0  0  0  0  0  0  0
  161.4610  208.5480  151.0630 C   0  0  0  0  0  0  0  0  0  0  0  0
  160.4270  208.4560  155.2690 C   0  0  1  0  0  3  0  0  0  0  0  0
  161.1930  207.3050  151.7430 N   0  0  0  0  0  0  0  0  0  0  0  0
  161.9770  210.9450  149.7140 C   0  0  0  0  0  3  0  0  0  0  0  0
  160.1650  203.7360  151.1100 C   0  0  0  0  0  2  0  0  0  0  0  0
  161.7310  210.9540  151.0910 C   0  0  0  0  0  3  0  0  0  0  0  0
  161.0180  204.7720  151.8040 C   0  0  0  0  0  2  0  0  0  0  0  0
  161.4520  204.9950  148.6860 C   0  0  0  0  0  0  0  0  0  0  0  0
  161.9690  209.7380  149.0090 C   0  0  0  0  0  3  0  0  0  0  0  0
  161.6930  207.2820  149.0160 N   0  0  0  0  0  0  0  0  0  0  0  0
  160.7850  202.7620  147.7230 C   0  0  0  0  0  2  0  0  0  0  0  0
  161.9300  202.7610  146.7220 C   0  0  0  0  0  2  0  0  0  0  0  0
  159.0980  201.9210  145.3050 N   0  0  0  0  0  2  0  0  0  0  0  0
  160.7290  203.5700  144.8860 C   0  0  0  0  0  2  0  0  0  0  0  0
  161.4320  202.4090  145.4030 N   0  0  0  0  0  0  0  0  0  0  0  0
  159.3450  203.1110  144.5220 C   0  0  0  0  0  2  0  0  0  0  0  0
  160.4180  201.3760  145.5940 C   0  0  0  0  0  2  0  0  0  0  0  0
  1 18  1  0  0  0  0
  2 27  1  0  0  0  0
  3 16  1  1  0  0  0
  3  7  1  0  0  0  0
  4 15  1  0  0  0  0
  6  7  1  0  0  0  0
  8 16  1  0  0  0  0
  9 13  2  0  0  0  0
 10 22  1  0  0  0  0
 11  5  2  0  0  0  0
 12  8  1  0  0  0  0
 13 20  1  0  0  0  0
 13 24  1  0  0  0  0
 14  2  1  0  0  0  0
 14 25  2  0  0  0  0
 15  5  1  0  0  0  0
 15 12  1  0  0  0  0
 17 10  1  0  0  0  0
 18 20  1  0  0  0  0
 18  4  2  0  0  0  0
 19  5  1  6  0  0  0
 19  3  1  0  0  0  0
 19  6  1  0  0  0  0
 20 11  1  0  0  0  0
 21 23  2  0  0  0  0
 22 24  1  0  0  0  0
 23  4  1  0  0  0  0
 25 17  1  0  0  0  0
 25  9  1  0  0  0  0
 26  1  2  0  0  0  0
 26 21  1  0  0  0  0
 27  1  1  0  0  0  0
 27  9  1  0  0  0  0
 28 17  1  0  0  0  0
 29 28  1  0  0  0  0
 30 34  1  0  0  0  0
 31 32  1  0  0  0  0
 32 34  1  0  0  0  0
 32 29  1  0  0  0  0
 33 31  1  0  0  0  0
 33 30  1  0  0  0  0
M  END
>  <MODEL>
5

>  <REMARK>
 VINA RESULT:      -6.4      1.112      1.242
  Name = 
  3 active torsions:
  status: ('A' for Active; 'I' for Inactive)
    1  A    between atoms: N_17  and  C_28
    2  A    between atoms: C_28  and  C_29
    3  A    between atoms: C_29  and  N_32
                            x       y       z     vdW  Elec       q    Type
                         _______ _______ _______ _____ _____    ______ ____

>  <TORSDO>
F 3

$$$$
=
 OpenBabel11122414273D

 34 41  0  0  1  0  0  0  0  0999 V2000
  161.1610  206.4590  151.8590 C   0  0  0  0  0  0  0  0  0  0  0  0
  161.2760  208.6410  153.2420 C   0  0  0  0  0  2  0  0  0  0  0  0
  162.0060  203.3220  146.2370 C   0  0  2  0  0  3  0  0  0  0  0  0
  161.0720  204.5560  150.3480 C   0  0  0  0  0  0  0  0  0  0  0  0
  161.2660  204.9690  147.8890 C   0  0  0  0  0  0  0  0  0  0  0  0
  161.7480  205.4770  145.0990 S   0  0  0  0  0  0  0  0  0  0  0  0
  162.4200  203.7920  144.8640 C   0  0  0  0  0  2  0  0  0  0  0  0
  160.4560  201.9880  147.6810 C   0  0  0  0  0  2  0  0  0  0  0  0
  161.4780  208.7410  150.9070 C   0  0  0  0  0  0  0  0  0  0  0  0
  161.9530  211.4080  149.2860 C   0  0  0  0  0  2  0  0  0  0  0  0
  161.3530  206.2870  148.1130 C   0  0  0  0  0  3  0  0  0  0  0  0
  161.2810  202.5720  148.8410 C   0  0  0  0  0  2  0  0  0  0  0  0
  161.5150  208.2620  149.6420 C   0  0  0  0  0  0  0  0  0  0  0  0
  161.4050  210.0590  152.7620 C   0  0  0  0  0  3  0  0  0  0  0  0
  161.1310  204.0350  149.0030 N   0  0  0  0  0  0  0  0  0  0  0  0
  161.2090  202.0340  146.3370 C   0  0  0  0  0  2  0  0  0  0  0  0
  161.5840  211.3450  150.6910 N   0  0  0  0  0  0  0  0  0  0  0  0
  161.2000  205.9390  150.5600 C   0  0  0  0  0  0  0  0  0  0  0  0
  161.0940  204.4860  146.4800 C   0  0  1  0  0  3  0  0  0  0  0  0
  161.3750  206.8310  149.4410 N   0  0  0  0  0  0  0  0  0  0  0  0
  160.8530  204.2340  152.7520 C   0  0  0  0  0  3  0  0  0  0  0  0
  161.1080  210.4610  148.4670 C   0  0  0  0  0  2  0  0  0  0  0  0
  160.8970  203.7100  151.4560 C   0  0  0  0  0  3  0  0  0  0  0  0
  161.8170  209.1260  148.4480 C   0  0  0  0  0  2  0  0  0  0  0  0
  161.5430  210.1090  151.4340 C   0  0  0  0  0  0  0  0  0  0  0  0
  160.9860  205.6100  152.9570 C   0  0  0  0  0  3  0  0  0  0  0  0
  161.3020  207.8710  152.0110 N   0  0  0  0  0  0  0  0  0  0  0  0
  161.2370  212.6100  151.3260 C   0  0  0  0  0  2  0  0  0  0  0  0
  160.2570  213.3850  150.4580 C   0  0  0  0  0  2  0  0  0  0  0  0
  157.0880  213.7360  151.2100 N   0  0  0  0  0  2  0  0  0  0  0  0
  159.0620  213.4540  152.4670 C   0  0  0  0  0  2  0  0  0  0  0  0
  159.4210  214.2300  151.2930 N   0  0  0  0  0  0  0  0  0  0  0  0
  157.5610  213.4630  152.5490 C   0  0  0  0  0  2  0  0  0  0  0  0
  158.1780  214.4530  150.5610 C   0  0  0  0  0  2  0  0  0  0  0  0
  1 27  1  0  0  0  0
  1 26  1  0  0  0  0
  3  7  1  6  0  0  0
  3 16  1  0  0  0  0
  3 19  1  0  0  0  0
  4 18  1  0  0  0  0
  4 23  2  0  0  0  0
  5 11  2  0  0  0  0
  5 15  1  0  0  0  0
  7  6  1  0  0  0  0
  8 12  1  0  0  0  0
  9 25  1  0  0  0  0
  9 27  1  0  0  0  0
 10 17  1  0  0  0  0
 11 20  1  0  0  0  0
 12 15  1  0  0  0  0
 13  9  2  0  0  0  0
 14  2  1  0  0  0  0
 15  4  1  0  0  0  0
 16  8  1  0  0  0  0
 17 28  1  0  0  0  0
 17 25  1  0  0  0  0
 18  1  2  0  0  0  0
 19  6  1  6  0  0  0
 19  5  1  0  0  0  0
 20 13  1  0  0  0  0
 20 18  1  0  0  0  0
 21 26  2  0  0  0  0
 22 10  1  0  0  0  0
 23 21  1  0  0  0  0
 24 22  1  0  0  0  0
 24 13  1  0  0  0  0
 25 14  2  0  0  0  0
 27  2  1  0  0  0  0
 29 32  1  0  0  0  0
 29 28  1  0  0  0  0
 30 33  1  0  0  0  0
 31 33  1  0  0  0  0
 32 31  1  0  0  0  0
 34 30  1  0  0  0  0
 34 32  1  0  0  0  0
M  END
>  <MODEL>
6

>  <REMARK>
 VINA RESULT:      -6.0      3.127      9.449
  Name = 
  3 active torsions:
  status: ('A' for Active; 'I' for Inactive)
    1  A    between atoms: N_17  and  C_28
    2  A    between atoms: C_28  and  C_29
    3  A    between atoms: C_29  and  N_32
                            x       y       z     vdW  Elec       q    Type
                         _______ _______ _______ _____ _____    ______ ____

>  <TORSDO>
F 3

$$$$
=
 OpenBabel11122414273D

 34 41  0  0  1  0  0  0  0  0999 V2000
  160.9980  206.0260  152.8020 C   0  0  0  0  0  0  0  0  0  0  0  0
  161.3700  203.8610  151.4380 C   0  0  0  0  0  2  0  0  0  0  0  0
  159.5440  212.3510  153.0140 C   0  0  2  0  0  3  0  0  0  0  0  0
  160.6670  208.1900  153.8610 C   0  0  0  0  0  0  0  0  0  0  0  0
  160.6180  210.2330  152.4210 C   0  0  0  0  0  0  0  0  0  0  0  0
  160.3170  212.5150  150.6940 S   0  0  0  0  0  0  0  0  0  0  0  0
  159.2750  213.3680  151.9320 C   0  0  0  0  0  2  0  0  0  0  0  0
  160.7140  211.7200  155.1350 C   0  0  0  0  0  2  0  0  0  0  0  0
  161.2380  205.9210  150.3230 C   0  0  0  0  0  0  0  0  0  0  0  0
  161.4280  206.2520  147.1890 C   0  0  0  0  0  2  0  0  0  0  0  0
  160.8370  209.4790  151.3360 C   0  0  0  0  0  3  0  0  0  0  0  0
  160.0280  210.3590  154.9290 C   0  0  0  0  0  2  0  0  0  0  0  0
  161.1130  207.2630  150.2050 C   0  0  0  0  0  0  0  0  0  0  0  0
  161.5840  203.7000  149.9590 C   0  0  0  0  0  3  0  0  0  0  0  0
  160.5120  209.6200  153.7410 N   0  0  0  0  0  0  0  0  0  0  0  0
  160.0160  212.8580  154.3640 C   0  0  0  0  0  2  0  0  0  0  0  0
  161.7470  205.0340  147.9170 N   0  0  0  0  0  0  0  0  0  0  0  0
  160.8610  207.4160  152.7050 C   0  0  0  0  0  0  0  0  0  0  0  0
  160.6970  211.7250  152.2910 C   0  0  1  0  0  3  0  0  0  0  0  0
  160.9190  208.0480  151.4110 N   0  0  0  0  0  0  0  0  0  0  0  0
  160.7610  206.1600  155.2040 C   0  0  0  0  0  3  0  0  0  0  0  0
  162.0420  207.4550  147.8640 C   0  0  0  0  0  2  0  0  0  0  0  0
  160.6190  207.5490  155.1110 C   0  0  0  0  0  3  0  0  0  0  0  0
  161.0420  207.9650  148.8760 C   0  0  0  0  0  2  0  0  0  0  0  0
  161.4850  204.8730  149.3260 C   0  0  0  0  0  0  0  0  0  0  0  0
  160.9500  205.3950  154.0500 C   0  0  0  0  0  3  0  0  0  0  0  0
  161.1870  205.2940  151.5920 N   0  0  0  0  0  0  0  0  0  0  0  0
  162.3680  203.9640  147.1460 C   0  0  0  0  0  2  0  0  0  0  0  0
  161.4560  203.5380  146.0050 C   0  0  0  0  0  2  0  0  0  0  0  0
  160.7240  200.4200  145.3140 N   0  0  0  0  0  2  0  0  0  0  0  0
  161.3140  201.5820  147.2790 C   0  0  0  0  0  2  0  0  0  0  0  0
  160.5440  202.5040  146.4630 N   0  0  0  0  0  0  0  0  0  0  0  0
  161.1120  200.2120  146.6920 C   0  0  0  0  0  2  0  0  0  0  0  0
  160.1310  201.7500  145.2840 C   0  0  0  0  0  2  0  0  0  0  0  0
  1 26  1  0  0  0  0
  2 27  1  0  0  0  0
  3  7  1  6  0  0  0
  3 16  1  0  0  0  0
  4 23  2  0  0  0  0
  5 15  1  0  0  0  0
  6  7  1  0  0  0  0
  9 27  1  0  0  0  0
 10 22  1  0  0  0  0
 10 17  1  0  0  0  0
 11 20  1  0  0  0  0
 11  5  2  0  0  0  0
 12  8  1  0  0  0  0
 13  9  2  0  0  0  0
 13 20  1  0  0  0  0
 14  2  1  0  0  0  0
 15  4  1  0  0  0  0
 15 12  1  0  0  0  0
 16  8  1  0  0  0  0
 17 25  1  0  0  0  0
 18  1  2  0  0  0  0
 18  4  1  0  0  0  0
 19  6  1  6  0  0  0
 19  5  1  0  0  0  0
 19  3  1  0  0  0  0
 20 18  1  0  0  0  0
 22 24  1  0  0  0  0
 23 21  1  0  0  0  0
 24 13  1  0  0  0  0
 25 14  2  0  0  0  0
 25  9  1  0  0  0  0
 26 21  2  0  0  0  0
 27  1  1  0  0  0  0
 28 17  1  0  0  0  0
 29 32  1  0  0  0  0
 29 28  1  0  0  0  0
 30 33  1  0  0  0  0
 32 31  1  0  0  0  0
 33 31  1  0  0  0  0
 34 30  1  0  0  0  0
 34 32  1  0  0  0  0
M  END
>  <MODEL>
7

>  <REMARK>
 VINA RESULT:      -5.9      2.031      3.915
  Name = 
  3 active torsions:
  status: ('A' for Active; 'I' for Inactive)
    1  A    between atoms: N_17  and  C_28
    2  A    between atoms: C_28  and  C_29
    3  A    between atoms: C_29  and  N_32
                            x       y       z     vdW  Elec       q    Type
                         _______ _______ _______ _____ _____    ______ ____

>  <TORSDO>
F 3

$$$$
=
 OpenBabel11122414273D

 34 41  0  0  1  0  0  0  0  0999 V2000
  160.8590  206.8950  153.4650 C   0  0  0  0  0  0  0  0  0  0  0  0
  161.4970  204.7990  152.0900 C   0  0  0  0  0  2  0  0  0  0  0  0
  158.8390  213.0610  153.6940 C   0  0  2  0  0  3  0  0  0  0  0  0
  160.2800  208.9980  154.5380 C   0  0  0  0  0  0  0  0  0  0  0  0
  160.1280  211.0590  153.1290 C   0  0  0  0  0  0  0  0  0  0  0  0
  159.7210  213.3400  151.4240 S   0  0  0  0  0  0  0  0  0  0  0  0
  158.5410  214.0730  152.6150 C   0  0  0  0  0  2  0  0  0  0  0  0
  159.9440  212.4920  155.8680 C   0  0  0  0  0  2  0  0  0  0  0  0
  161.2430  206.8620  151.0020 C   0  0  0  0  0  0  0  0  0  0  0  0
  161.5730  207.2720  147.8900 C   0  0  0  0  0  2  0  0  0  0  0  0
  160.4730  210.3500  152.0470 C   0  0  0  0  0  3  0  0  0  0  0  0
  159.3930  211.0800  155.6020 C   0  0  0  0  0  2  0  0  0  0  0  0
  161.0060  208.1900  150.8990 C   0  0  0  0  0  0  0  0  0  0  0  0
  161.8040  204.6880  150.6230 C   0  0  0  0  0  3  0  0  0  0  0  0
  160.0050  210.4120  154.4320 N   0  0  0  0  0  0  0  0  0  0  0  0
  159.1910  213.5800  155.0760 C   0  0  0  0  0  2  0  0  0  0  0  0
  161.9590  206.0730  148.6150 N   0  0  0  0  0  0  0  0  0  0  0  0
  160.6050  208.2680  153.3830 C   0  0  0  0  0  0  0  0  0  0  0  0
  160.0820  212.5540  153.0280 C   0  0  1  0  0  3  0  0  0  0  0  0
  160.6770  208.9300  152.1040 N   0  0  0  0  0  0  0  0  0  0  0  0
  160.4820  206.9580  155.8530 C   0  0  0  0  0  3  0  0  0  0  0  0
  162.0410  208.5110  148.6160 C   0  0  0  0  0  2  0  0  0  0  0  0
  160.2220  208.3300  155.7730 C   0  0  0  0  0  3  0  0  0  0  0  0
  160.9460  208.9100  149.5790 C   0  0  0  0  0  2  0  0  0  0  0  0
  161.6360  205.8600  150.0050 C   0  0  0  0  0  0  0  0  0  0  0  0
  160.8000  206.2370  154.6980 C   0  0  0  0  0  3  0  0  0  0  0  0
  161.1790  206.2070  152.2570 N   0  0  0  0  0  0  0  0  0  0  0  0
  162.7140  205.0780  147.8630 C   0  0  0  0  0  2  0  0  0  0  0  0
  162.0930  204.8700  146.4910 C   0  0  0  0  0  2  0  0  0  0  0  0
  160.8320  202.1080  145.2610 N   0  0  0  0  0  2  0  0  0  0  0  0
  161.2060  202.9250  147.4400 C   0  0  0  0  0  2  0  0  0  0  0  0
  160.8830  204.0740  146.6120 N   0  0  0  0  0  0  0  0  0  0  0  0
  160.8310  201.7030  146.6490 C   0  0  0  0  0  2  0  0  0  0  0  0
  160.5900  203.5440  145.2840 C   0  0  0  0  0  2  0  0  0  0  0  0
  1 26  1  0  0  0  0
  2 27  1  0  0  0  0
  3  7  1  6  0  0  0
  3 16  1  0  0  0  0
  4 23  2  0  0  0  0
  5 15  1  0  0  0  0
  6  7  1  0  0  0  0
  9 27  1  0  0  0  0
 10 17  1  0  0  0  0
 10 22  1  0  0  0  0
 11 20  1  0  0  0  0
 11  5  2  0  0  0  0
 12  8  1  0  0  0  0
 13  9  2  0  0  0  0
 13 20  1  0  0  0  0
 14  2  1  0  0  0  0
 15  4  1  0  0  0  0
 15 12  1  0  0  0  0
 16  8  1  0  0  0  0
 17 25  1  0  0  0  0
 18  1  2  0  0  0  0
 18  4  1  0  0  0  0
 19  6  1  6  0  0  0
 19  5  1  0  0  0  0
 19  3  1  0  0  0  0
 20 18  1  0  0  0  0
 22 24  1  0  0  0  0
 23 21  1  0  0  0  0
 24 13  1  0  0  0  0
 25 14  2  0  0  0  0
 25  9  1  0  0  0  0
 26 21  2  0  0  0  0
 27  1  1  0  0  0  0
 28 17  1  0  0  0  0
 29 32  1  0  0  0  0
 29 28  1  0  0  0  0
 30 34  1  0  0  0  0
 30 33  1  0  0  0  0
 32 31  1  0  0  0  0
 33 31  1  0  0  0  0
 34 32  1  0  0  0  0
M  END
>  <MODEL>
8

>  <REMARK>
 VINA RESULT:      -5.9      2.233      4.375
  Name = 
  3 active torsions:
  status: ('A' for Active; 'I' for Inactive)
    1  A    between atoms: N_17  and  C_28
    2  A    between atoms: C_28  and  C_29
    3  A    between atoms: C_29  and  N_32
                            x       y       z     vdW  Elec       q    Type
                         _______ _______ _______ _____ _____    ______ ____

>  <TORSDO>
F 3

$$$$
