=
 OpenBabel11122414123D

 28 32  0  0  1  0  0  0  0  0999 V2000
  161.1230  210.6040  156.1160 C   0  0  0  0  0  0  0  0  0  0  0  0
  158.8530  211.6580  151.6590 O   0  0  0  0  0  0  0  0  0  0  0  0
  162.4230  206.2130  153.6560 C   0  0  0  0  0  1  0  0  0  0  0  0
  163.8600  211.0760  155.7410 C   0  0  0  0  0  3  0  0  0  0  0  0
  161.3910  207.5270  151.8860 N   0  0  0  0  0  0  0  0  0  0  0  0
  159.6790  210.2690  156.3490 C   0  0  0  0  0  2  0  0  0  0  0  0
  160.2540  213.4830  152.5220 O   0  0  0  0  0  0  0  0  0  0  0  0
  160.2460  212.2240  151.7020 S   0  0  0  0  0  0  0  0  0  0  0  0
  161.9040  211.6410  149.6510 C   0  0  2  0  0  3  0  0  0  0  0  0
  161.3560  211.0680  152.3860 N   0  0  2  0  0  0  0  0  0  0  0  0
  160.0860  206.5300  157.2590 C   0  0  0  0  0  1  0  0  0  0  0  0
  160.2260  209.1070  153.2930 C   0  0  1  0  0  3  0  0  0  0  0  0
  161.5110  210.2070  149.9810 C   0  0  0  0  0  2  0  0  0  0  0  0
  160.7810  212.5880  150.0440 C   0  0  0  0  0  2  0  0  0  0  0  0
  160.2590  207.7800  156.4230 C   0  0  1  0  0  3  0  0  0  0  0  0
  161.6490  210.6720  154.8080 C   0  0  0  0  0  0  0  0  0  0  0  0
  161.1620  206.9100  153.1860 C   0  0  2  0  0  3  0  0  0  0  0  0
  162.1660  211.7660  148.1660 C   0  0  0  0  0  1  0  0  0  0  0  0
  159.7680  207.5330  155.0760 N   0  0  0  0  0  2  0  0  0  0  0  0
  163.0250  210.8950  154.6360 C   0  0  0  0  0  3  0  0  0  0  0  0
  161.9670  210.7960  157.2170 C   0  0  0  0  0  3  0  0  0  0  0  0
  163.3300  211.0340  157.0310 C   0  0  0  0  0  3  0  0  0  0  0  0
  159.5010  208.9350  157.0780 C   0  0  0  0  0  2  0  0  0  0  0  0
  160.6630  208.7920  151.8850 C   0  0  1  0  0  3  0  0  0  0  0  0
  160.7930  208.0040  154.1570 C   0  0  2  0  0  3  0  0  0  0  0  0
  161.5920  209.9200  151.4890 C   0  0  2  0  0  3  0  0  0  0  0  0
  160.7970  206.7330  150.9650 O   0  0  0  0  0  1  0  0  0  0  0  0
  160.7450  210.5210  153.5970 C   0  0  1  0  0  3  0  0  0  0  0  0
  1  6  1  0  0  0  0
  1 21  1  0  0  0  0
  2  8  2  0  0  0  0
  4 22  1  0  0  0  0
  5 17  1  0  0  0  0
  6 23  1  0  0  0  0
  8  7  2  0  0  0  0
  9 18  1  6  0  0  0
  9 13  1  0  0  0  0
  9 14  1  0  0  0  0
 10  8  1  6  0  0  0
 10 28  1  0  0  0  0
 12 28  1  0  0  0  0
 12 25  1  0  0  0  0
 13 26  1  0  0  0  0
 14  8  1  0  0  0  0
 15 23  1  0  0  0  0
 15 11  1  0  0  0  0
 16  1  2  0  0  0  0
 17  3  1  0  0  0  0
 17 25  1  0  0  0  0
 19 15  1  0  0  0  0
 20 16  1  0  0  0  0
 20  4  2  0  0  0  0
 22 21  2  0  0  0  0
 24  5  1  0  0  0  0
 24 12  1  0  0  0  0
 25 19  1  0  0  0  0
 26 24  1  0  0  0  0
 26 10  1  0  0  0  0
 27  5  1  0  0  0  0
 28 16  1  0  0  0  0
M  END
>  <MODEL>
1

>  <REMARK>
 VINA RESULT:      -1.4      0.000      0.000
  Name = 
  0 active torsions:
  status: ('A' for Active; 'I' for Inactive)
                            x       y       z     vdW  Elec       q    Type
                         _______ _______ _______ _____ _____    ______ ____

>  <TORSDO>
F 0

$$$$
=
 OpenBabel11122414123D

 28 32  0  0  1  0  0  0  0  0999 V2000
  161.9670  209.9570  152.9820 C   0  0  0  0  0  0  0  0  0  0  0  0
  160.8320  214.4530  150.8330 O   0  0  0  0  0  0  0  0  0  0  0  0
  157.3740  210.6650  155.3140 C   0  0  0  0  0  1  0  0  0  0  0  0
  160.4560  208.0260  151.6250 C   0  0  0  0  0  3  0  0  0  0  0  0
  157.4560  212.5120  153.7310 N   0  0  0  0  0  0  0  0  0  0  0  0
  162.7430  210.9570  153.7870 C   0  0  0  0  0  2  0  0  0  0  0  0
  161.5650  212.7390  149.2330 O   0  0  0  0  0  0  0  0  0  0  0  0
  160.3830  213.3110  149.9630 S   0  0  0  0  0  0  0  0  0  0  0  0
  157.8220  213.3130  149.1040 C   0  0  2  0  0  3  0  0  0  0  0  0
  159.6260  212.0690  150.9230 N   0  0  2  0  0  0  0  0  0  0  0  0
  161.1930  210.2420  157.2600 C   0  0  0  0  0  1  0  0  0  0  0  0
  159.8350  212.4790  153.3180 C   0  0  1  0  0  3  0  0  0  0  0  0
  157.5180  213.4800  150.5870 C   0  0  0  0  0  2  0  0  0  0  0  0
  159.1860  213.9050  148.7860 C   0  0  0  0  0  2  0  0  0  0  0  0
  161.1910  210.5700  155.7820 C   0  0  1  0  0  3  0  0  0  0  0  0
  160.8520  210.3540  152.2130 C   0  0  0  0  0  0  0  0  0  0  0  0
  158.1190  211.9110  154.8810 C   0  0  2  0  0  3  0  0  0  0  0  0
  156.7660  214.0240  148.2870 C   0  0  0  0  0  1  0  0  0  0  0  0
  160.4490  211.8010  155.5600 N   0  0  0  0  0  2  0  0  0  0  0  0
  160.0970  209.3740  151.5490 C   0  0  0  0  0  3  0  0  0  0  0  0
  162.3240  208.6040  153.0440 C   0  0  0  0  0  3  0  0  0  0  0  0
  161.5730  207.6420  152.3660 C   0  0  0  0  0  3  0  0  0  0  0  0
  162.6330  210.7040  155.2930 C   0  0  0  0  0  2  0  0  0  0  0  0
  158.5080  213.0260  152.8580 C   0  0  1  0  0  3  0  0  0  0  0  0
  159.5230  211.5480  154.4670 C   0  0  2  0  0  3  0  0  0  0  0  0
  158.3160  212.4930  151.4550 C   0  0  2  0  0  3  0  0  0  0  0  0
  156.7690  213.5840  154.1890 O   0  0  0  0  0  1  0  0  0  0  0  0
  160.4780  211.8200  152.0860 C   0  0  1  0  0  3  0  0  0  0  0  0
  1 21  1  0  0  0  0
  1  6  1  0  0  0  0
  4 22  1  0  0  0  0
  5 27  1  0  0  0  0
  5 17  1  0  0  0  0
  6 23  1  0  0  0  0
  7  8  2  0  0  0  0
  8  2  2  0  0  0  0
  9 18  1  6  0  0  0
  9 13  1  0  0  0  0
 10  8  1  6  0  0  0
 10 26  1  0  0  0  0
 10 28  1  0  0  0  0
 12 25  1  0  0  0  0
 13 26  1  0  0  0  0
 14  9  1  0  0  0  0
 14  8  1  0  0  0  0
 15 11  1  0  0  0  0
 16  1  2  0  0  0  0
 17  3  1  0  0  0  0
 19 15  1  0  0  0  0
 20  4  2  0  0  0  0
 20 16  1  0  0  0  0
 22 21  2  0  0  0  0
 23 15  1  0  0  0  0
 24 12  1  0  0  0  0
 24  5  1  0  0  0  0
 25 17  1  0  0  0  0
 25 19  1  0  0  0  0
 26 24  1  0  0  0  0
 28 16  1  0  0  0  0
 28 12  1  0  0  0  0
M  END
>  <MODEL>
2

>  <REMARK>
 VINA RESULT:      -0.2      2.652      4.656
  Name = 
  0 active torsions:
  status: ('A' for Active; 'I' for Inactive)
                            x       y       z     vdW  Elec       q    Type
                         _______ _______ _______ _____ _____    ______ ____

>  <TORSDO>
F 0

$$$$
=
 OpenBabel11122414123D

 28 32  0  0  1  0  0  0  0  0999 V2000
  160.9340  209.3830  155.6080 C   0  0  0  0  0  0  0  0  0  0  0  0
  158.2120  211.7790  152.0060 O   0  0  0  0  0  0  0  0  0  0  0  0
  163.2800  207.2600  151.4830 C   0  0  0  0  0  1  0  0  0  0  0  0
  163.4010  210.7050  155.7460 C   0  0  0  0  0  3  0  0  0  0  0  0
  161.8210  208.9220  150.4660 N   0  0  0  0  0  0  0  0  0  0  0  0
  159.6590  208.5970  155.5250 C   0  0  0  0  0  2  0  0  0  0  0  0
  159.0870  213.2690  153.7510 O   0  0  0  0  0  0  0  0  0  0  0  0
  159.3890  212.6110  152.4350 S   0  0  0  0  0  0  0  0  0  0  0  0
  161.0260  213.5640  150.5100 C   0  0  2  0  0  3  0  0  0  0  0  0
  160.8170  211.6230  152.5830 N   0  0  2  0  0  0  0  0  0  0  0  0
  161.1550  205.1550  154.5810 C   0  0  0  0  0  1  0  0  0  0  0  0
  160.3390  209.2440  152.3460 C   0  0  1  0  0  3  0  0  0  0  0  0
  161.0730  212.1030  150.0830 C   0  0  0  0  0  2  0  0  0  0  0  0
  159.7060  213.8580  151.2040 C   0  0  0  0  0  2  0  0  0  0  0  0
  160.9210  206.6450  154.4580 C   0  0  1  0  0  3  0  0  0  0  0  0
  161.3450  210.2110  154.5410 C   0  0  0  0  0  0  0  0  0  0  0  0
  161.8490  207.7210  151.2920 C   0  0  2  0  0  3  0  0  0  0  0  0
  161.1580  214.4520  149.2920 C   0  0  0  0  0  1  0  0  0  0  0  0
  160.4450  206.9510  153.1180 N   0  0  0  0  0  2  0  0  0  0  0  0
  162.5900  210.8560  154.6190 C   0  0  0  0  0  3  0  0  0  0  0  0
  161.7500  209.2450  156.7380 C   0  0  0  0  0  3  0  0  0  0  0  0
  162.9780  209.9060  156.8080 C   0  0  0  0  0  3  0  0  0  0  0  0
  159.9060  207.0860  155.5130 C   0  0  0  0  0  2  0  0  0  0  0  0
  160.7670  209.7780  151.0020 C   0  0  1  0  0  3  0  0  0  0  0  0
  161.2410  208.0660  152.6280 C   0  0  2  0  0  3  0  0  0  0  0  0
  161.3160  211.1610  151.2730 C   0  0  2  0  0  3  0  0  0  0  0  0
  161.4250  208.5400  149.2300 O   0  0  0  0  0  1  0  0  0  0  0  0
  160.4540  210.4190  153.3300 C   0  0  1  0  0  3  0  0  0  0  0  0
  1 21  1  0  0  0  0
  2  8  2  0  0  0  0
  4 22  1  0  0  0  0
  5 24  1  0  0  0  0
  5 17  1  0  0  0  0
  6  1  1  0  0  0  0
  8  7  2  0  0  0  0
  9 18  1  6  0  0  0
  9 14  1  0  0  0  0
 10  8  1  6  0  0  0
 10 28  1  0  0  0  0
 12 25  1  0  0  0  0
 12 28  1  0  0  0  0
 13  9  1  0  0  0  0
 13 26  1  0  0  0  0
 14  8  1  0  0  0  0
 15 11  1  0  0  0  0
 15 23  1  0  0  0  0
 16 20  1  0  0  0  0
 16  1  2  0  0  0  0
 17  3  1  0  0  0  0
 17 25  1  0  0  0  0
 19 15  1  0  0  0  0
 20  4  2  0  0  0  0
 21 22  2  0  0  0  0
 23  6  1  0  0  0  0
 24 26  1  0  0  0  0
 24 12  1  0  0  0  0
 25 19  1  0  0  0  0
 26 10  1  0  0  0  0
 27  5  1  0  0  0  0
 28 16  1  0  0  0  0
M  END
>  <MODEL>
3

>  <REMARK>
 VINA RESULT:       0.4      1.445      1.833
  Name = 
  0 active torsions:
  status: ('A' for Active; 'I' for Inactive)
                            x       y       z     vdW  Elec       q    Type
                         _______ _______ _______ _____ _____    ______ ____

>  <TORSDO>
F 0

$$$$
=
 OpenBabel11122414123D

 28 32  0  0  1  0  0  0  0  0999 V2000
  161.2580  207.5800  156.1190 C   0  0  0  0  0  0  0  0  0  0  0  0
  163.6210  206.6620  151.6800 O   0  0  0  0  0  0  0  0  0  0  0  0
  159.5280  211.7670  153.5690 C   0  0  0  0  0  1  0  0  0  0  0  0
  158.5810  206.8310  155.7610 C   0  0  0  0  0  3  0  0  0  0  0  0
  160.6840  210.5250  151.8250 N   0  0  0  0  0  0  0  0  0  0  0  0
  162.6610  208.0620  156.3410 C   0  0  0  0  0  2  0  0  0  0  0  0
  162.4080  204.7260  152.5840 O   0  0  0  0  0  0  0  0  0  0  0  0
  162.2910  205.9620  151.7380 S   0  0  0  0  0  0  0  0  0  0  0  0
  160.5820  206.3330  149.6790 C   0  0  2  0  0  3  0  0  0  0  0  0
  161.0710  207.0160  152.4000 N   0  0  2  0  0  0  0  0  0  0  0  0
  161.8850  211.7610  157.1730 C   0  0  0  0  0  1  0  0  0  0  0  0
  162.0010  209.0990  153.2630 C   0  0  1  0  0  3  0  0  0  0  0  0
  160.8310  207.8060  149.9780 C   0  0  0  0  0  2  0  0  0  0  0  0
  161.7940  205.5110  150.0900 C   0  0  0  0  0  2  0  0  0  0  0  0
  161.8370  210.4820  156.3640 C   0  0  1  0  0  3  0  0  0  0  0  0
  160.7410  207.4330  154.8130 C   0  0  0  0  0  0  0  0  0  0  0  0
  160.8510  211.1890  153.1120 C   0  0  2  0  0  3  0  0  0  0  0  0
  160.3340  206.1520  148.1980 C   0  0  0  0  0  1  0  0  0  0  0  0
  162.3010  210.7480  155.0110 N   0  0  0  0  0  2  0  0  0  0  0  0
  159.3940  207.0700  154.6500 C   0  0  0  0  0  3  0  0  0  0  0  0
  160.4370  207.3290  157.2260 C   0  0  0  0  0  3  0  0  0  0  0  0
  159.1040  206.9530  157.0480 C   0  0  0  0  0  3  0  0  0  0  0  0
  162.7060  209.4230  157.0410 C   0  0  0  0  0  2  0  0  0  0  0  0
  161.5350  209.3380  151.8490 C   0  0  1  0  0  3  0  0  0  0  0  0
  161.3280  210.1580  154.1040 C   0  0  2  0  0  3  0  0  0  0  0  0
  160.7230  208.1160  151.4800 C   0  0  2  0  0  3  0  0  0  0  0  0
  161.1960  211.3540  150.8860 O   0  0  0  0  0  1  0  0  0  0  0  0
  161.6250  207.6470  153.5980 C   0  0  1  0  0  3  0  0  0  0  0  0
  1  6  1  0  0  0  0
  1 21  1  0  0  0  0
  2  8  2  0  0  0  0
  4 22  1  0  0  0  0
  5 24  1  0  0  0  0
  5 17  1  0  0  0  0
  6 23  1  0  0  0  0
  8  7  2  0  0  0  0
  9 18  1  6  0  0  0
  9 13  1  0  0  0  0
  9 14  1  0  0  0  0
 10  8  1  6  0  0  0
 10 28  1  0  0  0  0
 12 28  1  0  0  0  0
 12 25  1  0  0  0  0
 13 26  1  0  0  0  0
 14  8  1  0  0  0  0
 15 23  1  0  0  0  0
 15 11  1  0  0  0  0
 16  1  2  0  0  0  0
 17  3  1  0  0  0  0
 17 25  1  0  0  0  0
 19 15  1  0  0  0  0
 20 16  1  0  0  0  0
 20  4  2  0  0  0  0
 22 21  2  0  0  0  0
 24 12  1  0  0  0  0
 25 19  1  0  0  0  0
 26 24  1  0  0  0  0
 26 10  1  0  0  0  0
 27  5  1  0  0  0  0
 28 16  1  0  0  0  0
M  END
>  <MODEL>
4

>  <REMARK>
 VINA RESULT:       0.8      2.357      4.805
  Name = 
  0 active torsions:
  status: ('A' for Active; 'I' for Inactive)
                            x       y       z     vdW  Elec       q    Type
                         _______ _______ _______ _____ _____    ______ ____

>  <TORSDO>
F 0

$$$$
=
 OpenBabel11122414123D

 28 32  0  0  1  0  0  0  0  0999 V2000
  160.0580  213.6150  150.4630 C   0  0  0  0  0  0  0  0  0  0  0  0
  162.3950  211.2720  154.3590 O   0  0  0  0  0  0  0  0  0  0  0  0
  161.0200  209.1130  148.0470 C   0  0  0  0  0  1  0  0  0  0  0  0
  157.4560  212.5790  150.3610 C   0  0  0  0  0  3  0  0  0  0  0  0
  161.7090  208.6460  150.3340 N   0  0  0  0  0  0  0  0  0  0  0  0
  161.4590  214.1500  150.4290 C   0  0  0  0  0  2  0  0  0  0  0  0
  160.2660  212.3370  154.9670 O   0  0  0  0  0  0  0  0  0  0  0  0
  160.9040  211.0860  154.4330 S   0  0  0  0  0  0  0  0  0  0  0  0
  159.9620  208.5690  154.7060 C   0  0  2  0  0  3  0  0  0  0  0  0
  160.2530  210.7160  152.8590 N   0  0  2  0  0  0  0  0  0  0  0  0
  162.4360  213.0050  146.8640 C   0  0  0  0  0  1  0  0  0  0  0  0
  161.9110  210.9320  151.0850 C   0  0  1  0  0  3  0  0  0  0  0  0
  160.8350  208.3050  153.4880 C   0  0  0  0  0  2  0  0  0  0  0  0
  160.5370  209.7210  155.5160 C   0  0  0  0  0  2  0  0  0  0  0  0
  161.9140  212.8480  148.2760 C   0  0  1  0  0  3  0  0  0  0  0  0
  159.7630  212.3990  151.1170 C   0  0  0  0  0  0  0  0  0  0  0  0
  161.9560  209.4960  149.1760 C   0  0  2  0  0  3  0  0  0  0  0  0
  159.9100  207.3280  155.5710 C   0  0  0  0  0  1  0  0  0  0  0  0
  162.6690  211.8070  148.9580 N   0  0  0  0  0  2  0  0  0  0  0  0
  158.4580  211.8860  151.0460 C   0  0  0  0  0  3  0  0  0  0  0  0
  159.0450  214.3070  149.7870 C   0  0  0  0  0  3  0  0  0  0  0  0
  157.7480  213.7920  149.7380 C   0  0  0  0  0  3  0  0  0  0  0  0
  162.0360  214.1820  149.0110 C   0  0  0  0  0  2  0  0  0  0  0  0
  161.8640  209.4880  151.5160 C   0  0  1  0  0  3  0  0  0  0  0  0
  161.7010  210.9240  149.5890 C   0  0  2  0  0  3  0  0  0  0  0  0
  160.6390  209.3700  152.3960 C   0  0  2  0  0  3  0  0  0  0  0  0
  162.7080  207.7330  150.3710 O   0  0  0  0  0  1  0  0  0  0  0  0
  160.8310  211.6590  151.9020 C   0  0  1  0  0  3  0  0  0  0  0  0
  1 16  1  0  0  0  0
  2  8  2  0  0  0  0
  3 17  1  0  0  0  0
  4 20  1  0  0  0  0
  5 27  1  0  0  0  0
  5 24  1  0  0  0  0
  6  1  1  0  0  0  0
  8  7  2  0  0  0  0
  8 14  1  0  0  0  0
  9 14  1  0  0  0  0
  9 18  1  1  0  0  0
 10  8  1  1  0  0  0
 11 15  1  0  0  0  0
 12 24  1  0  0  0  0
 12 28  1  0  0  0  0
 13  9  1  0  0  0  0
 15 19  1  0  0  0  0
 15 23  1  0  0  0  0
 16 28  1  0  0  0  0
 17 25  1  0  0  0  0
 17  5  1  0  0  0  0
 19 25  1  0  0  0  0
 20 16  2  0  0  0  0
 21  1  2  0  0  0  0
 22 21  1  0  0  0  0
 22  4  2  0  0  0  0
 23  6  1  0  0  0  0
 24 26  1  0  0  0  0
 25 12  1  0  0  0  0
 26 10  1  0  0  0  0
 26 13  1  0  0  0  0
 28 10  1  0  0  0  0
M  END
>  <MODEL>
5

>  <REMARK>
 VINA RESULT:       1.2      2.136      6.377
  Name = 
  0 active torsions:
  status: ('A' for Active; 'I' for Inactive)
                            x       y       z     vdW  Elec       q    Type
                         _______ _______ _______ _____ _____    ______ ____

>  <TORSDO>
F 0

$$$$
=
 OpenBabel11122414123D

 28 32  0  0  1  0  0  0  0  0999 V2000
  162.4350  209.4470  151.2550 C   0  0  0  0  0  0  0  0  0  0  0  0
  163.4720  213.6910  148.6020 O   0  0  0  0  0  0  0  0  0  0  0  0
  157.7650  211.6810  151.7280 C   0  0  0  0  0  1  0  0  0  0  0  0
  160.9540  207.7890  149.5490 C   0  0  0  0  0  3  0  0  0  0  0  0
  158.9130  213.1730  150.1850 N   0  0  0  0  0  0  0  0  0  0  0  0
  163.1630  210.3240  152.2310 C   0  0  0  0  0  2  0  0  0  0  0  0
  164.1450  211.6180  147.4700 O   0  0  0  0  0  0  0  0  0  0  0  0
  163.0170  212.5840  147.6920 S   0  0  0  0  0  0  0  0  0  0  0  0
  161.0080  213.1190  145.9670 C   0  0  2  0  0  3  0  0  0  0  0  0
  161.6500  211.7480  148.3790 N   0  0  2  0  0  0  0  0  0  0  0  0
  160.4140  210.5880  154.9420 C   0  0  0  0  0  1  0  0  0  0  0  0
  161.1700  212.4570  150.6620 C   0  0  1  0  0  3  0  0  0  0  0  0
  160.2960  213.5890  147.2280 C   0  0  0  0  0  2  0  0  0  0  0  0
  162.5110  213.2780  146.1320 C   0  0  0  0  0  2  0  0  0  0  0  0
  160.9990  210.6700  153.5480 C   0  0  1  0  0  3  0  0  0  0  0  0
  161.8100  209.9960  150.1150 C   0  0  0  0  0  0  0  0  0  0  0  0
  158.9470  212.6080  151.5280 C   0  0  2  0  0  3  0  0  0  0  0  0
  160.5450  213.9440  144.7860 C   0  0  0  0  0  1  0  0  0  0  0  0
  160.7760  212.0020  153.0080 N   0  0  0  0  0  2  0  0  0  0  0  0
  161.0600  209.1550  149.2770 C   0  0  0  0  0  3  0  0  0  0  0  0
  162.3300  208.0750  151.5150 C   0  0  0  0  0  3  0  0  0  0  0  0
  161.5950  207.2480  150.6640 C   0  0  0  0  0  3  0  0  0  0  0  0
  162.4920  210.3470  153.6070 C   0  0  0  0  0  2  0  0  0  0  0  0
  160.2960  213.2530  149.7250 C   0  0  1  0  0  3  0  0  0  0  0  0
  160.2330  211.8320  151.6690 C   0  0  2  0  0  3  0  0  0  0  0  0
  160.4290  212.5760  148.3780 C   0  0  2  0  0  3  0  0  0  0  0  0
  158.4670  214.4450  150.3060 O   0  0  0  0  0  1  0  0  0  0  0  0
  161.9540  211.4710  149.7830 C   0  0  1  0  0  3  0  0  0  0  0  0
  1 21  1  0  0  0  0
  1  6  1  0  0  0  0
  4 22  1  0  0  0  0
  5 27  1  0  0  0  0
  5 17  1  0  0  0  0
  6 23  1  0  0  0  0
  7  8  2  0  0  0  0
  8  2  2  0  0  0  0
  9 18  1  6  0  0  0
  9 14  1  0  0  0  0
  9 13  1  0  0  0  0
 10  8  1  1  0  0  0
 10 28  1  0  0  0  0
 12 25  1  0  0  0  0
 13 26  1  0  0  0  0
 14  8  1  0  0  0  0
 15 23  1  0  0  0  0
 15 11  1  0  0  0  0
 16  1  2  0  0  0  0
 17 25  1  0  0  0  0
 17  3  1  0  0  0  0
 19 15  1  0  0  0  0
 20  4  2  0  0  0  0
 20 16  1  0  0  0  0
 22 21  2  0  0  0  0
 24  5  1  0  0  0  0
 24 12  1  0  0  0  0
 25 19  1  0  0  0  0
 26 10  1  0  0  0  0
 26 24  1  0  0  0  0
 28 16  1  0  0  0  0
 28 12  1  0  0  0  0
M  END
>  <MODEL>
6

>  <REMARK>
 VINA RESULT:       1.3      2.964      5.518
  Name = 
  0 active torsions:
  status: ('A' for Active; 'I' for Inactive)
                            x       y       z     vdW  Elec       q    Type
                         _______ _______ _______ _____ _____    ______ ____

>  <TORSDO>
F 0

$$$$
