=
 OpenBabel11122413023D

 32 37  0  0  1  0  0  0  0  0999 V2000
  162.4120  204.5390  146.9110 C   0  0  0  0  0  2  0  0  0  0  0  0
  161.1840  208.6650  150.4270 C   0  0  2  0  0  3  0  0  0  0  0  0
  160.5780  206.1870  154.6550 C   0  0  0  0  0  2  0  0  0  0  0  0
  160.8090  207.4650  155.4530 C   0  0  0  0  0  2  0  0  0  0  0  0
  160.9590  211.2180  150.3780 C   0  0  1  0  0  3  0  0  0  0  0  0
  160.8280  212.4870  151.2340 C   0  0  1  0  0  3  0  0  0  0  0  0
  161.4130  207.3870  148.2470 C   0  0  2  0  0  3  0  0  0  0  0  0
  161.4030  206.2110  150.5120 C   0  0  0  0  0  2  0  0  0  0  0  0
  158.8950  212.1310  152.7370 C   0  0  2  0  0  3  0  0  0  0  0  0
  160.4520  204.9850  148.4850 C   0  0  0  0  0  2  0  0  0  0  0  0
  161.3620  206.2430  153.3470 C   0  0  0  0  0  2  0  0  0  0  0  0
  161.6330  207.4950  151.2190 N   0  0  2  0  0  0  0  0  0  0  0  0
  160.9140  207.4490  152.5040 C   0  0  2  0  0  3  0  0  0  0  0  0
  160.7750  209.9560  152.5200 C   0  0  1  0  0  3  0  0  0  0  0  0
  158.3690  213.2520  151.8680 C   0  0  0  0  0  2  0  0  0  0  0  0
  162.1840  205.9150  146.4700 N   0  0  0  0  0  2  0  0  0  0  0  0
  160.7180  206.3430  149.1450 C   0  0  2  0  0  3  0  0  0  0  0  0
  159.5470  213.5600  150.5070 S   0  0  0  0  0  0  0  0  0  0  0  0
  162.6270  206.8400  147.5040 C   0  0  0  0  0  2  0  0  0  0  0  0
  161.7480  204.2060  148.2540 C   0  0  1  0  0  3  0  0  0  0  0  0
  160.3910  208.6780  154.6290 C   0  0  0  0  0  2  0  0  0  0  0  0
  161.1790  208.7250  153.3180 C   0  0  1  0  0  3  0  0  0  0  0  0
  161.0810  211.1160  153.2530 O   0  0  0  0  0  0  0  0  0  0  0  0
  161.8420  208.6200  149.0440 C   0  0  0  0  0  2  0  0  0  0  0  0
  161.8800  211.5510  149.2160 C   0  0  0  0  0  1  0  0  0  0  0  0
  158.4120  212.3150  154.1620 C   0  0  0  0  0  1  0  0  0  0  0  0
  161.4810  209.9920  151.1610 C   0  0  1  0  0  3  0  0  0  0  0  0
  160.4090  212.2140  152.6740 C   0  0  1  0  0  3  0  0  0  0  0  0
  161.4920  202.7750  148.3210 N   0  0  0  0  0  2  0  0  0  0  0  0
  161.0560  202.1260  149.5180 C   0  0  0  0  0  0  0  0  0  0  0  0
  160.8010  200.7270  149.5060 N   0  0  0  0  0  1  0  0  0  0  0  0
  160.9010  202.7800  150.5830 O   0  0  0  0  0  0  0  0  0  0  0  0
  1 20  1  0  0  0  0
  2 24  1  6  0  0  0
  2 27  1  0  0  0  0
  2 12  1  0  0  0  0
  3  4  1  0  0  0  0
  5 25  1  6  0  0  0
  5 27  1  0  0  0  0
  5  6  1  0  0  0  0
  6 18  1  6  0  0  0
  6 28  1  0  0  0  0
  7 19  1  1  0  0  0
  7 24  1  0  0  0  0
  7 17  1  0  0  0  0
  9 26  1  1  0  0  0
 11  3  1  0  0  0  0
 12  8  1  6  0  0  0
 12 13  1  0  0  0  0
 13 22  1  0  0  0  0
 13 11  1  1  0  0  0
 14 23  1  1  0  0  0
 14 22  1  0  0  0  0
 15  9  1  0  0  0  0
 16  1  1  0  0  0  0
 16 19  1  0  0  0  0
 17 10  1  6  0  0  0
 17  8  1  0  0  0  0
 18 15  1  0  0  0  0
 20 29  1  6  0  0  0
 20 10  1  0  0  0  0
 21  4  1  0  0  0  0
 22 21  1  1  0  0  0
 27 14  1  0  0  0  0
 28  9  1  0  0  0  0
 28 23  1  0  0  0  0
 29 30  1  0  0  0  0
 30 32  2  0  0  0  0
 31 30  1  0  0  0  0
M  END
>  <MODEL>
1

>  <REMARK>
 VINA RESULT:      -7.9      0.000      0.000
  Name = 
  1 active torsions:
  status: ('A' for Active; 'I' for Inactive)
    1  A    between atoms: C_20  and  N_29
                            x       y       z     vdW  Elec       q    Type
                         _______ _______ _______ _____ _____    ______ ____

>  <TORSDO>
F 1

$$$$
=
 OpenBabel11122413023D

 32 37  0  0  1  0  0  0  0  0999 V2000
  162.3000  204.4060  145.5040 C   0  0  0  0  0  2  0  0  0  0  0  0
  161.4320  207.9260  149.7170 C   0  0  2  0  0  3  0  0  0  0  0  0
  160.8700  204.7980  153.4950 C   0  0  0  0  0  2  0  0  0  0  0  0
  161.1990  205.9100  154.4830 C   0  0  0  0  0  2  0  0  0  0  0  0
  161.3390  210.4590  150.1070 C   0  0  1  0  0  3  0  0  0  0  0  0
  161.3100  211.5690  151.1680 C   0  0  1  0  0  3  0  0  0  0  0  0
  161.5070  207.0280  147.3450 C   0  0  2  0  0  3  0  0  0  0  0  0
  161.5270  205.4870  149.3790 C   0  0  0  0  0  2  0  0  0  0  0  0
  159.4240  211.0490  152.6830 C   0  0  2  0  0  3  0  0  0  0  0  0
  160.4320  204.6650  147.2250 C   0  0  0  0  0  2  0  0  0  0  0  0
  161.6030  205.0390  152.1780 C   0  0  0  0  0  2  0  0  0  0  0  0
  161.8520  206.6200  150.2790 N   0  0  2  0  0  0  0  0  0  0  0  0
  161.1840  206.3890  151.5710 C   0  0  2  0  0  3  0  0  0  0  0  0
  161.1770  208.8610  152.0130 C   0  0  1  0  0  3  0  0  0  0  0  0
  158.9220  212.3240  152.0410 C   0  0  0  0  0  2  0  0  0  0  0  0
  162.1270  205.8460  145.3110 N   0  0  0  0  0  2  0  0  0  0  0  0
  160.7950  205.8790  148.0880 C   0  0  2  0  0  3  0  0  0  0  0  0
  160.0580  212.8060  150.6950 S   0  0  0  0  0  0  0  0  0  0  0  0
  162.6590  206.5610  146.4630 C   0  0  0  0  0  2  0  0  0  0  0  0
  161.6750  203.8800  146.8030 C   0  0  1  0  0  3  0  0  0  0  0  0
  160.8120  207.2620  153.8950 C   0  0  0  0  0  2  0  0  0  0  0  0
  161.5490  207.4960  152.5740 C   0  0  1  0  0  3  0  0  0  0  0  0
  161.5720  209.8660  152.9150 O   0  0  0  0  0  0  0  0  0  0  0  0
  162.0310  208.0870  148.3150 C   0  0  0  0  0  2  0  0  0  0  0  0
  162.2290  210.9420  148.9730 C   0  0  0  0  0  1  0  0  0  0  0  0
  159.0090  211.0110  154.1400 C   0  0  0  0  0  1  0  0  0  0  0  0
  161.8280  209.0960  150.6470 C   0  0  1  0  0  3  0  0  0  0  0  0
  160.9360  211.0750  152.5610 C   0  0  1  0  0  3  0  0  0  0  0  0
  161.3480  202.4720  146.6420 N   0  0  0  0  0  2  0  0  0  0  0  0
  160.5820  201.9800  145.5410 C   0  0  0  0  0  0  0  0  0  0  0  0
  160.3190  200.5860  145.4330 N   0  0  0  0  0  1  0  0  0  0  0  0
  160.1320  202.7690  144.6680 O   0  0  0  0  0  0  0  0  0  0  0  0
  1 20  1  0  0  0  0
  2 24  1  6  0  0  0
  2 12  1  0  0  0  0
  2 27  1  0  0  0  0
  3  4  1  0  0  0  0
  5 25  1  6  0  0  0
  5 27  1  0  0  0  0
  5  6  1  0  0  0  0
  6 18  1  6  0  0  0
  6 28  1  0  0  0  0
  7 19  1  1  0  0  0
  7 17  1  0  0  0  0
  7 24  1  0  0  0  0
  9 26  1  1  0  0  0
 11  3  1  0  0  0  0
 12  8  1  6  0  0  0
 12 13  1  0  0  0  0
 13 11  1  1  0  0  0
 13 22  1  0  0  0  0
 14 22  1  0  0  0  0
 14 23  1  1  0  0  0
 15  9  1  0  0  0  0
 16  1  1  0  0  0  0
 16 19  1  0  0  0  0
 17 10  1  6  0  0  0
 17  8  1  0  0  0  0
 18 15  1  0  0  0  0
 20 29  1  6  0  0  0
 20 10  1  0  0  0  0
 21  4  1  0  0  0  0
 22 21  1  1  0  0  0
 27 14  1  0  0  0  0
 28  9  1  0  0  0  0
 28 23  1  0  0  0  0
 30 29  1  0  0  0  0
 31 30  1  0  0  0  0
 32 30  2  0  0  0  0
M  END
>  <MODEL>
2

>  <REMARK>
 VINA RESULT:      -6.4      1.774      1.926
  Name = 
  1 active torsions:
  status: ('A' for Active; 'I' for Inactive)
    1  A    between atoms: C_20  and  N_29
                            x       y       z     vdW  Elec       q    Type
                         _______ _______ _______ _____ _____    ______ ____

>  <TORSDO>
F 1

$$$$
=
 OpenBabel11122413023D

 32 37  0  0  1  0  0  0  0  0999 V2000
  159.5660  211.1630  157.2600 C   0  0  0  0  0  2  0  0  0  0  0  0
  161.0090  208.7540  152.4630 C   0  0  2  0  0  3  0  0  0  0  0  0
  160.9940  212.6210  149.3930 C   0  0  0  0  0  2  0  0  0  0  0  0
  161.8880  211.8660  148.4160 C   0  0  0  0  0  2  0  0  0  0  0  0
  161.6600  206.4260  151.6100 C   0  0  1  0  0  3  0  0  0  0  0  0
  162.2500  205.6350  150.4320 C   0  0  1  0  0  3  0  0  0  0  0  0
  160.0780  209.0120  154.8090 C   0  0  2  0  0  3  0  0  0  0  0  0
  160.3990  211.0070  153.2520 C   0  0  0  0  0  2  0  0  0  0  0  0
  160.9040  206.2240  148.4410 C   0  0  2  0  0  3  0  0  0  0  0  0
  158.4910  211.0640  154.9460 C   0  0  0  0  0  2  0  0  0  0  0  0
  161.2860  212.1670  150.8200 C   0  0  0  0  0  2  0  0  0  0  0  0
  161.2650  210.2100  152.3490 N   0  0  2  0  0  0  0  0  0  0  0  0
  161.0270  210.6580  150.9660 C   0  0  2  0  0  3  0  0  0  0  0  0
  161.7590  208.4140  150.1100 C   0  0  1  0  0  3  0  0  0  0  0  0
  160.5390  204.7650  148.6020 C   0  0  0  0  0  2  0  0  0  0  0  0
  159.6890  209.7120  157.1060 N   0  0  0  0  0  2  0  0  0  0  0  0
  159.3980  210.1860  154.0760 C   0  0  2  0  0  3  0  0  0  0  0  0
  161.2470  204.1370  150.1640 S   0  0  0  0  0  0  0  0  0  0  0  0
  160.7270  209.4110  156.1300 C   0  0  0  0  0  2  0  0  0  0  0  0
  159.2980  211.9000  155.9410 C   0  0  1  0  0  3  0  0  0  0  0  0
  161.6640  210.3650  148.5560 C   0  0  0  0  0  2  0  0  0  0  0  0
  161.9560  209.9180  149.9910 C   0  0  1  0  0  3  0  0  0  0  0  0
  162.6580  207.7500  149.2560 O   0  0  0  0  0  0  0  0  0  0  0  0
  161.1310  208.3340  153.9310 C   0  0  0  0  0  2  0  0  0  0  0  0
  162.2140  205.8130  152.8860 C   0  0  0  0  0  1  0  0  0  0  0  0
  160.9970  206.5710  146.9680 C   0  0  0  0  0  1  0  0  0  0  0  0
  161.9580  207.9410  151.5530 C   0  0  1  0  0  3  0  0  0  0  0  0
  162.2500  206.4060  149.1170 C   0  0  1  0  0  3  0  0  0  0  0  0
  158.6090  213.1500  156.2210 N   0  0  0  0  0  2  0  0  0  0  0  0
  157.2870  213.1960  156.7640 C   0  0  0  0  0  0  0  0  0  0  0  0
  156.6820  214.4530  157.0360 N   0  0  0  0  0  1  0  0  0  0  0  0
  156.6520  212.1330  156.9970 O   0  0  0  0  0  0  0  0  0  0  0  0
  2 24  1  1  0  0  0
  3 11  1  0  0  0  0
  4 21  1  0  0  0  0
  4  3  1  0  0  0  0
  5 25  1  1  0  0  0
  6 18  1  6  0  0  0
  6  5  1  0  0  0  0
  7 24  1  6  0  0  0
  7 19  1  0  0  0  0
  9 26  1  6  0  0  0
  9 15  1  0  0  0  0
  9 28  1  0  0  0  0
 10 20  1  0  0  0  0
 12  2  1  0  0  0  0
 12  8  1  1  0  0  0
 13 11  1  1  0  0  0
 13 12  1  0  0  0  0
 14 23  1  6  0  0  0
 14 27  1  0  0  0  0
 15 18  1  0  0  0  0
 16  1  1  0  0  0  0
 17  8  1  1  0  0  0
 17  7  1  0  0  0  0
 17 10  1  0  0  0  0
 19 16  1  0  0  0  0
 20 29  1  1  0  0  0
 20  1  1  0  0  0  0
 22 21  1  6  0  0  0
 22 14  1  0  0  0  0
 22 13  1  0  0  0  0
 27  5  1  0  0  0  0
 27  2  1  0  0  0  0
 28 23  1  0  0  0  0
 28  6  1  0  0  0  0
 29 30  1  0  0  0  0
 30 32  2  0  0  0  0
 30 31  1  0  0  0  0
M  END
>  <MODEL>
3

>  <REMARK>
 VINA RESULT:      -5.0      3.718      8.493
  Name = 
  1 active torsions:
  status: ('A' for Active; 'I' for Inactive)
    1  A    between atoms: C_20  and  N_29
                            x       y       z     vdW  Elec       q    Type
                         _______ _______ _______ _____ _____    ______ ____

>  <TORSDO>
F 1

$$$$
