=
 OpenBabel11122413333D

 37 43  0  0  1  0  0  0  0  0999 V2000
  160.5040  211.6310  150.3610 O   0  0  0  0  0  0  0  0  0  0  0  0
  161.4010  207.3070  150.9980 C   0  0  0  0  0  0  0  0  0  0  0  0
  160.5170  209.3270  154.4640 C   0  0  0  0  0  0  0  0  0  0  0  0
  160.7020  212.8590  149.7140 C   0  0  2  0  0  3  0  0  0  0  0  0
  157.7960  211.6690  153.6230 O   0  0  0  0  0  0  0  0  0  0  0  0
  161.2700  207.2300  153.5530 C   0  0  0  0  0  0  0  0  0  0  0  0
  160.1660  210.6930  153.9980 C   0  0  2  0  0  3  0  0  0  0  0  0
  158.5490  213.7770  150.6020 C   0  0  0  0  0  0  0  0  0  0  0  0
  161.0020  208.5750  153.4360 C   0  0  0  0  0  0  0  0  0  0  0  0
  158.8010  211.1810  154.4960 C   0  0  0  0  0  0  0  0  0  0  0  0
  161.2020  206.6490  154.8280 C   0  0  0  0  0  3  0  0  0  0  0  0
  159.4450  213.5140  149.5530 O   0  0  0  0  0  0  0  0  0  0  0  0
  161.1140  209.2920  152.1730 C   0  0  1  0  0  3  0  0  0  0  0  0
  160.7760  206.4410  149.9230 C   0  0  0  0  0  1  0  0  0  0  0  0
  160.1790  209.6380  156.9110 C   0  0  0  0  0  3  0  0  0  0  0  0
  160.8440  207.4500  155.9360 C   0  0  0  0  0  3  0  0  0  0  0  0
  160.5910  208.4780  151.1430 O   0  0  0  0  0  0  0  0  0  0  0  0
  158.7310  213.2540  152.0060 C   0  0  1  0  0  3  0  0  0  0  0  0
  157.9020  211.9880  152.2360 C   0  0  0  0  0  2  0  0  0  0  0  0
  160.4820  208.8010  155.7530 C   0  0  0  0  0  0  0  0  0  0  0  0
  160.2670  210.5360  152.4540 C   0  0  2  0  0  3  0  0  0  0  0  0
  161.4910  206.4420  152.2930 C   0  0  0  0  0  2  0  0  0  0  0  0
  158.5130  211.2330  155.8240 C   0  0  0  0  0  0  0  0  0  0  0  0
  162.8060  207.6650  150.5240 C   0  0  0  0  0  1  0  0  0  0  0  0
  160.2020  213.0560  152.3680 C   0  0  0  0  0  2  0  0  0  0  0  0
  157.5160  214.4520  150.3520 O   0  0  0  0  0  0  0  0  0  0  0  0
  160.8060  211.7750  151.7360 C   0  0  2  0  0  3  0  0  0  0  0  0
  159.3600  210.6900  156.9190 C   0  0  0  0  0  3  0  0  0  0  0  0
  157.2760  213.3140  156.4610 C   0  0  0  0  0  3  0  0  0  0  0  0
  157.2830  211.9200  156.2960 C   0  0  0  0  0  0  0  0  0  0  0  0
  156.1010  211.2000  156.5360 C   0  0  0  0  0  3  0  0  0  0  0  0
  153.4820  210.9460  157.2610 Cl  0  0  0  0  0  0  0  0  0  0  0  0
  154.9490  213.2450  157.1260 C   0  0  0  0  0  3  0  0  0  0  0  0
  154.9420  211.8590  156.9550 C   0  0  0  0  0  0  0  0  0  0  0  0
  156.1160  213.9740  156.8770 C   0  0  0  0  0  3  0  0  0  0  0  0
  161.9840  211.2640  148.2990 C   0  0  0  0  0  1  0  0  0  0  0  0
  161.3300  212.6310  148.3520 C   0  0  0  0  0  2  0  0  0  0  0  0
  1 27  1  0  0  0  0
  2 17  1  0  0  0  0
  2 22  1  0  0  0  0
  3 20  1  0  0  0  0
  4 37  1  6  0  0  0
  4  1  1  0  0  0  0
  5 10  1  0  0  0  0
  6 11  2  0  0  0  0
  7  3  1  1  0  0  0
  7 10  1  0  0  0  0
  8 18  1  0  0  0  0
  9  6  1  0  0  0  0
  9  3  2  0  0  0  0
 10 23  2  0  0  0  0
 11 16  1  0  0  0  0
 12  4  1  0  0  0  0
 12  8  1  0  0  0  0
 13 17  1  6  0  0  0
 13 21  1  0  0  0  0
 13  9  1  0  0  0  0
 14  2  1  0  0  0  0
 15 28  2  0  0  0  0
 18 19  1  6  0  0  0
 18 25  1  0  0  0  0
 19  5  1  0  0  0  0
 20 16  2  0  0  0  0
 20 15  1  0  0  0  0
 21  7  1  0  0  0  0
 22  6  1  0  0  0  0
 23 30  1  0  0  0  0
 23 28  1  0  0  0  0
 24  2  1  0  0  0  0
 26  8  2  0  0  0  0
 27 25  1  0  0  0  0
 27 21  1  0  0  0  0
 29 35  1  0  0  0  0
 30 29  2  0  0  0  0
 30 31  1  0  0  0  0
 31 34  2  0  0  0  0
 34 33  1  0  0  0  0
 34 32  1  0  0  0  0
 35 33  2  0  0  0  0
 36 37  1  0  0  0  0
M  END
>  <MODEL>
1

>  <REMARK>
 VINA RESULT:      -5.8      0.000      0.000
  Name = 
  2 active torsions:
  status: ('A' for Active; 'I' for Inactive)
    1  A    between atoms: C_4  and  C_37
    2  A    between atoms: C_23  and  C_30
                            x       y       z     vdW  Elec       q    Type
                         _______ _______ _______ _____ _____    ______ ____

>  <TORSDO>
F 2

$$$$
=
 OpenBabel11122413333D

 37 43  0  0  1  0  0  0  0  0999 V2000
  161.5600  210.9380  149.3260 O   0  0  0  0  0  0  0  0  0  0  0  0
  161.2530  206.5200  148.7860 C   0  0  0  0  0  0  0  0  0  0  0  0
  161.2780  207.6940  152.7220 C   0  0  0  0  0  0  0  0  0  0  0  0
  162.0390  212.2040  148.9610 C   0  0  2  0  0  3  0  0  0  0  0  0
  159.2660  210.7790  152.8870 O   0  0  0  0  0  0  0  0  0  0  0  0
  161.3270  205.7980  151.2400 C   0  0  0  0  0  0  0  0  0  0  0  0
  161.2870  209.1770  152.6490 C   0  0  2  0  0  3  0  0  0  0  0  0
  160.3170  213.3600  150.3630 C   0  0  0  0  0  0  0  0  0  0  0  0
  161.4410  207.1480  151.4840 C   0  0  0  0  0  0  0  0  0  0  0  0
  160.1630  209.8400  153.4540 C   0  0  0  0  0  0  0  0  0  0  0  0
  161.2090  204.9330  152.3390 C   0  0  0  0  0  3  0  0  0  0  0  0
  161.0090  213.1720  149.1550 O   0  0  0  0  0  0  0  0  0  0  0  0
  161.6400  208.1250  150.4220 C   0  0  1  0  0  3  0  0  0  0  0  0
  160.3190  206.1580  147.6490 C   0  0  0  0  0  1  0  0  0  0  0  0
  161.2540  207.4140  155.1960 C   0  0  0  0  0  3  0  0  0  0  0  0
  161.1880  205.4720  153.6450 C   0  0  0  0  0  3  0  0  0  0  0  0
  160.8220  207.7740  149.3250 O   0  0  0  0  0  0  0  0  0  0  0  0
  160.4650  212.4530  151.5600 C   0  0  1  0  0  3  0  0  0  0  0  0
  159.3360  211.4200  151.6130 C   0  0  0  0  0  2  0  0  0  0  0  0
  161.2070  206.8680  153.8420 C   0  0  0  0  0  0  0  0  0  0  0  0
  161.2060  209.4180  151.1150 C   0  0  2  0  0  3  0  0  0  0  0  0
  161.2070  205.3460  149.8130 C   0  0  0  0  0  2  0  0  0  0  0  0
  160.0180  209.6060  154.7860 C   0  0  0  0  0  0  0  0  0  0  0  0
  162.6560  206.6280  148.1960 C   0  0  0  0  0  1  0  0  0  0  0  0
  161.8460  211.8030  151.6320 C   0  0  0  0  0  2  0  0  0  0  0  0
  159.4990  214.3140  150.4430 O   0  0  0  0  0  0  0  0  0  0  0  0
  162.0080  210.6290  150.6310 C   0  0  2  0  0  3  0  0  0  0  0  0
  160.7680  208.5960  155.5780 C   0  0  0  0  0  3  0  0  0  0  0  0
  159.5730  211.3560  156.5190 C   0  0  0  0  0  3  0  0  0  0  0  0
  159.0770  210.4260  155.5910 C   0  0  0  0  0  0  0  0  0  0  0  0
  157.6880  210.3240  155.4050 C   0  0  0  0  0  3  0  0  0  0  0  0
  155.0860  210.9710  155.9140 Cl  0  0  0  0  0  0  0  0  0  0  0  0
  157.3160  212.0330  157.0770 C   0  0  0  0  0  3  0  0  0  0  0  0
  156.8130  211.1190  156.1490 C   0  0  0  0  0  0  0  0  0  0  0  0
  158.6970  212.1540  157.2610 C   0  0  0  0  0  3  0  0  0  0  0  0
  161.4510  212.9660  146.6670 C   0  0  0  0  0  1  0  0  0  0  0  0
  162.4580  212.1990  147.5030 C   0  0  0  0  0  2  0  0  0  0  0  0
  1 27  1  0  0  0  0
  2 17  1  0  0  0  0
  2 22  1  0  0  0  0
  3 20  1  0  0  0  0
  4 37  1  6  0  0  0
  4 12  1  0  0  0  0
  4  1  1  0  0  0  0
  5 10  1  0  0  0  0
  6  9  1  0  0  0  0
  6 11  2  0  0  0  0
  7  3  1  6  0  0  0
  7 10  1  0  0  0  0
  8 26  2  0  0  0  0
  8 18  1  0  0  0  0
  9  3  2  0  0  0  0
 10 23  2  0  0  0  0
 11 16  1  0  0  0  0
 12  8  1  0  0  0  0
 13 17  1  6  0  0  0
 13 21  1  0  0  0  0
 13  9  1  0  0  0  0
 14  2  1  0  0  0  0
 15 28  2  0  0  0  0
 16 20  2  0  0  0  0
 18 19  1  6  0  0  0
 18 25  1  0  0  0  0
 19  5  1  0  0  0  0
 20 15  1  0  0  0  0
 21  7  1  0  0  0  0
 22  6  1  0  0  0  0
 23 28  1  0  0  0  0
 23 30  1  0  0  0  0
 24  2  1  0  0  0  0
 27 21  1  0  0  0  0
 27 25  1  0  0  0  0
 29 35  1  0  0  0  0
 30 29  2  0  0  0  0
 31 30  1  0  0  0  0
 31 34  2  0  0  0  0
 32 34  1  0  0  0  0
 33 35  2  0  0  0  0
 34 33  1  0  0  0  0
 36 37  1  0  0  0  0
M  END
>  <MODEL>
2

>  <REMARK>
 VINA RESULT:      -5.6      1.397      2.354
  Name = 
  2 active torsions:
  status: ('A' for Active; 'I' for Inactive)
    1  A    between atoms: C_4  and  C_37
    2  A    between atoms: C_23  and  C_30
                            x       y       z     vdW  Elec       q    Type
                         _______ _______ _______ _____ _____    ______ ____

>  <TORSDO>
F 2

$$$$
=
 OpenBabel11122413333D

 37 43  0  0  1  0  0  0  0  0999 V2000
  161.1040  211.3110  149.8770 O   0  0  0  0  0  0  0  0  0  0  0  0
  161.3940  206.9640  150.8390 C   0  0  0  0  0  0  0  0  0  0  0  0
  160.4030  209.2980  154.0710 C   0  0  0  0  0  0  0  0  0  0  0  0
  161.5180  212.4630  149.1920 C   0  0  2  0  0  3  0  0  0  0  0  0
  158.0930  211.8780  152.8060 O   0  0  0  0  0  0  0  0  0  0  0  0
  160.9860  207.0720  153.3630 C   0  0  0  0  0  0  0  0  0  0  0  0
  160.2730  210.6610  153.4970 C   0  0  2  0  0  3  0  0  0  0  0  0
  159.4120  213.6800  149.7820 C   0  0  0  0  0  0  0  0  0  0  0  0
  160.8990  208.4290  153.1460 C   0  0  0  0  0  0  0  0  0  0  0  0
  158.9330  211.3360  153.8110 C   0  0  0  0  0  0  0  0  0  0  0  0
  160.7130  206.5890  154.6520 C   0  0  0  0  0  3  0  0  0  0  0  0
  160.3750  213.2470  148.8550 O   0  0  0  0  0  0  0  0  0  0  0  0
  161.2300  209.0430  151.8670 C   0  0  1  0  0  3  0  0  0  0  0  0
  160.7850  206.1070  149.7480 C   0  0  0  0  0  1  0  0  0  0  0  0
  159.8490  209.8070  156.4440 C   0  0  0  0  0  3  0  0  0  0  0  0
  160.3410  207.4970  155.6680 C   0  0  0  0  0  3  0  0  0  0  0  0
  160.7230  208.2280  150.8290 O   0  0  0  0  0  0  0  0  0  0  0  0
  159.3790  213.2340  151.2220 C   0  0  1  0  0  3  0  0  0  0  0  0
  158.3820  212.0900  151.4240 C   0  0  0  0  0  2  0  0  0  0  0  0
  160.1680  208.8650  155.3740 C   0  0  0  0  0  0  0  0  0  0  0  0
  160.5160  210.3920  151.9850 C   0  0  2  0  0  3  0  0  0  0  0  0
  161.2410  206.1820  152.1800 C   0  0  0  0  0  2  0  0  0  0  0  0
  158.5150  211.5090  155.0940 C   0  0  0  0  0  0  0  0  0  0  0  0
  162.8750  207.1260  150.5080 C   0  0  0  0  0  1  0  0  0  0  0  0
  160.7690  212.8910  151.7580 C   0  0  0  0  0  2  0  0  0  0  0  0
  158.5010  214.4520  149.3820 O   0  0  0  0  0  0  0  0  0  0  0  0
  161.2750  211.5100  151.2670 C   0  0  2  0  0  3  0  0  0  0  0  0
  159.1690  210.9450  156.3050 C   0  0  0  0  0  3  0  0  0  0  0  0
  157.0220  212.6960  156.7150 C   0  0  0  0  0  3  0  0  0  0  0  0
  157.3360  212.3630  155.3870 C   0  0  0  0  0  0  0  0  0  0  0  0
  156.5480  212.8880  154.3490 C   0  0  0  0  0  3  0  0  0  0  0  0
  154.4790  214.3490  153.3310 Cl  0  0  0  0  0  0  0  0  0  0  0  0
  155.1470  214.0290  155.9600 C   0  0  0  0  0  3  0  0  0  0  0  0
  155.4560  213.7120  154.6350 C   0  0  0  0  0  0  0  0  0  0  0  0
  155.9320  213.5230  157.0000 C   0  0  0  0  0  3  0  0  0  0  0  0
  161.8830  213.0160  146.7940 C   0  0  0  0  0  1  0  0  0  0  0  0
  162.2540  212.0740  147.9230 C   0  0  0  0  0  2  0  0  0  0  0  0
  1 27  1  0  0  0  0
  2 22  1  0  0  0  0
  3 20  1  0  0  0  0
  4 37  1  6  0  0  0
  4  1  1  0  0  0  0
  5 10  1  0  0  0  0
  6 11  2  0  0  0  0
  7 10  1  6  0  0  0
  7  3  1  0  0  0  0
  8 18  1  0  0  0  0
  9  6  1  0  0  0  0
  9  3  2  0  0  0  0
 10 23  2  0  0  0  0
 11 16  1  0  0  0  0
 12  4  1  0  0  0  0
 12  8  1  0  0  0  0
 13 17  1  6  0  0  0
 13 21  1  0  0  0  0
 13  9  1  0  0  0  0
 14  2  1  0  0  0  0
 17  2  1  0  0  0  0
 18 19  1  6  0  0  0
 18 25  1  0  0  0  0
 19  5  1  0  0  0  0
 20 16  2  0  0  0  0
 20 15  1  0  0  0  0
 21  7  1  0  0  0  0
 22  6  1  0  0  0  0
 23 30  1  0  0  0  0
 23 28  1  0  0  0  0
 24  2  1  0  0  0  0
 26  8  2  0  0  0  0
 27 25  1  0  0  0  0
 27 21  1  0  0  0  0
 28 15  2  0  0  0  0
 29 35  1  0  0  0  0
 30 29  2  0  0  0  0
 31 34  2  0  0  0  0
 31 30  1  0  0  0  0
 32 34  1  0  0  0  0
 33 35  2  0  0  0  0
 34 33  1  0  0  0  0
 36 37  1  0  0  0  0
M  END
>  <MODEL>
3

>  <REMARK>
 VINA RESULT:      -5.3      1.283      1.383
  Name = 
  2 active torsions:
  status: ('A' for Active; 'I' for Inactive)
    1  A    between atoms: C_4  and  C_37
    2  A    between atoms: C_23  and  C_30
                            x       y       z     vdW  Elec       q    Type
                         _______ _______ _______ _____ _____    ______ ____

>  <TORSDO>
F 2

$$$$
=
 OpenBabel11122413333D

 37 43  0  0  1  0  0  0  0  0999 V2000
  160.5400  210.1910  154.8770 O   0  0  0  0  0  0  0  0  0  0  0  0
  158.2950  213.5760  153.0300 C   0  0  0  0  0  0  0  0  0  0  0  0
  160.8560  211.6900  150.4290 C   0  0  0  0  0  0  0  0  0  0  0  0
  161.2040  209.5790  155.9500 C   0  0  2  0  0  3  0  0  0  0  0  0
  160.6340  208.0900  151.1970 O   0  0  0  0  0  0  0  0  0  0  0  0
  159.3680  213.5610  150.7060 C   0  0  0  0  0  0  0  0  0  0  0  0
  161.4040  210.5640  151.2260 C   0  0  2  0  0  3  0  0  0  0  0  0
  161.1000  207.3330  154.8500 C   0  0  0  0  0  0  0  0  0  0  0  0
  160.1100  212.5190  151.2120 C   0  0  0  0  0  0  0  0  0  0  0  0
  161.2430  209.1960  150.5520 C   0  0  0  0  0  0  0  0  0  0  0  0
  159.5210  213.8870  149.3490 C   0  0  0  0  0  3  0  0  0  0  0  0
  160.9090  208.1830  155.9510 O   0  0  0  0  0  0  0  0  0  0  0  0
  160.0810  212.1440  152.6200 C   0  0  1  0  0  3  0  0  0  0  0  0
  156.8500  213.6010  153.4800 C   0  0  0  0  0  1  0  0  0  0  0  0
  162.0360  211.2710  148.2770 C   0  0  0  0  0  3  0  0  0  0  0  0
  160.4070  213.1290  148.5510 C   0  0  0  0  0  3  0  0  0  0  0  0
  158.7460  212.2180  153.0790 O   0  0  0  0  0  0  0  0  0  0  0  0
  161.4900  207.8210  153.4760 C   0  0  1  0  0  3  0  0  0  0  0  0
  160.2640  207.9540  152.5690 C   0  0  0  0  0  2  0  0  0  0  0  0
  161.0720  212.0080  149.0900 C   0  0  0  0  0  0  0  0  0  0  0  0
  160.6260  210.7150  152.5640 C   0  0  2  0  0  3  0  0  0  0  0  0
  158.3450  214.2010  151.6010 C   0  0  0  0  0  2  0  0  0  0  0  0
  161.7460  208.9590  149.3110 C   0  0  0  0  0  0  0  0  0  0  0  0
  159.0820  214.4520  153.9990 C   0  0  0  0  0  1  0  0  0  0  0  0
  162.3140  209.1070  153.5260 C   0  0  0  0  0  2  0  0  0  0  0  0
  160.8990  206.1000  155.0030 O   0  0  0  0  0  0  0  0  0  0  0  0
  161.4470  210.3630  153.8060 C   0  0  2  0  0  3  0  0  0  0  0  0
  162.3350  209.9780  148.4020 C   0  0  0  0  0  3  0  0  0  0  0  0
  162.3170  207.3330  147.4950 C   0  0  0  0  0  3  0  0  0  0  0  0
  161.7840  207.5760  148.7710 C   0  0  0  0  0  0  0  0  0  0  0  0
  161.3380  206.4880  149.5410 C   0  0  0  0  0  3  0  0  0  0  0  0
  160.8320  203.8450  150.0000 Cl  0  0  0  0  0  0  0  0  0  0  0  0
  161.9250  204.9590  147.7590 C   0  0  0  0  0  3  0  0  0  0  0  0
  161.4030  205.1870  149.0340 C   0  0  0  0  0  0  0  0  0  0  0  0
  162.3850  206.0310  146.9900 C   0  0  0  0  0  3  0  0  0  0  0  0
  159.5760  211.1270  157.0200 C   0  0  0  0  0  1  0  0  0  0  0  0
  160.7450  210.1920  157.2610 C   0  0  0  0  0  2  0  0  0  0  0  0
  1  4  1  0  0  0  0
  2 17  1  0  0  0  0
  2 14  1  0  0  0  0
  2 24  1  0  0  0  0
  3  9  1  0  0  0  0
  4 12  1  0  0  0  0
  4 37  1  1  0  0  0
  5 19  1  0  0  0  0
  6  9  2  0  0  0  0
  6 22  1  0  0  0  0
  7  3  1  6  0  0  0
  7 21  1  0  0  0  0
  8 26  2  0  0  0  0
  8 12  1  0  0  0  0
 10  5  1  0  0  0  0
 10  7  1  0  0  0  0
 11  6  1  0  0  0  0
 13  9  1  6  0  0  0
 13 17  1  0  0  0  0
 15 28  2  0  0  0  0
 15 20  1  0  0  0  0
 16 20  1  0  0  0  0
 16 11  2  0  0  0  0
 18 19  1  6  0  0  0
 18 25  1  0  0  0  0
 18  8  1  0  0  0  0
 20  3  2  0  0  0  0
 21 13  1  0  0  0  0
 21 27  1  0  0  0  0
 22  2  1  0  0  0  0
 23 10  2  0  0  0  0
 25 27  1  0  0  0  0
 27  1  1  0  0  0  0
 28 23  1  0  0  0  0
 29 30  1  0  0  0  0
 30 23  1  0  0  0  0
 30 31  2  0  0  0  0
 33 34  2  0  0  0  0
 34 31  1  0  0  0  0
 34 32  1  0  0  0  0
 35 29  2  0  0  0  0
 35 33  1  0  0  0  0
 36 37  1  0  0  0  0
M  END
>  <MODEL>
4

>  <REMARK>
 VINA RESULT:      -4.2      2.918      8.264
  Name = 
  2 active torsions:
  status: ('A' for Active; 'I' for Inactive)
    1  A    between atoms: C_4  and  C_37
    2  A    between atoms: C_23  and  C_30
                            x       y       z     vdW  Elec       q    Type
                         _______ _______ _______ _____ _____    ______ ____

>  <TORSDO>
F 2

$$$$
=
 OpenBabel11122413333D

 37 43  0  0  1  0  0  0  0  0999 V2000
  161.9180  210.4080  148.5930 O   0  0  0  0  0  0  0  0  0  0  0  0
  160.9400  206.2500  147.3070 C   0  0  0  0  0  0  0  0  0  0  0  0
  161.6160  206.6030  151.3430 C   0  0  0  0  0  0  0  0  0  0  0  0
  162.5180  211.6600  148.3990 C   0  0  2  0  0  3  0  0  0  0  0  0
  160.0840  209.7970  152.3660 O   0  0  0  0  0  0  0  0  0  0  0  0
  161.2190  205.0480  149.5490 C   0  0  0  0  0  0  0  0  0  0  0  0
  161.8210  208.0600  151.5420 C   0  0  2  0  0  3  0  0  0  0  0  0
  161.1600  212.6970  150.2290 C   0  0  0  0  0  0  0  0  0  0  0  0
  161.5470  206.3010  150.0160 C   0  0  0  0  0  0  0  0  0  0  0  0
  160.9080  208.6700  152.6120 C   0  0  0  0  0  0  0  0  0  0  0  0
  161.1200  204.0000  150.4770 C   0  0  0  0  0  3  0  0  0  0  0  0
  161.6640  212.6780  148.9170 O   0  0  0  0  0  0  0  0  0  0  0  0
  161.7460  207.4420  149.1330 C   0  0  1  0  0  3  0  0  0  0  0  0
  159.8320  206.2280  146.2750 C   0  0  0  0  0  1  0  0  0  0  0  0
  161.8610  205.8380  153.7000 C   0  0  0  0  0  3  0  0  0  0  0  0
  161.3360  204.2650  151.8480 C   0  0  0  0  0  3  0  0  0  0  0  0
  160.7560  207.4100  148.1240 O   0  0  0  0  0  0  0  0  0  0  0  0
  161.3290  211.5580  151.2030 C   0  0  1  0  0  3  0  0  0  0  0  0
  160.0840  210.6680  151.2350 C   0  0  0  0  0  2  0  0  0  0  0  0
  161.5720  205.5830  152.2910 C   0  0  0  0  0  0  0  0  0  0  0  0
  161.5830  208.6110  150.1070 C   0  0  2  0  0  3  0  0  0  0  0  0
  160.8610  204.9070  148.0970 C   0  0  0  0  0  2  0  0  0  0  0  0
  160.8980  208.1910  153.8850 C   0  0  0  0  0  0  0  0  0  0  0  0
  162.2600  206.3170  146.5450 C   0  0  0  0  0  1  0  0  0  0  0  0
  162.6060  210.7570  150.9500 C   0  0  0  0  0  2  0  0  0  0  0  0
  160.4980  213.7000  150.6010 O   0  0  0  0  0  0  0  0  0  0  0  0
  162.4780  209.7970  149.7390 C   0  0  2  0  0  3  0  0  0  0  0  0
  161.5950  206.9660  154.3590 C   0  0  0  0  0  3  0  0  0  0  0  0
  160.0490  208.3650  156.2340 C   0  0  0  0  0  3  0  0  0  0  0  0
  160.1870  208.9340  154.9570 C   0  0  0  0  0  0  0  0  0  0  0  0
  159.6880  210.2270  154.7310 C   0  0  0  0  0  3  0  0  0  0  0  0
  158.4170  212.5330  155.4530 Cl  0  0  0  0  0  0  0  0  0  0  0  0
  158.9020  210.3480  157.0170 C   0  0  0  0  0  3  0  0  0  0  0  0
  159.0430  210.9270  155.7550 C   0  0  0  0  0  0  0  0  0  0  0  0
  159.4070  209.0670  157.2580 C   0  0  0  0  0  3  0  0  0  0  0  0
  162.4790  213.3530  146.5760 C   0  0  0  0  0  1  0  0  0  0  0  0
  162.7470  211.9010  146.9180 C   0  0  0  0  0  2  0  0  0  0  0  0
  1 27  1  0  0  0  0
  2 22  1  0  0  0  0
  2 17  1  0  0  0  0
  3 20  1  0  0  0  0
  4 37  1  6  0  0  0
  4  1  1  0  0  0  0
  4 12  1  0  0  0  0
  5 10  1  0  0  0  0
  6  9  1  0  0  0  0
  6 11  2  0  0  0  0
  7  3  1  6  0  0  0
  7 10  1  0  0  0  0
  8 26  2  0  0  0  0
  8 18  1  0  0  0  0
  9  3  2  0  0  0  0
 10 23  2  0  0  0  0
 11 16  1  0  0  0  0
 12  8  1  0  0  0  0
 13 17  1  6  0  0  0
 13  9  1  0  0  0  0
 13 21  1  0  0  0  0
 14  2  1  0  0  0  0
 15 28  2  0  0  0  0
 16 20  2  0  0  0  0
 18 25  1  6  0  0  0
 18 19  1  0  0  0  0
 19  5  1  0  0  0  0
 20 15  1  0  0  0  0
 21  7  1  0  0  0  0
 22  6  1  0  0  0  0
 23 28  1  0  0  0  0
 23 30  1  0  0  0  0
 24  2  1  0  0  0  0
 27 21  1  0  0  0  0
 27 25  1  0  0  0  0
 29 35  1  0  0  0  0
 30 29  2  0  0  0  0
 31 30  1  0  0  0  0
 31 34  2  0  0  0  0
 32 34  1  0  0  0  0
 33 35  2  0  0  0  0
 34 33  1  0  0  0  0
 36 37  1  0  0  0  0
M  END
>  <MODEL>
5

>  <REMARK>
 VINA RESULT:      -4.1      2.280      4.074
  Name = 
  2 active torsions:
  status: ('A' for Active; 'I' for Inactive)
    1  A    between atoms: C_4  and  C_37
    2  A    between atoms: C_23  and  C_30
                            x       y       z     vdW  Elec       q    Type
                         _______ _______ _______ _____ _____    ______ ____

>  <TORSDO>
F 2

$$$$
=
 OpenBabel11122413333D

 37 43  0  0  1  0  0  0  0  0999 V2000
  160.6260  208.7920  154.6170 O   0  0  0  0  0  0  0  0  0  0  0  0
  158.4880  212.5670  153.5770 C   0  0  0  0  0  0  0  0  0  0  0  0
  161.0910  211.2990  150.6630 C   0  0  0  0  0  0  0  0  0  0  0  0
  161.2490  207.9270  155.5280 C   0  0  2  0  0  3  0  0  0  0  0  0
  160.7920  207.6250  150.5450 O   0  0  0  0  0  0  0  0  0  0  0  0
  159.6250  213.0820  151.3430 C   0  0  0  0  0  0  0  0  0  0  0  0
  161.5990  210.0030  151.1820 C   0  0  2  0  0  3  0  0  0  0  0  0
  161.1420  206.0100  153.9220 C   0  0  0  0  0  0  0  0  0  0  0  0
  160.3370  211.9330  151.6030 C   0  0  0  0  0  0  0  0  0  0  0  0
  161.4360  208.8390  150.1970 C   0  0  0  0  0  0  0  0  0  0  0  0
  159.8230  213.7180  150.1070 C   0  0  0  0  0  3  0  0  0  0  0  0
  160.9330  206.5780  155.1900 O   0  0  0  0  0  0  0  0  0  0  0  0
  160.2610  211.2350  152.8800 C   0  0  1  0  0  3  0  0  0  0  0  0
  157.0300  212.5160  153.9850 C   0  0  0  0  0  1  0  0  0  0  0  0
  162.3260  211.3780  148.5020 C   0  0  0  0  0  3  0  0  0  0  0  0
  160.7190  213.1530  149.1730 C   0  0  0  0  0  3  0  0  0  0  0  0
  158.9160  211.2270  153.3120 O   0  0  0  0  0  0  0  0  0  0  0  0
  161.5780  206.8030  152.7140 C   0  0  1  0  0  3  0  0  0  0  0  0
  160.3810  207.1750  151.8360 C   0  0  0  0  0  2  0  0  0  0  0  0
  161.3500  211.9210  149.4440 C   0  0  0  0  0  0  0  0  0  0  0  0
  160.7860  209.8490  152.4980 C   0  0  2  0  0  3  0  0  0  0  0  0
  158.5880  213.5130  152.3400 C   0  0  0  0  0  2  0  0  0  0  0  0
  161.9700  208.8930  148.9480 C   0  0  0  0  0  0  0  0  0  0  0  0
  159.2610  213.1700  154.7460 C   0  0  0  0  0  1  0  0  0  0  0  0
  162.4210  208.0210  153.0890 C   0  0  0  0  0  2  0  0  0  0  0  0
  160.9180  204.7810  153.7720 O   0  0  0  0  0  0  0  0  0  0  0  0
  161.5660  209.1930  153.6400 C   0  0  2  0  0  3  0  0  0  0  0  0
  162.6010  210.0860  148.3220 C   0  0  0  0  0  3  0  0  0  0  0  0
  163.0000  206.7090  148.2900 C   0  0  0  0  0  3  0  0  0  0  0  0
  162.0020  207.6780  148.0950 C   0  0  0  0  0  0  0  0  0  0  0  0
  161.0150  207.4520  147.1210 C   0  0  0  0  0  3  0  0  0  0  0  0
  159.8100  206.0330  145.1250 Cl  0  0  0  0  0  0  0  0  0  0  0  0
  162.0430  205.3400  146.5360 C   0  0  0  0  0  3  0  0  0  0  0  0
  161.0400  206.2920  146.3420 C   0  0  0  0  0  0  0  0  0  0  0  0
  163.0220  205.5470  147.5120 C   0  0  0  0  0  3  0  0  0  0  0  0
  160.1180  209.5910  156.9910 C   0  0  0  0  0  1  0  0  0  0  0  0
  160.7630  208.2200  156.9360 C   0  0  0  0  0  2  0  0  0  0  0  0
  1  4  1  0  0  0  0
  2 14  1  0  0  0  0
  2 24  1  0  0  0  0
  3  7  1  0  0  0  0
  3  9  1  0  0  0  0
  4 37  1  1  0  0  0
  5 19  1  0  0  0  0
  6  9  2  0  0  0  0
  6 22  1  0  0  0  0
  7 10  1  6  0  0  0
  7 21  1  0  0  0  0
  8 12  1  0  0  0  0
 10  5  1  0  0  0  0
 11  6  1  0  0  0  0
 12  4  1  0  0  0  0
 13  9  1  6  0  0  0
 13 17  1  0  0  0  0
 15 20  1  0  0  0  0
 16 20  1  0  0  0  0
 16 11  2  0  0  0  0
 17  2  1  0  0  0  0
 18 19  1  1  0  0  0
 18 25  1  0  0  0  0
 18  8  1  0  0  0  0
 20  3  2  0  0  0  0
 21 13  1  0  0  0  0
 21 27  1  0  0  0  0
 22  2  1  0  0  0  0
 23 10  2  0  0  0  0
 25 27  1  0  0  0  0
 26  8  2  0  0  0  0
 27  1  1  0  0  0  0
 28 15  2  0  0  0  0
 28 23  1  0  0  0  0
 30 29  1  0  0  0  0
 30 23  1  0  0  0  0
 31 30  2  0  0  0  0
 32 34  1  0  0  0  0
 33 35  1  0  0  0  0
 34 33  2  0  0  0  0
 34 31  1  0  0  0  0
 35 29  2  0  0  0  0
 37 36  1  0  0  0  0
M  END
>  <MODEL>
6

>  <REMARK>
 VINA RESULT:      -4.0      3.143      8.529
  Name = 
  2 active torsions:
  status: ('A' for Active; 'I' for Inactive)
    1  A    between atoms: C_4  and  C_37
    2  A    between atoms: C_23  and  C_30
                            x       y       z     vdW  Elec       q    Type
                         _______ _______ _______ _____ _____    ______ ____

>  <TORSDO>
F 2

$$$$
=
 OpenBabel11122413333D

 37 43  0  0  1  0  0  0  0  0999 V2000
  160.4420  210.7430  155.0530 O   0  0  0  0  0  0  0  0  0  0  0  0
  159.2110  213.4050  151.6910 C   0  0  0  0  0  0  0  0  0  0  0  0
  161.5070  210.2130  150.5010 C   0  0  0  0  0  0  0  0  0  0  0  0
  160.8450  210.5190  156.3770 C   0  0  2  0  0  3  0  0  0  0  0  0
  160.4000  207.3380  152.5280 O   0  0  0  0  0  0  0  0  0  0  0  0
  160.4650  212.2580  149.7770 C   0  0  0  0  0  0  0  0  0  0  0  0
  161.7070  209.4360  151.7500 C   0  0  2  0  0  3  0  0  0  0  0  0
  160.3370  208.0730  156.2140 C   0  0  0  0  0  0  0  0  0  0  0  0
  160.9000  211.4040  150.7650 C   0  0  0  0  0  0  0  0  0  0  0  0
  161.3020  207.9620  151.6300 C   0  0  0  0  0  0  0  0  0  0  0  0
  160.8160  211.9690  148.4490 C   0  0  0  0  0  3  0  0  0  0  0  0
  160.2410  209.3190  156.8570 O   0  0  0  0  0  0  0  0  0  0  0  0
  160.6540  211.6480  152.1800 C   0  0  1  0  0  3  0  0  0  0  0  0
  157.7730  213.8590  151.8340 C   0  0  0  0  0  1  0  0  0  0  0  0
  162.7580  208.7560  148.9160 C   0  0  0  0  0  3  0  0  0  0  0  0
  161.5760  210.8120  148.1700 C   0  0  0  0  0  3  0  0  0  0  0  0
  159.3340  212.1310  152.3320 O   0  0  0  0  0  0  0  0  0  0  0  0
  160.9540  207.8830  154.8510 C   0  0  1  0  0  3  0  0  0  0  0  0
  159.8820  207.8410  153.7590 C   0  0  0  0  0  2  0  0  0  0  0  0
  161.9150  209.9140  149.2030 C   0  0  0  0  0  0  0  0  0  0  0  0
  160.8620  210.2510  152.7690 C   0  0  2  0  0  3  0  0  0  0  0  0
  159.5360  213.3730  150.1650 C   0  0  0  0  0  2  0  0  0  0  0  0
  161.8530  207.1560  150.6820 C   0  0  0  0  0  0  0  0  0  0  0  0
  160.0820  214.4520  152.3770 C   0  0  0  0  0  1  0  0  0  0  0  0
  162.0420  208.9150  154.5540 C   0  0  0  0  0  2  0  0  0  0  0  0
  159.8470  207.0650  156.7870 O   0  0  0  0  0  0  0  0  0  0  0  0
  161.4610  210.3030  154.1760 C   0  0  2  0  0  3  0  0  0  0  0  0
  162.7410  207.5960  149.5750 C   0  0  0  0  0  3  0  0  0  0  0  0
  161.6510  205.0090  151.9550 C   0  0  0  0  0  3  0  0  0  0  0  0
  161.6250  205.6880  150.7260 C   0  0  0  0  0  0  0  0  0  0  0  0
  161.3340  204.9680  149.5550 C   0  0  0  0  0  3  0  0  0  0  0  0
  160.7460  202.7070  148.1430 Cl  0  0  0  0  0  0  0  0  0  0  0  0
  161.1340  202.9240  150.8370 C   0  0  0  0  0  3  0  0  0  0  0  0
  161.0950  203.5920  149.6110 C   0  0  0  0  0  0  0  0  0  0  0  0
  161.4090  203.6330  152.0100 C   0  0  0  0  0  3  0  0  0  0  0  0
  159.9040  212.8220  156.3940 C   0  0  0  0  0  1  0  0  0  0  0  0
  160.4170  211.6830  157.2530 C   0  0  0  0  0  2  0  0  0  0  0  0
  1  4  1  0  0  0  0
  2 14  1  0  0  0  0
  2 17  1  0  0  0  0
  2 24  1  0  0  0  0
  3  9  1  0  0  0  0
  4 12  1  0  0  0  0
  4 37  1  1  0  0  0
  5 19  1  0  0  0  0
  6 22  1  0  0  0  0
  6  9  2  0  0  0  0
  7  3  1  6  0  0  0
  7 21  1  0  0  0  0
  8 26  2  0  0  0  0
  8 12  1  0  0  0  0
 10  7  1  0  0  0  0
 10  5  1  0  0  0  0
 11  6  1  0  0  0  0
 13  9  1  6  0  0  0
 13 17  1  0  0  0  0
 13 21  1  0  0  0  0
 15 20  1  0  0  0  0
 15 28  2  0  0  0  0
 16 11  2  0  0  0  0
 16 20  1  0  0  0  0
 18 19  1  6  0  0  0
 18  8  1  0  0  0  0
 20  3  2  0  0  0  0
 21 27  1  0  0  0  0
 22  2  1  0  0  0  0
 23 30  1  0  0  0  0
 23 10  2  0  0  0  0
 25 18  1  0  0  0  0
 27 25  1  0  0  0  0
 27  1  1  0  0  0  0
 28 23  1  0  0  0  0
 29 35  1  0  0  0  0
 30 29  2  0  0  0  0
 31 34  2  0  0  0  0
 31 30  1  0  0  0  0
 32 34  1  0  0  0  0
 33 35  2  0  0  0  0
 34 33  1  0  0  0  0
 36 37  1  0  0  0  0
M  END
>  <MODEL>
7

>  <REMARK>
 VINA RESULT:      -3.9      3.205      7.972
  Name = 
  2 active torsions:
  status: ('A' for Active; 'I' for Inactive)
    1  A    between atoms: C_4  and  C_37
    2  A    between atoms: C_23  and  C_30
                            x       y       z     vdW  Elec       q    Type
                         _______ _______ _______ _____ _____    ______ ____

>  <TORSDO>
F 2

$$$$
