=
 OpenBabel11122412303D

 30 35  0  0  1  0  0  0  0  0999 V2000
  159.5540  211.9600  153.8620 C   0  0  1  0  0  3  0  0  0  0  0  0
  158.8580  213.8190  152.4370 C   0  0  0  0  0  0  0  0  0  0  0  0
  161.6220  210.2080  150.6500 N   0  0  0  0  0  0  0  0  0  0  0  0
  160.4410  210.7500  154.1150 C   0  0  1  0  0  3  0  0  0  0  0  0
  158.8230  212.4860  154.9800 N   0  0  0  0  0  2  0  0  0  0  0  0
  160.5760  211.1070  157.1580 C   0  0  0  0  0  1  0  0  0  0  0  0
  160.2180  207.4650  154.2800 C   0  0  1  0  0  3  0  0  0  0  0  0
  159.3730  210.5440  156.4140 C   0  0  1  0  0  3  0  0  0  0  0  0
  160.9860  207.6200  152.9630 C   0  0  2  0  0  3  0  0  0  0  0  0
  162.1690  209.0860  151.3280 C   0  0  0  0  0  0  0  0  0  0  0  0
  158.3800  211.6660  156.1090 C   0  0  2  0  0  3  0  0  0  0  0  0
  159.7650  209.8080  155.1230 C   0  0  2  0  0  3  0  0  0  0  0  0
  158.9090  214.4530  151.1920 C   0  0  0  0  0  3  0  0  0  0  0  0
  161.8990  206.5570  152.8590 O   0  0  0  0  0  0  0  0  0  0  0  0
  160.5530  206.0760  154.7360 C   0  0  0  0  0  2  0  0  0  0  0  0
  158.1350  214.4470  153.4440 O   0  0  0  0  0  1  0  0  0  0  0  0
  160.8120  210.8090  151.6500 C   0  0  0  0  0  0  0  0  0  0  0  0
  159.6140  213.8910  150.1340 C   0  0  0  0  0  3  0  0  0  0  0  0
  159.5400  212.5860  152.6470 C   0  0  0  0  0  0  0  0  0  0  0  0
  160.7670  210.0750  152.8640 N   0  0  0  0  0  0  0  0  0  0  0  0
  162.9970  208.3080  150.7860 O   0  0  0  0  0  0  0  0  0  0  0  0
  161.7010  208.9600  152.7470 C   0  0  1  0  0  3  0  0  0  0  0  0
  161.3170  205.4980  153.5700 C   0  0  0  0  0  2  0  0  0  0  0  0
  161.9670  208.6390  155.7620 C   0  0  0  0  0  1  0  0  0  0  0  0
  160.2640  212.6740  150.3030 C   0  0  0  0  0  3  0  0  0  0  0  0
  160.2230  212.0060  151.5340 C   0  0  0  0  0  0  0  0  0  0  0  0
  160.4910  208.4860  155.3940 C   0  0  2  0  0  3  0  0  0  0  0  0
  157.0030  211.0790  155.8240 C   0  0  0  0  0  2  0  0  0  0  0  0
  155.5830  213.0390  156.4320 C   0  0  0  0  0  1  0  0  0  0  0  0
  156.0470  212.1410  155.3000 C   0  0  0  0  0  2  0  0  0  0  0  0
  1 19  1  1  0  0  0
  1  4  1  0  0  0  0
  1  5  1  0  0  0  0
  2 19  1  0  0  0  0
  2 16  1  0  0  0  0
  3 10  1  0  0  0  0
  3 17  2  0  0  0  0
  4 20  1  6  0  0  0
  4 12  1  0  0  0  0
  5 11  1  0  0  0  0
  7 15  1  1  0  0  0
  7 27  1  0  0  0  0
  8  6  1  6  0  0  0
  9 14  1  1  0  0  0
  9  7  1  0  0  0  0
 10 22  1  0  0  0  0
 11 28  1  6  0  0  0
 11  8  1  0  0  0  0
 12 27  1  0  0  0  0
 12  8  1  0  0  0  0
 13  2  2  0  0  0  0
 14 23  1  0  0  0  0
 17 20  1  0  0  0  0
 18 25  2  0  0  0  0
 18 13  1  0  0  0  0
 21 10  2  0  0  0  0
 22 20  1  0  0  0  0
 22  9  1  0  0  0  0
 23 15  1  0  0  0  0
 25 26  1  0  0  0  0
 26 17  1  0  0  0  0
 26 19  2  0  0  0  0
 27 24  1  0  0  0  0
 30 28  1  0  0  0  0
 30 29  1  0  0  0  0
M  END
>  <MODEL>
1

>  <REMARK>
 VINA RESULT:      -4.6      0.000      0.000
  Name = 
  2 active torsions:
  status: ('A' for Active; 'I' for Inactive)
    1  A    between atoms: C_11  and  C_28
    2  A    between atoms: C_28  and  C_30
                            x       y       z     vdW  Elec       q    Type
                         _______ _______ _______ _____ _____    ______ ____

>  <TORSDO>
F 2

$$$$
=
 OpenBabel11122412303D

 30 35  0  0  1  0  0  0  0  0999 V2000
  161.5780  205.1440  149.3720 C   0  0  1  0  0  3  0  0  0  0  0  0
  161.1630  202.7570  149.0570 C   0  0  0  0  0  0  0  0  0  0  0  0
  161.0110  204.7440  153.5180 N   0  0  0  0  0  0  0  0  0  0  0  0
  161.8820  206.3220  150.2850 C   0  0  1  0  0  3  0  0  0  0  0  0
  161.7300  205.3490  147.9590 N   0  0  0  0  0  2  0  0  0  0  0  0
  163.5190  207.8900  148.2190 C   0  0  0  0  0  1  0  0  0  0  0  0
  160.4040  209.0100  151.4920 C   0  0  1  0  0  3  0  0  0  0  0  0
  161.9990  207.7970  148.2170 C   0  0  1  0  0  3  0  0  0  0  0  0
  160.4750  208.1470  152.7570 C   0  0  2  0  0  3  0  0  0  0  0  0
  161.2780  206.0840  153.9050 C   0  0  0  0  0  0  0  0  0  0  0  0
  161.5510  206.6490  147.3110 C   0  0  2  0  0  3  0  0  0  0  0  0
  161.4130  207.6290  149.6280 C   0  0  2  0  0  3  0  0  0  0  0  0
  160.9050  201.5050  149.6220 C   0  0  0  0  0  3  0  0  0  0  0  0
  160.7000  208.9960  153.8550 O   0  0  0  0  0  0  0  0  0  0  0  0
  160.2910  210.4120  152.0130 C   0  0  0  0  0  2  0  0  0  0  0  0
  161.3150  202.8140  147.6760 O   0  0  0  0  0  1  0  0  0  0  0  0
  161.0810  204.8120  152.1010 C   0  0  0  0  0  0  0  0  0  0  0  0
  160.7430  201.3630  150.9950 C   0  0  0  0  0  3  0  0  0  0  0  0
  161.2780  203.9120  149.8820 C   0  0  0  0  0  0  0  0  0  0  0  0
  161.2880  206.1250  151.6030 N   0  0  0  0  0  0  0  0  0  0  0  0
  161.3580  206.4350  155.1120 O   0  0  0  0  0  0  0  0  0  0  0  0
  161.5010  207.0080  152.7450 C   0  0  1  0  0  3  0  0  0  0  0  0
  160.1200  210.2230  153.5000 C   0  0  0  0  0  2  0  0  0  0  0  0
  162.9440  209.1060  151.0760 C   0  0  0  0  0  1  0  0  0  0  0  0
  160.8210  202.4780  151.8220 C   0  0  0  0  0  3  0  0  0  0  0  0
  161.0660  203.7490  151.2860 C   0  0  0  0  0  0  0  0  0  0  0  0
  161.5520  208.8950  150.4790 C   0  0  2  0  0  3  0  0  0  0  0  0
  160.0920  206.8400  146.9120 C   0  0  0  0  0  2  0  0  0  0  0  0
  161.0520  205.8040  144.8560 C   0  0  0  0  0  1  0  0  0  0  0  0
  159.7750  206.1140  145.6130 C   0  0  0  0  0  2  0  0  0  0  0  0
  1  5  1  6  0  0  0
  1 19  1  0  0  0  0
  1  4  1  0  0  0  0
  2 13  2  0  0  0  0
  2 19  1  0  0  0  0
  3 10  1  0  0  0  0
  4 20  1  1  0  0  0
  7 15  1  1  0  0  0
  7  9  1  0  0  0  0
  8  6  1  1  0  0  0
  8 12  1  0  0  0  0
  9 14  1  1  0  0  0
 10 21  2  0  0  0  0
 11 28  1  1  0  0  0
 11  5  1  0  0  0  0
 11  8  1  0  0  0  0
 12  4  1  0  0  0  0
 12 27  1  0  0  0  0
 13 18  1  0  0  0  0
 15 23  1  0  0  0  0
 16  2  1  0  0  0  0
 17  3  2  0  0  0  0
 18 25  2  0  0  0  0
 19 26  2  0  0  0  0
 20 17  1  0  0  0  0
 20 22  1  0  0  0  0
 22  9  1  0  0  0  0
 22 10  1  0  0  0  0
 23 14  1  0  0  0  0
 26 25  1  0  0  0  0
 26 17  1  0  0  0  0
 27 24  1  0  0  0  0
 27  7  1  0  0  0  0
 29 30  1  0  0  0  0
 30 28  1  0  0  0  0
M  END
>  <MODEL>
2

>  <REMARK>
 VINA RESULT:      -4.3      3.968      8.527
  Name = 
  2 active torsions:
  status: ('A' for Active; 'I' for Inactive)
    1  A    between atoms: C_11  and  C_28
    2  A    between atoms: C_28  and  C_30
                            x       y       z     vdW  Elec       q    Type
                         _______ _______ _______ _____ _____    ______ ____

>  <TORSDO>
F 2

$$$$
=
 OpenBabel11122412303D

 30 35  0  0  1  0  0  0  0  0999 V2000
  161.1010  210.7470  151.5150 C   0  0  1  0  0  3  0  0  0  0  0  0
  160.8930  212.8400  150.2720 C   0  0  0  0  0  0  0  0  0  0  0  0
  162.3670  208.7530  148.0380 N   0  0  0  0  0  0  0  0  0  0  0  0
  161.6100  209.3170  151.6170 C   0  0  1  0  0  3  0  0  0  0  0  0
  160.6250  211.3640  152.7200 N   0  0  0  0  0  2  0  0  0  0  0  0
  162.0290  209.3610  154.6540 C   0  0  0  0  0  1  0  0  0  0  0  0
  160.4470  206.2320  151.5920 C   0  0  1  0  0  3  0  0  0  0  0  0
  160.6700  209.2320  153.9780 C   0  0  1  0  0  3  0  0  0  0  0  0
  161.1440  206.2710  150.2280 C   0  0  2  0  0  3  0  0  0  0  0  0
  162.6020  207.4680  148.5960 C   0  0  0  0  0  0  0  0  0  0  0  0
  160.0320  210.6130  153.8280 C   0  0  2  0  0  3  0  0  0  0  0  0
  160.7510  208.5260  152.6150 C   0  0  2  0  0  3  0  0  0  0  0  0
  161.0510  213.5360  149.0700 C   0  0  0  0  0  3  0  0  0  0  0  0
  161.6990  205.0030  149.9820 O   0  0  0  0  0  0  0  0  0  0  0  0
  160.3880  204.7720  151.9300 C   0  0  0  0  0  2  0  0  0  0  0  0
  160.4480  213.5630  151.3730 O   0  0  0  0  0  1  0  0  0  0  0  0
  161.8310  209.4740  149.1380 C   0  0  0  0  0  0  0  0  0  0  0  0
  161.4950  212.8870  147.9240 C   0  0  0  0  0  3  0  0  0  0  0  0
  161.1970  211.4510  150.3470 C   0  0  0  0  0  0  0  0  0  0  0  0
  161.6470  208.6840  150.3030 N   0  0  0  0  0  0  0  0  0  0  0  0
  163.1320  206.5340  147.9400 O   0  0  0  0  0  0  0  0  0  0  0  0
  162.2050  207.3620  150.0390 C   0  0  1  0  0  3  0  0  0  0  0  0
  160.8770  204.0990  150.6710 C   0  0  0  0  0  2  0  0  0  0  0  0
  162.5490  206.7250  152.9950 C   0  0  0  0  0  1  0  0  0  0  0  0
  161.7700  211.5250  147.9610 C   0  0  0  0  0  3  0  0  0  0  0  0
  161.6110  210.7950  149.1460 C   0  0  0  0  0  0  0  0  0  0  0  0
  161.0730  207.0330  152.7420 C   0  0  2  0  0  3  0  0  0  0  0  0
  158.5280  210.4730  153.6210 C   0  0  0  0  0  2  0  0  0  0  0  0
  156.6050  211.5570  154.7840 C   0  0  0  0  0  1  0  0  0  0  0  0
  157.8090  211.7860  153.8890 C   0  0  0  0  0  2  0  0  0  0  0  0
  1 19  1  1  0  0  0
  1  4  1  0  0  0  0
  1  5  1  0  0  0  0
  2 19  1  0  0  0  0
  2 16  1  0  0  0  0
  3 10  1  0  0  0  0
  3 17  2  0  0  0  0
  4 20  1  6  0  0  0
  4 12  1  0  0  0  0
  5 11  1  0  0  0  0
  7 15  1  1  0  0  0
  7 27  1  0  0  0  0
  8  6  1  6  0  0  0
  9 14  1  1  0  0  0
  9  7  1  0  0  0  0
 10 22  1  0  0  0  0
 11 28  1  6  0  0  0
 11  8  1  0  0  0  0
 12 27  1  0  0  0  0
 12  8  1  0  0  0  0
 13  2  2  0  0  0  0
 14 23  1  0  0  0  0
 17 26  1  0  0  0  0
 17 20  1  0  0  0  0
 18 25  2  0  0  0  0
 18 13  1  0  0  0  0
 21 10  2  0  0  0  0
 22  9  1  0  0  0  0
 22 20  1  0  0  0  0
 23 15  1  0  0  0  0
 25 26  1  0  0  0  0
 26 19  2  0  0  0  0
 27 24  1  0  0  0  0
 28 30  1  0  0  0  0
 30 29  1  0  0  0  0
M  END
>  <MODEL>
3

>  <REMARK>
 VINA RESULT:      -3.7      2.157      3.071
  Name = 
  2 active torsions:
  status: ('A' for Active; 'I' for Inactive)
    1  A    between atoms: C_11  and  C_28
    2  A    between atoms: C_28  and  C_30
                            x       y       z     vdW  Elec       q    Type
                         _______ _______ _______ _____ _____    ______ ____

>  <TORSDO>
F 2

$$$$
=
 OpenBabel11122412303D

 30 35  0  0  1  0  0  0  0  0999 V2000
  159.3880  210.1670  138.5760 C   0  0  1  0  0  3  0  0  0  0  0  0
  160.4270  208.0720  137.8660 C   0  0  0  0  0  0  0  0  0  0  0  0
  162.6490  210.9860  141.0980 N   0  0  0  0  0  0  0  0  0  0  0  0
  159.4830  211.5230  139.2590 C   0  0  1  0  0  3  0  0  0  0  0  0
  158.2260  209.9130  137.7730 N   0  0  0  0  0  2  0  0  0  0  0  0
  157.4220  212.9100  137.4600 C   0  0  0  0  0  1  0  0  0  0  0  0
  158.4460  213.0320  142.0000 C   0  0  1  0  0  3  0  0  0  0  0  0
  157.0680  211.9460  138.5850 C   0  0  1  0  0  3  0  0  0  0  0  0
  159.9380  212.8860  142.3180 C   0  0  2  0  0  3  0  0  0  0  0  0
  162.2370  212.2550  141.5840 C   0  0  0  0  0  0  0  0  0  0  0  0
  156.9230  210.5300  138.0270 C   0  0  2  0  0  3  0  0  0  0  0  0
  158.0910  211.9700  139.7310 C   0  0  2  0  0  3  0  0  0  0  0  0
  161.5210  207.2040  137.9190 C   0  0  0  0  0  3  0  0  0  0  0  0
  160.3460  214.0190  143.0420 O   0  0  0  0  0  0  0  0  0  0  0  0
  157.9970  214.1690  142.8700 C   0  0  0  0  0  2  0  0  0  0  0  0
  159.3750  207.7230  137.0270 O   0  0  0  0  0  1  0  0  0  0  0  0
  161.5410  210.5820  140.3060 C   0  0  0  0  0  0  0  0  0  0  0  0
  162.6140  207.4840  138.7310 C   0  0  0  0  0  3  0  0  0  0  0  0
  160.4170  209.2690  138.6380 C   0  0  0  0  0  0  0  0  0  0  0  0
  160.4490  211.4880  140.3510 N   0  0  0  0  0  0  0  0  0  0  0  0
  162.9790  212.9780  142.2990 O   0  0  0  0  0  0  0  0  0  0  0  0
  160.8680  212.6550  141.1200 C   0  0  1  0  0  3  0  0  0  0  0  0
  159.2030  214.4480  143.7330 C   0  0  0  0  0  2  0  0  0  0  0  0
  158.7510  214.4530  139.8740 C   0  0  0  0  0  1  0  0  0  0  0  0
  162.6190  208.6300  139.5170 C   0  0  0  0  0  3  0  0  0  0  0  0
  161.5330  209.5150  139.4970 C   0  0  0  0  0  0  0  0  0  0  0  0
  158.0430  213.2720  140.5380 C   0  0  2  0  0  3  0  0  0  0  0  0
  156.1150  209.6700  138.9920 C   0  0  0  0  0  2  0  0  0  0  0  0
  153.7260  209.2590  139.5860 C   0  0  0  0  0  1  0  0  0  0  0  0
  154.7800  210.3190  139.3260 C   0  0  0  0  0  2  0  0  0  0  0  0
  1  5  1  6  0  0  0
  1 19  1  0  0  0  0
  1  4  1  0  0  0  0
  2 13  2  0  0  0  0
  2 19  1  0  0  0  0
  3 10  1  0  0  0  0
  4 12  1  0  0  0  0
  4 20  1  1  0  0  0
  5 11  1  0  0  0  0
  7  9  1  0  0  0  0
  7 15  1  1  0  0  0
  8  6  1  6  0  0  0
  8 12  1  0  0  0  0
  9 14  1  6  0  0  0
 10 21  2  0  0  0  0
 11  8  1  0  0  0  0
 11 28  1  1  0  0  0
 12 27  1  0  0  0  0
 13 18  1  0  0  0  0
 14 23  1  0  0  0  0
 15 23  1  0  0  0  0
 16  2  1  0  0  0  0
 17 20  1  0  0  0  0
 17  3  2  0  0  0  0
 18 25  2  0  0  0  0
 19 26  2  0  0  0  0
 20 22  1  0  0  0  0
 22 10  1  0  0  0  0
 22  9  1  0  0  0  0
 24 27  1  0  0  0  0
 26 25  1  0  0  0  0
 26 17  1  0  0  0  0
 27  7  1  0  0  0  0
 28 30  1  0  0  0  0
 30 29  1  0  0  0  0
M  END
>  <MODEL>
4

>  <REMARK>
 VINA RESULT:      -3.2     11.404     14.766
  Name = 
  2 active torsions:
  status: ('A' for Active; 'I' for Inactive)
    1  A    between atoms: C_11  and  C_28
    2  A    between atoms: C_28  and  C_30
                            x       y       z     vdW  Elec       q    Type
                         _______ _______ _______ _____ _____    ______ ____

>  <TORSDO>
F 2

$$$$
=
 OpenBabel11122412303D

 30 35  0  0  1  0  0  0  0  0999 V2000
  161.5530  210.4100  149.8040 C   0  0  1  0  0  3  0  0  0  0  0  0
  162.3840  208.1240  149.5690 C   0  0  0  0  0  0  0  0  0  0  0  0
  160.2020  209.5690  153.6950 N   0  0  0  0  0  0  0  0  0  0  0  0
  161.0340  211.5430  150.6770 C   0  0  1  0  0  3  0  0  0  0  0  0
  161.9470  210.7370  148.4630 N   0  0  0  0  0  2  0  0  0  0  0  0
  162.2250  213.8000  148.9770 C   0  0  0  0  0  1  0  0  0  0  0  0
  158.2290  213.1660  151.2780 C   0  0  1  0  0  3  0  0  0  0  0  0
  160.9770  213.0120  148.6020 C   0  0  1  0  0  3  0  0  0  0  0  0
  158.3660  212.3680  152.5800 C   0  0  2  0  0  3  0  0  0  0  0  0
  159.7100  210.8560  154.0390 C   0  0  0  0  0  0  0  0  0  0  0  0
  161.3580  211.8380  147.6990 C   0  0  2  0  0  3  0  0  0  0  0  0
  160.1990  212.5150  149.8300 C   0  0  2  0  0  3  0  0  0  0  0  0
  162.6000  206.8670  150.1410 C   0  0  0  0  0  3  0  0  0  0  0  0
  157.8860  213.1630  153.6350 O   0  0  0  0  0  0  0  0  0  0  0  0
  157.3530  214.3250  151.6520 C   0  0  0  0  0  2  0  0  0  0  0  0
  162.8380  208.3200  148.2700 O   0  0  0  0  0  1  0  0  0  0  0  0
  160.5900  209.7380  152.3390 C   0  0  0  0  0  0  0  0  0  0  0  0
  162.1780  206.5920  151.4370 C   0  0  0  0  0  3  0  0  0  0  0  0
  161.7380  209.1530  150.3110 C   0  0  0  0  0  0  0  0  0  0  0  0
  160.2860  211.0210  151.8150 N   0  0  0  0  0  0  0  0  0  0  0  0
  159.3090  211.1380  155.1980 O   0  0  0  0  0  0  0  0  0  0  0  0
  159.7680  211.8390  152.9070 C   0  0  1  0  0  3  0  0  0  0  0  0
  156.9170  213.9970  153.0590 C   0  0  0  0  0  2  0  0  0  0  0  0
  160.4480  214.4530  151.5040 C   0  0  0  0  0  1  0  0  0  0  0  0
  161.5190  207.5690  152.1730 C   0  0  0  0  0  3  0  0  0  0  0  0
  161.2760  208.8360  151.6260 C   0  0  0  0  0  0  0  0  0  0  0  0
  159.5150  213.6530  150.5950 C   0  0  2  0  0  3  0  0  0  0  0  0
  160.1320  211.3500  146.9350 C   0  0  0  0  0  2  0  0  0  0  0  0
  158.0070  212.5710  146.4650 C   0  0  0  0  0  1  0  0  0  0  0  0
  159.4880  212.4790  146.1450 C   0  0  0  0  0  2  0  0  0  0  0  0
  1  5  1  1  0  0  0
  1 19  1  0  0  0  0
  1  4  1  0  0  0  0
  2 13  2  0  0  0  0
  2 19  1  0  0  0  0
  3 10  1  0  0  0  0
  4 20  1  1  0  0  0
  7 15  1  1  0  0  0
  7  9  1  0  0  0  0
  8  6  1  1  0  0  0
  8 12  1  0  0  0  0
  9 22  1  0  0  0  0
  9 14  1  1  0  0  0
 10 21  2  0  0  0  0
 11 28  1  1  0  0  0
 11  5  1  0  0  0  0
 11  8  1  0  0  0  0
 12 27  1  0  0  0  0
 12  4  1  0  0  0  0
 13 18  1  0  0  0  0
 15 23  1  0  0  0  0
 16  2  1  0  0  0  0
 17  3  2  0  0  0  0
 18 25  2  0  0  0  0
 19 26  2  0  0  0  0
 20 17  1  0  0  0  0
 20 22  1  0  0  0  0
 22 10  1  0  0  0  0
 23 14  1  0  0  0  0
 26 25  1  0  0  0  0
 26 17  1  0  0  0  0
 27  7  1  0  0  0  0
 27 24  1  0  0  0  0
 30 29  1  0  0  0  0
 30 28  1  0  0  0  0
M  END
>  <MODEL>
5

>  <REMARK>
 VINA RESULT:      -3.2      2.348      7.037
  Name = 
  2 active torsions:
  status: ('A' for Active; 'I' for Inactive)
    1  A    between atoms: C_11  and  C_28
    2  A    between atoms: C_28  and  C_30
                            x       y       z     vdW  Elec       q    Type
                         _______ _______ _______ _____ _____    ______ ____

>  <TORSDO>
F 2

$$$$
=
 OpenBabel11122412303D

 30 35  0  0  1  0  0  0  0  0999 V2000
  160.7340  208.7300  153.2840 C   0  0  1  0  0  3  0  0  0  0  0  0
  162.0380  207.8820  151.4000 C   0  0  0  0  0  0  0  0  0  0  0  0
  160.1630  212.3930  151.3030 N   0  0  0  0  0  0  0  0  0  0  0  0
  159.7800  209.7570  153.8730 C   0  0  1  0  0  3  0  0  0  0  0  0
  160.9410  207.5190  154.0280 N   0  0  0  0  0  2  0  0  0  0  0  0
  158.3780  207.8070  155.7810 C   0  0  0  0  0  1  0  0  0  0  0  0
  159.7890  212.2360  156.0470 C   0  0  1  0  0  3  0  0  0  0  0  0
  159.7620  208.3960  156.0210 C   0  0  1  0  0  3  0  0  0  0  0  0
  159.6600  213.0220  154.7380 C   0  0  2  0  0  3  0  0  0  0  0  0
  159.3390  213.0350  152.2640 C   0  0  0  0  0  0  0  0  0  0  0  0
  160.8310  207.4430  155.4850 C   0  0  2  0  0  3  0  0  0  0  0  0
  159.9280  209.7930  155.4020 C   0  0  2  0  0  3  0  0  0  0  0  0
  162.5450  208.0810  150.1120 C   0  0  0  0  0  3  0  0  0  0  0  0
  158.8380  214.1380  154.9750 O   0  0  0  0  0  0  0  0  0  0  0  0
  159.2410  213.1670  157.0870 C   0  0  0  0  0  2  0  0  0  0  0  0
  162.2880  206.6530  152.0000 O   0  0  0  0  0  1  0  0  0  0  0  0
  160.4930  211.1700  151.9450 C   0  0  0  0  0  0  0  0  0  0  0  0
  162.3360  209.2810  149.4420 C   0  0  0  0  0  3  0  0  0  0  0  0
  161.2870  208.9040  152.0450 C   0  0  0  0  0  0  0  0  0  0  0  0
  159.9910  211.0680  153.2690 N   0  0  0  0  0  0  0  0  0  0  0  0
  158.7910  214.1470  152.0480 O   0  0  0  0  0  0  0  0  0  0  0  0
  159.1550  212.2370  153.5210 C   0  0  1  0  0  3  0  0  0  0  0  0
  159.0240  214.4530  156.3290 C   0  0  0  0  0  2  0  0  0  0  0  0
  157.6220  210.8730  155.7690 C   0  0  0  0  0  1  0  0  0  0  0  0
  161.6310  210.3070  150.0600 C   0  0  0  0  0  3  0  0  0  0  0  0
  161.1200  210.1450  151.3550 C   0  0  0  0  0  0  0  0  0  0  0  0
  159.1070  210.8630  156.1300 C   0  0  2  0  0  3  0  0  0  0  0  0
  162.1770  207.7550  156.1310 C   0  0  0  0  0  2  0  0  0  0  0  0
  163.0160  209.9000  157.0900 C   0  0  0  0  0  1  0  0  0  0  0  0
  162.0270  208.7620  157.2610 C   0  0  0  0  0  2  0  0  0  0  0  0
  1 19  1  6  0  0  0
  1  4  1  0  0  0  0
  1  5  1  0  0  0  0
  2 16  1  0  0  0  0
  2 19  1  0  0  0  0
  3 17  2  0  0  0  0
  3 10  1  0  0  0  0
  4 20  1  6  0  0  0
  4 12  1  0  0  0  0
  5 11  1  0  0  0  0
  7 27  1  0  0  0  0
  7 15  1  1  0  0  0
  8  6  1  6  0  0  0
  9 14  1  1  0  0  0
  9  7  1  0  0  0  0
 10 22  1  0  0  0  0
 11  8  1  0  0  0  0
 11 28  1  1  0  0  0
 12  8  1  0  0  0  0
 12 27  1  0  0  0  0
 13  2  2  0  0  0  0
 14 23  1  0  0  0  0
 17 20  1  0  0  0  0
 18 25  2  0  0  0  0
 18 13  1  0  0  0  0
 20 22  1  0  0  0  0
 21 10  2  0  0  0  0
 22  9  1  0  0  0  0
 23 15  1  0  0  0  0
 24 27  1  0  0  0  0
 25 26  1  0  0  0  0
 26 17  1  0  0  0  0
 26 19  2  0  0  0  0
 28 30  1  0  0  0  0
 29 30  1  0  0  0  0
M  END
>  <MODEL>
6

>  <REMARK>
 VINA RESULT:      -2.9      1.606      5.488
  Name = 
  2 active torsions:
  status: ('A' for Active; 'I' for Inactive)
    1  A    between atoms: C_11  and  C_28
    2  A    between atoms: C_28  and  C_30
                            x       y       z     vdW  Elec       q    Type
                         _______ _______ _______ _____ _____    ______ ____

>  <TORSDO>
F 2

$$$$
=
 OpenBabel11122412303D

 30 35  0  0  1  0  0  0  0  0999 V2000
  161.2030  210.7690  151.0200 C   0  0  1  0  0  3  0  0  0  0  0  0
  161.5730  209.2340  152.8850 C   0  0  0  0  0  0  0  0  0  0  0  0
  157.9900  212.5520  153.0620 N   0  0  0  0  0  0  0  0  0  0  0  0
  160.5610  212.0250  150.4510 C   0  0  1  0  0  3  0  0  0  0  0  0
  162.2560  210.1630  150.2560 N   0  0  0  0  0  2  0  0  0  0  0  0
  162.8480  212.6840  148.5180 C   0  0  0  0  0  1  0  0  0  0  0  0
  158.2020  212.8930  148.3170 C   0  0  1  0  0  3  0  0  0  0  0  0
  161.8140  211.5910  148.2810 C   0  0  1  0  0  3  0  0  0  0  0  0
  157.5260  213.2740  149.6390 C   0  0  2  0  0  3  0  0  0  0  0  0
  157.6590  213.5570  152.1140 C   0  0  0  0  0  0  0  0  0  0  0  0
  162.3460  210.2540  148.7970 C   0  0  2  0  0  3  0  0  0  0  0  0
  160.4550  211.9120  148.9220 C   0  0  2  0  0  3  0  0  0  0  0  0
  161.2290  208.8160  154.1730 C   0  0  0  0  0  3  0  0  0  0  0  0
  156.7610  214.4320  149.4230 O   0  0  0  0  0  0  0  0  0  0  0  0
  157.5040  213.7380  147.2940 C   0  0  0  0  0  2  0  0  0  0  0  0
  162.6310  208.5810  152.2640 O   0  0  0  0  0  1  0  0  0  0  0  0
  159.0150  211.8260  152.3980 C   0  0  0  0  0  0  0  0  0  0  0  0
  160.1840  209.4200  154.8630 C   0  0  0  0  0  3  0  0  0  0  0  0
  160.8650  210.2990  152.2590 C   0  0  0  0  0  0  0  0  0  0  0  0
  159.2660  212.2740  151.0750 N   0  0  0  0  0  0  0  0  0  0  0  0
  156.8080  214.4530  152.3500 O   0  0  0  0  0  0  0  0  0  0  0  0
  158.4550  213.4650  150.8450 C   0  0  1  0  0  3  0  0  0  0  0  0
  156.3820  214.3800  148.0740 C   0  0  0  0  0  2  0  0  0  0  0  0
  160.2330  214.4530  148.5820 C   0  0  0  0  0  1  0  0  0  0  0  0
  159.4570  210.4420  154.2650 C   0  0  0  0  0  3  0  0  0  0  0  0
  159.7680  210.8770  152.9700 C   0  0  0  0  0  0  0  0  0  0  0  0
  159.7250  213.0590  148.2150 C   0  0  2  0  0  3  0  0  0  0  0  0
  161.5790  209.1050  148.1520 C   0  0  0  0  0  2  0  0  0  0  0  0
  161.8480  206.6310  148.3340 C   0  0  0  0  0  1  0  0  0  0  0  0
  161.4980  207.9040  149.0820 C   0  0  0  0  0  2  0  0  0  0  0  0
  1  5  1  1  0  0  0
  1 19  1  0  0  0  0
  2 13  1  0  0  0  0
  4  1  1  0  0  0  0
  4 20  1  1  0  0  0
  7 15  1  6  0  0  0
  7  9  1  0  0  0  0
  8  6  1  1  0  0  0
  8 11  1  0  0  0  0
  8 12  1  0  0  0  0
  9 14  1  6  0  0  0
  9 22  1  0  0  0  0
 10 21  2  0  0  0  0
 10  3  1  0  0  0  0
 11 28  1  6  0  0  0
 11  5  1  0  0  0  0
 12  4  1  0  0  0  0
 13 18  2  0  0  0  0
 15 23  1  0  0  0  0
 16  2  1  0  0  0  0
 17 26  1  0  0  0  0
 17  3  2  0  0  0  0
 19  2  2  0  0  0  0
 19 26  1  0  0  0  0
 20 17  1  0  0  0  0
 22 20  1  0  0  0  0
 22 10  1  0  0  0  0
 23 14  1  0  0  0  0
 25 18  1  0  0  0  0
 26 25  2  0  0  0  0
 27  7  1  0  0  0  0
 27 24  1  0  0  0  0
 27 12  1  0  0  0  0
 28 30  1  0  0  0  0
 29 30  1  0  0  0  0
M  END
>  <MODEL>
7

>  <REMARK>
 VINA RESULT:      -2.7      2.280      7.515
  Name = 
  2 active torsions:
  status: ('A' for Active; 'I' for Inactive)
    1  A    between atoms: C_11  and  C_28
    2  A    between atoms: C_28  and  C_30
                            x       y       z     vdW  Elec       q    Type
                         _______ _______ _______ _____ _____    ______ ____

>  <TORSDO>
F 2

$$$$
=
 OpenBabel11122412303D

 30 35  0  0  1  0  0  0  0  0999 V2000
  161.9610  208.0910  149.6510 C   0  0  1  0  0  3  0  0  0  0  0  0
  161.8170  206.2090  148.0980 C   0  0  0  0  0  0  0  0  0  0  0  0
  160.7520  205.6220  152.8300 N   0  0  0  0  0  0  0  0  0  0  0  0
  162.0040  208.6290  151.0730 C   0  0  1  0  0  3  0  0  0  0  0  0
  162.3270  208.9910  148.5940 N   0  0  0  0  0  2  0  0  0  0  0  0
  163.8160  211.0200  150.4350 C   0  0  0  0  0  1  0  0  0  0  0  0
  160.1140  210.3280  153.1720 C   0  0  1  0  0  3  0  0  0  0  0  0
  162.3310  210.9560  150.1010 C   0  0  1  0  0  3  0  0  0  0  0  0
  160.0500  208.9370  153.8130 C   0  0  2  0  0  3  0  0  0  0  0  0
  160.8310  206.5700  153.8860 C   0  0  0  0  0  0  0  0  0  0  0  0
  162.1430  210.4410  148.6740 C   0  0  2  0  0  3  0  0  0  0  0  0
  161.5360  210.0920  151.0930 C   0  0  2  0  0  3  0  0  0  0  0  0
  161.5800  204.8470  147.8910 C   0  0  0  0  0  3  0  0  0  0  0  0
  160.0140  209.0990  155.2090 O   0  0  0  0  0  0  0  0  0  0  0  0
  159.7930  211.2640  154.2990 C   0  0  0  0  0  2  0  0  0  0  0  0
  162.1910  206.9670  146.9940 O   0  0  0  0  0  1  0  0  0  0  0  0
  161.0490  206.4080  151.6850 C   0  0  0  0  0  0  0  0  0  0  0  0
  161.2060  204.0210  148.9450 C   0  0  0  0  0  3  0  0  0  0  0  0
  161.6910  206.7740  149.3990 C   0  0  0  0  0  0  0  0  0  0  0  0
  161.2190  207.7880  151.9700 N   0  0  0  0  0  0  0  0  0  0  0  0
  160.6780  206.2500  155.0930 O   0  0  0  0  0  0  0  0  0  0  0  0
  161.1610  207.9560  153.4180 C   0  0  1  0  0  3  0  0  0  0  0  0
  159.3950  210.3390  155.4230 C   0  0  0  0  0  2  0  0  0  0  0  0
  162.6690  210.6000  153.3470 C   0  0  0  0  0  1  0  0  0  0  0  0
  161.0470  204.5520  150.2200 C   0  0  0  0  0  3  0  0  0  0  0  0
  161.2640  205.9150  150.4590 C   0  0  0  0  0  0  0  0  0  0  0  0
  161.4200  210.7390  152.4770 C   0  0  2  0  0  3  0  0  0  0  0  0
  160.7590  210.8240  148.1600 C   0  0  0  0  0  2  0  0  0  0  0  0
  162.1840  212.5970  147.1340 C   0  0  0  0  0  1  0  0  0  0  0  0
  160.7700  212.2030  147.5200 C   0  0  0  0  0  2  0  0  0  0  0  0
  1  5  1  1  0  0  0
  1  4  1  0  0  0  0
  2 19  1  0  0  0  0
  3 10  1  0  0  0  0
  4 12  1  0  0  0  0
  4 20  1  1  0  0  0
  5 11  1  0  0  0  0
  7  9  1  0  0  0  0
  7 15  1  1  0  0  0
  8  6  1  1  0  0  0
  8 12  1  0  0  0  0
  9 14  1  1  0  0  0
 10 21  2  0  0  0  0
 11 28  1  1  0  0  0
 11  8  1  0  0  0  0
 12 27  1  0  0  0  0
 13  2  2  0  0  0  0
 13 18  1  0  0  0  0
 14 23  1  0  0  0  0
 15 23  1  0  0  0  0
 16  2  1  0  0  0  0
 17 20  1  0  0  0  0
 17  3  2  0  0  0  0
 18 25  2  0  0  0  0
 19  1  1  0  0  0  0
 19 26  2  0  0  0  0
 20 22  1  0  0  0  0
 22  9  1  0  0  0  0
 22 10  1  0  0  0  0
 25 26  1  0  0  0  0
 26 17  1  0  0  0  0
 27  7  1  0  0  0  0
 27 24  1  0  0  0  0
 29 30  1  0  0  0  0
 30 28  1  0  0  0  0
M  END
>  <MODEL>
8

>  <REMARK>
 VINA RESULT:      -2.5      2.860      6.770
  Name = 
  2 active torsions:
  status: ('A' for Active; 'I' for Inactive)
    1  A    between atoms: C_11  and  C_28
    2  A    between atoms: C_28  and  C_30
                            x       y       z     vdW  Elec       q    Type
                         _______ _______ _______ _____ _____    ______ ____

>  <TORSDO>
F 2

$$$$
=
 OpenBabel11122412303D

 30 35  0  0  1  0  0  0  0  0999 V2000
  161.8270  208.0960  151.4830 C   0  0  1  0  0  3  0  0  0  0  0  0
  161.8130  210.4570  150.8520 C   0  0  0  0  0  0  0  0  0  0  0  0
  161.8560  206.9660  147.4340 N   0  0  0  0  0  0  0  0  0  0  0  0
  162.0250  206.6330  151.1160 C   0  0  1  0  0  3  0  0  0  0  0  0
  161.7650  208.4230  152.8790 N   0  0  0  0  0  2  0  0  0  0  0  0
  163.0860  205.7760  153.8630 C   0  0  0  0  0  1  0  0  0  0  0  0
  160.2470  203.8890  150.6920 C   0  0  1  0  0  3  0  0  0  0  0  0
  161.6190  206.0460  153.5570 C   0  0  1  0  0  3  0  0  0  0  0  0
  160.6270  204.1940  149.2390 C   0  0  2  0  0  3  0  0  0  0  0  0
  161.9240  205.5570  147.6010 C   0  0  0  0  0  0  0  0  0  0  0  0
  161.2760  207.4960  153.9010 C   0  0  2  0  0  3  0  0  0  0  0  0
  161.2500  205.7390  152.0970 C   0  0  2  0  0  3  0  0  0  0  0  0
  161.8550  211.4240  149.8440 C   0  0  0  0  0  3  0  0  0  0  0  0
  160.8290  202.9740  148.5720 O   0  0  0  0  0  0  0  0  0  0  0  0
  159.9490  202.4190  150.6900 C   0  0  0  0  0  2  0  0  0  0  0  0
  161.7810  210.9070  152.1670 O   0  0  0  0  0  1  0  0  0  0  0  0
  161.7370  207.4310  148.7710 C   0  0  0  0  0  0  0  0  0  0  0  0
  161.8920  211.0550  148.5040 C   0  0  0  0  0  3  0  0  0  0  0  0
  161.8190  209.0710  150.5240 C   0  0  0  0  0  0  0  0  0  0  0  0
  161.6420  206.3880  149.7300 N   0  0  0  0  0  0  0  0  0  0  0  0
  162.0870  204.7700  146.6320 O   0  0  0  0  0  0  0  0  0  0  0  0
  161.8320  205.1210  149.0330 C   0  0  1  0  0  3  0  0  0  0  0  0
  159.9990  202.0520  149.2270 C   0  0  0  0  0  2  0  0  0  0  0  0
  162.6570  203.6500  151.5670 C   0  0  0  0  0  1  0  0  0  0  0  0
  161.8690  209.7100  148.1540 C   0  0  0  0  0  3  0  0  0  0  0  0
  161.8140  208.7150  149.1400 C   0  0  0  0  0  0  0  0  0  0  0  0
  161.2640  204.2380  151.7890 C   0  0  2  0  0  3  0  0  0  0  0  0
  159.7690  207.6490  154.0710 C   0  0  0  0  0  2  0  0  0  0  0  0
  160.4730  207.7550  156.4620 C   0  0  0  0  0  1  0  0  0  0  0  0
  159.3470  207.3970  155.5100 C   0  0  0  0  0  2  0  0  0  0  0  0
  1 19  1  1  0  0  0
  1  5  1  0  0  0  0
  2 16  1  0  0  0  0
  3 10  1  0  0  0  0
  3 17  2  0  0  0  0
  4 20  1  6  0  0  0
  4  1  1  0  0  0  0
  4 12  1  0  0  0  0
  5 11  1  0  0  0  0
  7 15  1  6  0  0  0
  7 27  1  0  0  0  0
  8  6  1  6  0  0  0
  8 11  1  0  0  0  0
  9 14  1  6  0  0  0
  9  7  1  0  0  0  0
 10 22  1  0  0  0  0
 11 28  1  6  0  0  0
 12  8  1  0  0  0  0
 13  2  2  0  0  0  0
 14 23  1  0  0  0  0
 17 26  1  0  0  0  0
 17 20  1  0  0  0  0
 18 13  1  0  0  0  0
 19  2  1  0  0  0  0
 21 10  2  0  0  0  0
 22  9  1  0  0  0  0
 22 20  1  0  0  0  0
 23 15  1  0  0  0  0
 24 27  1  0  0  0  0
 25 18  2  0  0  0  0
 25 26  1  0  0  0  0
 26 19  2  0  0  0  0
 27 12  1  0  0  0  0
 28 30  1  0  0  0  0
 30 29  1  0  0  0  0
M  END
>  <MODEL>
9

>  <REMARK>
 VINA RESULT:      -2.4      3.462      5.304
  Name = 
  2 active torsions:
  status: ('A' for Active; 'I' for Inactive)
    1  A    between atoms: C_11  and  C_28
    2  A    between atoms: C_28  and  C_30
                            x       y       z     vdW  Elec       q    Type
                         _______ _______ _______ _____ _____    ______ ____

>  <TORSDO>
F 2

$$$$
