=
 OpenBabel11122414293D

 34 40  0  0  1  0  0  0  0  0999 V2000
  161.4900  208.7260  150.4160 C   0  0  0  0  0  0  0  0  0  0  0  0
  161.1450  207.5750  148.1330 N   0  0  0  0  0  0  0  0  0  0  0  0
  159.1250  209.5930  155.6290 C   0  0  0  0  0  2  0  0  0  0  0  0
  161.8010  209.5660  152.6740 C   0  0  0  0  0  0  0  0  0  0  0  0
  161.5870  208.0340  154.5450 C   0  0  0  0  0  0  0  0  0  0  0  0
  160.1040  207.4120  156.4370 C   0  0  0  0  0  2  0  0  0  0  0  0
  159.3180  208.6630  156.8220 C   0  0  0  0  0  2  0  0  0  0  0  0
  161.3270  210.7130  156.1830 C   0  0  0  0  0  2  0  0  0  0  0  0
  160.9370  206.4010  150.0170 C   0  0  0  0  0  0  0  0  0  0  0  0
  160.8720  203.1900  149.9510 C   0  0  0  0  0  2  0  0  0  0  0  0
  161.3210  207.0240  153.6700 N   0  0  0  0  0  0  0  0  0  0  0  0
  162.2240  210.4920  154.9650 C   0  0  0  0  0  2  0  0  0  0  0  0
  161.0030  206.1100  151.4300 N   0  0  0  0  0  0  0  0  0  0  0  0
  160.8950  206.2680  147.6670 N   0  0  0  0  0  0  0  0  0  0  0  0
  161.8340  209.3440  154.0620 C   0  0  0  0  0  0  0  0  0  0  0  0
  159.8540  210.9170  155.8350 C   0  0  0  0  0  2  0  0  0  0  0  0
  161.4820  204.2150  148.9810 C   0  0  2  0  0  3  0  0  0  0  0  0
  161.5170  208.4990  151.8040 C   0  0  0  0  0  0  0  0  0  0  0  0
  161.5380  207.7240  156.0100 C   0  0  0  0  0  2  0  0  0  0  0  0
  161.2790  207.2130  152.3260 C   0  0  0  0  0  0  0  0  0  0  0  0
  162.0250  211.0380  150.8110 C   0  0  0  0  0  3  0  0  0  0  0  0
  160.1890  203.7860  151.1850 C   0  0  0  0  0  2  0  0  0  0  0  0
  162.0470  210.8020  152.1530 N   0  0  0  0  0  0  0  0  0  0  0  0
  161.1100  204.7390  151.9330 C   0  0  0  0  0  2  0  0  0  0  0  0
  160.6190  205.4780  148.8880 C   0  0  1  0  0  3  0  0  0  0  0  0
  161.7450  210.0030  149.9160 C   0  0  0  0  0  3  0  0  0  0  0  0
  161.1810  207.5880  149.5400 C   0  0  0  0  0  0  0  0  0  0  0  0
  161.6630  203.5520  147.6230 C   0  0  0  0  0  2  0  0  0  0  0  0
  162.7430  204.1970  146.8930 N   0  0  0  0  0  2  0  0  0  0  0  0
  160.3310  204.6230  144.8730 O   0  0  0  0  0  0  0  0  0  0  0  0
  162.6070  205.2390  144.7200 C   0  0  0  0  0  2  0  0  0  0  0  0
  162.5160  203.9470  145.4800 C   0  0  2  0  0  3  0  0  0  0  0  0
  161.2230  205.4250  144.1460 C   0  0  0  0  0  2  0  0  0  0  0  0
  161.0850  203.5100  145.2720 C   0  0  0  0  0  2  0  0  0  0  0  0
  1 18  1  0  0  0  0
  2 27  1  0  0  0  0
  3 16  1  0  0  0  0
  3  7  1  0  0  0  0
  4 15  1  0  0  0  0
  5 19  1  0  0  0  0
  6  7  1  0  0  0  0
  9 13  1  0  0  0  0
 10 22  1  0  0  0  0
 11  5  1  0  0  0  0
 12  8  1  0  0  0  0
 13 24  1  0  0  0  0
 13 20  1  0  0  0  0
 14  2  2  0  0  0  0
 15  5  2  0  0  0  0
 15 12  1  0  0  0  0
 16  8  1  0  0  0  0
 17 28  1  6  0  0  0
 17 10  1  0  0  0  0
 18 20  1  0  0  0  0
 18  4  2  0  0  0  0
 19  6  1  0  0  0  0
 20 11  2  0  0  0  0
 21 23  2  0  0  0  0
 22 24  1  0  0  0  0
 23  4  1  0  0  0  0
 25 14  1  6  0  0  0
 25 17  1  0  0  0  0
 25  9  1  0  0  0  0
 26  1  2  0  0  0  0
 26 21  1  0  0  0  0
 27  9  2  0  0  0  0
 27  1  1  0  0  0  0
 29 28  1  0  0  0  0
 30 34  1  0  0  0  0
 31 32  1  0  0  0  0
 32 29  1  1  0  0  0
 33 31  1  0  0  0  0
 33 30  1  0  0  0  0
 34 32  1  0  0  0  0
M  END
>  <MODEL>
1

>  <REMARK>
 VINA RESULT:      -7.8      0.000      0.000
  Name = 
  3 active torsions:
  status: ('A' for Active; 'I' for Inactive)
    1  A    between atoms: C_17  and  C_28
    2  A    between atoms: C_28  and  N_29
    3  A    between atoms: N_29  and  C_32
                            x       y       z     vdW  Elec       q    Type
                         _______ _______ _______ _____ _____    ______ ____

>  <TORSDO>
F 3

$$$$
=
 OpenBabel11122414293D

 34 40  0  0  1  0  0  0  0  0999 V2000
  161.5920  208.3500  149.9200 C   0  0  0  0  0  0  0  0  0  0  0  0
  161.3880  206.9550  147.7590 N   0  0  0  0  0  0  0  0  0  0  0  0
  158.9080  209.7650  154.8500 C   0  0  0  0  0  2  0  0  0  0  0  0
  161.7620  209.4340  152.0870 C   0  0  0  0  0  0  0  0  0  0  0  0
  161.4310  208.1130  154.0970 C   0  0  0  0  0  0  0  0  0  0  0  0
  159.8330  207.6910  155.9510 C   0  0  0  0  0  2  0  0  0  0  0  0
  159.0260  208.9730  156.1480 C   0  0  0  0  0  2  0  0  0  0  0  0
  161.0720  210.9530  155.4140 C   0  0  0  0  0  2  0  0  0  0  0  0
  161.0630  205.9920  149.7430 C   0  0  0  0  0  0  0  0  0  0  0  0
  161.0000  202.7930  150.0240 C   0  0  0  0  0  2  0  0  0  0  0  0
  161.2200  207.0120  153.3230 N   0  0  0  0  0  0  0  0  0  0  0  0
  162.0420  210.6060  154.2860 C   0  0  0  0  0  2  0  0  0  0  0  0
  161.0400  205.8580  151.1800 N   0  0  0  0  0  0  0  0  0  0  0  0
  161.1670  205.6040  147.4230 N   0  0  0  0  0  0  0  0  0  0  0  0
  161.7080  209.3640  153.4910 C   0  0  0  0  0  0  0  0  0  0  0  0
  159.6240  211.1090  154.9560 C   0  0  0  0  0  2  0  0  0  0  0  0
  161.6700  203.7100  148.9870 C   0  0  2  0  0  3  0  0  0  0  0  0
  161.5310  208.2770  151.3230 C   0  0  0  0  0  0  0  0  0  0  0  0
  161.2910  207.9640  155.5810 C   0  0  0  0  0  2  0  0  0  0  0  0
  161.2620  207.0530  151.9660 C   0  0  0  0  0  0  0  0  0  0  0  0
  162.1020  210.6950  150.0930 C   0  0  0  0  0  3  0  0  0  0  0  0
  160.2420  203.5150  151.1410 C   0  0  0  0  0  2  0  0  0  0  0  0
  162.0410  210.6070  151.4500 N   0  0  0  0  0  0  0  0  0  0  0  0
  161.1150  204.5500  151.8350 C   0  0  0  0  0  2  0  0  0  0  0  0
  160.8150  204.9500  148.7040 C   0  0  1  0  0  3  0  0  0  0  0  0
  161.8780  209.5670  149.3000 C   0  0  0  0  0  3  0  0  0  0  0  0
  161.3370  207.1210  149.1550 C   0  0  0  0  0  0  0  0  0  0  0  0
  161.9340  202.9050  147.7230 C   0  0  0  0  0  2  0  0  0  0  0  0
  160.6800  202.4180  147.1720 N   0  0  0  0  0  2  0  0  0  0  0  0
  158.9630  202.9420  144.5530 O   0  0  0  0  0  0  0  0  0  0  0  0
  161.1760  203.5590  145.1040 C   0  0  0  0  0  2  0  0  0  0  0  0
  160.8810  202.2330  145.7440 C   0  0  2  0  0  3  0  0  0  0  0  0
  160.0200  203.7750  144.1560 C   0  0  0  0  0  2  0  0  0  0  0  0
  159.5780  201.8100  145.1050 C   0  0  0  0  0  2  0  0  0  0  0  0
  1 18  1  0  0  0  0
  2 27  1  0  0  0  0
  3 16  1  0  0  0  0
  3  7  1  0  0  0  0
  4 15  1  0  0  0  0
  5 19  1  0  0  0  0
  6  7  1  0  0  0  0
  9 13  1  0  0  0  0
 10 22  1  0  0  0  0
 11  5  1  0  0  0  0
 12  8  1  0  0  0  0
 13 24  1  0  0  0  0
 13 20  1  0  0  0  0
 14  2  2  0  0  0  0
 15  5  2  0  0  0  0
 15 12  1  0  0  0  0
 16  8  1  0  0  0  0
 17 28  1  6  0  0  0
 17 10  1  0  0  0  0
 18 20  1  0  0  0  0
 18  4  2  0  0  0  0
 19  6  1  0  0  0  0
 20 11  2  0  0  0  0
 21 23  2  0  0  0  0
 22 24  1  0  0  0  0
 23  4  1  0  0  0  0
 25 14  1  6  0  0  0
 25 17  1  0  0  0  0
 25  9  1  0  0  0  0
 26  1  2  0  0  0  0
 26 21  1  0  0  0  0
 27  9  2  0  0  0  0
 27  1  1  0  0  0  0
 29 28  1  0  0  0  0
 30 34  1  0  0  0  0
 31 32  1  0  0  0  0
 32 29  1  1  0  0  0
 33 30  1  0  0  0  0
 33 31  1  0  0  0  0
 34 32  1  0  0  0  0
M  END
>  <MODEL>
2

>  <REMARK>
 VINA RESULT:      -7.5      0.985      1.131
  Name = 
  3 active torsions:
  status: ('A' for Active; 'I' for Inactive)
    1  A    between atoms: C_17  and  C_28
    2  A    between atoms: C_28  and  N_29
    3  A    between atoms: N_29  and  C_32
                            x       y       z     vdW  Elec       q    Type
                         _______ _______ _______ _____ _____    ______ ____

>  <TORSDO>
F 3

$$$$
=
 OpenBabel11122414293D

 34 40  0  0  1  0  0  0  0  0999 V2000
  160.8390  204.7490  150.7430 C   0  0  0  0  0  0  0  0  0  0  0  0
  160.5250  206.3970  152.7040 N   0  0  0  0  0  0  0  0  0  0  0  0
  159.3560  203.6670  145.2530 C   0  0  0  0  0  2  0  0  0  0  0  0
  161.2330  203.4030  148.7600 C   0  0  0  0  0  0  0  0  0  0  0  0
  161.9700  204.4940  146.7190 C   0  0  0  0  0  0  0  0  0  0  0  0
  161.2170  205.1720  144.4520 C   0  0  0  0  0  2  0  0  0  0  0  0
  160.1070  204.2070  144.0400 C   0  0  0  0  0  2  0  0  0  0  0  0
  161.0380  201.7810  145.4160 C   0  0  0  0  0  2  0  0  0  0  0  0
  161.1350  207.1530  150.6980 C   0  0  0  0  0  0  0  0  0  0  0  0
  162.2700  210.1380  150.3440 C   0  0  0  0  0  2  0  0  0  0  0  0
  161.9420  205.6930  147.3660 N   0  0  0  0  0  0  0  0  0  0  0  0
  161.7040  201.9350  146.7830 C   0  0  0  0  0  2  0  0  0  0  0  0
  161.5710  207.1040  149.3220 N   0  0  0  0  0  0  0  0  0  0  0  0
  160.7010  207.7780  152.9250 N   0  0  0  0  0  0  0  0  0  0  0  0
  161.6100  203.3080  147.4080 C   0  0  0  0  0  0  0  0  0  0  0  0
  159.5590  202.1620  145.4040 C   0  0  0  0  0  2  0  0  0  0  0  0
  162.2540  209.1920  151.5570 C   0  0  2  0  0  3  0  0  0  0  0  0
  161.2110  204.6600  149.3900 C   0  0  0  0  0  0  0  0  0  0  0  0
  162.3200  204.4900  145.2630 C   0  0  0  0  0  2  0  0  0  0  0  0
  161.5780  205.8130  148.6690 C   0  0  0  0  0  0  0  0  0  0  0  0
  160.5300  202.3630  150.7870 C   0  0  0  0  0  3  0  0  0  0  0  0
  161.6600  209.5640  149.0620 C   0  0  0  0  0  2  0  0  0  0  0  0
  160.8930  202.2940  149.4760 N   0  0  0  0  0  0  0  0  0  0  0  0
  162.2790  208.2230  148.6950 C   0  0  0  0  0  2  0  0  0  0  0  0
  160.9790  208.3430  151.5860 C   0  0  1  0  0  3  0  0  0  0  0  0
  160.4950  203.5950  151.4470 C   0  0  0  0  0  3  0  0  0  0  0  0
  160.8200  206.0800  151.3650 C   0  0  0  0  0  0  0  0  0  0  0  0
  162.4090  210.0220  152.8230 C   0  0  0  0  0  2  0  0  0  0  0  0
  161.2260  210.8420  153.0290 N   0  0  0  0  0  2  0  0  0  0  0  0
  159.6510  209.7350  155.5530 O   0  0  0  0  0  0  0  0  0  0  0  0
  161.9530  210.1520  155.2250 C   0  0  0  0  0  2  0  0  0  0  0  0
  161.1710  211.1690  154.4440 C   0  0  2  0  0  3  0  0  0  0  0  0
  160.9180  209.4880  156.1010 C   0  0  0  0  0  2  0  0  0  0  0  0
  159.7560  210.9940  154.9440 C   0  0  0  0  0  2  0  0  0  0  0  0
  1 27  1  0  0  0  0
  1 26  1  0  0  0  0
  2 14  2  0  0  0  0
  3 16  1  0  0  0  0
  4 18  1  0  0  0  0
  4 23  2  0  0  0  0
  5 11  1  0  0  0  0
  5 15  2  0  0  0  0
  6 19  1  0  0  0  0
  7  6  1  0  0  0  0
  7  3  1  0  0  0  0
  8 12  1  0  0  0  0
  9 27  2  0  0  0  0
 10 17  1  0  0  0  0
 11 20  2  0  0  0  0
 12 15  1  0  0  0  0
 13  9  1  0  0  0  0
 15  4  1  0  0  0  0
 16  8  1  0  0  0  0
 17 25  1  0  0  0  0
 17 28  1  1  0  0  0
 18  1  2  0  0  0  0
 19  5  1  0  0  0  0
 20 13  1  0  0  0  0
 20 18  1  0  0  0  0
 21 26  2  0  0  0  0
 22 10  1  0  0  0  0
 23 21  1  0  0  0  0
 24 22  1  0  0  0  0
 24 13  1  0  0  0  0
 25  9  1  6  0  0  0
 25 14  1  0  0  0  0
 27  2  1  0  0  0  0
 28 29  1  0  0  0  0
 30 33  1  0  0  0  0
 31 33  1  0  0  0  0
 32 29  1  6  0  0  0
 32 34  1  0  0  0  0
 32 31  1  0  0  0  0
 34 30  1  0  0  0  0
M  END
>  <MODEL>
3

>  <REMARK>
 VINA RESULT:      -7.5      2.426      8.965
  Name = 
  3 active torsions:
  status: ('A' for Active; 'I' for Inactive)
    1  A    between atoms: C_17  and  C_28
    2  A    between atoms: C_28  and  N_29
    3  A    between atoms: N_29  and  C_32
                            x       y       z     vdW  Elec       q    Type
                         _______ _______ _______ _____ _____    ______ ____

>  <TORSDO>
F 3

$$$$
=
 OpenBabel11122414293D

 34 40  0  0  1  0  0  0  0  0999 V2000
  161.8580  209.3690  150.6800 C   0  0  0  0  0  0  0  0  0  0  0  0
  162.5320  210.4860  148.4540 N   0  0  0  0  0  0  0  0  0  0  0  0
  162.0130  209.9370  156.4400 C   0  0  0  0  0  2  0  0  0  0  0  0
  161.0810  208.5370  152.8250 C   0  0  0  0  0  0  0  0  0  0  0  0
  159.7920  210.0050  154.2660 C   0  0  0  0  0  0  0  0  0  0  0  0
  159.9140  211.3350  156.3600 C   0  0  0  0  0  2  0  0  0  0  0  0
  160.9520  210.6650  157.2580 C   0  0  0  0  0  2  0  0  0  0  0  0
  160.5570  207.8650  156.4480 C   0  0  0  0  0  2  0  0  0  0  0  0
  161.3970  211.6440  149.9840 C   0  0  0  0  0  0  0  0  0  0  0  0
  160.0090  214.4400  149.2300 C   0  0  0  0  0  2  0  0  0  0  0  0
  159.8950  210.9920  153.3320 N   0  0  0  0  0  0  0  0  0  0  0  0
  160.2390  207.5740  154.9830 C   0  0  0  0  0  2  0  0  0  0  0  0
  160.6390  211.8910  151.1880 N   0  0  0  0  0  0  0  0  0  0  0  0
  162.3230  211.7280  147.8220 N   0  0  0  0  0  0  0  0  0  0  0  0
  160.3900  208.7410  154.0330 C   0  0  0  0  0  0  0  0  0  0  0  0
  161.9570  208.4300  156.6760 C   0  0  0  0  0  2  0  0  0  0  0  0
  160.3870  213.2260  148.3650 C   0  0  2  0  0  3  0  0  0  0  0  0
  161.1720  209.5810  151.8890 C   0  0  0  0  0  0  0  0  0  0  0  0
  159.0950  210.3290  155.5520 C   0  0  0  0  0  2  0  0  0  0  0  0
  160.5600  210.8210  152.1590 C   0  0  0  0  0  0  0  0  0  0  0  0
  162.3310  207.1150  151.3760 C   0  0  0  0  0  3  0  0  0  0  0  0
  160.3210  214.3010  150.7220 C   0  0  0  0  0  2  0  0  0  0  0  0
  161.6620  207.3360  152.5410 N   0  0  0  0  0  0  0  0  0  0  0  0
  159.7240  213.0290  151.3060 C   0  0  0  0  0  2  0  0  0  0  0  0
  161.6850  212.5750  148.8550 C   0  0  1  0  0  3  0  0  0  0  0  0
  162.4430  208.1290  150.4220 C   0  0  0  0  0  3  0  0  0  0  0  0
  161.9390  210.4870  149.7300 C   0  0  0  0  0  0  0  0  0  0  0  0
  160.4920  213.6760  146.9150 C   0  0  0  0  0  2  0  0  0  0  0  0
  159.6290  212.8590  146.0760 N   0  0  0  0  0  2  0  0  0  0  0  0
  161.9460  212.9430  143.9070 O   0  0  0  0  0  0  0  0  0  0  0  0
  159.7090  212.1990  143.7560 C   0  0  0  0  0  2  0  0  0  0  0  0
  159.7600  213.3530  144.7160 C   0  0  2  0  0  3  0  0  0  0  0  0
  161.0680  212.2100  143.0970 C   0  0  0  0  0  2  0  0  0  0  0  0
  161.1480  213.9200  144.5200 C   0  0  0  0  0  2  0  0  0  0  0  0
  1 18  1  0  0  0  0
  2 27  1  0  0  0  0
  3 16  1  0  0  0  0
  3  7  1  0  0  0  0
  4 15  1  0  0  0  0
  5 19  1  0  0  0  0
  6  7  1  0  0  0  0
  8 16  1  0  0  0  0
  9 13  1  0  0  0  0
 10 22  1  0  0  0  0
 11  5  1  0  0  0  0
 12  8  1  0  0  0  0
 13 24  1  0  0  0  0
 13 20  1  0  0  0  0
 14  2  2  0  0  0  0
 15  5  2  0  0  0  0
 15 12  1  0  0  0  0
 17 28  1  6  0  0  0
 17 25  1  0  0  0  0
 17 10  1  0  0  0  0
 18 20  1  0  0  0  0
 18  4  2  0  0  0  0
 19  6  1  0  0  0  0
 20 11  2  0  0  0  0
 21 23  2  0  0  0  0
 22 24  1  0  0  0  0
 23  4  1  0  0  0  0
 25 14  1  6  0  0  0
 25  9  1  0  0  0  0
 26  1  2  0  0  0  0
 26 21  1  0  0  0  0
 27  9  2  0  0  0  0
 27  1  1  0  0  0  0
 29 28  1  0  0  0  0
 30 34  1  0  0  0  0
 31 32  1  0  0  0  0
 32 29  1  1  0  0  0
 33 31  1  0  0  0  0
 33 30  1  0  0  0  0
 34 32  1  0  0  0  0
M  END
>  <MODEL>
4

>  <REMARK>
 VINA RESULT:      -7.0      3.671      6.144
  Name = 
  3 active torsions:
  status: ('A' for Active; 'I' for Inactive)
    1  A    between atoms: C_17  and  C_28
    2  A    between atoms: C_28  and  N_29
    3  A    between atoms: N_29  and  C_32
                            x       y       z     vdW  Elec       q    Type
                         _______ _______ _______ _____ _____    ______ ____

>  <TORSDO>
F 3

$$$$
=
 OpenBabel11122414293D

 34 40  0  0  1  0  0  0  0  0999 V2000
  160.8020  208.0170  153.8530 C   0  0  0  0  0  0  0  0  0  0  0  0
  162.3940  206.5570  152.4430 N   0  0  0  0  0  0  0  0  0  0  0  0
  160.0640  213.2890  156.1290 C   0  0  0  0  0  2  0  0  0  0  0  0
  159.2890  209.5540  154.9710 C   0  0  0  0  0  0  0  0  0  0  0  0
  158.7000  211.6390  153.8740 C   0  0  0  0  0  0  0  0  0  0  0  0
  159.0750  214.0930  153.9510 C   0  0  0  0  0  2  0  0  0  0  0  0
  159.4010  214.4520  155.3980 C   0  0  0  0  0  2  0  0  0  0  0  0
  157.7710  212.4310  156.7790 C   0  0  0  0  0  2  0  0  0  0  0  0
  161.7520  208.5550  151.6900 C   0  0  0  0  0  0  0  0  0  0  0  0
  162.2200  209.3810  148.6220 C   0  0  0  0  0  2  0  0  0  0  0  0
  159.4910  211.2930  152.8200 N   0  0  0  0  0  0  0  0  0  0  0  0
  157.6520  211.0440  156.1490 C   0  0  0  0  0  2  0  0  0  0  0  0
  161.0110  209.7930  151.6380 N   0  0  0  0  0  0  0  0  0  0  0  0
  162.9990  206.6270  151.1720 N   0  0  0  0  0  0  0  0  0  0  0  0
  158.5810  210.7690  154.9880 C   0  0  0  0  0  0  0  0  0  0  0  0
  159.1800  212.7710  157.2610 C   0  0  0  0  0  2  0  0  0  0  0  0
  162.0720  208.0060  149.2940 C   0  0  2  0  0  3  0  0  0  0  0  0
  160.1000  209.2360  153.8680 C   0  0  0  0  0  0  0  0  0  0  0  0
  158.0330  212.9800  153.8400 C   0  0  0  0  0  2  0  0  0  0  0  0
  160.1890  210.1280  152.7810 C   0  0  0  0  0  0  0  0  0  0  0  0
  159.8710  207.4880  156.0080 C   0  0  0  0  0  3  0  0  0  0  0  0
  162.1040  210.5830  149.5630 C   0  0  0  0  0  2  0  0  0  0  0  0
  159.1980  208.6710  156.0070 N   0  0  0  0  0  0  0  0  0  0  0  0
  160.8260  210.5310  150.3870 C   0  0  0  0  0  2  0  0  0  0  0  0
  162.7060  207.9950  150.6890 C   0  0  1  0  0  3  0  0  0  0  0  0
  160.6880  207.1380  154.9300 C   0  0  0  0  0  3  0  0  0  0  0  0
  161.6460  207.7240  152.6870 C   0  0  0  0  0  0  0  0  0  0  0  0
  162.6880  206.9510  148.3850 C   0  0  0  0  0  2  0  0  0  0  0  0
  161.6400  206.1600  147.7590 N   0  0  0  0  0  2  0  0  0  0  0  0
  161.7760  203.8090  145.6310 O   0  0  0  0  0  0  0  0  0  0  0  0
  160.7020  205.9110  145.5500 C   0  0  0  0  0  2  0  0  0  0  0  0
  161.9660  206.0560  146.3470 C   0  0  2  0  0  3  0  0  0  0  0  0
  160.8240  204.5460  144.9140 C   0  0  0  0  0  2  0  0  0  0  0  0
  162.6980  204.7580  146.0960 C   0  0  0  0  0  2  0  0  0  0  0  0
  1 18  2  0  0  0  0
  1 26  1  0  0  0  0
  2 27  1  0  0  0  0
  3 16  1  0  0  0  0
  4 15  1  0  0  0  0
  4 23  2  0  0  0  0
  5 15  2  0  0  0  0
  6  7  1  0  0  0  0
  7  3  1  0  0  0  0
  8 16  1  0  0  0  0
  9 27  2  0  0  0  0
 10 17  1  0  0  0  0
 10 22  1  0  0  0  0
 11  5  1  0  0  0  0
 12  8  1  0  0  0  0
 13  9  1  0  0  0  0
 13 20  1  0  0  0  0
 14  2  2  0  0  0  0
 15 12  1  0  0  0  0
 17 28  1  6  0  0  0
 17 25  1  0  0  0  0
 18  4  1  0  0  0  0
 19  5  1  0  0  0  0
 19  6  1  0  0  0  0
 20 11  2  0  0  0  0
 20 18  1  0  0  0  0
 22 24  1  0  0  0  0
 23 21  1  0  0  0  0
 24 13  1  0  0  0  0
 25 14  1  1  0  0  0
 25  9  1  0  0  0  0
 26 21  2  0  0  0  0
 27  1  1  0  0  0  0
 29 28  1  0  0  0  0
 30 34  1  0  0  0  0
 31 32  1  0  0  0  0
 32 29  1  1  0  0  0
 33 31  1  0  0  0  0
 33 30  1  0  0  0  0
 34 32  1  0  0  0  0
M  END
>  <MODEL>
5

>  <REMARK>
 VINA RESULT:      -5.9      1.992      4.420
  Name = 
  3 active torsions:
  status: ('A' for Active; 'I' for Inactive)
    1  A    between atoms: C_17  and  C_28
    2  A    between atoms: C_28  and  N_29
    3  A    between atoms: N_29  and  C_32
                            x       y       z     vdW  Elec       q    Type
                         _______ _______ _______ _____ _____    ______ ____

>  <TORSDO>
F 3

$$$$
=
 OpenBabel11122414293D

 34 40  0  0  1  0  0  0  0  0999 V2000
  161.8320  209.4150  150.6230 C   0  0  0  0  0  0  0  0  0  0  0  0
  162.3250  210.6260  152.8470 N   0  0  0  0  0  0  0  0  0  0  0  0
  163.0100  204.6780  147.5100 C   0  0  0  0  0  2  0  0  0  0  0  0
  161.2750  208.0720  148.6770 C   0  0  0  0  0  0  0  0  0  0  0  0
  160.5150  205.7880  148.9950 C   0  0  0  0  0  0  0  0  0  0  0  0
  161.2060  203.4160  148.7440 C   0  0  0  0  0  2  0  0  0  0  0  0
  162.2400  203.3670  147.6210 C   0  0  0  0  0  2  0  0  0  0  0  0
  161.2310  205.5550  145.9360 C   0  0  0  0  0  2  0  0  0  0  0  0
  161.6740  208.4950  152.8590 C   0  0  0  0  0  0  0  0  0  0  0  0
  160.6990  207.0910  155.5790 C   0  0  0  0  0  2  0  0  0  0  0  0
  160.6390  205.9480  150.3430 N   0  0  0  0  0  0  0  0  0  0  0  0
  160.6350  206.7820  146.6240 C   0  0  0  0  0  2  0  0  0  0  0  0
  161.1760  207.2420  152.3410 N   0  0  0  0  0  0  0  0  0  0  0  0
  162.2390  210.3290  154.2220 N   0  0  0  0  0  0  0  0  0  0  0  0
  160.8350  206.8580  148.1210 C   0  0  0  0  0  0  0  0  0  0  0  0
  162.7270  205.3750  146.1820 C   0  0  0  0  0  2  0  0  0  0  0  0
  160.7120  208.5660  155.1430 C   0  0  2  0  0  3  0  0  0  0  0  0
  161.3970  208.1960  150.0720 C   0  0  0  0  0  0  0  0  0  0  0  0
  160.1020  204.4420  148.4840 C   0  0  0  0  0  2  0  0  0  0  0  0
  161.0660  207.1090  150.9050 C   0  0  0  0  0  0  0  0  0  0  0  0
  162.0040  210.3260  148.4030 C   0  0  0  0  0  3  0  0  0  0  0  0
  161.2180  206.0980  154.5360 C   0  0  0  0  0  2  0  0  0  0  0  0
  161.5810  209.1390  147.8850 N   0  0  0  0  0  0  0  0  0  0  0  0
  160.5070  206.2620  153.2010 C   0  0  0  0  0  2  0  0  0  0  0  0
  161.9360  208.8810  154.2770 C   0  0  1  0  0  3  0  0  0  0  0  0
  162.1390  210.4860  149.7850 C   0  0  0  0  0  3  0  0  0  0  0  0
  161.9550  209.5030  152.0850 C   0  0  0  0  0  0  0  0  0  0  0  0
  160.6600  209.4420  156.3870 C   0  0  0  0  0  2  0  0  0  0  0  0
  159.3130  209.9530  156.5800 N   0  0  0  0  0  2  0  0  0  0  0  0
  157.2250  212.2800  156.0260 O   0  0  0  0  0  0  0  0  0  0  0  0
  159.5750  212.2210  155.7970 C   0  0  0  0  0  2  0  0  0  0  0  0
  159.0340  210.8570  155.4770 C   0  0  2  0  0  3  0  0  0  0  0  0
  158.3480  213.1000  155.8480 C   0  0  0  0  0  2  0  0  0  0  0  0
  157.5430  211.0790  155.3750 C   0  0  0  0  0  2  0  0  0  0  0  0
  1 27  1  0  0  0  0
  2 14  2  0  0  0  0
  3  7  1  0  0  0  0
  4 18  1  0  0  0  0
  5 11  2  0  0  0  0
  7  6  1  0  0  0  0
  8 16  1  0  0  0  0
  8 12  1  0  0  0  0
 11 20  1  0  0  0  0
 12 15  1  0  0  0  0
 13  9  1  0  0  0  0
 13 24  1  0  0  0  0
 14 25  1  0  0  0  0
 15  4  2  0  0  0  0
 15  5  1  0  0  0  0
 16  3  1  0  0  0  0
 17 10  1  0  0  0  0
 17 28  1  1  0  0  0
 18  1  1  0  0  0  0
 18 20  2  0  0  0  0
 19  6  1  0  0  0  0
 19  5  1  0  0  0  0
 20 13  1  0  0  0  0
 21 26  1  0  0  0  0
 22 10  1  0  0  0  0
 23 21  2  0  0  0  0
 23  4  1  0  0  0  0
 24 22  1  0  0  0  0
 25  9  1  6  0  0  0
 25 17  1  0  0  0  0
 26  1  2  0  0  0  0
 27  2  1  0  0  0  0
 27  9  2  0  0  0  0
 28 29  1  0  0  0  0
 31 33  1  0  0  0  0
 32 31  1  0  0  0  0
 32 29  1  1  0  0  0
 33 30  1  0  0  0  0
 34 32  1  0  0  0  0
 34 30  1  0  0  0  0
M  END
>  <MODEL>
6

>  <REMARK>
 VINA RESULT:      -4.8      2.863      8.252
  Name = 
  3 active torsions:
  status: ('A' for Active; 'I' for Inactive)
    1  A    between atoms: C_17  and  C_28
    2  A    between atoms: C_28  and  N_29
    3  A    between atoms: N_29  and  C_32
                            x       y       z     vdW  Elec       q    Type
                         _______ _______ _______ _____ _____    ______ ____

>  <TORSDO>
F 3

$$$$
