=
 OpenBabel11122414223D

 34 40  0  0  1  0  0  0  0  0999 V2000
  161.0790  207.1290  154.2780 C   0  0  0  0  0  0  0  0  0  0  0  0
  161.0590  204.9720  153.0310 C   0  0  0  0  0  2  0  0  0  0  0  0
  158.4140  213.0300  153.4960 C   0  0  1  0  0  3  0  0  0  0  0  0
  160.1500  209.2630  154.9350 C   0  0  0  0  0  0  0  0  0  0  0  0
  160.4020  211.2780  153.3790 C   0  0  2  0  0  3  0  0  0  0  0  0
  160.2380  213.1980  152.0210 O   0  0  0  0  0  0  0  0  0  0  0  0
  157.3820  212.1450  153.1840 O   0  0  0  0  0  1  0  0  0  0  0  0
  159.7800  213.0640  155.6860 C   0  0  0  0  0  2  0  0  0  0  0  0
  162.1300  206.7850  151.9490 C   0  0  2  0  0  3  0  0  0  0  0  0
  161.6740  206.6300  148.7970 C   0  0  0  0  0  2  0  0  0  0  0  0
  160.3890  210.2440  152.2650 C   0  0  0  0  0  2  0  0  0  0  0  0
  160.0730  211.5760  155.8890 C   0  0  0  0  0  2  0  0  0  0  0  0
  161.2920  208.0160  151.5440 C   0  0  1  0  0  3  0  0  0  0  0  0
  161.5440  204.4480  151.8250 O   0  0  0  0  0  0  0  0  0  0  0  0
  159.7730  210.7020  154.6630 C   0  0  2  0  0  3  0  0  0  0  0  0
  158.4280  213.3030  155.0110 C   0  0  0  0  0  2  0  0  0  0  0  0
  161.0350  205.7130  149.8270 C   0  0  2  0  0  3  0  0  0  0  0  0
  160.7990  208.4690  153.9630 C   0  0  0  0  0  0  0  0  0  0  0  0
  159.7160  212.5400  152.9070 C   0  0  0  0  0  0  0  0  0  0  0  0
  161.2720  209.0620  152.6610 C   0  0  2  0  0  3  0  0  0  0  0  0
  160.0460  207.3970  156.3910 C   0  0  0  0  0  3  0  0  0  0  0  0
  161.2590  208.0720  149.0350 C   0  0  0  0  0  2  0  0  0  0  0  0
  159.7700  208.6950  156.1120 N   0  0  0  0  0  0  0  0  0  0  0  0
  161.9030  208.6360  150.2900 C   0  0  0  0  0  2  0  0  0  0  0  0
  161.9560  205.5480  151.0450 C   0  0  1  0  0  3  0  0  0  0  0  0
  160.7000  206.6320  155.4840 N   0  0  0  0  0  0  0  0  0  0  0  0
  161.8260  206.2330  153.3270 C   0  0  1  0  0  3  0  0  0  0  0  0
  160.7940  204.4680  149.2380 O   0  0  0  0  0  0  0  0  0  0  0  0
  160.9630  204.6660  147.9440 O   0  0  0  0  0  0  0  0  0  0  0  0
  160.3440  201.6720  147.3000 O   0  0  0  0  0  0  0  0  0  0  0  0
  161.4600  203.3410  146.0520 C   0  0  0  0  0  2  0  0  0  0  0  0
  161.7260  203.5790  147.5090 C   0  0  2  0  0  3  0  0  0  0  0  0
  160.8150  201.9750  146.0150 C   0  0  0  0  0  2  0  0  0  0  0  0
  161.2290  202.3170  148.1750 C   0  0  0  0  0  2  0  0  0  0  0  0
  1 26  1  0  0  0  0
  2 27  1  0  0  0  0
  3  7  1  1  0  0  0
  3 16  1  0  0  0  0
  4 23  2  0  0  0  0
  5 11  1  6  0  0  0
  5 15  1  0  0  0  0
  6 19  2  0  0  0  0
  8 12  1  0  0  0  0
  9 27  1  0  0  0  0
 10 22  1  0  0  0  0
 10 17  1  0  0  0  0
 11 20  1  0  0  0  0
 13  9  1  0  0  0  0
 13 20  1  0  0  0  0
 14  2  1  0  0  0  0
 15  4  1  0  0  0  0
 15 12  1  0  0  0  0
 16  8  1  0  0  0  0
 17 25  1  0  0  0  0
 18  1  2  0  0  0  0
 18  4  1  0  0  0  0
 19  5  1  0  0  0  0
 19  3  1  0  0  0  0
 20 18  1  0  0  0  0
 22 24  1  0  0  0  0
 23 21  1  0  0  0  0
 24 13  1  0  0  0  0
 25 14  1  0  0  0  0
 25  9  1  0  0  0  0
 26 21  2  0  0  0  0
 27  1  1  0  0  0  0
 28 17  1  0  0  0  0
 29 28  1  0  0  0  0
 30 34  1  0  0  0  0
 31 32  1  0  0  0  0
 32 29  1  0  0  0  0
 32 34  1  0  0  0  0
 33 31  1  0  0  0  0
 33 30  1  0  0  0  0
M  END
>  <MODEL>
1

>  <REMARK>
 VINA RESULT:      -9.7      0.000      0.000
  Name = 
  3 active torsions:
  status: ('A' for Active; 'I' for Inactive)
    1  A    between atoms: C_17  and  O_28
    2  A    between atoms: O_28  and  O_29
    3  A    between atoms: O_29  and  C_32
                            x       y       z     vdW  Elec       q    Type
                         _______ _______ _______ _____ _____    ______ ____

>  <TORSDO>
F 3

$$$$
=
 OpenBabel11122414223D

 34 40  0  0  1  0  0  0  0  0999 V2000
  161.7300  207.5990  149.4570 C   0  0  0  0  0  0  0  0  0  0  0  0
  161.1300  209.6940  150.6650 C   0  0  0  0  0  2  0  0  0  0  0  0
  159.7260  201.3930  149.5420 C   0  0  1  0  0  3  0  0  0  0  0  0
  161.2700  205.3910  148.5860 C   0  0  0  0  0  0  0  0  0  0  0  0
  161.3860  203.3700  150.1520 C   0  0  2  0  0  3  0  0  0  0  0  0
  161.1380  201.4000  151.4220 O   0  0  0  0  0  0  0  0  0  0  0  0
  158.5460  202.1330  149.5910 O   0  0  0  0  0  1  0  0  0  0  0  0
  161.5810  201.6000  147.7580 C   0  0  0  0  0  2  0  0  0  0  0  0
  162.1240  207.9910  151.9740 C   0  0  2  0  0  3  0  0  0  0  0  0
  160.8930  207.9830  154.9160 C   0  0  0  0  0  2  0  0  0  0  0  0
  160.9690  204.3570  151.2300 C   0  0  0  0  0  2  0  0  0  0  0  0
  161.7240  203.1180  147.6370 C   0  0  0  0  0  2  0  0  0  0  0  0
  161.3760  206.6540  152.1560 C   0  0  1  0  0  3  0  0  0  0  0  0
  161.2330  210.2330  151.9540 O   0  0  0  0  0  0  0  0  0  0  0  0
  161.0240  203.9080  148.7530 C   0  0  2  0  0  3  0  0  0  0  0  0
  160.1470  201.1750  148.0770 C   0  0  0  0  0  2  0  0  0  0  0  0
  160.4140  208.8490  153.7610 C   0  0  2  0  0  3  0  0  0  0  0  0
  161.5530  206.2250  149.6900 C   0  0  0  0  0  0  0  0  0  0  0  0
  160.7710  202.0190  150.4360 C   0  0  0  0  0  0  0  0  0  0  0  0
  161.7640  205.6510  151.0680 C   0  0  2  0  0  3  0  0  0  0  0  0
  161.2900  207.2770  147.1530 C   0  0  0  0  0  3  0  0  0  0  0  0
  160.7350  206.5100  154.5790 C   0  0  0  0  0  2  0  0  0  0  0  0
  161.1210  205.9470  147.3530 N   0  0  0  0  0  0  0  0  0  0  0  0
  161.7340  206.0720  153.5220 C   0  0  0  0  0  2  0  0  0  0  0  0
  161.5780  209.1660  152.8100 C   0  0  1  0  0  3  0  0  0  0  0  0
  161.5990  208.0870  148.1950 N   0  0  0  0  0  0  0  0  0  0  0  0
  162.1000  208.5480  150.5650 C   0  0  1  0  0  3  0  0  0  0  0  0
  159.8800  210.0350  154.2750 O   0  0  0  0  0  0  0  0  0  0  0  0
  160.5450  210.2500  155.3940 O   0  0  0  0  0  0  0  0  0  0  0  0
  158.7240  212.7790  155.6110 O   0  0  0  0  0  0  0  0  0  0  0  0
  160.6460  212.1290  156.8230 C   0  0  0  0  0  2  0  0  0  0  0  0
  160.7790  211.6270  155.4160 C   0  0  2  0  0  3  0  0  0  0  0  0
  159.4610  213.0630  156.7700 C   0  0  0  0  0  2  0  0  0  0  0  0
  159.6700  212.3380  154.6760 C   0  0  0  0  0  2  0  0  0  0  0  0
  1 18  1  0  0  0  0
  1 27  1  0  0  0  0
  2 14  1  0  0  0  0
  3  7  1  6  0  0  0
  3 19  1  0  0  0  0
  4 15  1  0  0  0  0
  4 18  2  0  0  0  0
  5 19  1  0  0  0  0
  5 11  1  1  0  0  0
  8 16  1  0  0  0  0
  9 13  1  0  0  0  0
  9 25  1  0  0  0  0
 12  8  1  0  0  0  0
 12 15  1  0  0  0  0
 13 24  1  0  0  0  0
 14 25  1  0  0  0  0
 15  5  1  0  0  0  0
 16  3  1  0  0  0  0
 17 28  1  0  0  0  0
 17 10  1  0  0  0  0
 18 20  1  0  0  0  0
 19  6  2  0  0  0  0
 20 11  1  0  0  0  0
 20 13  1  0  0  0  0
 21 23  2  0  0  0  0
 21 26  1  0  0  0  0
 22 10  1  0  0  0  0
 23  4  1  0  0  0  0
 24 22  1  0  0  0  0
 25 17  1  0  0  0  0
 26  1  2  0  0  0  0
 27  2  1  0  0  0  0
 27  9  1  0  0  0  0
 28 29  1  0  0  0  0
 29 32  1  0  0  0  0
 30 33  1  0  0  0  0
 32 31  1  0  0  0  0
 33 31  1  0  0  0  0
 34 32  1  0  0  0  0
 34 30  1  0  0  0  0
M  END
>  <MODEL>
2

>  <REMARK>
 VINA RESULT:      -7.7      2.601      9.174
  Name = 
  3 active torsions:
  status: ('A' for Active; 'I' for Inactive)
    1  A    between atoms: C_17  and  O_28
    2  A    between atoms: O_28  and  O_29
    3  A    between atoms: O_29  and  C_32
                            x       y       z     vdW  Elec       q    Type
                         _______ _______ _______ _____ _____    ______ ____

>  <TORSDO>
F 3

$$$$
