=
 OpenBabel11122413153D

 31 36  0  0  1  0  0  0  0  0999 V2000
  160.5690  207.5010  156.3240 C   0  0  0  0  0  0  0  0  0  0  0  0
  161.8200  208.8490  152.9960 C   0  0  2  0  0  3  0  0  0  0  0  0
  161.4120  207.8310  151.9280 C   0  0  0  0  0  0  0  0  0  0  0  0
  161.2450  205.3790  151.3130 C   0  0  1  0  0  3  0  0  0  0  0  0
  161.0320  208.7260  154.2780 C   0  0  0  0  0  0  0  0  0  0  0  0
  159.5400  208.3930  156.6310 C   0  0  0  0  0  3  0  0  0  0  0  0
  161.0040  206.4410  152.3750 C   0  0  0  0  0  2  0  0  0  0  0  0
  160.4080  210.8670  152.4090 C   0  0  2  0  0  3  0  0  0  0  0  0
  160.8430  206.4700  157.1600 F   0  0  0  0  0  0  0  0  0  0  0  0
  161.8440  209.5090  150.1080 C   0  0  0  0  0  2  0  0  0  0  0  0
  160.6830  204.1720  151.7270 O   0  0  0  0  0  1  0  0  0  0  0  0
  159.7630  210.8810  153.7950 C   0  0  0  0  0  2  0  0  0  0  0  0
  161.8400  210.3010  152.4880 C   0  0  2  0  0  3  0  0  0  0  0  0
  161.3140  207.6690  155.1550 C   0  0  0  0  0  3  0  0  0  0  0  0
  160.5830  205.8310  150.0260 C   0  0  0  0  0  2  0  0  0  0  0  0
  159.9980  209.6330  154.5960 C   0  0  0  0  0  0  0  0  0  0  0  0
  159.2640  209.4610  155.7750 C   0  0  0  0  0  3  0  0  0  0  0  0
  162.5800  210.3420  151.1520 C   0  0  0  0  0  2  0  0  0  0  0  0
  161.4930  208.1300  150.5990 C   0  0  0  0  0  0  0  0  0  0  0  0
  161.2770  207.0920  149.5230 C   0  0  0  0  0  2  0  0  0  0  0  0
  159.0520  212.7530  151.8760 O   0  0  0  0  0  0  0  0  0  0  0  0
  159.5680  212.3650  150.6270 C   0  0  2  0  0  3  0  0  0  0  0  0
  160.3820  212.2910  151.8630 C   0  0  2  0  0  3  0  0  0  0  0  0
  158.2820  213.4400  147.3430 C   0  0  1  0  0  3  0  0  0  0  0  0
  158.6130  214.4530  149.6220 C   0  0  0  0  0  2  0  0  0  0  0  0
  161.7530  212.5800  148.5820 N   0  0  0  0  0  1  0  0  0  0  0  0
  157.3030  212.6950  146.4620 C   0  0  0  0  0  1  0  0  0  0  0  0
  157.6290  213.7420  148.6900 C   0  0  0  0  0  2  0  0  0  0  0  0
  160.5150  213.3300  148.4500 C   0  0  2  0  0  3  0  0  0  0  0  0
  159.8870  213.6250  149.8200 C   0  0  2  0  0  3  0  0  0  0  0  0
  159.5390  212.5960  147.5330 C   0  0  0  0  0  2  0  0  0  0  0  0
  1  6  1  0  0  0  0
  1  9  1  0  0  0  0
  2  3  1  6  0  0  0
  2  5  1  0  0  0  0
  3  7  1  0  0  0  0
  4 11  1  1  0  0  0
  4  7  1  0  0  0  0
  5 16  2  0  0  0  0
  5 14  1  0  0  0  0
  8 13  1  0  0  0  0
  8 12  1  1  0  0  0
 10 19  1  0  0  0  0
 10 18  1  0  0  0  0
 12 16  1  0  0  0  0
 13 18  1  6  0  0  0
 13  2  1  0  0  0  0
 14  1  2  0  0  0  0
 15  4  1  0  0  0  0
 16 17  1  0  0  0  0
 17  6  2  0  0  0  0
 19  3  2  0  0  0  0
 20 15  1  0  0  0  0
 20 19  1  0  0  0  0
 22 23  1  0  0  0  0
 22 21  1  1  0  0  0
 23 21  1  1  0  0  0
 23  8  1  0  0  0  0
 24 27  1  6  0  0  0
 24 31  1  0  0  0  0
 24 28  1  0  0  0  0
 28 25  1  0  0  0  0
 29 26  1  1  0  0  0
 29 30  1  0  0  0  0
 30 25  1  6  0  0  0
 30 22  1  0  0  0  0
 31 29  1  0  0  0  0
M  END
>  <MODEL>
1

>  <REMARK>
 VINA RESULT:      -7.1      0.000      0.000
  Name = 
  2 active torsions:
  status: ('A' for Active; 'I' for Inactive)
    1  A    between atoms: C_5  and  C_30
    2  A    between atoms: C_10  and  C_16
                            x       y       z     vdW  Elec       q    Type
                         _______ _______ _______ _____ _____    ______ ____

>  <TORSDO>
F 2

$$$$
=
 OpenBabel11122413153D

 31 36  0  0  1  0  0  0  0  0999 V2000
  160.9050  206.6820  146.6970 C   0  0  0  0  0  0  0  0  0  0  0  0
  160.3010  204.9060  150.0040 C   0  0  2  0  0  3  0  0  0  0  0  0
  160.7850  203.4650  149.8250 C   0  0  0  0  0  0  0  0  0  0  0  0
  160.8450  201.4400  148.3040 C   0  0  1  0  0  3  0  0  0  0  0  0
  160.8680  205.8630  148.9840 C   0  0  0  0  0  0  0  0  0  0  0  0
  161.9440  207.5570  147.0230 C   0  0  0  0  0  3  0  0  0  0  0  0
  161.0040  202.9480  148.4160 C   0  0  0  0  0  2  0  0  0  0  0  0
  161.9460  205.8400  151.6870 C   0  0  2  0  0  3  0  0  0  0  0  0
  160.4220  206.6470  145.4330 F   0  0  0  0  0  0  0  0  0  0  0  0
  160.7790  203.1110  152.3120 C   0  0  0  0  0  2  0  0  0  0  0  0
  161.2360  201.0250  147.0310 O   0  0  0  0  0  1  0  0  0  0  0  0
  162.3680  206.9550  150.7290 C   0  0  0  0  0  2  0  0  0  0  0  0
  160.4780  205.4410  151.4360 C   0  0  2  0  0  3  0  0  0  0  0  0
  160.3680  205.8420  147.6750 C   0  0  0  0  0  3  0  0  0  0  0  0
  161.7340  200.7860  149.3440 C   0  0  0  0  0  2  0  0  0  0  0  0
  161.9100  206.7570  149.3140 C   0  0  0  0  0  0  0  0  0  0  0  0
  162.4360  207.6010  148.3290 C   0  0  0  0  0  3  0  0  0  0  0  0
  159.9610  204.3930  152.4180 C   0  0  0  0  0  2  0  0  0  0  0  0
  160.9360  202.6320  150.8940 C   0  0  0  0  0  0  0  0  0  0  0  0
  161.2320  201.1580  150.7350 C   0  0  0  0  0  2  0  0  0  0  0  0
  160.9910  206.1340  153.8500 O   0  0  0  0  0  0  0  0  0  0  0  0
  161.2580  207.4500  153.4350 C   0  0  2  0  0  3  0  0  0  0  0  0
  162.1730  206.3310  153.1120 C   0  0  2  0  0  3  0  0  0  0  0  0
  159.4770  209.9340  155.4990 C   0  0  1  0  0  3  0  0  0  0  0  0
  160.9140  207.9030  155.8760 C   0  0  0  0  0  2  0  0  0  0  0  0
  162.5380  210.1600  153.2850 N   0  0  0  0  0  1  0  0  0  0  0  0
  158.0530  210.4130  155.3170 C   0  0  0  0  0  1  0  0  0  0  0  0
  159.4810  208.4250  155.7380 C   0  0  0  0  0  2  0  0  0  0  0  0
  161.7220  209.7700  154.4220 C   0  0  2  0  0  3  0  0  0  0  0  0
  161.7530  208.2500  154.6420 C   0  0  2  0  0  3  0  0  0  0  0  0
  160.2930  210.2830  154.2570 C   0  0  0  0  0  2  0  0  0  0  0  0
  1  6  2  0  0  0  0
  1 14  1  0  0  0  0
  2  5  1  6  0  0  0
  2 13  1  0  0  0  0
  3  2  1  0  0  0  0
  3 19  2  0  0  0  0
  4 11  1  6  0  0  0
  4  7  1  0  0  0  0
  4 15  1  0  0  0  0
  5 16  1  0  0  0  0
  6 17  1  0  0  0  0
  7  3  1  0  0  0  0
  8 12  1  6  0  0  0
  8 23  1  0  0  0  0
  9  1  1  0  0  0  0
 10 18  1  0  0  0  0
 13  8  1  0  0  0  0
 13 18  1  1  0  0  0
 14  5  2  0  0  0  0
 15 20  1  0  0  0  0
 16 12  1  0  0  0  0
 17 16  2  0  0  0  0
 19 10  1  0  0  0  0
 20 19  1  0  0  0  0
 22 21  1  1  0  0  0
 22 30  1  0  0  0  0
 23 22  1  0  0  0  0
 23 21  1  1  0  0  0
 24 27  1  6  0  0  0
 24 28  1  0  0  0  0
 28 25  1  0  0  0  0
 29 26  1  6  0  0  0
 29 30  1  0  0  0  0
 30 25  1  1  0  0  0
 31 29  1  0  0  0  0
 31 24  1  0  0  0  0
M  END
>  <MODEL>
2

>  <REMARK>
 VINA RESULT:      -5.8      4.338      7.156
  Name = 
  2 active torsions:
  status: ('A' for Active; 'I' for Inactive)
    1  A    between atoms: C_5  and  C_30
    2  A    between atoms: C_10  and  C_16
                            x       y       z     vdW  Elec       q    Type
                         _______ _______ _______ _____ _____    ______ ____

>  <TORSDO>
F 2

$$$$
=
 OpenBabel11122413153D

 31 36  0  0  1  0  0  0  0  0999 V2000
  160.9720  204.9410  145.1860 C   0  0  0  0  0  0  0  0  0  0  0  0
  160.5330  205.0850  148.9600 C   0  0  2  0  0  3  0  0  0  0  0  0
  160.9400  203.7130  149.5030 C   0  0  0  0  0  0  0  0  0  0  0  0
  160.8030  201.2020  149.1940 C   0  0  1  0  0  3  0  0  0  0  0  0
  161.0650  205.3670  147.5760 C   0  0  0  0  0  0  0  0  0  0  0  0
  162.0690  205.7830  144.9880 C   0  0  0  0  0  3  0  0  0  0  0  0
  161.0340  202.5520  148.5320 C   0  0  0  0  0  2  0  0  0  0  0  0
  162.3350  206.6060  149.8820 C   0  0  2  0  0  3  0  0  0  0  0  0
  160.3970  204.3190  144.1290 F   0  0  0  0  0  0  0  0  0  0  0  0
  161.1000  204.6400  151.8340 C   0  0  0  0  0  2  0  0  0  0  0  0
  161.0810  200.1850  148.2830 O   0  0  0  0  0  1  0  0  0  0  0  0
  162.7340  207.0660  148.4800 C   0  0  0  0  0  2  0  0  0  0  0  0
  160.8360  206.2450  149.9250 C   0  0  2  0  0  3  0  0  0  0  0  0
  160.4710  204.7370  146.4740 C   0  0  0  0  0  3  0  0  0  0  0  0
  161.7350  201.0870  150.3840 C   0  0  0  0  0  2  0  0  0  0  0  0
  162.1670  206.2270  147.3720 C   0  0  0  0  0  0  0  0  0  0  0  0
  162.6550  206.4320  146.0770 C   0  0  0  0  0  3  0  0  0  0  0  0
  160.3470  205.8620  151.3200 C   0  0  0  0  0  2  0  0  0  0  0  0
  161.1320  203.5110  150.8390 C   0  0  0  0  0  0  0  0  0  0  0  0
  161.3520  202.1350  151.4230 C   0  0  0  0  0  2  0  0  0  0  0  0
  161.5900  207.9270  151.7210 O   0  0  0  0  0  0  0  0  0  0  0  0
  161.7700  208.8730  150.6970 C   0  0  2  0  0  3  0  0  0  0  0  0
  162.6860  207.7210  150.8620 C   0  0  2  0  0  3  0  0  0  0  0  0
  160.0630  211.6460  152.4290 C   0  0  1  0  0  3  0  0  0  0  0  0
  162.0700  210.1790  152.8160 C   0  0  0  0  0  2  0  0  0  0  0  0
  162.1000  211.4770  149.2440 N   0  0  0  0  0  1  0  0  0  0  0  0
  158.5760  211.7840  152.6790 C   0  0  0  0  0  1  0  0  0  0  0  0
  160.5770  210.3710  153.0940 C   0  0  0  0  0  2  0  0  0  0  0  0
  161.8180  211.4360  150.6680 C   0  0  2  0  0  3  0  0  0  0  0  0
  162.3540  210.1470  151.3110 C   0  0  2  0  0  3  0  0  0  0  0  0
  160.3230  211.6090  150.9250 C   0  0  0  0  0  2  0  0  0  0  0  0
  1 14  1  0  0  0  0
  2  5  1  6  0  0  0
  2  3  1  0  0  0  0
  2 13  1  0  0  0  0
  3 19  2  0  0  0  0
  4 11  1  6  0  0  0
  4 15  1  0  0  0  0
  6  1  2  0  0  0  0
  6 17  1  0  0  0  0
  7  4  1  0  0  0  0
  7  3  1  0  0  0  0
  8 12  1  6  0  0  0
  8 13  1  0  0  0  0
  8 23  1  0  0  0  0
  9  1  1  0  0  0  0
 13 18  1  1  0  0  0
 14  5  2  0  0  0  0
 15 20  1  0  0  0  0
 16  5  1  0  0  0  0
 16 12  1  0  0  0  0
 17 16  2  0  0  0  0
 18 10  1  0  0  0  0
 19 20  1  0  0  0  0
 19 10  1  0  0  0  0
 22 23  1  0  0  0  0
 22 30  1  0  0  0  0
 22 21  1  1  0  0  0
 23 21  1  1  0  0  0
 24 27  1  6  0  0  0
 24 28  1  0  0  0  0
 25 28  1  0  0  0  0
 29 26  1  6  0  0  0
 29 31  1  0  0  0  0
 29 30  1  0  0  0  0
 30 25  1  1  0  0  0
 31 24  1  0  0  0  0
M  END
>  <MODEL>
3

>  <REMARK>
 VINA RESULT:      -4.7      3.632      6.758
  Name = 
  2 active torsions:
  status: ('A' for Active; 'I' for Inactive)
    1  A    between atoms: C_5  and  C_30
    2  A    between atoms: C_10  and  C_16
                            x       y       z     vdW  Elec       q    Type
                         _______ _______ _______ _____ _____    ______ ____

>  <TORSDO>
F 2

$$$$
=
 OpenBabel11122413153D

 31 36  0  0  1  0  0  0  0  0999 V2000
  161.0200  206.4100  154.7200 C   0  0  0  0  0  0  0  0  0  0  0  0
  162.0620  208.3330  151.6100 C   0  0  2  0  0  3  0  0  0  0  0  0
  161.5070  207.5620  150.4090 C   0  0  0  0  0  0  0  0  0  0  0  0
  161.1460  205.2870  149.3540 C   0  0  1  0  0  3  0  0  0  0  0  0
  161.3790  207.9930  152.9120 C   0  0  0  0  0  0  0  0  0  0  0  0
  160.0740  207.2660  155.2870 C   0  0  0  0  0  3  0  0  0  0  0  0
  161.0580  206.1280  150.6180 C   0  0  0  0  0  2  0  0  0  0  0  0
  160.7250  210.4830  151.5550 C   0  0  2  0  0  3  0  0  0  0  0  0
  161.3030  205.2260  155.3130 F   0  0  0  0  0  0  0  0  0  0  0  0
  161.8800  209.5450  148.9120 C   0  0  0  0  0  2  0  0  0  0  0  0
  160.5530  204.0460  149.5810 O   0  0  0  0  0  1  0  0  0  0  0  0
  160.2000  210.2500  152.9730 C   0  0  0  0  0  2  0  0  0  0  0  0
  162.1230  209.8540  151.3890 C   0  0  2  0  0  3  0  0  0  0  0  0
  161.6720  206.7740  153.5400 C   0  0  0  0  0  3  0  0  0  0  0  0
  160.4050  206.0080  148.2460 C   0  0  0  0  0  2  0  0  0  0  0  0
  160.4290  208.8610  153.4940 C   0  0  0  0  0  0  0  0  0  0  0  0
  159.7890  208.4920  154.6820 C   0  0  0  0  0  3  0  0  0  0  0  0
  162.7480  210.1260  150.0230 C   0  0  0  0  0  2  0  0  0  0  0  0
  161.4930  208.1120  149.1610 C   0  0  0  0  0  0  0  0  0  0  0  0
  161.1260  207.3140  147.9310 C   0  0  0  0  0  2  0  0  0  0  0  0
  159.5460  212.5380  151.8090 O   0  0  0  0  0  0  0  0  0  0  0  0
  159.6110  212.3750  150.4140 C   0  0  2  0  0  3  0  0  0  0  0  0
  160.7350  211.9850  151.2970 C   0  0  2  0  0  3  0  0  0  0  0  0
  158.4760  213.6760  147.1560 C   0  0  1  0  0  3  0  0  0  0  0  0
  158.5080  214.4530  149.5490 C   0  0  0  0  0  2  0  0  0  0  0  0
  161.9130  213.0480  148.6110 N   0  0  0  0  0  1  0  0  0  0  0  0
  157.6620  212.9380  146.1160 C   0  0  0  0  0  1  0  0  0  0  0  0
  157.6880  213.7530  148.4610 C   0  0  0  0  0  2  0  0  0  0  0  0
  160.6130  213.6740  148.4450 C   0  0  2  0  0  3  0  0  0  0  0  0
  159.8480  213.7450  149.7750 C   0  0  2  0  0  3  0  0  0  0  0  0
  159.8020  212.9510  147.3710 C   0  0  0  0  0  2  0  0  0  0  0  0
  1  6  1  0  0  0  0
  1  9  1  0  0  0  0
  2  3  1  6  0  0  0
  2  5  1  0  0  0  0
  3  7  1  0  0  0  0
  4 11  1  1  0  0  0
  4  7  1  0  0  0  0
  5 16  2  0  0  0  0
  5 14  1  0  0  0  0
  8 12  1  1  0  0  0
 10 19  1  0  0  0  0
 10 18  1  0  0  0  0
 12 16  1  0  0  0  0
 13 18  1  6  0  0  0
 13  8  1  0  0  0  0
 13  2  1  0  0  0  0
 14  1  2  0  0  0  0
 15  4  1  0  0  0  0
 16 17  1  0  0  0  0
 17  6  2  0  0  0  0
 19  3  2  0  0  0  0
 20 15  1  0  0  0  0
 20 19  1  0  0  0  0
 22 23  1  0  0  0  0
 22 21  1  1  0  0  0
 23  8  1  0  0  0  0
 23 21  1  1  0  0  0
 24 27  1  6  0  0  0
 24 31  1  0  0  0  0
 24 28  1  0  0  0  0
 28 25  1  0  0  0  0
 29 26  1  1  0  0  0
 29 30  1  0  0  0  0
 30 25  1  6  0  0  0
 30 22  1  0  0  0  0
 31 29  1  0  0  0  0
M  END
>  <MODEL>
4

>  <REMARK>
 VINA RESULT:      -4.5      1.063      1.341
  Name = 
  2 active torsions:
  status: ('A' for Active; 'I' for Inactive)
    1  A    between atoms: C_5  and  C_30
    2  A    between atoms: C_10  and  C_16
                            x       y       z     vdW  Elec       q    Type
                         _______ _______ _______ _____ _____    ______ ____

>  <TORSDO>
F 2

$$$$
=
 OpenBabel11122413153D

 31 36  0  0  1  0  0  0  0  0999 V2000
  160.8640  201.4910  149.2280 C   0  0  0  0  0  0  0  0  0  0  0  0
  162.2880  204.9100  150.0890 C   0  0  2  0  0  3  0  0  0  0  0  0
  161.7120  205.8960  149.0690 C   0  0  0  0  0  0  0  0  0  0  0  0
  161.1460  206.3150  146.6360 C   0  0  1  0  0  3  0  0  0  0  0  0
  161.5010  203.6260  150.1960 C   0  0  0  0  0  0  0  0  0  0  0  0
  159.9940  201.2610  150.2960 C   0  0  0  0  0  3  0  0  0  0  0  0
  161.0890  205.3410  147.8030 C   0  0  0  0  0  2  0  0  0  0  0  0
  161.2150  205.6620  152.2560 C   0  0  2  0  0  3  0  0  0  0  0  0
  160.9750  200.5750  148.2360 F   0  0  0  0  0  0  0  0  0  0  0  0
  162.3940  207.8410  150.5060 C   0  0  0  0  0  2  0  0  0  0  0  0
  160.4010  205.8090  145.5720 O   0  0  0  0  0  1  0  0  0  0  0  0
  160.5910  204.2840  152.4830 C   0  0  0  0  0  2  0  0  0  0  0  0
  162.5380  205.5320  151.4740 C   0  0  2  0  0  3  0  0  0  0  0  0
  161.6160  202.6670  149.1810 C   0  0  0  0  0  3  0  0  0  0  0  0
  160.5550  207.6360  147.0850 C   0  0  0  0  0  2  0  0  0  0  0  0
  160.6290  203.3860  151.2810 C   0  0  0  0  0  0  0  0  0  0  0  0
  159.8870  202.2000  151.3240 C   0  0  0  0  0  3  0  0  0  0  0  0
  163.2630  206.8630  151.2890 C   0  0  0  0  0  2  0  0  0  0  0  0
  161.8290  207.2430  149.2460 C   0  0  0  0  0  0  0  0  0  0  0  0
  161.4390  208.2350  148.1740 C   0  0  0  0  0  2  0  0  0  0  0  0
  160.1550  206.4880  154.2240 O   0  0  0  0  0  0  0  0  0  0  0  0
  160.7420  207.6380  153.6680 C   0  0  2  0  0  3  0  0  0  0  0  0
  161.4140  206.3190  153.6170 C   0  0  2  0  0  3  0  0  0  0  0  0
  159.1920  210.5060  155.3910 C   0  0  1  0  0  3  0  0  0  0  0  0
  160.3800  208.3830  156.0330 C   0  0  0  0  0  2  0  0  0  0  0  0
  162.3220  210.1610  153.2920 N   0  0  0  0  0  1  0  0  0  0  0  0
  157.8370  211.1160  155.1030 C   0  0  0  0  0  1  0  0  0  0  0  0
  159.0200  209.0410  155.7840 C   0  0  0  0  0  2  0  0  0  0  0  0
  161.4350  209.9860  154.4290 C   0  0  2  0  0  3  0  0  0  0  0  0
  161.2880  208.5030  154.8050 C   0  0  2  0  0  3  0  0  0  0  0  0
  160.0780  210.6300  154.1540 C   0  0  0  0  0  2  0  0  0  0  0  0
  1  6  1  0  0  0  0
  2  3  1  6  0  0  0
  2  5  1  0  0  0  0
  2 13  1  0  0  0  0
  3 19  2  0  0  0  0
  4 11  1  6  0  0  0
  4 15  1  0  0  0  0
  4  7  1  0  0  0  0
  5 16  2  0  0  0  0
  6 17  2  0  0  0  0
  7  3  1  0  0  0  0
  8 12  1  1  0  0  0
  8 23  1  0  0  0  0
  9  1  1  0  0  0  0
 10 18  1  0  0  0  0
 13 18  1  6  0  0  0
 13  8  1  0  0  0  0
 14  1  2  0  0  0  0
 14  5  1  0  0  0  0
 15 20  1  0  0  0  0
 16 17  1  0  0  0  0
 16 12  1  0  0  0  0
 19 10  1  0  0  0  0
 20 19  1  0  0  0  0
 22 21  1  1  0  0  0
 22 30  1  0  0  0  0
 23 22  1  0  0  0  0
 23 21  1  1  0  0  0
 24 27  1  6  0  0  0
 24 28  1  0  0  0  0
 28 25  1  0  0  0  0
 29 26  1  6  0  0  0
 29 30  1  0  0  0  0
 30 25  1  1  0  0  0
 31 29  1  0  0  0  0
 31 24  1  0  0  0  0
M  END
>  <MODEL>
5

>  <REMARK>
 VINA RESULT:      -4.5      3.984      6.661
  Name = 
  2 active torsions:
  status: ('A' for Active; 'I' for Inactive)
    1  A    between atoms: C_5  and  C_30
    2  A    between atoms: C_10  and  C_16
                            x       y       z     vdW  Elec       q    Type
                         _______ _______ _______ _____ _____    ______ ____

>  <TORSDO>
F 2

$$$$
