=
 OpenBabel11122414103D

 28 32  0  0  1  0  0  0  0  0999 V2000
  159.4260  210.7840  139.6680 C   0  0  0  0  0  0  0  0  0  0  0  0
  159.6930  214.2070  143.6420 C   0  0  0  0  0  1  0  0  0  0  0  0
  162.0120  214.1440  137.3790 O   0  0  0  0  0  0  0  0  0  0  0  0
  161.8920  209.4560  139.6260 C   0  0  0  0  0  3  0  0  0  0  0  0
  162.7910  214.2980  139.6580 C   0  0  1  0  0  3  0  0  0  0  0  0
  158.1190  211.5160  139.6220 C   0  0  0  0  0  2  0  0  0  0  0  0
  159.6900  211.8350  144.3140 C   0  0  0  0  0  1  0  0  0  0  0  0
  160.5670  212.9690  143.8170 C   0  0  0  0  0  0  0  0  0  0  0  0
  162.6870  213.9820  144.4810 C   0  0  0  0  0  0  0  0  0  0  0  0
  161.2530  212.5400  142.4990 C   0  0  2  0  0  3  0  0  0  0  0  0
  159.8500  212.1490  137.0110 O   0  0  0  0  0  1  0  0  0  0  0  0
  160.5300  213.8560  140.5780 C   0  0  1  0  0  3  0  0  0  0  0  0
  163.0040  214.2070  143.1420 O   0  0  0  0  0  0  0  0  0  0  0  0
  161.5530  213.2430  144.8050 O   0  0  0  0  0  0  0  0  0  0  0  0
  158.7900  212.8920  137.5320 C   0  0  2  0  0  3  0  0  0  0  0  0
  160.4960  211.2800  140.4380 C   0  0  0  0  0  0  0  0  0  0  0  0
  161.7730  214.0510  138.6130 C   0  0  0  0  0  0  0  0  0  0  0  0
  163.4170  214.4530  145.3910 O   0  0  0  0  0  0  0  0  0  0  0  0
  159.2660  214.0710  138.3860 C   0  0  0  0  0  2  0  0  0  0  0  0
  161.7330  210.6130  140.3910 C   0  0  0  0  0  3  0  0  0  0  0  0
  159.5880  209.6120  138.9160 C   0  0  0  0  0  3  0  0  0  0  0  0
  160.8160  208.9510  138.8970 C   0  0  0  0  0  3  0  0  0  0  0  0
  157.7530  211.9920  138.2140 C   0  0  0  0  0  2  0  0  0  0  0  0
  161.9400  214.3340  140.9500 C   0  0  1  0  0  3  0  0  0  0  0  0
  160.4850  213.7630  139.1270 N   0  0  0  0  0  0  0  0  0  0  0  0
  162.4300  213.4360  142.0830 C   0  0  2  0  0  3  0  0  0  0  0  0
  163.8380  213.1910  139.6200 C   0  0  0  0  0  1  0  0  0  0  0  0
  160.3070  212.5170  141.2980 C   0  0  1  0  0  3  0  0  0  0  0  0
  1 16  1  0  0  0  0
  2  8  1  0  0  0  0
  3 17  2  0  0  0  0
  4 20  1  0  0  0  0
  5 27  1  1  0  0  0
  5 24  1  0  0  0  0
  6  1  1  0  0  0  0
  8  7  1  0  0  0  0
  8 14  1  0  0  0  0
  9 14  1  0  0  0  0
  9 18  2  0  0  0  0
 10  8  1  1  0  0  0
 12 25  1  6  0  0  0
 12 24  1  0  0  0  0
 12 28  1  0  0  0  0
 13  9  1  0  0  0  0
 15 11  1  1  0  0  0
 15 23  1  0  0  0  0
 15 19  1  0  0  0  0
 16 28  1  0  0  0  0
 17 25  1  0  0  0  0
 17  5  1  0  0  0  0
 19 25  1  0  0  0  0
 20 16  2  0  0  0  0
 21  1  2  0  0  0  0
 22 21  1  0  0  0  0
 22  4  2  0  0  0  0
 23  6  1  0  0  0  0
 24 26  1  0  0  0  0
 26 10  1  0  0  0  0
 26 13  1  0  0  0  0
 28 10  1  0  0  0  0
M  END
>  <MODEL>
1

>  <REMARK>
 VINA RESULT:      -4.6      0.000      0.000
  Name = 
  0 active torsions:
  status: ('A' for Active; 'I' for Inactive)
                            x       y       z     vdW  Elec       q    Type
                         _______ _______ _______ _____ _____    ______ ____

>  <TORSDO>
F 0

$$$$
=
 OpenBabel11122414103D

 28 32  0  0  1  0  0  0  0  0999 V2000
  161.1250  209.6340  156.4580 C   0  0  0  0  0  0  0  0  0  0  0  0
  157.3840  211.8170  153.4870 C   0  0  0  0  0  1  0  0  0  0  0  0
  162.0990  207.2100  152.4090 O   0  0  0  0  0  0  0  0  0  0  0  0
  163.5120  210.9240  155.7630 C   0  0  0  0  0  3  0  0  0  0  0  0
  161.3780  209.3700  151.6070 C   0  0  1  0  0  3  0  0  0  0  0  0
  159.8780  208.8820  156.8100 C   0  0  0  0  0  2  0  0  0  0  0  0
  158.3720  213.3140  155.1780 C   0  0  0  0  0  1  0  0  0  0  0  0
  158.5640  212.7350  153.7890 C   0  0  0  0  0  0  0  0  0  0  0  0
  159.0590  213.6110  151.5640 C   0  0  0  0  0  0  0  0  0  0  0  0
  159.9190  211.9920  153.7330 C   0  0  2  0  0  3  0  0  0  0  0  0
  161.9780  206.9570  155.3610 O   0  0  0  0  0  1  0  0  0  0  0  0
  159.6740  209.5890  153.3950 C   0  0  1  0  0  3  0  0  0  0  0  0
  159.8160  212.4750  151.2810 O   0  0  0  0  0  0  0  0  0  0  0  0
  158.5630  213.8040  152.8500 O   0  0  0  0  0  0  0  0  0  0  0  0
  160.6010  206.7680  155.4970 C   0  0  2  0  0  3  0  0  0  0  0  0
  161.1640  210.4570  155.3150 C   0  0  0  0  0  0  0  0  0  0  0  0
  161.3730  208.2310  152.5510 C   0  0  0  0  0  0  0  0  0  0  0  0
  158.8180  214.4520  150.6600 O   0  0  0  0  0  0  0  0  0  0  0  0
  159.8250  207.2030  154.2500 C   0  0  0  0  0  2  0  0  0  0  0  0
  162.3750  211.0820  154.9690 C   0  0  0  0  0  3  0  0  0  0  0  0
  162.2660  209.4940  157.2610 C   0  0  0  0  0  3  0  0  0  0  0  0
  163.4540  210.1380  156.9140 C   0  0  0  0  0  3  0  0  0  0  0  0
  160.0790  207.3640  156.8090 C   0  0  0  0  0  2  0  0  0  0  0  0
  160.1480  210.1880  152.0640 C   0  0  1  0  0  3  0  0  0  0  0  0
  160.4270  208.3610  153.5980 N   0  0  0  0  0  0  0  0  0  0  0  0
  160.4020  211.6730  152.3090 C   0  0  2  0  0  3  0  0  0  0  0  0
  162.7060  210.1100  151.7110 C   0  0  0  0  0  1  0  0  0  0  0  0
  159.9150  210.6560  154.4760 C   0  0  1  0  0  3  0  0  0  0  0  0
  1  6  1  0  0  0  0
  1 21  1  0  0  0  0
  2  8  1  0  0  0  0
  3 17  2  0  0  0  0
  4 22  1  0  0  0  0
  5 27  1  1  0  0  0
  5 24  1  0  0  0  0
  5 17  1  0  0  0  0
  8  7  1  0  0  0  0
  9 14  1  0  0  0  0
 10  8  1  6  0  0  0
 10 28  1  0  0  0  0
 12 25  1  1  0  0  0
 12 28  1  0  0  0  0
 13  9  1  0  0  0  0
 13 26  1  0  0  0  0
 14  8  1  0  0  0  0
 15 11  1  6  0  0  0
 15 23  1  0  0  0  0
 16  1  2  0  0  0  0
 17 25  1  0  0  0  0
 18  9  2  0  0  0  0
 19 15  1  0  0  0  0
 20 16  1  0  0  0  0
 20  4  2  0  0  0  0
 22 21  2  0  0  0  0
 23  6  1  0  0  0  0
 24 26  1  0  0  0  0
 24 12  1  0  0  0  0
 25 19  1  0  0  0  0
 26 10  1  0  0  0  0
 28 16  1  0  0  0  0
M  END
>  <MODEL>
2

>  <REMARK>
 VINA RESULT:      -2.1     11.398     14.372
  Name = 
  0 active torsions:
  status: ('A' for Active; 'I' for Inactive)
                            x       y       z     vdW  Elec       q    Type
                         _______ _______ _______ _____ _____    ______ ____

>  <TORSDO>
F 0

$$$$
=
 OpenBabel11122414103D

 28 32  0  0  1  0  0  0  0  0999 V2000
  160.3360  210.2390  156.2470 C   0  0  0  0  0  0  0  0  0  0  0  0
  155.2940  210.5850  154.8200 C   0  0  0  0  0  1  0  0  0  0  0  0
  161.1010  211.8170  151.7580 O   0  0  0  0  0  0  0  0  0  0  0  0
  161.1470  212.8510  156.8540 C   0  0  0  0  0  3  0  0  0  0  0  0
  159.0530  212.9240  152.3980 C   0  0  1  0  0  3  0  0  0  0  0  0
  159.9550  208.8400  155.8720 C   0  0  0  0  0  2  0  0  0  0  0  0
  155.7380  211.0880  157.1920 C   0  0  0  0  0  1  0  0  0  0  0  0
  155.7500  211.6690  155.7910 C   0  0  0  0  0  0  0  0  0  0  0  0
  154.8720  213.6720  154.7030 C   0  0  0  0  0  0  0  0  0  0  0  0
  157.1700  212.1900  155.4700 C   0  0  2  0  0  3  0  0  0  0  0  0
  162.1440  209.9870  153.8450 O   0  0  0  0  0  1  0  0  0  0  0  0
  158.2530  210.9520  153.6700 C   0  0  1  0  0  3  0  0  0  0  0  0
  155.9940  213.7210  153.8790 O   0  0  0  0  0  0  0  0  0  0  0  0
  154.8200  212.7460  155.7420 O   0  0  0  0  0  0  0  0  0  0  0  0
  161.2690  208.9180  153.6400 C   0  0  2  0  0  3  0  0  0  0  0  0
  159.5110  211.3240  155.8920 C   0  0  0  0  0  0  0  0  0  0  0  0
  160.0200  211.8040  152.4060 C   0  0  0  0  0  0  0  0  0  0  0  0
  153.9050  214.4530  154.5050 O   0  0  0  0  0  0  0  0  0  0  0  0
  160.0230  209.3250  152.8490 C   0  0  0  0  0  2  0  0  0  0  0  0
  159.9410  212.6300  156.1870 C   0  0  0  0  0  3  0  0  0  0  0  0
  161.5380  210.4680  156.9320 C   0  0  0  0  0  3  0  0  0  0  0  0
  161.9400  211.7690  157.2350 C   0  0  0  0  0  3  0  0  0  0  0  0
  160.9770  208.1720  154.9470 C   0  0  0  0  0  2  0  0  0  0  0  0
  157.8170  212.3040  153.0910 C   0  0  1  0  0  3  0  0  0  0  0  0
  159.5880  210.6840  153.1590 N   0  0  0  0  0  0  0  0  0  0  0  0
  157.2370  213.1170  154.2460 C   0  0  2  0  0  3  0  0  0  0  0  0
  159.6550  214.1210  153.1260 C   0  0  0  0  0  1  0  0  0  0  0  0
  158.1820  211.0770  155.2000 C   0  0  1  0  0  3  0  0  0  0  0  0
  1 21  1  0  0  0  0
  2  8  1  0  0  0  0
  3 17  2  0  0  0  0
  4 22  1  0  0  0  0
  5 17  1  0  0  0  0
  5 24  1  0  0  0  0
  5 27  1  1  0  0  0
  6  1  1  0  0  0  0
  8  7  1  0  0  0  0
  9 14  1  0  0  0  0
 10  8  1  6  0  0  0
 12 25  1  1  0  0  0
 12 28  1  0  0  0  0
 13 26  1  0  0  0  0
 13  9  1  0  0  0  0
 14  8  1  0  0  0  0
 15 11  1  1  0  0  0
 15 23  1  0  0  0  0
 16 20  1  0  0  0  0
 16  1  2  0  0  0  0
 17 25  1  0  0  0  0
 18  9  2  0  0  0  0
 19 25  1  0  0  0  0
 19 15  1  0  0  0  0
 20  4  2  0  0  0  0
 21 22  2  0  0  0  0
 23  6  1  0  0  0  0
 24 12  1  0  0  0  0
 24 26  1  0  0  0  0
 26 10  1  0  0  0  0
 28 10  1  0  0  0  0
 28 16  1  0  0  0  0
M  END
>  <MODEL>
3

>  <REMARK>
 VINA RESULT:      -2.0     12.092     14.917
  Name = 
  0 active torsions:
  status: ('A' for Active; 'I' for Inactive)
                            x       y       z     vdW  Elec       q    Type
                         _______ _______ _______ _____ _____    ______ ____

>  <TORSDO>
F 0

$$$$
