=
 OpenBabel11122412353D

 30 35  0  0  1  0  0  0  0  0999 V2000
  161.0390  204.9480  148.6240 C   0  0  1  0  0  3  0  0  0  0  0  0
  161.4180  202.3990  148.0650 C   0  0  0  0  0  0  0  0  0  0  0  0
  160.8520  203.8840  152.5700 N   0  0  0  0  0  2  0  0  0  0  0  0
  161.3530  205.8750  149.8110 C   0  0  1  0  0  3  0  0  0  0  0  0
  161.9510  205.1940  147.5720 O   0  0  0  0  0  0  0  0  0  0  0  0
  161.7120  208.8310  147.5150 O   0  0  0  0  0  1  0  0  0  0  0  0
  160.6420  208.6150  151.4870 C   0  0  1  0  0  3  0  0  0  0  0  0
  162.0090  207.5730  148.0430 C   0  0  2  0  0  3  0  0  0  0  0  0
  160.5430  207.5740  152.6070 C   0  0  2  0  0  3  0  0  0  0  0  0
  161.1880  205.1530  153.0790 C   0  0  0  0  0  0  0  0  0  0  0  0
  161.7020  206.4730  147.0210 C   0  0  2  0  0  3  0  0  0  0  0  0
  161.2460  207.3430  149.3510 C   0  0  2  0  0  3  0  0  0  0  0  0
  161.2190  201.1180  148.3760 C   0  0  0  0  0  3  0  0  0  0  0  0
  161.4160  208.1140  153.7210 C   0  0  0  0  0  2  0  0  0  0  0  0
  160.9310  209.9370  152.1820 C   0  0  0  0  0  2  0  0  0  0  0  0
  162.0250  202.6930  146.8110 N   0  0  0  0  0  1  0  0  0  0  0  0
  160.1890  204.1200  151.2960 C   0  0  1  0  0  3  0  0  0  0  0  0
  160.5150  200.7290  149.6380 C   0  0  0  0  0  2  0  0  0  0  0  0
  161.0470  203.4850  149.0270 C   0  0  0  0  0  0  0  0  0  0  0  0
  160.3820  205.6230  150.9650 C   0  0  1  0  0  3  0  0  0  0  0  0
  161.6780  205.3110  154.2290 O   0  0  0  0  0  0  0  0  0  0  0  0
  160.9220  206.2220  152.1830 N   0  0  0  0  0  0  0  0  0  0  0  0
  161.2790  209.6180  153.6290 C   0  0  0  0  0  2  0  0  0  0  0  0
  163.1110  208.0700  150.9540 C   0  0  0  0  0  1  0  0  0  0  0  0
  160.5970  201.7670  150.6120 O   0  0  0  0  0  0  0  0  0  0  0  0
  160.6360  203.1230  150.2620 C   0  0  0  0  0  0  0  0  0  0  0  0
  161.7100  208.3510  150.4110 C   0  0  2  0  0  3  0  0  0  0  0  0
  160.3120  206.5930  146.3860 C   0  0  0  0  0  2  0  0  0  0  0  0
  161.5280  205.7720  144.5150 O   0  0  0  0  0  1  0  0  0  0  0  0
  160.2600  205.8050  145.0910 C   0  0  0  0  0  2  0  0  0  0  0  0
  1  5  1  6  0  0  0
  1 19  1  0  0  0  0
  1  4  1  0  0  0  0
  2 13  2  0  0  0  0
  2 19  1  0  0  0  0
  3 10  1  0  0  0  0
  4 20  1  0  0  0  0
  6  8  1  0  0  0  0
  7 15  1  0  0  0  0
  7  9  1  0  0  0  0
  8 12  1  0  0  0  0
  9 14  1  0  0  0  0
 10 21  2  0  0  0  0
 11  5  1  0  0  0  0
 11  8  1  0  0  0  0
 12  4  1  0  0  0  0
 12 27  1  0  0  0  0
 13 18  1  0  0  0  0
 15 23  1  0  0  0  0
 16  2  1  0  0  0  0
 17  3  1  0  0  0  0
 18 25  1  0  0  0  0
 19 26  2  0  0  0  0
 20 17  1  0  0  0  0
 20 22  1  0  0  0  0
 22  9  1  0  0  0  0
 22 10  1  0  0  0  0
 23 14  1  0  0  0  0
 26 25  1  0  0  0  0
 26 17  1  0  0  0  0
 27 24  1  0  0  0  0
 27  7  1  0  0  0  0
 28 11  1  0  0  0  0
 29 30  1  0  0  0  0
 30 28  1  0  0  0  0
M  END
>  <MODEL>
1

>  <REMARK>
 VINA RESULT:      -6.2      0.000      0.000
  Name = 
  2 active torsions:
  status: ('A' for Active; 'I' for Inactive)
    1  A    between atoms: C_11  and  C_28
    2  A    between atoms: C_28  and  C_30
                            x       y       z     vdW  Elec       q    Type
                         _______ _______ _______ _____ _____    ______ ____

>  <TORSDO>
F 2

$$$$
=
 OpenBabel11122412353D

 30 35  0  0  1  0  0  0  0  0999 V2000
  161.3340  207.6310  151.4430 C   0  0  1  0  0  3  0  0  0  0  0  0
  162.2970  210.0080  150.8330 C   0  0  0  0  0  0  0  0  0  0  0  0
  161.7510  206.6320  147.4970 N   0  0  0  0  0  2  0  0  0  0  0  0
  161.5020  206.2010  150.8990 C   0  0  1  0  0  3  0  0  0  0  0  0
  162.0630  207.7730  152.6460 O   0  0  0  0  0  0  0  0  0  0  0  0
  160.9110  204.7450  154.3160 O   0  0  0  0  0  1  0  0  0  0  0  0
  160.2640  203.1710  150.5640 C   0  0  1  0  0  3  0  0  0  0  0  0
  161.5580  205.5040  153.3390 C   0  0  2  0  0  3  0  0  0  0  0  0
  160.5250  203.5260  149.0970 C   0  0  2  0  0  3  0  0  0  0  0  0
  161.7970  205.2400  147.7040 C   0  0  0  0  0  0  0  0  0  0  0  0
  161.4550  206.9990  153.6610 C   0  0  2  0  0  3  0  0  0  0  0  0
  160.9900  205.1950  151.9510 C   0  0  2  0  0  3  0  0  0  0  0  0
  162.4540  210.9830  149.9360 C   0  0  0  0  0  3  0  0  0  0  0  0
  161.3240  202.3610  148.5490 C   0  0  0  0  0  2  0  0  0  0  0  0
  160.2680  201.6510  150.6250 C   0  0  0  0  0  2  0  0  0  0  0  0
  162.7030  210.2650  152.1720 N   0  0  0  0  0  1  0  0  0  0  0  0
  160.9470  207.1760  148.5800 C   0  0  1  0  0  3  0  0  0  0  0  0
  161.9790  210.8220  148.5260 C   0  0  0  0  0  2  0  0  0  0  0  0
  161.7440  208.6780  150.4230 C   0  0  0  0  0  0  0  0  0  0  0  0
  160.7250  206.0230  149.5950 C   0  0  1  0  0  3  0  0  0  0  0  0
  162.3250  204.4520  146.8740 O   0  0  0  0  0  0  0  0  0  0  0  0
  161.1960  204.8180  148.9180 N   0  0  0  0  0  0  0  0  0  0  0  0
  160.8040  201.1490  149.2920 C   0  0  0  0  0  2  0  0  0  0  0  0
  162.7380  203.4520  151.2590 C   0  0  0  0  0  1  0  0  0  0  0  0
  161.8760  209.4440  148.1740 O   0  0  0  0  0  0  0  0  0  0  0  0
  161.5430  208.4540  149.1070 C   0  0  0  0  0  0  0  0  0  0  0  0
  161.2710  203.7320  151.5850 C   0  0  2  0  0  3  0  0  0  0  0  0
  160.0320  207.4600  153.9960 C   0  0  0  0  0  2  0  0  0  0  0  0
  159.7640  207.1000  156.3300 O   0  0  0  0  0  1  0  0  0  0  0  0
  159.9970  208.0880  155.3760 C   0  0  0  0  0  2  0  0  0  0  0  0
  1 19  1  6  0  0  0
  1  5  1  0  0  0  0
  2 16  1  0  0  0  0
  3 10  1  0  0  0  0
  3 17  1  0  0  0  0
  4  1  1  0  0  0  0
  4 12  1  0  0  0  0
  5 11  1  0  0  0  0
  7 15  1  0  0  0  0
  7 27  1  0  0  0  0
  8 11  1  0  0  0  0
  8  6  1  0  0  0  0
  9  7  1  0  0  0  0
 10 22  1  0  0  0  0
 11 28  1  0  0  0  0
 12  8  1  0  0  0  0
 13  2  2  0  0  0  0
 14  9  1  0  0  0  0
 14 23  1  0  0  0  0
 17 26  1  0  0  0  0
 17 20  1  0  0  0  0
 18 13  1  0  0  0  0
 19  2  1  0  0  0  0
 20  4  1  0  0  0  0
 21 10  2  0  0  0  0
 22  9  1  0  0  0  0
 22 20  1  0  0  0  0
 23 15  1  0  0  0  0
 24 27  1  0  0  0  0
 25 18  1  0  0  0  0
 25 26  1  0  0  0  0
 26 19  2  0  0  0  0
 27 12  1  0  0  0  0
 28 30  1  0  0  0  0
 30 29  1  0  0  0  0
M  END
>  <MODEL>
2

>  <REMARK>
 VINA RESULT:      -5.9      1.963      7.019
  Name = 
  2 active torsions:
  status: ('A' for Active; 'I' for Inactive)
    1  A    between atoms: C_11  and  C_28
    2  A    between atoms: C_28  and  C_30
                            x       y       z     vdW  Elec       q    Type
                         _______ _______ _______ _____ _____    ______ ____

>  <TORSDO>
F 2

$$$$
=
 OpenBabel11122412353D

 30 35  0  0  1  0  0  0  0  0999 V2000
  160.3150  211.4570  153.0830 C   0  0  1  0  0  3  0  0  0  0  0  0
  161.5210  210.7500  150.8470 C   0  0  0  0  0  0  0  0  0  0  0  0
  158.0060  213.9850  150.8430 N   0  0  0  0  0  2  0  0  0  0  0  0
  158.9120  211.9570  153.4680 C   0  0  1  0  0  3  0  0  0  0  0  0
  160.4570  210.1000  153.4520 O   0  0  0  0  0  0  0  0  0  0  0  0
  159.1800  210.3480  156.8570 O   0  0  0  0  0  1  0  0  0  0  0  0
  157.0140  213.6130  155.5840 C   0  0  1  0  0  3  0  0  0  0  0  0
  159.1340  210.4030  155.4620 C   0  0  2  0  0  3  0  0  0  0  0  0
  156.6800  214.3470  154.2810 C   0  0  2  0  0  3  0  0  0  0  0  0
  156.9410  214.0610  151.7620 C   0  0  0  0  0  0  0  0  0  0  0  0
  160.4840  209.9950  154.8620 C   0  0  2  0  0  3  0  0  0  0  0  0
  158.7180  211.7990  154.9900 C   0  0  2  0  0  3  0  0  0  0  0  0
  161.9220  211.0640  149.6140 C   0  0  0  0  0  3  0  0  0  0  0  0
  155.1670  214.3490  154.2100 C   0  0  0  0  0  2  0  0  0  0  0  0
  155.8210  213.8420  156.4990 C   0  0  0  0  0  2  0  0  0  0  0  0
  161.9620  209.5120  151.3950 N   0  0  0  0  0  1  0  0  0  0  0  0
  159.2040  213.7390  151.6300 C   0  0  1  0  0  3  0  0  0  0  0  0
  161.5680  212.3810  148.9980 C   0  0  0  0  0  2  0  0  0  0  0  0
  160.6050  211.6590  151.6070 C   0  0  0  0  0  0  0  0  0  0  0  0
  158.7330  213.4230  153.0740 C   0  0  1  0  0  3  0  0  0  0  0  0
  155.7730  214.3790  151.4150 O   0  0  0  0  0  0  0  0  0  0  0  0
  157.3100  213.7530  153.0970 N   0  0  0  0  0  0  0  0  0  0  0  0
  154.7100  214.4410  155.6500 C   0  0  0  0  0  2  0  0  0  0  0  0
  156.2150  211.3170  154.7050 C   0  0  0  0  0  1  0  0  0  0  0  0
  160.4060  212.9380  149.6090 O   0  0  0  0  0  0  0  0  0  0  0  0
  160.0940  212.7280  150.9590 C   0  0  0  0  0  0  0  0  0  0  0  0
  157.2880  212.1040  155.4580 C   0  0  2  0  0  3  0  0  0  0  0  0
  161.6820  210.7100  155.4950 C   0  0  0  0  0  2  0  0  0  0  0  0
  161.9570  208.4760  156.2580 O   0  0  0  0  0  1  0  0  0  0  0  0
  162.3940  209.7840  156.4610 C   0  0  0  0  0  2  0  0  0  0  0  0
  1 19  1  6  0  0  0
  1  5  1  0  0  0  0
  1  4  1  0  0  0  0
  2 16  1  0  0  0  0
  2 19  1  0  0  0  0
  3 17  1  0  0  0  0
  3 10  1  0  0  0  0
  4 12  1  0  0  0  0
  5 11  1  0  0  0  0
  7 15  1  0  0  0  0
  8  6  1  0  0  0  0
  9  7  1  0  0  0  0
 10 22  1  0  0  0  0
 11  8  1  0  0  0  0
 11 28  1  0  0  0  0
 12 27  1  0  0  0  0
 12  8  1  0  0  0  0
 13  2  2  0  0  0  0
 14  9  1  0  0  0  0
 14 23  1  0  0  0  0
 17 20  1  0  0  0  0
 18 25  1  0  0  0  0
 18 13  1  0  0  0  0
 20 22  1  0  0  0  0
 20  4  1  0  0  0  0
 21 10  2  0  0  0  0
 22  9  1  0  0  0  0
 23 15  1  0  0  0  0
 24 27  1  0  0  0  0
 25 26  1  0  0  0  0
 26 19  2  0  0  0  0
 26 17  1  0  0  0  0
 27  7  1  0  0  0  0
 28 30  1  0  0  0  0
 29 30  1  0  0  0  0
M  END
>  <MODEL>
3

>  <REMARK>
 VINA RESULT:      -5.2      6.086      9.276
  Name = 
  2 active torsions:
  status: ('A' for Active; 'I' for Inactive)
    1  A    between atoms: C_11  and  C_28
    2  A    between atoms: C_28  and  C_30
                            x       y       z     vdW  Elec       q    Type
                         _______ _______ _______ _____ _____    ______ ____

>  <TORSDO>
F 2

$$$$
=
 OpenBabel11122412353D

 30 35  0  0  1  0  0  0  0  0999 V2000
  161.2150  203.4510  147.4430 C   0  0  1  0  0  3  0  0  0  0  0  0
  160.7080  203.8410  144.8850 C   0  0  0  0  0  0  0  0  0  0  0  0
  161.7330  207.4950  147.7870 N   0  0  0  0  0  2  0  0  0  0  0  0
  161.0400  204.2640  148.7380 C   0  0  1  0  0  3  0  0  0  0  0  0
  160.2180  202.4510  147.3680 O   0  0  0  0  0  0  0  0  0  0  0  0
  160.5620  201.1190  150.7440 O   0  0  0  0  0  1  0  0  0  0  0  0
  161.9870  204.8260  151.8380 C   0  0  1  0  0  3  0  0  0  0  0  0
  160.2770  202.0720  149.7630 C   0  0  2  0  0  3  0  0  0  0  0  0
  162.1570  206.2260  151.2400 C   0  0  2  0  0  3  0  0  0  0  0  0
  161.4840  207.5560  149.1710 C   0  0  0  0  0  0  0  0  0  0  0  0
  160.4550  201.4740  148.3630 C   0  0  2  0  0  3  0  0  0  0  0  0
  161.1500  203.3160  149.9500 C   0  0  2  0  0  3  0  0  0  0  0  0
  160.8950  204.5620  143.7780 C   0  0  0  0  0  3  0  0  0  0  0  0
  161.4070  207.1470  152.1810 C   0  0  0  0  0  2  0  0  0  0  0  0
  161.8040  205.0390  153.3320 C   0  0  0  0  0  2  0  0  0  0  0  0
  159.9970  202.6130  144.7670 N   0  0  0  0  0  1  0  0  0  0  0  0
  162.2820  206.1720  147.5310 C   0  0  1  0  0  3  0  0  0  0  0  0
  161.7000  205.8230  143.8030 C   0  0  0  0  0  2  0  0  0  0  0  0
  161.2000  204.3360  146.2100 C   0  0  0  0  0  0  0  0  0  0  0  0
  162.1060  205.3560  148.8390 C   0  0  1  0  0  3  0  0  0  0  0  0
  161.1070  208.6140  149.7430 O   0  0  0  0  0  0  0  0  0  0  0  0
  161.6990  206.3280  149.8500 N   0  0  0  0  0  0  0  0  0  0  0  0
  161.5820  206.5290  153.5510 C   0  0  0  0  0  2  0  0  0  0  0  0
  159.4630  204.7040  151.2940 C   0  0  0  0  0  1  0  0  0  0  0  0
  161.7410  206.3800  145.1160 O   0  0  0  0  0  0  0  0  0  0  0  0
  161.7110  205.5840  146.2690 C   0  0  0  0  0  0  0  0  0  0  0  0
  160.8170  203.9920  151.2860 C   0  0  2  0  0  3  0  0  0  0  0  0
  161.7820  200.7330  148.1730 C   0  0  0  0  0  2  0  0  0  0  0  0
  161.2060  199.9300  146.0120 O   0  0  0  0  0  1  0  0  0  0  0  0
  161.5810  199.5180  147.2890 C   0  0  0  0  0  2  0  0  0  0  0  0
  1 19  1  6  0  0  0
  1  4  1  0  0  0  0
  2 19  1  0  0  0  0
  3 10  1  0  0  0  0
  4 20  1  0  0  0  0
  4 12  1  0  0  0  0
  5  1  1  0  0  0  0
  5 11  1  0  0  0  0
  7 15  1  0  0  0  0
  8 12  1  0  0  0  0
  8  6  1  0  0  0  0
  9  7  1  0  0  0  0
  9 14  1  0  0  0  0
 10 21  2  0  0  0  0
 10 22  1  0  0  0  0
 11  8  1  0  0  0  0
 12 27  1  0  0  0  0
 13 18  1  0  0  0  0
 13  2  2  0  0  0  0
 14 23  1  0  0  0  0
 15 23  1  0  0  0  0
 16  2  1  0  0  0  0
 17  3  1  0  0  0  0
 17 20  1  0  0  0  0
 18 25  1  0  0  0  0
 19 26  2  0  0  0  0
 20 22  1  0  0  0  0
 22  9  1  0  0  0  0
 25 26  1  0  0  0  0
 26 17  1  0  0  0  0
 27 24  1  0  0  0  0
 27  7  1  0  0  0  0
 28 11  1  0  0  0  0
 29 30  1  0  0  0  0
 30 28  1  0  0  0  0
M  END
>  <MODEL>
4

>  <REMARK>
 VINA RESULT:      -4.8      2.017      4.917
  Name = 
  2 active torsions:
  status: ('A' for Active; 'I' for Inactive)
    1  A    between atoms: C_11  and  C_28
    2  A    between atoms: C_28  and  C_30
                            x       y       z     vdW  Elec       q    Type
                         _______ _______ _______ _____ _____    ______ ____

>  <TORSDO>
F 2

$$$$
=
 OpenBabel11122412353D

 30 35  0  0  1  0  0  0  0  0999 V2000
  161.1170  203.6480  148.0110 C   0  0  1  0  0  3  0  0  0  0  0  0
  161.1490  201.1250  148.7750 C   0  0  0  0  0  0  0  0  0  0  0  0
  161.1530  204.6750  151.9710 N   0  0  0  0  0  2  0  0  0  0  0  0
  161.6390  204.9790  148.5800 C   0  0  1  0  0  3  0  0  0  0  0  0
  161.9560  203.2180  146.9570 O   0  0  0  0  0  0  0  0  0  0  0  0
  162.1360  206.3610  145.1180 O   0  0  0  0  0  1  0  0  0  0  0  0
  161.3980  208.2580  148.7000 C   0  0  1  0  0  3  0  0  0  0  0  0
  162.3300  205.4900  146.1930 C   0  0  2  0  0  3  0  0  0  0  0  0
  161.2770  207.9190  150.1890 C   0  0  2  0  0  3  0  0  0  0  0  0
  161.6770  205.9680  151.7810 C   0  0  0  0  0  0  0  0  0  0  0  0
  161.8100  204.0890  145.8520 C   0  0  2  0  0  3  0  0  0  0  0  0
  161.6620  206.0360  147.4570 C   0  0  2  0  0  3  0  0  0  0  0  0
  160.8310  200.2000  149.6820 C   0  0  0  0  0  3  0  0  0  0  0  0
  162.3010  208.8000  150.8740 C   0  0  0  0  0  2  0  0  0  0  0  0
  161.8980  209.6930  148.6460 C   0  0  0  0  0  2  0  0  0  0  0  0
  161.6740  200.6810  147.5280 N   0  0  0  0  0  1  0  0  0  0  0  0
  160.4140  204.3550  150.7600 C   0  0  1  0  0  3  0  0  0  0  0  0
  160.2000  200.5790  150.9840 C   0  0  0  0  0  2  0  0  0  0  0  0
  160.9910  202.5820  149.0830 C   0  0  0  0  0  0  0  0  0  0  0  0
  160.7490  205.4620  149.7260 C   0  0  1  0  0  3  0  0  0  0  0  0
  162.2800  206.5920  152.6940 O   0  0  0  0  0  0  0  0  0  0  0  0
  161.4590  206.4920  150.4800 N   0  0  0  0  0  0  0  0  0  0  0  0
  162.3310  210.0720  150.0550 C   0  0  0  0  0  2  0  0  0  0  0  0
  163.7320  207.1740  148.4580 C   0  0  0  0  0  1  0  0  0  0  0  0
  160.4850  201.9360  151.3180 O   0  0  0  0  0  0  0  0  0  0  0  0
  160.6500  202.9280  150.3430 C   0  0  0  0  0  0  0  0  0  0  0  0
  162.3310  207.3540  147.8730 C   0  0  2  0  0  3  0  0  0  0  0  0
  160.3940  204.0830  145.2670 C   0  0  0  0  0  2  0  0  0  0  0  0
  159.5520  201.8620  145.3610 O   0  0  0  0  0  1  0  0  0  0  0  0
  160.1460  202.7920  144.5110 C   0  0  0  0  0  2  0  0  0  0  0  0
  1  5  1  6  0  0  0
  1  4  1  0  0  0  0
  1 19  1  0  0  0  0
  2 19  1  0  0  0  0
  2 13  2  0  0  0  0
  4 20  1  0  0  0  0
  6  8  1  0  0  0  0
  7  9  1  0  0  0  0
  8 12  1  0  0  0  0
  9 22  1  0  0  0  0
  9 14  1  0  0  0  0
 10  3  1  0  0  0  0
 10 21  2  0  0  0  0
 11  8  1  0  0  0  0
 11  5  1  0  0  0  0
 12 27  1  0  0  0  0
 12  4  1  0  0  0  0
 13 18  1  0  0  0  0
 15  7  1  0  0  0  0
 15 23  1  0  0  0  0
 16  2  1  0  0  0  0
 17  3  1  0  0  0  0
 18 25  1  0  0  0  0
 19 26  2  0  0  0  0
 20 22  1  0  0  0  0
 20 17  1  0  0  0  0
 22 10  1  0  0  0  0
 23 14  1  0  0  0  0
 26 17  1  0  0  0  0
 26 25  1  0  0  0  0
 27 24  1  0  0  0  0
 27  7  1  0  0  0  0
 28 11  1  0  0  0  0
 30 28  1  0  0  0  0
 30 29  1  0  0  0  0
M  END
>  <MODEL>
5

>  <REMARK>
 VINA RESULT:      -4.3      1.658      2.391
  Name = 
  2 active torsions:
  status: ('A' for Active; 'I' for Inactive)
    1  A    between atoms: C_11  and  C_28
    2  A    between atoms: C_28  and  C_30
                            x       y       z     vdW  Elec       q    Type
                         _______ _______ _______ _____ _____    ______ ____

>  <TORSDO>
F 2

$$$$
=
 OpenBabel11122412353D

 30 35  0  0  1  0  0  0  0  0999 V2000
  160.9620  209.2520  153.4130 C   0  0  1  0  0  3  0  0  0  0  0  0
  161.6450  208.0250  151.1810 C   0  0  0  0  0  0  0  0  0  0  0  0
  159.8850  212.4660  151.1210 N   0  0  0  0  0  2  0  0  0  0  0  0
  159.9320  210.3240  153.8110 C   0  0  1  0  0  3  0  0  0  0  0  0
  160.5160  207.9810  153.8390 O   0  0  0  0  0  0  0  0  0  0  0  0
  159.6200  208.8600  157.2610 O   0  0  0  0  0  1  0  0  0  0  0  0
  159.0330  212.7040  155.8980 C   0  0  1  0  0  3  0  0  0  0  0  0
  159.5430  208.8890  155.8660 C   0  0  2  0  0  3  0  0  0  0  0  0
  158.9960  213.4710  154.5720 C   0  0  2  0  0  3  0  0  0  0  0  0
  158.9990  213.0250  152.0620 C   0  0  0  0  0  0  0  0  0  0  0  0
  160.5540  207.9160  155.2510 C   0  0  2  0  0  3  0  0  0  0  0  0
  159.7540  210.3120  155.3430 C   0  0  2  0  0  3  0  0  0  0  0  0
  162.0890  208.0970  149.9250 C   0  0  0  0  0  3  0  0  0  0  0  0
  157.6310  214.1290  154.5400 C   0  0  0  0  0  2  0  0  0  0  0  0
  158.0980  213.4560  156.8320 C   0  0  0  0  0  2  0  0  0  0  0  0
  161.5280  206.7360  151.7720 N   0  0  0  0  0  1  0  0  0  0  0  0
  160.8900  211.7460  151.8870 C   0  0  1  0  0  3  0  0  0  0  0  0
  162.3170  209.4180  149.2600 C   0  0  0  0  0  2  0  0  0  0  0  0
  161.2480  209.2650  151.9220 C   0  0  0  0  0  0  0  0  0  0  0  0
  160.3910  211.7100  153.3560 C   0  0  1  0  0  3  0  0  0  0  0  0
  158.0710  213.8100  151.7310 O   0  0  0  0  0  0  0  0  0  0  0  0
  159.2550  212.6270  153.4000 N   0  0  0  0  0  0  0  0  0  0  0  0
  157.3220  214.4530  155.9850 C   0  0  0  0  0  2  0  0  0  0  0  0
  157.2800  210.9600  155.1440 C   0  0  0  0  0  1  0  0  0  0  0  0
  161.5380  210.4430  149.8740 O   0  0  0  0  0  0  0  0  0  0  0  0
  161.2240  210.4300  151.2400 C   0  0  0  0  0  0  0  0  0  0  0  0
  158.6190  211.2220  155.8330 C   0  0  2  0  0  3  0  0  0  0  0  0
  161.9700  208.0570  155.8200 C   0  0  0  0  0  2  0  0  0  0  0  0
  162.9000  209.7640  157.1890 O   0  0  0  0  0  1  0  0  0  0  0  0
  161.9270  208.7670  157.1600 C   0  0  0  0  0  2  0  0  0  0  0  0
  1 19  1  6  0  0  0
  1  4  1  0  0  0  0
  1  5  1  0  0  0  0
  2 16  1  0  0  0  0
  2 19  1  0  0  0  0
  3 17  1  0  0  0  0
  3 10  1  0  0  0  0
  4 12  1  0  0  0  0
  5 11  1  0  0  0  0
  7 15  1  0  0  0  0
  8  6  1  0  0  0  0
  9  7  1  0  0  0  0
 10 22  1  0  0  0  0
 11 28  1  0  0  0  0
 11  8  1  0  0  0  0
 12 27  1  0  0  0  0
 12  8  1  0  0  0  0
 13  2  2  0  0  0  0
 14  9  1  0  0  0  0
 14 23  1  0  0  0  0
 17 20  1  0  0  0  0
 18 25  1  0  0  0  0
 18 13  1  0  0  0  0
 20 22  1  0  0  0  0
 20  4  1  0  0  0  0
 21 10  2  0  0  0  0
 22  9  1  0  0  0  0
 23 15  1  0  0  0  0
 24 27  1  0  0  0  0
 25 26  1  0  0  0  0
 26 17  1  0  0  0  0
 26 19  2  0  0  0  0
 27  7  1  0  0  0  0
 28 30  1  0  0  0  0
 30 29  1  0  0  0  0
M  END
>  <MODEL>
6

>  <REMARK>
 VINA RESULT:      -3.4      4.187      8.039
  Name = 
  2 active torsions:
  status: ('A' for Active; 'I' for Inactive)
    1  A    between atoms: C_11  and  C_28
    2  A    between atoms: C_28  and  C_30
                            x       y       z     vdW  Elec       q    Type
                         _______ _______ _______ _____ _____    ______ ____

>  <TORSDO>
F 2

$$$$
=
 OpenBabel11122412353D

 30 35  0  0  1  0  0  0  0  0999 V2000
  160.8730  209.6360  153.3450 C   0  0  1  0  0  3  0  0  0  0  0  0
  160.8510  207.0780  153.9850 C   0  0  0  0  0  0  0  0  0  0  0  0
  162.0300  208.5150  149.5840 N   0  0  0  0  0  2  0  0  0  0  0  0
  160.6420  210.4530  152.0620 C   0  0  1  0  0  3  0  0  0  0  0  0
  159.7410  209.7360  154.1860 O   0  0  0  0  0  0  0  0  0  0  0  0
  159.3100  213.3540  154.0510 O   0  0  0  0  0  1  0  0  0  0  0  0
  161.1720  213.2300  150.3780 C   0  0  1  0  0  3  0  0  0  0  0  0
  159.3540  212.0470  153.5590 C   0  0  2  0  0  3  0  0  0  0  0  0
  161.6770  212.1940  149.3680 C   0  0  2  0  0  3  0  0  0  0  0  0
  161.5810  209.6830  148.9400 C   0  0  0  0  0  0  0  0  0  0  0  0
  159.6430  211.0540  154.6890 C   0  0  2  0  0  3  0  0  0  0  0  0
  160.3910  211.9280  152.4390 C   0  0  2  0  0  3  0  0  0  0  0  0
  161.3340  205.8480  153.8010 C   0  0  0  0  0  3  0  0  0  0  0  0
  160.9610  212.5290  148.0760 C   0  0  0  0  0  2  0  0  0  0  0  0
  160.7960  214.4530  149.5570 C   0  0  0  0  0  2  0  0  0  0  0  0
  159.9640  207.2880  155.0790 N   0  0  0  0  0  1  0  0  0  0  0  0
  162.3720  208.9070  150.9430 C   0  0  1  0  0  3  0  0  0  0  0  0
  162.3330  205.5630  152.7240 C   0  0  0  0  0  2  0  0  0  0  0  0
  161.2070  208.1860  153.0430 C   0  0  0  0  0  0  0  0  0  0  0  0
  161.8530  210.3560  151.1340 C   0  0  1  0  0  3  0  0  0  0  0  0
  161.3100  209.7130  147.7100 O   0  0  0  0  0  0  0  0  0  0  0  0
  161.4680  210.8070  149.7990 N   0  0  0  0  0  0  0  0  0  0  0  0
  160.8060  214.0340  148.0940 C   0  0  0  0  0  2  0  0  0  0  0  0
  158.7840  212.2460  150.4660 C   0  0  0  0  0  1  0  0  0  0  0  0
  162.2640  206.5400  151.6870 O   0  0  0  0  0  0  0  0  0  0  0  0
  161.9140  207.8740  151.9360 C   0  0  0  0  0  0  0  0  0  0  0  0
  159.9750  212.8000  151.2460 C   0  0  2  0  0  3  0  0  0  0  0  0
  160.8330  211.4510  155.5690 C   0  0  0  0  0  2  0  0  0  0  0  0
  161.8820  209.6580  156.7250 O   0  0  0  0  0  1  0  0  0  0  0  0
  160.8610  210.6020  156.8250 C   0  0  0  0  0  2  0  0  0  0  0  0
  1 19  1  6  0  0  0
  1  5  1  0  0  0  0
  2 16  1  0  0  0  0
  3 17  1  0  0  0  0
  4 12  1  0  0  0  0
  4  1  1  0  0  0  0
  5 11  1  0  0  0  0
  7 27  1  0  0  0  0
  8  6  1  0  0  0  0
  8 11  1  0  0  0  0
  9 22  1  0  0  0  0
  9  7  1  0  0  0  0
 10  3  1  0  0  0  0
 10 22  1  0  0  0  0
 11 28  1  0  0  0  0
 12  8  1  0  0  0  0
 13  2  2  0  0  0  0
 14 23  1  0  0  0  0
 14  9  1  0  0  0  0
 15  7  1  0  0  0  0
 17 20  1  0  0  0  0
 17 26  1  0  0  0  0
 18 13  1  0  0  0  0
 19  2  1  0  0  0  0
 20  4  1  0  0  0  0
 21 10  2  0  0  0  0
 22 20  1  0  0  0  0
 23 15  1  0  0  0  0
 24 27  1  0  0  0  0
 25 26  1  0  0  0  0
 25 18  1  0  0  0  0
 26 19  2  0  0  0  0
 27 12  1  0  0  0  0
 28 30  1  0  0  0  0
 29 30  1  0  0  0  0
M  END
>  <MODEL>
7

>  <REMARK>
 VINA RESULT:      -3.3      3.742      7.308
  Name = 
  2 active torsions:
  status: ('A' for Active; 'I' for Inactive)
    1  A    between atoms: C_11  and  C_28
    2  A    between atoms: C_28  and  C_30
                            x       y       z     vdW  Elec       q    Type
                         _______ _______ _______ _____ _____    ______ ____

>  <TORSDO>
F 2

$$$$
