=
 OpenBabel11122413183D

 31 35  0  0  1  0  0  0  0  0999 V2000
  160.9430  206.4440  146.5680 C   0  0  0  0  0  0  0  0  0  0  0  0
  160.3060  205.0270  150.0420 C   0  0  2  0  0  3  0  0  0  0  0  0
  160.7640  203.5740  150.0040 C   0  0  0  0  0  0  0  0  0  0  0  0
  161.2250  201.5560  148.7180 C   0  0  0  0  0  0  0  0  0  0  0  0
  160.8870  205.8710  148.9290 C   0  0  0  0  0  0  0  0  0  0  0  0
  161.9810  207.3460  146.8070 C   0  0  0  0  0  3  0  0  0  0  0  0
  160.8870  202.9090  148.7730 C   0  0  0  0  0  3  0  0  0  0  0  0
  161.9940  206.0820  151.5960 C   0  0  2  0  0  3  0  0  0  0  0  0
  160.4680  206.2760  145.3110 F   0  0  0  0  0  0  0  0  0  0  0  0
  160.8330  203.4630  152.5520 C   0  0  0  0  0  2  0  0  0  0  0  0
  161.3660  200.8780  147.4030 C   0  0  0  0  0  1  0  0  0  0  0  0
  162.3890  207.1300  150.5580 C   0  0  0  0  0  2  0  0  0  0  0  0
  160.5210  205.6880  151.4170 C   0  0  2  0  0  3  0  0  0  0  0  0
  160.3970  205.7130  147.6260 C   0  0  0  0  0  3  0  0  0  0  0  0
  161.4260  200.8400  149.8980 C   0  0  0  0  0  3  0  0  0  0  0  0
  161.9320  206.7930  149.1680 C   0  0  0  0  0  0  0  0  0  0  0  0
  162.4660  207.5260  148.1040 C   0  0  0  0  0  3  0  0  0  0  0  0
  160.0250  204.7570  152.5240 C   0  0  0  0  0  2  0  0  0  0  0  0
  160.9320  202.8280  151.1970 C   0  0  0  0  0  0  0  0  0  0  0  0
  161.2820  201.4750  151.1320 C   0  0  0  0  0  3  0  0  0  0  0  0
  160.5540  208.2530  152.7730 O   0  0  0  0  0  0  0  0  0  0  0  0
  161.4540  207.7070  153.4650 C   0  0  0  0  0  0  0  0  0  0  0  0
  162.2140  206.6190  152.9310 N   0  0  0  0  0  2  0  0  0  0  0  0
  159.4030  209.6670  155.7680 C   0  0  0  0  0  0  0  0  0  0  0  0
  160.7980  207.6140  155.8890 C   0  0  0  0  0  2  0  0  0  0  0  0
  162.6860  210.4140  153.9560 C   0  0  0  0  0  1  0  0  0  0  0  0
  158.6270  210.3050  156.4590 O   0  0  0  0  0  0  0  0  0  0  0  0
  159.3740  208.1690  155.7880 C   0  0  0  0  0  2  0  0  0  0  0  0
  161.7390  209.7700  154.9540 C   0  0  2  0  0  3  0  0  0  0  0  0
  161.7360  208.2320  154.8450 C   0  0  2  0  0  3  0  0  0  0  0  0
  160.3390  210.3720  154.8350 C   0  0  0  0  0  2  0  0  0  0  0  0
  1  6  2  0  0  0  0
  1 14  1  0  0  0  0
  2  5  1  6  0  0  0
  2 13  1  0  0  0  0
  3  2  1  0  0  0  0
  3 19  1  0  0  0  0
  4  7  1  0  0  0  0
  4 15  2  0  0  0  0
  5 16  1  0  0  0  0
  6 17  1  0  0  0  0
  7  3  2  0  0  0  0
  8 23  1  1  0  0  0
  9  1  1  0  0  0  0
 11  4  1  0  0  0  0
 12  8  1  0  0  0  0
 13  8  1  0  0  0  0
 13 18  1  1  0  0  0
 14  5  2  0  0  0  0
 15 20  1  0  0  0  0
 16 12  1  0  0  0  0
 17 16  2  0  0  0  0
 18 10  1  0  0  0  0
 19 10  1  0  0  0  0
 20 19  2  0  0  0  0
 21 22  2  0  0  0  0
 23 22  1  0  0  0  0
 24 28  1  0  0  0  0
 24 27  2  0  0  0  0
 28 25  1  0  0  0  0
 29 26  1  6  0  0  0
 30 22  1  6  0  0  0
 30 29  1  0  0  0  0
 30 25  1  0  0  0  0
 31 29  1  0  0  0  0
 31 24  1  0  0  0  0
M  END
>  <MODEL>
1

>  <REMARK>
 VINA RESULT:      -7.5      0.000      0.000
  Name = 
  2 active torsions:
  status: ('A' for Active; 'I' for Inactive)
    1  A    between atoms: C_5  and  C_30
    2  A    between atoms: C_10  and  N_16
                            x       y       z     vdW  Elec       q    Type
                         _______ _______ _______ _____ _____    ______ ____

>  <TORSDO>
F 2

$$$$
=
 OpenBabel11122413183D

 31 35  0  0  1  0  0  0  0  0999 V2000
  161.0430  204.6380  145.0520 C   0  0  0  0  0  0  0  0  0  0  0  0
  160.4970  205.2220  148.7730 C   0  0  2  0  0  3  0  0  0  0  0  0
  160.9120  203.9350  149.4750 C   0  0  0  0  0  0  0  0  0  0  0  0
  161.2690  201.5250  149.3940 C   0  0  0  0  0  0  0  0  0  0  0  0
  161.0590  205.3540  147.3740 C   0  0  0  0  0  0  0  0  0  0  0  0
  162.1140  205.4900  144.7770 C   0  0  0  0  0  3  0  0  0  0  0  0
  160.9710  202.7300  148.7550 C   0  0  0  0  0  3  0  0  0  0  0  0
  162.2700  206.8490  149.5380 C   0  0  2  0  0  3  0  0  0  0  0  0
  160.5170  203.8720  144.0670 F   0  0  0  0  0  0  0  0  0  0  0  0
  161.0740  205.1370  151.7200 C   0  0  0  0  0  2  0  0  0  0  0  0
  161.3420  200.2660  148.6090 C   0  0  0  0  0  1  0  0  0  0  0  0
  162.6560  207.2020  148.1030 C   0  0  0  0  0  2  0  0  0  0  0  0
  160.7810  206.4820  149.6120 C   0  0  2  0  0  3  0  0  0  0  0  0
  160.5170  204.5730  146.3440 C   0  0  0  0  0  3  0  0  0  0  0  0
  161.4950  201.5040  150.7710 C   0  0  0  0  0  3  0  0  0  0  0  0
  162.1380  206.2220  147.0890 C   0  0  0  0  0  0  0  0  0  0  0  0
  162.6520  206.2860  145.7900 C   0  0  0  0  0  3  0  0  0  0  0  0
  160.3020  206.2690  151.0480 C   0  0  0  0  0  2  0  0  0  0  0  0
  161.1050  203.8960  150.8780 C   0  0  0  0  0  0  0  0  0  0  0  0
  161.4140  202.6860  151.5090 C   0  0  0  0  0  3  0  0  0  0  0  0
  161.4410  209.5450  149.0770 O   0  0  0  0  0  0  0  0  0  0  0  0
  162.1060  209.3100  150.1210 C   0  0  0  0  0  0  0  0  0  0  0  0
  162.5550  207.9820  150.4060 N   0  0  0  0  0  2  0  0  0  0  0  0
  160.1690  210.9300  152.7630 C   0  0  0  0  0  0  0  0  0  0  0  0
  162.4590  209.9980  152.5120 C   0  0  0  0  0  2  0  0  0  0  0  0
  161.5510  212.1900  149.4280 C   0  0  0  0  0  1  0  0  0  0  0  0
  159.4400  211.3830  153.6280 O   0  0  0  0  0  0  0  0  0  0  0  0
  161.0490  209.7530  153.0570 C   0  0  0  0  0  2  0  0  0  0  0  0
  161.5610  211.6980  150.8650 C   0  0  2  0  0  3  0  0  0  0  0  0
  162.4430  210.4460  151.0450 C   0  0  2  0  0  3  0  0  0  0  0  0
  160.1350  211.4930  151.3750 C   0  0  0  0  0  2  0  0  0  0  0  0
  1 14  1  0  0  0  0
  2  5  1  6  0  0  0
  2  3  1  0  0  0  0
  2 13  1  0  0  0  0
  3 19  1  0  0  0  0
  4 15  2  0  0  0  0
  6  1  2  0  0  0  0
  6 17  1  0  0  0  0
  7  4  1  0  0  0  0
  7  3  2  0  0  0  0
  8 13  1  0  0  0  0
  8 23  1  1  0  0  0
  9  1  1  0  0  0  0
 11  4  1  0  0  0  0
 12  8  1  0  0  0  0
 13 18  1  1  0  0  0
 14  5  2  0  0  0  0
 15 20  1  0  0  0  0
 16  5  1  0  0  0  0
 16 12  1  0  0  0  0
 17 16  2  0  0  0  0
 18 10  1  0  0  0  0
 19 20  2  0  0  0  0
 19 10  1  0  0  0  0
 21 22  2  0  0  0  0
 22 23  1  0  0  0  0
 24 28  1  0  0  0  0
 24 27  2  0  0  0  0
 25 28  1  0  0  0  0
 29 26  1  6  0  0  0
 29 30  1  0  0  0  0
 29 31  1  0  0  0  0
 30 22  1  6  0  0  0
 30 25  1  0  0  0  0
 31 24  1  0  0  0  0
M  END
>  <MODEL>
2

>  <REMARK>
 VINA RESULT:      -7.1      2.140      2.784
  Name = 
  2 active torsions:
  status: ('A' for Active; 'I' for Inactive)
    1  A    between atoms: C_5  and  C_30
    2  A    between atoms: C_10  and  N_16
                            x       y       z     vdW  Elec       q    Type
                         _______ _______ _______ _____ _____    ______ ____

>  <TORSDO>
F 2

$$$$
=
 OpenBabel11122413183D

 31 35  0  0  1  0  0  0  0  0999 V2000
  161.1660  203.9200  145.5630 C   0  0  0  0  0  0  0  0  0  0  0  0
  160.5350  205.7550  148.8370 C   0  0  2  0  0  3  0  0  0  0  0  0
  160.8970  204.7820  149.9520 C   0  0  0  0  0  0  0  0  0  0  0  0
  161.1900  202.4850  150.7140 C   0  0  0  0  0  0  0  0  0  0  0  0
  161.1380  205.3900  147.4980 C   0  0  0  0  0  0  0  0  0  0  0  0
  162.2670  204.6080  145.0500 C   0  0  0  0  0  3  0  0  0  0  0  0
  160.9420  203.4020  149.6910 C   0  0  0  0  0  3  0  0  0  0  0  0
  162.3300  207.5170  149.0590 C   0  0  2  0  0  3  0  0  0  0  0  0
  160.6460  202.8720  144.8830 F   0  0  0  0  0  0  0  0  0  0  0  0
  161.0300  206.6790  151.6530 C   0  0  0  0  0  2  0  0  0  0  0  0
  161.2500  201.0320  150.4120 C   0  0  0  0  0  1  0  0  0  0  0  0
  162.7640  207.3500  147.6050 C   0  0  0  0  0  2  0  0  0  0  0  0
  160.8310  207.2220  149.2030 C   0  0  2  0  0  3  0  0  0  0  0  0
  160.6040  204.3120  146.7800 C   0  0  0  0  0  3  0  0  0  0  0  0
  161.3770  202.9340  152.0220 C   0  0  0  0  0  3  0  0  0  0  0  0
  162.2480  206.0900  146.9710 C   0  0  0  0  0  0  0  0  0  0  0  0
  162.7980  205.6950  145.7470 C   0  0  0  0  0  3  0  0  0  0  0  0
  160.3070  207.5230  150.6080 C   0  0  0  0  0  2  0  0  0  0  0  0
  161.0500  205.2240  151.2890 C   0  0  0  0  0  0  0  0  0  0  0  0
  161.3090  204.2990  152.3060 C   0  0  0  0  0  3  0  0  0  0  0  0
  161.3030  209.9030  147.8670 O   0  0  0  0  0  0  0  0  0  0  0  0
  162.0710  210.0310  148.8580 C   0  0  0  0  0  0  0  0  0  0  0  0
  162.6220  208.8750  149.4960 N   0  0  0  0  0  2  0  0  0  0  0  0
  160.7160  213.3100  147.9830 C   0  0  0  0  0  0  0  0  0  0  0  0
  161.2430  212.0700  150.0710 C   0  0  0  0  0  2  0  0  0  0  0  0
  164.1720  211.7360  147.5310 C   0  0  0  0  0  1  0  0  0  0  0  0
  160.1800  214.3460  147.6280 O   0  0  0  0  0  0  0  0  0  0  0  0
  160.1360  212.5070  149.1070 C   0  0  0  0  0  2  0  0  0  0  0  0
  162.9800  212.3450  148.2510 C   0  0  2  0  0  3  0  0  0  0  0  0
  162.4200  211.4100  149.3410 C   0  0  2  0  0  3  0  0  0  0  0  0
  161.9140  212.7890  147.2500 C   0  0  0  0  0  2  0  0  0  0  0  0
  1 14  1  0  0  0  0
  2  5  1  6  0  0  0
  2 13  1  0  0  0  0
  2  3  1  0  0  0  0
  3 19  1  0  0  0  0
  4 15  2  0  0  0  0
  6  1  2  0  0  0  0
  6 17  1  0  0  0  0
  7  3  2  0  0  0  0
  7  4  1  0  0  0  0
  8 13  1  0  0  0  0
  8 23  1  6  0  0  0
  9  1  1  0  0  0  0
 11  4  1  0  0  0  0
 12  8  1  0  0  0  0
 13 18  1  1  0  0  0
 14  5  2  0  0  0  0
 15 20  1  0  0  0  0
 16  5  1  0  0  0  0
 16 12  1  0  0  0  0
 17 16  2  0  0  0  0
 18 10  1  0  0  0  0
 19 10  1  0  0  0  0
 19 20  2  0  0  0  0
 21 22  2  0  0  0  0
 22 23  1  0  0  0  0
 24 28  1  0  0  0  0
 27 24  2  0  0  0  0
 28 25  1  0  0  0  0
 29 26  1  6  0  0  0
 29 30  1  0  0  0  0
 30 22  1  6  0  0  0
 30 25  1  0  0  0  0
 31 24  1  0  0  0  0
 31 29  1  0  0  0  0
M  END
>  <MODEL>
3

>  <REMARK>
 VINA RESULT:      -7.0      3.314      4.773
  Name = 
  2 active torsions:
  status: ('A' for Active; 'I' for Inactive)
    1  A    between atoms: C_5  and  C_30
    2  A    between atoms: C_10  and  N_16
                            x       y       z     vdW  Elec       q    Type
                         _______ _______ _______ _____ _____    ______ ____

>  <TORSDO>
F 2

$$$$
=
 OpenBabel11122413183D

 31 35  0  0  1  0  0  0  0  0999 V2000
  160.8270  201.4860  149.0600 C   0  0  0  0  0  0  0  0  0  0  0  0
  162.2750  204.8790  149.9950 C   0  0  2  0  0  3  0  0  0  0  0  0
  161.7110  205.8780  148.9920 C   0  0  0  0  0  0  0  0  0  0  0  0
  160.7590  206.3290  146.7940 C   0  0  0  0  0  0  0  0  0  0  0  0
  161.4800  203.5940  150.0770 C   0  0  0  0  0  0  0  0  0  0  0  0
  159.9670  201.2300  150.1300 C   0  0  0  0  0  3  0  0  0  0  0  0
  161.2040  205.4270  147.7620 C   0  0  0  0  0  3  0  0  0  0  0  0
  161.1640  205.5930  152.1480 C   0  0  2  0  0  3  0  0  0  0  0  0
  160.9260  200.5960  148.0440 F   0  0  0  0  0  0  0  0  0  0  0  0
  162.3310  207.8400  150.5010 C   0  0  0  0  0  2  0  0  0  0  0  0
  160.2110  205.8280  145.5080 C   0  0  0  0  0  1  0  0  0  0  0  0
  160.5840  204.2010  152.3850 C   0  0  0  0  0  2  0  0  0  0  0  0
  162.4960  205.4910  151.3910 C   0  0  2  0  0  3  0  0  0  0  0  0
  161.5810  202.6610  149.0370 C   0  0  0  0  0  3  0  0  0  0  0  0
  160.8310  207.7010  147.0350 C   0  0  0  0  0  3  0  0  0  0  0  0
  160.6160  203.3270  151.1640 C   0  0  0  0  0  0  0  0  0  0  0  0
  159.8710  202.1430  151.1820 C   0  0  0  0  0  3  0  0  0  0  0  0
  163.2000  206.8420  151.2610 C   0  0  0  0  0  2  0  0  0  0  0  0
  161.8160  207.2730  149.2110 C   0  0  0  0  0  0  0  0  0  0  0  0
  161.3570  208.1700  148.2400 C   0  0  0  0  0  3  0  0  0  0  0  0
  160.4300  208.2890  152.7490 O   0  0  0  0  0  0  0  0  0  0  0  0
  160.9650  207.6120  153.6670 C   0  0  0  0  0  0  0  0  0  0  0  0
  161.3600  206.2580  153.4280 N   0  0  0  0  0  2  0  0  0  0  0  0
  158.9800  210.0020  155.5920 C   0  0  0  0  0  0  0  0  0  0  0  0
  160.1390  207.8480  156.0290 C   0  0  0  0  0  2  0  0  0  0  0  0
  162.4400  210.2220  153.9770 C   0  0  0  0  0  1  0  0  0  0  0  0
  158.2310  210.7840  156.1520 O   0  0  0  0  0  0  0  0  0  0  0  0
  158.7920  208.5250  155.7610 C   0  0  0  0  0  2  0  0  0  0  0  0
  161.3640  209.7860  154.9570 C   0  0  2  0  0  3  0  0  0  0  0  0
  161.2060  208.2530  155.0050 C   0  0  2  0  0  3  0  0  0  0  0  0
  160.0460  210.5060  154.6690 C   0  0  0  0  0  2  0  0  0  0  0  0
  1  6  1  0  0  0  0
  2  3  1  6  0  0  0
  2  5  1  0  0  0  0
  2 13  1  0  0  0  0
  3 19  1  0  0  0  0
  4 15  2  0  0  0  0
  4  7  1  0  0  0  0
  5 16  2  0  0  0  0
  6 17  2  0  0  0  0
  7  3  2  0  0  0  0
  8 12  1  0  0  0  0
  8 23  1  1  0  0  0
  9  1  1  0  0  0  0
 10 18  1  0  0  0  0
 11  4  1  0  0  0  0
 13 18  1  6  0  0  0
 13  8  1  0  0  0  0
 14  1  2  0  0  0  0
 14  5  1  0  0  0  0
 15 20  1  0  0  0  0
 16 17  1  0  0  0  0
 16 12  1  0  0  0  0
 19 10  1  0  0  0  0
 20 19  2  0  0  0  0
 21 22  2  0  0  0  0
 23 22  1  0  0  0  0
 24 28  1  0  0  0  0
 24 27  2  0  0  0  0
 28 25  1  0  0  0  0
 29 26  1  6  0  0  0
 29 30  1  0  0  0  0
 30 22  1  6  0  0  0
 30 25  1  0  0  0  0
 31 29  1  0  0  0  0
 31 24  1  0  0  0  0
M  END
>  <MODEL>
4

>  <REMARK>
 VINA RESULT:      -5.2      1.444      3.933
  Name = 
  2 active torsions:
  status: ('A' for Active; 'I' for Inactive)
    1  A    between atoms: C_5  and  C_30
    2  A    between atoms: C_10  and  N_16
                            x       y       z     vdW  Elec       q    Type
                         _______ _______ _______ _____ _____    ______ ____

>  <TORSDO>
F 2

$$$$
=
 OpenBabel11122413183D

 31 35  0  0  1  0  0  0  0  0999 V2000
  161.8950  206.5840  147.2440 C   0  0  0  0  0  0  0  0  0  0  0  0
  162.3280  209.3310  149.8430 C   0  0  2  0  0  3  0  0  0  0  0  0
  161.6510  210.5720  149.2730 C   0  0  0  0  0  0  0  0  0  0  0  0
  160.8760  211.8330  147.3370 C   0  0  0  0  0  0  0  0  0  0  0  0
  161.8770  208.0440  149.1870 C   0  0  0  0  0  0  0  0  0  0  0  0
  161.0100  205.7140  147.8830 C   0  0  0  0  0  3  0  0  0  0  0  0
  161.4190  210.6730  147.8910 C   0  0  0  0  0  3  0  0  0  0  0  0
  160.8330  208.7500  151.7940 C   0  0  2  0  0  3  0  0  0  0  0  0
  162.3310  206.3080  145.9920 F   0  0  0  0  0  0  0  0  0  0  0  0
  161.5810  211.6680  151.5760 C   0  0  0  0  0  2  0  0  0  0  0  0
  160.6240  211.9110  145.8760 C   0  0  0  0  0  1  0  0  0  0  0  0
  160.5970  207.3340  151.2730 C   0  0  0  0  0  2  0  0  0  0  0  0
  162.2260  209.2430  151.3770 C   0  0  2  0  0  3  0  0  0  0  0  0
  162.3280  207.7420  147.8950 C   0  0  0  0  0  3  0  0  0  0  0  0
  160.5740  212.9210  148.1570 C   0  0  0  0  0  3  0  0  0  0  0  0
  160.9880  207.1560  149.8340 C   0  0  0  0  0  0  0  0  0  0  0  0
  160.5670  205.9950  149.1770 C   0  0  0  0  0  3  0  0  0  0  0  0
  162.5790  210.5940  152.0000 C   0  0  0  0  0  2  0  0  0  0  0  0
  161.3770  211.6960  150.0900 C   0  0  0  0  0  0  0  0  0  0  0  0
  160.8220  212.8510  149.5280 C   0  0  0  0  0  3  0  0  0  0  0  0
  159.0280  210.3800  153.2950 O   0  0  0  0  0  0  0  0  0  0  0  0
  159.7780  209.5960  153.9370 C   0  0  0  0  0  0  0  0  0  0  0  0
  160.7070  208.7580  153.2440 N   0  0  0  0  0  2  0  0  0  0  0  0
  162.3790  209.8600  156.4910 C   0  0  0  0  0  0  0  0  0  0  0  0
  160.1670  210.9020  156.0490 C   0  0  0  0  0  2  0  0  0  0  0  0
  159.9660  207.0500  155.5380 C   0  0  0  0  0  1  0  0  0  0  0  0
  163.3230  209.9730  157.2530 O   0  0  0  0  0  0  0  0  0  0  0  0
  161.6850  211.0790  155.9620 C   0  0  0  0  0  2  0  0  0  0  0  0
  160.4290  208.3850  156.0950 C   0  0  2  0  0  3  0  0  0  0  0  0
  159.7020  209.5750  155.4380 C   0  0  2  0  0  3  0  0  0  0  0  0
  161.9510  208.5060  156.0130 C   0  0  0  0  0  2  0  0  0  0  0  0
  1  6  2  0  0  0  0
  1 14  1  0  0  0  0
  2  5  1  6  0  0  0
  2 13  1  0  0  0  0
  3  2  1  0  0  0  0
  3 19  1  0  0  0  0
  4  7  1  0  0  0  0
  4 15  2  0  0  0  0
  5 16  1  0  0  0  0
  6 17  1  0  0  0  0
  7  3  2  0  0  0  0
  8 23  1  1  0  0  0
  9  1  1  0  0  0  0
 10 18  1  0  0  0  0
 11  4  1  0  0  0  0
 12  8  1  0  0  0  0
 13  8  1  0  0  0  0
 13 18  1  1  0  0  0
 14  5  2  0  0  0  0
 15 20  1  0  0  0  0
 16 12  1  0  0  0  0
 17 16  2  0  0  0  0
 19 10  1  0  0  0  0
 20 19  2  0  0  0  0
 21 22  2  0  0  0  0
 23 22  1  0  0  0  0
 24 27  2  0  0  0  0
 28 25  1  0  0  0  0
 28 24  1  0  0  0  0
 29 26  1  6  0  0  0
 30 22  1  6  0  0  0
 30 25  1  0  0  0  0
 30 29  1  0  0  0  0
 31 29  1  0  0  0  0
 31 24  1  0  0  0  0
M  END
>  <MODEL>
5

>  <REMARK>
 VINA RESULT:      -5.1      2.755      5.726
  Name = 
  2 active torsions:
  status: ('A' for Active; 'I' for Inactive)
    1  A    between atoms: C_5  and  C_30
    2  A    between atoms: C_10  and  N_16
                            x       y       z     vdW  Elec       q    Type
                         _______ _______ _______ _____ _____    ______ ____

>  <TORSDO>
F 2

$$$$
=
 OpenBabel11122413183D

 31 35  0  0  1  0  0  0  0  0999 V2000
  161.8130  213.1650  147.4770 C   0  0  0  0  0  0  0  0  0  0  0  0
  159.7130  214.1330  150.5000 C   0  0  2  0  0  3  0  0  0  0  0  0
  158.2610  214.1180  150.0370 C   0  0  0  0  0  0  0  0  0  0  0  0
  156.6380  214.2830  148.2270 C   0  0  0  0  0  0  0  0  0  0  0  0
  160.6410  213.3490  149.5980 C   0  0  0  0  0  0  0  0  0  0  0  0
  162.2900  211.9060  147.8440 C   0  0  0  0  0  3  0  0  0  0  0  0
  157.9600  214.2130  148.6680 C   0  0  0  0  0  3  0  0  0  0  0  0
  159.7850  212.1880  152.1080 C   0  0  2  0  0  3  0  0  0  0  0  0
  162.1400  213.6880  146.2720 F   0  0  0  0  0  0  0  0  0  0  0  0
  157.4270  214.0440  152.4470 C   0  0  0  0  0  2  0  0  0  0  0  0
  156.3430  214.3660  146.7730 C   0  0  0  0  0  1  0  0  0  0  0  0
  160.9300  211.5210  151.3500 C   0  0  0  0  0  2  0  0  0  0  0  0
  159.8780  213.7140  151.9730 C   0  0  2  0  0  3  0  0  0  0  0  0
  160.9950  213.8830  148.3520 C   0  0  0  0  0  3  0  0  0  0  0  0
  155.5930  214.2810  149.1520 C   0  0  0  0  0  3  0  0  0  0  0  0
  161.1340  212.0770  149.9700 C   0  0  0  0  0  0  0  0  0  0  0  0
  161.9600  211.3700  149.0910 C   0  0  0  0  0  3  0  0  0  0  0  0
  158.8480  214.4420  152.8380 C   0  0  0  0  0  2  0  0  0  0  0  0
  157.1950  214.1550  150.9690 C   0  0  0  0  0  0  0  0  0  0  0  0
  155.8730  214.2150  150.5180 C   0  0  0  0  0  3  0  0  0  0  0  0
  157.7340  210.8040  153.5390 O   0  0  0  0  0  0  0  0  0  0  0  0
  158.7840  211.1030  154.1690 C   0  0  0  0  0  0  0  0  0  0  0  0
  159.8450  211.8000  153.5100 N   0  0  0  0  0  2  0  0  0  0  0  0
  161.5280  211.4860  156.5510 C   0  0  0  0  0  0  0  0  0  0  0  0
  159.0940  211.9820  156.5020 C   0  0  0  0  0  2  0  0  0  0  0  0
  159.7690  208.4130  155.1070 C   0  0  0  0  0  1  0  0  0  0  0  0
  162.5010  211.6760  157.2610 O   0  0  0  0  0  0  0  0  0  0  0  0
  160.5040  212.5640  156.3690 C   0  0  0  0  0  2  0  0  0  0  0  0
  159.9600  209.6720  155.9350 C   0  0  2  0  0  3  0  0  0  0  0  0
  158.8940  210.7410  155.6230 C   0  0  2  0  0  3  0  0  0  0  0  0
  161.3860  210.2020  155.7930 C   0  0  0  0  0  2  0  0  0  0  0  0
  1  6  2  0  0  0  0
  1 14  1  0  0  0  0
  2  5  1  6  0  0  0
  2 13  1  0  0  0  0
  3  2  1  0  0  0  0
  3 19  1  0  0  0  0
  4  7  1  0  0  0  0
  4 15  2  0  0  0  0
  5 16  1  0  0  0  0
  6 17  1  0  0  0  0
  7  3  2  0  0  0  0
  8 23  1  1  0  0  0
  9  1  1  0  0  0  0
 10 18  1  0  0  0  0
 11  4  1  0  0  0  0
 12  8  1  0  0  0  0
 13  8  1  0  0  0  0
 13 18  1  1  0  0  0
 14  5  2  0  0  0  0
 15 20  1  0  0  0  0
 16 12  1  0  0  0  0
 17 16  2  0  0  0  0
 19 10  1  0  0  0  0
 20 19  2  0  0  0  0
 21 22  2  0  0  0  0
 23 22  1  0  0  0  0
 24 27  2  0  0  0  0
 28 25  1  0  0  0  0
 28 24  1  0  0  0  0
 29 26  1  6  0  0  0
 30 22  1  6  0  0  0
 30 29  1  0  0  0  0
 30 25  1  0  0  0  0
 31 29  1  0  0  0  0
 31 24  1  0  0  0  0
M  END
>  <MODEL>
6

>  <REMARK>
 VINA RESULT:      -5.1      5.612      8.219
  Name = 
  2 active torsions:
  status: ('A' for Active; 'I' for Inactive)
    1  A    between atoms: C_5  and  C_30
    2  A    between atoms: C_10  and  N_16
                            x       y       z     vdW  Elec       q    Type
                         _______ _______ _______ _____ _____    ______ ____

>  <TORSDO>
F 2

$$$$
=
 OpenBabel11122413183D

 31 35  0  0  1  0  0  0  0  0999 V2000
  162.3790  213.1680  147.3100 C   0  0  0  0  0  0  0  0  0  0  0  0
  159.8510  214.1240  149.9890 C   0  0  2  0  0  3  0  0  0  0  0  0
  158.4780  214.0410  149.3330 C   0  0  0  0  0  0  0  0  0  0  0  0
  157.1130  214.1010  147.3140 C   0  0  0  0  0  0  0  0  0  0  0  0
  160.9210  213.3560  149.2450 C   0  0  0  0  0  0  0  0  0  0  0  0
  162.8460  211.9380  147.7740 C   0  0  0  0  0  3  0  0  0  0  0  0
  158.3640  214.0920  147.9340 C   0  0  0  0  0  3  0  0  0  0  0  0
  159.7700  212.2210  151.6470 C   0  0  2  0  0  3  0  0  0  0  0  0
  162.8500  213.6750  146.1460 F   0  0  0  0  0  0  0  0  0  0  0  0
  157.3240  213.9920  151.6080 C   0  0  0  0  0  2  0  0  0  0  0  0
  157.0190  214.1370  145.8330 C   0  0  0  0  0  1  0  0  0  0  0  0
  161.0320  211.5820  151.0710 C   0  0  0  0  0  2  0  0  0  0  0  0
  159.8260  213.7460  151.4820 C   0  0  2  0  0  3  0  0  0  0  0  0
  161.4230  213.8740  148.0440 C   0  0  0  0  0  3  0  0  0  0  0  0
  155.9530  214.0790  148.0880 C   0  0  0  0  0  3  0  0  0  0  0  0
  161.4040  212.1130  149.7170 C   0  0  0  0  0  0  0  0  0  0  0  0
  162.3670  211.4190  148.9790 C   0  0  0  0  0  3  0  0  0  0  0  0
  158.6620  214.4530  152.1780 C   0  0  0  0  0  2  0  0  0  0  0  0
  157.2930  214.0580  150.1100 C   0  0  0  0  0  0  0  0  0  0  0  0
  156.0440  214.0560  149.4810 C   0  0  0  0  0  3  0  0  0  0  0  0
  160.2110  209.6230  152.7540 O   0  0  0  0  0  0  0  0  0  0  0  0
  159.8900  210.5480  153.5470 C   0  0  0  0  0  0  0  0  0  0  0  0
  159.6510  211.8690  153.0550 N   0  0  0  0  0  2  0  0  0  0  0  0
  159.0450  212.6800  156.3920 C   0  0  0  0  0  0  0  0  0  0  0  0
  158.3030  210.4850  155.4940 C   0  0  0  0  0  2  0  0  0  0  0  0
  162.1880  210.6970  155.4910 C   0  0  0  0  0  1  0  0  0  0  0  0
  158.7410  213.4800  157.2610 O   0  0  0  0  0  0  0  0  0  0  0  0
  157.9800  211.9780  155.6060 C   0  0  0  0  0  2  0  0  0  0  0  0
  160.7540  210.9510  155.9220 C   0  0  2  0  0  3  0  0  0  0  0  0
  159.7360  210.2370  155.0090 C   0  0  2  0  0  3  0  0  0  0  0  0
  160.4840  212.4510  156.0470 C   0  0  0  0  0  2  0  0  0  0  0  0
  1  6  2  0  0  0  0
  1 14  1  0  0  0  0
  2  5  1  6  0  0  0
  2 13  1  0  0  0  0
  3  2  1  0  0  0  0
  3 19  1  0  0  0  0
  4  7  1  0  0  0  0
  4 15  2  0  0  0  0
  5 16  1  0  0  0  0
  6 17  1  0  0  0  0
  7  3  2  0  0  0  0
  8 23  1  1  0  0  0
  9  1  1  0  0  0  0
 10 18  1  0  0  0  0
 11  4  1  0  0  0  0
 12  8  1  0  0  0  0
 13  8  1  0  0  0  0
 13 18  1  6  0  0  0
 14  5  2  0  0  0  0
 15 20  1  0  0  0  0
 16 12  1  0  0  0  0
 17 16  2  0  0  0  0
 19 10  1  0  0  0  0
 20 19  2  0  0  0  0
 21 22  2  0  0  0  0
 23 22  1  0  0  0  0
 24 27  2  0  0  0  0
 25 28  1  0  0  0  0
 28 24  1  0  0  0  0
 29 26  1  6  0  0  0
 29 31  1  0  0  0  0
 30 22  1  6  0  0  0
 30 25  1  0  0  0  0
 30 29  1  0  0  0  0
 31 24  1  0  0  0  0
M  END
>  <MODEL>
7

>  <REMARK>
 VINA RESULT:      -5.1      6.039      8.052
  Name = 
  2 active torsions:
  status: ('A' for Active; 'I' for Inactive)
    1  A    between atoms: C_5  and  C_30
    2  A    between atoms: C_10  and  N_16
                            x       y       z     vdW  Elec       q    Type
                         _______ _______ _______ _____ _____    ______ ____

>  <TORSDO>
F 2

$$$$
=
 OpenBabel11122413183D

 31 35  0  0  1  0  0  0  0  0999 V2000
  161.7960  202.9830  151.8850 C   0  0  0  0  0  0  0  0  0  0  0  0
  162.3980  206.4980  150.5560 C   0  0  2  0  0  3  0  0  0  0  0  0
  161.8360  206.5240  149.1400 C   0  0  0  0  0  0  0  0  0  0  0  0
  161.2060  205.3240  147.1140 C   0  0  0  0  0  0  0  0  0  0  0  0
  161.8570  205.3630  151.3980 C   0  0  0  0  0  0  0  0  0  0  0  0
  160.8300  203.2040  152.8680 C   0  0  0  0  0  3  0  0  0  0  0  0
  161.6410  205.3210  148.4400 C   0  0  0  0  0  3  0  0  0  0  0  0
  160.8200  208.0380  151.7880 C   0  0  2  0  0  3  0  0  0  0  0  0
  162.2330  201.7260  151.6360 F   0  0  0  0  0  0  0  0  0  0  0  0
  161.8080  209.0750  149.1290 C   0  0  0  0  0  2  0  0  0  0  0  0
  160.9920  204.0400  146.4000 C   0  0  0  0  0  1  0  0  0  0  0  0
  160.4810  206.9670  152.8220 C   0  0  0  0  0  2  0  0  0  0  0  0
  162.2570  207.8490  151.2820 C   0  0  2  0  0  3  0  0  0  0  0  0
  162.3080  204.0580  151.1560 C   0  0  0  0  0  3  0  0  0  0  0  0
  160.9770  206.5340  146.4580 C   0  0  0  0  0  3  0  0  0  0  0  0
  160.8850  205.5840  152.4010 C   0  0  0  0  0  0  0  0  0  0  0  0
  160.3850  204.5010  153.1310 C   0  0  0  0  0  3  0  0  0  0  0  0
  162.7060  208.9840  150.3590 C   0  0  0  0  0  2  0  0  0  0  0  0
  161.6380  207.7470  148.4530 C   0  0  0  0  0  0  0  0  0  0  0  0
  161.1910  207.7410  147.1280 C   0  0  0  0  0  3  0  0  0  0  0  0
  161.5780  208.7490  154.4510 O   0  0  0  0  0  0  0  0  0  0  0  0
  161.0700  209.6490  153.7290 C   0  0  0  0  0  0  0  0  0  0  0  0
  160.6650  209.3550  152.3890 N   0  0  0  0  0  2  0  0  0  0  0  0
  158.1650  211.2100  155.3030 C   0  0  0  0  0  0  0  0  0  0  0  0
  160.5860  210.9730  155.8100 C   0  0  0  0  0  2  0  0  0  0  0  0
  160.0820  211.9720  152.0830 C   0  0  0  0  0  1  0  0  0  0  0  0
  157.1430  211.6230  155.8240 O   0  0  0  0  0  0  0  0  0  0  0  0
  159.1760  210.4590  156.1150 C   0  0  0  0  0  2  0  0  0  0  0  0
  159.8100  211.8710  153.5740 C   0  0  2  0  0  3  0  0  0  0  0  0
  160.8710  211.0230  154.3040 C   0  0  2  0  0  3  0  0  0  0  0  0
  158.3850  211.3810  153.8320 C   0  0  0  0  0  2  0  0  0  0  0  0
  1  6  1  0  0  0  0
  2  3  1  6  0  0  0
  2 13  1  0  0  0  0
  2  5  1  0  0  0  0
  4  7  1  0  0  0  0
  5 16  2  0  0  0  0
  6 17  2  0  0  0  0
  7  3  2  0  0  0  0
  8 23  1  1  0  0  0
  8 12  1  0  0  0  0
  9  1  1  0  0  0  0
 10 18  1  0  0  0  0
 11  4  1  0  0  0  0
 13 18  1  6  0  0  0
 13  8  1  0  0  0  0
 14  5  1  0  0  0  0
 14  1  2  0  0  0  0
 15  4  2  0  0  0  0
 15 20  1  0  0  0  0
 16 12  1  0  0  0  0
 16 17  1  0  0  0  0
 19 10  1  0  0  0  0
 19  3  1  0  0  0  0
 20 19  2  0  0  0  0
 22 21  2  0  0  0  0
 23 22  1  0  0  0  0
 24 27  2  0  0  0  0
 24 28  1  0  0  0  0
 25 28  1  0  0  0  0
 29 26  1  6  0  0  0
 29 31  1  0  0  0  0
 29 30  1  0  0  0  0
 30 22  1  6  0  0  0
 30 25  1  0  0  0  0
 31 24  1  0  0  0  0
M  END
>  <MODEL>
8

>  <REMARK>
 VINA RESULT:      -5.0      2.319      4.393
  Name = 
  2 active torsions:
  status: ('A' for Active; 'I' for Inactive)
    1  A    between atoms: C_5  and  C_30
    2  A    between atoms: C_10  and  N_16
                            x       y       z     vdW  Elec       q    Type
                         _______ _______ _______ _____ _____    ______ ____

>  <TORSDO>
F 2

$$$$
=
 OpenBabel11122413183D

 31 35  0  0  1  0  0  0  0  0999 V2000
  161.7990  206.5140  147.1840 C   0  0  0  0  0  0  0  0  0  0  0  0
  162.3770  209.2380  149.7780 C   0  0  2  0  0  3  0  0  0  0  0  0
  161.6930  210.4910  149.2440 C   0  0  0  0  0  0  0  0  0  0  0  0
  160.8540  211.7740  147.3500 C   0  0  0  0  0  0  0  0  0  0  0  0
  161.8820  207.9610  149.1340 C   0  0  0  0  0  0  0  0  0  0  0  0
  160.9300  205.6510  147.8540 C   0  0  0  0  0  3  0  0  0  0  0  0
  161.4050  210.6040  147.8740 C   0  0  0  0  0  3  0  0  0  0  0  0
  160.9570  208.6640  151.7860 C   0  0  2  0  0  3  0  0  0  0  0  0
  162.1790  206.2390  145.9130 F   0  0  0  0  0  0  0  0  0  0  0  0
  161.7340  211.5740  151.5540 C   0  0  0  0  0  2  0  0  0  0  0  0
  160.5420  211.8640  145.9000 C   0  0  0  0  0  1  0  0  0  0  0  0
  160.6810  207.2540  151.2680 C   0  0  0  0  0  2  0  0  0  0  0  0
  162.3380  209.1410  151.3140 C   0  0  2  0  0  3  0  0  0  0  0  0
  162.2740  207.6610  147.8230 C   0  0  0  0  0  3  0  0  0  0  0  0
  160.6010  212.8610  148.1870 C   0  0  0  0  0  3  0  0  0  0  0  0
  161.0090  207.0800  149.8130 C   0  0  0  0  0  0  0  0  0  0  0  0
  160.5460  205.9290  149.1670 C   0  0  0  0  0  3  0  0  0  0  0  0
  162.7340  210.4850  151.9290 C   0  0  0  0  0  2  0  0  0  0  0  0
  161.4680  211.6130  150.0780 C   0  0  0  0  0  0  0  0  0  0  0  0
  160.9060  212.7790  149.5470 C   0  0  0  0  0  3  0  0  0  0  0  0
  159.5540  210.5730  153.3860 O   0  0  0  0  0  0  0  0  0  0  0  0
  160.1660  209.6480  153.9840 C   0  0  0  0  0  0  0  0  0  0  0  0
  160.8920  208.6650  153.2400 N   0  0  0  0  0  2  0  0  0  0  0  0
  159.0870  212.1210  156.4490 C   0  0  0  0  0  0  0  0  0  0  0  0
  158.7180  209.6980  156.0370 C   0  0  0  0  0  2  0  0  0  0  0  0
  162.4920  210.5680  155.6660 C   0  0  0  0  0  1  0  0  0  0  0  0
  158.6850  213.0110  157.1790 O   0  0  0  0  0  0  0  0  0  0  0  0
  158.1310  211.1060  155.8990 C   0  0  0  0  0  2  0  0  0  0  0  0
  161.0600  210.6520  156.1630 C   0  0  2  0  0  3  0  0  0  0  0  0
  160.1460  209.6090  155.4860 C   0  0  2  0  0  3  0  0  0  0  0  0
  160.5250  212.0780  156.0310 C   0  0  0  0  0  2  0  0  0  0  0  0
  1 14  2  0  0  0  0
  1  6  1  0  0  0  0
  2  5  1  6  0  0  0
  2 13  1  0  0  0  0
  3  2  1  0  0  0  0
  3 19  1  0  0  0  0
  4  7  1  0  0  0  0
  4 15  2  0  0  0  0
  5 16  2  0  0  0  0
  6 17  2  0  0  0  0
  7  3  2  0  0  0  0
  8 23  1  1  0  0  0
  9  1  1  0  0  0  0
 10 18  1  0  0  0  0
 11  4  1  0  0  0  0
 12  8  1  0  0  0  0
 13  8  1  0  0  0  0
 13 18  1  1  0  0  0
 14  5  1  0  0  0  0
 15 20  1  0  0  0  0
 16 12  1  0  0  0  0
 17 16  1  0  0  0  0
 19 10  1  0  0  0  0
 20 19  2  0  0  0  0
 21 22  2  0  0  0  0
 23 22  1  0  0  0  0
 24 27  2  0  0  0  0
 28 25  1  0  0  0  0
 28 24  1  0  0  0  0
 29 26  1  6  0  0  0
 30 22  1  6  0  0  0
 30 25  1  0  0  0  0
 30 29  1  0  0  0  0
 31 29  1  0  0  0  0
 31 24  1  0  0  0  0
M  END
>  <MODEL>
9

>  <REMARK>
 VINA RESULT:      -4.6      2.673      5.539
  Name = 
  2 active torsions:
  status: ('A' for Active; 'I' for Inactive)
    1  A    between atoms: C_5  and  C_30
    2  A    between atoms: C_10  and  N_16
                            x       y       z     vdW  Elec       q    Type
                         _______ _______ _______ _____ _____    ______ ____

>  <TORSDO>
F 2

$$$$
