=
 OpenBabel11122414003D

 37 42  0  0  1  0  0  0  0  0999 V2000
  160.7620  206.2280  149.9790 C   0  0  1  0  0  3  0  0  0  0  0  0
  160.4360  208.9050  151.9750 O   0  0  0  0  0  0  0  0  0  0  0  0
  160.9530  205.3950  147.5110 C   0  0  2  0  0  3  0  0  0  0  0  0
  161.5410  207.4350  150.4650 C   0  0  2  0  0  3  0  0  0  0  0  0
  160.5720  206.5290  148.4880 C   0  0  2  0  0  3  0  0  0  0  0  0
  161.3380  207.8330  151.9260 C   0  0  2  0  0  3  0  0  0  0  0  0
  161.9140  204.4000  148.1450 C   0  0  0  0  0  2  0  0  0  0  0  0
  161.2890  207.8500  148.2660 C   0  0  0  0  0  2  0  0  0  0  0  0
  161.3580  204.4910  151.6910 C   0  0  0  0  0  2  0  0  0  0  0  0
  161.3680  203.9600  149.3590 O   0  0  0  0  0  0  0  0  0  0  0  0
  162.6110  210.2460  151.9980 C   0  0  0  0  0  2  0  0  0  0  0  0
  161.0880  210.1740  151.9830 C   0  0  1  0  0  3  0  0  0  0  0  0
  161.6250  204.9910  150.2750 C   0  0  1  0  0  3  0  0  0  0  0  0
  161.2480  208.5390  149.5600 N   0  0  2  0  0  0  0  0  0  0  0  0
  160.9000  206.6860  152.8520 C   0  0  1  0  0  3  0  0  0  0  0  0
  161.8790  210.5300  150.6930 C   0  0  2  0  0  3  0  0  0  0  0  0
  162.2930  209.4860  149.7310 N   0  0  0  0  0  0  0  0  0  0  0  0
  161.8370  205.4800  152.7520 C   0  0  0  0  0  2  0  0  0  0  0  0
  159.7950  206.6400  155.0930 C   0  0  0  0  0  3  0  0  0  0  0  0
  160.8080  207.1490  154.2740 C   0  0  0  0  0  0  0  0  0  0  0  0
  161.7140  208.0890  154.7920 C   0  0  0  0  0  3  0  0  0  0  0  0
  162.4790  209.4190  156.6150 F   0  0  0  0  0  0  0  0  0  0  0  0
  160.5910  208.0000  156.9340 C   0  0  0  0  0  3  0  0  0  0  0  0
  161.6030  208.5120  156.1190 C   0  0  0  0  0  0  0  0  0  0  0  0
  159.6870  207.0640  156.4210 C   0  0  0  0  0  3  0  0  0  0  0  0
  162.5460  210.2330  148.4910 C   0  0  0  0  0  2  0  0  0  0  0  0
  162.0640  211.6770  148.6100 C   0  0  1  0  0  3  0  0  0  0  0  0
  162.9540  212.9790  146.8780 C   0  0  0  0  0  1  0  0  0  0  0  0
  163.1350  212.6030  148.2690 N   0  0  0  0  0  2  0  0  0  0  0  0
  160.8540  211.9130  147.7150 C   0  0  0  0  0  2  0  0  0  0  0  0
  159.9500  212.9930  148.2860 C   0  0  0  0  0  2  0  0  0  0  0  0
  158.7930  213.1100  147.5150 O   0  0  0  0  0  1  0  0  0  0  0  0
  161.4880  205.8930  146.3090 O   0  0  0  0  0  0  0  0  0  0  0  0
  160.6660  205.4580  145.2490 C   0  0  0  0  0  0  0  0  0  0  0  0
  160.5670  204.0750  145.2370 F   0  0  0  0  0  0  0  0  0  0  0  0
  159.4010  206.0200  145.3420 F   0  0  0  0  0  0  0  0  0  0  0  0
  161.2350  205.8640  144.0570 F   0  0  0  0  0  0  0  0  0  0  0  0
  1 13  1  0  0  0  0
  1  4  1  0  0  0  0
  2 12  1  0  0  0  0
  3  7  1  0  0  0  0
  3  5  1  0  0  0  0
  4  6  1  0  0  0  0
  5  1  1  0  0  0  0
  6  2  1  0  0  0  0
  6 15  1  0  0  0  0
  7 10  1  0  0  0  0
  8  5  1  0  0  0  0
  8 14  1  0  0  0  0
  9 18  1  0  0  0  0
 10 13  1  0  0  0  0
 12 11  1  0  0  0  0
 13  9  1  0  0  0  0
 14 17  1  0  0  0  0
 14  4  1  0  0  0  0
 15 20  1  0  0  0  0
 16 12  1  0  0  0  0
 16 11  1  0  0  0  0
 17 16  1  0  0  0  0
 18 15  1  0  0  0  0
 19 25  1  0  0  0  0
 20 21  1  0  0  0  0
 20 19  2  0  0  0  0
 21 24  2  0  0  0  0
 24 22  1  0  0  0  0
 24 23  1  0  0  0  0
 25 23  2  0  0  0  0
 26 27  1  0  0  0  0
 26 17  1  0  0  0  0
 28 29  1  0  0  0  0
 29 27  1  0  0  0  0
 30 31  1  0  0  0  0
 30 27  1  0  0  0  0
 32 31  1  0  0  0  0
 33  3  1  0  0  0  0
 34 36  1  0  0  0  0
 34 33  1  0  0  0  0
 35 34  1  0  0  0  0
 37 34  1  0  0  0  0
M  END
>  <MODEL>
1

>  <REMARK>
 VINA RESULT:      -8.1      0.000      0.000
  Name = 
  8 active torsions:
  status: ('A' for Active; 'I' for Inactive)
    1  A    between atoms: C_1  and  C_4
    2  A    between atoms: C_1  and  N_27
    3  A    between atoms: C_2  and  O_22
    4  A    between atoms: C_4  and  C_12
    5  A    between atoms: C_4  and  N_37
    6  A    between atoms: C_6  and  O_22
    7  A    between atoms: C_8  and  C_12
    8  A    between atoms: C_23  and  C_30
                            x       y       z     vdW  Elec       q    Type
                         _______ _______ _______ _____ _____    ______ ____

>  <TORSDO>
F 8

$$$$
=
 OpenBabel11122414003D

 37 42  0  0  1  0  0  0  0  0999 V2000
  161.5860  211.1720  150.8450 C   0  0  1  0  0  3  0  0  0  0  0  0
  162.4060  208.2880  152.3500 O   0  0  0  0  0  0  0  0  0  0  0  0
  161.6570  212.5320  148.6150 C   0  0  2  0  0  3  0  0  0  0  0  0
  161.2070  209.7040  150.8600 C   0  0  2  0  0  3  0  0  0  0  0  0
  162.1950  211.3480  149.4490 C   0  0  2  0  0  3  0  0  0  0  0  0
  161.2130  209.0130  152.2220 C   0  0  2  0  0  3  0  0  0  0  0  0
  160.2870  212.9880  149.0990 C   0  0  0  0  0  2  0  0  0  0  0  0
  162.0690  209.9800  148.7970 C   0  0  0  0  0  2  0  0  0  0  0  0
  160.0430  212.1320  152.5770 C   0  0  0  0  0  2  0  0  0  0  0  0
  160.3560  213.2330  150.4770 O   0  0  0  0  0  0  0  0  0  0  0  0
  160.9110  206.4000  151.4920 C   0  0  0  0  0  2  0  0  0  0  0  0
  162.2700  206.9270  151.9420 C   0  0  1  0  0  3  0  0  0  0  0  0
  160.2930  211.9690  151.0810 C   0  0  1  0  0  3  0  0  0  0  0  0
  162.0700  209.0190  149.9040 N   0  0  2  0  0  0  0  0  0  0  0  0
  160.9930  209.9510  153.4210 C   0  0  1  0  0  3  0  0  0  0  0  0
  161.9650  206.7050  150.4340 C   0  0  2  0  0  3  0  0  0  0  0  0
  161.4250  207.7930  149.5900 N   0  0  0  0  0  0  0  0  0  0  0  0
  159.7320  210.8020  153.2590 C   0  0  0  0  0  2  0  0  0  0  0  0
  161.8860  209.4200  155.6940 C   0  0  0  0  0  3  0  0  0  0  0  0
  160.9300  209.1770  154.7020 C   0  0  0  0  0  0  0  0  0  0  0  0
  159.9360  208.2090  154.9190 C   0  0  0  0  0  3  0  0  0  0  0  0
  158.9420  206.5610  156.3250 F   0  0  0  0  0  0  0  0  0  0  0  0
  160.8590  207.7420  157.1080 C   0  0  0  0  0  3  0  0  0  0  0  0
  159.9030  207.4950  156.1200 C   0  0  0  0  0  0  0  0  0  0  0  0
  161.8500  208.7050  156.8950 C   0  0  0  0  0  3  0  0  0  0  0  0
  161.7380  207.3610  148.2210 C   0  0  0  0  0  2  0  0  0  0  0  0
  160.8850  206.1610  147.8130 C   0  0  1  0  0  3  0  0  0  0  0  0
  160.9830  205.8560  145.4930 C   0  0  0  0  0  1  0  0  0  0  0  0
  160.1870  206.4310  146.5640 N   0  0  0  0  0  2  0  0  0  0  0  0
  161.7470  204.9110  147.6800 C   0  0  0  0  0  2  0  0  0  0  0  0
  161.1960  203.7710  148.5200 C   0  0  0  0  0  2  0  0  0  0  0  0
  161.1830  202.5890  147.7790 O   0  0  0  0  0  1  0  0  0  0  0  0
  161.6150  212.2330  147.2420 O   0  0  0  0  0  0  0  0  0  0  0  0
  162.1630  213.3250  146.5390 C   0  0  0  0  0  0  0  0  0  0  0  0
  162.9490  212.8880  145.4830 F   0  0  0  0  0  0  0  0  0  0  0  0
  161.1620  214.1590  146.0640 F   0  0  0  0  0  0  0  0  0  0  0  0
  162.9600  214.0500  147.4040 F   0  0  0  0  0  0  0  0  0  0  0  0
  1  4  1  0  0  0  0
  1 13  1  0  0  0  0
  3  7  1  0  0  0  0
  3  5  1  0  0  0  0
  4  6  1  0  0  0  0
  5  1  1  0  0  0  0
  6  2  1  0  0  0  0
  6 15  1  0  0  0  0
  7 10  1  0  0  0  0
  8  5  1  0  0  0  0
  8 14  1  0  0  0  0
  9 18  1  0  0  0  0
 10 13  1  0  0  0  0
 11 12  1  0  0  0  0
 12  2  1  0  0  0  0
 13  9  1  0  0  0  0
 14  4  1  0  0  0  0
 15 20  1  0  0  0  0
 16 11  1  0  0  0  0
 16 12  1  0  0  0  0
 17 14  1  0  0  0  0
 17 16  1  0  0  0  0
 18 15  1  0  0  0  0
 19 25  1  0  0  0  0
 20 21  1  0  0  0  0
 20 19  2  0  0  0  0
 21 24  2  0  0  0  0
 24 22  1  0  0  0  0
 24 23  1  0  0  0  0
 25 23  2  0  0  0  0
 26 17  1  0  0  0  0
 27 26  1  0  0  0  0
 28 29  1  0  0  0  0
 29 27  1  0  0  0  0
 30 27  1  0  0  0  0
 30 31  1  0  0  0  0
 32 31  1  0  0  0  0
 33  3  1  0  0  0  0
 34 33  1  0  0  0  0
 34 37  1  0  0  0  0
 35 34  1  0  0  0  0
 36 34  1  0  0  0  0
M  END
>  <MODEL>
2

>  <REMARK>
 VINA RESULT:      -7.3      2.880      5.898
  Name = 
  8 active torsions:
  status: ('A' for Active; 'I' for Inactive)
    1  A    between atoms: C_1  and  C_4
    2  A    between atoms: C_1  and  N_27
    3  A    between atoms: C_2  and  O_22
    4  A    between atoms: C_4  and  C_12
    5  A    between atoms: C_4  and  N_37
    6  A    between atoms: C_6  and  O_22
    7  A    between atoms: C_8  and  C_12
    8  A    between atoms: C_23  and  C_30
                            x       y       z     vdW  Elec       q    Type
                         _______ _______ _______ _____ _____    ______ ____

>  <TORSDO>
F 8

$$$$
=
 OpenBabel11122414003D

 37 42  0  0  1  0  0  0  0  0999 V2000
  161.8210  207.1400  152.5950 C   0  0  1  0  0  3  0  0  0  0  0  0
  162.6920  206.7040  149.3840 O   0  0  0  0  0  0  0  0  0  0  0  0
  161.8130  208.7950  154.6160 C   0  0  2  0  0  3  0  0  0  0  0  0
  161.4410  207.5990  151.2000 C   0  0  2  0  0  3  0  0  0  0  0  0
  162.3800  208.4190  153.2290 C   0  0  2  0  0  3  0  0  0  0  0  0
  161.4950  206.5430  150.0980 C   0  0  2  0  0  3  0  0  0  0  0  0
  160.4630  208.1410  154.8720 C   0  0  0  0  0  2  0  0  0  0  0  0
  162.2280  209.4820  152.1530 C   0  0  0  0  0  2  0  0  0  0  0  0
  160.3430  205.1360  152.9110 C   0  0  0  0  0  2  0  0  0  0  0  0
  160.5810  206.7620  154.6480 O   0  0  0  0  0  0  0  0  0  0  0  0
  161.1640  208.0860  147.8700 C   0  0  0  0  0  2  0  0  0  0  0  0
  162.5390  207.5330  148.2330 C   0  0  1  0  0  3  0  0  0  0  0  0
  160.5380  206.6090  153.2550 C   0  0  1  0  0  3  0  0  0  0  0  0
  162.2680  208.7560  150.8790 N   0  0  2  0  0  0  0  0  0  0  0  0
  161.3200  205.0940  150.5840 C   0  0  1  0  0  3  0  0  0  0  0  0
  162.1800  209.0180  148.5200 C   0  0  2  0  0  3  0  0  0  0  0  0
  161.6110  209.4360  149.8190 N   0  0  0  0  0  0  0  0  0  0  0  0
  160.0550  204.9220  151.4270 C   0  0  0  0  0  2  0  0  0  0  0  0
  160.9790  202.7980  149.6580 C   0  0  0  0  0  3  0  0  0  0  0  0
  161.3020  204.1400  149.4290 C   0  0  0  0  0  0  0  0  0  0  0  0
  161.6120  204.5670  148.1270 C   0  0  0  0  0  3  0  0  0  0  0  0
  161.8970  204.0720  145.8140 F   0  0  0  0  0  0  0  0  0  0  0  0
  161.2710  202.3170  147.3010 C   0  0  0  0  0  3  0  0  0  0  0  0
  161.5960  203.6560  147.0680 C   0  0  0  0  0  0  0  0  0  0  0  0
  160.9620  201.8890  148.5960 C   0  0  0  0  0  3  0  0  0  0  0  0
  161.8730  210.8810  149.8680 C   0  0  0  0  0  2  0  0  0  0  0  0
  161.6910  211.5210  148.4930 C   0  0  1  0  0  3  0  0  0  0  0  0
  160.5100  213.1650  149.6700 C   0  0  0  0  0  1  0  0  0  0  0  0
  160.4930  212.3480  148.4690 N   0  0  0  0  0  2  0  0  0  0  0  0
  162.9150  212.3480  148.1200 C   0  0  0  0  0  2  0  0  0  0  0  0
  162.7080  213.0740  146.8010 C   0  0  0  0  0  2  0  0  0  0  0  0
  162.6770  214.4530  147.0100 O   0  0  0  0  0  1  0  0  0  0  0  0
  161.7220  210.1880  154.7880 O   0  0  0  0  0  0  0  0  0  0  0  0
  162.5200  210.5470  155.8930 C   0  0  0  0  0  0  0  0  0  0  0  0
  161.9070  211.5380  156.6440 F   0  0  0  0  0  0  0  0  0  0  0  0
  162.7810  209.4440  156.6930 F   0  0  0  0  0  0  0  0  0  0  0  0
  163.7240  211.0380  155.4240 F   0  0  0  0  0  0  0  0  0  0  0  0
  1  5  1  0  0  0  0
  1 13  1  0  0  0  0
  2  6  1  0  0  0  0
  3 33  1  0  0  0  0
  3  7  1  0  0  0  0
  4  1  1  0  0  0  0
  5  3  1  0  0  0  0
  6 15  1  0  0  0  0
  6  4  1  0  0  0  0
  8  5  1  0  0  0  0
  9 13  1  0  0  0  0
 10  7  1  0  0  0  0
 11 12  1  0  0  0  0
 11 16  1  0  0  0  0
 12 16  1  0  0  0  0
 12  2  1  0  0  0  0
 13 10  1  0  0  0  0
 14  4  1  0  0  0  0
 14  8  1  0  0  0  0
 15 18  1  0  0  0  0
 16 17  1  0  0  0  0
 17 26  1  0  0  0  0
 17 14  1  0  0  0  0
 18  9  1  0  0  0  0
 20 19  1  0  0  0  0
 20 15  1  0  0  0  0
 21 20  2  0  0  0  0
 22 24  1  0  0  0  0
 23 25  1  0  0  0  0
 24 23  2  0  0  0  0
 24 21  1  0  0  0  0
 25 19  2  0  0  0  0
 27 26  1  0  0  0  0
 29 27  1  0  0  0  0
 29 28  1  0  0  0  0
 30 27  1  0  0  0  0
 31 32  1  0  0  0  0
 31 30  1  0  0  0  0
 33 34  1  0  0  0  0
 34 35  1  0  0  0  0
 34 36  1  0  0  0  0
 37 34  1  0  0  0  0
M  END
>  <MODEL>
3

>  <REMARK>
 VINA RESULT:      -5.5      1.802      6.813
  Name = 
  8 active torsions:
  status: ('A' for Active; 'I' for Inactive)
    1  A    between atoms: C_1  and  C_4
    2  A    between atoms: C_1  and  N_27
    3  A    between atoms: C_2  and  O_22
    4  A    between atoms: C_4  and  C_12
    5  A    between atoms: C_4  and  N_37
    6  A    between atoms: C_6  and  O_22
    7  A    between atoms: C_8  and  C_12
    8  A    between atoms: C_23  and  C_30
                            x       y       z     vdW  Elec       q    Type
                         _______ _______ _______ _____ _____    ______ ____

>  <TORSDO>
F 8

$$$$
=
 OpenBabel11122414003D

 37 42  0  0  1  0  0  0  0  0999 V2000
  160.6450  205.2100  151.3360 C   0  0  1  0  0  3  0  0  0  0  0  0
  160.5430  208.4580  150.5000 O   0  0  0  0  0  0  0  0  0  0  0  0
  160.7780  202.7600  150.4400 C   0  0  2  0  0  3  0  0  0  0  0  0
  161.5240  206.3060  150.7670 C   0  0  2  0  0  3  0  0  0  0  0  0
  160.4930  204.2510  150.1510 C   0  0  2  0  0  3  0  0  0  0  0  0
  161.3470  207.7010  151.3650 C   0  0  2  0  0  3  0  0  0  0  0  0
  161.6430  202.5800  151.6790 C   0  0  0  0  0  2  0  0  0  0  0  0
  161.3260  204.8720  149.0420 C   0  0  0  0  0  2  0  0  0  0  0  0
  161.0720  205.4190  153.8010 C   0  0  0  0  0  2  0  0  0  0  0  0
  161.0520  203.2740  152.7440 O   0  0  0  0  0  0  0  0  0  0  0  0
  162.8290  209.2080  149.6370 C   0  0  0  0  0  2  0  0  0  0  0  0
  161.3060  209.2280  149.5720 C   0  0  1  0  0  3  0  0  0  0  0  0
  161.3930  204.6190  152.5430 C   0  0  1  0  0  3  0  0  0  0  0  0
  161.3370  206.3110  149.3210 N   0  0  2  0  0  0  0  0  0  0  0  0
  160.8020  207.7220  152.8030 C   0  0  1  0  0  3  0  0  0  0  0  0
  162.1340  208.4090  148.5420 C   0  0  2  0  0  3  0  0  0  0  0  0
  162.4610  206.9860  148.7740 N   0  0  0  0  0  0  0  0  0  0  0  0
  161.6290  206.8390  153.7410 C   0  0  0  0  0  2  0  0  0  0  0  0
  159.8630  210.0370  152.7450 C   0  0  0  0  0  3  0  0  0  0  0  0
  160.7420  209.1220  153.3330 C   0  0  0  0  0  0  0  0  0  0  0  0
  161.5580  209.5300  154.4010 C   0  0  0  0  0  3  0  0  0  0  0  0
  162.2780  211.2350  155.9030 F   0  0  0  0  0  0  0  0  0  0  0  0
  160.6080  211.7540  154.2830 C   0  0  0  0  0  3  0  0  0  0  0  0
  161.4890  210.8440  154.8730 C   0  0  0  0  0  0  0  0  0  0  0  0
  159.7960  211.3500  153.2190 C   0  0  0  0  0  3  0  0  0  0  0  0
  162.7880  206.4790  147.4340 C   0  0  0  0  0  2  0  0  0  0  0  0
  161.6070  205.7210  146.8280 C   0  0  1  0  0  3  0  0  0  0  0  0
  160.3150  206.2280  144.9420 C   0  0  0  0  0  1  0  0  0  0  0  0
  160.6210  206.6520  146.2970 N   0  0  0  0  0  2  0  0  0  0  0  0
  162.0840  204.7720  145.7360 C   0  0  0  0  0  2  0  0  0  0  0  0
  161.6720  203.3400  146.0340 C   0  0  0  0  0  2  0  0  0  0  0  0
  160.7810  202.8830  145.0620 O   0  0  0  0  0  1  0  0  0  0  0  0
  161.3640  202.1130  149.3370 O   0  0  0  0  0  0  0  0  0  0  0  0
  160.4280  201.1960  148.8190 C   0  0  0  0  0  0  0  0  0  0  0  0
  159.5920  201.8100  147.8980 F   0  0  0  0  0  0  0  0  0  0  0  0
  161.0680  200.1180  148.2250 F   0  0  0  0  0  0  0  0  0  0  0  0
  159.6530  200.7210  149.8600 F   0  0  0  0  0  0  0  0  0  0  0  0
  1 13  1  0  0  0  0
  2  6  1  0  0  0  0
  3  7  1  0  0  0  0
  4  1  1  0  0  0  0
  4  6  1  0  0  0  0
  5  3  1  0  0  0  0
  5  1  1  0  0  0  0
  6 15  1  0  0  0  0
  7 10  1  0  0  0  0
  8 14  1  0  0  0  0
  8  5  1  0  0  0  0
 12 11  1  0  0  0  0
 12  2  1  0  0  0  0
 13 10  1  0  0  0  0
 13  9  1  0  0  0  0
 14  4  1  0  0  0  0
 15 20  1  0  0  0  0
 15 18  1  0  0  0  0
 16 17  1  0  0  0  0
 16 12  1  0  0  0  0
 16 11  1  0  0  0  0
 17 14  1  0  0  0  0
 18  9  1  0  0  0  0
 19 25  2  0  0  0  0
 19 20  1  0  0  0  0
 20 21  2  0  0  0  0
 21 24  1  0  0  0  0
 23 24  2  0  0  0  0
 24 22  1  0  0  0  0
 25 23  1  0  0  0  0
 26 17  1  0  0  0  0
 27 26  1  0  0  0  0
 28 29  1  0  0  0  0
 29 27  1  0  0  0  0
 30 31  1  0  0  0  0
 30 27  1  0  0  0  0
 32 31  1  0  0  0  0
 33  3  1  0  0  0  0
 34 33  1  0  0  0  0
 34 37  1  0  0  0  0
 35 34  1  0  0  0  0
 36 34  1  0  0  0  0
M  END
>  <MODEL>
4

>  <REMARK>
 VINA RESULT:      -5.3      2.797      4.669
  Name = 
  8 active torsions:
  status: ('A' for Active; 'I' for Inactive)
    1  A    between atoms: C_1  and  C_4
    2  A    between atoms: C_1  and  N_27
    3  A    between atoms: C_2  and  O_22
    4  A    between atoms: C_4  and  C_12
    5  A    between atoms: C_4  and  N_37
    6  A    between atoms: C_6  and  O_22
    7  A    between atoms: C_8  and  C_12
    8  A    between atoms: C_23  and  C_30
                            x       y       z     vdW  Elec       q    Type
                         _______ _______ _______ _____ _____    ______ ____

>  <TORSDO>
F 8

$$$$
=
 OpenBabel11122414003D

 37 42  0  0  1  0  0  0  0  0999 V2000
  162.1640  207.0960  150.3540 C   0  0  1  0  0  3  0  0  0  0  0  0
  162.5610  210.2110  151.5360 O   0  0  0  0  0  0  0  0  0  0  0  0
  161.8890  204.5750  150.9810 C   0  0  2  0  0  3  0  0  0  0  0  0
  161.4030  208.1790  151.0950 C   0  0  2  0  0  3  0  0  0  0  0  0
  162.3040  205.9990  151.4150 C   0  0  2  0  0  3  0  0  0  0  0  0
  161.6550  209.6170  150.6450 C   0  0  2  0  0  3  0  0  0  0  0  0
  160.9480  204.6000  149.7850 C   0  0  0  0  0  2  0  0  0  0  0  0
  161.5810  206.5460  152.6350 C   0  0  0  0  0  2  0  0  0  0  0  0
  161.6220  207.6160  147.9590 C   0  0  0  0  0  2  0  0  0  0  0  0
  161.5330  205.3690  148.7690 O   0  0  0  0  0  0  0  0  0  0  0  0
  160.3890  211.0180  152.6160 C   0  0  0  0  0  2  0  0  0  0  0  0
  161.9100  210.9220  152.5890 C   0  0  1  0  0  3  0  0  0  0  0  0
  161.3090  206.7020  149.1380 C   0  0  1  0  0  3  0  0  0  0  0  0
  161.6670  208.0050  152.5180 N   0  0  2  0  0  0  0  0  0  0  0  0
  162.1230  209.7640  149.1870 C   0  0  1  0  0  3  0  0  0  0  0  0
  161.0780  210.0510  153.5720 C   0  0  2  0  0  3  0  0  0  0  0  0
  160.6290  208.6910  153.2040 N   0  0  0  0  0  0  0  0  0  0  0  0
  161.1810  209.0560  148.2100 C   0  0  0  0  0  2  0  0  0  0  0  0
  163.4070  211.6270  148.1240 C   0  0  0  0  0  3  0  0  0  0  0  0
  162.2630  211.2080  148.8120 C   0  0  0  0  0  0  0  0  0  0  0  0
  161.2710  212.1450  149.1460 C   0  0  0  0  0  3  0  0  0  0  0  0
  160.4700  214.3900  149.1160 F   0  0  0  0  0  0  0  0  0  0  0  0
  162.5730  213.9010  148.1040 C   0  0  0  0  0  3  0  0  0  0  0  0
  161.4290  213.4880  148.7910 C   0  0  0  0  0  0  0  0  0  0  0  0
  163.5610  212.9700  147.7700 C   0  0  0  0  0  3  0  0  0  0  0  0
  160.3370  208.0580  154.4980 C   0  0  0  0  0  2  0  0  0  0  0  0
  160.7040  208.9810  155.6590 C   0  0  1  0  0  3  0  0  0  0  0  0
  159.2770  210.6950  156.3720 C   0  0  0  0  0  1  0  0  0  0  0  0
  159.5310  209.2680  156.4730 N   0  0  0  0  0  2  0  0  0  0  0  0
  161.8020  208.3580  156.5110 C   0  0  0  0  0  2  0  0  0  0  0  0
  162.5870  209.4220  157.2600 C   0  0  0  0  0  2  0  0  0  0  0  0
  163.0030  210.4220  156.3810 O   0  0  0  0  0  1  0  0  0  0  0  0
  161.3140  203.8490  152.0400 O   0  0  0  0  0  0  0  0  0  0  0  0
  161.3320  202.4830  151.6950 C   0  0  0  0  0  0  0  0  0  0  0  0
  161.1420  202.3150  150.3310 F   0  0  0  0  0  0  0  0  0  0  0  0
  162.5270  201.8920  152.0780 F   0  0  0  0  0  0  0  0  0  0  0  0
  160.3010  201.8470  152.3600 F   0  0  0  0  0  0  0  0  0  0  0  0
  1  4  1  0  0  0  0
  1  5  1  0  0  0  0
  2 12  1  0  0  0  0
  3  5  1  0  0  0  0
  3 33  1  0  0  0  0
  4 14  1  0  0  0  0
  5  8  1  0  0  0  0
  6  4  1  0  0  0  0
  6  2  1  0  0  0  0
  7  3  1  0  0  0  0
  9 18  1  0  0  0  0
  9 13  1  0  0  0  0
 10 13  1  0  0  0  0
 10  7  1  0  0  0  0
 11 16  1  0  0  0  0
 12 11  1  0  0  0  0
 12 16  1  0  0  0  0
 13  1  1  0  0  0  0
 14  8  1  0  0  0  0
 14 17  1  0  0  0  0
 15  6  1  0  0  0  0
 17 16  1  0  0  0  0
 17 26  1  0  0  0  0
 18 15  1  0  0  0  0
 19 20  1  0  0  0  0
 20 21  2  0  0  0  0
 20 15  1  0  0  0  0
 23 24  2  0  0  0  0
 24 22  1  0  0  0  0
 24 21  1  0  0  0  0
 25 23  1  0  0  0  0
 25 19  2  0  0  0  0
 26 27  1  0  0  0  0
 27 29  1  0  0  0  0
 27 30  1  0  0  0  0
 28 29  1  0  0  0  0
 30 31  1  0  0  0  0
 32 31  1  0  0  0  0
 34 33  1  0  0  0  0
 34 36  1  0  0  0  0
 34 37  1  0  0  0  0
 35 34  1  0  0  0  0
M  END
>  <MODEL>
5

>  <REMARK>
 VINA RESULT:      -5.1      3.240      6.695
  Name = 
  8 active torsions:
  status: ('A' for Active; 'I' for Inactive)
    1  A    between atoms: C_1  and  C_4
    2  A    between atoms: C_1  and  N_27
    3  A    between atoms: C_2  and  O_22
    4  A    between atoms: C_4  and  C_12
    5  A    between atoms: C_4  and  N_37
    6  A    between atoms: C_6  and  O_22
    7  A    between atoms: C_8  and  C_12
    8  A    between atoms: C_23  and  C_30
                            x       y       z     vdW  Elec       q    Type
                         _______ _______ _______ _____ _____    ______ ____

>  <TORSDO>
F 8

$$$$
