=
 OpenBabel11122413073D

 31 35  0  0  1  0  0  0  0  0999 V2000
  160.6220  207.8700  156.3530 C   0  0  0  0  0  0  0  0  0  0  0  0
  161.4640  208.8490  152.8210 N   0  0  0  0  0  0  0  0  0  0  0  0
  161.3940  207.6790  151.9690 C   0  0  0  0  0  0  0  0  0  0  0  0
  161.0330  205.2950  151.6390 C   0  0  0  0  0  0  0  0  0  0  0  0
  160.9030  208.8470  154.1490 C   0  0  0  0  0  0  0  0  0  0  0  0
  159.7850  208.9280  156.7180 C   0  0  0  0  0  3  0  0  0  0  0  0
  161.1690  206.3940  152.4910 C   0  0  0  0  0  3  0  0  0  0  0  0
  160.3080  210.9350  152.2760 C   0  0  2  0  0  3  0  0  0  0  0  0
  160.8920  206.8820  157.2400 F   0  0  0  0  0  0  0  0  0  0  0  0
  161.7040  209.1050  150.0390 O   0  0  0  0  0  0  0  0  0  0  0  0
  160.7560  203.7010  152.3080 Cl  0  0  0  0  0  0  0  0  0  0  0  0
  159.8140  210.9560  153.6200 O   0  0  0  0  0  0  0  0  0  0  0  0
  161.6450  210.1860  152.2300 C   0  0  2  0  0  3  0  0  0  0  0  0
  161.1840  207.8300  155.0730 C   0  0  0  0  0  3  0  0  0  0  0  0
  161.1030  205.4700  150.2550 C   0  0  0  0  0  3  0  0  0  0  0  0
  160.0670  209.9150  154.5260 C   0  0  0  0  0  0  0  0  0  0  0  0
  159.5090  209.9510  155.8070 C   0  0  0  0  0  3  0  0  0  0  0  0
  162.2730  210.1380  150.8330 C   0  0  0  0  0  2  0  0  0  0  0  0
  161.4790  207.8400  150.5750 C   0  0  0  0  0  0  0  0  0  0  0  0
  161.3230  206.7420  149.7240 C   0  0  0  0  0  3  0  0  0  0  0  0
  160.4610  212.3030  151.8010 N   0  0  0  0  0  2  0  0  0  0  0  0
  158.1090  212.9040  151.7480 C   0  0  0  0  0  1  0  0  0  0  0  0
  159.3430  212.5880  150.9100 C   0  0  1  0  0  3  0  0  0  0  0  0
  158.2480  213.3660  147.5270 C   0  0  1  0  0  3  0  0  0  0  0  0
  158.3640  214.4530  149.5150 C   0  0  0  0  0  2  0  0  0  0  0  0
  161.6180  212.7070  148.9650 O   0  0  0  0  0  1  0  0  0  0  0  0
  157.3490  212.5970  146.5830 C   0  0  0  0  0  1  0  0  0  0  0  0
  157.5850  213.5580  148.7540 O   0  0  0  0  0  0  0  0  0  0  0  0
  160.4270  213.3830  148.6960 C   0  0  2  0  0  3  0  0  0  0  0  0
  159.6640  213.7730  149.9750 C   0  0  2  0  0  3  0  0  0  0  0  0
  159.5450  212.5860  147.7410 C   0  0  0  0  0  2  0  0  0  0  0  0
  1  6  1  0  0  0  0
  1  9  1  0  0  0  0
  2  5  1  0  0  0  0
  3  7  1  0  0  0  0
  3  2  1  0  0  0  0
  4 11  1  0  0  0  0
  4  7  2  0  0  0  0
  5 16  2  0  0  0  0
  5 14  1  0  0  0  0
  8 21  1  1  0  0  0
  8 12  1  0  0  0  0
 10 19  1  0  0  0  0
 10 18  1  0  0  0  0
 12 16  1  0  0  0  0
 13 18  1  6  0  0  0
 13  8  1  0  0  0  0
 13  2  1  0  0  0  0
 14  1  2  0  0  0  0
 15  4  1  0  0  0  0
 16 17  1  0  0  0  0
 17  6  2  0  0  0  0
 19  3  2  0  0  0  0
 20 15  2  0  0  0  0
 20 19  1  0  0  0  0
 23 22  1  1  0  0  0
 23 21  1  0  0  0  0
 24 27  1  6  0  0  0
 24 31  1  0  0  0  0
 24 28  1  0  0  0  0
 25 30  1  0  0  0  0
 28 25  1  0  0  0  0
 29 26  1  1  0  0  0
 29 30  1  0  0  0  0
 30 23  1  6  0  0  0
 31 29  1  0  0  0  0
M  END
>  <MODEL>
1

>  <REMARK>
 VINA RESULT:      -7.6      0.000      0.000
  Name = 
  3 active torsions:
  status: ('A' for Active; 'I' for Inactive)
    1  A    between atoms: C_5  and  N_16
    2  A    between atoms: C_5  and  C_30
    3  A    between atoms: C_10  and  N_16
                            x       y       z     vdW  Elec       q    Type
                         _______ _______ _______ _____ _____    ______ ____

>  <TORSDO>
F 3

$$$$
=
 OpenBabel11122413073D

 31 35  0  0  1  0  0  0  0  0999 V2000
  160.9240  206.9370  147.1150 C   0  0  0  0  0  0  0  0  0  0  0  0
  160.7800  204.8880  150.2650 N   0  0  0  0  0  0  0  0  0  0  0  0
  160.8710  203.4820  149.9270 C   0  0  0  0  0  0  0  0  0  0  0  0
  161.0360  201.6840  148.2960 C   0  0  0  0  0  0  0  0  0  0  0  0
  161.1120  205.9140  149.3080 C   0  0  0  0  0  0  0  0  0  0  0  0
  161.7930  207.9570  147.5140 C   0  0  0  0  0  3  0  0  0  0  0  0
  160.8740  203.0380  148.5940 C   0  0  0  0  0  3  0  0  0  0  0  0
  162.2180  205.9220  151.9530 C   0  0  2  0  0  3  0  0  0  0  0  0
  160.4120  206.9350  145.8610 F   0  0  0  0  0  0  0  0  0  0  0  0
  161.0310  202.9580  152.2830 O   0  0  0  0  0  0  0  0  0  0  0  0
  161.0350  201.1490  146.6290 Cl  0  0  0  0  0  0  0  0  0  0  0  0
  162.4820  206.9710  151.0160 O   0  0  0  0  0  0  0  0  0  0  0  0
  160.8370  205.3170  151.6730 C   0  0  2  0  0  3  0  0  0  0  0  0
  160.5800  205.9200  148.0100 C   0  0  0  0  0  3  0  0  0  0  0  0
  161.2130  200.7570  149.3260 C   0  0  0  0  0  3  0  0  0  0  0  0
  161.9790  206.9500  149.7070 C   0  0  0  0  0  0  0  0  0  0  0  0
  162.3180  207.9650  148.8090 C   0  0  0  0  0  3  0  0  0  0  0  0
  160.4470  204.2020  152.6490 C   0  0  0  0  0  2  0  0  0  0  0  0
  161.0340  202.5380  150.9560 C   0  0  0  0  0  0  0  0  0  0  0  0
  161.2150  201.1850  150.6550 C   0  0  0  0  0  3  0  0  0  0  0  0
  162.2860  206.4590  153.3050 N   0  0  0  0  0  2  0  0  0  0  0  0
  160.2040  207.0740  154.3920 C   0  0  0  0  0  1  0  0  0  0  0  0
  161.2860  207.5140  153.4120 C   0  0  1  0  0  3  0  0  0  0  0  0
  159.8330  210.7740  154.1250 C   0  0  1  0  0  3  0  0  0  0  0  0
  161.2330  209.3270  155.1710 C   0  0  0  0  0  2  0  0  0  0  0  0
  162.3610  209.6660  151.6280 O   0  0  0  0  0  1  0  0  0  0  0  0
  158.4030  211.2580  154.0160 C   0  0  0  0  0  1  0  0  0  0  0  0
  159.8750  209.6140  154.9220 O   0  0  0  0  0  0  0  0  0  0  0  0
  161.8140  209.9910  152.8690 C   0  0  2  0  0  3  0  0  0  0  0  0
  161.9210  208.8380  153.8850 C   0  0  2  0  0  3  0  0  0  0  0  0
  160.3760  210.4790  152.7270 C   0  0  0  0  0  2  0  0  0  0  0  0
  1  6  2  0  0  0  0
  1 14  1  0  0  0  0
  2 13  1  0  0  0  0
  3  2  1  0  0  0  0
  3 19  1  0  0  0  0
  4  7  1  0  0  0  0
  4 15  2  0  0  0  0
  5 16  1  0  0  0  0
  5  2  1  0  0  0  0
  6 17  1  0  0  0  0
  7  3  2  0  0  0  0
  8 21  1  1  0  0  0
  9  1  1  0  0  0  0
 10 18  1  0  0  0  0
 11  4  1  0  0  0  0
 12  8  1  0  0  0  0
 13  8  1  0  0  0  0
 13 18  1  1  0  0  0
 14  5  2  0  0  0  0
 15 20  1  0  0  0  0
 16 12  1  0  0  0  0
 17 16  2  0  0  0  0
 19 10  1  0  0  0  0
 20 19  2  0  0  0  0
 21 23  1  0  0  0  0
 23 22  1  1  0  0  0
 24 27  1  6  0  0  0
 24 28  1  0  0  0  0
 28 25  1  0  0  0  0
 29 26  1  6  0  0  0
 29 30  1  0  0  0  0
 30 23  1  6  0  0  0
 30 25  1  0  0  0  0
 31 29  1  0  0  0  0
 31 24  1  0  0  0  0
M  END
>  <MODEL>
2

>  <REMARK>
 VINA RESULT:      -7.6      4.066      6.609
  Name = 
  3 active torsions:
  status: ('A' for Active; 'I' for Inactive)
    1  A    between atoms: C_5  and  N_16
    2  A    between atoms: C_5  and  C_30
    3  A    between atoms: C_10  and  N_16
                            x       y       z     vdW  Elec       q    Type
                         _______ _______ _______ _____ _____    ______ ____

>  <TORSDO>
F 3

$$$$
=
 OpenBabel11122413073D

 31 35  0  0  1  0  0  0  0  0999 V2000
  161.0840  207.2740  154.4630 C   0  0  0  0  0  0  0  0  0  0  0  0
  161.7450  208.6290  151.0180 N   0  0  0  0  0  0  0  0  0  0  0  0
  161.4670  207.5990  150.0360 C   0  0  0  0  0  0  0  0  0  0  0  0
  160.8000  205.3350  149.4460 C   0  0  0  0  0  0  0  0  0  0  0  0
  161.2980  208.5060  152.3830 C   0  0  0  0  0  0  0  0  0  0  0  0
  160.4110  208.3560  155.0380 C   0  0  0  0  0  3  0  0  0  0  0  0
  161.1350  206.2870  150.4120 C   0  0  0  0  0  3  0  0  0  0  0  0
  160.8040  210.8810  150.8540 C   0  0  2  0  0  3  0  0  0  0  0  0
  161.3070  206.1520  155.1890 F   0  0  0  0  0  0  0  0  0  0  0  0
  161.7850  209.2330  148.2800 O   0  0  0  0  0  0  0  0  0  0  0  0
  160.3920  203.7040  149.9320 Cl  0  0  0  0  0  0  0  0  0  0  0  0
  160.4280  210.7720  152.2310 O   0  0  0  0  0  0  0  0  0  0  0  0
  162.0350  210.0070  150.5850 C   0  0  2  0  0  3  0  0  0  0  0  0
  161.5310  207.3490  153.1400 C   0  0  0  0  0  3  0  0  0  0  0  0
  160.7780  205.6870  148.0950 C   0  0  0  0  0  3  0  0  0  0  0  0
  160.6280  209.5970  152.9710 C   0  0  0  0  0  0  0  0  0  0  0  0
  160.1860  209.5170  154.2940 C   0  0  0  0  0  3  0  0  0  0  0  0
  162.5360  210.0820  149.1390 C   0  0  0  0  0  2  0  0  0  0  0  0
  161.4560  207.9380  148.6720 C   0  0  0  0  0  0  0  0  0  0  0  0
  161.1020  206.9890  147.7090 C   0  0  0  0  0  3  0  0  0  0  0  0
  161.0790  212.2760  150.5420 N   0  0  0  0  0  2  0  0  0  0  0  0
  158.8910  213.2800  150.8570 C   0  0  0  0  0  1  0  0  0  0  0  0
  159.9200  212.8080  149.8360 C   0  0  1  0  0  3  0  0  0  0  0  0
  159.6080  213.2540  146.2370 C   0  0  1  0  0  3  0  0  0  0  0  0
  159.1010  214.4480  148.0980 C   0  0  0  0  0  2  0  0  0  0  0  0
  162.5730  213.1310  148.4840 O   0  0  0  0  0  1  0  0  0  0  0  0
  159.0670  212.3220  145.1740 C   0  0  0  0  0  1  0  0  0  0  0  0
  158.6450  213.4180  147.2510 O   0  0  0  0  0  0  0  0  0  0  0  0
  161.4140  213.6250  147.8850 C   0  0  2  0  0  3  0  0  0  0  0  0
  160.3180  213.9750  148.9090 C   0  0  2  0  0  3  0  0  0  0  0  0
  160.8960  212.6680  146.8170 C   0  0  0  0  0  2  0  0  0  0  0  0
  1  6  1  0  0  0  0
  1  9  1  0  0  0  0
  2  5  1  0  0  0  0
  3  7  1  0  0  0  0
  3  2  1  0  0  0  0
  4 11  1  0  0  0  0
  4  7  2  0  0  0  0
  5 16  2  0  0  0  0
  5 14  1  0  0  0  0
  8 21  1  1  0  0  0
  8 12  1  0  0  0  0
 10 19  1  0  0  0  0
 10 18  1  0  0  0  0
 12 16  1  0  0  0  0
 13 18  1  6  0  0  0
 13  8  1  0  0  0  0
 13  2  1  0  0  0  0
 14  1  2  0  0  0  0
 15  4  1  0  0  0  0
 16 17  1  0  0  0  0
 17  6  2  0  0  0  0
 19  3  2  0  0  0  0
 20 15  2  0  0  0  0
 20 19  1  0  0  0  0
 23 21  1  0  0  0  0
 23 22  1  1  0  0  0
 24 27  1  6  0  0  0
 24 31  1  0  0  0  0
 24 28  1  0  0  0  0
 25 30  1  0  0  0  0
 28 25  1  0  0  0  0
 29 26  1  1  0  0  0
 29 30  1  0  0  0  0
 30 23  1  6  0  0  0
 31 29  1  0  0  0  0
M  END
>  <MODEL>
3

>  <REMARK>
 VINA RESULT:      -6.2      1.466      1.805
  Name = 
  3 active torsions:
  status: ('A' for Active; 'I' for Inactive)
    1  A    between atoms: C_5  and  N_16
    2  A    between atoms: C_5  and  C_30
    3  A    between atoms: C_10  and  N_16
                            x       y       z     vdW  Elec       q    Type
                         _______ _______ _______ _____ _____    ______ ____

>  <TORSDO>
F 3

$$$$
=
 OpenBabel11122413073D

 31 35  0  0  1  0  0  0  0  0999 V2000
  161.2060  201.9150  150.5750 C   0  0  0  0  0  0  0  0  0  0  0  0
  161.7270  204.9410  148.4050 N   0  0  0  0  0  0  0  0  0  0  0  0
  161.3430  204.6270  147.0430 C   0  0  0  0  0  0  0  0  0  0  0  0
  160.5370  203.0690  145.3570 C   0  0  0  0  0  0  0  0  0  0  0  0
  161.3550  204.0890  149.5060 C   0  0  0  0  0  0  0  0  0  0  0  0
  160.6200  202.5050  151.6990 C   0  0  0  0  0  3  0  0  0  0  0  0
  160.9720  203.3280  146.6590 C   0  0  0  0  0  3  0  0  0  0  0  0
  160.8850  206.9170  149.5770 C   0  0  2  0  0  3  0  0  0  0  0  0
  161.4180  200.5780  150.5450 F   0  0  0  0  0  0  0  0  0  0  0  0
  161.6340  206.9560  146.4570 O   0  0  0  0  0  0  0  0  0  0  0  0
  160.0810  201.4430  144.8950 Cl  0  0  0  0  0  0  0  0  0  0  0  0
  160.5850  206.0680  150.6910 O   0  0  0  0  0  0  0  0  0  0  0  0
  162.0550  206.3280  148.7810 C   0  0  2  0  0  3  0  0  0  0  0  0
  161.5780  202.7050  149.4830 C   0  0  0  0  0  3  0  0  0  0  0  0
  160.4520  204.1090  144.4280 C   0  0  0  0  0  3  0  0  0  0  0  0
  160.7730  204.6790  150.6450 C   0  0  0  0  0  0  0  0  0  0  0  0
  160.4060  203.8850  151.7360 C   0  0  0  0  0  3  0  0  0  0  0  0
  162.4730  207.1850  147.5820 C   0  0  0  0  0  2  0  0  0  0  0  0
  161.2680  205.6620  146.0950 C   0  0  0  0  0  0  0  0  0  0  0  0
  160.8140  205.4050  144.7980 C   0  0  0  0  0  3  0  0  0  0  0  0
  161.2060  208.2510  150.0650 N   0  0  0  0  0  2  0  0  0  0  0  0
  162.7060  209.1750  151.7350 C   0  0  0  0  0  1  0  0  0  0  0  0
  161.6400  208.1220  151.4500 C   0  0  1  0  0  3  0  0  0  0  0  0
  161.3420  209.9130  154.6050 C   0  0  1  0  0  3  0  0  0  0  0  0
  160.1760  209.7860  152.6630 C   0  0  0  0  0  2  0  0  0  0  0  0
  160.9960  206.3080  153.7440 O   0  0  0  0  0  1  0  0  0  0  0  0
  162.3680  210.7030  155.3880 C   0  0  0  0  0  1  0  0  0  0  0  0
  161.2830  210.3990  153.2850 O   0  0  0  0  0  0  0  0  0  0  0  0
  160.6810  207.6650  153.8120 C   0  0  2  0  0  3  0  0  0  0  0  0
  160.4560  208.2930  152.4240 C   0  0  2  0  0  3  0  0  0  0  0  0
  161.7300  208.4340  154.6090 C   0  0  0  0  0  2  0  0  0  0  0  0
  1  6  1  0  0  0  0
  2 13  1  0  0  0  0
  2  5  1  0  0  0  0
  3  2  1  0  0  0  0
  4  7  2  0  0  0  0
  5 16  2  0  0  0  0
  6 17  2  0  0  0  0
  7  3  1  0  0  0  0
  8 21  1  1  0  0  0
  8 12  1  0  0  0  0
  9  1  1  0  0  0  0
 10 18  1  0  0  0  0
 11  4  1  0  0  0  0
 13 18  1  6  0  0  0
 13  8  1  0  0  0  0
 14  5  1  0  0  0  0
 14  1  2  0  0  0  0
 15 20  2  0  0  0  0
 15  4  1  0  0  0  0
 16 12  1  0  0  0  0
 16 17  1  0  0  0  0
 19 10  1  0  0  0  0
 19  3  2  0  0  0  0
 20 19  1  0  0  0  0
 21 23  1  0  0  0  0
 23 22  1  1  0  0  0
 24 31  1  0  0  0  0
 24 27  1  1  0  0  0
 25 28  1  0  0  0  0
 28 24  1  0  0  0  0
 29 26  1  6  0  0  0
 29 31  1  0  0  0  0
 30 23  1  6  0  0  0
 30 25  1  0  0  0  0
 30 29  1  0  0  0  0
M  END
>  <MODEL>
4

>  <REMARK>
 VINA RESULT:      -6.1      4.139      6.749
  Name = 
  3 active torsions:
  status: ('A' for Active; 'I' for Inactive)
    1  A    between atoms: C_5  and  N_16
    2  A    between atoms: C_5  and  C_30
    3  A    between atoms: C_10  and  N_16
                            x       y       z     vdW  Elec       q    Type
                         _______ _______ _______ _____ _____    ______ ____

>  <TORSDO>
F 3

$$$$
=
 OpenBabel11122413073D

 31 35  0  0  1  0  0  0  0  0999 V2000
  160.8760  206.8910  147.1270 C   0  0  0  0  0  0  0  0  0  0  0  0
  160.7610  205.3750  150.5660 N   0  0  0  0  0  0  0  0  0  0  0  0
  160.8850  203.9350  150.4600 C   0  0  0  0  0  0  0  0  0  0  0  0
  161.0990  201.9010  149.1430 C   0  0  0  0  0  0  0  0  0  0  0  0
  161.0750  206.2400  149.4570 C   0  0  0  0  0  0  0  0  0  0  0  0
  161.7200  207.9810  147.3570 C   0  0  0  0  0  3  0  0  0  0  0  0
  160.9050  203.2820  149.2170 C   0  0  0  0  0  3  0  0  0  0  0  0
  162.1660  206.7010  152.0680 C   0  0  2  0  0  3  0  0  0  0  0  0
  160.3720  206.6740  145.8890 F   0  0  0  0  0  0  0  0  0  0  0  0
  161.0440  203.8030  152.8710 O   0  0  0  0  0  0  0  0  0  0  0  0
  161.1180  201.1040  147.5840 Cl  0  0  0  0  0  0  0  0  0  0  0  0
  162.4120  207.5910  150.9740 O   0  0  0  0  0  0  0  0  0  0  0  0
  160.8010  206.0270  151.8870 C   0  0  2  0  0  3  0  0  0  0  0  0
  160.5500  206.0240  148.1740 C   0  0  0  0  0  3  0  0  0  0  0  0
  161.2910  201.1570  150.3090 C   0  0  0  0  0  3  0  0  0  0  0  0
  161.9170  207.3460  149.6840 C   0  0  0  0  0  0  0  0  0  0  0  0
  162.2380  208.2110  148.6340 C   0  0  0  0  0  3  0  0  0  0  0  0
  160.4300  205.0760  153.0300 C   0  0  0  0  0  2  0  0  0  0  0  0
  161.0630  203.1740  151.6290 C   0  0  0  0  0  0  0  0  0  0  0  0
  161.2760  201.7940  151.5510 C   0  0  0  0  0  3  0  0  0  0  0  0
  162.2150  207.4510  153.3150 N   0  0  0  0  0  2  0  0  0  0  0  0
  160.3450  208.2320  154.6510 C   0  0  0  0  0  1  0  0  0  0  0  0
  161.0820  208.3680  153.3240 C   0  0  1  0  0  3  0  0  0  0  0  0
  161.2570  211.1880  155.6180 C   0  0  1  0  0  3  0  0  0  0  0  0
  162.6450  210.1790  154.1340 C   0  0  0  0  0  2  0  0  0  0  0  0
  159.3320  210.6470  152.4780 O   0  0  0  0  0  1  0  0  0  0  0  0
  160.8640  211.2950  157.0760 C   0  0  0  0  0  1  0  0  0  0  0  0
  162.1450  210.1080  155.4500 O   0  0  0  0  0  0  0  0  0  0  0  0
  160.4300  210.8740  153.3090 C   0  0  2  0  0  3  0  0  0  0  0  0
  161.5430  209.8260  153.1220 C   0  0  2  0  0  3  0  0  0  0  0  0
  160.0030  210.9820  154.7690 C   0  0  0  0  0  2  0  0  0  0  0  0
  1  6  2  0  0  0  0
  1 14  1  0  0  0  0
  2 13  1  0  0  0  0
  3  2  1  0  0  0  0
  3 19  1  0  0  0  0
  4  7  1  0  0  0  0
  4 15  2  0  0  0  0
  5 16  1  0  0  0  0
  5  2  1  0  0  0  0
  6 17  1  0  0  0  0
  7  3  2  0  0  0  0
  8 21  1  1  0  0  0
  9  1  1  0  0  0  0
 10 18  1  0  0  0  0
 11  4  1  0  0  0  0
 12  8  1  0  0  0  0
 13  8  1  0  0  0  0
 13 18  1  1  0  0  0
 14  5  2  0  0  0  0
 15 20  1  0  0  0  0
 16 12  1  0  0  0  0
 17 16  2  0  0  0  0
 19 10  1  0  0  0  0
 20 19  2  0  0  0  0
 21 23  1  0  0  0  0
 23 22  1  1  0  0  0
 24 27  1  1  0  0  0
 25 28  1  0  0  0  0
 28 24  1  0  0  0  0
 29 26  1  6  0  0  0
 29 31  1  0  0  0  0
 30 29  1  0  0  0  0
 30 23  1  1  0  0  0
 30 25  1  0  0  0  0
 31 24  1  0  0  0  0
M  END
>  <MODEL>
5

>  <REMARK>
 VINA RESULT:      -5.6      3.931      6.598
  Name = 
  3 active torsions:
  status: ('A' for Active; 'I' for Inactive)
    1  A    between atoms: C_5  and  N_16
    2  A    between atoms: C_5  and  C_30
    3  A    between atoms: C_10  and  N_16
                            x       y       z     vdW  Elec       q    Type
                         _______ _______ _______ _____ _____    ______ ____

>  <TORSDO>
F 3

$$$$
=
 OpenBabel11122413073D

 31 35  0  0  1  0  0  0  0  0999 V2000
  161.1930  202.2470  150.9420 C   0  0  0  0  0  0  0  0  0  0  0  0
  161.8850  205.3350  148.9110 N   0  0  0  0  0  0  0  0  0  0  0  0
  161.5690  205.0760  147.5200 C   0  0  0  0  0  0  0  0  0  0  0  0
  160.8260  203.5940  145.7400 C   0  0  0  0  0  0  0  0  0  0  0  0
  161.4390  204.4530  149.9600 C   0  0  0  0  0  0  0  0  0  0  0  0
  160.5580  202.8100  152.0530 C   0  0  0  0  0  3  0  0  0  0  0  0
  161.1950  203.7990  147.0710 C   0  0  0  0  0  3  0  0  0  0  0  0
  161.0180  207.2860  150.1070 C   0  0  2  0  0  3  0  0  0  0  0  0
  161.3810  200.9080  150.8750 F   0  0  0  0  0  0  0  0  0  0  0  0
  161.9340  207.4180  147.0330 O   0  0  0  0  0  0  0  0  0  0  0  0
  160.3660  201.9950  145.1970 Cl  0  0  0  0  0  0  0  0  0  0  0  0
  160.6440  206.4060  151.1730 O   0  0  0  0  0  0  0  0  0  0  0  0
  162.2180  206.7010  149.3530 C   0  0  2  0  0  3  0  0  0  0  0  0
  161.6370  203.0660  149.8990 C   0  0  0  0  0  3  0  0  0  0  0  0
  160.8090  204.6670  144.8450 C   0  0  0  0  0  3  0  0  0  0  0  0
  160.8080  205.0150  151.0870 C   0  0  0  0  0  0  0  0  0  0  0  0
  160.3680  204.1920  152.1270 C   0  0  0  0  0  3  0  0  0  0  0  0
  162.7160  207.5910  148.2090 C   0  0  0  0  0  2  0  0  0  0  0  0
  161.5640  206.1450  146.6070 C   0  0  0  0  0  0  0  0  0  0  0  0
  161.1750  205.9420  145.2800 C   0  0  0  0  0  3  0  0  0  0  0  0
  161.3370  208.5950  150.6580 N   0  0  0  0  0  2  0  0  0  0  0  0
  161.9340  207.3420  152.6490 C   0  0  0  0  0  1  0  0  0  0  0  0
  161.1450  208.5260  152.1010 C   0  0  1  0  0  3  0  0  0  0  0  0
  159.5020  210.6940  154.5190 C   0  0  1  0  0  3  0  0  0  0  0  0
  161.5220  209.6820  154.3160 C   0  0  0  0  0  2  0  0  0  0  0  0
  160.7080  211.2960  151.0490 O   0  0  0  0  0  1  0  0  0  0  0  0
  158.1260  210.6050  155.1430 C   0  0  0  0  0  1  0  0  0  0  0  0
  160.1860  209.4800  154.7180 O   0  0  0  0  0  0  0  0  0  0  0  0
  160.7620  211.0670  152.4240 C   0  0  2  0  0  3  0  0  0  0  0  0
  161.6040  209.8290  152.7870 C   0  0  2  0  0  3  0  0  0  0  0  0
  159.3630  210.9870  153.0250 C   0  0  0  0  0  2  0  0  0  0  0  0
  1  6  1  0  0  0  0
  2 13  1  0  0  0  0
  2  5  1  0  0  0  0
  3  2  1  0  0  0  0
  4  7  2  0  0  0  0
  5 16  2  0  0  0  0
  6 17  2  0  0  0  0
  7  3  1  0  0  0  0
  8 21  1  1  0  0  0
  8 12  1  0  0  0  0
  9  1  1  0  0  0  0
 10 18  1  0  0  0  0
 11  4  1  0  0  0  0
 13 18  1  6  0  0  0
 13  8  1  0  0  0  0
 14  5  1  0  0  0  0
 14  1  2  0  0  0  0
 15 20  2  0  0  0  0
 15  4  1  0  0  0  0
 16 12  1  0  0  0  0
 16 17  1  0  0  0  0
 19 10  1  0  0  0  0
 19  3  2  0  0  0  0
 20 19  1  0  0  0  0
 21 23  1  0  0  0  0
 23 22  1  1  0  0  0
 24 28  1  0  0  0  0
 24 27  1  6  0  0  0
 25 28  1  0  0  0  0
 29 26  1  6  0  0  0
 29 30  1  0  0  0  0
 29 31  1  0  0  0  0
 30 23  1  6  0  0  0
 30 25  1  0  0  0  0
 31 24  1  0  0  0  0
M  END
>  <MODEL>
6

>  <REMARK>
 VINA RESULT:      -5.6      3.615      6.035
  Name = 
  3 active torsions:
  status: ('A' for Active; 'I' for Inactive)
    1  A    between atoms: C_5  and  N_16
    2  A    between atoms: C_5  and  C_30
    3  A    between atoms: C_10  and  N_16
                            x       y       z     vdW  Elec       q    Type
                         _______ _______ _______ _____ _____    ______ ____

>  <TORSDO>
F 3

$$$$
=
 OpenBabel11122413073D

 31 35  0  0  1  0  0  0  0  0999 V2000
  161.5470  202.6000  151.3730 C   0  0  0  0  0  0  0  0  0  0  0  0
  161.9060  205.7240  149.3110 N   0  0  0  0  0  0  0  0  0  0  0  0
  161.6410  205.4140  147.9200 C   0  0  0  0  0  0  0  0  0  0  0  0
  161.0970  203.8360  146.1500 C   0  0  0  0  0  0  0  0  0  0  0  0
  161.5510  204.8080  150.3660 C   0  0  0  0  0  0  0  0  0  0  0  0
  160.8370  203.0980  152.4690 C   0  0  0  0  0  3  0  0  0  0  0  0
  161.4230  204.0970  147.4830 C   0  0  0  0  0  3  0  0  0  0  0  0
  160.8040  207.5750  150.4710 C   0  0  2  0  0  3  0  0  0  0  0  0
  161.8880  201.2900  151.3260 F   0  0  0  0  0  0  0  0  0  0  0  0
  161.7410  207.7760  147.4070 O   0  0  0  0  0  0  0  0  0  0  0  0
  160.8310  202.1880  145.6220 Cl  0  0  0  0  0  0  0  0  0  0  0  0
  160.5200  206.6690  151.5430 O   0  0  0  0  0  0  0  0  0  0  0  0
  162.0740  207.1230  149.7390 C   0  0  2  0  0  3  0  0  0  0  0  0
  161.9080  203.4520  150.3250 C   0  0  0  0  0  3  0  0  0  0  0  0
  160.9690  204.8890  145.2410 C   0  0  0  0  0  3  0  0  0  0  0  0
  160.8440  205.3060  151.4780 C   0  0  0  0  0  0  0  0  0  0  0  0
  160.4880  204.4500  152.5230 C   0  0  0  0  0  3  0  0  0  0  0  0
  162.4820  208.0510  148.5900 C   0  0  0  0  0  2  0  0  0  0  0  0
  161.5260  206.4650  146.9930 C   0  0  0  0  0  0  0  0  0  0  0  0
  161.1810  206.2030  145.6640 C   0  0  0  0  0  3  0  0  0  0  0  0
  160.9640  208.9180  151.0090 N   0  0  0  0  0  2  0  0  0  0  0  0
  162.7040  209.6920  152.5140 C   0  0  0  0  0  1  0  0  0  0  0  0
  161.4820  208.7930  152.3650 C   0  0  1  0  0  3  0  0  0  0  0  0
  161.7580  210.2900  155.6710 C   0  0  1  0  0  3  0  0  0  0  0  0
  160.5500  210.6620  153.7870 C   0  0  0  0  0  2  0  0  0  0  0  0
  160.4350  207.0040  154.5270 O   0  0  0  0  0  1  0  0  0  0  0  0
  162.9790  210.7020  156.4650 C   0  0  0  0  0  1  0  0  0  0  0  0
  161.7960  210.8980  154.4020 O   0  0  0  0  0  0  0  0  0  0  0  0
  160.4980  208.3830  154.7250 C   0  0  2  0  0  3  0  0  0  0  0  0
  160.4130  209.1780  153.4090 C   0  0  2  0  0  3  0  0  0  0  0  0
  161.7350  208.7680  155.5310 C   0  0  0  0  0  2  0  0  0  0  0  0
  1  6  1  0  0  0  0
  2 13  1  0  0  0  0
  2  5  1  0  0  0  0
  3  2  1  0  0  0  0
  4  7  2  0  0  0  0
  5 16  2  0  0  0  0
  6 17  2  0  0  0  0
  7  3  1  0  0  0  0
  8 21  1  1  0  0  0
  8 12  1  0  0  0  0
  9  1  1  0  0  0  0
 10 18  1  0  0  0  0
 11  4  1  0  0  0  0
 13 18  1  6  0  0  0
 13  8  1  0  0  0  0
 14  5  1  0  0  0  0
 14  1  2  0  0  0  0
 15 20  2  0  0  0  0
 15  4  1  0  0  0  0
 16 12  1  0  0  0  0
 16 17  1  0  0  0  0
 19 10  1  0  0  0  0
 19  3  2  0  0  0  0
 20 19  1  0  0  0  0
 21 23  1  0  0  0  0
 23 22  1  6  0  0  0
 24 27  1  1  0  0  0
 25 28  1  0  0  0  0
 28 24  1  0  0  0  0
 29 26  1  6  0  0  0
 29 31  1  0  0  0  0
 30 23  1  6  0  0  0
 30 25  1  0  0  0  0
 30 29  1  0  0  0  0
 31 24  1  0  0  0  0
M  END
>  <MODEL>
7

>  <REMARK>
 VINA RESULT:      -5.5      4.025      6.281
  Name = 
  3 active torsions:
  status: ('A' for Active; 'I' for Inactive)
    1  A    between atoms: C_5  and  N_16
    2  A    between atoms: C_5  and  C_30
    3  A    between atoms: C_10  and  N_16
                            x       y       z     vdW  Elec       q    Type
                         _______ _______ _______ _____ _____    ______ ____

>  <TORSDO>
F 3

$$$$
=
 OpenBabel11122413073D

 31 35  0  0  1  0  0  0  0  0999 V2000
  160.8310  201.6910  149.3410 C   0  0  0  0  0  0  0  0  0  0  0  0
  161.9130  205.1790  150.2370 N   0  0  0  0  0  0  0  0  0  0  0  0
  161.6650  206.0620  149.1150 C   0  0  0  0  0  0  0  0  0  0  0  0
  160.9120  206.4590  146.8360 C   0  0  0  0  0  0  0  0  0  0  0  0
  161.3270  203.8640  150.3020 C   0  0  0  0  0  0  0  0  0  0  0  0
  160.1770  201.3170  150.5180 C   0  0  0  0  0  3  0  0  0  0  0  0
  161.2120  205.5770  147.8760 C   0  0  0  0  0  3  0  0  0  0  0  0
  161.1420  205.6950  152.5010 C   0  0  2  0  0  3  0  0  0  0  0  0
  160.9070  200.8240  148.3030 F   0  0  0  0  0  0  0  0  0  0  0  0
  162.2600  207.9480  150.5070 O   0  0  0  0  0  0  0  0  0  0  0  0
  160.3520  205.8370  145.2980 Cl  0  0  0  0  0  0  0  0  0  0  0  0
  160.6270  204.3610  152.5780 O   0  0  0  0  0  0  0  0  0  0  0  0
  162.3330  205.7330  151.5360 C   0  0  2  0  0  3  0  0  0  0  0  0
  161.4090  202.9600  149.2330 C   0  0  0  0  0  3  0  0  0  0  0  0
  161.0450  207.8360  147.0250 C   0  0  0  0  0  3  0  0  0  0  0  0
  160.6760  203.4770  151.4900 C   0  0  0  0  0  0  0  0  0  0  0  0
  160.1020  202.2060  151.5930 C   0  0  0  0  0  3  0  0  0  0  0  0
  162.9780  207.1180  151.4110 C   0  0  0  0  0  2  0  0  0  0  0  0
  161.8100  207.4490  149.2880 C   0  0  0  0  0  0  0  0  0  0  0  0
  161.4910  208.3310  148.2510 C   0  0  0  0  0  3  0  0  0  0  0  0
  161.5380  206.1320  153.8330 N   0  0  0  0  0  2  0  0  0  0  0  0
  160.1050  206.9540  155.6120 C   0  0  0  0  0  1  0  0  0  0  0  0
  160.6570  207.2280  154.2170 C   0  0  1  0  0  3  0  0  0  0  0  0
  159.7910  210.4910  155.5780 C   0  0  1  0  0  3  0  0  0  0  0  0
  161.5840  209.1030  155.6350 C   0  0  0  0  0  2  0  0  0  0  0  0
  160.4130  209.3290  152.0970 O   0  0  0  0  0  1  0  0  0  0  0  0
  158.5530  210.9500  156.3180 C   0  0  0  0  0  1  0  0  0  0  0  0
  160.3300  209.3610  156.2230 O   0  0  0  0  0  0  0  0  0  0  0  0
  160.6860  209.6910  153.4160 C   0  0  2  0  0  3  0  0  0  0  0  0
  161.4050  208.5770  154.2010 C   0  0  2  0  0  3  0  0  0  0  0  0
  159.4220  210.1530  154.1340 C   0  0  0  0  0  2  0  0  0  0  0  0
  1  6  1  0  0  0  0
  2  5  1  0  0  0  0
  2 13  1  0  0  0  0
  3 19  1  0  0  0  0
  3  2  1  0  0  0  0
  4 15  2  0  0  0  0
  4  7  1  0  0  0  0
  5 16  2  0  0  0  0
  6 17  2  0  0  0  0
  7  3  2  0  0  0  0
  8 12  1  0  0  0  0
  8 21  1  1  0  0  0
  9  1  1  0  0  0  0
 10 18  1  0  0  0  0
 11  4  1  0  0  0  0
 13 18  1  6  0  0  0
 13  8  1  0  0  0  0
 14  1  2  0  0  0  0
 14  5  1  0  0  0  0
 15 20  1  0  0  0  0
 16 17  1  0  0  0  0
 16 12  1  0  0  0  0
 19 10  1  0  0  0  0
 20 19  2  0  0  0  0
 21 23  1  0  0  0  0
 23 22  1  1  0  0  0
 24 28  1  0  0  0  0
 24 27  1  1  0  0  0
 25 28  1  0  0  0  0
 29 26  1  6  0  0  0
 29 31  1  0  0  0  0
 29 30  1  0  0  0  0
 30 23  1  1  0  0  0
 30 25  1  0  0  0  0
 31 24  1  0  0  0  0
M  END
>  <MODEL>
8

>  <REMARK>
 VINA RESULT:      -5.5      4.194      6.748
  Name = 
  3 active torsions:
  status: ('A' for Active; 'I' for Inactive)
    1  A    between atoms: C_5  and  N_16
    2  A    between atoms: C_5  and  C_30
    3  A    between atoms: C_10  and  N_16
                            x       y       z     vdW  Elec       q    Type
                         _______ _______ _______ _____ _____    ______ ____

>  <TORSDO>
F 3

$$$$
=
 OpenBabel11122413073D

 31 35  0  0  1  0  0  0  0  0999 V2000
  162.2270  210.2860  149.6160 C   0  0  0  0  0  0  0  0  0  0  0  0
  161.5210  208.3250  152.7450 N   0  0  0  0  0  0  0  0  0  0  0  0
  160.7510  209.1430  153.6610 C   0  0  0  0  0  0  0  0  0  0  0  0
  159.6650  211.2370  154.2570 C   0  0  0  0  0  0  0  0  0  0  0  0
  161.6770  208.6910  151.3600 C   0  0  0  0  0  0  0  0  0  0  0  0
  161.9740  209.3140  148.6440 C   0  0  0  0  0  3  0  0  0  0  0  0
  160.4710  210.4930  153.3920 C   0  0  0  0  0  3  0  0  0  0  0  0
  160.8390  206.0580  152.1280 C   0  0  2  0  0  3  0  0  0  0  0  0
  162.6150  211.5300  149.2460 F   0  0  0  0  0  0  0  0  0  0  0  0
  160.4720  207.2170  155.0980 O   0  0  0  0  0  0  0  0  0  0  0  0
  159.3300  212.9200  153.9080 Cl  0  0  0  0  0  0  0  0  0  0  0  0
  161.0660  206.4150  150.7590 O   0  0  0  0  0  0  0  0  0  0  0  0
  161.7440  206.8980  153.0360 C   0  0  2  0  0  3  0  0  0  0  0  0
  162.0840  209.9750  150.9720 C   0  0  0  0  0  3  0  0  0  0  0  0
  159.1150  210.6370  155.3910 C   0  0  0  0  0  3  0  0  0  0  0  0
  161.4330  207.7130  150.3760 C   0  0  0  0  0  0  0  0  0  0  0  0
  161.5810  208.0280  149.0220 C   0  0  0  0  0  3  0  0  0  0  0  0
  161.5980  206.5650  154.5250 C   0  0  0  0  0  2  0  0  0  0  0  0
  160.2040  208.5530  154.8140 C   0  0  0  0  0  0  0  0  0  0  0  0
  159.3820  209.2950  155.6680 C   0  0  0  0  0  3  0  0  0  0  0  0
  161.1020  204.6370  152.3020 N   0  0  0  0  0  2  0  0  0  0  0  0
  162.2610  202.7750  151.2610 C   0  0  0  0  0  1  0  0  0  0  0  0
  161.5730  204.1150  151.0250 C   0  0  1  0  0  3  0  0  0  0  0  0
  160.8180  201.4930  148.6160 C   0  0  1  0  0  3  0  0  0  0  0  0
  159.7070  202.5930  150.2590 C   0  0  0  0  0  2  0  0  0  0  0  0
  161.5280  205.1230  148.2050 O   0  0  0  0  0  1  0  0  0  0  0  0
  161.5810  200.2350  148.2610 C   0  0  0  0  0  1  0  0  0  0  0  0
  160.5960  201.5290  150.0060 O   0  0  0  0  0  0  0  0  0  0  0  0
  160.8310  203.9650  148.5480 C   0  0  2  0  0  3  0  0  0  0  0  0
  160.4070  203.9420  150.0290 C   0  0  2  0  0  3  0  0  0  0  0  0
  161.6220  202.7150  148.1750 C   0  0  0  0  0  2  0  0  0  0  0  0
  1 14  1  0  0  0  0
  2 13  1  0  0  0  0
  2  3  1  0  0  0  0
  3 19  1  0  0  0  0
  4 15  2  0  0  0  0
  5  2  1  0  0  0  0
  6 17  1  0  0  0  0
  6  1  2  0  0  0  0
  7  3  2  0  0  0  0
  7  4  1  0  0  0  0
  8 21  1  6  0  0  0
  8 13  1  0  0  0  0
  9  1  1  0  0  0  0
 11  4  1  0  0  0  0
 12  8  1  0  0  0  0
 13 18  1  1  0  0  0
 14  5  2  0  0  0  0
 15 20  1  0  0  0  0
 16 12  1  0  0  0  0
 16  5  1  0  0  0  0
 17 16  2  0  0  0  0
 18 10  1  0  0  0  0
 19 10  1  0  0  0  0
 19 20  2  0  0  0  0
 23 22  1  1  0  0  0
 23 21  1  0  0  0  0
 24 27  1  1  0  0  0
 24 28  1  0  0  0  0
 28 25  1  0  0  0  0
 29 26  1  1  0  0  0
 29 30  1  0  0  0  0
 30 25  1  0  0  0  0
 30 23  1  1  0  0  0
 31 29  1  0  0  0  0
 31 24  1  0  0  0  0
M  END
>  <MODEL>
9

>  <REMARK>
 VINA RESULT:      -5.4      4.096      7.927
  Name = 
  3 active torsions:
  status: ('A' for Active; 'I' for Inactive)
    1  A    between atoms: C_5  and  N_16
    2  A    between atoms: C_5  and  C_30
    3  A    between atoms: C_10  and  N_16
                            x       y       z     vdW  Elec       q    Type
                         _______ _______ _______ _____ _____    ______ ____

>  <TORSDO>
F 3

$$$$
