=
 OpenBabel11122414353D

 34 40  0  0  1  0  0  0  0  0999 V2000
  161.1130  208.1160  154.4080 C   0  0  1  0  0  3  0  0  0  0  0  0
  161.2160  206.3020  152.9000 C   0  0  0  0  0  2  0  0  0  0  0  0
  157.8510  213.4010  155.2280 C   0  0  1  0  0  3  0  0  0  0  0  0
  160.6760  210.2460  155.8460 C   0  0  0  0  0  0  0  0  0  0  0  0
  160.0540  212.3970  154.6040 C   0  0  2  0  0  3  0  0  0  0  0  0
  158.2760  212.6010  152.9890 O   0  0  0  0  0  1  0  0  0  0  0  0
  156.9540  214.1900  154.5040 O   0  0  0  0  0  1  0  0  0  0  0  0
  158.0360  211.4350  157.2610 S   0  0  0  0  0  0  0  0  0  0  0  0
  160.5790  208.3560  151.9730 C   0  0  1  0  0  3  0  0  0  0  0  0
  161.9670  209.0670  149.1530 C   0  0  0  0  0  2  0  0  0  0  0  0
  160.7800  211.7760  153.4970 N   0  0  0  0  0  2  0  0  0  0  0  0
  159.6820  212.2250  157.1670 C   0  0  0  0  0  2  0  0  0  0  0  0
  161.3410  209.6920  152.1280 C   0  0  2  0  0  3  0  0  0  0  0  0
  161.1180  206.0690  151.4140 C   0  0  0  0  0  2  0  0  0  0  0  0
  160.4780  211.7460  155.9410 C   0  0  1  0  0  3  0  0  0  0  0  0
  157.1200  212.7710  156.4100 C   0  0  0  0  0  2  0  0  0  0  0  0
  162.2880  207.8890  150.0620 C   0  0  1  0  0  3  0  0  0  0  0  0
  160.8580  209.6050  154.5160 C   0  0  0  0  0  0  0  0  0  0  0  0
  158.5390  212.3540  154.3420 C   0  0  2  0  0  3  0  0  0  0  0  0
  160.9480  210.3540  153.4150 C   0  0  0  0  0  0  0  0  0  0  0  0
  161.1590  208.0490  156.9110 C   0  0  0  0  0  2  0  0  0  0  0  0
  162.1400  210.3940  149.8730 C   0  0  0  0  0  2  0  0  0  0  0  0
  160.8170  209.5100  156.9580 C   0  0  0  0  0  3  0  0  0  0  0  0
  161.0720  210.5970  150.9330 C   0  0  0  0  0  2  0  0  0  0  0  0
  161.0050  207.4500  150.8030 C   0  0  2  0  0  3  0  0  0  0  0  0
  160.5830  207.4010  155.6560 C   0  0  0  0  0  2  0  0  0  0  0  0
  160.4970  207.5310  153.2030 N   0  0  2  0  0  0  0  0  0  0  0  0
  162.8520  206.7810  149.1830 C   0  0  0  0  0  2  0  0  0  0  0  0
  162.3610  206.9500  147.7560 C   0  0  0  0  0  2  0  0  0  0  0  0
  161.8330  204.1640  145.9060 C   0  0  0  0  0  2  0  0  0  0  0  0
  161.7030  204.7440  148.1970 C   0  0  0  0  0  2  0  0  0  0  0  0
  161.3470  205.9510  147.4610 N   0  0  0  0  0  0  0  0  0  0  0  0
  161.5580  203.5740  147.2580 C   0  0  0  0  0  2  0  0  0  0  0  0
  161.4690  205.6290  146.0430 C   0  0  0  0  0  2  0  0  0  0  0  0
  1 18  1  0  0  0  0
  1 26  1  1  0  0  0
  2 27  1  0  0  0  0
  3  7  1  6  0  0  0
  3 16  1  0  0  0  0
  4 15  1  0  0  0  0
  4 23  2  0  0  0  0
  5 11  1  6  0  0  0
  5 15  1  0  0  0  0
  6 19  1  0  0  0  0
  9 13  1  0  0  0  0
  9 27  1  0  0  0  0
 10 22  1  0  0  0  0
 10 17  1  0  0  0  0
 12  8  1  0  0  0  0
 13 20  1  0  0  0  0
 14  2  1  0  0  0  0
 15 12  1  0  0  0  0
 16  8  1  0  0  0  0
 17 25  1  0  0  0  0
 18  4  1  0  0  0  0
 19  5  1  0  0  0  0
 19  3  1  0  0  0  0
 20 11  1  0  0  0  0
 20 18  2  0  0  0  0
 21 23  1  0  0  0  0
 22 24  1  0  0  0  0
 24 13  1  0  0  0  0
 25 14  1  0  0  0  0
 25  9  1  0  0  0  0
 26 21  1  0  0  0  0
 27  1  1  0  0  0  0
 28 17  1  0  0  0  0
 29 28  1  0  0  0  0
 30 34  1  0  0  0  0
 30 33  1  0  0  0  0
 32 29  1  0  0  0  0
 32 31  1  0  0  0  0
 33 31  1  0  0  0  0
 34 32  1  0  0  0  0
M  END
>  <MODEL>
1

>  <REMARK>
 VINA RESULT:      -7.7      0.000      0.000
  Name = 
  3 active torsions:
  status: ('A' for Active; 'I' for Inactive)
    1  A    between atoms: C_17  and  C_28
    2  A    between atoms: C_28  and  C_29
    3  A    between atoms: C_29  and  N_32
                            x       y       z     vdW  Elec       q    Type
                         _______ _______ _______ _____ _____    ______ ____

>  <TORSDO>
F 3

$$$$
=
 OpenBabel11122414353D

 34 40  0  0  1  0  0  0  0  0999 V2000
  161.2970  207.2960  153.3520 C   0  0  1  0  0  3  0  0  0  0  0  0
  161.1850  205.3770  151.9800 C   0  0  0  0  0  2  0  0  0  0  0  0
  158.4930  212.8690  153.9230 C   0  0  1  0  0  3  0  0  0  0  0  0
  161.0970  209.5500  154.6460 C   0  0  0  0  0  0  0  0  0  0  0  0
  160.5780  211.6500  153.2760 C   0  0  2  0  0  3  0  0  0  0  0  0
  158.7420  211.8810  151.7330 O   0  0  0  0  0  1  0  0  0  0  0  0
  157.6230  213.6740  153.1830 O   0  0  0  0  0  1  0  0  0  0  0  0
  158.6310  211.0430  156.0860 S   0  0  0  0  0  0  0  0  0  0  0  0
  160.6600  207.4050  150.9330 C   0  0  1  0  0  3  0  0  0  0  0  0
  161.9530  207.8020  148.0070 C   0  0  0  0  0  2  0  0  0  0  0  0
  161.1980  210.8980  152.1870 N   0  0  0  0  0  2  0  0  0  0  0  0
  160.3250  211.6900  155.8590 C   0  0  0  0  0  2  0  0  0  0  0  0
  161.5280  208.6840  150.9530 C   0  0  2  0  0  3  0  0  0  0  0  0
  160.9940  205.0490  150.5220 C   0  0  0  0  0  2  0  0  0  0  0  0
  161.0190  211.0650  154.6380 C   0  0  1  0  0  3  0  0  0  0  0  0
  157.7770  212.3840  155.1800 C   0  0  0  0  0  2  0  0  0  0  0  0
  162.2290  206.6700  148.9870 C   0  0  1  0  0  3  0  0  0  0  0  0
  161.1620  208.8040  153.3600 C   0  0  0  0  0  0  0  0  0  0  0  0
  159.0530  211.7110  153.0870 C   0  0  2  0  0  3  0  0  0  0  0  0
  161.2520  209.4640  152.2040 C   0  0  0  0  0  0  0  0  0  0  0  0
  161.4650  207.4020  155.8480 C   0  0  0  0  0  2  0  0  0  0  0  0
  162.2630  209.1590  148.6190 C   0  0  0  0  0  2  0  0  0  0  0  0
  161.2380  208.8860  155.8020 C   0  0  0  0  0  3  0  0  0  0  0  0
  161.2680  209.5200  149.7070 C   0  0  0  0  0  2  0  0  0  0  0  0
  160.9550  206.3870  149.8150 C   0  0  2  0  0  3  0  0  0  0  0  0
  160.7780  206.7150  154.6720 C   0  0  0  0  0  2  0  0  0  0  0  0
  160.5780  206.6780  152.2230 N   0  0  2  0  0  0  0  0  0  0  0  0
  162.6620  205.4610  148.1670 C   0  0  0  0  0  2  0  0  0  0  0  0
  161.6730  205.2170  147.0410 C   0  0  0  0  0  2  0  0  0  0  0  0
  160.6410  202.0090  146.7110 C   0  0  0  0  0  2  0  0  0  0  0  0
  161.0540  203.8310  145.2560 C   0  0  0  0  0  2  0  0  0  0  0  0
  162.0000  203.9780  146.3560 N   0  0  0  0  0  0  0  0  0  0  0  0
  160.5570  202.4080  145.2660 C   0  0  0  0  0  2  0  0  0  0  0  0
  161.7280  202.8910  147.2910 C   0  0  0  0  0  2  0  0  0  0  0  0
  1 18  1  0  0  0  0
  1 26  1  1  0  0  0
  2 27  1  0  0  0  0
  3  7  1  6  0  0  0
  3 16  1  0  0  0  0
  4 23  2  0  0  0  0
  5 11  1  6  0  0  0
  5 15  1  0  0  0  0
  6 19  1  0  0  0  0
  9 13  1  0  0  0  0
  9 27  1  0  0  0  0
 10 22  1  0  0  0  0
 10 17  1  0  0  0  0
 11 20  1  0  0  0  0
 12  8  1  0  0  0  0
 13 20  1  0  0  0  0
 14  2  1  0  0  0  0
 15  4  1  0  0  0  0
 15 12  1  0  0  0  0
 16  8  1  0  0  0  0
 17 25  1  0  0  0  0
 18  4  1  0  0  0  0
 19  5  1  0  0  0  0
 19  3  1  0  0  0  0
 20 18  2  0  0  0  0
 22 24  1  0  0  0  0
 23 21  1  0  0  0  0
 24 13  1  0  0  0  0
 25 14  1  0  0  0  0
 25  9  1  0  0  0  0
 26 21  1  0  0  0  0
 27  1  1  0  0  0  0
 28 17  1  0  0  0  0
 29 28  1  0  0  0  0
 30 34  1  0  0  0  0
 31 33  1  0  0  0  0
 31 32  1  0  0  0  0
 32 29  1  0  0  0  0
 32 34  1  0  0  0  0
 33 30  1  0  0  0  0
M  END
>  <MODEL>
2

>  <REMARK>
 VINA RESULT:      -7.0      1.248      1.753
  Name = 
  3 active torsions:
  status: ('A' for Active; 'I' for Inactive)
    1  A    between atoms: C_17  and  C_28
    2  A    between atoms: C_28  and  C_29
    3  A    between atoms: C_29  and  N_32
                            x       y       z     vdW  Elec       q    Type
                         _______ _______ _______ _____ _____    ______ ____

>  <TORSDO>
F 3

$$$$
