=
 OpenBabel11122414023D

 28 32  0  0  1  0  0  0  0  0999 V2000
  160.9130  208.9120  155.9190 C   0  0  0  0  0  0  0  0  0  0  0  0
  159.2500  212.3180  157.2610 O   0  0  0  0  0  0  0  0  0  0  0  0
  162.4180  210.4540  151.1180 O   0  0  0  0  0  0  0  0  0  0  0  0
  162.8340  210.6810  156.9410 C   0  0  0  0  0  3  0  0  0  0  0  0
  160.4420  211.6320  151.5940 N   0  0  0  0  0  0  0  0  0  0  0  0
  159.9660  207.9130  155.3210 C   0  0  0  0  0  2  0  0  0  0  0  0
  159.7040  214.4530  156.1600 O   0  0  0  0  0  0  0  0  0  0  0  0
  159.0340  213.1170  156.0060 S   0  0  0  0  0  0  0  0  0  0  0  0
  157.1460  213.8520  154.4390 C   0  0  2  0  0  3  0  0  0  0  0  0
  159.7260  212.2960  154.6210 N   0  0  2  0  0  0  0  0  0  0  0  0
  162.0240  206.3310  152.6740 N   0  0  0  0  0  2  0  0  0  0  0  0
  159.6150  210.2490  153.3510 C   0  0  1  0  0  3  0  0  0  0  0  0
  157.5220  212.7600  153.4630 C   0  0  0  0  0  2  0  0  0  0  0  0
  157.3380  213.3600  155.7900 N   0  0  0  0  0  2  0  0  0  0  0  0
  161.2070  207.1860  153.1900 C   0  0  0  0  0  0  0  0  0  0  0  0
  160.8230  210.2910  155.6200 C   0  0  0  0  0  0  0  0  0  0  0  0
  161.3550  210.5740  151.7830 C   0  0  0  0  0  0  0  0  0  0  0  0
  155.6900  214.2160  154.2440 C   0  0  0  0  0  1  0  0  0  0  0  0
  160.6560  208.2610  152.3030 C   0  0  0  0  0  2  0  0  0  0  0  0
  161.8060  211.1590  156.1260 C   0  0  0  0  0  3  0  0  0  0  0  0
  161.9420  208.4450  156.7480 C   0  0  0  0  0  3  0  0  0  0  0  0
  162.8960  209.3250  157.2610 C   0  0  0  0  0  3  0  0  0  0  0  0
  160.7020  206.9480  154.5100 N   0  0  0  0  0  2  0  0  0  0  0  0
  159.2760  211.4260  152.4310 C   0  0  1  0  0  3  0  0  0  0  0  0
  160.9430  209.6460  152.8560 C   0  0  2  0  0  3  0  0  0  0  0  0
  159.0450  212.6100  153.3500 C   0  0  2  0  0  3  0  0  0  0  0  0
  160.4920  212.5740  150.4890 C   0  0  0  0  0  1  0  0  0  0  0  0
  159.6830  210.8390  154.7680 C   0  0  1  0  0  3  0  0  0  0  0  0
  1 21  1  0  0  0  0
  3 17  2  0  0  0  0
  4 22  1  0  0  0  0
  5 17  1  0  0  0  0
  5 24  1  0  0  0  0
  6  1  1  0  0  0  0
  8  7  2  0  0  0  0
  8  2  2  0  0  0  0
  9 18  1  1  0  0  0
  9 14  1  0  0  0  0
 10 28  1  0  0  0  0
 10  8  1  1  0  0  0
 11 15  2  0  0  0  0
 12 28  1  0  0  0  0
 13  9  1  0  0  0  0
 14  8  1  0  0  0  0
 15 23  1  0  0  0  0
 16  1  2  0  0  0  0
 16 20  1  0  0  0  0
 17 25  1  0  0  0  0
 19 25  1  0  0  0  0
 19 15  1  0  0  0  0
 20  4  2  0  0  0  0
 21 22  2  0  0  0  0
 23  6  1  0  0  0  0
 24 26  1  0  0  0  0
 24 12  1  0  0  0  0
 25 12  1  0  0  0  0
 26 13  1  0  0  0  0
 26 10  1  0  0  0  0
 27  5  1  0  0  0  0
 28 16  1  0  0  0  0
M  END
>  <MODEL>
1

>  <REMARK>
 VINA RESULT:      -5.9      0.000      0.000
  Name = 
  0 active torsions:
  status: ('A' for Active; 'I' for Inactive)
                            x       y       z     vdW  Elec       q    Type
                         _______ _______ _______ _____ _____    ______ ____

>  <TORSDO>
F 0

$$$$
=
 OpenBabel11122414023D

 28 32  0  0  1  0  0  0  0  0999 V2000
  161.4350  210.8800  137.4330 C   0  0  0  0  0  0  0  0  0  0  0  0
  157.4980  210.0650  137.3250 O   0  0  0  0  0  0  0  0  0  0  0  0
  161.9570  212.2120  142.4980 O   0  0  0  0  0  0  0  0  0  0  0  0
  160.8810  208.2770  138.3160 C   0  0  0  0  0  3  0  0  0  0  0  0
  159.8110  212.9190  141.8540 N   0  0  0  0  0  0  0  0  0  0  0  0
  161.8270  212.2650  137.0110 C   0  0  0  0  0  2  0  0  0  0  0  0
  156.2410  209.6770  139.3850 O   0  0  0  0  0  0  0  0  0  0  0  0
  156.9750  210.7100  138.5790 S   0  0  0  0  0  0  0  0  0  0  0  0
  155.6310  212.7570  139.3270 C   0  0  2  0  0  3  0  0  0  0  0  0
  158.2920  211.3480  139.5430 N   0  0  2  0  0  0  0  0  0  0  0  0
  164.7640  212.9660  139.1620 N   0  0  0  0  0  2  0  0  0  0  0  0
  160.1270  212.9120  139.4900 C   0  0  1  0  0  3  0  0  0  0  0  0
  156.9110  213.4640  139.7140 C   0  0  0  0  0  2  0  0  0  0  0  0
  155.8740  211.9660  138.1370 N   0  0  0  0  0  2  0  0  0  0  0  0
  163.5180  212.9360  138.8280 C   0  0  0  0  0  0  0  0  0  0  0  0
  160.3290  210.6500  138.2850 C   0  0  0  0  0  0  0  0  0  0  0  0
  161.1390  212.5200  141.5920 C   0  0  0  0  0  0  0  0  0  0  0  0
  154.5630  213.7870  139.0290 C   0  0  0  0  0  1  0  0  0  0  0  0
  162.5140  213.4990  139.7880 C   0  0  0  0  0  2  0  0  0  0  0  0
  160.0790  209.3400  138.7320 C   0  0  0  0  0  3  0  0  0  0  0  0
  162.2250  209.8030  137.0130 C   0  0  0  0  0  3  0  0  0  0  0  0
  161.9490  208.5060  137.4480 C   0  0  0  0  0  3  0  0  0  0  0  0
  163.1740  212.5710  137.4850 N   0  0  0  0  0  2  0  0  0  0  0  0
  159.1650  213.3080  140.6150 C   0  0  1  0  0  3  0  0  0  0  0  0
  161.4500  212.4780  140.1480 C   0  0  2  0  0  3  0  0  0  0  0  0
  157.9030  212.5020  140.3780 C   0  0  2  0  0  3  0  0  0  0  0  0
  159.2930  213.2340  143.1740 C   0  0  0  0  0  1  0  0  0  0  0  0
  159.4150  211.7930  138.7150 C   0  0  1  0  0  3  0  0  0  0  0  0
  1 16  1  0  0  0  0
  2  8  2  0  0  0  0
  4 20  1  0  0  0  0
  5 27  1  0  0  0  0
  6  1  1  0  0  0  0
  6 23  1  0  0  0  0
  8  7  2  0  0  0  0
  9 18  1  6  0  0  0
  9 13  1  0  0  0  0
 10  8  1  6  0  0  0
 10 26  1  0  0  0  0
 12 25  1  0  0  0  0
 12 24  1  0  0  0  0
 13 26  1  0  0  0  0
 14  8  1  0  0  0  0
 14  9  1  0  0  0  0
 15 11  2  0  0  0  0
 15 19  1  0  0  0  0
 16 28  1  0  0  0  0
 16 20  2  0  0  0  0
 17  5  1  0  0  0  0
 17  3  2  0  0  0  0
 19 25  1  0  0  0  0
 21  1  2  0  0  0  0
 21 22  1  0  0  0  0
 22  4  2  0  0  0  0
 23 15  1  0  0  0  0
 24  5  1  0  0  0  0
 25 17  1  0  0  0  0
 26 24  1  0  0  0  0
 28 12  1  0  0  0  0
 28 10  1  0  0  0  0
M  END
>  <MODEL>
2

>  <REMARK>
 VINA RESULT:      -4.7     12.413     15.771
  Name = 
  0 active torsions:
  status: ('A' for Active; 'I' for Inactive)
                            x       y       z     vdW  Elec       q    Type
                         _______ _______ _______ _____ _____    ______ ____

>  <TORSDO>
F 0

$$$$
=
 OpenBabel11122414023D

 28 32  0  0  1  0  0  0  0  0999 V2000
  158.2470  211.9240  153.0440 C   0  0  0  0  0  0  0  0  0  0  0  0
  160.3150  209.3030  150.8020 O   0  0  0  0  0  0  0  0  0  0  0  0
  161.3850  212.2020  157.2590 O   0  0  0  0  0  0  0  0  0  0  0  0
  160.3010  213.1740  151.6010 C   0  0  0  0  0  3  0  0  0  0  0  0
  161.5640  210.0020  156.4540 N   0  0  0  0  0  0  0  0  0  0  0  0
  157.1460  211.3420  153.8810 C   0  0  0  0  0  2  0  0  0  0  0  0
  162.6620  208.8210  151.2820 O   0  0  0  0  0  0  0  0  0  0  0  0
  161.2560  208.6690  151.7880 S   0  0  0  0  0  0  0  0  0  0  0  0
  161.5800  206.4760  153.0700 C   0  0  2  0  0  3  0  0  0  0  0  0
  161.1310  209.4480  153.3520 N   0  0  2  0  0  0  0  0  0  0  0  0
  157.1770  213.5150  156.8840 N   0  0  0  0  0  2  0  0  0  0  0  0
  159.5810  209.9420  155.1320 C   0  0  1  0  0  3  0  0  0  0  0  0
  160.9930  207.1080  154.3120 C   0  0  0  0  0  2  0  0  0  0  0  0
  160.8790  206.9870  151.9080 N   0  0  0  0  0  2  0  0  0  0  0  0
  157.5000  212.5080  156.1440 C   0  0  0  0  0  0  0  0  0  0  0  0
  159.5160  211.3050  152.9540 C   0  0  0  0  0  0  0  0  0  0  0  0
  160.9220  211.2520  156.5730 C   0  0  0  0  0  0  0  0  0  0  0  0
  161.3980  204.9760  153.1400 C   0  0  0  0  0  1  0  0  0  0  0  0
  158.4680  211.5060  156.6970 C   0  0  0  0  0  2  0  0  0  0  0  0
  160.5380  211.9570  152.2410 C   0  0  0  0  0  3  0  0  0  0  0  0
  158.0170  213.1400  152.3870 C   0  0  0  0  0  3  0  0  0  0  0  0
  159.0370  213.7620  151.6650 C   0  0  0  0  0  3  0  0  0  0  0  0
  156.7670  212.2800  154.9330 N   0  0  0  0  0  2  0  0  0  0  0  0
  160.7290  209.0950  155.6910 C   0  0  1  0  0  3  0  0  0  0  0  0
  159.6720  211.3320  155.7900 C   0  0  2  0  0  3  0  0  0  0  0  0
  161.4670  208.5570  154.4810 C   0  0  2  0  0  3  0  0  0  0  0  0
  162.6960  209.5790  157.2610 C   0  0  0  0  0  1  0  0  0  0  0  0
  159.7810  209.9540  153.6090 C   0  0  1  0  0  3  0  0  0  0  0  0
  1  6  1  0  0  0  0
  2  8  2  0  0  0  0
  4 22  2  0  0  0  0
  4 20  1  0  0  0  0
  5 17  1  0  0  0  0
  5 27  1  0  0  0  0
  6 23  1  0  0  0  0
  7  8  2  0  0  0  0
  8 14  1  0  0  0  0
  9 18  1  1  0  0  0
  9 13  1  0  0  0  0
 10  8  1  6  0  0  0
 10 28  1  0  0  0  0
 10 26  1  0  0  0  0
 12 24  1  0  0  0  0
 12 25  1  0  0  0  0
 13 26  1  0  0  0  0
 14  9  1  0  0  0  0
 15 19  1  0  0  0  0
 15 11  2  0  0  0  0
 16  1  1  0  0  0  0
 16 28  1  0  0  0  0
 17  3  2  0  0  0  0
 20 16  2  0  0  0  0
 21  1  2  0  0  0  0
 22 21  1  0  0  0  0
 23 15  1  0  0  0  0
 24  5  1  0  0  0  0
 25 17  1  0  0  0  0
 25 19  1  0  0  0  0
 26 24  1  0  0  0  0
 28 12  1  0  0  0  0
M  END
>  <MODEL>
3

>  <REMARK>
 VINA RESULT:      -4.0      2.114      6.410
  Name = 
  0 active torsions:
  status: ('A' for Active; 'I' for Inactive)
                            x       y       z     vdW  Elec       q    Type
                         _______ _______ _______ _____ _____    ______ ____

>  <TORSDO>
F 0

$$$$
