=
 OpenBabel11122412383D

 30 35  0  0  1  0  0  0  0  0999 V2000
  161.4210  206.3320  150.4470 C   0  0  0  0  0  0  0  0  0  0  0  0
  161.1220  203.8270  150.3980 C   0  0  0  0  0  0  0  0  0  0  0  0
  160.7330  206.4170  154.5850 N   0  0  0  0  0  2  0  0  0  0  0  0
  161.4220  207.5400  151.2020 C   0  0  0  0  0  0  0  0  0  0  0  0
  161.6870  206.3970  149.1140 N   0  0  0  0  0  0  0  0  0  0  0  0
  162.2030  209.9570  148.4990 O   0  0  0  0  0  1  0  0  0  0  0  0
  160.3270  210.3160  152.0310 C   0  0  1  0  0  3  0  0  0  0  0  0
  161.9440  208.7650  149.1700 C   0  0  0  0  0  0  0  0  0  0  0  0
  160.1580  209.5830  153.3080 N   0  0  2  0  0  0  0  0  0  0  0  0
  160.8820  207.8290  154.9160 C   0  0  1  0  0  3  0  0  0  0  0  0
  161.9490  207.5620  148.4650 C   0  0  0  0  0  0  0  0  0  0  0  0
  161.6730  208.7660  150.5450 C   0  0  0  0  0  0  0  0  0  0  0  0
  160.8570  202.6490  151.1030 C   0  0  0  0  0  3  0  0  0  0  0  0
  160.2080  210.6080  154.3480 C   0  0  0  0  0  2  0  0  0  0  0  0
  160.1370  211.7980  152.2960 C   0  0  0  0  0  2  0  0  0  0  0  0
  161.4010  203.6200  148.6720 Cl  0  0  0  0  0  0  0  0  0  0  0  0
  160.9150  206.2760  153.1900 C   0  0  0  0  0  0  0  0  0  0  0  0
  160.6170  202.6700  152.4740 C   0  0  0  0  0  3  0  0  0  0  0  0
  161.1500  205.0790  151.0840 C   0  0  0  0  0  0  0  0  0  0  0  0
  161.1610  207.4680  152.5780 C   0  0  0  0  0  0  0  0  0  0  0  0
  162.0410  208.0050  155.8780 C   0  0  0  0  0  1  0  0  0  0  0  0
  161.1880  208.5710  153.5900 C   0  0  1  0  0  3  0  0  0  0  0  0
  159.7140  211.8920  153.7350 C   0  0  0  0  0  2  0  0  0  0  0  0
  162.7760  210.2840  152.0480 O   0  0  0  0  0  1  0  0  0  0  0  0
  160.6360  203.8760  153.1640 C   0  0  0  0  0  3  0  0  0  0  0  0
  160.8950  205.0730  152.4870 C   0  0  0  0  0  0  0  0  0  0  0  0
  161.6390  210.0890  151.2580 C   0  0  2  0  0  3  0  0  0  0  0  0
  162.2200  207.5660  147.0950 O   0  0  0  0  0  0  0  0  0  0  0  0
  160.6510  206.2460  145.8550 C   0  0  0  0  0  1  0  0  0  0  0  0
  162.0920  206.3980  146.2970 C   0  0  0  0  0  2  0  0  0  0  0  0
  1 19  2  0  0  0  0
  1  4  1  0  0  0  0
  2 19  1  0  0  0  0
  2 13  2  0  0  0  0
  3 10  1  0  0  0  0
  4 20  2  0  0  0  0
  5  1  1  0  0  0  0
  6  8  1  0  0  0  0
  7 15  1  1  0  0  0
  7  9  1  0  0  0  0
  8 12  2  0  0  0  0
  9 22  1  0  0  0  0
  9 14  1  1  0  0  0
 10 21  1  1  0  0  0
 11  5  2  0  0  0  0
 11  8  1  0  0  0  0
 12  4  1  0  0  0  0
 12 27  1  0  0  0  0
 13 18  1  0  0  0  0
 15 23  1  0  0  0  0
 16  2  1  0  0  0  0
 17  3  1  0  0  0  0
 18 25  2  0  0  0  0
 19 26  1  0  0  0  0
 20 17  1  0  0  0  0
 22 20  1  6  0  0  0
 22 10  1  0  0  0  0
 23 14  1  0  0  0  0
 26 25  1  0  0  0  0
 26 17  2  0  0  0  0
 27  7  1  0  0  0  0
 27 24  1  1  0  0  0
 28 11  1  0  0  0  0
 29 30  1  0  0  0  0
 30 28  1  0  0  0  0
M  END
>  <MODEL>
1

>  <REMARK>
 VINA RESULT:      -8.0      0.000      0.000
  Name = 
  2 active torsions:
  status: ('A' for Active; 'I' for Inactive)
    1  A    between atoms: C_11  and  O_28
    2  A    between atoms: O_28  and  C_30
                            x       y       z     vdW  Elec       q    Type
                         _______ _______ _______ _____ _____    ______ ____

>  <TORSDO>
F 2

$$$$
=
 OpenBabel11122412383D

 30 35  0  0  1  0  0  0  0  0999 V2000
  161.3740  207.9080  151.0810 C   0  0  0  0  0  0  0  0  0  0  0  0
  161.4660  205.5890  150.0890 C   0  0  0  0  0  0  0  0  0  0  0  0
  160.5380  206.3390  154.8810 N   0  0  0  0  0  2  0  0  0  0  0  0
  161.1630  208.7320  152.2230 C   0  0  0  0  0  0  0  0  0  0  0  0
  161.6730  208.5030  149.8950 N   0  0  0  0  0  0  0  0  0  0  0  0
  161.6550  212.0680  150.6790 O   0  0  0  0  0  1  0  0  0  0  0  0
  159.6250  210.8250  153.9120 C   0  0  1  0  0  3  0  0  0  0  0  0
  161.5600  210.6880  150.8390 C   0  0  0  0  0  0  0  0  0  0  0  0
  159.5270  209.6490  154.8100 N   0  0  2  0  0  0  0  0  0  0  0  0
  160.4560  207.5290  155.7200 C   0  0  1  0  0  3  0  0  0  0  0  0
  161.7750  209.8500  149.7450 C   0  0  0  0  0  0  0  0  0  0  0  0
  161.2440  210.1370  152.0880 C   0  0  0  0  0  0  0  0  0  0  0  0
  161.3610  204.2090  150.2860 C   0  0  0  0  0  3  0  0  0  0  0  0
  159.3820  210.2040  156.1530 C   0  0  0  0  0  2  0  0  0  0  0  0
  159.2000  212.0590  154.6840 C   0  0  0  0  0  2  0  0  0  0  0  0
  161.8330  206.0850  148.4400 Cl  0  0  0  0  0  0  0  0  0  0  0  0
  160.7880  206.7580  153.5540 C   0  0  0  0  0  0  0  0  0  0  0  0
  161.0730  203.6810  151.5400 C   0  0  0  0  0  3  0  0  0  0  0  0
  161.2770  206.4830  151.1860 C   0  0  0  0  0  0  0  0  0  0  0  0
  160.8680  208.1140  153.4480 C   0  0  0  0  0  0  0  0  0  0  0  0
  161.5400  207.4790  156.7790 C   0  0  0  0  0  1  0  0  0  0  0  0
  160.6890  208.7480  154.7920 C   0  0  1  0  0  3  0  0  0  0  0  0
  158.7180  211.5490  156.0130 C   0  0  0  0  0  2  0  0  0  0  0  0
  162.0480  211.1060  154.1360 O   0  0  0  0  0  1  0  0  0  0  0  0
  160.8820  204.5310  152.6240 C   0  0  0  0  0  3  0  0  0  0  0  0
  160.9770  205.9170  152.4600 C   0  0  0  0  0  0  0  0  0  0  0  0
  160.9820  211.0770  153.2310 C   0  0  2  0  0  3  0  0  0  0  0  0
  162.0890  210.4050  148.5030 O   0  0  0  0  0  0  0  0  0  0  0  0
  162.1210  212.5090  147.3580 C   0  0  0  0  0  1  0  0  0  0  0  0
  161.2620  211.3770  147.8800 C   0  0  0  0  0  2  0  0  0  0  0  0
  1 19  2  0  0  0  0
  1  4  1  0  0  0  0
  2 13  2  0  0  0  0
  2 19  1  0  0  0  0
  3 10  1  0  0  0  0
  4 20  2  0  0  0  0
  5  1  1  0  0  0  0
  6  8  1  0  0  0  0
  7 15  1  1  0  0  0
  7  9  1  0  0  0  0
  8 12  2  0  0  0  0
  9 14  1  1  0  0  0
 10 21  1  1  0  0  0
 11  5  2  0  0  0  0
 11  8  1  0  0  0  0
 12  4  1  0  0  0  0
 12 27  1  0  0  0  0
 13 18  1  0  0  0  0
 15 23  1  0  0  0  0
 16  2  1  0  0  0  0
 17  3  1  0  0  0  0
 18 25  2  0  0  0  0
 19 26  1  0  0  0  0
 20 17  1  0  0  0  0
 22 20  1  6  0  0  0
 22  9  1  0  0  0  0
 22 10  1  0  0  0  0
 23 14  1  0  0  0  0
 26 25  1  0  0  0  0
 26 17  2  0  0  0  0
 27  7  1  0  0  0  0
 27 24  1  1  0  0  0
 28 11  1  0  0  0  0
 29 30  1  0  0  0  0
 30 28  1  0  0  0  0
M  END
>  <MODEL>
2

>  <REMARK>
 VINA RESULT:      -6.7      1.734      2.442
  Name = 
  2 active torsions:
  status: ('A' for Active; 'I' for Inactive)
    1  A    between atoms: C_11  and  O_28
    2  A    between atoms: O_28  and  C_30
                            x       y       z     vdW  Elec       q    Type
                         _______ _______ _______ _____ _____    ______ ____

>  <TORSDO>
F 2

$$$$
=
 OpenBabel11122412383D

 30 35  0  0  1  0  0  0  0  0999 V2000
  161.5210  207.6710  151.3730 C   0  0  0  0  0  0  0  0  0  0  0  0
  161.6660  210.1420  150.8850 C   0  0  0  0  0  0  0  0  0  0  0  0
  162.1410  206.7510  147.3270 N   0  0  0  0  0  2  0  0  0  0  0  0
  161.5440  206.3330  150.8840 C   0  0  0  0  0  0  0  0  0  0  0  0
  161.3470  207.8730  152.7070 N   0  0  0  0  0  0  0  0  0  0  0  0
  161.0150  204.5010  154.0640 O   0  0  0  0  0  1  0  0  0  0  0  0
  160.2900  203.5790  150.2250 C   0  0  1  0  0  3  0  0  0  0  0  0
  161.1890  205.5380  153.1510 C   0  0  0  0  0  0  0  0  0  0  0  0
  160.6550  204.0260  148.8600 N   0  0  2  0  0  0  0  0  0  0  0  0
  162.1360  205.2930  147.3140 C   0  0  1  0  0  3  0  0  0  0  0  0
  161.1870  206.8590  153.5980 C   0  0  0  0  0  0  0  0  0  0  0  0
  161.3610  205.2620  151.7880 C   0  0  0  0  0  0  0  0  0  0  0  0
  161.8420  211.1570  149.9400 C   0  0  0  0  0  3  0  0  0  0  0  0
  160.8430  202.7980  148.0920 C   0  0  0  0  0  2  0  0  0  0  0  0
  159.9340  202.1050  150.1720 C   0  0  0  0  0  2  0  0  0  0  0  0
  161.4290  210.6940  152.5410 Cl  0  0  0  0  0  0  0  0  0  0  0  0
  161.9050  207.1760  148.6540 C   0  0  0  0  0  0  0  0  0  0  0  0
  162.0370  210.8610  148.5940 C   0  0  0  0  0  3  0  0  0  0  0  0
  161.6840  208.7750  150.4760 C   0  0  0  0  0  0  0  0  0  0  0  0
  161.7380  206.1280  149.5100 C   0  0  0  0  0  0  0  0  0  0  0  0
  163.4850  204.7840  146.8470 C   0  0  0  0  0  1  0  0  0  0  0  0
  161.8820  204.8330  148.7720 C   0  0  1  0  0  3  0  0  0  0  0  0
  159.9670  201.7420  148.7130 C   0  0  0  0  0  2  0  0  0  0  0  0
  162.5900  203.3400  151.0310 O   0  0  0  0  0  1  0  0  0  0  0  0
  162.0560  209.5370  148.1700 C   0  0  0  0  0  3  0  0  0  0  0  0
  161.8800  208.4990  149.0900 C   0  0  0  0  0  0  0  0  0  0  0  0
  161.3170  203.8270  151.3440 C   0  0  2  0  0  3  0  0  0  0  0  0
  161.0170  207.1270  154.9570 O   0  0  0  0  0  0  0  0  0  0  0  0
  159.9060  209.0610  155.8310 C   0  0  0  0  0  1  0  0  0  0  0  0
  161.2370  208.4190  155.5040 C   0  0  0  0  0  2  0  0  0  0  0  0
  1  5  1  0  0  0  0
  2 16  1  0  0  0  0
  3 17  1  0  0  0  0
  4  1  1  0  0  0  0
  4 12  1  0  0  0  0
  5 11  2  0  0  0  0
  7 15  1  6  0  0  0
  7 27  1  0  0  0  0
  8 11  1  0  0  0  0
  8  6  1  0  0  0  0
  9 14  1  6  0  0  0
  9  7  1  0  0  0  0
 10 21  1  1  0  0  0
 10  3  1  0  0  0  0
 10 22  1  0  0  0  0
 11 28  1  0  0  0  0
 12  8  2  0  0  0  0
 13  2  2  0  0  0  0
 14 23  1  0  0  0  0
 17 26  2  0  0  0  0
 17 20  1  0  0  0  0
 18 13  1  0  0  0  0
 19  2  1  0  0  0  0
 19  1  2  0  0  0  0
 20  4  2  0  0  0  0
 22  9  1  0  0  0  0
 22 20  1  1  0  0  0
 23 15  1  0  0  0  0
 25 18  2  0  0  0  0
 25 26  1  0  0  0  0
 26 19  1  0  0  0  0
 27 24  1  6  0  0  0
 27 12  1  0  0  0  0
 28 30  1  0  0  0  0
 30 29  1  0  0  0  0
M  END
>  <MODEL>
3

>  <REMARK>
 VINA RESULT:      -6.6      2.809      7.244
  Name = 
  2 active torsions:
  status: ('A' for Active; 'I' for Inactive)
    1  A    between atoms: C_11  and  O_28
    2  A    between atoms: O_28  and  C_30
                            x       y       z     vdW  Elec       q    Type
                         _______ _______ _______ _____ _____    ______ ____

>  <TORSDO>
F 2

$$$$
=
 OpenBabel11122412383D

 30 35  0  0  1  0  0  0  0  0999 V2000
  160.9200  210.2880  151.6180 C   0  0  0  0  0  0  0  0  0  0  0  0
  161.9920  208.2800  150.5300 C   0  0  0  0  0  0  0  0  0  0  0  0
  160.3680  208.1600  155.1920 N   0  0  0  0  0  2  0  0  0  0  0  0
  160.2960  210.8580  152.7650 C   0  0  0  0  0  0  0  0  0  0  0  0
  161.0870  211.0640  150.5140 N   0  0  0  0  0  0  0  0  0  0  0  0
  159.6280  214.2700  151.4710 O   0  0  0  0  0  1  0  0  0  0  0  0
  157.9130  212.0510  154.3440 C   0  0  1  0  0  3  0  0  0  0  0  0
  160.0520  212.9460  151.5460 C   0  0  0  0  0  0  0  0  0  0  0  0
  158.1810  210.8420  155.1600 N   0  0  2  0  0  0  0  0  0  0  0  0
  159.7530  209.1450  156.0730 C   0  0  1  0  0  3  0  0  0  0  0  0
  160.6810  212.3590  150.4480 C   0  0  0  0  0  0  0  0  0  0  0  0
  159.8470  212.1980  152.7140 C   0  0  0  0  0  0  0  0  0  0  0  0
  162.4040  206.9480  150.6400 C   0  0  0  0  0  3  0  0  0  0  0  0
  157.7000  211.1700  156.4990 C   0  0  0  0  0  2  0  0  0  0  0  0
  156.9720  212.9560  155.1160 C   0  0  0  0  0  2  0  0  0  0  0  0
  162.3060  209.0340  148.9700 Cl  0  0  0  0  0  0  0  0  0  0  0  0
  160.5720  208.7680  153.9320 C   0  0  0  0  0  0  0  0  0  0  0  0
  162.2140  206.2310  151.8170 C   0  0  0  0  0  3  0  0  0  0  0  0
  161.3650  208.9270  151.6370 C   0  0  0  0  0  0  0  0  0  0  0  0
  160.1380  210.0600  153.9070 C   0  0  0  0  0  0  0  0  0  0  0  0
  160.6610  209.4010  157.2600 C   0  0  0  0  0  1  0  0  0  0  0  0
  159.5950  210.4470  155.2470 C   0  0  1  0  0  3  0  0  0  0  0  0
  156.5900  212.1760  156.3430 C   0  0  0  0  0  2  0  0  0  0  0  0
  160.0080  213.1930  154.8960 O   0  0  0  0  0  1  0  0  0  0  0  0
  161.6040  206.8390  152.9090 C   0  0  0  0  0  3  0  0  0  0  0  0
  161.1780  208.1690  152.8300 C   0  0  0  0  0  0  0  0  0  0  0  0
  159.1310  212.8570  153.8590 C   0  0  2  0  0  3  0  0  0  0  0  0
  160.8830  213.1090  149.2880 O   0  0  0  0  0  0  0  0  0  0  0  0
  162.7440  212.7030  147.8340 C   0  0  0  0  0  1  0  0  0  0  0  0
  161.2590  212.5080  148.0570 C   0  0  0  0  0  2  0  0  0  0  0  0
  1 19  2  0  0  0  0
  1  4  1  0  0  0  0
  2 13  2  0  0  0  0
  2 19  1  0  0  0  0
  3 10  1  0  0  0  0
  4 20  2  0  0  0  0
  5  1  1  0  0  0  0
  6  8  1  0  0  0  0
  7 15  1  1  0  0  0
  7  9  1  0  0  0  0
  8 12  2  0  0  0  0
  9 22  1  0  0  0  0
  9 14  1  1  0  0  0
 10 21  1  1  0  0  0
 11  5  2  0  0  0  0
 11  8  1  0  0  0  0
 12  4  1  0  0  0  0
 12 27  1  0  0  0  0
 13 18  1  0  0  0  0
 15 23  1  0  0  0  0
 16  2  1  0  0  0  0
 17  3  1  0  0  0  0
 18 25  2  0  0  0  0
 19 26  1  0  0  0  0
 20 17  1  0  0  0  0
 22 20  1  6  0  0  0
 22 10  1  0  0  0  0
 23 14  1  0  0  0  0
 26 25  1  0  0  0  0
 26 17  2  0  0  0  0
 27  7  1  0  0  0  0
 27 24  1  1  0  0  0
 28 11  1  0  0  0  0
 29 30  1  0  0  0  0
 30 28  1  0  0  0  0
M  END
>  <MODEL>
4

>  <REMARK>
 VINA RESULT:      -6.4      2.927      4.359
  Name = 
  2 active torsions:
  status: ('A' for Active; 'I' for Inactive)
    1  A    between atoms: C_11  and  O_28
    2  A    between atoms: O_28  and  C_30
                            x       y       z     vdW  Elec       q    Type
                         _______ _______ _______ _____ _____    ______ ____

>  <TORSDO>
F 2

$$$$
=
 OpenBabel11122412383D

 30 35  0  0  1  0  0  0  0  0999 V2000
  161.6030  207.7810  150.7900 C   0  0  0  0  0  0  0  0  0  0  0  0
  162.1530  208.6220  148.4760 C   0  0  0  0  0  0  0  0  0  0  0  0
  160.9270  211.6960  152.1410 N   0  0  0  0  0  2  0  0  0  0  0  0
  161.2390  208.0790  152.1350 C   0  0  0  0  0  0  0  0  0  0  0  0
  161.7690  206.4790  150.4340 N   0  0  0  0  0  0  0  0  0  0  0  0
  161.1180  204.6400  153.5180 O   0  0  0  0  0  1  0  0  0  0  0  0
  161.7270  208.2390  155.1900 C   0  0  1  0  0  3  0  0  0  0  0  0
  161.2690  205.7010  152.6290 C   0  0  0  0  0  0  0  0  0  0  0  0
  161.5550  209.6790  154.8830 N   0  0  2  0  0  0  0  0  0  0  0  0
  160.5380  211.5040  153.5330 C   0  0  1  0  0  3  0  0  0  0  0  0
  161.6100  205.4450  151.3020 C   0  0  0  0  0  0  0  0  0  0  0  0
  161.0870  207.0220  153.0610 C   0  0  0  0  0  0  0  0  0  0  0  0
  162.2980  209.7110  147.6110 C   0  0  0  0  0  3  0  0  0  0  0  0
  161.0730  210.2800  156.1240 C   0  0  0  0  0  2  0  0  0  0  0  0
  161.6720  208.0560  156.6950 C   0  0  0  0  0  2  0  0  0  0  0  0
  162.4610  207.0460  147.7520 Cl  0  0  0  0  0  0  0  0  0  0  0  0
  161.2130  210.4260  151.5890 C   0  0  0  0  0  0  0  0  0  0  0  0
  162.0870  211.0130  148.0540 C   0  0  0  0  0  3  0  0  0  0  0  0
  161.7820  208.8350  149.8380 C   0  0  0  0  0  0  0  0  0  0  0  0
  161.0550  209.4220  152.4960 C   0  0  0  0  0  0  0  0  0  0  0  0
  159.1220  212.0050  153.7380 C   0  0  0  0  0  1  0  0  0  0  0  0
  160.5970  209.9800  153.8080 C   0  0  1  0  0  3  0  0  0  0  0  0
  161.6040  209.4460  157.2610 C   0  0  0  0  0  2  0  0  0  0  0  0
  159.4160  207.6000  154.6890 O   0  0  0  0  0  1  0  0  0  0  0  0
  161.7280  211.2470  149.3760 C   0  0  0  0  0  3  0  0  0  0  0  0
  161.5770  210.1790  150.2670 C   0  0  0  0  0  0  0  0  0  0  0  0
  160.7590  207.2540  154.5090 C   0  0  2  0  0  3  0  0  0  0  0  0
  161.7900  204.1280  150.8770 O   0  0  0  0  0  0  0  0  0  0  0  0
  161.1380  203.4990  148.6590 C   0  0  0  0  0  1  0  0  0  0  0  0
  160.7990  203.4330  150.1330 C   0  0  0  0  0  2  0  0  0  0  0  0
  1  4  1  0  0  0  0
  2 19  1  0  0  0  0
  3 10  1  0  0  0  0
  4 20  2  0  0  0  0
  4 12  1  0  0  0  0
  5  1  1  0  0  0  0
  5 11  2  0  0  0  0
  7 15  1  1  0  0  0
  8 12  2  0  0  0  0
  8  6  1  0  0  0  0
  9  7  1  0  0  0  0
  9 14  1  1  0  0  0
 10 21  1  6  0  0  0
 10 22  1  0  0  0  0
 11  8  1  0  0  0  0
 12 27  1  0  0  0  0
 13 18  1  0  0  0  0
 13  2  2  0  0  0  0
 14 23  1  0  0  0  0
 15 23  1  0  0  0  0
 16  2  1  0  0  0  0
 17  3  1  0  0  0  0
 17 20  1  0  0  0  0
 18 25  2  0  0  0  0
 19 26  1  0  0  0  0
 19  1  2  0  0  0  0
 22 20  1  6  0  0  0
 22  9  1  0  0  0  0
 25 26  1  0  0  0  0
 26 17  2  0  0  0  0
 27 24  1  6  0  0  0
 27  7  1  0  0  0  0
 28 11  1  0  0  0  0
 29 30  1  0  0  0  0
 30 28  1  0  0  0  0
M  END
>  <MODEL>
5

>  <REMARK>
 VINA RESULT:      -5.4      2.400      4.890
  Name = 
  2 active torsions:
  status: ('A' for Active; 'I' for Inactive)
    1  A    between atoms: C_11  and  O_28
    2  A    between atoms: O_28  and  C_30
                            x       y       z     vdW  Elec       q    Type
                         _______ _______ _______ _____ _____    ______ ____

>  <TORSDO>
F 2

$$$$
=
 OpenBabel11122412383D

 30 35  0  0  1  0  0  0  0  0999 V2000
  160.9990  210.1310  151.8900 C   0  0  0  0  0  0  0  0  0  0  0  0
  161.9490  210.3150  149.5590 C   0  0  0  0  0  0  0  0  0  0  0  0
  159.4210  214.0110  151.6420 N   0  0  0  0  0  2  0  0  0  0  0  0
  160.2830  210.7400  152.9610 C   0  0  0  0  0  0  0  0  0  0  0  0
  161.4460  208.8560  152.0470 N   0  0  0  0  0  0  0  0  0  0  0  0
  160.3710  207.9650  155.4200 O   0  0  0  0  0  1  0  0  0  0  0  0
  159.9970  211.9440  155.8000 C   0  0  1  0  0  3  0  0  0  0  0  0
  160.5640  208.7040  154.2560 C   0  0  0  0  0  0  0  0  0  0  0  0
  159.6820  213.1400  154.9820 N   0  0  2  0  0  0  0  0  0  0  0  0
  158.7460  214.1760  152.9240 C   0  0  1  0  0  3  0  0  0  0  0  0
  161.2470  208.1340  153.1820 C   0  0  0  0  0  0  0  0  0  0  0  0
  160.0810  210.0160  154.1580 C   0  0  0  0  0  0  0  0  0  0  0  0
  162.1260  211.0860  148.4070 C   0  0  0  0  0  3  0  0  0  0  0  0
  158.8310  213.9700  155.8300 C   0  0  0  0  0  2  0  0  0  0  0  0
  159.6130  212.2290  157.2400 C   0  0  0  0  0  2  0  0  0  0  0  0
  162.6610  208.7050  149.5000 Cl  0  0  0  0  0  0  0  0  0  0  0  0
  160.0240  212.7320  151.6290 C   0  0  0  0  0  0  0  0  0  0  0  0
  161.6150  212.3780  148.3210 C   0  0  0  0  0  3  0  0  0  0  0  0
  161.2350  210.8500  150.6740 C   0  0  0  0  0  0  0  0  0  0  0  0
  159.8120  212.0500  152.7900 C   0  0  0  0  0  0  0  0  0  0  0  0
  157.2620  214.3820  152.6930 C   0  0  0  0  0  1  0  0  0  0  0  0
  158.9730  212.8680  153.7220 C   0  0  1  0  0  3  0  0  0  0  0  0
  159.1970  213.6730  157.2610 C   0  0  0  0  0  2  0  0  0  0  0  0
  158.0000  210.6750  155.1650 O   0  0  0  0  0  1  0  0  0  0  0  0
  160.9190  212.9220  149.3940 C   0  0  0  0  0  3  0  0  0  0  0  0
  160.7280  212.1780  150.5620 C   0  0  0  0  0  0  0  0  0  0  0  0
  159.3850  210.6050  155.3520 C   0  0  2  0  0  3  0  0  0  0  0  0
  161.7250  206.8260  153.2850 O   0  0  0  0  0  0  0  0  0  0  0  0
  161.1550  205.0370  151.7970 C   0  0  0  0  0  1  0  0  0  0  0  0
  162.1760  206.0970  152.1530 C   0  0  0  0  0  2  0  0  0  0  0  0
  1  5  1  0  0  0  0
  1  4  1  0  0  0  0
  2 19  1  0  0  0  0
  3 10  1  0  0  0  0
  4 12  1  0  0  0  0
  5 11  2  0  0  0  0
  7 15  1  1  0  0  0
  8  6  1  0  0  0  0
  9  7  1  0  0  0  0
  9 14  1  1  0  0  0
 10 21  1  6  0  0  0
 10 22  1  0  0  0  0
 11 28  1  0  0  0  0
 11  8  1  0  0  0  0
 12  8  2  0  0  0  0
 12 27  1  0  0  0  0
 13  2  2  0  0  0  0
 14 23  1  0  0  0  0
 15 23  1  0  0  0  0
 16  2  1  0  0  0  0
 17  3  1  0  0  0  0
 17 20  1  0  0  0  0
 18 13  1  0  0  0  0
 18 25  2  0  0  0  0
 19  1  2  0  0  0  0
 20  4  2  0  0  0  0
 22 20  1  6  0  0  0
 22  9  1  0  0  0  0
 25 26  1  0  0  0  0
 26 19  1  0  0  0  0
 26 17  2  0  0  0  0
 27 24  1  6  0  0  0
 27  7  1  0  0  0  0
 29 30  1  0  0  0  0
 30 28  1  0  0  0  0
M  END
>  <MODEL>
6

>  <REMARK>
 VINA RESULT:      -5.3      2.944      6.200
  Name = 
  2 active torsions:
  status: ('A' for Active; 'I' for Inactive)
    1  A    between atoms: C_11  and  O_28
    2  A    between atoms: O_28  and  C_30
                            x       y       z     vdW  Elec       q    Type
                         _______ _______ _______ _____ _____    ______ ____

>  <TORSDO>
F 2

$$$$
=
 OpenBabel11122412383D

 30 35  0  0  1  0  0  0  0  0999 V2000
  161.4650  208.3590  151.3520 C   0  0  0  0  0  0  0  0  0  0  0  0
  161.4640  208.6050  153.8630 C   0  0  0  0  0  0  0  0  0  0  0  0
  160.9100  204.2130  151.6740 N   0  0  0  0  0  2  0  0  0  0  0  0
  161.3860  207.5030  150.2160 C   0  0  0  0  0  0  0  0  0  0  0  0
  161.6130  209.6960  151.1510 N   0  0  0  0  0  0  0  0  0  0  0  0
  161.7300  210.0240  147.5170 O   0  0  0  0  0  1  0  0  0  0  0  0
  162.5120  206.0900  147.7000 C   0  0  1  0  0  3  0  0  0  0  0  0
  161.6360  209.4480  148.7810 C   0  0  0  0  0  0  0  0  0  0  0  0
  162.2090  204.9090  148.5420 N   0  0  2  0  0  0  0  0  0  0  0  0
  160.8390  203.7790  150.2840 C   0  0  1  0  0  3  0  0  0  0  0  0
  161.6950  210.2570  149.9150 C   0  0  0  0  0  0  0  0  0  0  0  0
  161.4880  208.0610  148.9210 C   0  0  0  0  0  0  0  0  0  0  0  0
  161.3670  207.9920  155.1160 C   0  0  0  0  0  3  0  0  0  0  0  0
  161.9780  203.8160  147.6010 C   0  0  0  0  0  2  0  0  0  0  0  0
  162.7910  205.6170  146.2860 C   0  0  0  0  0  2  0  0  0  0  0  0
  161.6830  210.3520  153.8990 Cl  0  0  0  0  0  0  0  0  0  0  0  0
  161.1310  205.6090  151.6840 C   0  0  0  0  0  0  0  0  0  0  0  0
  161.1940  206.6160  155.2320 C   0  0  0  0  0  3  0  0  0  0  0  0
  161.3850  207.8170  152.6750 C   0  0  0  0  0  0  0  0  0  0  0  0
  161.2200  206.1270  150.4270 C   0  0  0  0  0  0  0  0  0  0  0  0
  159.4790  203.1690  150.0110 C   0  0  0  0  0  1  0  0  0  0  0  0
  161.0290  205.0440  149.4100 C   0  0  1  0  0  3  0  0  0  0  0  0
  162.7800  204.1160  146.3610 C   0  0  0  0  0  2  0  0  0  0  0  0
  160.1810  206.7670  147.3730 O   0  0  0  0  0  1  0  0  0  0  0  0
  161.1170  205.8270  154.0900 C   0  0  0  0  0  3  0  0  0  0  0  0
  161.2130  206.4090  152.8220 C   0  0  0  0  0  0  0  0  0  0  0  0
  161.4690  207.2220  147.6740 C   0  0  2  0  0  3  0  0  0  0  0  0
  161.8420  211.6370  149.7690 O   0  0  0  0  0  0  0  0  0  0  0  0
  160.8160  213.4280  148.5520 C   0  0  0  0  0  1  0  0  0  0  0  0
  160.7270  212.5170  149.7580 C   0  0  0  0  0  2  0  0  0  0  0  0
  1 19  1  0  0  0  0
  2 16  1  0  0  0  0
  2 13  1  0  0  0  0
  3 17  1  0  0  0  0
  4 20  1  0  0  0  0
  4  1  2  0  0  0  0
  5  1  1  0  0  0  0
  6  8  1  0  0  0  0
  7 15  1  6  0  0  0
  7  9  1  0  0  0  0
  8 12  2  0  0  0  0
  8 11  1  0  0  0  0
  9 14  1  6  0  0  0
  9 22  1  0  0  0  0
 10 21  1  1  0  0  0
 10  3  1  0  0  0  0
 11  5  2  0  0  0  0
 12  4  1  0  0  0  0
 13 18  2  0  0  0  0
 15 23  1  0  0  0  0
 17 26  1  0  0  0  0
 19 26  1  0  0  0  0
 19  2  2  0  0  0  0
 20 17  2  0  0  0  0
 22 10  1  0  0  0  0
 22 20  1  1  0  0  0
 23 14  1  0  0  0  0
 25 18  1  0  0  0  0
 26 25  2  0  0  0  0
 27 24  1  1  0  0  0
 27  7  1  0  0  0  0
 27 12  1  0  0  0  0
 28 11  1  0  0  0  0
 29 30  1  0  0  0  0
 30 28  1  0  0  0  0
M  END
>  <MODEL>
7

>  <REMARK>
 VINA RESULT:      -5.2      2.378      5.686
  Name = 
  2 active torsions:
  status: ('A' for Active; 'I' for Inactive)
    1  A    between atoms: C_11  and  O_28
    2  A    between atoms: O_28  and  C_30
                            x       y       z     vdW  Elec       q    Type
                         _______ _______ _______ _____ _____    ______ ____

>  <TORSDO>
F 2

$$$$
