=
 OpenBabel11122413483D

 37 44  0  0  1  0  0  0  0  0999 V2000
  160.8520  210.4450  147.9790 C   0  0  0  0  0  2  0  0  0  0  0  0
  161.4110  206.0340  146.5430 C   0  0  0  0  0  0  0  0  0  0  0  0
  161.3760  206.6180  150.6880 C   0  0  0  0  0  0  0  0  0  0  0  0
  161.3860  211.6790  147.2340 C   0  0  2  0  0  3  0  0  0  0  0  0
  161.7340  210.2560  152.0480 C   0  0  0  0  0  2  0  0  0  0  0  0
  161.5300  205.0170  148.8670 C   0  0  0  0  0  0  0  0  0  0  0  0
  161.4620  208.0180  150.7730 C   0  0  0  0  0  0  0  0  0  0  0  0
  161.3740  213.1890  149.2960 C   0  0  0  0  0  0  0  0  0  0  0  0
  161.5200  206.3120  149.3580 C   0  0  0  0  0  0  0  0  0  0  0  0
  161.3760  208.8210  152.0040 N   0  0  0  0  0  0  0  0  0  0  0  0
  161.3990  203.9670  149.7830 C   0  0  0  0  0  3  0  0  0  0  0  0
  161.0660  212.9360  147.9200 N   0  0  0  0  0  2  0  0  0  0  0  0
  161.6650  207.3960  148.5950 N   0  0  0  0  0  0  0  0  0  0  0  0
  159.9030  206.1300  146.3880 C   0  0  0  0  0  1  0  0  0  0  0  0
  160.9950  205.7700  153.1020 C   0  0  0  0  0  2  0  0  0  0  0  0
  161.2430  204.2520  151.1560 C   0  0  0  0  0  3  0  0  0  0  0  0
  161.9490  207.3430  147.1600 C   0  0  0  0  0  2  0  0  0  0  0  0
  161.7210  212.1010  150.1340 N   0  0  0  0  0  0  0  0  0  0  0  0
  161.1670  210.8840  150.8210 C   0  0  1  0  0  3  0  0  0  0  0  0
  161.2420  205.5780  151.6360 C   0  0  0  0  0  0  0  0  0  0  0  0
  161.6530  208.4640  149.4210 C   0  0  0  0  0  0  0  0  0  0  0  0
  161.7680  204.7940  147.3980 C   0  0  0  0  0  2  0  0  0  0  0  0
  160.7800  208.2050  153.1980 C   0  0  1  0  0  3  0  0  0  0  0  0
  162.0200  205.8640  145.1680 C   0  0  0  0  0  1  0  0  0  0  0  0
  162.3120  210.7500  150.0830 C   0  0  1  0  0  3  0  0  0  0  0  0
  161.2650  214.3490  149.7690 O   0  0  0  0  0  0  0  0  0  0  0  0
  161.9370  209.8710  148.9110 C   0  0  2  0  0  3  0  0  0  0  0  0
  161.6120  207.0290  153.6640 C   0  0  0  0  0  2  0  0  0  0  0  0
  161.2190  209.0600  155.5110 C   0  0  0  0  0  3  0  0  0  0  0  0
  160.4880  209.1640  154.3230 C   0  0  0  0  0  0  0  0  0  0  0  0
  159.4740  210.1300  154.2150 C   0  0  0  0  0  3  0  0  0  0  0  0
  157.9460  212.1930  155.1430 Cl  0  0  0  0  0  0  0  0  0  0  0  0
  159.9460  210.8850  156.4660 C   0  0  0  0  0  3  0  0  0  0  0  0
  159.2080  210.9890  155.2840 C   0  0  0  0  0  0  0  0  0  0  0  0
  160.9510  209.9200  156.5800 C   0  0  0  0  0  3  0  0  0  0  0  0
  159.5020  212.1910  145.8620 O   0  0  0  0  0  1  0  0  0  0  0  0
  160.8160  211.7210  145.8300 C   0  0  0  0  0  2  0  0  0  0  0  0
  2 17  1  0  0  0  0
  2 22  1  0  0  0  0
  3  7  1  0  0  0  0
  3 20  1  0  0  0  0
  4 37  1  6  0  0  0
  4 12  1  0  0  0  0
  4  1  1  0  0  0  0
  6  9  1  0  0  0  0
  6 11  2  0  0  0  0
  7 10  1  0  0  0  0
  8 26  2  0  0  0  0
  8 18  1  0  0  0  0
  9  3  2  0  0  0  0
 10  5  1  0  0  0  0
 10 23  1  0  0  0  0
 11 16  1  0  0  0  0
 12  8  1  0  0  0  0
 13  9  1  0  0  0  0
 13 21  1  0  0  0  0
 14  2  1  0  0  0  0
 15 28  1  0  0  0  0
 16 20  2  0  0  0  0
 17 13  1  0  0  0  0
 18 19  1  0  0  0  0
 19  5  1  1  0  0  0
 20 15  1  0  0  0  0
 21  7  2  0  0  0  0
 22  6  1  0  0  0  0
 23 28  1  0  0  0  0
 23 30  1  1  0  0  0
 24  2  1  0  0  0  0
 25 18  1  6  0  0  0
 25 19  1  0  0  0  0
 27  1  1  1  0  0  0
 27 21  1  0  0  0  0
 27 25  1  0  0  0  0
 29 35  1  0  0  0  0
 30 29  2  0  0  0  0
 31 30  1  0  0  0  0
 31 34  2  0  0  0  0
 32 34  1  0  0  0  0
 33 35  2  0  0  0  0
 34 33  1  0  0  0  0
 37 36  1  0  0  0  0
M  END
>  <MODEL>
1

>  <REMARK>
 VINA RESULT:      -5.9      0.000      0.000
  Name = 
  2 active torsions:
  status: ('A' for Active; 'I' for Inactive)
    1  A    between atoms: CA_4  and  C_37
    2  A    between atoms: C_23  and  C_30
                            x       y       z     vdW  Elec       q    Type
                         _______ _______ _______ _____ _____    ______ ____

>  <TORSDO>
F 2

$$$$
=
 OpenBabel11122413483D

 37 44  0  0  1  0  0  0  0  0999 V2000
  161.1310  207.3670  151.7800 C   0  0  0  0  0  2  0  0  0  0  0  0
  160.2280  207.9280  156.3300 C   0  0  0  0  0  0  0  0  0  0  0  0
  159.8500  211.3530  153.9540 C   0  0  0  0  0  0  0  0  0  0  0  0
  162.1740  206.3910  151.2120 C   0  0  2  0  0  3  0  0  0  0  0  0
  161.3250  211.2740  150.3440 C   0  0  0  0  0  2  0  0  0  0  0  0
  159.6520  210.3960  156.1780 C   0  0  0  0  0  0  0  0  0  0  0  0
  160.4280  210.9210  152.7480 C   0  0  0  0  0  0  0  0  0  0  0  0
  162.4360  207.6340  148.9950 C   0  0  0  0  0  0  0  0  0  0  0  0
  160.0500  210.3360  154.8530 C   0  0  0  0  0  0  0  0  0  0  0  0
  160.4760  211.6790  151.4870 N   0  0  0  0  0  0  0  0  0  0  0  0
  159.0240  211.5660  156.6220 C   0  0  0  0  0  3  0  0  0  0  0  0
  162.2460  206.4300  149.7470 N   0  0  0  0  0  2  0  0  0  0  0  0
  160.6830  209.2920  154.3150 N   0  0  0  0  0  0  0  0  0  0  0  0
  158.8950  207.3330  155.9090 C   0  0  0  0  0  1  0  0  0  0  0  0
  158.8630  213.6980  153.4830 C   0  0  0  0  0  2  0  0  0  0  0  0
  158.8000  212.6260  155.7190 C   0  0  0  0  0  3  0  0  0  0  0  0
  161.1180  208.1260  155.0850 C   0  0  0  0  0  2  0  0  0  0  0  0
  162.2450  208.8830  149.6360 N   0  0  0  0  0  0  0  0  0  0  0  0
  161.1970  209.7950  150.2100 C   0  0  1  0  0  3  0  0  0  0  0  0
  159.2180  212.5460  154.3750 C   0  0  0  0  0  0  0  0  0  0  0  0
  160.9500  209.6130  153.0320 C   0  0  0  0  0  0  0  0  0  0  0  0
  159.9880  209.2520  157.0950 C   0  0  0  0  0  2  0  0  0  0  0  0
  159.5420  212.7990  151.3110 C   0  0  1  0  0  3  0  0  0  0  0  0
  160.9110  206.9490  157.2610 C   0  0  0  0  0  1  0  0  0  0  0  0
  162.3030  209.5150  150.9680 C   0  0  1  0  0  3  0  0  0  0  0  0
  162.6960  207.5810  147.7650 O   0  0  0  0  0  0  0  0  0  0  0  0
  161.7940  208.7100  152.1420 C   0  0  2  0  0  3  0  0  0  0  0  0
  159.8160  213.8890  152.3260 C   0  0  0  0  0  2  0  0  0  0  0  0
  160.6180  213.9150  149.3430 C   0  0  0  0  0  3  0  0  0  0  0  0
  159.4720  213.3470  149.9090 C   0  0  0  0  0  0  0  0  0  0  0  0
  158.2720  213.3320  149.1780 C   0  0  0  0  0  3  0  0  0  0  0  0
  156.7340  213.8460  146.9820 Cl  0  0  0  0  0  0  0  0  0  0  0  0
  159.3790  214.4300  147.3270 C   0  0  0  0  0  3  0  0  0  0  0  0
  158.2300  213.8700  147.8900 C   0  0  0  0  0  0  0  0  0  0  0  0
  160.5740  214.4530  148.0540 C   0  0  0  0  0  3  0  0  0  0  0  0
  161.2120  204.9980  152.8950 O   0  0  0  0  0  1  0  0  0  0  0  0
  161.8530  204.9770  151.6550 C   0  0  0  0  0  2  0  0  0  0  0  0
  2 22  1  0  0  0  0
  2 24  1  0  0  0  0
  3 20  2  0  0  0  0
  3  9  1  0  0  0  0
  4 37  1  6  0  0  0
  4  1  1  0  0  0  0
  5 10  1  0  0  0  0
  6 11  1  0  0  0  0
  6 22  1  0  0  0  0
  7 21  2  0  0  0  0
  7  3  1  0  0  0  0
  8 18  1  0  0  0  0
  8 12  1  0  0  0  0
  9  6  2  0  0  0  0
 10  7  1  0  0  0  0
 12  4  1  0  0  0  0
 13  9  1  0  0  0  0
 13 17  1  0  0  0  0
 14  2  1  0  0  0  0
 15 20  1  0  0  0  0
 16 11  2  0  0  0  0
 17  2  1  0  0  0  0
 18 19  1  0  0  0  0
 19  5  1  6  0  0  0
 19 25  1  0  0  0  0
 20 16  1  0  0  0  0
 21 13  1  0  0  0  0
 23 30  1  6  0  0  0
 23 10  1  0  0  0  0
 23 28  1  0  0  0  0
 25 18  1  6  0  0  0
 25 27  1  0  0  0  0
 26  8  2  0  0  0  0
 27  1  1  6  0  0  0
 27 21  1  0  0  0  0
 28 15  1  0  0  0  0
 29 30  1  0  0  0  0
 31 30  2  0  0  0  0
 32 34  1  0  0  0  0
 33 34  2  0  0  0  0
 33 35  1  0  0  0  0
 34 31  1  0  0  0  0
 35 29  2  0  0  0  0
 37 36  1  0  0  0  0
M  END
>  <MODEL>
2

>  <REMARK>
 VINA RESULT:      -5.7      3.016      7.457
  Name = 
  2 active torsions:
  status: ('A' for Active; 'I' for Inactive)
    1  A    between atoms: CA_4  and  C_37
    2  A    between atoms: C_23  and  C_30
                            x       y       z     vdW  Elec       q    Type
                         _______ _______ _______ _____ _____    ______ ____

>  <TORSDO>
F 2

$$$$
=
 OpenBabel11122413483D

 37 44  0  0  1  0  0  0  0  0999 V2000
  161.1980  207.7380  151.3720 C   0  0  0  0  0  2  0  0  0  0  0  0
  160.4490  209.3310  155.7010 C   0  0  0  0  0  0  0  0  0  0  0  0
  160.2170  212.1750  152.6390 C   0  0  0  0  0  0  0  0  0  0  0  0
  162.1650  206.5970  151.0180 C   0  0  2  0  0  3  0  0  0  0  0  0
  161.5900  211.2200  149.1150 C   0  0  0  0  0  2  0  0  0  0  0  0
  160.0190  211.7390  155.0210 C   0  0  0  0  0  0  0  0  0  0  0  0
  160.7370  211.4560  151.5490 C   0  0  0  0  0  0  0  0  0  0  0  0
  162.4430  207.3100  148.5800 C   0  0  0  0  0  0  0  0  0  0  0  0
  160.3790  211.3670  153.7360 C   0  0  0  0  0  0  0  0  0  0  0  0
  160.7970  211.9170  150.1530 N   0  0  0  0  0  0  0  0  0  0  0  0
  159.4750  213.0160  155.2060 C   0  0  0  0  0  3  0  0  0  0  0  0
  162.2010  206.3130  149.5790 N   0  0  0  0  0  2  0  0  0  0  0  0
  160.9330  210.1930  153.4310 N   0  0  0  0  0  0  0  0  0  0  0  0
  159.0720  208.7460  155.4360 C   0  0  0  0  0  1  0  0  0  0  0  0
  159.3610  214.4210  151.6790 C   0  0  0  0  0  2  0  0  0  0  0  0
  159.2920  213.8660  154.0960 C   0  0  0  0  0  3  0  0  0  0  0  0
  161.3170  209.1960  154.4310 C   0  0  0  0  0  2  0  0  0  0  0  0
  162.3460  208.6770  148.9350 N   0  0  0  0  0  0  0  0  0  0  0  0
  161.3700  209.7580  149.3090 C   0  0  1  0  0  3  0  0  0  0  0  0
  159.6690  213.4700  152.7960 C   0  0  0  0  0  0  0  0  0  0  0  0
  161.1860  210.2090  152.1050 C   0  0  0  0  0  0  0  0  0  0  0  0
  160.3090  210.8020  156.1610 C   0  0  0  0  0  2  0  0  0  0  0  0
  159.9280  213.0300  149.7470 C   0  0  1  0  0  3  0  0  0  0  0  0
  161.0960  208.5350  156.8140 C   0  0  0  0  0  1  0  0  0  0  0  0
  162.4760  209.5790  150.0960 C   0  0  1  0  0  3  0  0  0  0  0  0
  162.6680  206.9750  147.3880 O   0  0  0  0  0  0  0  0  0  0  0  0
  161.9500  209.0820  151.4240 C   0  0  2  0  0  3  0  0  0  0  0  0
  160.2930  214.2950  150.4970 C   0  0  0  0  0  2  0  0  0  0  0  0
  158.6370  213.0660  147.6020 C   0  0  0  0  0  3  0  0  0  0  0  0
  159.8550  213.2640  148.2610 C   0  0  0  0  0  0  0  0  0  0  0  0
  160.9900  213.6370  147.5230 C   0  0  0  0  0  3  0  0  0  0  0  0
  162.3140  214.2900  145.2270 Cl  0  0  0  0  0  0  0  0  0  0  0  0
  159.6780  213.6280  145.4890 C   0  0  0  0  0  3  0  0  0  0  0  0
  160.8980  213.8220  146.1410 C   0  0  0  0  0  0  0  0  0  0  0  0
  158.5470  213.2510  146.2190 C   0  0  0  0  0  3  0  0  0  0  0  0
  161.6480  205.6060  153.1270 O   0  0  0  0  0  1  0  0  0  0  0  0
  161.7710  205.3360  151.7630 C   0  0  0  0  0  2  0  0  0  0  0  0
  2 22  1  0  0  0  0
  2 24  1  0  0  0  0
  3 20  2  0  0  0  0
  3  9  1  0  0  0  0
  4  1  1  0  0  0  0
  4 37  1  1  0  0  0
  5 10  1  0  0  0  0
  6 11  1  0  0  0  0
  6 22  1  0  0  0  0
  7 21  2  0  0  0  0
  7  3  1  0  0  0  0
  8 18  1  0  0  0  0
  8 12  1  0  0  0  0
  9  6  2  0  0  0  0
 10  7  1  0  0  0  0
 12  4  1  0  0  0  0
 13  9  1  0  0  0  0
 13 17  1  0  0  0  0
 14  2  1  0  0  0  0
 15 20  1  0  0  0  0
 16 11  2  0  0  0  0
 17  2  1  0  0  0  0
 18 19  1  0  0  0  0
 19  5  1  6  0  0  0
 19 25  1  0  0  0  0
 20 16  1  0  0  0  0
 21 13  1  0  0  0  0
 23 30  1  6  0  0  0
 23 10  1  0  0  0  0
 23 28  1  0  0  0  0
 25 18  1  6  0  0  0
 25 27  1  0  0  0  0
 26  8  2  0  0  0  0
 27  1  1  6  0  0  0
 27 21  1  0  0  0  0
 28 15  1  0  0  0  0
 29 30  1  0  0  0  0
 31 30  2  0  0  0  0
 32 34  1  0  0  0  0
 33 34  2  0  0  0  0
 33 35  1  0  0  0  0
 34 31  1  0  0  0  0
 35 29  2  0  0  0  0
 37 36  1  0  0  0  0
M  END
>  <MODEL>
3

>  <REMARK>
 VINA RESULT:      -4.6      3.136      7.864
  Name = 
  2 active torsions:
  status: ('A' for Active; 'I' for Inactive)
    1  A    between atoms: CA_4  and  C_37
    2  A    between atoms: C_23  and  C_30
                            x       y       z     vdW  Elec       q    Type
                         _______ _______ _______ _____ _____    ______ ____

>  <TORSDO>
F 2

$$$$
=
 OpenBabel11122413483D

 37 44  0  0  1  0  0  0  0  0999 V2000
  160.7920  206.4400  150.8320 C   0  0  0  0  0  2  0  0  0  0  0  0
  160.1470  207.8710  155.2330 C   0  0  0  0  0  0  0  0  0  0  0  0
  160.6440  210.8940  152.3800 C   0  0  0  0  0  0  0  0  0  0  0  0
  161.5320  205.1530  150.4330 C   0  0  2  0  0  3  0  0  0  0  0  0
  161.9850  209.9080  148.8520 C   0  0  0  0  0  2  0  0  0  0  0  0
  160.2390  210.3550  154.7140 C   0  0  0  0  0  0  0  0  0  0  0  0
  161.0680  210.1550  151.2620 C   0  0  0  0  0  0  0  0  0  0  0  0
  162.0740  205.9490  148.0660 C   0  0  0  0  0  0  0  0  0  0  0  0
  160.5850  210.0010  153.4210 C   0  0  0  0  0  0  0  0  0  0  0  0
  161.2930  210.6830  149.9060 N   0  0  0  0  0  0  0  0  0  0  0  0
  159.9490  211.7010  154.9710 C   0  0  0  0  0  3  0  0  0  0  0  0
  161.5870  204.9590  148.9800 N   0  0  0  0  0  2  0  0  0  0  0  0
  160.9110  208.7620  153.0530 N   0  0  0  0  0  0  0  0  0  0  0  0
  158.6970  207.5940  154.8730 C   0  0  0  0  0  1  0  0  0  0  0  0
  160.3020  213.3220  151.5550 C   0  0  0  0  0  2  0  0  0  0  0  0
  159.9970  212.6400  153.9200 C   0  0  0  0  0  3  0  0  0  0  0  0
  161.0360  207.6460  153.9910 C   0  0  0  0  0  2  0  0  0  0  0  0
  162.2310  207.2830  148.5160 N   0  0  0  0  0  0  0  0  0  0  0  0
  161.4700  208.5120  148.9300 C   0  0  1  0  0  3  0  0  0  0  0  0
  160.3560  212.2590  152.6100 C   0  0  0  0  0  0  0  0  0  0  0  0
  161.2320  208.8110  151.7420 C   0  0  0  0  0  0  0  0  0  0  0  0
  160.2770  209.3080  155.7930 C   0  0  0  0  0  2  0  0  0  0  0  0
  160.6840  211.9720  149.5500 C   0  0  1  0  0  3  0  0  0  0  0  0
  160.5640  206.8920  156.3090 C   0  0  0  0  0  1  0  0  0  0  0  0
  162.4760  208.0630  149.7450 C   0  0  1  0  0  3  0  0  0  0  0  0
  162.2910  205.6520  146.8630 O   0  0  0  0  0  0  0  0  0  0  0  0
  161.7930  207.5990  151.0100 C   0  0  2  0  0  3  0  0  0  0  0  0
  161.2520  213.0860  150.4030 C   0  0  0  0  0  2  0  0  0  0  0  0
  161.9700  212.6200  147.5010 C   0  0  0  0  0  3  0  0  0  0  0  0
  160.7360  212.3100  148.0830 C   0  0  0  0  0  0  0  0  0  0  0  0
  159.5700  212.3560  147.3010 C   0  0  0  0  0  3  0  0  0  0  0  0
  158.1900  212.7510  144.9790 Cl  0  0  0  0  0  0  0  0  0  0  0  0
  160.8810  213.0000  145.3720 C   0  0  0  0  0  3  0  0  0  0  0  0
  159.6450  212.6980  145.9490 C   0  0  0  0  0  0  0  0  0  0  0  0
  162.0430  212.9610  146.1470 C   0  0  0  0  0  3  0  0  0  0  0  0
  160.2990  203.1400  150.0800 O   0  0  0  0  0  1  0  0  0  0  0  0
  160.8570  203.9520  151.0680 C   0  0  0  0  0  2  0  0  0  0  0  0
  2 22  1  0  0  0  0
  2 24  1  0  0  0  0
  3 20  2  0  0  0  0
  3  9  1  0  0  0  0
  4  1  1  0  0  0  0
  4 37  1  1  0  0  0
  5 10  1  0  0  0  0
  6 11  1  0  0  0  0
  6 22  1  0  0  0  0
  7 21  2  0  0  0  0
  7  3  1  0  0  0  0
  8 18  1  0  0  0  0
  8 12  1  0  0  0  0
  9  6  2  0  0  0  0
 10  7  1  0  0  0  0
 12  4  1  0  0  0  0
 13  9  1  0  0  0  0
 13 17  1  0  0  0  0
 14  2  1  0  0  0  0
 15 20  1  0  0  0  0
 16 11  2  0  0  0  0
 17  2  1  0  0  0  0
 18 19  1  0  0  0  0
 19  5  1  6  0  0  0
 19 25  1  0  0  0  0
 20 16  1  0  0  0  0
 21 13  1  0  0  0  0
 23 30  1  6  0  0  0
 23 10  1  0  0  0  0
 23 28  1  0  0  0  0
 25 18  1  6  0  0  0
 25 27  1  0  0  0  0
 26  8  2  0  0  0  0
 27  1  1  6  0  0  0
 27 21  1  0  0  0  0
 28 15  1  0  0  0  0
 29 30  1  0  0  0  0
 31 30  2  0  0  0  0
 32 34  1  0  0  0  0
 33 34  2  0  0  0  0
 33 35  1  0  0  0  0
 34 31  1  0  0  0  0
 35 29  2  0  0  0  0
 36 37  1  0  0  0  0
M  END
>  <MODEL>
4

>  <REMARK>
 VINA RESULT:      -3.6      2.983      7.506
  Name = 
  2 active torsions:
  status: ('A' for Active; 'I' for Inactive)
    1  A    between atoms: CA_4  and  C_37
    2  A    between atoms: C_23  and  C_30
                            x       y       z     vdW  Elec       q    Type
                         _______ _______ _______ _____ _____    ______ ____

>  <TORSDO>
F 2

$$$$
=
 OpenBabel11122413483D

 37 44  0  0  1  0  0  0  0  0999 V2000
  160.8610  204.5570  147.5930 C   0  0  0  0  0  2  0  0  0  0  0  0
  160.7860  203.5110  152.1460 C   0  0  0  0  0  0  0  0  0  0  0  0
  161.5700  207.5120  151.2000 C   0  0  0  0  0  0  0  0  0  0  0  0
  161.3440  203.6040  146.4870 C   0  0  2  0  0  3  0  0  0  0  0  0
  162.4660  208.4020  147.5100 C   0  0  0  0  0  2  0  0  0  0  0  0
  161.2520  205.8700  152.9620 C   0  0  0  0  0  0  0  0  0  0  0  0
  161.7820  207.4350  149.8130 C   0  0  0  0  0  0  0  0  0  0  0  0
  161.8370  205.4670  144.8080 C   0  0  0  0  0  0  0  0  0  0  0  0
  161.4390  206.2170  151.6340 C   0  0  0  0  0  0  0  0  0  0  0  0
  161.9910  208.5710  148.9020 N   0  0  0  0  0  0  0  0  0  0  0  0
  161.2110  206.8990  153.9100 C   0  0  0  0  0  3  0  0  0  0  0  0
  161.2590  204.2020  145.1490 N   0  0  0  0  0  2  0  0  0  0  0  0
  161.5260  205.3320  150.6410 N   0  0  0  0  0  0  0  0  0  0  0  0
  159.2880  203.6170  151.9160 C   0  0  0  0  0  1  0  0  0  0  0  0
  161.5770  210.0310  151.7930 C   0  0  0  0  0  2  0  0  0  0  0  0
  161.3360  208.2410  153.4930 C   0  0  0  0  0  3  0  0  0  0  0  0
  161.5320  203.8830  150.8470 C   0  0  0  0  0  2  0  0  0  0  0  0
  162.2450  206.3390  145.8480 N   0  0  0  0  0  0  0  0  0  0  0  0
  161.7320  207.2360  146.9390 C   0  0  1  0  0  3  0  0  0  0  0  0
  161.5310  208.5730  152.1360 C   0  0  0  0  0  0  0  0  0  0  0  0
  161.7540  206.0310  149.5090 C   0  0  0  0  0  0  0  0  0  0  0  0
  161.1940  204.4130  153.3350 C   0  0  0  0  0  2  0  0  0  0  0  0
  161.5810  209.9100  149.3490 C   0  0  1  0  0  3  0  0  0  0  0  0
  161.1120  202.0750  152.4950 C   0  0  0  0  0  1  0  0  0  0  0  0
  162.7060  206.3250  147.2500 C   0  0  1  0  0  3  0  0  0  0  0  0
  161.9120  205.8290  143.6060 O   0  0  0  0  0  0  0  0  0  0  0  0
  162.0500  205.3360  148.1860 C   0  0  2  0  0  3  0  0  0  0  0  0
  162.3880  210.3410  150.5560 C   0  0  0  0  0  2  0  0  0  0  0  0
  162.6900  211.8060  148.1470 C   0  0  0  0  0  3  0  0  0  0  0  0
  161.5810  210.9620  148.2720 C   0  0  0  0  0  0  0  0  0  0  0  0
  160.4780  211.1370  147.4200 C   0  0  0  0  0  3  0  0  0  0  0  0
  159.1200  212.3490  145.3850 Cl  0  0  0  0  0  0  0  0  0  0  0  0
  161.6090  212.9740  146.3220 C   0  0  0  0  0  3  0  0  0  0  0  0
  160.4960  212.1380  146.4460 C   0  0  0  0  0  0  0  0  0  0  0  0
  162.7060  212.8080  147.1720 C   0  0  0  0  0  3  0  0  0  0  0  0
  160.4550  201.7810  145.2300 O   0  0  0  0  0  1  0  0  0  0  0  0
  160.5270  202.3270  146.5130 C   0  0  0  0  0  2  0  0  0  0  0  0
  2 24  1  0  0  0  0
  2 22  1  0  0  0  0
  3  9  2  0  0  0  0
  3 20  1  0  0  0  0
  4 37  1  6  0  0  0
  4  1  1  0  0  0  0
  5 10  1  0  0  0  0
  6 22  1  0  0  0  0
  6 11  2  0  0  0  0
  7  3  1  0  0  0  0
  8 12  1  0  0  0  0
  8 18  1  0  0  0  0
  9  6  1  0  0  0  0
 10 23  1  0  0  0  0
 10  7  1  0  0  0  0
 12  4  1  0  0  0  0
 13 17  1  0  0  0  0
 13  9  1  0  0  0  0
 14  2  1  0  0  0  0
 15 20  1  0  0  0  0
 16 11  1  0  0  0  0
 17  2  1  0  0  0  0
 18 19  1  0  0  0  0
 19 25  1  0  0  0  0
 19  5  1  6  0  0  0
 20 16  2  0  0  0  0
 21  7  2  0  0  0  0
 21 13  1  0  0  0  0
 23 30  1  6  0  0  0
 23 28  1  0  0  0  0
 25 18  1  6  0  0  0
 25 27  1  0  0  0  0
 26  8  2  0  0  0  0
 27  1  1  6  0  0  0
 27 21  1  0  0  0  0
 28 15  1  0  0  0  0
 29 30  1  0  0  0  0
 31 30  2  0  0  0  0
 32 34  1  0  0  0  0
 33 34  2  0  0  0  0
 33 35  1  0  0  0  0
 34 31  1  0  0  0  0
 35 29  2  0  0  0  0
 36 37  1  0  0  0  0
M  END
>  <MODEL>
5

>  <REMARK>
 VINA RESULT:      -3.3      3.248      6.659
  Name = 
  2 active torsions:
  status: ('A' for Active; 'I' for Inactive)
    1  A    between atoms: CA_4  and  C_37
    2  A    between atoms: C_23  and  C_30
                            x       y       z     vdW  Elec       q    Type
                         _______ _______ _______ _____ _____    ______ ____

>  <TORSDO>
F 2

$$$$
=
 OpenBabel11122413483D

 37 44  0  0  1  0  0  0  0  0999 V2000
  159.5360  209.7050  154.3470 C   0  0  0  0  0  2  0  0  0  0  0  0
  160.2690  213.0530  151.1720 C   0  0  0  0  0  0  0  0  0  0  0  0
  161.4040  209.1850  150.0470 C   0  0  0  0  0  0  0  0  0  0  0  0
  159.6350  209.9080  155.8680 C   0  0  2  0  0  3  0  0  0  0  0  0
  161.6240  206.4410  152.8100 C   0  0  0  0  0  2  0  0  0  0  0  0
  161.2300  211.5180  149.3930 C   0  0  0  0  0  0  0  0  0  0  0  0
  161.3070  208.4980  151.2690 C   0  0  0  0  0  0  0  0  0  0  0  0
  160.0270  207.4360  156.3830 C   0  0  0  0  0  0  0  0  0  0  0  0
  161.1820  210.5070  150.3380 C   0  0  0  0  0  0  0  0  0  0  0  0
  161.4810  207.0510  151.4690 N   0  0  0  0  0  0  0  0  0  0  0  0
  161.5370  211.1680  148.0720 C   0  0  0  0  0  3  0  0  0  0  0  0
  159.3580  208.6800  156.6220 N   0  0  0  0  0  2  0  0  0  0  0  0
  160.9310  210.7120  151.6320 N   0  0  0  0  0  0  0  0  0  0  0  0
  158.7880  212.8290  150.9230 C   0  0  0  0  0  1  0  0  0  0  0  0
  161.8970  207.3910  148.2480 C   0  0  0  0  0  2  0  0  0  0  0  0
  161.7630  209.8150  147.7420 C   0  0  0  0  0  3  0  0  0  0  0  0
  160.7720  212.0410  152.2240 C   0  0  0  0  0  2  0  0  0  0  0  0
  160.7660  207.2710  155.1860 N   0  0  0  0  0  0  0  0  0  0  0  0
  160.6270  207.1050  153.6980 C   0  0  1  0  0  3  0  0  0  0  0  0
  161.7140  208.8020  148.7210 C   0  0  0  0  0  0  0  0  0  0  0  0
  161.0140  209.5120  152.2440 C   0  0  0  0  0  0  0  0  0  0  0  0
  161.0430  212.9430  149.8370 C   0  0  0  0  0  2  0  0  0  0  0  0
  161.3700  206.1660  150.3010 C   0  0  1  0  0  3  0  0  0  0  0  0
  160.4510  214.4520  151.7230 C   0  0  0  0  0  1  0  0  0  0  0  0
  161.5030  208.0470  154.1700 C   0  0  1  0  0  3  0  0  0  0  0  0
  159.8990  206.4800  157.1910 O   0  0  0  0  0  0  0  0  0  0  0  0
  160.9230  209.3800  153.7590 C   0  0  2  0  0  3  0  0  0  0  0  0
  162.4660  206.4650  149.2980 C   0  0  0  0  0  2  0  0  0  0  0  0
  161.3650  204.2940  151.9640 C   0  0  0  0  0  3  0  0  0  0  0  0
  161.2960  204.6980  150.6260 C   0  0  0  0  0  0  0  0  0  0  0  0
  161.1980  203.7290  149.6140 C   0  0  0  0  0  3  0  0  0  0  0  0
  161.0320  201.1690  148.6790 Cl  0  0  0  0  0  0  0  0  0  0  0  0
  161.2200  201.9750  151.2820 C   0  0  0  0  0  3  0  0  0  0  0  0
  161.1570  202.3720  149.9430 C   0  0  0  0  0  0  0  0  0  0  0  0
  161.3230  202.9360  152.2920 C   0  0  0  0  0  3  0  0  0  0  0  0
  157.5300  210.9710  155.4980 O   0  0  0  0  0  1  0  0  0  0  0  0
  158.6670  210.9890  156.3080 C   0  0  0  0  0  2  0  0  0  0  0  0
  1  4  1  0  0  0  0
  2 24  1  0  0  0  0
  2 17  1  0  0  0  0
  3  9  1  0  0  0  0
  3  7  1  0  0  0  0
  4 37  1  1  0  0  0
  4 12  1  0  0  0  0
  6 22  1  0  0  0  0
  6  9  2  0  0  0  0
  7 10  1  0  0  0  0
  7 21  2  0  0  0  0
  8 12  1  0  0  0  0
  8 26  2  0  0  0  0
  9 13  1  0  0  0  0
 10  5  1  0  0  0  0
 11  6  1  0  0  0  0
 13 17  1  0  0  0  0
 13 21  1  0  0  0  0
 14  2  1  0  0  0  0
 15 20  1  0  0  0  0
 15 28  1  0  0  0  0
 16 11  2  0  0  0  0
 16 20  1  0  0  0  0
 18  8  1  0  0  0  0
 19  5  1  1  0  0  0
 19 25  1  0  0  0  0
 19 18  1  0  0  0  0
 20  3  2  0  0  0  0
 21 27  1  0  0  0  0
 22  2  1  0  0  0  0
 23 30  1  1  0  0  0
 23 10  1  0  0  0  0
 25 18  1  1  0  0  0
 27 25  1  0  0  0  0
 27  1  1  6  0  0  0
 28 23  1  0  0  0  0
 29 35  1  0  0  0  0
 30 29  2  0  0  0  0
 31 34  2  0  0  0  0
 31 30  1  0  0  0  0
 32 34  1  0  0  0  0
 33 35  2  0  0  0  0
 34 33  1  0  0  0  0
 36 37  1  0  0  0  0
M  END
>  <MODEL>
6

>  <REMARK>
 VINA RESULT:      -2.9      3.512      7.395
  Name = 
  2 active torsions:
  status: ('A' for Active; 'I' for Inactive)
    1  A    between atoms: CA_4  and  C_37
    2  A    between atoms: C_23  and  C_30
                            x       y       z     vdW  Elec       q    Type
                         _______ _______ _______ _____ _____    ______ ____

>  <TORSDO>
F 2

$$$$
