=
 OpenBabel11122412533D

 32 38  0  0  1  0  0  0  0  0999 V2000
  160.3940  208.9780  156.6960 C   0  0  1  0  0  3  0  0  0  0  0  0
  161.0710  206.3090  152.2810 C   0  0  0  0  0  0  0  0  0  0  0  0
  161.6110  209.8190  148.8030 C   0  0  0  0  0  2  0  0  0  0  0  0
  162.3610  208.8040  147.9610 C   0  0  0  0  0  2  0  0  0  0  0  0
  160.7660  203.8850  151.5270 C   0  0  0  0  0  0  0  0  0  0  0  0
  160.8870  202.9530  150.4070 C   0  0  1  0  0  3  0  0  0  0  0  0
  160.4310  207.0420  154.6030 C   0  0  2  0  0  3  0  0  0  0  0  0
  161.1870  208.7560  152.9990 C   0  0  0  0  0  2  0  0  0  0  0  0
  161.0390  202.3740  148.2480 C   0  0  0  0  0  0  0  0  0  0  0  0
  161.1120  209.3310  155.4410 C   0  0  2  0  0  3  0  0  0  0  0  0
  161.8080  209.4900  150.2770 C   0  0  0  0  0  2  0  0  0  0  0  0
  161.2950  207.6710  151.9460 C   0  0  0  0  0  0  0  0  0  0  0  0
  161.5090  208.0430  150.6060 C   0  0  0  0  0  0  0  0  0  0  0  0
  161.3550  205.7090  149.9250 C   0  0  0  0  0  0  0  0  0  0  0  0
  160.1640  201.6230  148.8270 N   0  0  0  0  0  0  0  0  0  0  0  0
  159.8590  207.6560  156.8310 O   0  0  0  0  0  0  0  0  0  0  0  0
  161.3510  208.2230  154.4130 C   0  0  1  0  0  3  0  0  0  0  0  0
  160.0400  202.0100  150.1650 N   0  0  0  0  0  2  0  0  0  0  0  0
  160.5080  206.6700  156.0610 C   0  0  0  0  0  2  0  0  0  0  0  0
  161.8660  208.9960  156.6680 N   0  0  0  0  0  0  0  0  0  0  0  0
  161.7200  207.4350  148.1450 C   0  0  0  0  0  2  0  0  0  0  0  0
  161.5570  207.0560  149.5980 C   0  0  0  0  0  0  0  0  0  0  0  0
  161.4130  204.7120  148.8840 N   0  0  0  0  0  2  0  0  0  0  0  0
  160.9340  205.9040  153.7330 C   0  0  0  0  0  2  0  0  0  0  0  0
  160.3140  203.4820  152.6320 O   0  0  0  0  0  0  0  0  0  0  0  0
  161.4230  202.2150  146.8190 C   0  0  0  0  0  1  0  0  0  0  0  0
  161.0920  205.3220  151.2670 C   0  0  0  0  0  0  0  0  0  0  0  0
  161.6770  203.3150  149.2080 C   0  0  1  0  0  3  0  0  0  0  0  0
  162.2790  210.2560  157.2610 C   0  0  0  0  0  2  0  0  0  0  0  0
  163.4480  210.8010  156.5200 C   0  0  0  0  0  0  0  0  0  0  0  0
  164.4980  211.4510  157.2260 N   0  0  0  0  0  1  0  0  0  0  0  0
  163.4930  210.7180  155.2640 O   0  0  0  0  0  0  0  0  0  0  0  0
  1 16  1  6  0  0  0
  2 24  1  0  0  0  0
  3 11  1  0  0  0  0
  4 21  1  0  0  0  0
  4  3  1  0  0  0  0
  5 25  2  0  0  0  0
  6 18  1  6  0  0  0
  6  5  1  0  0  0  0
  7 24  1  6  0  0  0
  7 19  1  0  0  0  0
  9 15  2  0  0  0  0
 10 20  1  1  0  0  0
 10  1  1  0  0  0  0
 11 13  1  0  0  0  0
 12  2  1  0  0  0  0
 12  8  1  0  0  0  0
 13 12  2  0  0  0  0
 14 27  1  0  0  0  0
 15 18  1  0  0  0  0
 17  8  1  6  0  0  0
 17  7  1  0  0  0  0
 17 10  1  0  0  0  0
 19 16  1  0  0  0  0
 20  1  1  0  0  0  0
 20 29  1  0  0  0  0
 21 22  1  0  0  0  0
 22 14  2  0  0  0  0
 22 13  1  0  0  0  0
 23 28  1  0  0  0  0
 23 14  1  0  0  0  0
 26  9  1  0  0  0  0
 27  5  1  0  0  0  0
 27  2  2  0  0  0  0
 28  9  1  6  0  0  0
 28  6  1  0  0  0  0
 30 31  1  0  0  0  0
 30 29  1  0  0  0  0
 32 30  2  0  0  0  0
M  END
>  <MODEL>
1

>  <REMARK>
 VINA RESULT:      -8.8      0.000      0.000
  Name = 
  2 active torsions:
  status: ('A' for Active; 'I' for Inactive)
    1  A    between atoms: N_20  and  C_29
    2  A    between atoms: C_29  and  C_30
                            x       y       z     vdW  Elec       q    Type
                         _______ _______ _______ _____ _____    ______ ____

>  <TORSDO>
F 2

$$$$
=
 OpenBabel11122412533D

 32 38  0  0  1  0  0  0  0  0999 V2000
  161.7790  209.7210  154.6550 C   0  0  1  0  0  3  0  0  0  0  0  0
  161.2140  206.7220  150.4420 C   0  0  0  0  0  0  0  0  0  0  0  0
  161.2510  202.0840  152.2300 C   0  0  0  0  0  2  0  0  0  0  0  0
  160.4830  201.6510  150.9960 C   0  0  0  0  0  2  0  0  0  0  0  0
  161.3630  207.0510  147.9100 C   0  0  0  0  0  0  0  0  0  0  0  0
  161.2480  206.3990  146.6070 C   0  0  1  0  0  3  0  0  0  0  0  0
  161.7350  208.6010  152.0340 C   0  0  2  0  0  3  0  0  0  0  0  0
  161.2570  206.3690  152.9700 C   0  0  0  0  0  2  0  0  0  0  0  0
  161.2130  204.6570  145.1980 C   0  0  0  0  0  0  0  0  0  0  0  0
  161.1940  208.3620  154.4940 C   0  0  2  0  0  3  0  0  0  0  0  0
  160.9130  203.5350  152.5470 C   0  0  0  0  0  2  0  0  0  0  0  0
  161.1360  205.8420  151.5540 C   0  0  0  0  0  0  0  0  0  0  0  0
  161.0590  204.4520  151.3510 C   0  0  0  0  0  0  0  0  0  0  0  0
  161.0610  204.7960  148.9390 C   0  0  0  0  0  0  0  0  0  0  0  0
  161.9720  205.5800  144.7110 N   0  0  0  0  0  0  0  0  0  0  0  0
  162.1850  210.4360  153.4820 O   0  0  0  0  0  0  0  0  0  0  0  0
  160.9380  207.8530  153.0740 C   0  0  1  0  0  3  0  0  0  0  0  0
  162.0260  206.6520  145.6080 N   0  0  0  0  0  2  0  0  0  0  0  0
  161.5130  210.0680  152.2990 C   0  0  0  0  0  2  0  0  0  0  0  0
  160.3200  209.5330  154.7300 N   0  0  0  0  0  0  0  0  0  0  0  0
  160.9860  202.4400  149.7940 C   0  0  0  0  0  2  0  0  0  0  0  0
  161.0030  203.9310  150.0400 C   0  0  0  0  0  0  0  0  0  0  0  0
  160.9960  204.2470  147.6060 N   0  0  0  0  0  2  0  0  0  0  0  0
  161.2020  208.2190  150.6640 C   0  0  0  0  0  2  0  0  0  0  0  0
  161.6920  208.2660  147.9770 O   0  0  0  0  0  0  0  0  0  0  0  0
  160.9280  203.3830  144.4840 C   0  0  0  0  0  1  0  0  0  0  0  0
  161.1850  206.1980  149.1270 C   0  0  0  0  0  0  0  0  0  0  0  0
  160.5870  205.0800  146.4810 C   0  0  1  0  0  3  0  0  0  0  0  0
  159.9750  209.5170  156.1410 C   0  0  0  0  0  2  0  0  0  0  0  0
  159.2780  210.7810  156.5030 C   0  0  0  0  0  0  0  0  0  0  0  0
  157.9930  211.0630  155.9640 N   0  0  0  0  0  1  0  0  0  0  0  0
  159.8410  211.6160  157.2580 O   0  0  0  0  0  0  0  0  0  0  0  0
  1 16  1  6  0  0  0
  1 20  1  0  0  0  0
  2 24  1  0  0  0  0
  2 12  1  0  0  0  0
  3 11  1  0  0  0  0
  4  3  1  0  0  0  0
  5 25  2  0  0  0  0
  5 27  1  0  0  0  0
  6 18  1  1  0  0  0
  6  5  1  0  0  0  0
  7 24  1  6  0  0  0
  7 19  1  0  0  0  0
  7 17  1  0  0  0  0
 10  1  1  0  0  0  0
 10 20  1  1  0  0  0
 12  8  1  0  0  0  0
 13 12  2  0  0  0  0
 13 11  1  0  0  0  0
 14 27  1  0  0  0  0
 14 22  2  0  0  0  0
 15  9  2  0  0  0  0
 15 18  1  0  0  0  0
 17  8  1  1  0  0  0
 17 10  1  0  0  0  0
 19 16  1  0  0  0  0
 20 29  1  0  0  0  0
 21 22  1  0  0  0  0
 21  4  1  0  0  0  0
 22 13  1  0  0  0  0
 23 14  1  0  0  0  0
 26  9  1  0  0  0  0
 27  2  2  0  0  0  0
 28  9  1  6  0  0  0
 28  6  1  0  0  0  0
 28 23  1  0  0  0  0
 29 30  1  0  0  0  0
 30 32  2  0  0  0  0
 31 30  1  0  0  0  0
M  END
>  <MODEL>
2

>  <REMARK>
 VINA RESULT:      -8.6      2.389      4.484
  Name = 
  2 active torsions:
  status: ('A' for Active; 'I' for Inactive)
    1  A    between atoms: N_20  and  C_29
    2  A    between atoms: C_29  and  C_30
                            x       y       z     vdW  Elec       q    Type
                         _______ _______ _______ _____ _____    ______ ____

>  <TORSDO>
F 2

$$$$
=
 OpenBabel11122412533D

 32 38  0  0  1  0  0  0  0  0999 V2000
  161.2200  201.5180  149.1020 C   0  0  1  0  0  3  0  0  0  0  0  0
  161.1830  206.0090  151.7290 C   0  0  0  0  0  0  0  0  0  0  0  0
  162.3330  209.4310  148.3120 C   0  0  0  0  0  2  0  0  0  0  0  0
  161.6350  210.4630  149.1780 C   0  0  0  0  0  2  0  0  0  0  0  0
  161.1560  206.7060  154.1890 C   0  0  0  0  0  0  0  0  0  0  0  0
  161.1410  207.8370  155.1150 C   0  0  1  0  0  3  0  0  0  0  0  0
  161.3280  203.5860  151.0620 C   0  0  2  0  0  3  0  0  0  0  0  0
  161.4010  205.2970  149.2870 C   0  0  0  0  0  2  0  0  0  0  0  0
  161.4450  209.9710  155.7270 C   0  0  0  0  0  0  0  0  0  0  0  0
  160.9500  202.9110  148.6530 C   0  0  2  0  0  3  0  0  0  0  0  0
  161.6890  208.0700  148.5390 C   0  0  0  0  0  2  0  0  0  0  0  0
  161.3490  206.3630  150.3630 C   0  0  0  0  0  0  0  0  0  0  0  0
  161.5780  207.7030  150.0030 C   0  0  0  0  0  0  0  0  0  0  0  0
  161.4100  208.3680  152.3420 C   0  0  0  0  0  0  0  0  0  0  0  0
  161.9570  209.1960  156.6240 N   0  0  0  0  0  0  0  0  0  0  0  0
  161.4090  201.2740  150.5010 O   0  0  0  0  0  0  0  0  0  0  0  0
  160.7610  203.9880  149.7230 C   0  0  1  0  0  3  0  0  0  0  0  0
  161.8030  207.8650  156.2230 N   0  0  0  0  0  2  0  0  0  0  0  0
  160.7920  202.2080  151.3560 C   0  0  0  0  0  2  0  0  0  0  0  0
  159.8450  201.9350  148.7780 N   0  0  0  0  0  0  0  0  0  0  0  0
  161.9010  210.1450  150.6430 C   0  0  0  0  0  2  0  0  0  0  0  0
  161.5910  208.7090  150.9950 C   0  0  0  0  0  0  0  0  0  0  0  0
  161.4190  209.4080  153.3410 N   0  0  0  0  0  2  0  0  0  0  0  0
  160.8430  204.5820  152.1000 C   0  0  0  0  0  2  0  0  0  0  0  0
  161.2050  205.5300  154.6370 O   0  0  0  0  0  0  0  0  0  0  0  0
  161.4270  211.4540  155.8550 C   0  0  0  0  0  1  0  0  0  0  0  0
  161.2220  207.0130  152.7260 C   0  0  0  0  0  0  0  0  0  0  0  0
  160.7900  209.1950  154.6390 C   0  0  1  0  0  3  0  0  0  0  0  0
  159.5670  201.4470  147.4380 C   0  0  0  0  0  2  0  0  0  0  0  0
  160.8320  201.3750  146.6580 C   0  0  0  0  0  0  0  0  0  0  0  0
  161.2060  202.4530  145.8090 N   0  0  0  0  0  1  0  0  0  0  0  0
  161.5540  200.3450  146.7210 O   0  0  0  0  0  0  0  0  0  0  0  0
  1 16  1  1  0  0  0
  2 24  1  0  0  0  0
  2 27  1  0  0  0  0
  3 11  1  0  0  0  0
  3  4  1  0  0  0  0
  4 21  1  0  0  0  0
  5 25  2  0  0  0  0
  6  5  1  6  0  0  0
  6 18  1  0  0  0  0
  7 19  1  1  0  0  0
  7 24  1  0  0  0  0
  8 12  1  0  0  0  0
  9 26  1  0  0  0  0
  9 15  2  0  0  0  0
 10 20  1  1  0  0  0
 10  1  1  0  0  0  0
 10 17  1  0  0  0  0
 11 13  1  0  0  0  0
 12  2  2  0  0  0  0
 13 12  1  0  0  0  0
 13 22  2  0  0  0  0
 14 27  2  0  0  0  0
 14 23  1  0  0  0  0
 16 19  1  0  0  0  0
 17  8  1  6  0  0  0
 17  7  1  0  0  0  0
 18 15  1  0  0  0  0
 20  1  1  0  0  0  0
 21 22  1  0  0  0  0
 22 14  1  0  0  0  0
 27  5  1  0  0  0  0
 28 23  1  6  0  0  0
 28  6  1  0  0  0  0
 28  9  1  0  0  0  0
 29 20  1  0  0  0  0
 30 32  2  0  0  0  0
 30 29  1  0  0  0  0
 31 30  1  0  0  0  0
M  END
>  <MODEL>
3

>  <REMARK>
 VINA RESULT:      -8.0      1.891      7.955
  Name = 
  2 active torsions:
  status: ('A' for Active; 'I' for Inactive)
    1  A    between atoms: N_20  and  C_29
    2  A    between atoms: C_29  and  C_30
                            x       y       z     vdW  Elec       q    Type
                         _______ _______ _______ _____ _____    ______ ____

>  <TORSDO>
F 2

$$$$
=
 OpenBabel11122412533D

 32 38  0  0  1  0  0  0  0  0999 V2000
  161.9250  203.3310  147.0010 C   0  0  1  0  0  3  0  0  0  0  0  0
  161.2170  206.7110  150.8920 C   0  0  0  0  0  0  0  0  0  0  0  0
  162.5160  211.0980  148.9510 C   0  0  0  0  0  2  0  0  0  0  0  0
  161.6390  211.7670  149.9920 C   0  0  0  0  0  2  0  0  0  0  0  0
  160.8310  206.5630  153.4160 C   0  0  0  0  0  0  0  0  0  0  0  0
  160.6140  207.3270  154.6430 C   0  0  1  0  0  3  0  0  0  0  0  0
  161.6300  204.6450  149.5130 C   0  0  2  0  0  3  0  0  0  0  0  0
  161.7910  206.8450  148.4090 C   0  0  0  0  0  2  0  0  0  0  0  0
  160.6750  209.1520  155.9430 C   0  0  0  0  0  0  0  0  0  0  0  0
  161.6070  204.7850  146.9870 C   0  0  2  0  0  3  0  0  0  0  0  0
  161.9560  209.7170  148.6360 C   0  0  0  0  0  2  0  0  0  0  0  0
  161.5240  207.4970  149.7500 C   0  0  0  0  0  0  0  0  0  0  0  0
  161.6920  208.8880  149.8750 C   0  0  0  0  0  0  0  0  0  0  0  0
  161.1840  208.7450  152.2540 C   0  0  0  0  0  0  0  0  0  0  0  0
  161.1300  208.1430  156.6070 N   0  0  0  0  0  0  0  0  0  0  0  0
  161.9570  202.6480  148.2600 O   0  0  0  0  0  0  0  0  0  0  0  0
  161.2050  205.4460  148.3070 C   0  0  1  0  0  3  0  0  0  0  0  0
  161.1290  207.0120  155.7840 N   0  0  0  0  0  2  0  0  0  0  0  0
  161.1690  203.2310  149.2720 C   0  0  0  0  0  2  0  0  0  0  0  0
  160.5740  203.7860  146.6350 N   0  0  0  0  0  0  0  0  0  0  0  0
  161.7440  210.9950  151.3010 C   0  0  0  0  0  2  0  0  0  0  0  0
  161.5050  209.5140  151.1270 C   0  0  0  0  0  0  0  0  0  0  0  0
  160.9890  209.4010  153.5240 N   0  0  0  0  0  2  0  0  0  0  0  0
  160.9440  205.2300  150.7350 C   0  0  0  0  0  2  0  0  0  0  0  0
  160.9150  205.3070  153.4670 O   0  0  0  0  0  0  0  0  0  0  0  0
  160.5270  210.5090  156.5330 C   0  0  0  0  0  1  0  0  0  0  0  0
  161.0550  207.3340  152.1530 C   0  0  0  0  0  0  0  0  0  0  0  0
  160.2210  208.7540  154.5820 C   0  0  1  0  0  3  0  0  0  0  0  0
  160.5030  203.7550  145.1840 C   0  0  0  0  0  2  0  0  0  0  0  0
  160.6000  205.1390  144.6460 C   0  0  0  0  0  0  0  0  0  0  0  0
  161.5810  205.4530  143.6650 N   0  0  0  0  0  1  0  0  0  0  0  0
  159.8380  206.0400  145.0840 O   0  0  0  0  0  0  0  0  0  0  0  0
  1 16  1  1  0  0  0
  2 27  1  0  0  0  0
  3  4  1  0  0  0  0
  4 21  1  0  0  0  0
  5 25  2  0  0  0  0
  6  5  1  6  0  0  0
  6 18  1  0  0  0  0
  7 19  1  6  0  0  0
  7 24  1  0  0  0  0
  8 12  1  0  0  0  0
  9 26  1  0  0  0  0
  9 15  2  0  0  0  0
 10 20  1  6  0  0  0
 10  1  1  0  0  0  0
 10 17  1  0  0  0  0
 11  3  1  0  0  0  0
 11 13  1  0  0  0  0
 12 13  1  0  0  0  0
 12  2  2  0  0  0  0
 13 22  2  0  0  0  0
 14 23  1  0  0  0  0
 16 19  1  0  0  0  0
 17  8  1  1  0  0  0
 17  7  1  0  0  0  0
 18 15  1  0  0  0  0
 20  1  1  0  0  0  0
 22 21  1  0  0  0  0
 22 14  1  0  0  0  0
 24  2  1  0  0  0  0
 27 14  2  0  0  0  0
 27  5  1  0  0  0  0
 28 23  1  6  0  0  0
 28  6  1  0  0  0  0
 28  9  1  0  0  0  0
 29 20  1  0  0  0  0
 30 32  2  0  0  0  0
 30 29  1  0  0  0  0
 31 30  1  0  0  0  0
M  END
>  <MODEL>
4

>  <REMARK>
 VINA RESULT:      -7.9      2.475      7.962
  Name = 
  2 active torsions:
  status: ('A' for Active; 'I' for Inactive)
    1  A    between atoms: N_20  and  C_29
    2  A    between atoms: C_29  and  C_30
                            x       y       z     vdW  Elec       q    Type
                         _______ _______ _______ _____ _____    ______ ____

>  <TORSDO>
F 2

$$$$
=
 OpenBabel11122412533D

 32 38  0  0  1  0  0  0  0  0999 V2000
  162.2080  213.1230  148.7920 C   0  0  1  0  0  3  0  0  0  0  0  0
  161.4210  208.0490  149.6300 C   0  0  0  0  0  0  0  0  0  0  0  0
  161.5900  207.5880  154.5760 C   0  0  0  0  0  2  0  0  0  0  0  0
  160.7550  206.3290  154.4410 C   0  0  0  0  0  2  0  0  0  0  0  0
  161.4220  205.9230  148.2090 C   0  0  0  0  0  0  0  0  0  0  0  0
  161.2370  204.4730  148.2190 C   0  0  1  0  0  3  0  0  0  0  0  0
  162.0200  210.2830  148.6350 C   0  0  2  0  0  3  0  0  0  0  0  0
  161.6110  210.1520  151.0640 C   0  0  0  0  0  2  0  0  0  0  0  0
  161.1320  202.4410  149.1570 C   0  0  0  0  0  0  0  0  0  0  0  0
  161.6230  212.4040  149.9560 C   0  0  2  0  0  3  0  0  0  0  0  0
  161.2620  208.5320  153.4270 C   0  0  0  0  0  2  0  0  0  0  0  0
  161.4130  208.6570  150.9130 C   0  0  0  0  0  0  0  0  0  0  0  0
  161.3320  207.8630  152.0710 C   0  0  0  0  0  0  0  0  0  0  0  0
  161.1940  205.8570  150.6950 C   0  0  0  0  0  0  0  0  0  0  0  0
  161.8560  202.3790  148.0900 N   0  0  0  0  0  0  0  0  0  0  0  0
  162.5410  212.3710  147.6190 O   0  0  0  0  0  0  0  0  0  0  0  0
  161.2900  210.9200  149.7920 C   0  0  1  0  0  3  0  0  0  0  0  0
  161.9540  203.6540  147.5260 N   0  0  0  0  0  2  0  0  0  0  0  0
  161.8050  211.1830  147.4460 C   0  0  0  0  0  2  0  0  0  0  0  0
  160.7570  213.1780  149.0390 N   0  0  0  0  0  0  0  0  0  0  0  0
  161.1840  205.5800  153.1860 C   0  0  0  0  0  2  0  0  0  0  0  0
  161.2050  206.4610  151.9590 C   0  0  0  0  0  0  0  0  0  0  0  0
  161.0560  204.4240  150.5970 N   0  0  0  0  0  2  0  0  0  0  0  0
  161.4130  208.9140  148.3880 C   0  0  0  0  0  2  0  0  0  0  0  0
  161.7470  206.5060  147.1400 O   0  0  0  0  0  0  0  0  0  0  0  0
  160.8140  201.2500  149.9900 C   0  0  0  0  0  1  0  0  0  0  0  0
  161.3200  206.6410  149.5170 C   0  0  0  0  0  0  0  0  0  0  0  0
  160.5780  203.8070  149.3660 C   0  0  1  0  0  3  0  0  0  0  0  0
  160.4940  214.4500  149.6900 C   0  0  0  0  0  2  0  0  0  0  0  0
  159.2420  214.3560  150.4890 C   0  0  0  0  0  0  0  0  0  0  0  0
  157.9840  214.2660  149.8320 N   0  0  0  0  0  1  0  0  0  0  0  0
  159.2940  214.3900  151.7470 O   0  0  0  0  0  0  0  0  0  0  0  0
  1 16  1  6  0  0  0
  1 20  1  0  0  0  0
  1 10  1  0  0  0  0
  2 12  1  0  0  0  0
  4  3  1  0  0  0  0
  5  6  1  0  0  0  0
  5 27  1  0  0  0  0
  6 18  1  1  0  0  0
  6 28  1  0  0  0  0
  7 19  1  6  0  0  0
  7 17  1  0  0  0  0
  9 26  1  0  0  0  0
 10 20  1  6  0  0  0
 11  3  1  0  0  0  0
 12  8  1  0  0  0  0
 12 13  2  0  0  0  0
 13 11  1  0  0  0  0
 14 22  2  0  0  0  0
 15  9  2  0  0  0  0
 17 10  1  0  0  0  0
 17  8  1  1  0  0  0
 18 15  1  0  0  0  0
 19 16  1  0  0  0  0
 20 29  1  0  0  0  0
 21  4  1  0  0  0  0
 22 13  1  0  0  0  0
 22 21  1  0  0  0  0
 23 14  1  0  0  0  0
 24  7  1  0  0  0  0
 24  2  1  0  0  0  0
 25  5  2  0  0  0  0
 27  2  2  0  0  0  0
 27 14  1  0  0  0  0
 28  9  1  1  0  0  0
 28 23  1  0  0  0  0
 29 30  1  0  0  0  0
 30 32  2  0  0  0  0
 31 30  1  0  0  0  0
M  END
>  <MODEL>
5

>  <REMARK>
 VINA RESULT:      -7.4      3.597      5.804
  Name = 
  2 active torsions:
  status: ('A' for Active; 'I' for Inactive)
    1  A    between atoms: N_20  and  C_29
    2  A    between atoms: C_29  and  C_30
                            x       y       z     vdW  Elec       q    Type
                         _______ _______ _______ _____ _____    ______ ____

>  <TORSDO>
F 2

$$$$
=
 OpenBabel11122412533D

 32 38  0  0  1  0  0  0  0  0999 V2000
  160.2810  208.2290  156.1750 C   0  0  1  0  0  3  0  0  0  0  0  0
  161.3540  207.3360  151.1630 C   0  0  0  0  0  0  0  0  0  0  0  0
  161.6020  211.8700  149.1420 C   0  0  0  0  0  2  0  0  0  0  0  0
  162.4770  211.2850  148.0500 C   0  0  0  0  0  2  0  0  0  0  0  0
  161.3310  205.3080  149.6060 C   0  0  0  0  0  0  0  0  0  0  0  0
  161.5800  204.8390  148.2430 C   0  0  1  0  0  3  0  0  0  0  0  0
  160.5790  207.1540  153.5520 C   0  0  2  0  0  3  0  0  0  0  0  0
  161.1870  209.3800  152.6830 C   0  0  0  0  0  2  0  0  0  0  0  0
  161.8480  205.0640  146.0300 C   0  0  0  0  0  0  0  0  0  0  0  0
  160.9880  209.0600  155.1640 C   0  0  2  0  0  3  0  0  0  0  0  0
  161.7950  211.0690  150.4220 C   0  0  0  0  0  2  0  0  0  0  0  0
  161.4370  208.7440  151.3310 C   0  0  0  0  0  0  0  0  0  0  0  0
  161.6450  209.5770  150.2160 C   0  0  0  0  0  0  0  0  0  0  0  0
  161.7610  207.6210  148.7660 C   0  0  0  0  0  0  0  0  0  0  0  0
  161.0440  204.0810  146.2620 N   0  0  0  0  0  0  0  0  0  0  0  0
  159.8870  206.8990  155.8150 O   0  0  0  0  0  0  0  0  0  0  0  0
  161.3710  208.4060  153.8350 C   0  0  1  0  0  3  0  0  0  0  0  0
  160.8450  203.9650  147.6410 N   0  0  0  0  0  2  0  0  0  0  0  0
  160.6590  206.3060  154.7960 C   0  0  0  0  0  2  0  0  0  0  0  0
  161.7430  208.3900  156.2460 N   0  0  0  0  0  0  0  0  0  0  0  0
  161.9830  209.8850  147.7130 C   0  0  0  0  0  2  0  0  0  0  0  0
  161.8240  209.0110  148.9350 C   0  0  0  0  0  0  0  0  0  0  0  0
  161.9520  207.0590  147.4520 N   0  0  0  0  0  2  0  0  0  0  0  0
  161.2240  206.4410  152.3770 C   0  0  0  0  0  2  0  0  0  0  0  0
  160.8970  204.5070  150.4750 O   0  0  0  0  0  0  0  0  0  0  0  0
  162.2830  205.4480  144.6600 C   0  0  0  0  0  1  0  0  0  0  0  0
  161.5060  206.7700  149.8750 C   0  0  0  0  0  0  0  0  0  0  0  0
  162.3570  205.6670  147.2920 C   0  0  1  0  0  3  0  0  0  0  0  0
  162.0010  209.3980  157.2590 C   0  0  0  0  0  2  0  0  0  0  0  0
  162.4020  210.6740  156.6070 C   0  0  0  0  0  0  0  0  0  0  0  0
  161.5820  211.8290  156.7400 N   0  0  0  0  0  1  0  0  0  0  0  0
  163.4490  210.7240  155.9100 O   0  0  0  0  0  0  0  0  0  0  0  0
  1 16  1  6  0  0  0
  1 20  1  0  0  0  0
  2 12  1  0  0  0  0
  2 24  1  0  0  0  0
  3 11  1  0  0  0  0
  4  3  1  0  0  0  0
  5 27  1  0  0  0  0
  5 25  2  0  0  0  0
  6 18  1  6  0  0  0
  6  5  1  0  0  0  0
  7 24  1  6  0  0  0
  7 17  1  0  0  0  0
  7 19  1  0  0  0  0
  9 15  2  0  0  0  0
 10  1  1  0  0  0  0
 10 20  1  1  0  0  0
 12  8  1  0  0  0  0
 13 11  1  0  0  0  0
 13 12  2  0  0  0  0
 14 22  2  0  0  0  0
 14 27  1  0  0  0  0
 15 18  1  0  0  0  0
 17  8  1  6  0  0  0
 17 10  1  0  0  0  0
 19 16  1  0  0  0  0
 20 29  1  0  0  0  0
 21  4  1  0  0  0  0
 21 22  1  0  0  0  0
 22 13  1  0  0  0  0
 23 14  1  0  0  0  0
 26  9  1  0  0  0  0
 27  2  2  0  0  0  0
 28  9  1  6  0  0  0
 28 23  1  0  0  0  0
 28  6  1  0  0  0  0
 30 31  1  0  0  0  0
 30 29  1  0  0  0  0
 32 30  2  0  0  0  0
M  END
>  <MODEL>
6

>  <REMARK>
 VINA RESULT:      -7.2      1.647      2.172
  Name = 
  2 active torsions:
  status: ('A' for Active; 'I' for Inactive)
    1  A    between atoms: N_20  and  C_29
    2  A    between atoms: C_29  and  C_30
                            x       y       z     vdW  Elec       q    Type
                         _______ _______ _______ _____ _____    ______ ____

>  <TORSDO>
F 2

$$$$
