=
 OpenBabel11122413003D

 32 37  0  0  1  0  0  0  0  0999 V2000
  161.4570  209.1590  149.7230 C   0  0  0  0  0  0  0  0  0  0  0  0
  161.3610  209.7360  154.5650 C   0  0  0  0  0  3  0  0  0  0  0  0
  161.0750  208.2980  154.7350 C   0  0  0  0  0  3  0  0  0  0  0  0
  161.1700  206.8580  148.7450 C   0  0  0  0  0  0  0  0  0  0  0  0
  160.5970  205.4970  149.0170 C   0  0  1  0  0  3  0  0  0  0  0  0
  162.2050  211.1400  148.3230 C   0  0  2  0  0  3  0  0  0  0  0  0
  162.1530  211.3230  150.8230 C   0  0  0  0  0  2  0  0  0  0  0  0
  161.2840  203.6860  150.3610 N   0  0  0  0  0  0  0  0  0  0  0  0
  161.3090  210.3140  153.3620 C   0  0  0  0  0  3  0  0  0  0  0  0
  161.5260  210.0000  150.8970 N   0  0  0  0  0  0  0  0  0  0  0  0
  160.8610  209.5540  152.1310 C   0  0  1  0  0  3  0  0  0  0  0  0
  161.0740  207.2580  151.2380 C   0  0  0  0  0  0  0  0  0  0  0  0
  161.4060  203.1910  149.0560 N   0  0  0  0  0  2  0  0  0  0  0  0
  161.8280  212.0320  149.5100 C   0  0  2  0  0  3  0  0  0  0  0  0
  161.2070  204.3640  148.1800 C   0  0  0  0  0  2  0  0  0  0  0  0
  160.9120  207.5010  153.6770 C   0  0  0  0  0  3  0  0  0  0  0  0
  160.9870  208.0570  152.3110 C   0  0  0  0  0  0  0  0  0  0  0  0
  161.1220  205.8300  151.3920 N   0  0  0  0  0  0  0  0  0  0  0  0
  161.4680  209.8010  148.3570 C   0  0  0  0  0  2  0  0  0  0  0  0
  161.5340  207.1660  147.5770 O   0  0  0  0  0  0  0  0  0  0  0  0
  161.6940  202.9220  151.5260 C   0  0  0  0  0  1  0  0  0  0  0  0
  161.2290  207.8340  149.8710 C   0  0  0  0  0  0  0  0  0  0  0  0
  160.9190  205.0420  150.3790 C   0  0  0  0  0  0  0  0  0  0  0  0
  160.2340  213.9300  149.7360 C   0  0  0  0  0  2  0  0  0  0  0  0
  160.3620  212.4450  149.4590 C   0  0  1  0  0  3  0  0  0  0  0  0
  160.1560  213.4160  148.3130 C   0  0  1  0  0  3  0  0  0  0  0  0
  158.7660  213.3650  147.8910 N   0  0  0  0  0  2  0  0  0  0  0  0
  158.3770  212.7890  146.6430 C   0  0  0  0  0  0  0  0  0  0  0  0
  159.2380  212.2990  145.8660 O   0  0  0  0  0  0  0  0  0  0  0  0
  156.9410  212.7650  146.2610 C   0  0  0  0  0  1  0  0  0  0  0  0
  164.1240  212.1450  147.8680 C   0  0  0  0  0  1  0  0  0  0  0  0
  163.5860  210.9290  148.2930 O   0  0  0  0  0  0  0  0  0  0  0  0
  1 22  2  0  0  0  0
  1 10  1  0  0  0  0
  2  3  1  0  0  0  0
  4  5  1  0  0  0  0
  4 22  1  0  0  0  0
  5 15  1  6  0  0  0
  5 23  1  0  0  0  0
  6 32  1  1  0  0  0
  6 19  1  0  0  0  0
  6 14  1  0  0  0  0
  7 10  1  0  0  0  0
  8 23  1  0  0  0  0
  8 21  1  0  0  0  0
  9  2  2  0  0  0  0
 10 11  1  0  0  0  0
 11 17  1  0  0  0  0
 11  9  1  1  0  0  0
 12 18  1  0  0  0  0
 12 17  2  0  0  0  0
 13  8  1  0  0  0  0
 14  7  1  1  0  0  0
 15 13  1  0  0  0  0
 16  3  2  0  0  0  0
 17 16  1  0  0  0  0
 19  1  1  0  0  0  0
 20  4  2  0  0  0  0
 22 12  1  0  0  0  0
 23 18  2  0  0  0  0
 25 14  1  0  0  0  0
 25 24  1  1  0  0  0
 26 27  1  1  0  0  0
 26 25  1  0  0  0  0
 26 24  1  0  0  0  0
 28 27  1  0  0  0  0
 29 28  2  0  0  0  0
 30 28  1  0  0  0  0
 31 32  1  0  0  0  0
M  END
>  <MODEL>
1

>  <REMARK>
 VINA RESULT:      -5.1      0.000      0.000
  Name = 
  3 active torsions:
  status: ('A' for Active; 'I' for Inactive)
    1  A    between atoms: C_7  and  O_19
    2  A    between atoms: C_10  and  C_17
    3  A    between atoms: C_20  and  N_29
                            x       y       z     vdW  Elec       q    Type
                         _______ _______ _______ _____ _____    ______ ____

>  <TORSDO>
F 3

$$$$
=
 OpenBabel11122413003D

 32 37  0  0  1  0  0  0  0  0999 V2000
  159.4640  210.9100  153.7060 C   0  0  0  0  0  0  0  0  0  0  0  0
  159.0720  214.0200  149.9680 C   0  0  0  0  0  3  0  0  0  0  0  0
  157.7490  214.4510  150.4600 C   0  0  0  0  0  3  0  0  0  0  0  0
  157.6520  210.8370  155.4510 C   0  0  0  0  0  0  0  0  0  0  0  0
  156.1990  211.1320  155.6910 C   0  0  1  0  0  3  0  0  0  0  0  0
  161.6890  209.7290  154.0170 C   0  0  2  0  0  3  0  0  0  0  0  0
  161.3960  211.3720  152.1470 C   0  0  0  0  0  2  0  0  0  0  0  0
  154.9800  213.1210  156.0290 N   0  0  0  0  0  0  0  0  0  0  0  0
  159.6870  212.9510  150.4840 C   0  0  0  0  0  3  0  0  0  0  0  0
  159.9720  211.4810  152.4790 N   0  0  0  0  0  0  0  0  0  0  0  0
  159.0240  212.0740  151.5230 C   0  0  1  0  0  3  0  0  0  0  0  0
  157.5030  212.3740  153.4500 C   0  0  0  0  0  0  0  0  0  0  0  0
  154.8790  212.4610  157.2610 N   0  0  0  0  0  2  0  0  0  0  0  0
  161.9670  210.0110  152.5370 C   0  0  2  0  0  3  0  0  0  0  0  0
  155.8170  211.3240  157.1650 C   0  0  0  0  0  2  0  0  0  0  0  0
  157.2000  213.8850  151.5370 C   0  0  0  0  0  3  0  0  0  0  0  0
  157.9000  212.7920  152.2400 C   0  0  0  0  0  0  0  0  0  0  0  0
  156.3900  213.0010  154.1100 N   0  0  0  0  0  0  0  0  0  0  0  0
  160.1930  209.7460  154.3320 C   0  0  0  0  0  2  0  0  0  0  0  0
  158.3010  210.1490  156.2840 O   0  0  0  0  0  0  0  0  0  0  0  0
  154.4420  214.4530  155.8120 C   0  0  0  0  0  1  0  0  0  0  0  0
  158.2670  211.3230  154.1820 C   0  0  0  0  0  0  0  0  0  0  0  0
  155.8170  212.4390  155.1310 C   0  0  0  0  0  0  0  0  0  0  0  0
  162.1980  208.8520  150.3470 C   0  0  0  0  0  2  0  0  0  0  0  0
  161.4130  208.9080  151.6420 C   0  0  1  0  0  3  0  0  0  0  0  0
  162.4760  207.8460  151.4430 C   0  0  1  0  0  3  0  0  0  0  0  0
  161.8320  206.5830  151.1180 N   0  0  0  0  0  2  0  0  0  0  0  0
  161.4710  205.6390  152.1270 C   0  0  0  0  0  0  0  0  0  0  0  0
  161.7010  205.8770  153.3420 O   0  0  0  0  0  0  0  0  0  0  0  0
  160.8170  204.3630  151.7380 C   0  0  0  0  0  1  0  0  0  0  0  0
  162.0880  210.2520  156.1300 C   0  0  0  0  0  1  0  0  0  0  0  0
  162.3620  210.6520  154.8220 O   0  0  0  0  0  0  0  0  0  0  0  0
  1 22  2  0  0  0  0
  1 19  1  0  0  0  0
  2  3  1  0  0  0  0
  2  9  2  0  0  0  0
  3 16  2  0  0  0  0
  4  5  1  0  0  0  0
  4 20  2  0  0  0  0
  5 15  1  1  0  0  0
  6 19  1  0  0  0  0
  6 32  1  1  0  0  0
  7 10  1  0  0  0  0
  8 13  1  0  0  0  0
 10  1  1  0  0  0  0
 11  9  1  6  0  0  0
 11 17  1  0  0  0  0
 11 10  1  0  0  0  0
 12 18  1  0  0  0  0
 12 22  1  0  0  0  0
 14  7  1  6  0  0  0
 14  6  1  0  0  0  0
 15 13  1  0  0  0  0
 16 17  1  0  0  0  0
 17 12  2  0  0  0  0
 18 23  2  0  0  0  0
 21  8  1  0  0  0  0
 22  4  1  0  0  0  0
 23  5  1  0  0  0  0
 23  8  1  0  0  0  0
 24 26  1  0  0  0  0
 25 24  1  6  0  0  0
 25 14  1  0  0  0  0
 26 27  1  6  0  0  0
 26 25  1  0  0  0  0
 27 28  1  0  0  0  0
 28 29  2  0  0  0  0
 30 28  1  0  0  0  0
 32 31  1  0  0  0  0
M  END
>  <MODEL>
2

>  <REMARK>
 VINA RESULT:      -4.7      4.616      8.272
  Name = 
  3 active torsions:
  status: ('A' for Active; 'I' for Inactive)
    1  A    between atoms: C_7  and  O_19
    2  A    between atoms: C_10  and  C_17
    3  A    between atoms: C_20  and  N_29
                            x       y       z     vdW  Elec       q    Type
                         _______ _______ _______ _____ _____    ______ ____

>  <TORSDO>
F 3

$$$$
=
 OpenBabel11122413003D

 32 37  0  0  1  0  0  0  0  0999 V2000
  160.0410  209.9510  153.6480 C   0  0  0  0  0  0  0  0  0  0  0  0
  160.7870  212.9020  149.8370 C   0  0  0  0  0  3  0  0  0  0  0  0
  161.4700  211.8090  149.1190 C   0  0  0  0  0  3  0  0  0  0  0  0
  160.7650  207.5440  153.5100 C   0  0  0  0  0  0  0  0  0  0  0  0
  161.7170  206.6110  152.8190 C   0  0  1  0  0  3  0  0  0  0  0  0
  158.5680  210.8150  155.5270 C   0  0  2  0  0  3  0  0  0  0  0  0
  158.9850  212.2410  153.5080 C   0  0  0  0  0  2  0  0  0  0  0  0
  161.7740  205.6480  150.6680 N   0  0  0  0  0  0  0  0  0  0  0  0
  160.4810  212.7930  151.1330 C   0  0  0  0  0  3  0  0  0  0  0  0
  159.9470  211.2480  153.0180 N   0  0  0  0  0  0  0  0  0  0  0  0
  160.9030  211.5930  151.9540 C   0  0  1  0  0  3  0  0  0  0  0  0
  161.1650  209.1590  151.6070 C   0  0  0  0  0  0  0  0  0  0  0  0
  161.5720  204.5500  151.5150 N   0  0  0  0  0  2  0  0  0  0  0  0
  158.8860  212.2290  155.0310 C   0  0  2  0  0  3  0  0  0  0  0  0
  161.3010  205.1340  152.8440 C   0  0  0  0  0  2  0  0  0  0  0  0
  161.6610  210.6220  149.6980 C   0  0  0  0  0  3  0  0  0  0  0  0
  161.2130  210.3930  151.0860 C   0  0  0  0  0  0  0  0  0  0  0  0
  161.5270  208.0160  150.8150 N   0  0  0  0  0  0  0  0  0  0  0  0
  159.6310  209.8040  155.0940 C   0  0  0  0  0  2  0  0  0  0  0  0
  160.1420  207.1620  154.5380 O   0  0  0  0  0  0  0  0  0  0  0  0
  161.7830  205.5270  149.2210 C   0  0  0  0  0  1  0  0  0  0  0  0
  160.6360  208.9340  152.9840 C   0  0  0  0  0  0  0  0  0  0  0  0
  161.7610  206.8650  151.3700 C   0  0  0  0  0  0  0  0  0  0  0  0
  159.8330  213.4180  157.0010 C   0  0  0  0  0  2  0  0  0  0  0  0
  160.1580  212.7740  155.6680 C   0  0  1  0  0  3  0  0  0  0  0  0
  160.4310  212.0280  156.9590 C   0  0  1  0  0  3  0  0  0  0  0  0
  161.8510  212.1000  157.2600 N   0  0  0  0  0  2  0  0  0  0  0  0
  162.7480  211.0390  156.9280 C   0  0  0  0  0  0  0  0  0  0  0  0
  162.3290  210.0000  156.3540 O   0  0  0  0  0  0  0  0  0  0  0  0
  164.1900  211.1660  157.2610 C   0  0  0  0  0  1  0  0  0  0  0  0
  156.4060  211.2280  155.7580 C   0  0  0  0  0  1  0  0  0  0  0  0
  157.3090  210.4130  155.0740 O   0  0  0  0  0  0  0  0  0  0  0  0
  1 19  1  0  0  0  0
  2  9  2  0  0  0  0
  3 16  2  0  0  0  0
  3  2  1  0  0  0  0
  4 20  2  0  0  0  0
  5 15  1  6  0  0  0
  5  4  1  0  0  0  0
  6 32  1  6  0  0  0
  8 23  1  0  0  0  0
  8 13  1  0  0  0  0
 10  7  1  0  0  0  0
 10  1  1  0  0  0  0
 11  9  1  6  0  0  0
 11 10  1  0  0  0  0
 12 22  1  0  0  0  0
 13 15  1  0  0  0  0
 14  7  1  6  0  0  0
 14  6  1  0  0  0  0
 14 25  1  0  0  0  0
 16 17  1  0  0  0  0
 17 12  2  0  0  0  0
 17 11  1  0  0  0  0
 18 23  2  0  0  0  0
 18 12  1  0  0  0  0
 19  6  1  0  0  0  0
 21  8  1  0  0  0  0
 22  4  1  0  0  0  0
 22  1  2  0  0  0  0
 23  5  1  0  0  0  0
 25 26  1  0  0  0  0
 25 24  1  1  0  0  0
 26 24  1  0  0  0  0
 26 27  1  1  0  0  0
 28 27  1  0  0  0  0
 28 30  1  0  0  0  0
 29 28  2  0  0  0  0
 32 31  1  0  0  0  0
M  END
>  <MODEL>
3

>  <REMARK>
 VINA RESULT:      -4.4      3.632      6.593
  Name = 
  3 active torsions:
  status: ('A' for Active; 'I' for Inactive)
    1  A    between atoms: C_7  and  O_19
    2  A    between atoms: C_10  and  C_17
    3  A    between atoms: C_20  and  N_29
                            x       y       z     vdW  Elec       q    Type
                         _______ _______ _______ _____ _____    ______ ____

>  <TORSDO>
F 3

$$$$
=
 OpenBabel11122413003D

 32 37  0  0  1  0  0  0  0  0999 V2000
  161.4460  208.7560  149.6300 C   0  0  0  0  0  0  0  0  0  0  0  0
  161.3730  207.5880  154.3650 C   0  0  0  0  0  3  0  0  0  0  0  0
  161.1330  206.1740  154.0170 C   0  0  0  0  0  3  0  0  0  0  0  0
  161.2210  206.9380  147.9030 C   0  0  0  0  0  0  0  0  0  0  0  0
  160.6920  205.5510  147.6780 C   0  0  1  0  0  3  0  0  0  0  0  0
  162.1210  211.1250  149.0190 C   0  0  2  0  0  3  0  0  0  0  0  0
  162.0850  210.4150  151.4230 C   0  0  0  0  0  2  0  0  0  0  0  0
  161.4450  203.4050  148.3000 N   0  0  0  0  0  0  0  0  0  0  0  0
  161.2930  208.5510  153.4420 C   0  0  0  0  0  3  0  0  0  0  0  0
  161.4990  209.1310  151.0250 N   0  0  0  0  0  0  0  0  0  0  0  0
  160.8590  208.2590  152.0220 C   0  0  1  0  0  3  0  0  0  0  0  0
  161.1340  206.4320  150.3780 C   0  0  0  0  0  0  0  0  0  0  0  0
  161.5720  203.4050  146.9050 N   0  0  0  0  0  2  0  0  0  0  0  0
  161.7270  211.5300  150.4430 C   0  0  2  0  0  3  0  0  0  0  0  0
  161.3300  204.8040  146.4980 C   0  0  0  0  0  2  0  0  0  0  0  0
  160.9860  205.7960  152.7450 C   0  0  0  0  0  3  0  0  0  0  0  0
  161.0320  206.7990  151.6630 C   0  0  0  0  0  0  0  0  0  0  0  0
  161.2270  205.0430  150.0200 N   0  0  0  0  0  0  0  0  0  0  0  0
  161.4250  209.8370  148.5770 C   0  0  0  0  0  2  0  0  0  0  0  0
  161.5650  207.6490  146.9200 O   0  0  0  0  0  0  0  0  0  0  0  0
  161.8890  202.2940  149.1230 C   0  0  0  0  0  1  0  0  0  0  0  0
  161.2600  207.4570  149.3010 C   0  0  0  0  0  0  0  0  0  0  0  0
  161.0400  204.6560  148.7940 C   0  0  0  0  0  0  0  0  0  0  0  0
  160.0450  212.9740  151.5730 C   0  0  0  0  0  2  0  0  0  0  0  0
  160.2490  211.8880  150.5360 C   0  0  1  0  0  3  0  0  0  0  0  0
  160.0540  213.3270  150.1000 C   0  0  1  0  0  3  0  0  0  0  0  0
  158.6880  213.5030  149.6340 N   0  0  0  0  0  2  0  0  0  0  0  0
  158.3400  213.3810  148.2550 C   0  0  0  0  0  0  0  0  0  0  0  0
  159.2170  213.1110  147.3920 O   0  0  0  0  0  0  0  0  0  0  0  0
  156.9280  213.5720  147.8340 C   0  0  0  0  0  1  0  0  0  0  0  0
  163.8950  211.9120  147.9550 C   0  0  0  0  0  1  0  0  0  0  0  0
  163.5080  210.9820  148.9210 O   0  0  0  0  0  0  0  0  0  0  0  0
  1 10  1  0  0  0  0
  3  2  1  0  0  0  0
  4 22  1  0  0  0  0
  5 15  1  6  0  0  0
  5  4  1  0  0  0  0
  5 23  1  0  0  0  0
  6 32  1  1  0  0  0
  6 14  1  0  0  0  0
  8 23  1  0  0  0  0
  8 21  1  0  0  0  0
  9  2  2  0  0  0  0
 10  7  1  0  0  0  0
 10 11  1  0  0  0  0
 11  9  1  1  0  0  0
 12 17  2  0  0  0  0
 13  8  1  0  0  0  0
 14 25  1  0  0  0  0
 14  7  1  1  0  0  0
 15 13  1  0  0  0  0
 16  3  2  0  0  0  0
 17 11  1  0  0  0  0
 17 16  1  0  0  0  0
 18 12  1  0  0  0  0
 19  6  1  0  0  0  0
 19  1  1  0  0  0  0
 20  4  2  0  0  0  0
 22  1  2  0  0  0  0
 22 12  1  0  0  0  0
 23 18  2  0  0  0  0
 25 24  1  1  0  0  0
 26 27  1  6  0  0  0
 26 25  1  0  0  0  0
 26 24  1  0  0  0  0
 28 27  1  0  0  0  0
 29 28  2  0  0  0  0
 30 28  1  0  0  0  0
 31 32  1  0  0  0  0
M  END
>  <MODEL>
4

>  <REMARK>
 VINA RESULT:      -3.8      1.272      1.524
  Name = 
  3 active torsions:
  status: ('A' for Active; 'I' for Inactive)
    1  A    between atoms: C_7  and  O_19
    2  A    between atoms: C_10  and  C_17
    3  A    between atoms: C_20  and  N_29
                            x       y       z     vdW  Elec       q    Type
                         _______ _______ _______ _____ _____    ______ ____

>  <TORSDO>
F 3

$$$$
=
 OpenBabel11122413003D

 32 37  0  0  1  0  0  0  0  0999 V2000
  160.1200  211.5620  152.1870 C   0  0  0  0  0  0  0  0  0  0  0  0
  155.9020  213.6230  153.5110 C   0  0  0  0  0  3  0  0  0  0  0  0
  155.9200  214.4530  152.2900 C   0  0  0  0  0  3  0  0  0  0  0  0
  161.1650  212.1870  149.9840 C   0  0  0  0  0  0  0  0  0  0  0  0
  161.2280  213.2700  148.9450 C   0  0  1  0  0  3  0  0  0  0  0  0
  160.9500  209.6020  153.5700 C   0  0  2  0  0  3  0  0  0  0  0  0
  158.7760  210.7090  154.1470 C   0  0  0  0  0  2  0  0  0  0  0  0
  159.7580  213.9740  147.2420 N   0  0  0  0  0  0  0  0  0  0  0  0
  156.9720  212.9110  153.8790 C   0  0  0  0  0  3  0  0  0  0  0  0
  159.0390  211.7330  153.1310 N   0  0  0  0  0  0  0  0  0  0  0  0
  158.2820  212.9940  153.1260 C   0  0  1  0  0  3  0  0  0  0  0  0
  159.0130  213.2480  150.7770 C   0  0  0  0  0  0  0  0  0  0  0  0
  160.8560  213.4630  146.5380 N   0  0  0  0  0  2  0  0  0  0  0  0
  160.0690  210.1230  154.7100 C   0  0  2  0  0  3  0  0  0  0  0  0
  161.6950  212.8040  147.5590 C   0  0  0  0  0  2  0  0  0  0  0  0
  156.9440  214.3950  151.4360 C   0  0  0  0  0  3  0  0  0  0  0  0
  158.0950  213.5150  151.7170 C   0  0  0  0  0  0  0  0  0  0  0  0
  158.8850  213.7960  149.4550 N   0  0  0  0  0  0  0  0  0  0  0  0
  161.3010  210.7030  152.5690 C   0  0  0  0  0  2  0  0  0  0  0  0
  162.0100  211.2510  149.9700 O   0  0  0  0  0  0  0  0  0  0  0  0
  158.5550  214.4430  146.5780 C   0  0  0  0  0  1  0  0  0  0  0  0
  160.1270  212.2950  151.0500 C   0  0  0  0  0  0  0  0  0  0  0  0
  159.8880  213.7880  148.6290 C   0  0  0  0  0  0  0  0  0  0  0  0
  160.1320  211.2680  156.9190 C   0  0  0  0  0  2  0  0  0  0  0  0
  160.8060  211.1450  155.5670 C   0  0  1  0  0  3  0  0  0  0  0  0
  161.3990  210.4500  156.7760 C   0  0  1  0  0  3  0  0  0  0  0  0
  162.5320  211.2210  157.2610 N   0  0  0  0  0  2  0  0  0  0  0  0
  163.7530  211.3100  156.5260 C   0  0  0  0  0  0  0  0  0  0  0  0
  163.8840  210.7190  155.4220 O   0  0  0  0  0  0  0  0  0  0  0  0
  164.8810  212.1110  157.0700 C   0  0  0  0  0  1  0  0  0  0  0  0
  161.1180  208.2830  151.8010 C   0  0  0  0  0  1  0  0  0  0  0  0
  160.3200  208.5390  152.9170 O   0  0  0  0  0  0  0  0  0  0  0  0
  1 19  1  0  0  0  0
  1 10  1  0  0  0  0
  2  9  2  0  0  0  0
  3  2  1  0  0  0  0
  4 22  1  0  0  0  0
  5 15  1  6  0  0  0
  5  4  1  0  0  0  0
  6 32  1  6  0  0  0
  6 14  1  0  0  0  0
  8 23  1  0  0  0  0
 10  7  1  0  0  0  0
 11 10  1  0  0  0  0
 11  9  1  6  0  0  0
 12 22  1  0  0  0  0
 12 17  2  0  0  0  0
 13  8  1  0  0  0  0
 13 15  1  0  0  0  0
 14  7  1  6  0  0  0
 14 25  1  0  0  0  0
 16 17  1  0  0  0  0
 16  3  2  0  0  0  0
 17 11  1  0  0  0  0
 18 12  1  0  0  0  0
 19  6  1  0  0  0  0
 20  4  2  0  0  0  0
 21  8  1  0  0  0  0
 22  1  2  0  0  0  0
 23  5  1  0  0  0  0
 23 18  2  0  0  0  0
 25 26  1  0  0  0  0
 25 24  1  1  0  0  0
 26 24  1  0  0  0  0
 26 27  1  1  0  0  0
 28 30  1  0  0  0  0
 28 27  1  0  0  0  0
 29 28  2  0  0  0  0
 31 32  1  0  0  0  0
M  END
>  <MODEL>
5

>  <REMARK>
 VINA RESULT:      -3.8      3.691      7.884
  Name = 
  3 active torsions:
  status: ('A' for Active; 'I' for Inactive)
    1  A    between atoms: C_7  and  O_19
    2  A    between atoms: C_10  and  C_17
    3  A    between atoms: C_20  and  N_29
                            x       y       z     vdW  Elec       q    Type
                         _______ _______ _______ _____ _____    ______ ____

>  <TORSDO>
F 3

$$$$
=
 OpenBabel11122413003D

 32 37  0  0  1  0  0  0  0  0999 V2000
  161.3170  211.3200  149.9300 C   0  0  0  0  0  0  0  0  0  0  0  0
  158.7940  214.2420  152.9100 C   0  0  0  0  0  3  0  0  0  0  0  0
  158.5730  213.1150  153.8360 C   0  0  0  0  0  3  0  0  0  0  0  0
  161.7280  208.9280  150.5980 C   0  0  0  0  0  0  0  0  0  0  0  0
  161.2020  207.8080  151.4490 C   0  0  1  0  0  3  0  0  0  0  0  0
  162.5050  212.3980  147.9630 C   0  0  2  0  0  3  0  0  0  0  0  0
  161.2100  213.8170  149.5730 C   0  0  0  0  0  2  0  0  0  0  0  0
  161.2710  207.3560  153.7620 N   0  0  0  0  0  0  0  0  0  0  0  0
  159.3000  214.0460  151.6890 C   0  0  0  0  0  3  0  0  0  0  0  0
  160.7310  212.6040  150.2420 N   0  0  0  0  0  0  0  0  0  0  0  0
  159.5790  212.6570  151.1560 C   0  0  1  0  0  3  0  0  0  0  0  0
  160.3820  210.4960  152.0520 C   0  0  0  0  0  0  0  0  0  0  0  0
  162.0600  206.3410  153.2050 N   0  0  0  0  0  2  0  0  0  0  0  0
  161.5230  213.5660  148.1000 C   0  0  2  0  0  3  0  0  0  0  0  0
  162.2310  206.7210  151.7880 C   0  0  0  0  0  2  0  0  0  0  0  0
  159.0170  211.8900  153.5440 C   0  0  0  0  0  3  0  0  0  0  0  0
  159.7140  211.6390  152.2680 C   0  0  0  0  0  0  0  0  0  0  0  0
  160.4560  209.4900  153.0750 N   0  0  0  0  0  0  0  0  0  0  0  0
  161.9520  211.1110  148.5770 C   0  0  0  0  0  2  0  0  0  0  0  0
  162.5970  208.6940  149.7150 O   0  0  0  0  0  0  0  0  0  0  0  0
  161.1080  207.5200  155.1950 C   0  0  0  0  0  1  0  0  0  0  0  0
  161.1480  210.2890  150.7890 C   0  0  0  0  0  0  0  0  0  0  0  0
  160.8420  208.2810  152.7950 C   0  0  0  0  0  0  0  0  0  0  0  0
  159.2660  214.4530  147.5410 C   0  0  0  0  0  2  0  0  0  0  0  0
  160.2470  213.3230  147.3020 C   0  0  1  0  0  3  0  0  0  0  0  0
  160.0870  214.4210  146.2690 C   0  0  1  0  0  3  0  0  0  0  0  0
  159.2670  213.9290  145.1740 N   0  0  0  0  0  2  0  0  0  0  0  0
  159.8420  213.4400  143.9620 C   0  0  0  0  0  0  0  0  0  0  0  0
  161.0920  213.4170  143.8070 O   0  0  0  0  0  0  0  0  0  0  0  0
  158.9570  212.9500  142.8740 C   0  0  0  0  0  1  0  0  0  0  0  0
  164.0520  213.9790  148.0310 C   0  0  0  0  0  1  0  0  0  0  0  0
  163.7310  212.7230  148.5480 O   0  0  0  0  0  0  0  0  0  0  0  0
  1 10  1  0  0  0  0
  1 22  2  0  0  0  0
  2  3  1  0  0  0  0
  4 22  1  0  0  0  0
  4  5  1  0  0  0  0
  5 15  1  1  0  0  0
  5 23  1  0  0  0  0
  6 14  1  0  0  0  0
  6 32  1  1  0  0  0
  6 19  1  0  0  0  0
  7 10  1  0  0  0  0
  8 21  1  0  0  0  0
  9  2  2  0  0  0  0
 10 11  1  0  0  0  0
 11  9  1  1  0  0  0
 11 17  1  0  0  0  0
 12 17  2  0  0  0  0
 12 18  1  0  0  0  0
 13  8  1  0  0  0  0
 14  7  1  1  0  0  0
 15 13  1  0  0  0  0
 16  3  2  0  0  0  0
 17 16  1  0  0  0  0
 19  1  1  0  0  0  0
 20  4  2  0  0  0  0
 22 12  1  0  0  0  0
 23 18  2  0  0  0  0
 23  8  1  0  0  0  0
 25 24  1  1  0  0  0
 25 14  1  0  0  0  0
 26 27  1  6  0  0  0
 26 25  1  0  0  0  0
 26 24  1  0  0  0  0
 28 27  1  0  0  0  0
 29 28  2  0  0  0  0
 30 28  1  0  0  0  0
 31 32  1  0  0  0  0
M  END
>  <MODEL>
6

>  <REMARK>
 VINA RESULT:      -3.1      2.394      3.586
  Name = 
  3 active torsions:
  status: ('A' for Active; 'I' for Inactive)
    1  A    between atoms: C_7  and  O_19
    2  A    between atoms: C_10  and  C_17
    3  A    between atoms: C_20  and  N_29
                            x       y       z     vdW  Elec       q    Type
                         _______ _______ _______ _____ _____    ______ ____

>  <TORSDO>
F 3

$$$$
=
 OpenBabel11122413003D

 32 37  0  0  1  0  0  0  0  0999 V2000
  161.0910  208.8230  151.1400 C   0  0  0  0  0  0  0  0  0  0  0  0
  161.3000  208.4290  155.9970 C   0  0  0  0  0  3  0  0  0  0  0  0
  161.1430  206.9650  155.8900 C   0  0  0  0  0  3  0  0  0  0  0  0
  160.9180  206.7410  149.7360 C   0  0  0  0  0  0  0  0  0  0  0  0
  160.4780  205.3050  149.7600 C   0  0  1  0  0  3  0  0  0  0  0  0
  161.5750  211.1000  150.1280 C   0  0  2  0  0  3  0  0  0  0  0  0
  161.6900  210.7840  152.6130 C   0  0  0  0  0  2  0  0  0  0  0  0
  161.4020  203.3380  150.6720 N   0  0  0  0  0  0  0  0  0  0  0  0
  161.1140  209.2240  154.9390 C   0  0  0  0  0  3  0  0  0  0  0  0
  161.1770  209.4200  152.4530 N   0  0  0  0  0  0  0  0  0  0  0  0
  160.6420  208.6820  153.6080 C   0  0  1  0  0  3  0  0  0  0  0  0
  160.9720  206.6340  152.2600 C   0  0  0  0  0  0  0  0  0  0  0  0
  161.4690  203.1220  149.2890 N   0  0  0  0  0  2  0  0  0  0  0  0
  161.2150  211.7030  151.4900 C   0  0  2  0  0  3  0  0  0  0  0  0
  161.1140  204.4200  148.6800 C   0  0  0  0  0  2  0  0  0  0  0  0
  160.9680  206.3790  154.7030 C   0  0  0  0  0  3  0  0  0  0  0  0
  160.9000  207.1960  153.4750 C   0  0  0  0  0  0  0  0  0  0  0  0
  161.1440  205.2150  152.1210 N   0  0  0  0  0  0  0  0  0  0  0  0
  160.9510  209.7170  149.9330 C   0  0  0  0  0  2  0  0  0  0  0  0
  161.1710  207.3040  148.6360 O   0  0  0  0  0  0  0  0  0  0  0  0
  161.9560  202.4030  151.6350 C   0  0  0  0  0  1  0  0  0  0  0  0
  160.9810  207.4790  151.0300 C   0  0  0  0  0  0  0  0  0  0  0  0
  160.9330  204.6250  150.9830 C   0  0  0  0  0  0  0  0  0  0  0  0
  159.4660  213.0000  152.6950 C   0  0  0  0  0  2  0  0  0  0  0  0
  159.7200  211.9800  151.6030 C   0  0  1  0  0  3  0  0  0  0  0  0
  159.4510  213.4280  151.2430 C   0  0  1  0  0  3  0  0  0  0  0  0
  158.0770  213.5580  150.7890 N   0  0  0  0  0  2  0  0  0  0  0  0
  157.7480  213.6800  149.4040 C   0  0  0  0  0  0  0  0  0  0  0  0
  158.6510  213.6760  148.5260 O   0  0  0  0  0  0  0  0  0  0  0  0
  156.3250  213.8120  148.9960 C   0  0  0  0  0  1  0  0  0  0  0  0
  163.2050  211.4540  148.6750 C   0  0  0  0  0  1  0  0  0  0  0  0
  162.9630  211.0280  149.9810 O   0  0  0  0  0  0  0  0  0  0  0  0
  1 10  1  0  0  0  0
  3  2  1  0  0  0  0
  4  5  1  0  0  0  0
  4 22  1  0  0  0  0
  5 15  1  6  0  0  0
  5 23  1  0  0  0  0
  6 32  1  1  0  0  0
  6 14  1  0  0  0  0
  8 23  1  0  0  0  0
  8 21  1  0  0  0  0
  9  2  2  0  0  0  0
 10  7  1  0  0  0  0
 10 11  1  0  0  0  0
 11  9  1  1  0  0  0
 12 17  2  0  0  0  0
 13  8  1  0  0  0  0
 14 25  1  0  0  0  0
 14  7  1  1  0  0  0
 15 13  1  0  0  0  0
 16  3  2  0  0  0  0
 17 11  1  0  0  0  0
 17 16  1  0  0  0  0
 18 12  1  0  0  0  0
 19  6  1  0  0  0  0
 19  1  1  0  0  0  0
 20  4  2  0  0  0  0
 22  1  2  0  0  0  0
 22 12  1  0  0  0  0
 23 18  2  0  0  0  0
 25 24  1  1  0  0  0
 26 27  1  6  0  0  0
 26 25  1  0  0  0  0
 26 24  1  0  0  0  0
 28 27  1  0  0  0  0
 29 28  2  0  0  0  0
 30 28  1  0  0  0  0
 31 32  1  0  0  0  0
M  END
>  <MODEL>
7

>  <REMARK>
 VINA RESULT:      -3.1      1.590      1.868
  Name = 
  3 active torsions:
  status: ('A' for Active; 'I' for Inactive)
    1  A    between atoms: C_7  and  O_19
    2  A    between atoms: C_10  and  C_17
    3  A    between atoms: C_20  and  N_29
                            x       y       z     vdW  Elec       q    Type
                         _______ _______ _______ _____ _____    ______ ____

>  <TORSDO>
F 3

$$$$
=
 OpenBabel11122413003D

 32 37  0  0  1  0  0  0  0  0999 V2000
  161.3940  208.5520  149.6330 C   0  0  0  0  0  0  0  0  0  0  0  0
  161.4810  206.8760  154.2130 C   0  0  0  0  0  3  0  0  0  0  0  0
  161.2630  205.5030  153.7190 C   0  0  0  0  0  3  0  0  0  0  0  0
  161.1600  206.9270  147.7250 C   0  0  0  0  0  0  0  0  0  0  0  0
  160.6560  205.5590  147.3630 C   0  0  1  0  0  3  0  0  0  0  0  0
  161.9980  210.9900  149.2670 C   0  0  2  0  0  3  0  0  0  0  0  0
  162.0460  210.0230  151.5790 C   0  0  0  0  0  2  0  0  0  0  0  0
  161.4740  203.3790  147.7280 N   0  0  0  0  0  0  0  0  0  0  0  0
  161.3540  207.9310  153.4020 C   0  0  0  0  0  3  0  0  0  0  0  0
  161.4780  208.7750  151.0590 N   0  0  0  0  0  0  0  0  0  0  0  0
  160.8860  207.7840  151.9710 C   0  0  1  0  0  3  0  0  0  0  0  0
  161.1550  206.1540  150.1310 C   0  0  0  0  0  0  0  0  0  0  0  0
  161.5600  203.5330  146.3380 N   0  0  0  0  0  2  0  0  0  0  0  0
  161.6360  211.2280  150.7360 C   0  0  2  0  0  3  0  0  0  0  0  0
  161.2760  204.9620  146.0930 C   0  0  0  0  0  2  0  0  0  0  0  0
  161.0880  205.2610  152.4180 C   0  0  0  0  0  3  0  0  0  0  0  0
  161.0810  206.3760  151.4510 C   0  0  0  0  0  0  0  0  0  0  0  0
  161.2680  204.8150  149.6210 N   0  0  0  0  0  0  0  0  0  0  0  0
  161.3190  209.7400  148.7060 C   0  0  0  0  0  2  0  0  0  0  0  0
  161.4600  207.7490  146.8170 O   0  0  0  0  0  0  0  0  0  0  0  0
  161.9650  202.1970  148.4130 C   0  0  0  0  0  1  0  0  0  0  0  0
  161.2270  207.2920  149.1700 C   0  0  0  0  0  0  0  0  0  0  0  0
  161.0550  204.5580  148.3660 C   0  0  0  0  0  0  0  0  0  0  0  0
  159.8880  212.0380  152.3110 C   0  0  0  0  0  2  0  0  0  0  0  0
  160.1530  211.5360  150.9060 C   0  0  1  0  0  3  0  0  0  0  0  0
  159.9770  213.0200  151.1620 C   0  0  1  0  0  3  0  0  0  0  0  0
  158.6380  213.4170  150.7570 N   0  0  0  0  0  2  0  0  0  0  0  0
  157.7410  214.0700  151.6560 C   0  0  0  0  0  0  0  0  0  0  0  0
  158.0900  214.3270  152.8390 O   0  0  0  0  0  0  0  0  0  0  0  0
  156.3830  214.4530  151.1900 C   0  0  0  0  0  1  0  0  0  0  0  0
  163.7250  211.9400  148.2610 C   0  0  0  0  0  1  0  0  0  0  0  0
  163.3840  210.8930  149.1180 O   0  0  0  0  0  0  0  0  0  0  0  0
  1 10  1  0  0  0  0
  3  2  1  0  0  0  0
  4 22  1  0  0  0  0
  5 15  1  6  0  0  0
  5  4  1  0  0  0  0
  5 23  1  0  0  0  0
  6 32  1  1  0  0  0
  6 14  1  0  0  0  0
  8 23  1  0  0  0  0
  8 21  1  0  0  0  0
  9  2  2  0  0  0  0
 10  7  1  0  0  0  0
 10 11  1  0  0  0  0
 11  9  1  1  0  0  0
 12 17  2  0  0  0  0
 13  8  1  0  0  0  0
 14 25  1  0  0  0  0
 14  7  1  1  0  0  0
 15 13  1  0  0  0  0
 16  3  2  0  0  0  0
 17 11  1  0  0  0  0
 17 16  1  0  0  0  0
 18 12  1  0  0  0  0
 19  6  1  0  0  0  0
 19  1  1  0  0  0  0
 20  4  2  0  0  0  0
 22  1  2  0  0  0  0
 22 12  1  0  0  0  0
 23 18  2  0  0  0  0
 25 26  1  0  0  0  0
 25 24  1  1  0  0  0
 26 27  1  6  0  0  0
 26 24  1  0  0  0  0
 27 28  1  0  0  0  0
 28 29  2  0  0  0  0
 30 28  1  0  0  0  0
 31 32  1  0  0  0  0
M  END
>  <MODEL>
8

>  <REMARK>
 VINA RESULT:      -2.9      2.136      2.677
  Name = 
  3 active torsions:
  status: ('A' for Active; 'I' for Inactive)
    1  A    between atoms: C_7  and  O_19
    2  A    between atoms: C_10  and  C_17
    3  A    between atoms: C_20  and  N_29
                            x       y       z     vdW  Elec       q    Type
                         _______ _______ _______ _____ _____    ______ ____

>  <TORSDO>
F 3

$$$$
=
 OpenBabel11122413003D

 32 37  0  0  1  0  0  0  0  0999 V2000
  161.3230  207.5440  153.3530 C   0  0  0  0  0  0  0  0  0  0  0  0
  161.7870  211.0550  150.0000 C   0  0  0  0  0  3  0  0  0  0  0  0
  161.9760  210.0350  148.9510 C   0  0  0  0  0  3  0  0  0  0  0  0
  161.3730  205.1320  152.6350 C   0  0  0  0  0  0  0  0  0  0  0  0
  161.8600  204.2060  151.5570 C   0  0  1  0  0  3  0  0  0  0  0  0
  160.6320  208.2440  155.6930 C   0  0  2  0  0  3  0  0  0  0  0  0
  160.8650  209.9680  153.8890 C   0  0  0  0  0  2  0  0  0  0  0  0
  161.1320  203.7440  149.3620 N   0  0  0  0  0  0  0  0  0  0  0  0
  161.8010  210.7270  151.2950 C   0  0  0  0  0  3  0  0  0  0  0  0
  161.3960  208.9400  152.9880 N   0  0  0  0  0  0  0  0  0  0  0  0
  162.1070  209.3190  151.7570 C   0  0  1  0  0  3  0  0  0  0  0  0
  161.6650  207.0150  150.9740 C   0  0  0  0  0  0  0  0  0  0  0  0
  160.8860  202.5480  150.0490 N   0  0  0  0  0  2  0  0  0  0  0  0
  161.1530  209.6440  155.3530 C   0  0  2  0  0  3  0  0  0  0  0  0
  161.1120  202.8690  151.4730 C   0  0  0  0  0  2  0  0  0  0  0  0
  162.0080  208.7350  149.2560 C   0  0  0  0  0  3  0  0  0  0  0  0
  161.8820  208.3000  150.6600 C   0  0  0  0  0  0  0  0  0  0  0  0
  161.5220  206.0250  149.9420 N   0  0  0  0  0  0  0  0  0  0  0  0
  161.2690  207.1670  154.8140 C   0  0  0  0  0  2  0  0  0  0  0  0
  160.9550  204.6620  153.7270 O   0  0  0  0  0  0  0  0  0  0  0  0
  160.7450  203.9430  147.9770 C   0  0  0  0  0  1  0  0  0  0  0  0
  161.4620  206.6010  152.3930 C   0  0  0  0  0  0  0  0  0  0  0  0
  161.5970  204.7570  150.2180 C   0  0  0  0  0  0  0  0  0  0  0  0
  163.2940  210.7020  154.6530 C   0  0  0  0  0  2  0  0  0  0  0  0
  162.6390  209.7800  155.6620 C   0  0  1  0  0  3  0  0  0  0  0  0
  162.9430  211.2180  156.0330 C   0  0  1  0  0  3  0  0  0  0  0  0
  164.1400  211.2550  156.8570 N   0  0  0  0  0  2  0  0  0  0  0  0
  165.3710  211.7940  156.3750 C   0  0  0  0  0  0  0  0  0  0  0  0
  165.4560  212.2620  155.2090 O   0  0  0  0  0  0  0  0  0  0  0  0
  166.5650  211.8060  157.2610 C   0  0  0  0  0  1  0  0  0  0  0  0
  158.8750  206.9620  156.1010 C   0  0  0  0  0  1  0  0  0  0  0  0
  159.2400  208.2020  155.5750 O   0  0  0  0  0  0  0  0  0  0  0  0
  1 19  1  0  0  0  0
  2  9  2  0  0  0  0
  3 16  2  0  0  0  0
  3  2  1  0  0  0  0
  4 20  2  0  0  0  0
  5 15  1  6  0  0  0
  5  4  1  0  0  0  0
  6 32  1  6  0  0  0
  8 13  1  0  0  0  0
  8 23  1  0  0  0  0
 10  1  1  0  0  0  0
 10  7  1  0  0  0  0
 11  9  1  6  0  0  0
 11 10  1  0  0  0  0
 12 22  1  0  0  0  0
 13 15  1  0  0  0  0
 14  7  1  6  0  0  0
 14 25  1  0  0  0  0
 14  6  1  0  0  0  0
 16 17  1  0  0  0  0
 17 12  2  0  0  0  0
 17 11  1  0  0  0  0
 18 23  2  0  0  0  0
 18 12  1  0  0  0  0
 19  6  1  0  0  0  0
 21  8  1  0  0  0  0
 22  4  1  0  0  0  0
 22  1  2  0  0  0  0
 23  5  1  0  0  0  0
 24 26  1  0  0  0  0
 25 24  1  6  0  0  0
 25 26  1  0  0  0  0
 26 27  1  1  0  0  0
 28 27  1  0  0  0  0
 28 30  1  0  0  0  0
 29 28  2  0  0  0  0
 32 31  1  0  0  0  0
M  END
>  <MODEL>
9

>  <REMARK>
 VINA RESULT:      -2.7      3.509      6.524
  Name = 
  3 active torsions:
  status: ('A' for Active; 'I' for Inactive)
    1  A    between atoms: C_7  and  O_19
    2  A    between atoms: C_10  and  C_17
    3  A    between atoms: C_20  and  N_29
                            x       y       z     vdW  Elec       q    Type
                         _______ _______ _______ _____ _____    ______ ____

>  <TORSDO>
F 3

$$$$
