=
 OpenBabel11122412463D

 32 38  0  0  1  0  0  0  0  0999 V2000
  160.2070  208.2250  156.4630 C   0  0  1  0  0  3  0  0  0  0  0  0
  161.2420  207.2910  151.3480 C   0  0  0  0  0  0  0  0  0  0  0  0
  162.1510  211.7390  149.5310 C   0  0  0  0  0  3  0  0  0  0  0  0
  162.2610  211.1980  148.2510 C   0  0  0  0  0  3  0  0  0  0  0  0
  161.2500  205.3210  149.7650 C   0  0  0  0  0  0  0  0  0  0  0  0
  161.3790  204.9060  148.4410 C   0  0  0  0  0  0  0  0  0  0  0  0
  161.1690  207.0270  153.8680 C   0  0  1  0  0  3  0  0  0  0  0  0
  161.3810  209.3050  152.9210 C   0  0  0  0  0  2  0  0  0  0  0  0
  161.7490  205.0300  146.1700 C   0  0  1  0  0  3  0  0  0  0  0  0
  160.7040  209.1240  155.3290 C   0  0  2  0  0  3  0  0  0  0  0  0
  161.8710  210.9080  150.6160 C   0  0  0  0  0  3  0  0  0  0  0  0
  161.4050  208.6920  151.5350 C   0  0  0  0  0  0  0  0  0  0  0  0
  161.6960  209.5220  150.4390 C   0  0  0  0  0  0  0  0  0  0  0  0
  161.6520  207.5980  148.9380 C   0  0  0  0  0  0  0  0  0  0  0  0
  161.5390  203.6100  146.5300 N   0  0  0  0  0  0  0  0  0  0  0  0
  159.7380  206.8310  155.9920 C   0  0  0  0  0  2  0  0  0  0  0  0
  160.6360  208.4590  153.9390 C   0  0  2  0  0  3  0  0  0  0  0  0
  161.3290  203.5970  147.9260 N   0  0  0  0  0  0  0  0  0  0  0  0
  160.6600  206.1220  154.9930 C   0  0  0  0  0  2  0  0  0  0  0  0
  161.6990  208.4760  156.2850 C   0  0  1  0  0  3  0  0  0  0  0  0
  162.0910  209.8260  148.0580 C   0  0  0  0  0  3  0  0  0  0  0  0
  161.8100  208.9760  149.1420 C   0  0  0  0  0  0  0  0  0  0  0  0
  161.7710  207.0960  147.6710 N   0  0  0  0  0  0  0  0  0  0  0  0
  160.7900  206.4430  152.5190 C   0  0  0  0  0  2  0  0  0  0  0  0
  161.0330  204.2590  150.7960 C   0  0  0  0  0  1  0  0  0  0  0  0
  160.6710  205.4710  145.1970 C   0  0  0  0  0  1  0  0  0  0  0  0
  161.3730  206.7240  150.0440 C   0  0  0  0  0  0  0  0  0  0  0  0
  161.6200  205.7720  147.4470 C   0  0  0  0  0  0  0  0  0  0  0  0
  162.1400  209.4600  157.2610 N   0  0  0  0  0  2  0  0  0  0  0  0
  162.4660  210.8120  156.9220 C   0  0  0  0  0  0  0  0  0  0  0  0
  161.4430  212.0470  157.2580 S   0  0  0  0  0  0  0  0  0  0  0  0
  163.7010  211.0900  156.2760 N   0  0  0  0  0  1  0  0  0  0  0  0
  1 16  1  6  0  0  0
  2 12  1  0  0  0  0
  2 24  1  0  0  0  0
  3 11  2  0  0  0  0
  4  3  1  0  0  0  0
  5 27  1  0  0  0  0
  5 25  1  0  0  0  0
  6  5  2  0  0  0  0
  7 24  1  6  0  0  0
  7 17  1  0  0  0  0
  7 19  1  0  0  0  0
  8 17  1  0  0  0  0
  9 26  1  6  0  0  0
  9 15  1  0  0  0  0
  9 28  1  0  0  0  0
 10 20  1  0  0  0  0
 10  1  1  0  0  0  0
 12  8  1  0  0  0  0
 13 11  1  0  0  0  0
 13 12  2  0  0  0  0
 14 22  2  0  0  0  0
 14 27  1  0  0  0  0
 15 18  2  0  0  0  0
 17 10  1  0  0  0  0
 18  6  1  0  0  0  0
 19 16  1  0  0  0  0
 20  1  1  0  0  0  0
 20 29  1  0  0  0  0
 21  4  2  0  0  0  0
 21 22  1  0  0  0  0
 22 13  1  0  0  0  0
 23 14  1  0  0  0  0
 27  2  2  0  0  0  0
 28 23  2  0  0  0  0
 28  6  1  0  0  0  0
 30 31  2  0  0  0  0
 30 29  1  0  0  0  0
 32 30  1  0  0  0  0
M  END
>  <MODEL>
1

>  <REMARK>
 VINA RESULT:      -9.3      0.000      0.000
  Name = 
  2 active torsions:
  status: ('A' for Active; 'I' for Inactive)
    1  A    between atoms: C_20  and  N_29
    2  A    between atoms: N_29  and  C_30
                            x       y       z     vdW  Elec       q    Type
                         _______ _______ _______ _____ _____    ______ ____

>  <TORSDO>
F 2

$$$$
=
 OpenBabel11122412463D

 32 38  0  0  1  0  0  0  0  0999 V2000
  161.3230  201.7220  149.4110 C   0  0  1  0  0  3  0  0  0  0  0  0
  161.2070  206.3640  151.9690 C   0  0  0  0  0  0  0  0  0  0  0  0
  162.0560  209.6400  148.4390 C   0  0  0  0  0  3  0  0  0  0  0  0
  162.0760  210.6620  149.3860 C   0  0  0  0  0  3  0  0  0  0  0  0
  160.9710  207.1920  154.3450 C   0  0  0  0  0  0  0  0  0  0  0  0
  161.0200  208.2970  155.1910 C   0  0  0  0  0  0  0  0  0  0  0  0
  160.6460  203.9900  151.2790 C   0  0  1  0  0  3  0  0  0  0  0  0
  161.3200  205.6040  149.5270 C   0  0  0  0  0  2  0  0  0  0  0  0
  161.2100  210.4950  155.8560 C   0  0  1  0  0  3  0  0  0  0  0  0
  161.3700  203.1710  148.9230 C   0  0  2  0  0  3  0  0  0  0  0  0
  161.8360  208.3220  148.8410 C   0  0  0  0  0  3  0  0  0  0  0  0
  161.4230  206.6730  150.5970 C   0  0  0  0  0  0  0  0  0  0  0  0
  161.6350  208.0040  150.1970 C   0  0  0  0  0  0  0  0  0  0  0  0
  161.4420  208.7550  152.5110 C   0  0  0  0  0  0  0  0  0  0  0  0
  160.9110  209.6730  157.0500 N   0  0  0  0  0  0  0  0  0  0  0  0
  161.4560  201.5760  150.9420 C   0  0  0  0  0  2  0  0  0  0  0  0
  161.5450  204.2000  150.0590 C   0  0  2  0  0  3  0  0  0  0  0  0
  160.7980  208.3460  156.5800 N   0  0  0  0  0  0  0  0  0  0  0  0
  160.6100  202.5440  151.7790 C   0  0  0  0  0  2  0  0  0  0  0  0
  160.0460  202.4170  148.9570 C   0  0  1  0  0  3  0  0  0  0  0  0
  161.8760  210.3640  150.7350 C   0  0  0  0  0  3  0  0  0  0  0  0
  161.6530  209.0410  151.1550 C   0  0  0  0  0  0  0  0  0  0  0  0
  161.4630  209.7810  153.4180 N   0  0  0  0  0  0  0  0  0  0  0  0
  161.1240  204.9110  152.3870 C   0  0  0  0  0  2  0  0  0  0  0  0
  160.6380  205.8710  154.9640 C   0  0  0  0  0  1  0  0  0  0  0  0
  162.5550  211.1750  156.0310 C   0  0  0  0  0  1  0  0  0  0  0  0
  161.2050  207.4060  152.9450 C   0  0  0  0  0  0  0  0  0  0  0  0
  161.2660  209.5310  154.7310 C   0  0  0  0  0  0  0  0  0  0  0  0
  159.7080  201.9750  147.6140 N   0  0  0  0  0  2  0  0  0  0  0  0
  160.6810  201.7760  146.5840 C   0  0  0  0  0  0  0  0  0  0  0  0
  161.1770  203.0100  145.6270 S   0  0  0  0  0  0  0  0  0  0  0  0
  161.2270  200.4780  146.3820 N   0  0  0  0  0  1  0  0  0  0  0  0
  1 16  1  1  0  0  0
  2 24  1  0  0  0  0
  2 27  1  0  0  0  0
  3 11  2  0  0  0  0
  3  4  1  0  0  0  0
  4 21  2  0  0  0  0
  5 25  1  0  0  0  0
  5  6  1  0  0  0  0
  6 18  1  0  0  0  0
  7 19  1  1  0  0  0
  7 24  1  0  0  0  0
  8 17  1  0  0  0  0
  8 12  1  0  0  0  0
  9 26  1  1  0  0  0
  9 15  1  0  0  0  0
 10 20  1  0  0  0  0
 10  1  1  0  0  0  0
 10 17  1  0  0  0  0
 11 13  1  0  0  0  0
 12  2  2  0  0  0  0
 13 12  1  0  0  0  0
 13 22  2  0  0  0  0
 14 27  1  0  0  0  0
 14 23  2  0  0  0  0
 16 19  1  0  0  0  0
 17  7  1  0  0  0  0
 18 15  2  0  0  0  0
 20  1  1  0  0  0  0
 21 22  1  0  0  0  0
 22 14  1  0  0  0  0
 23 28  1  0  0  0  0
 27  5  2  0  0  0  0
 28  6  2  0  0  0  0
 28  9  1  0  0  0  0
 29 20  1  0  0  0  0
 30 29  1  0  0  0  0
 31 30  2  0  0  0  0
 32 30  1  0  0  0  0
M  END
>  <MODEL>
2

>  <REMARK>
 VINA RESULT:      -8.5      3.181      7.893
  Name = 
  2 active torsions:
  status: ('A' for Active; 'I' for Inactive)
    1  A    between atoms: C_20  and  N_29
    2  A    between atoms: N_29  and  C_30
                            x       y       z     vdW  Elec       q    Type
                         _______ _______ _______ _____ _____    ______ ____

>  <TORSDO>
F 2

$$$$
=
 OpenBabel11122412463D

 32 38  0  0  1  0  0  0  0  0999 V2000
  161.6680  201.8190  147.6240 C   0  0  1  0  0  3  0  0  0  0  0  0
  161.2290  205.8820  151.0000 C   0  0  0  0  0  0  0  0  0  0  0  0
  162.2370  209.7870  148.2320 C   0  0  0  0  0  3  0  0  0  0  0  0
  162.1570  210.6080  149.3550 C   0  0  0  0  0  3  0  0  0  0  0  0
  160.7950  206.2360  153.4650 C   0  0  0  0  0  0  0  0  0  0  0  0
  160.7500  207.1600  154.5060 C   0  0  0  0  0  0  0  0  0  0  0  0
  160.7900  203.6770  149.8300 C   0  0  1  0  0  3  0  0  0  0  0  0
  161.5420  205.6060  148.4740 C   0  0  0  0  0  2  0  0  0  0  0  0
  160.8250  209.1920  155.5890 C   0  0  1  0  0  3  0  0  0  0  0  0
  161.7080  203.3350  147.4250 C   0  0  2  0  0  3  0  0  0  0  0  0
  162.0270  208.4130  148.3590 C   0  0  0  0  0  3  0  0  0  0  0  0
  161.5350  206.4520  149.7330 C   0  0  0  0  0  0  0  0  0  0  0  0
  161.7360  207.8380  149.6100 C   0  0  0  0  0  0  0  0  0  0  0  0
  161.3530  208.1290  152.0030 C   0  0  0  0  0  0  0  0  0  0  0  0
  160.4650  208.1520  156.5790 N   0  0  0  0  0  0  0  0  0  0  0  0
  161.6930  201.3840  149.1060 C   0  0  0  0  0  2  0  0  0  0  0  0
  161.7690  204.1300  148.7460 C   0  0  2  0  0  3  0  0  0  0  0  0
  160.4260  206.9380  155.8580 N   0  0  0  0  0  0  0  0  0  0  0  0
  160.7590  202.1610  150.0420 C   0  0  0  0  0  2  0  0  0  0  0  0
  160.4080  202.5690  147.2130 C   0  0  1  0  0  3  0  0  0  0  0  0
  161.8680  210.0550  150.6040 C   0  0  0  0  0  3  0  0  0  0  0  0
  161.6540  208.6730  150.7460 C   0  0  0  0  0  0  0  0  0  0  0  0
  161.2770  208.9620  153.0870 N   0  0  0  0  0  0  0  0  0  0  0  0
  161.1580  204.3750  151.1270 C   0  0  0  0  0  2  0  0  0  0  0  0
  160.4570  204.8160  153.7940 C   0  0  0  0  0  1  0  0  0  0  0  0
  162.1330  209.8460  155.9940 C   0  0  0  0  0  1  0  0  0  0  0  0
  161.1250  206.7190  152.1530 C   0  0  0  0  0  0  0  0  0  0  0  0
  160.9920  208.4630  154.3090 C   0  0  0  0  0  0  0  0  0  0  0  0
  160.1820  202.3870  145.7880 N   0  0  0  0  0  2  0  0  0  0  0  0
  159.9940  203.4740  144.8770 C   0  0  0  0  0  0  0  0  0  0  0  0
  161.0820  204.6930  144.7640 S   0  0  0  0  0  0  0  0  0  0  0  0
  158.8350  203.5000  144.0540 N   0  0  0  0  0  1  0  0  0  0  0  0
  1 16  1  1  0  0  0
  2 24  1  0  0  0  0
  2 27  1  0  0  0  0
  3 11  2  0  0  0  0
  3  4  1  0  0  0  0
  4 21  2  0  0  0  0
  5 25  1  0  0  0  0
  5  6  1  0  0  0  0
  6 18  1  0  0  0  0
  7 19  1  1  0  0  0
  7 24  1  0  0  0  0
  8 17  1  0  0  0  0
  8 12  1  0  0  0  0
  9 26  1  1  0  0  0
  9 15  1  0  0  0  0
 10  1  1  0  0  0  0
 10 17  1  0  0  0  0
 11 13  1  0  0  0  0
 12  2  2  0  0  0  0
 13 12  1  0  0  0  0
 13 22  2  0  0  0  0
 14 27  1  0  0  0  0
 14 23  2  0  0  0  0
 16 19  1  0  0  0  0
 17  7  1  0  0  0  0
 18 15  2  0  0  0  0
 20 10  1  0  0  0  0
 20  1  1  0  0  0  0
 21 22  1  0  0  0  0
 22 14  1  0  0  0  0
 23 28  1  0  0  0  0
 27  5  2  0  0  0  0
 28  6  2  0  0  0  0
 28  9  1  0  0  0  0
 29 20  1  0  0  0  0
 30 29  1  0  0  0  0
 31 30  2  0  0  0  0
 32 30  1  0  0  0  0
M  END
>  <MODEL>
3

>  <REMARK>
 VINA RESULT:      -7.6      3.171      8.017
  Name = 
  2 active torsions:
  status: ('A' for Active; 'I' for Inactive)
    1  A    between atoms: C_20  and  N_29
    2  A    between atoms: N_29  and  C_30
                            x       y       z     vdW  Elec       q    Type
                         _______ _______ _______ _____ _____    ______ ____

>  <TORSDO>
F 2

$$$$
=
 OpenBabel11122412463D

 32 38  0  0  1  0  0  0  0  0999 V2000
  161.5710  210.0520  154.4710 C   0  0  1  0  0  3  0  0  0  0  0  0
  161.1630  206.7760  150.3230 C   0  0  0  0  0  0  0  0  0  0  0  0
  160.8070  202.3560  152.3840 C   0  0  0  0  0  3  0  0  0  0  0  0
  160.8310  201.7610  151.1240 C   0  0  0  0  0  3  0  0  0  0  0  0
  161.2310  206.9250  147.8010 C   0  0  0  0  0  0  0  0  0  0  0  0
  161.2520  206.2120  146.6050 C   0  0  0  0  0  0  0  0  0  0  0  0
  160.8820  208.8090  151.8120 C   0  0  1  0  0  3  0  0  0  0  0  0
  160.9530  206.5700  152.8660 C   0  0  0  0  0  2  0  0  0  0  0  0
  161.1960  204.4120  145.1670 C   0  0  1  0  0  3  0  0  0  0  0  0
  161.2900  208.5520  154.3640 C   0  0  2  0  0  3  0  0  0  0  0  0
  160.8830  203.7440  152.5010 C   0  0  0  0  0  3  0  0  0  0  0  0
  161.0720  205.9590  151.4840 C   0  0  0  0  0  0  0  0  0  0  0  0
  160.9860  204.5610  151.3590 C   0  0  0  0  0  0  0  0  0  0  0  0
  161.0980  204.7470  148.9280 C   0  0  0  0  0  0  0  0  0  0  0  0
  161.2590  205.6500  144.3590 N   0  0  0  0  0  0  0  0  0  0  0  0
  162.0020  210.7020  153.1380 C   0  0  0  0  0  2  0  0  0  0  0  0
  161.4980  207.9850  152.9450 C   0  0  2  0  0  3  0  0  0  0  0  0
  161.2810  206.7120  145.2890 N   0  0  0  0  0  0  0  0  0  0  0  0
  161.1750  210.3090  151.9080 C   0  0  0  0  0  2  0  0  0  0  0  0
  160.1360  209.5410  154.4820 C   0  0  1  0  0  3  0  0  0  0  0  0
  160.9310  202.5570  149.9810 C   0  0  0  0  0  3  0  0  0  0  0  0
  161.0080  203.9570  150.0830 C   0  0  0  0  0  0  0  0  0  0  0  0
  161.1140  204.1350  147.7040 N   0  0  0  0  0  0  0  0  0  0  0  0
  161.3970  208.2630  150.4920 C   0  0  0  0  0  2  0  0  0  0  0  0
  161.2370  208.4180  147.7090 C   0  0  0  0  0  1  0  0  0  0  0  0
  162.4200  203.5610  144.8880 C   0  0  0  0  0  1  0  0  0  0  0  0
  161.1680  206.1780  149.0270 C   0  0  0  0  0  0  0  0  0  0  0  0
  161.2040  204.8730  146.5760 C   0  0  0  0  0  0  0  0  0  0  0  0
  159.6370  209.5380  155.8480 N   0  0  0  0  0  2  0  0  0  0  0  0
  159.3730  210.7310  156.5910 C   0  0  0  0  0  0  0  0  0  0  0  0
  157.8640  211.3640  156.6840 S   0  0  0  0  0  0  0  0  0  0  0  0
  160.4430  211.3860  157.2610 N   0  0  0  0  0  1  0  0  0  0  0  0
  1 16  1  6  0  0  0
  1 20  1  0  0  0  0
  2 24  1  0  0  0  0
  2 12  1  0  0  0  0
  3 11  2  0  0  0  0
  4  3  1  0  0  0  0
  5 27  1  0  0  0  0
  6  5  2  0  0  0  0
  7 24  1  6  0  0  0
  7 19  1  0  0  0  0
  7 17  1  0  0  0  0
  8 17  1  0  0  0  0
  9 26  1  1  0  0  0
  9 28  1  0  0  0  0
 10  1  1  0  0  0  0
 10 20  1  0  0  0  0
 12  8  1  0  0  0  0
 13 12  2  0  0  0  0
 13 11  1  0  0  0  0
 14 27  1  0  0  0  0
 14 22  2  0  0  0  0
 15  9  1  0  0  0  0
 15 18  2  0  0  0  0
 17 10  1  0  0  0  0
 18  6  1  0  0  0  0
 19 16  1  0  0  0  0
 20 29  1  0  0  0  0
 21 22  1  0  0  0  0
 21  4  2  0  0  0  0
 22 13  1  0  0  0  0
 23 14  1  0  0  0  0
 25  5  1  0  0  0  0
 27  2  2  0  0  0  0
 28  6  1  0  0  0  0
 28 23  2  0  0  0  0
 29 30  1  0  0  0  0
 30 31  2  0  0  0  0
 30 32  1  0  0  0  0
M  END
>  <MODEL>
4

>  <REMARK>
 VINA RESULT:      -7.4      1.859      4.356
  Name = 
  2 active torsions:
  status: ('A' for Active; 'I' for Inactive)
    1  A    between atoms: C_20  and  N_29
    2  A    between atoms: N_29  and  C_30
                            x       y       z     vdW  Elec       q    Type
                         _______ _______ _______ _____ _____    ______ ____

>  <TORSDO>
F 2

$$$$
=
 OpenBabel11122412463D

 32 38  0  0  1  0  0  0  0  0999 V2000
  161.7790  202.2750  148.2220 C   0  0  1  0  0  3  0  0  0  0  0  0
  161.2530  206.5030  151.3770 C   0  0  0  0  0  0  0  0  0  0  0  0
  162.1960  210.2740  148.4080 C   0  0  0  0  0  3  0  0  0  0  0  0
  162.0980  211.1520  149.4860 C   0  0  0  0  0  3  0  0  0  0  0  0
  160.8050  206.9780  153.8180 C   0  0  0  0  0  0  0  0  0  0  0  0
  160.7390  207.9550  154.8090 C   0  0  0  0  0  0  0  0  0  0  0  0
  160.8590  204.2310  150.3250 C   0  0  1  0  0  3  0  0  0  0  0  0
  161.5800  206.1000  148.8700 C   0  0  0  0  0  2  0  0  0  0  0  0
  160.7730  210.0430  155.7830 C   0  0  1  0  0  3  0  0  0  0  0  0
  161.7910  203.7800  147.9420 C   0  0  2  0  0  3  0  0  0  0  0  0
  162.0120  208.9050  148.6070 C   0  0  0  0  0  3  0  0  0  0  0  0
  161.5520  207.0110  150.0820 C   0  0  0  0  0  0  0  0  0  0  0  0
  161.7280  208.3920  149.8870 C   0  0  0  0  0  0  0  0  0  0  0  0
  161.3320  208.8020  152.2600 C   0  0  0  0  0  0  0  0  0  0  0  0
  160.4290  209.0500  156.8250 N   0  0  0  0  0  0  0  0  0  0  0  0
  161.8070  201.9210  149.7240 C   0  0  0  0  0  2  0  0  0  0  0  0
  161.8330  204.6440  149.2200 C   0  0  2  0  0  3  0  0  0  0  0  0
  160.4150  207.7990  156.1700 N   0  0  0  0  0  0  0  0  0  0  0  0
  160.8560  202.7280  150.6170 C   0  0  0  0  0  2  0  0  0  0  0  0
  160.5060  202.9790  147.7690 C   0  0  1  0  0  3  0  0  0  0  0  0
  161.8150  210.6600  150.7610 C   0  0  0  0  0  3  0  0  0  0  0  0
  161.6260  209.2840  150.9760 C   0  0  0  0  0  0  0  0  0  0  0  0
  161.2370  209.6890  153.2970 N   0  0  0  0  0  0  0  0  0  0  0  0
  161.2100  205.0040  151.5830 C   0  0  0  0  0  2  0  0  0  0  0  0
  160.4920  205.5720  154.2210 C   0  0  0  0  0  1  0  0  0  0  0  0
  162.0670  210.7420  156.1550 C   0  0  0  0  0  1  0  0  0  0  0  0
  161.1300  207.3970  152.4830 C   0  0  0  0  0  0  0  0  0  0  0  0
  160.9580  209.2500  154.5440 C   0  0  0  0  0  0  0  0  0  0  0  0
  160.2890  202.7180  146.3550 N   0  0  0  0  0  2  0  0  0  0  0  0
  160.3140  201.4060  145.7850 C   0  0  0  0  0  0  0  0  0  0  0  0
  161.1590  200.1870  146.4820 S   0  0  0  0  0  0  0  0  0  0  0  0
  159.5950  201.1540  144.5840 N   0  0  0  0  0  1  0  0  0  0  0  0
  1 16  1  1  0  0  0
  2 24  1  0  0  0  0
  2 27  1  0  0  0  0
  3 11  2  0  0  0  0
  3  4  1  0  0  0  0
  4 21  2  0  0  0  0
  5 25  1  0  0  0  0
  5  6  1  0  0  0  0
  6 18  1  0  0  0  0
  7 19  1  1  0  0  0
  7 24  1  0  0  0  0
  8 17  1  0  0  0  0
  8 12  1  0  0  0  0
  9 26  1  1  0  0  0
  9 15  1  0  0  0  0
 10  1  1  0  0  0  0
 10 17  1  0  0  0  0
 11 13  1  0  0  0  0
 12  2  2  0  0  0  0
 13 12  1  0  0  0  0
 13 22  2  0  0  0  0
 14 27  1  0  0  0  0
 14 23  2  0  0  0  0
 16 19  1  0  0  0  0
 17  7  1  0  0  0  0
 18 15  2  0  0  0  0
 20 10  1  0  0  0  0
 20  1  1  0  0  0  0
 21 22  1  0  0  0  0
 22 14  1  0  0  0  0
 23 28  1  0  0  0  0
 27  5  2  0  0  0  0
 28  6  2  0  0  0  0
 28  9  1  0  0  0  0
 29 20  1  0  0  0  0
 30 29  1  0  0  0  0
 30 31  2  0  0  0  0
 32 30  1  0  0  0  0
M  END
>  <MODEL>
5

>  <REMARK>
 VINA RESULT:      -6.8      3.314      8.106
  Name = 
  2 active torsions:
  status: ('A' for Active; 'I' for Inactive)
    1  A    between atoms: C_20  and  N_29
    2  A    between atoms: N_29  and  C_30
                            x       y       z     vdW  Elec       q    Type
                         _______ _______ _______ _____ _____    ______ ____

>  <TORSDO>
F 2

$$$$
=
 OpenBabel11122412463D

 32 38  0  0  1  0  0  0  0  0999 V2000
  162.3380  212.1640  149.3930 C   0  0  1  0  0  3  0  0  0  0  0  0
  161.4030  206.9540  149.1070 C   0  0  0  0  0  0  0  0  0  0  0  0
  161.0330  205.5970  153.7910 C   0  0  0  0  0  3  0  0  0  0  0  0
  160.9150  204.2640  153.4000 C   0  0  0  0  0  3  0  0  0  0  0  0
  161.2480  205.1700  147.3240 C   0  0  0  0  0  0  0  0  0  0  0  0
  161.1260  203.8070  147.0640 C   0  0  0  0  0  0  0  0  0  0  0  0
  161.3530  209.4320  148.5800 C   0  0  1  0  0  3  0  0  0  0  0  0
  161.4160  208.7280  150.9520 C   0  0  0  0  0  2  0  0  0  0  0  0
  160.8560  201.5530  147.4600 C   0  0  1  0  0  3  0  0  0  0  0  0
  161.9800  211.1200  150.4520 C   0  0  2  0  0  3  0  0  0  0  0  0
  161.1830  206.5940  152.8270 C   0  0  0  0  0  3  0  0  0  0  0  0
  161.3800  207.2840  150.4910 C   0  0  0  0  0  0  0  0  0  0  0  0
  161.2200  206.2760  151.4570 C   0  0  0  0  0  0  0  0  0  0  0  0
  161.1170  204.5810  149.7040 C   0  0  0  0  0  0  0  0  0  0  0  0
  160.9020  201.7650  145.9960 N   0  0  0  0  0  0  0  0  0  0  0  0
  162.6750  211.5600  148.0120 C   0  0  0  0  0  2  0  0  0  0  0  0
  162.0310  209.6690  149.9300 C   0  0  2  0  0  3  0  0  0  0  0  0
  161.0580  203.1570  145.8170 N   0  0  0  0  0  0  0  0  0  0  0  0
  161.7220  210.4670  147.5130 C   0  0  0  0  0  2  0  0  0  0  0  0
  160.8880  211.9760  149.8210 C   0  0  1  0  0  3  0  0  0  0  0  0
  160.9470  203.9310  152.0450 C   0  0  0  0  0  3  0  0  0  0  0  0
  161.0980  204.9250  151.0630 C   0  0  0  0  0  0  0  0  0  0  0  0
  160.9940  203.2640  149.3510 N   0  0  0  0  0  0  0  0  0  0  0  0
  161.7190  208.0390  148.1000 C   0  0  0  0  0  2  0  0  0  0  0  0
  161.3140  206.0880  146.1440 C   0  0  0  0  0  1  0  0  0  0  0  0
  162.0100  200.6620  147.8800 C   0  0  0  0  0  1  0  0  0  0  0  0
  161.2620  205.5940  148.6960 C   0  0  0  0  0  0  0  0  0  0  0  0
  161.0140  202.9050  148.0480 C   0  0  0  0  0  0  0  0  0  0  0  0
  160.5160  213.0380  150.7410 N   0  0  0  0  0  2  0  0  0  0  0  0
  159.4380  212.9270  151.6750 C   0  0  0  0  0  0  0  0  0  0  0  0
  159.6450  212.2220  153.1390 S   0  0  0  0  0  0  0  0  0  0  0  0
  158.1570  213.4360  151.3240 N   0  0  0  0  0  1  0  0  0  0  0  0
  1 16  1  6  0  0  0
  1 20  1  0  0  0  0
  1 10  1  0  0  0  0
  2 12  1  0  0  0  0
  4  3  1  0  0  0  0
  5 27  1  0  0  0  0
  6  5  2  0  0  0  0
  6 28  1  0  0  0  0
  7 19  1  6  0  0  0
  7 17  1  0  0  0  0
  9 26  1  1  0  0  0
  9 28  1  0  0  0  0
 11  3  2  0  0  0  0
 12  8  1  0  0  0  0
 12 13  2  0  0  0  0
 13 11  1  0  0  0  0
 14 22  2  0  0  0  0
 15  9  1  0  0  0  0
 17 10  1  0  0  0  0
 17  8  1  0  0  0  0
 18 15  2  0  0  0  0
 18  6  1  0  0  0  0
 19 16  1  0  0  0  0
 20 10  1  0  0  0  0
 20 29  1  0  0  0  0
 21  4  2  0  0  0  0
 22 13  1  0  0  0  0
 22 21  1  0  0  0  0
 23 14  1  0  0  0  0
 24  7  1  0  0  0  0
 24  2  1  0  0  0  0
 25  5  1  0  0  0  0
 27  2  2  0  0  0  0
 27 14  1  0  0  0  0
 28 23  2  0  0  0  0
 29 30  1  0  0  0  0
 30 31  2  0  0  0  0
 32 30  1  0  0  0  0
M  END
>  <MODEL>
6

>  <REMARK>
 VINA RESULT:      -6.7      2.814      5.492
  Name = 
  2 active torsions:
  status: ('A' for Active; 'I' for Inactive)
    1  A    between atoms: C_20  and  N_29
    2  A    between atoms: N_29  and  C_30
                            x       y       z     vdW  Elec       q    Type
                         _______ _______ _______ _____ _____    ______ ____

>  <TORSDO>
F 2

$$$$
