=
 OpenBabel11122413173D

 31 35  0  0  1  0  0  0  0  0999 V2000
  161.1430  201.2970  149.6000 C   0  0  0  0  0  0  0  0  0  0  0  0
  161.1360  205.0450  149.2220 C   0  0  0  0  0  0  0  0  0  0  0  0
  161.1690  205.3280  147.8210 C   0  0  0  0  0  0  0  0  0  0  0  0
  161.0450  205.9150  154.4140 O   0  0  0  0  0  0  0  0  0  0  0  0
  161.0250  207.0270  153.8200 C   0  0  0  0  0  0  0  0  0  0  0  0
  161.2330  204.6350  145.4770 C   0  0  0  0  0  0  0  0  0  0  0  0
  161.1280  203.7330  149.7860 C   0  0  0  0  0  0  0  0  0  0  0  0
  161.1110  201.1780  150.9880 C   0  0  0  0  0  3  0  0  0  0  0  0
  161.2010  204.3210  146.8380 C   0  0  0  0  0  3  0  0  0  0  0  0
  161.0780  205.9470  151.5000 C   0  0  0  0  0  0  0  0  0  0  0  0
  161.1670  200.1600  148.8050 O   0  0  0  0  0  1  0  0  0  0  0  0
  161.1440  207.7050  148.3120 C   0  0  0  0  0  3  0  0  0  0  0  0
  161.2640  203.6190  144.5330 O   0  0  0  0  0  1  0  0  0  0  0  0
  161.0720  204.6840  151.9960 N   0  0  0  0  0  0  0  0  0  0  0  0
  161.1090  206.1530  150.1150 C   0  0  0  0  0  0  0  0  0  0  0  0
  161.0510  207.0770  152.3860 N   0  0  0  0  0  2  0  0  0  0  0  0
  161.1510  202.5620  149.0090 C   0  0  0  0  0  3  0  0  0  0  0  0
  161.2350  205.9680  145.0680 C   0  0  0  0  0  3  0  0  0  0  0  0
  161.0960  203.5920  151.1960 C   0  0  0  0  0  0  0  0  0  0  0  0
  161.0870  202.3230  151.7850 C   0  0  0  0  0  3  0  0  0  0  0  0
  161.1140  207.4270  149.6370 N   0  0  0  0  0  0  0  0  0  0  0  0
  161.1710  206.6760  147.3830 C   0  0  0  0  0  0  0  0  0  0  0  0
  161.2050  206.9870  146.0210 C   0  0  0  0  0  3  0  0  0  0  0  0
  161.0010  210.7490  156.0010 C   0  0  1  0  0  3  0  0  0  0  0  0
  161.0810  209.5210  153.8470 C   0  0  0  0  0  2  0  0  0  0  0  0
  160.2750  207.2610  156.5840 O   0  0  0  0  0  0  0  0  0  0  0  0
  161.5320  211.8140  156.7270 O   0  0  0  0  0  1  0  0  0  0  0  0
  161.7490  210.6050  154.6860 C   0  0  0  0  0  2  0  0  0  0  0  0
  160.7540  208.2680  155.9980 C   0  0  0  0  0  0  0  0  0  0  0  0
  161.0000  208.2520  154.5750 N   0  0  0  0  0  0  0  0  0  0  0  0
  161.1240  209.4680  156.8160 C   0  0  0  0  0  2  0  0  0  0  0  0
  1  8  1  0  0  0  0
  2  7  1  0  0  0  0
  2 15  1  0  0  0  0
  3  2  2  0  0  0  0
  5  4  2  0  0  0  0
  5 30  1  0  0  0  0
  6  9  2  0  0  0  0
  7 19  2  0  0  0  0
  8 20  2  0  0  0  0
  9  3  1  0  0  0  0
 10 14  2  0  0  0  0
 10 16  1  0  0  0  0
 11  1  1  0  0  0  0
 12 21  1  0  0  0  0
 13  6  1  0  0  0  0
 15 10  1  0  0  0  0
 16  5  1  0  0  0  0
 17  1  2  0  0  0  0
 17  7  1  0  0  0  0
 18  6  1  0  0  0  0
 18 23  2  0  0  0  0
 19 20  1  0  0  0  0
 19 14  1  0  0  0  0
 21 15  2  0  0  0  0
 22  3  1  0  0  0  0
 22 12  2  0  0  0  0
 23 22  1  0  0  0  0
 24 27  1  1  0  0  0
 24 31  1  0  0  0  0
 25 30  1  0  0  0  0
 25 28  1  0  0  0  0
 28 24  1  0  0  0  0
 29 26  2  0  0  0  0
 29 31  1  0  0  0  0
 30 29  1  0  0  0  0
M  END
>  <MODEL>
1

>  <REMARK>
 VINA RESULT:      -9.9      0.000      0.000
  Name = 
  0 active torsions:
  status: ('A' for Active; 'I' for Inactive)
                            x       y       z     vdW  Elec       q    Type
                         _______ _______ _______ _____ _____    ______ ____

>  <TORSDO>
F 0

$$$$
=
 OpenBabel11122413173D

 31 35  0  0  1  0  0  0  0  0999 V2000
  161.2310  205.3420  145.5970 C   0  0  0  0  0  0  0  0  0  0  0  0
  161.1360  204.2480  149.2000 C   0  0  0  0  0  0  0  0  0  0  0  0
  161.1600  202.8180  149.2080 C   0  0  0  0  0  0  0  0  0  0  0  0
  160.9560  209.1730  151.0520 O   0  0  0  0  0  0  0  0  0  0  0  0
  160.9680  208.3760  152.0290 C   0  0  0  0  0  0  0  0  0  0  0  0
  161.2280  200.6510  148.0770 C   0  0  0  0  0  0  0  0  0  0  0  0
  161.1590  205.0540  148.0230 C   0  0  0  0  0  0  0  0  0  0  0  0
  161.2020  206.7270  145.7470 C   0  0  0  0  0  3  0  0  0  0  0  0
  161.2060  202.0470  148.0310 C   0  0  0  0  0  3  0  0  0  0  0  0
  161.0590  206.3080  150.5230 C   0  0  0  0  0  0  0  0  0  0  0  0
  161.2820  204.7810  144.3290 O   0  0  0  0  0  1  0  0  0  0  0  0
  161.0850  202.8410  151.6340 C   0  0  0  0  0  3  0  0  0  0  0  0
  161.2740  199.9200  146.8980 O   0  0  0  0  0  1  0  0  0  0  0  0
  161.0810  207.0390  149.3810 N   0  0  0  0  0  0  0  0  0  0  0  0
  161.0850  204.9090  150.4590 C   0  0  0  0  0  0  0  0  0  0  0  0
  161.0080  206.9590  151.8030 N   0  0  0  0  0  2  0  0  0  0  0  0
  161.2110  204.5170  146.7230 C   0  0  0  0  0  3  0  0  0  0  0  0
  161.2020  199.9930  149.3060 C   0  0  0  0  0  3  0  0  0  0  0  0
  161.1300  206.4650  148.1550 C   0  0  0  0  0  0  0  0  0  0  0  0
  161.1520  207.2870  147.0240 C   0  0  0  0  0  3  0  0  0  0  0  0
  161.0620  204.1940  151.6160 N   0  0  0  0  0  0  0  0  0  0  0  0
  161.1340  202.1280  150.4460 C   0  0  0  0  0  0  0  0  0  0  0  0
  161.1550  200.7310  150.4880 C   0  0  0  0  0  3  0  0  0  0  0  0
  160.7710  209.7950  156.0990 C   0  0  1  0  0  3  0  0  0  0  0  0
  160.8310  207.9180  154.4790 C   0  0  0  0  0  2  0  0  0  0  0  0
  161.5800  211.0700  152.8190 O   0  0  0  0  0  0  0  0  0  0  0  0
  160.1720  210.2800  157.2610 O   0  0  0  0  0  1  0  0  0  0  0  0
  160.0900  208.5040  155.6750 C   0  0  0  0  0  2  0  0  0  0  0  0
  161.0970  210.2830  153.6750 C   0  0  0  0  0  0  0  0  0  0  0  0
  160.9180  208.8800  153.3770 N   0  0  0  0  0  0  0  0  0  0  0  0
  160.6510  210.8370  154.9940 C   0  0  0  0  0  2  0  0  0  0  0  0
  1  8  2  0  0  0  0
  1 17  1  0  0  0  0
  2  3  2  0  0  0  0
  2 15  1  0  0  0  0
  3 22  1  0  0  0  0
  4  5  2  0  0  0  0
  5 30  1  0  0  0  0
  6 18  1  0  0  0  0
  7 19  1  0  0  0  0
  7  2  1  0  0  0  0
  8 20  1  0  0  0  0
  9  6  2  0  0  0  0
  9  3  1  0  0  0  0
 10 16  1  0  0  0  0
 11  1  1  0  0  0  0
 13  6  1  0  0  0  0
 14 10  2  0  0  0  0
 15 10  1  0  0  0  0
 15 21  2  0  0  0  0
 16  5  1  0  0  0  0
 17  7  2  0  0  0  0
 18 23  2  0  0  0  0
 19 14  1  0  0  0  0
 20 19  2  0  0  0  0
 21 12  1  0  0  0  0
 22 23  1  0  0  0  0
 22 12  2  0  0  0  0
 24 27  1  1  0  0  0
 25 28  1  0  0  0  0
 26 29  2  0  0  0  0
 28 24  1  0  0  0  0
 29 31  1  0  0  0  0
 30 29  1  0  0  0  0
 30 25  1  0  0  0  0
 31 24  1  0  0  0  0
M  END
>  <MODEL>
2

>  <REMARK>
 VINA RESULT:      -9.3      1.516      4.274
  Name = 
  0 active torsions:
  status: ('A' for Active; 'I' for Inactive)
                            x       y       z     vdW  Elec       q    Type
                         _______ _______ _______ _____ _____    ______ ____

>  <TORSDO>
F 0

$$$$
=
 OpenBabel11122413173D

 31 35  0  0  1  0  0  0  0  0999 V2000
  161.8750  210.9190  149.9950 C   0  0  0  0  0  0  0  0  0  0  0  0
  161.3460  207.4840  151.4480 C   0  0  0  0  0  0  0  0  0  0  0  0
  161.2490  207.6360  152.8670 C   0  0  0  0  0  0  0  0  0  0  0  0
  161.4860  205.0990  146.7560 O   0  0  0  0  0  0  0  0  0  0  0  0
  161.2790  204.2280  147.6440 C   0  0  0  0  0  0  0  0  0  0  0  0
  161.2480  208.9940  154.9000 C   0  0  0  0  0  0  0  0  0  0  0  0
  161.5500  208.5560  150.5280 C   0  0  0  0  0  0  0  0  0  0  0  0
  161.9500  210.6150  148.6370 C   0  0  0  0  0  3  0  0  0  0  0  0
  161.3480  208.8830  153.5110 C   0  0  0  0  0  3  0  0  0  0  0  0
  161.3200  205.9470  149.5400 C   0  0  0  0  0  0  0  0  0  0  0  0
  161.9960  212.2340  150.4210 O   0  0  0  0  0  1  0  0  0  0  0  0
  160.9420  205.2380  153.0910 C   0  0  0  0  0  3  0  0  0  0  0  0
  161.3510  210.2390  155.5040 O   0  0  0  0  0  1  0  0  0  0  0  0
  161.5150  206.9930  148.6990 N   0  0  0  0  0  0  0  0  0  0  0  0
  161.2320  206.1670  150.9200 C   0  0  0  0  0  0  0  0  0  0  0  0
  161.2030  204.6110  149.0250 N   0  0  0  0  0  2  0  0  0  0  0  0
  161.6750  209.8990  150.9280 C   0  0  0  0  0  3  0  0  0  0  0  0
  161.0470  207.8540  155.6780 C   0  0  0  0  0  3  0  0  0  0  0  0
  161.6300  208.2670  149.1430 C   0  0  0  0  0  0  0  0  0  0  0  0
  161.8290  209.2920  148.2120 C   0  0  0  0  0  3  0  0  0  0  0  0
  161.0370  205.1040  151.7470 N   0  0  0  0  0  0  0  0  0  0  0  0
  161.0440  206.4910  153.6770 C   0  0  0  0  0  0  0  0  0  0  0  0
  160.9450  206.6050  155.0670 C   0  0  0  0  0  3  0  0  0  0  0  0
  160.9070  200.0450  146.6550 C   0  0  1  0  0  3  0  0  0  0  0  0
  161.0060  201.8510  148.3520 C   0  0  0  0  0  2  0  0  0  0  0  0
  160.6900  203.2500  145.0070 O   0  0  0  0  0  0  0  0  0  0  0  0
  161.3400  198.7600  146.3300 O   0  0  0  0  0  1  0  0  0  0  0  0
  161.5790  200.5000  147.9400 C   0  0  0  0  0  2  0  0  0  0  0  0
  160.9910  202.4220  145.9070 C   0  0  0  0  0  0  0  0  0  0  0  0
  161.1420  202.8410  147.2810 N   0  0  0  0  0  0  0  0  0  0  0  0
  161.2530  200.9980  145.5180 C   0  0  0  0  0  2  0  0  0  0  0  0
  1 11  1  0  0  0  0
  1 17  1  0  0  0  0
  2  3  1  0  0  0  0
  3  9  2  0  0  0  0
  3 22  1  0  0  0  0
  4  5  2  0  0  0  0
  5 16  1  0  0  0  0
  6 13  1  0  0  0  0
  6 18  2  0  0  0  0
  7 17  2  0  0  0  0
  7  2  1  0  0  0  0
  8  1  2  0  0  0  0
  9  6  1  0  0  0  0
 10 15  1  0  0  0  0
 12 22  1  0  0  0  0
 14 19  1  0  0  0  0
 14 10  2  0  0  0  0
 15  2  2  0  0  0  0
 15 21  1  0  0  0  0
 16 10  1  0  0  0  0
 19  7  1  0  0  0  0
 20  8  1  0  0  0  0
 20 19  2  0  0  0  0
 21 12  2  0  0  0  0
 22 23  2  0  0  0  0
 23 18  1  0  0  0  0
 24 27  1  6  0  0  0
 24 28  1  0  0  0  0
 26 29  2  0  0  0  0
 28 25  1  0  0  0  0
 29 30  1  0  0  0  0
 30  5  1  0  0  0  0
 30 25  1  0  0  0  0
 31 29  1  0  0  0  0
 31 24  1  0  0  0  0
M  END
>  <MODEL>
3

>  <REMARK>
 VINA RESULT:      -8.0      2.426      9.145
  Name = 
  0 active torsions:
  status: ('A' for Active; 'I' for Inactive)
                            x       y       z     vdW  Elec       q    Type
                         _______ _______ _______ _____ _____    ______ ____

>  <TORSDO>
F 0

$$$$
