=
 OpenBabel11122413163D

 31 35  0  0  1  0  0  0  0  0999 V2000
  160.9600  208.5520  156.1040 C   0  0  0  0  0  0  0  0  0  0  0  0
  161.9710  209.0370  152.4690 C   0  0  2  0  0  3  0  0  0  0  0  0
  161.4620  207.9110  151.5830 C   0  0  0  0  0  0  0  0  0  0  0  0
  160.6420  205.5750  151.2840 C   0  0  2  0  0  3  0  0  0  0  0  0
  161.2050  209.1200  153.7640 C   0  0  0  0  0  0  0  0  0  0  0  0
  159.7350  209.2260  156.1420 C   0  0  0  0  0  3  0  0  0  0  0  0
  161.1860  206.7090  152.1090 C   0  0  0  0  0  3  0  0  0  0  0  0
  160.5730  211.0800  151.7700 C   0  0  0  0  0  0  0  0  0  0  0  0
  161.4450  207.9340  157.2480 O   0  0  0  0  0  1  0  0  0  0  0  0
  161.8100  209.2210  149.5350 C   0  0  0  0  0  3  0  0  0  0  0  0
  161.0180  204.3680  151.8410 F   0  0  0  0  0  0  0  0  0  0  0  0
  159.4490  210.4600  152.5660 C   0  0  0  0  0  2  0  0  0  0  0  0
  161.9330  210.4070  151.7430 C   0  0  2  0  0  3  0  0  0  0  0  0
  160.4180  212.1910  151.1090 N   0  0  0  0  0  0  0  0  0  0  0  0
  161.6930  208.4960  154.9150 C   0  0  0  0  0  3  0  0  0  0  0  0
  161.1210  205.6540  149.8350 C   0  0  0  0  0  2  0  0  0  0  0  0
  159.9780  209.8050  153.8030 C   0  0  0  0  0  0  0  0  0  0  0  0
  159.2420  209.8490  154.9910 C   0  0  0  0  0  3  0  0  0  0  0  0
  162.4980  210.2950  150.3240 C   0  0  0  0  0  2  0  0  0  0  0  0
  161.3820  208.0960  150.1090 C   0  0  0  0  0  0  0  0  0  0  0  0
  160.7830  207.0230  149.2530 C   0  0  0  0  0  2  0  0  0  0  0  0
  158.2310  212.7970  151.7400 O   0  0  0  0  0  0  0  0  0  0  0  0
  159.2330  213.0000  151.0020 C   0  0  0  0  0  0  0  0  0  0  0  0
  157.9600  213.2220  147.4410 C   0  0  1  0  0  3  0  0  0  0  0  0
  157.7240  214.4510  149.6170 C   0  0  0  0  0  2  0  0  0  0  0  0
  161.3130  213.4560  149.0710 O   0  0  0  0  0  1  0  0  0  0  0  0
  157.3860  212.2500  146.6230 O   0  0  0  0  0  1  0  0  0  0  0  0
  157.1100  213.3960  148.6960 C   0  0  0  0  0  2  0  0  0  0  0  0
  160.0150  213.8440  148.7290 C   0  0  2  0  0  3  0  0  0  0  0  0
  159.1700  214.1040  149.9870 C   0  0  2  0  0  3  0  0  0  0  0  0
  159.3760  212.7980  147.8170 C   0  0  0  0  0  2  0  0  0  0  0  0
  1  6  1  0  0  0  0
  1  9  1  0  0  0  0
  2  3  1  6  0  0  0
  2  5  1  0  0  0  0
  3  7  2  0  0  0  0
  4 11  1  1  0  0  0
  4  7  1  0  0  0  0
  5 17  2  0  0  0  0
  5 15  1  0  0  0  0
  8 12  1  0  0  0  0
 10 20  2  0  0  0  0
 10 19  1  0  0  0  0
 12 17  1  0  0  0  0
 13 19  1  6  0  0  0
 13  8  1  0  0  0  0
 13  2  1  0  0  0  0
 14  8  2  0  0  0  0
 15  1  2  0  0  0  0
 16  4  1  0  0  0  0
 17 18  1  0  0  0  0
 18  6  2  0  0  0  0
 20  3  1  0  0  0  0
 21 16  1  0  0  0  0
 21 20  1  0  0  0  0
 23 14  1  0  0  0  0
 23 22  2  0  0  0  0
 24 27  1  6  0  0  0
 24 31  1  0  0  0  0
 24 28  1  0  0  0  0
 25 30  1  0  0  0  0
 28 25  1  0  0  0  0
 29 26  1  1  0  0  0
 29 30  1  0  0  0  0
 30 23  1  1  0  0  0
 31 29  1  0  0  0  0
M  END
>  <MODEL>
1

>  <REMARK>
 VINA RESULT:      -6.6      0.000      0.000
  Name = 
  2 active torsions:
  status: ('A' for Active; 'I' for Inactive)
    1  A    between atoms: C_5  and  N_16
    2  A    between atoms: C_5  and  C_30
                            x       y       z     vdW  Elec       q    Type
                         _______ _______ _______ _____ _____    ______ ____

>  <TORSDO>
F 2

$$$$
=
 OpenBabel11122413163D

 31 35  0  0  1  0  0  0  0  0999 V2000
  160.7480  207.3430  156.2430 C   0  0  0  0  0  0  0  0  0  0  0  0
  161.9220  208.6220  152.8580 C   0  0  2  0  0  3  0  0  0  0  0  0
  161.5120  207.6930  151.7270 C   0  0  0  0  0  0  0  0  0  0  0  0
  160.8210  205.4450  150.8960 C   0  0  2  0  0  3  0  0  0  0  0  0
  161.0870  208.4020  154.0930 C   0  0  0  0  0  0  0  0  0  0  0  0
  159.4920  207.9500  156.3470 C   0  0  0  0  0  3  0  0  0  0  0  0
  161.2680  206.3970  151.9720 C   0  0  0  0  0  3  0  0  0  0  0  0
  160.4660  210.7160  152.5200 C   0  0  0  0  0  0  0  0  0  0  0  0
  161.2030  206.5140  157.2600 O   0  0  0  0  0  1  0  0  0  0  0  0
  161.9030  209.4180  150.0230 C   0  0  0  0  0  3  0  0  0  0  0  0
  161.2240  204.1610  151.2090 F   0  0  0  0  0  0  0  0  0  0  0  0
  159.3330  209.9020  153.0990 C   0  0  0  0  0  2  0  0  0  0  0  0
  161.8560  210.1130  152.4350 C   0  0  2  0  0  3  0  0  0  0  0  0
  160.2920  211.9350  152.0980 N   0  0  0  0  0  0  0  0  0  0  0  0
  161.5430  207.5660  155.1160 C   0  0  0  0  0  3  0  0  0  0  0  0
  161.3700  205.8460  149.5280 C   0  0  0  0  0  2  0  0  0  0  0  0
  159.8280  209.0190  154.2010 C   0  0  0  0  0  0  0  0  0  0  0  0
  159.0300  208.7850  155.3250 C   0  0  0  0  0  3  0  0  0  0  0  0
  162.4970  210.3240  151.0600 C   0  0  0  0  0  2  0  0  0  0  0  0
  161.5000  208.1830  150.3230 C   0  0  0  0  0  0  0  0  0  0  0  0
  160.9970  207.2950  149.2260 C   0  0  0  0  0  2  0  0  0  0  0  0
  158.1900  212.5250  151.2150 O   0  0  0  0  0  0  0  0  0  0  0  0
  159.0780  212.7060  152.0910 C   0  0  0  0  0  0  0  0  0  0  0  0
  157.2110  212.7830  155.3870 C   0  0  1  0  0  3  0  0  0  0  0  0
  159.4760  213.3690  154.4800 C   0  0  0  0  0  2  0  0  0  0  0  0
  156.7950  214.4530  152.0710 O   0  0  0  0  0  1  0  0  0  0  0  0
  156.4710  211.7930  156.0310 O   0  0  0  0  0  1  0  0  0  0  0  0
  158.6460  212.3030  155.1950 C   0  0  0  0  0  2  0  0  0  0  0  0
  157.3800  214.1670  153.3060 C   0  0  2  0  0  3  0  0  0  0  0  0
  158.8540  213.7610  153.1360 C   0  0  2  0  0  3  0  0  0  0  0  0
  156.5730  213.0940  154.0360 C   0  0  0  0  0  2  0  0  0  0  0  0
  1  6  1  0  0  0  0
  1  9  1  0  0  0  0
  2  3  1  6  0  0  0
  2  5  1  0  0  0  0
  3  7  2  0  0  0  0
  4 11  1  1  0  0  0
  4  7  1  0  0  0  0
  5 17  2  0  0  0  0
  5 15  1  0  0  0  0
  8 12  1  0  0  0  0
 10 20  2  0  0  0  0
 10 19  1  0  0  0  0
 12 17  1  0  0  0  0
 13 19  1  6  0  0  0
 13  8  1  0  0  0  0
 13  2  1  0  0  0  0
 14  8  2  0  0  0  0
 15  1  2  0  0  0  0
 16  4  1  0  0  0  0
 17 18  1  0  0  0  0
 18  6  2  0  0  0  0
 20  3  1  0  0  0  0
 21 16  1  0  0  0  0
 21 20  1  0  0  0  0
 22 23  2  0  0  0  0
 23 14  1  0  0  0  0
 24 27  1  6  0  0  0
 25 28  1  0  0  0  0
 28 24  1  0  0  0  0
 29 26  1  6  0  0  0
 29 31  1  0  0  0  0
 30 23  1  6  0  0  0
 30 29  1  0  0  0  0
 30 25  1  0  0  0  0
 31 24  1  0  0  0  0
M  END
>  <MODEL>
2

>  <REMARK>
 VINA RESULT:      -5.9      2.132      3.399
  Name = 
  2 active torsions:
  status: ('A' for Active; 'I' for Inactive)
    1  A    between atoms: C_5  and  N_16
    2  A    between atoms: C_5  and  C_30
                            x       y       z     vdW  Elec       q    Type
                         _______ _______ _______ _____ _____    ______ ____

>  <TORSDO>
F 2

$$$$
=
 OpenBabel11122413163D

 31 35  0  0  1  0  0  0  0  0999 V2000
  161.8170  213.0880  148.6700 C   0  0  0  0  0  0  0  0  0  0  0  0
  159.3290  214.1450  151.3480 C   0  0  2  0  0  3  0  0  0  0  0  0
  157.8920  213.9900  150.8790 C   0  0  0  0  0  0  0  0  0  0  0  0
  156.2020  213.8120  149.0530 C   0  0  2  0  0  3  0  0  0  0  0  0
  160.2790  213.3110  150.5260 C   0  0  0  0  0  0  0  0  0  0  0  0
  161.9830  211.7320  148.9680 C   0  0  0  0  0  3  0  0  0  0  0  0
  157.6020  214.0010  149.5700 C   0  0  0  0  0  3  0  0  0  0  0  0
  159.6190  212.3130  153.1300 C   0  0  0  0  0  0  0  0  0  0  0  0
  162.4990  213.6500  147.6000 O   0  0  0  0  0  1  0  0  0  0  0  0
  157.0180  214.1070  153.1720 C   0  0  0  0  0  3  0  0  0  0  0  0
  156.0610  214.4510  147.8370 F   0  0  0  0  0  0  0  0  0  0  0  0
  159.7060  211.3420  151.9770 C   0  0  0  0  0  2  0  0  0  0  0  0
  159.4890  213.7990  152.8520 C   0  0  2  0  0  3  0  0  0  0  0  0
  159.6660  211.9160  154.3700 N   0  0  0  0  0  0  0  0  0  0  0  0
  160.9630  213.8770  149.4460 C   0  0  0  0  0  3  0  0  0  0  0  0
  155.1630  214.3350  150.0430 C   0  0  0  0  0  2  0  0  0  0  0  0
  160.4510  211.9490  150.8310 C   0  0  0  0  0  0  0  0  0  0  0  0
  161.2980  211.1610  150.0460 C   0  0  0  0  0  3  0  0  0  0  0  0
  158.3840  214.4520  153.6870 C   0  0  0  0  0  2  0  0  0  0  0  0
  156.7820  213.9490  151.8690 C   0  0  0  0  0  0  0  0  0  0  0  0
  155.3800  213.6910  151.4090 C   0  0  0  0  0  2  0  0  0  0  0  0
  158.7840  209.8770  155.1480 O   0  0  0  0  0  0  0  0  0  0  0  0
  159.7960  210.5730  154.8660 C   0  0  0  0  0  0  0  0  0  0  0  0
  161.3170  207.1810  154.1340 C   0  0  1  0  0  3  0  0  0  0  0  0
  161.8210  209.6080  153.7380 C   0  0  0  0  0  2  0  0  0  0  0  0
  160.5140  209.1070  157.2320 O   0  0  0  0  0  1  0  0  0  0  0  0
  160.7500  206.0380  153.5740 O   0  0  0  0  0  1  0  0  0  0  0  0
  161.2140  208.3360  153.1420 C   0  0  0  0  0  2  0  0  0  0  0  0
  161.1820  208.7910  156.0470 C   0  0  2  0  0  3  0  0  0  0  0  0
  161.1590  209.9780  155.0690 C   0  0  2  0  0  3  0  0  0  0  0  0
  160.5860  207.5290  155.4270 C   0  0  0  0  0  2  0  0  0  0  0  0
  1  6  2  0  0  0  0
  1 15  1  0  0  0  0
  2  5  1  6  0  0  0
  2 13  1  0  0  0  0
  3  2  1  0  0  0  0
  3 20  1  0  0  0  0
  4 11  1  6  0  0  0
  4  7  1  0  0  0  0
  4 16  1  0  0  0  0
  5 17  1  0  0  0  0
  6 18  1  0  0  0  0
  7  3  2  0  0  0  0
  8 14  2  0  0  0  0
  9  1  1  0  0  0  0
 10 19  1  0  0  0  0
 12  8  1  0  0  0  0
 13  8  1  0  0  0  0
 13 19  1  1  0  0  0
 14 23  1  0  0  0  0
 15  5  2  0  0  0  0
 16 21  1  0  0  0  0
 17 12  1  0  0  0  0
 18 17  2  0  0  0  0
 20 10  2  0  0  0  0
 21 20  1  0  0  0  0
 23 22  2  0  0  0  0
 24 27  1  6  0  0  0
 24 31  1  0  0  0  0
 25 30  1  0  0  0  0
 28 25  1  0  0  0  0
 28 24  1  0  0  0  0
 29 26  1  1  0  0  0
 30 23  1  6  0  0  0
 30 29  1  0  0  0  0
 31 29  1  0  0  0  0
M  END
>  <MODEL>
3

>  <REMARK>
 VINA RESULT:      -5.2      3.161      7.686
  Name = 
  2 active torsions:
  status: ('A' for Active; 'I' for Inactive)
    1  A    between atoms: C_5  and  N_16
    2  A    between atoms: C_5  and  C_30
                            x       y       z     vdW  Elec       q    Type
                         _______ _______ _______ _____ _____    ______ ____

>  <TORSDO>
F 2

$$$$
=
 OpenBabel11122413163D

 31 35  0  0  1  0  0  0  0  0999 V2000
  162.3840  213.3820  147.9300 C   0  0  0  0  0  0  0  0  0  0  0  0
  159.7270  214.2460  150.5140 C   0  0  2  0  0  3  0  0  0  0  0  0
  158.3220  214.0240  149.9780 C   0  0  0  0  0  0  0  0  0  0  0  0
  156.7260  213.7950  148.0750 C   0  0  2  0  0  3  0  0  0  0  0  0
  160.7560  213.4830  149.7190 C   0  0  0  0  0  0  0  0  0  0  0  0
  162.6100  212.0310  148.2100 C   0  0  0  0  0  3  0  0  0  0  0  0
  158.0900  214.0480  148.6570 C   0  0  0  0  0  3  0  0  0  0  0  0
  160.0390  212.3950  152.2720 C   0  0  0  0  0  0  0  0  0  0  0  0
  163.0800  214.0030  146.9020 O   0  0  0  0  0  1  0  0  0  0  0  0
  157.3450  214.0450  152.2310 C   0  0  0  0  0  3  0  0  0  0  0  0
  156.6030  214.4510  146.8660 F   0  0  0  0  0  0  0  0  0  0  0  0
  160.2290  211.4550  151.1060 C   0  0  0  0  0  2  0  0  0  0  0  0
  159.8400  213.8780  152.0160 C   0  0  2  0  0  3  0  0  0  0  0  0
  160.0530  211.9750  153.5040 N   0  0  0  0  0  0  0  0  0  0  0  0
  161.4550  214.1070  148.6820 C   0  0  0  0  0  3  0  0  0  0  0  0
  155.6180  214.2400  149.0270 C   0  0  0  0  0  2  0  0  0  0  0  0
  160.9890  212.1260  150.0060 C   0  0  0  0  0  0  0  0  0  0  0  0
  161.9110  211.4020  149.2440 C   0  0  0  0  0  3  0  0  0  0  0  0
  158.6650  214.4520  152.8130 C   0  0  0  0  0  2  0  0  0  0  0  0
  157.1750  213.9030  150.9170 C   0  0  0  0  0  0  0  0  0  0  0  0
  155.8100  213.5800  150.3900 C   0  0  0  0  0  2  0  0  0  0  0  0
  160.7730  209.7470  153.2600 O   0  0  0  0  0  0  0  0  0  0  0  0
  160.2350  210.6310  153.9800 C   0  0  0  0  0  0  0  0  0  0  0  0
  159.1060  212.6120  157.0050 C   0  0  1  0  0  3  0  0  0  0  0  0
  158.3190  210.6860  155.6030 C   0  0  0  0  0  2  0  0  0  0  0  0
  162.0220  210.4120  156.2210 O   0  0  0  0  0  1  0  0  0  0  0  0
  159.0020  213.9880  157.1980 O   0  0  0  0  0  1  0  0  0  0  0  0
  158.2140  212.1930  155.8410 C   0  0  0  0  0  2  0  0  0  0  0  0
  160.6910  210.7450  156.4840 C   0  0  2  0  0  3  0  0  0  0  0  0
  159.7680  210.2530  155.3570 C   0  0  2  0  0  3  0  0  0  0  0  0
  160.5600  212.2490  156.7150 C   0  0  0  0  0  2  0  0  0  0  0  0
  1  6  2  0  0  0  0
  1 15  1  0  0  0  0
  2  5  1  6  0  0  0
  2 13  1  0  0  0  0
  3  2  1  0  0  0  0
  3 20  1  0  0  0  0
  4 11  1  6  0  0  0
  4  7  1  0  0  0  0
  4 16  1  0  0  0  0
  5 17  1  0  0  0  0
  6 18  1  0  0  0  0
  7  3  2  0  0  0  0
  8 14  2  0  0  0  0
  9  1  1  0  0  0  0
 10 19  1  0  0  0  0
 12  8  1  0  0  0  0
 13  8  1  0  0  0  0
 13 19  1  1  0  0  0
 14 23  1  0  0  0  0
 15  5  2  0  0  0  0
 16 21  1  0  0  0  0
 17 12  1  0  0  0  0
 18 17  2  0  0  0  0
 20 10  2  0  0  0  0
 21 20  1  0  0  0  0
 22 23  2  0  0  0  0
 24 27  1  6  0  0  0
 25 28  1  0  0  0  0
 28 24  1  0  0  0  0
 29 26  1  6  0  0  0
 29 31  1  0  0  0  0
 30 23  1  6  0  0  0
 30 25  1  0  0  0  0
 30 29  1  0  0  0  0
 31 24  1  0  0  0  0
M  END
>  <MODEL>
4

>  <REMARK>
 VINA RESULT:      -4.5      3.627      7.693
  Name = 
  2 active torsions:
  status: ('A' for Active; 'I' for Inactive)
    1  A    between atoms: C_5  and  N_16
    2  A    between atoms: C_5  and  C_30
                            x       y       z     vdW  Elec       q    Type
                         _______ _______ _______ _____ _____    ______ ____

>  <TORSDO>
F 2

$$$$
=
 OpenBabel11122413163D

 31 35  0  0  1  0  0  0  0  0999 V2000
  162.5290  213.4870  147.9040 C   0  0  0  0  0  0  0  0  0  0  0  0
  159.6970  214.2830  150.3170 C   0  0  2  0  0  3  0  0  0  0  0  0
  158.3330  214.0380  149.6910 C   0  0  0  0  0  0  0  0  0  0  0  0
  156.8660  213.7910  147.6890 C   0  0  2  0  0  3  0  0  0  0  0  0
  160.7880  213.5450  149.5860 C   0  0  0  0  0  0  0  0  0  0  0  0
  162.7630  212.1390  148.1890 C   0  0  0  0  0  3  0  0  0  0  0  0
  158.1850  214.0660  148.3590 C   0  0  0  0  0  3  0  0  0  0  0  0
  159.9310  212.4260  152.0810 C   0  0  0  0  0  0  0  0  0  0  0  0
  163.2770  214.1280  146.9260 O   0  0  0  0  0  1  0  0  0  0  0  0
  157.2140  214.0250  151.8770 C   0  0  0  0  0  3  0  0  0  0  0  0
  156.8080  214.4530  146.4780 F   0  0  0  0  0  0  0  0  0  0  0  0
  160.2140  211.4980  150.9240 C   0  0  0  0  0  2  0  0  0  0  0  0
  159.7210  213.9060  151.8210 C   0  0  2  0  0  3  0  0  0  0  0  0
  159.8750  211.9980  153.3090 N   0  0  0  0  0  0  0  0  0  0  0  0
  161.5400  214.1890  148.5980 C   0  0  0  0  0  3  0  0  0  0  0  0
  155.6910  214.2090  148.5710 C   0  0  0  0  0  2  0  0  0  0  0  0
  161.0290  212.1910  149.8780 C   0  0  0  0  0  0  0  0  0  0  0  0
  162.0110  211.4890  149.1740 C   0  0  0  0  0  3  0  0  0  0  0  0
  158.4860  214.4530  152.5450 C   0  0  0  0  0  2  0  0  0  0  0  0
  157.1300  213.8880  150.5540 C   0  0  0  0  0  0  0  0  0  0  0  0
  155.8090  213.5430  149.9390 C   0  0  0  0  0  2  0  0  0  0  0  0
  160.4690  209.7370  153.0310 O   0  0  0  0  0  0  0  0  0  0  0  0
  160.0520  210.6540  153.7890 C   0  0  0  0  0  0  0  0  0  0  0  0
  162.0430  210.6800  157.0120 C   0  0  1  0  0  3  0  0  0  0  0  0
  159.8560  211.5400  156.1300 C   0  0  0  0  0  2  0  0  0  0  0  0
  160.4620  208.0350  154.9000 O   0  0  0  0  0  1  0  0  0  0  0  0
  163.3750  211.0100  157.2490 O   0  0  0  0  0  1  0  0  0  0  0  0
  161.3210  211.8810  156.4100 C   0  0  0  0  0  2  0  0  0  0  0  0
  160.5220  209.1240  155.7710 C   0  0  2  0  0  3  0  0  0  0  0  0
  159.7270  210.3180  155.2150 C   0  0  2  0  0  3  0  0  0  0  0  0
  161.9770  209.4910  156.0570 C   0  0  0  0  0  2  0  0  0  0  0  0
  1  6  2  0  0  0  0
  1 15  1  0  0  0  0
  2  5  1  6  0  0  0
  2 13  1  0  0  0  0
  3  2  1  0  0  0  0
  3 20  1  0  0  0  0
  4 11  1  6  0  0  0
  4  7  1  0  0  0  0
  4 16  1  0  0  0  0
  5 17  1  0  0  0  0
  6 18  1  0  0  0  0
  7  3  2  0  0  0  0
  8 14  2  0  0  0  0
  9  1  1  0  0  0  0
 10 19  1  0  0  0  0
 12  8  1  0  0  0  0
 13  8  1  0  0  0  0
 13 19  1  6  0  0  0
 14 23  1  0  0  0  0
 15  5  2  0  0  0  0
 16 21  1  0  0  0  0
 17 12  1  0  0  0  0
 18 17  2  0  0  0  0
 20 10  2  0  0  0  0
 21 20  1  0  0  0  0
 22 23  2  0  0  0  0
 24 27  1  6  0  0  0
 25 28  1  0  0  0  0
 28 24  1  0  0  0  0
 29 26  1  6  0  0  0
 29 31  1  0  0  0  0
 30 23  1  6  0  0  0
 30 29  1  0  0  0  0
 30 25  1  0  0  0  0
 31 24  1  0  0  0  0
M  END
>  <MODEL>
5

>  <REMARK>
 VINA RESULT:      -4.2      3.602      7.915
  Name = 
  2 active torsions:
  status: ('A' for Active; 'I' for Inactive)
    1  A    between atoms: C_5  and  N_16
    2  A    between atoms: C_5  and  C_30
                            x       y       z     vdW  Elec       q    Type
                         _______ _______ _______ _____ _____    ______ ____

>  <TORSDO>
F 2

$$$$
=
 OpenBabel11122413163D

 31 35  0  0  1  0  0  0  0  0999 V2000
  161.9090  211.5810  149.8360 C   0  0  0  0  0  0  0  0  0  0  0  0
  159.3450  213.5480  151.8450 C   0  0  2  0  0  3  0  0  0  0  0  0
  157.9860  213.5670  151.1650 C   0  0  0  0  0  0  0  0  0  0  0  0
  156.5650  213.3530  149.1260 C   0  0  2  0  0  3  0  0  0  0  0  0
  160.2070  212.4200  151.3400 C   0  0  0  0  0  0  0  0  0  0  0  0
  161.7490  210.2980  150.3680 C   0  0  0  0  0  3  0  0  0  0  0  0
  157.8890  213.3840  149.8400 C   0  0  0  0  0  3  0  0  0  0  0  0
  159.0020  212.0620  153.9160 C   0  0  0  0  0  0  0  0  0  0  0  0
  162.8330  211.8020  148.8250 O   0  0  0  0  0  1  0  0  0  0  0  0
  156.8460  214.2660  153.2250 C   0  0  0  0  0  3  0  0  0  0  0  0
  156.7290  213.7670  147.8180 F   0  0  0  0  0  0  0  0  0  0  0  0
  159.0460  210.8920  152.9620 C   0  0  0  0  0  2  0  0  0  0  0  0
  159.2200  213.4680  153.3890 C   0  0  2  0  0  3  0  0  0  0  0  0
  158.7930  211.9040  155.1910 N   0  0  0  0  0  0  0  0  0  0  0  0
  161.1360  212.6410  150.3190 C   0  0  0  0  0  3  0  0  0  0  0  0
  155.5290  214.2300  149.8270 C   0  0  0  0  0  2  0  0  0  0  0  0
  160.0520  211.1310  151.8810 C   0  0  0  0  0  0  0  0  0  0  0  0
  160.8190  210.0710  151.3870 C   0  0  0  0  0  3  0  0  0  0  0  0
  158.1680  214.4530  153.9070 C   0  0  0  0  0  2  0  0  0  0  0  0
  156.7650  213.9110  151.9430 C   0  0  0  0  0  0  0  0  0  0  0  0
  155.4170  213.8260  151.2940 C   0  0  0  0  0  2  0  0  0  0  0  0
  157.5010  210.0270  155.7840 O   0  0  0  0  0  0  0  0  0  0  0  0
  158.5750  210.6760  155.9070 C   0  0  0  0  0  0  0  0  0  0  0  0
  162.3400  210.3320  155.6700 C   0  0  1  0  0  3  0  0  0  0  0  0
  160.6180  211.2470  157.2500 C   0  0  0  0  0  2  0  0  0  0  0  0
  159.4720  207.9460  155.8530 O   0  0  0  0  0  1  0  0  0  0  0  0
  163.2140  210.6600  154.6360 O   0  0  0  0  0  1  0  0  0  0  0  0
  161.5940  211.5840  156.1210 C   0  0  0  0  0  2  0  0  0  0  0  0
  160.3730  208.9150  156.2980 C   0  0  2  0  0  3  0  0  0  0  0  0
  159.6320  210.1510  156.8350 C   0  0  2  0  0  3  0  0  0  0  0  0
  161.3520  209.2750  155.1830 C   0  0  0  0  0  2  0  0  0  0  0  0
  1 15  2  0  0  0  0
  1  6  1  0  0  0  0
  2  3  1  6  0  0  0
  2 13  1  0  0  0  0
  3 20  1  0  0  0  0
  4 11  1  6  0  0  0
  4 16  1  0  0  0  0
  4  7  1  0  0  0  0
  5  2  1  0  0  0  0
  5 17  2  0  0  0  0
  6 18  2  0  0  0  0
  7  3  2  0  0  0  0
  8 14  2  0  0  0  0
  9  1  1  0  0  0  0
 10 19  1  0  0  0  0
 12  8  1  0  0  0  0
 13 19  1  6  0  0  0
 13  8  1  0  0  0  0
 14 23  1  0  0  0  0
 15  5  1  0  0  0  0
 16 21  1  0  0  0  0
 17 12  1  0  0  0  0
 18 17  1  0  0  0  0
 20 10  2  0  0  0  0
 21 20  1  0  0  0  0
 22 23  2  0  0  0  0
 24 27  1  6  0  0  0
 24 28  1  0  0  0  0
 28 25  1  0  0  0  0
 29 26  1  6  0  0  0
 29 30  1  0  0  0  0
 30 23  1  6  0  0  0
 30 25  1  0  0  0  0
 31 24  1  0  0  0  0
 31 29  1  0  0  0  0
M  END
>  <MODEL>
6

>  <REMARK>
 VINA RESULT:      -4.1      3.254      7.391
  Name = 
  2 active torsions:
  status: ('A' for Active; 'I' for Inactive)
    1  A    between atoms: C_5  and  N_16
    2  A    between atoms: C_5  and  C_30
                            x       y       z     vdW  Elec       q    Type
                         _______ _______ _______ _____ _____    ______ ____

>  <TORSDO>
F 2

$$$$
=
 OpenBabel11122413163D

 31 35  0  0  1  0  0  0  0  0999 V2000
  161.0890  201.5530  150.3580 C   0  0  0  0  0  0  0  0  0  0  0  0
  162.1350  203.5420  147.2870 C   0  0  2  0  0  3  0  0  0  0  0  0
  161.0690  203.5140  146.2040 C   0  0  0  0  0  0  0  0  0  0  0  0
  159.0820  202.4590  145.1270 C   0  0  2  0  0  3  0  0  0  0  0  0
  161.5680  203.1890  148.6380 C   0  0  0  0  0  0  0  0  0  0  0  0
  160.4480  202.5370  151.1180 C   0  0  0  0  0  3  0  0  0  0  0  0
  160.1800  202.5110  146.1550 C   0  0  0  0  0  3  0  0  0  0  0  0
  162.0990  205.9630  148.1540 C   0  0  0  0  0  0  0  0  0  0  0  0
  161.1680  200.2520  150.8340 O   0  0  0  0  0  1  0  0  0  0  0  0
  162.0510  205.4400  145.0380 C   0  0  0  0  0  3  0  0  0  0  0  0
  158.7310  201.1450  144.8840 F   0  0  0  0  0  0  0  0  0  0  0  0
  160.8350  205.5790  148.8850 C   0  0  0  0  0  2  0  0  0  0  0  0
  162.8540  204.9140  147.3580 C   0  0  2  0  0  3  0  0  0  0  0  0
  162.5770  207.1730  148.1940 N   0  0  0  0  0  0  0  0  0  0  0  0
  161.6450  201.8780  149.1170 C   0  0  0  0  0  3  0  0  0  0  0  0
  159.4980  203.1390  143.8250 C   0  0  0  0  0  2  0  0  0  0  0  0
  160.9310  204.1800  149.4060 C   0  0  0  0  0  0  0  0  0  0  0  0
  160.3650  203.8490  150.6410 C   0  0  0  0  0  3  0  0  0  0  0  0
  163.2340  205.4090  145.9590 C   0  0  0  0  0  2  0  0  0  0  0  0
  161.0800  204.5310  145.1170 C   0  0  0  0  0  0  0  0  0  0  0  0
  159.9690  204.5620  144.1130 C   0  0  0  0  0  2  0  0  0  0  0  0
  161.0300  208.9290  148.4550 O   0  0  0  0  0  0  0  0  0  0  0  0
  162.0430  208.3150  148.8870 C   0  0  0  0  0  0  0  0  0  0  0  0
  160.7400  209.6580  152.1810 C   0  0  1  0  0  3  0  0  0  0  0  0
  162.3510  207.9240  151.3480 C   0  0  0  0  0  2  0  0  0  0  0  0
  162.6850  211.0820  149.3270 O   0  0  0  0  0  1  0  0  0  0  0  0
  159.4340  209.8710  152.6170 O   0  0  0  0  0  1  0  0  0  0  0  0
  160.9270  208.1830  151.8400 C   0  0  0  0  0  2  0  0  0  0  0  0
  162.4350  210.2890  150.4490 C   0  0  2  0  0  3  0  0  0  0  0  0
  162.7010  208.8050  150.1440 C   0  0  2  0  0  3  0  0  0  0  0  0
  161.0120  210.5220  150.9530 C   0  0  0  0  0  2  0  0  0  0  0  0
  1  9  1  0  0  0  0
  1  6  1  0  0  0  0
  2  3  1  6  0  0  0
  2 13  1  0  0  0  0
  2  5  1  0  0  0  0
  4 11  1  6  0  0  0
  4  7  1  0  0  0  0
  5 15  1  0  0  0  0
  5 17  2  0  0  0  0
  7  3  2  0  0  0  0
  8 14  2  0  0  0  0
  8 12  1  0  0  0  0
 10 20  2  0  0  0  0
 10 19  1  0  0  0  0
 12 17  1  0  0  0  0
 13 19  1  6  0  0  0
 13  8  1  0  0  0  0
 14 23  1  0  0  0  0
 15  1  2  0  0  0  0
 16 21  1  0  0  0  0
 16  4  1  0  0  0  0
 17 18  1  0  0  0  0
 18  6  2  0  0  0  0
 20  3  1  0  0  0  0
 21 20  1  0  0  0  0
 22 23  2  0  0  0  0
 24 27  1  6  0  0  0
 25 28  1  0  0  0  0
 28 24  1  0  0  0  0
 29 26  1  6  0  0  0
 29 31  1  0  0  0  0
 30 23  1  6  0  0  0
 30 29  1  0  0  0  0
 30 25  1  0  0  0  0
 31 24  1  0  0  0  0
M  END
>  <MODEL>
7

>  <REMARK>
 VINA RESULT:      -3.9      4.220      6.955
  Name = 
  2 active torsions:
  status: ('A' for Active; 'I' for Inactive)
    1  A    between atoms: C_5  and  N_16
    2  A    between atoms: C_5  and  C_30
                            x       y       z     vdW  Elec       q    Type
                         _______ _______ _______ _____ _____    ______ ____

>  <TORSDO>
F 2

$$$$
=
 OpenBabel11122413163D

 31 35  0  0  1  0  0  0  0  0999 V2000
  162.4490  211.2420  148.9520 C   0  0  0  0  0  0  0  0  0  0  0  0
  161.5520  210.7550  152.6180 C   0  0  2  0  0  3  0  0  0  0  0  0
  160.1470  211.2450  152.9270 C   0  0  0  0  0  0  0  0  0  0  0  0
  158.1660  212.6630  152.3930 C   0  0  2  0  0  3  0  0  0  0  0  0
  161.7420  210.4980  151.1450 C   0  0  0  0  0  0  0  0  0  0  0  0
  162.0240  210.0290  148.4010 C   0  0  0  0  0  3  0  0  0  0  0  0
  159.5680  212.1740  152.1520 C   0  0  0  0  0  3  0  0  0  0  0  0
  161.3920  208.1960  152.8150 C   0  0  0  0  0  0  0  0  0  0  0  0
  163.0100  212.2140  148.1360 O   0  0  0  0  0  1  0  0  0  0  0  0
  160.0640  210.0010  155.0430 C   0  0  0  0  0  3  0  0  0  0  0  0
  158.0330  213.9550  151.9230 F   0  0  0  0  0  0  0  0  0  0  0  0
  160.7060  208.2330  151.4710 C   0  0  0  0  0  2  0  0  0  0  0  0
  161.9140  209.4830  153.4270 C   0  0  2  0  0  3  0  0  0  0  0  0
  161.5660  207.0840  153.4700 N   0  0  0  0  0  0  0  0  0  0  0  0
  162.3050  211.4780  150.3220 C   0  0  0  0  0  3  0  0  0  0  0  0
  157.7970  212.6040  153.8740 C   0  0  0  0  0  2  0  0  0  0  0  0
  161.3220  209.2750  150.5920 C   0  0  0  0  0  0  0  0  0  0  0  0
  161.4570  209.0470  149.2200 C   0  0  0  0  0  3  0  0  0  0  0  0
  161.5100  209.6330  154.8970 C   0  0  0  0  0  2  0  0  0  0  0  0
  159.4520  210.7910  154.1610 C   0  0  0  0  0  0  0  0  0  0  0  0
  158.0300  211.1940  154.4090 C   0  0  0  0  0  2  0  0  0  0  0  0
  160.0290  205.3030  153.3720 O   0  0  0  0  0  0  0  0  0  0  0  0
  161.1690  205.7570  153.0830 C   0  0  0  0  0  0  0  0  0  0  0  0
  161.4400  204.6640  149.4660 C   0  0  1  0  0  3  0  0  0  0  0  0
  162.8890  205.6590  151.2570 C   0  0  0  0  0  2  0  0  0  0  0  0
  160.7210  202.9430  152.7030 O   0  0  0  0  0  1  0  0  0  0  0  0
  160.6340  204.9600  148.3690 O   0  0  0  0  0  1  0  0  0  0  0  0
  162.0080  205.9560  150.0430 C   0  0  0  0  0  2  0  0  0  0  0  0
  161.4770  203.6140  151.7390 C   0  0  2  0  0  3  0  0  0  0  0  0
  162.1250  204.8770  152.3310 C   0  0  2  0  0  3  0  0  0  0  0  0
  160.6140  203.9320  150.5200 C   0  0  0  0  0  2  0  0  0  0  0  0
  1 15  1  0  0  0  0
  2  5  1  6  0  0  0
  2  3  1  0  0  0  0
  2 13  1  0  0  0  0
  3 20  1  0  0  0  0
  4 11  1  1  0  0  0
  4 16  1  0  0  0  0
  6  1  2  0  0  0  0
  6 18  1  0  0  0  0
  7  4  1  0  0  0  0
  7  3  2  0  0  0  0
  8 13  1  0  0  0  0
  8 14  2  0  0  0  0
  9  1  1  0  0  0  0
 12  8  1  0  0  0  0
 13 19  1  1  0  0  0
 15  5  2  0  0  0  0
 16 21  1  0  0  0  0
 17  5  1  0  0  0  0
 17 12  1  0  0  0  0
 18 17  2  0  0  0  0
 19 10  1  0  0  0  0
 20 21  1  0  0  0  0
 20 10  2  0  0  0  0
 23 22  2  0  0  0  0
 23 14  1  0  0  0  0
 24 27  1  6  0  0  0
 24 28  1  0  0  0  0
 24 31  1  0  0  0  0
 25 30  1  0  0  0  0
 28 25  1  0  0  0  0
 29 30  1  0  0  0  0
 29 26  1  1  0  0  0
 30 23  1  6  0  0  0
 31 29  1  0  0  0  0
M  END
>  <MODEL>
8

>  <REMARK>
 VINA RESULT:      -3.8      3.348      7.380
  Name = 
  2 active torsions:
  status: ('A' for Active; 'I' for Inactive)
    1  A    between atoms: C_5  and  N_16
    2  A    between atoms: C_5  and  C_30
                            x       y       z     vdW  Elec       q    Type
                         _______ _______ _______ _____ _____    ______ ____

>  <TORSDO>
F 2

$$$$
