=
 OpenBabel11122414263D

 34 41  0  0  1  0  0  0  0  0999 V2000
  161.6970  209.4140  151.4450 C   0  0  0  0  0  0  0  0  0  0  0  0
  161.2470  211.3410  153.0360 C   0  0  0  0  0  2  0  0  0  0  0  0
  161.5620  203.1170  149.8630 C   0  0  1  0  0  3  0  0  0  0  0  0
  161.6130  207.4700  149.9660 C   0  0  0  0  0  0  0  0  0  0  0  0
  160.9820  205.2630  150.8310 C   0  0  0  0  0  0  0  0  0  0  0  0
  160.5800  202.8340  151.7280 C   0  0  0  0  0  2  0  0  0  0  0  0
  161.3940  201.9370  150.7940 C   0  0  0  0  0  2  0  0  0  0  0  0
  160.7870  204.2590  147.9000 C   0  0  0  0  0  2  0  0  0  0  0  0
  161.5530  209.1190  153.9520 C   0  0  2  0  0  3  0  0  0  0  0  0
  159.7330  208.5340  156.4330 C   0  0  0  0  0  2  0  0  0  0  0  0
  160.7920  205.8760  152.1120 N   0  0  0  0  0  2  0  0  0  0  0  0
  161.6940  205.4240  148.3820 C   0  0  0  0  0  2  0  0  0  0  0  0
  160.8030  207.8070  153.6520 C   0  0  1  0  0  3  0  0  0  0  0  0
  161.0470  211.4350  154.5370 C   0  0  0  0  0  2  0  0  0  0  0  0
  161.3840  206.0140  149.7660 C   0  0  0  0  0  0  0  0  0  0  0  0
  161.1290  202.9400  148.4830 N   0  0  0  0  0  2  0  0  0  0  0  0
  159.6090  209.6080  155.4510 N   0  0  0  0  0  0  0  0  0  0  0  0
  161.5730  208.0240  151.2630 C   0  0  0  0  0  0  0  0  0  0  0  0
  160.5020  203.8660  150.6210 C   0  0  2  0  0  3  0  0  0  0  0  0
  161.4790  207.1140  152.4630 C   0  0  2  0  0  3  0  0  0  0  0  0
  161.9290  209.7010  149.0490 C   0  0  0  0  0  3  0  0  0  0  0  0
  159.6150  207.1760  155.7560 C   0  0  0  0  0  2  0  0  0  0  0  0
  161.7970  208.3220  148.8660 C   0  0  0  0  0  3  0  0  0  0  0  0
  160.8190  206.8930  154.8720 C   0  0  0  0  0  2  0  0  0  0  0  0
  160.9790  209.9990  155.0770 C   0  0  1  0  0  3  0  0  0  0  0  0
  161.8700  210.2460  150.3320 C   0  0  0  0  0  3  0  0  0  0  0  0
  161.5900  209.9610  152.7680 N   0  0  0  0  0  0  0  0  0  0  0  0
  159.0230  210.6420  156.1090 O   0  0  0  0  0  0  0  0  0  0  0  0
  157.7180  210.6940  155.6060 C   0  0  0  0  0  2  0  0  0  0  0  0
  158.3340  214.1050  154.9950 C   0  0  0  0  0  2  0  0  0  0  0  0
  157.6360  212.2480  153.7310 N   0  0  0  0  0  2  0  0  0  0  0  0
  157.3900  212.1070  155.1570 C   0  0  2  0  0  3  0  0  0  0  0  0
  158.1860  213.5770  153.5950 C   0  0  0  0  0  2  0  0  0  0  0  0
  158.1820  213.0230  155.8650 O   0  0  0  0  0  0  0  0  0  0  0  0
  1 27  1  0  0  0  0
  2 14  1  0  0  0  0
  3 19  1  0  0  0  0
  3  7  1  1  0  0  0
  4 18  2  0  0  0  0
  5 11  1  0  0  0  0
  7  6  1  0  0  0  0
  8 12  1  0  0  0  0
  8 16  1  0  0  0  0
  9 27  1  6  0  0  0
  9 25  1  0  0  0  0
 11 20  1  0  0  0  0
 12 15  1  0  0  0  0
 13  9  1  0  0  0  0
 13 24  1  1  0  0  0
 15  4  1  0  0  0  0
 15  5  2  0  0  0  0
 16  3  1  0  0  0  0
 17 28  1  0  0  0  0
 17 10  1  0  0  0  0
 18  1  1  0  0  0  0
 19  5  1  0  0  0  0
 19  6  1  1  0  0  0
 20 18  1  6  0  0  0
 20 13  1  0  0  0  0
 21 26  1  0  0  0  0
 22 10  1  0  0  0  0
 23 21  2  0  0  0  0
 23  4  1  0  0  0  0
 24 22  1  0  0  0  0
 25 14  1  6  0  0  0
 25 17  1  0  0  0  0
 26  1  2  0  0  0  0
 27  2  1  0  0  0  0
 29 28  1  0  0  0  0
 30 34  1  0  0  0  0
 31 32  1  0  0  0  0
 32 29  1  1  0  0  0
 32 34  1  0  0  0  0
 33 31  1  0  0  0  0
 33 30  1  0  0  0  0
M  END
>  <MODEL>
1

>  <REMARK>
 VINA RESULT:      -8.3      0.000      0.000
  Name = 
  3 active torsions:
  status: ('A' for Active; 'I' for Inactive)
    1  A    between atoms: N_17  and  O_28
    2  A    between atoms: O_28  and  C_29
    3  A    between atoms: C_29  and  C_32
                            x       y       z     vdW  Elec       q    Type
                         _______ _______ _______ _____ _____    ______ ____

>  <TORSDO>
F 3

$$$$
=
 OpenBabel11122414263D

 34 41  0  0  1  0  0  0  0  0999 V2000
  161.4680  208.2120  149.5440 C   0  0  0  0  0  0  0  0  0  0  0  0
  161.7110  206.7180  147.5050 C   0  0  0  0  0  2  0  0  0  0  0  0
  160.5420  209.1530  155.9020 C   0  0  1  0  0  3  0  0  0  0  0  0
  161.6360  209.3640  151.6930 C   0  0  0  0  0  0  0  0  0  0  0  0
  161.2190  208.1680  153.7930 C   0  0  0  0  0  0  0  0  0  0  0  0
  160.5290  207.0310  156.0520 C   0  0  0  0  0  2  0  0  0  0  0  0
  159.9750  208.1730  156.9060 C   0  0  0  0  0  2  0  0  0  0  0  0
  162.3490  210.6210  155.3220 C   0  0  0  0  0  2  0  0  0  0  0  0
  160.4560  205.8990  149.4110 C   0  0  2  0  0  3  0  0  0  0  0  0
  160.8280  202.8310  149.9190 C   0  0  0  0  0  2  0  0  0  0  0  0
  161.0090  206.9820  153.0170 N   0  0  0  0  0  2  0  0  0  0  0  0
  161.6770  210.6780  153.9230 C   0  0  0  0  0  2  0  0  0  0  0  0
  160.8750  205.7420  150.8850 C   0  0  1  0  0  3  0  0  0  0  0  0
  161.2770  205.2980  147.1910 C   0  0  0  0  0  2  0  0  0  0  0  0
  161.5230  209.3450  153.1750 C   0  0  0  0  0  0  0  0  0  0  0  0
  161.4490  210.1730  156.4110 N   0  0  0  0  0  2  0  0  0  0  0  0
  161.6400  203.7170  149.0890 N   0  0  0  0  0  0  0  0  0  0  0  0
  161.2750  208.2290  150.9380 C   0  0  0  0  0  0  0  0  0  0  0  0
  161.3430  208.0470  155.2750 C   0  0  2  0  0  3  0  0  0  0  0  0
  160.6030  207.0600  151.6180 C   0  0  2  0  0  3  0  0  0  0  0  0
  162.3540  210.4670  149.6470 C   0  0  0  0  0  3  0  0  0  0  0  0
  160.8460  203.2920  151.3690 C   0  0  0  0  0  2  0  0  0  0  0  0
  162.1710  210.4800  151.0320 C   0  0  0  0  0  3  0  0  0  0  0  0
  160.1000  204.6050  151.5410 C   0  0  0  0  0  2  0  0  0  0  0  0
  160.7180  204.6950  148.4880 C   0  0  1  0  0  3  0  0  0  0  0  0
  162.0120  209.3340  148.9060 C   0  0  0  0  0  3  0  0  0  0  0  0
  161.1520  207.0230  148.8050 N   0  0  0  0  0  0  0  0  0  0  0  0
  162.1510  202.9330  148.1050 O   0  0  0  0  0  0  0  0  0  0  0  0
  161.2090  201.9130  147.9310 C   0  0  0  0  0  2  0  0  0  0  0  0
  160.8360  199.4190  145.4770 C   0  0  0  0  0  2  0  0  0  0  0  0
  160.3380  201.7110  145.6640 N   0  0  0  0  0  2  0  0  0  0  0  0
  161.3870  201.2660  146.5690 C   0  0  2  0  0  3  0  0  0  0  0  0
  160.0150  200.5350  144.8910 C   0  0  0  0  0  2  0  0  0  0  0  0
  161.3370  199.8710  146.7000 O   0  0  0  0  0  0  0  0  0  0  0  0
  1 18  1  0  0  0  0
  2 27  1  0  0  0  0
  3 16  1  0  0  0  0
  3  7  1  1  0  0  0
  4 15  1  0  0  0  0
  5 19  1  0  0  0  0
  6  7  1  0  0  0  0
  8 16  1  0  0  0  0
  9 27  1  6  0  0  0
  9 13  1  0  0  0  0
 10 22  1  0  0  0  0
 11  5  1  0  0  0  0
 12  8  1  0  0  0  0
 13 24  1  1  0  0  0
 13 20  1  0  0  0  0
 14  2  1  0  0  0  0
 15  5  2  0  0  0  0
 15 12  1  0  0  0  0
 17 10  1  0  0  0  0
 18  4  2  0  0  0  0
 19  3  1  0  0  0  0
 19  6  1  1  0  0  0
 20 18  1  6  0  0  0
 20 11  1  0  0  0  0
 21 23  2  0  0  0  0
 22 24  1  0  0  0  0
 23  4  1  0  0  0  0
 25 14  1  6  0  0  0
 25 17  1  0  0  0  0
 25  9  1  0  0  0  0
 26  1  2  0  0  0  0
 26 21  1  0  0  0  0
 27  1  1  0  0  0  0
 28 17  1  0  0  0  0
 29 28  1  0  0  0  0
 30 34  1  0  0  0  0
 31 32  1  0  0  0  0
 32 34  1  0  0  0  0
 32 29  1  1  0  0  0
 33 30  1  0  0  0  0
 33 31  1  0  0  0  0
M  END
>  <MODEL>
2

>  <REMARK>
 VINA RESULT:      -8.2      3.695      8.681
  Name = 
  3 active torsions:
  status: ('A' for Active; 'I' for Inactive)
    1  A    between atoms: N_17  and  O_28
    2  A    between atoms: O_28  and  C_29
    3  A    between atoms: C_29  and  C_32
                            x       y       z     vdW  Elec       q    Type
                         _______ _______ _______ _____ _____    ______ ____

>  <TORSDO>
F 3

$$$$
=
 OpenBabel11122414263D

 34 41  0  0  1  0  0  0  0  0999 V2000
  161.8670  208.4530  150.3200 C   0  0  0  0  0  0  0  0  0  0  0  0
  161.5940  210.4520  151.8610 C   0  0  0  0  0  2  0  0  0  0  0  0
  161.4760  202.1020  149.0200 C   0  0  1  0  0  3  0  0  0  0  0  0
  161.6190  206.4540  148.9360 C   0  0  0  0  0  0  0  0  0  0  0  0
  161.0230  204.2980  149.9430 C   0  0  0  0  0  0  0  0  0  0  0  0
  160.6540  201.9160  150.9730 C   0  0  0  0  0  2  0  0  0  0  0  0
  161.3670  200.9640  150.0110 C   0  0  0  0  0  2  0  0  0  0  0  0
  160.5560  203.1820  147.0850 C   0  0  0  0  0  2  0  0  0  0  0  0
  161.9360  208.2620  152.8400 C   0  0  2  0  0  3  0  0  0  0  0  0
  160.3270  207.8180  155.4900 C   0  0  0  0  0  2  0  0  0  0  0  0
  160.9570  204.9650  151.2100 N   0  0  0  0  0  2  0  0  0  0  0  0
  161.5240  204.3440  147.4380 C   0  0  0  0  0  2  0  0  0  0  0  0
  161.1390  206.9560  152.6610 C   0  0  1  0  0  3  0  0  0  0  0  0
  161.5260  210.6100  153.3680 C   0  0  0  0  0  2  0  0  0  0  0  0
  161.3460  204.9970  148.8170 C   0  0  0  0  0  0  0  0  0  0  0  0
  160.9230  201.8800  147.6910 N   0  0  0  0  0  2  0  0  0  0  0  0
  160.1390  208.8550  154.4780 N   0  0  0  0  0  0  0  0  0  0  0  0
  161.7020  207.0600  150.2070 C   0  0  0  0  0  0  0  0  0  0  0  0
  160.5000  202.9040  149.8340 C   0  0  2  0  0  3  0  0  0  0  0  0
  161.6950  206.2010  151.4480 C   0  0  2  0  0  3  0  0  0  0  0  0
  161.8970  208.6380  147.9020 C   0  0  0  0  0  3  0  0  0  0  0  0
  160.1250  206.4370  154.8840 C   0  0  0  0  0  2  0  0  0  0  0  0
  161.7230  207.2560  147.7900 C   0  0  0  0  0  3  0  0  0  0  0  0
  161.2420  206.0920  153.9120 C   0  0  0  0  0  2  0  0  0  0  0  0
  161.4790  209.1990  153.9720 C   0  0  1  0  0  3  0  0  0  0  0  0
  161.9600  209.2360  149.1620 C   0  0  0  0  0  3  0  0  0  0  0  0
  161.8860  209.0550  151.6230 N   0  0  0  0  0  0  0  0  0  0  0  0
  159.6310  209.9260  155.1400 O   0  0  0  0  0  0  0  0  0  0  0  0
  159.9900  209.7270  156.4770 C   0  0  0  0  0  2  0  0  0  0  0  0
  160.1640  213.2090  156.9620 C   0  0  0  0  0  2  0  0  0  0  0  0
  158.5150  211.5420  157.1620 N   0  0  0  0  0  2  0  0  0  0  0  0
  159.8740  211.0300  157.2480 C   0  0  2  0  0  3  0  0  0  0  0  0
  158.6810  212.9720  157.0480 C   0  0  0  0  0  2  0  0  0  0  0  0
  160.7680  211.9730  156.7180 O   0  0  0  0  0  0  0  0  0  0  0  0
  1 27  1  0  0  0  0
  2 14  1  0  0  0  0
  3 19  1  0  0  0  0
  3  7  1  1  0  0  0
  4 18  2  0  0  0  0
  5 11  1  0  0  0  0
  7  6  1  0  0  0  0
  8 12  1  0  0  0  0
  8 16  1  0  0  0  0
  9 27  1  6  0  0  0
  9 25  1  0  0  0  0
 11 20  1  0  0  0  0
 12 15  1  0  0  0  0
 13  9  1  0  0  0  0
 13 24  1  1  0  0  0
 15  4  1  0  0  0  0
 15  5  2  0  0  0  0
 16  3  1  0  0  0  0
 17 28  1  0  0  0  0
 17 10  1  0  0  0  0
 18  1  1  0  0  0  0
 19  5  1  0  0  0  0
 19  6  1  1  0  0  0
 20 18  1  6  0  0  0
 20 13  1  0  0  0  0
 21 26  1  0  0  0  0
 22 10  1  0  0  0  0
 23 21  2  0  0  0  0
 23  4  1  0  0  0  0
 24 22  1  0  0  0  0
 25 14  1  6  0  0  0
 25 17  1  0  0  0  0
 26  1  2  0  0  0  0
 27  2  1  0  0  0  0
 28 29  1  0  0  0  0
 30 33  1  0  0  0  0
 31 32  1  0  0  0  0
 32 29  1  6  0  0  0
 33 31  1  0  0  0  0
 34 30  1  0  0  0  0
 34 32  1  0  0  0  0
M  END
>  <MODEL>
3

>  <REMARK>
 VINA RESULT:      -7.9      1.594      1.839
  Name = 
  3 active torsions:
  status: ('A' for Active; 'I' for Inactive)
    1  A    between atoms: N_17  and  O_28
    2  A    between atoms: O_28  and  C_29
    3  A    between atoms: C_29  and  C_32
                            x       y       z     vdW  Elec       q    Type
                         _______ _______ _______ _____ _____    ______ ____

>  <TORSDO>
F 3

$$$$
=
 OpenBabel11122414263D

 34 41  0  0  1  0  0  0  0  0999 V2000
  160.8320  207.3210  154.1070 C   0  0  0  0  0  0  0  0  0  0  0  0
  161.4830  205.0390  153.2030 C   0  0  0  0  0  2  0  0  0  0  0  0
  159.3050  213.5850  153.3370 C   0  0  1  0  0  3  0  0  0  0  0  0
  159.7920  209.4630  154.6540 C   0  0  0  0  0  0  0  0  0  0  0  0
  159.5310  211.2030  152.9460 C   0  0  0  0  0  0  0  0  0  0  0  0
  159.4600  213.2020  151.2510 C   0  0  0  0  0  2  0  0  0  0  0  0
  159.5600  214.4530  152.1250 C   0  0  0  0  0  2  0  0  0  0  0  0
  157.7010  212.7530  154.9170 C   0  0  0  0  0  2  0  0  0  0  0  0
  162.0340  207.0100  151.9040 C   0  0  2  0  0  3  0  0  0  0  0  0
  161.7910  206.5710  148.8130 C   0  0  0  0  0  2  0  0  0  0  0  0
  160.1160  210.2950  152.0040 N   0  0  0  0  0  2  0  0  0  0  0  0
  158.8250  211.7660  155.3360 C   0  0  0  0  0  2  0  0  0  0  0  0
  161.1270  208.1330  151.3670 C   0  0  1  0  0  3  0  0  0  0  0  0
  162.1310  204.5700  151.9130 C   0  0  0  0  0  2  0  0  0  0  0  0
  159.3630  210.8270  154.2450 C   0  0  0  0  0  0  0  0  0  0  0  0
  158.1840  213.9530  154.1930 N   0  0  0  0  0  2  0  0  0  0  0  0
  161.2550  205.7440  149.8910 N   0  0  0  0  0  0  0  0  0  0  0  0
  160.5060  208.6440  153.7550 C   0  0  0  0  0  0  0  0  0  0  0  0
  158.8910  212.4530  152.4400 C   0  0  2  0  0  3  0  0  0  0  0  0
  160.9920  209.2150  152.4460 C   0  0  2  0  0  3  0  0  0  0  0  0
  159.7630  207.6370  156.2610 C   0  0  0  0  0  3  0  0  0  0  0  0
  161.2060  207.9750  148.8760 C   0  0  0  0  0  2  0  0  0  0  0  0
  159.4310  208.9470  155.9080 C   0  0  0  0  0  3  0  0  0  0  0  0
  161.7150  208.7300  150.0940 C   0  0  0  0  0  2  0  0  0  0  0  0
  162.2370  205.7900  150.9870 C   0  0  1  0  0  3  0  0  0  0  0  0
  160.4530  206.8230  155.3600 C   0  0  0  0  0  3  0  0  0  0  0  0
  161.5030  206.4850  153.1520 N   0  0  0  0  0  0  0  0  0  0  0  0
  161.2090  204.4800  149.3960 O   0  0  0  0  0  0  0  0  0  0  0  0
  161.2080  204.6370  148.0060 C   0  0  0  0  0  2  0  0  0  0  0  0
  160.8320  201.3050  146.9370 C   0  0  0  0  0  2  0  0  0  0  0  0
  161.2780  203.3790  145.9200 N   0  0  0  0  0  2  0  0  0  0  0  0
  161.6180  203.3390  147.3340 C   0  0  2  0  0  3  0  0  0  0  0  0
  160.8310  202.0380  145.6240 C   0  0  0  0  0  2  0  0  0  0  0  0
  160.9600  202.2620  147.9470 O   0  0  0  0  0  0  0  0  0  0  0  0
  1 26  1  0  0  0  0
  3  7  1  6  0  0  0
  3 16  1  0  0  0  0
  4 23  2  0  0  0  0
  5 15  2  0  0  0  0
  6  7  1  0  0  0  0
  8 12  1  0  0  0  0
  9 27  1  1  0  0  0
 10 22  1  0  0  0  0
 10 17  1  0  0  0  0
 11  5  1  0  0  0  0
 13 24  1  6  0  0  0
 13  9  1  0  0  0  0
 13 20  1  0  0  0  0
 14  2  1  0  0  0  0
 15  4  1  0  0  0  0
 15 12  1  0  0  0  0
 16  8  1  0  0  0  0
 17 25  1  0  0  0  0
 18  1  2  0  0  0  0
 18  4  1  0  0  0  0
 19  6  1  6  0  0  0
 19  5  1  0  0  0  0
 19  3  1  0  0  0  0
 20 11  1  6  0  0  0
 20 18  1  0  0  0  0
 22 24  1  0  0  0  0
 23 21  1  0  0  0  0
 25  9  1  0  0  0  0
 25 14  1  1  0  0  0
 26 21  2  0  0  0  0
 27  2  1  0  0  0  0
 27  1  1  0  0  0  0
 28 17  1  0  0  0  0
 29 28  1  0  0  0  0
 30 34  1  0  0  0  0
 31 32  1  0  0  0  0
 32 34  1  0  0  0  0
 32 29  1  1  0  0  0
 33 31  1  0  0  0  0
 33 30  1  0  0  0  0
M  END
>  <MODEL>
4

>  <REMARK>
 VINA RESULT:      -7.8      3.049      8.852
  Name = 
  3 active torsions:
  status: ('A' for Active; 'I' for Inactive)
    1  A    between atoms: N_17  and  O_28
    2  A    between atoms: O_28  and  C_29
    3  A    between atoms: C_29  and  C_32
                            x       y       z     vdW  Elec       q    Type
                         _______ _______ _______ _____ _____    ______ ____

>  <TORSDO>
F 3

$$$$
=
 OpenBabel11122414263D

 34 41  0  0  1  0  0  0  0  0999 V2000
  160.8130  204.9940  151.9790 C   0  0  0  0  0  0  0  0  0  0  0  0
  161.1310  206.4490  154.0360 C   0  0  0  0  0  2  0  0  0  0  0  0
  160.8590  204.0290  145.5580 C   0  0  1  0  0  3  0  0  0  0  0  0
  161.0060  203.7260  149.8990 C   0  0  0  0  0  0  0  0  0  0  0  0
  161.4030  204.8690  147.7660 C   0  0  0  0  0  0  0  0  0  0  0  0
  161.5590  206.0330  145.4230 C   0  0  0  0  0  2  0  0  0  0  0  0
  160.8390  205.0780  144.4690 C   0  0  0  0  0  2  0  0  0  0  0  0
  161.9530  202.1000  146.4760 C   0  0  0  0  0  2  0  0  0  0  0  0
  160.5930  207.5120  151.9250 C   0  0  2  0  0  3  0  0  0  0  0  0
  162.0210  210.2690  151.5200 C   0  0  0  0  0  2  0  0  0  0  0  0
  161.4430  206.1030  148.4930 N   0  0  0  0  0  2  0  0  0  0  0  0
  161.0460  202.3400  147.7130 C   0  0  0  0  0  2  0  0  0  0  0  0
  161.3120  207.4430  150.5640 C   0  0  1  0  0  3  0  0  0  0  0  0
  161.1260  207.9490  154.2670 C   0  0  0  0  0  2  0  0  0  0  0  0
  161.1890  203.6940  148.4240 C   0  0  0  0  0  0  0  0  0  0  0  0
  161.4700  202.7460  145.2330 N   0  0  0  0  0  2  0  0  0  0  0  0
  162.3320  209.2220  152.4890 N   0  0  0  0  0  0  0  0  0  0  0  0
  160.8930  204.9580  150.5750 C   0  0  0  0  0  0  0  0  0  0  0  0
  161.8390  204.8580  146.3390 C   0  0  2  0  0  3  0  0  0  0  0  0
  160.7750  206.2380  149.7830 C   0  0  2  0  0  3  0  0  0  0  0  0
  160.9290  202.5720  152.0400 C   0  0  0  0  0  3  0  0  0  0  0  0
  162.1660  209.7440  150.1000 C   0  0  0  0  0  2  0  0  0  0  0  0
  161.0180  202.5380  150.6460 C   0  0  0  0  0  3  0  0  0  0  0  0
  161.0830  208.7260  149.7750 C   0  0  0  0  0  2  0  0  0  0  0  0
  161.0480  208.6220  152.8890 C   0  0  1  0  0  3  0  0  0  0  0  0
  160.8360  203.7960  152.7050 C   0  0  0  0  0  3  0  0  0  0  0  0
  160.7620  206.2630  152.6480 N   0  0  0  0  0  0  0  0  0  0  0  0
  162.8710  209.8590  153.5600 O   0  0  0  0  0  0  0  0  0  0  0  0
  161.9380  210.8440  153.9000 C   0  0  0  0  0  2  0  0  0  0  0  0
  161.0570  210.2540  157.2560 C   0  0  0  0  0  2  0  0  0  0  0  0
  163.0500  210.3480  156.0110 N   0  0  0  0  0  2  0  0  0  0  0  0
  161.9480  211.0750  155.4010 C   0  0  2  0  0  3  0  0  0  0  0  0
  162.5090  209.8650  157.2600 C   0  0  0  0  0  2  0  0  0  0  0  0
  160.7340  210.6420  155.9530 O   0  0  0  0  0  0  0  0  0  0  0  0
  1 27  1  0  0  0  0
  1 26  1  0  0  0  0
  2 14  1  0  0  0  0
  3  7  1  6  0  0  0
  3 19  1  0  0  0  0
  4 18  1  0  0  0  0
  4 23  2  0  0  0  0
  5 15  2  0  0  0  0
  5 11  1  0  0  0  0
  7  6  1  0  0  0  0
  8 12  1  0  0  0  0
  9 27  1  1  0  0  0
  9 25  1  0  0  0  0
 10 17  1  0  0  0  0
 12 15  1  0  0  0  0
 13 24  1  6  0  0  0
 13  9  1  0  0  0  0
 15  4  1  0  0  0  0
 16  3  1  0  0  0  0
 16  8  1  0  0  0  0
 17 25  1  0  0  0  0
 17 28  1  0  0  0  0
 18  1  2  0  0  0  0
 19  6  1  6  0  0  0
 19  5  1  0  0  0  0
 20 11  1  6  0  0  0
 20 13  1  0  0  0  0
 20 18  1  0  0  0  0
 21 26  2  0  0  0  0
 22 10  1  0  0  0  0
 23 21  1  0  0  0  0
 24 22  1  0  0  0  0
 25 14  1  1  0  0  0
 27  2  1  0  0  0  0
 28 29  1  0  0  0  0
 30 33  1  0  0  0  0
 31 33  1  0  0  0  0
 32 29  1  6  0  0  0
 32 34  1  0  0  0  0
 32 31  1  0  0  0  0
 34 30  1  0  0  0  0
M  END
>  <MODEL>
5

>  <REMARK>
 VINA RESULT:      -6.6      2.310      4.817
  Name = 
  3 active torsions:
  status: ('A' for Active; 'I' for Inactive)
    1  A    between atoms: N_17  and  O_28
    2  A    between atoms: O_28  and  C_29
    3  A    between atoms: C_29  and  C_32
                            x       y       z     vdW  Elec       q    Type
                         _______ _______ _______ _____ _____    ______ ____

>  <TORSDO>
F 3

$$$$
=
 OpenBabel11122414263D

 34 41  0  0  1  0  0  0  0  0999 V2000
  161.0430  204.0110  151.4690 C   0  0  0  0  0  0  0  0  0  0  0  0
  161.5710  205.8540  153.1340 C   0  0  0  0  0  2  0  0  0  0  0  0
  160.1770  201.8020  145.4240 C   0  0  1  0  0  3  0  0  0  0  0  0
  161.0030  202.3650  149.6630 C   0  0  0  0  0  0  0  0  0  0  0  0
  160.9920  203.0800  147.3160 C   0  0  2  0  0  3  0  0  0  0  0  0
  160.7110  203.7640  144.8020 C   0  0  0  0  0  2  0  0  0  0  0  0
  159.9200  202.6140  144.1750 C   0  0  0  0  0  2  0  0  0  0  0  0
  161.5250  200.1330  146.5000 C   0  0  0  0  0  2  0  0  0  0  0  0
  160.6480  206.4590  150.9770 C   0  0  2  0  0  3  0  0  0  0  0  0
  161.8090  209.1330  149.8330 C   0  0  0  0  0  2  0  0  0  0  0  0
  161.0590  204.4340  147.7810 N   0  0  0  0  0  2  0  0  0  0  0  0
  160.8020  200.5780  147.8000 C   0  0  0  0  0  2  0  0  0  0  0  0
  161.1550  206.1500  149.5550 C   0  0  1  0  0  3  0  0  0  0  0  0
  161.5000  207.3680  153.0770 C   0  0  0  0  0  2  0  0  0  0  0  0
  160.9610  202.0500  148.2100 C   0  0  2  0  0  3  0  0  0  0  0  0
  160.8160  200.5030  145.2520 N   0  0  0  0  0  2  0  0  0  0  0  0
  162.3330  208.3090  150.9180 N   0  0  0  0  0  0  0  0  0  0  0  0
  160.9110  203.7020  150.1030 C   0  0  0  0  0  0  0  0  0  0  0  0
  161.2060  202.8040  145.8650 C   0  0  2  0  0  3  0  0  0  0  0  0
  160.5880  204.7960  149.1140 C   0  0  2  0  0  3  0  0  0  0  0  0
  161.3300  201.6540  151.9660 C   0  0  0  0  0  3  0  0  0  0  0  0
  161.7710  208.3430  148.5330 C   0  0  0  0  0  2  0  0  0  0  0  0
  161.2080  201.3490  150.6090 C   0  0  0  0  0  3  0  0  0  0  0  0
  160.7230  207.2430  148.5860 C   0  0  0  0  0  2  0  0  0  0  0  0
  161.1680  207.7530  151.6270 C   0  0  1  0  0  3  0  0  0  0  0  0
  161.2570  202.9810  152.3950 C   0  0  0  0  0  3  0  0  0  0  0  0
  161.0090  205.3840  151.8860 N   0  0  0  0  0  0  0  0  0  0  0  0
  162.9850  209.1640  151.7480 O   0  0  0  0  0  0  0  0  0  0  0  0
  162.3100  210.3820  151.6120 C   0  0  0  0  0  2  0  0  0  0  0  0
  160.8310  211.4390  154.6250 C   0  0  0  0  0  2  0  0  0  0  0  0
  160.3210  211.5900  152.3330 N   0  0  0  0  0  2  0  0  0  0  0  0
  161.2170  210.4910  152.6600 C   0  0  2  0  0  3  0  0  0  0  0  0
  159.9990  212.1770  153.6130 C   0  0  0  0  0  2  0  0  0  0  0  0
  161.7920  210.7100  153.9200 O   0  0  0  0  0  0  0  0  0  0  0  0
  1 27  1  0  0  0  0
  1 26  1  0  0  0  0
  3  7  1  6  0  0  0
  3 19  1  0  0  0  0
  4 18  1  0  0  0  0
  4 23  2  0  0  0  0
  5 11  1  1  0  0  0
  5 15  1  0  0  0  0
  7  6  1  0  0  0  0
  8 12  1  0  0  0  0
  9 25  1  0  0  0  0
  9 27  1  1  0  0  0
 10 17  1  0  0  0  0
 13 24  1  6  0  0  0
 13  9  1  0  0  0  0
 14  2  1  0  0  0  0
 15 12  1  1  0  0  0
 15  4  1  0  0  0  0
 16  3  1  0  0  0  0
 16  8  1  0  0  0  0
 17 25  1  0  0  0  0
 17 28  1  0  0  0  0
 18  1  2  0  0  0  0
 19  6  1  6  0  0  0
 19  5  1  0  0  0  0
 20 11  1  6  0  0  0
 20 13  1  0  0  0  0
 20 18  1  0  0  0  0
 21 26  2  0  0  0  0
 22 24  1  0  0  0  0
 22 10  1  0  0  0  0
 23 21  1  0  0  0  0
 25 14  1  1  0  0  0
 27  2  1  0  0  0  0
 29 28  1  0  0  0  0
 31 32  1  0  0  0  0
 31 33  1  0  0  0  0
 32 29  1  6  0  0  0
 32 34  1  0  0  0  0
 33 30  1  0  0  0  0
 34 30  1  0  0  0  0
M  END
>  <MODEL>
6

>  <REMARK>
 VINA RESULT:      -6.5      2.318      5.383
  Name = 
  3 active torsions:
  status: ('A' for Active; 'I' for Inactive)
    1  A    between atoms: N_17  and  O_28
    2  A    between atoms: O_28  and  C_29
    3  A    between atoms: C_29  and  C_32
                            x       y       z     vdW  Elec       q    Type
                         _______ _______ _______ _____ _____    ______ ____

>  <TORSDO>
F 3

$$$$
=
 OpenBabel11122414263D

 34 41  0  0  1  0  0  0  0  0999 V2000
  161.2860  207.9600  152.3280 C   0  0  0  0  0  0  0  0  0  0  0  0
  161.1600  205.4310  152.5180 C   0  0  0  0  0  2  0  0  0  0  0  0
  161.8790  213.4430  148.8990 C   0  0  1  0  0  3  0  0  0  0  0  0
  160.9990  210.3320  151.8170 C   0  0  0  0  0  0  0  0  0  0  0  0
  161.3190  211.1710  149.5350 C   0  0  0  0  0  0  0  0  0  0  0  0
  161.9020  212.1810  147.1870 C   0  0  0  0  0  2  0  0  0  0  0  0
  162.4020  213.5950  147.4890 C   0  0  0  0  0  2  0  0  0  0  0  0
  160.0900  213.8740  150.4410 C   0  0  0  0  0  2  0  0  0  0  0  0
  162.3230  206.4030  150.6270 C   0  0  2  0  0  3  0  0  0  0  0  0
  161.9530  204.7840  147.9720 C   0  0  0  0  0  2  0  0  0  0  0  0
  161.5770  209.8210  149.1290 N   0  0  0  0  0  2  0  0  0  0  0  0
  160.8320  212.8770  151.3730 C   0  0  0  0  0  2  0  0  0  0  0  0
  161.8310  207.4030  149.5630 C   0  0  1  0  0  3  0  0  0  0  0  0
  161.6220  204.2900  151.6300 C   0  0  0  0  0  2  0  0  0  0  0  0
  161.0360  211.4520  150.8390 C   0  0  0  0  0  0  0  0  0  0  0  0
  160.9370  214.4510  149.3700 N   0  0  0  0  0  2  0  0  0  0  0  0
  161.1760  204.6920  149.2060 N   0  0  0  0  0  0  0  0  0  0  0  0
  161.4070  209.0390  151.4320 C   0  0  0  0  0  0  0  0  0  0  0  0
  161.1200  212.2140  148.4860 C   0  0  2  0  0  3  0  0  0  0  0  0
  162.0540  208.8270  150.0850 C   0  0  2  0  0  3  0  0  0  0  0  0
  160.3760  209.4610  154.0010 C   0  0  0  0  0  3  0  0  0  0  0  0
  161.8560  206.1840  147.3840 C   0  0  0  0  0  2  0  0  0  0  0  0
  160.4880  210.5300  153.1090 C   0  0  0  0  0  3  0  0  0  0  0  0
  162.5820  207.1990  148.2530 C   0  0  0  0  0  2  0  0  0  0  0  0
  162.1190  204.9100  150.3160 C   0  0  1  0  0  3  0  0  0  0  0  0
  160.7650  208.1780  153.6100 C   0  0  0  0  0  3  0  0  0  0  0  0
  161.6500  206.6410  151.8930 N   0  0  0  0  0  0  0  0  0  0  0  0
  160.7230  203.4130  149.2600 O   0  0  0  0  0  0  0  0  0  0  0  0
  161.5430  202.7020  148.3780 C   0  0  0  0  0  2  0  0  0  0  0  0
  160.4030  200.8860  145.5860 C   0  0  0  0  0  2  0  0  0  0  0  0
  161.4350  200.3820  147.6390 N   0  0  0  0  0  2  0  0  0  0  0  0
  160.7290  201.6540  147.6390 C   0  0  2  0  0  3  0  0  0  0  0  0
  161.1730  199.8310  146.3300 C   0  0  0  0  0  2  0  0  0  0  0  0
  160.5100  202.0710  146.3190 O   0  0  0  0  0  0  0  0  0  0  0  0
  1 26  1  0  0  0  0
  3  7  1  6  0  0  0
  3 16  1  0  0  0  0
  4 23  2  0  0  0  0
  5 15  2  0  0  0  0
  6  7  1  0  0  0  0
  8 12  1  0  0  0  0
  9 27  1  1  0  0  0
 10 17  1  0  0  0  0
 11  5  1  0  0  0  0
 13 24  1  6  0  0  0
 13 20  1  0  0  0  0
 13  9  1  0  0  0  0
 14  2  1  0  0  0  0
 15 12  1  0  0  0  0
 15  4  1  0  0  0  0
 16  8  1  0  0  0  0
 17 28  1  0  0  0  0
 17 25  1  0  0  0  0
 18  4  1  0  0  0  0
 18  1  2  0  0  0  0
 19  6  1  6  0  0  0
 19  3  1  0  0  0  0
 19  5  1  0  0  0  0
 20 11  1  6  0  0  0
 20 18  1  0  0  0  0
 22 10  1  0  0  0  0
 22 24  1  0  0  0  0
 23 21  1  0  0  0  0
 25  9  1  0  0  0  0
 25 14  1  1  0  0  0
 26 21  2  0  0  0  0
 27  1  1  0  0  0  0
 27  2  1  0  0  0  0
 29 28  1  0  0  0  0
 30 34  1  0  0  0  0
 30 33  1  0  0  0  0
 32 31  1  0  0  0  0
 32 29  1  1  0  0  0
 33 31  1  0  0  0  0
 34 32  1  0  0  0  0
M  END
>  <MODEL>
7

>  <REMARK>
 VINA RESULT:      -5.9      3.718      8.966
  Name = 
  3 active torsions:
  status: ('A' for Active; 'I' for Inactive)
    1  A    between atoms: N_17  and  O_28
    2  A    between atoms: O_28  and  C_29
    3  A    between atoms: C_29  and  C_32
                            x       y       z     vdW  Elec       q    Type
                         _______ _______ _______ _____ _____    ______ ____

>  <TORSDO>
F 3

$$$$
=
 OpenBabel11122414263D

 34 41  0  0  1  0  0  0  0  0999 V2000
  161.2060  211.0910  151.2960 C   0  0  0  0  0  0  0  0  0  0  0  0
  162.2540  210.9960  148.9850 C   0  0  0  0  0  2  0  0  0  0  0  0
  156.7370  213.2250  155.4970 C   0  0  1  0  0  3  0  0  0  0  0  0
  159.7630  211.0260  153.2670 C   0  0  0  0  0  0  0  0  0  0  0  0
  157.8190  212.5110  153.4480 C   0  0  0  0  0  0  0  0  0  0  0  0
  155.8900  214.2430  153.8330 C   0  0  0  0  0  2  0  0  0  0  0  0
  155.8360  214.4310  155.3500 C   0  0  0  0  0  2  0  0  0  0  0  0
  156.8920  210.8660  155.9120 C   0  0  0  0  0  2  0  0  0  0  0  0
  160.9820  212.9620  149.6100 C   0  0  2  0  0  3  0  0  0  0  0  0
  159.3400  214.1880  147.2420 C   0  0  0  0  0  2  0  0  0  0  0  0
  158.1440  213.0100  152.1450 N   0  0  0  0  0  2  0  0  0  0  0  0
  158.3660  211.0160  155.4470 C   0  0  0  0  0  2  0  0  0  0  0  0
  159.5280  213.0920  150.1010 C   0  0  1  0  0  3  0  0  0  0  0  0
  162.2220  211.9210  147.7830 C   0  0  0  0  0  2  0  0  0  0  0  0
  158.5920  211.5450  154.0220 C   0  0  0  0  0  0  0  0  0  0  0  0
  156.2560  212.1350  156.3360 N   0  0  0  0  0  2  0  0  0  0  0  0
  159.9550  212.8660  147.3300 N   0  0  0  0  0  0  0  0  0  0  0  0
  160.1570  211.6370  152.0590 C   0  0  0  0  0  0  0  0  0  0  0  0
  156.5050  212.8750  154.0540 C   0  0  2  0  0  3  0  0  0  0  0  0
  159.5040  212.9270  151.6240 C   0  0  2  0  0  3  0  0  0  0  0  0
  161.4930  209.3440  152.9530 C   0  0  0  0  0  3  0  0  0  0  0  0
  158.3000  214.3680  148.3380 C   0  0  0  0  0  2  0  0  0  0  0  0
  160.4450  209.8800  153.7060 C   0  0  0  0  0  3  0  0  0  0  0  0
  158.9530  214.4490  149.7100 C   0  0  0  0  0  2  0  0  0  0  0  0
  161.2060  213.0310  148.0890 C   0  0  1  0  0  3  0  0  0  0  0  0
  161.8660  209.9420  151.7480 C   0  0  0  0  0  3  0  0  0  0  0  0
  161.5480  211.6930  150.0390 N   0  0  0  0  0  0  0  0  0  0  0  0
  160.2590  212.5150  146.0540 O   0  0  0  0  0  0  0  0  0  0  0  0
  159.9350  213.6390  145.2860 C   0  0  0  0  0  2  0  0  0  0  0  0
  163.1080  213.3420  143.7910 C   0  0  0  0  0  2  0  0  0  0  0  0
  160.8850  212.8780  143.1750 N   0  0  0  0  0  2  0  0  0  0  0  0
  161.0020  213.8720  144.2300 C   0  0  2  0  0  3  0  0  0  0  0  0
  162.2530  212.5730  142.8230 C   0  0  0  0  0  2  0  0  0  0  0  0
  162.2730  213.7910  144.8170 O   0  0  0  0  0  0  0  0  0  0  0  0
  1 26  2  0  0  0  0
  1 18  1  0  0  0  0
  2 27  1  0  0  0  0
  3  7  1  1  0  0  0
  3 16  1  0  0  0  0
  4 23  1  0  0  0  0
  4 15  1  0  0  0  0
  5 15  2  0  0  0  0
  5 19  1  0  0  0  0
  6  7  1  0  0  0  0
  8 16  1  0  0  0  0
  9 27  1  6  0  0  0
  9 13  1  0  0  0  0
 10 17  1  0  0  0  0
 10 22  1  0  0  0  0
 11  5  1  0  0  0  0
 12  8  1  0  0  0  0
 13 24  1  1  0  0  0
 13 20  1  0  0  0  0
 14  2  1  0  0  0  0
 15 12  1  0  0  0  0
 17 25  1  0  0  0  0
 18  4  2  0  0  0  0
 19  6  1  6  0  0  0
 19  3  1  0  0  0  0
 20 18  1  6  0  0  0
 20 11  1  0  0  0  0
 21 23  2  0  0  0  0
 22 24  1  0  0  0  0
 25 14  1  6  0  0  0
 25  9  1  0  0  0  0
 26 21  1  0  0  0  0
 27  1  1  0  0  0  0
 28 17  1  0  0  0  0
 29 28  1  0  0  0  0
 30 34  1  0  0  0  0
 31 32  1  0  0  0  0
 32 34  1  0  0  0  0
 32 29  1  1  0  0  0
 33 31  1  0  0  0  0
 33 30  1  0  0  0  0
M  END
>  <MODEL>
8

>  <REMARK>
 VINA RESULT:      -5.5      4.691      9.129
  Name = 
  3 active torsions:
  status: ('A' for Active; 'I' for Inactive)
    1  A    between atoms: N_17  and  O_28
    2  A    between atoms: O_28  and  C_29
    3  A    between atoms: C_29  and  C_32
                            x       y       z     vdW  Elec       q    Type
                         _______ _______ _______ _____ _____    ______ ____

>  <TORSDO>
F 3

$$$$
=
 OpenBabel11122414263D

 34 41  0  0  1  0  0  0  0  0999 V2000
  161.9140  209.6990  150.0560 C   0  0  0  0  0  0  0  0  0  0  0  0
  161.8140  210.8820  147.8110 C   0  0  0  0  0  2  0  0  0  0  0  0
  160.3630  209.1510  156.3380 C   0  0  1  0  0  3  0  0  0  0  0  0
  161.4850  208.5560  152.1730 C   0  0  0  0  0  0  0  0  0  0  0  0
  160.2490  209.6720  153.9730 C   0  0  0  0  0  0  0  0  0  0  0  0
  159.1750  210.8880  156.0320 C   0  0  0  0  0  2  0  0  0  0  0  0
  159.8230  210.2290  157.2510 C   0  0  0  0  0  2  0  0  0  0  0  0
  160.0800  206.9430  155.4420 C   0  0  0  0  0  2  0  0  0  0  0  0
  161.4720  212.1780  149.8310 C   0  0  2  0  0  3  0  0  0  0  0  0
  159.3450  214.4530  149.5050 C   0  0  0  0  0  2  0  0  0  0  0  0
  160.1010  210.8010  153.1020 N   0  0  0  0  0  2  0  0  0  0  0  0
  161.2000  207.3480  154.4450 C   0  0  0  0  0  2  0  0  0  0  0  0
  160.4510  211.9960  150.9700 C   0  0  1  0  0  3  0  0  0  0  0  0
  161.5070  212.3080  147.3930 C   0  0  0  0  0  2  0  0  0  0  0  0
  160.9210  208.5640  153.5490 C   0  0  0  0  0  0  0  0  0  0  0  0
  160.0290  207.7720  156.6690 N   0  0  0  0  0  2  0  0  0  0  0  0
  159.5830  213.3040  148.6360 N   0  0  0  0  0  0  0  0  0  0  0  0
  161.4650  209.7280  151.3900 C   0  0  0  0  0  0  0  0  0  0  0  0
  159.4580  209.6280  155.2380 C   0  0  2  0  0  3  0  0  0  0  0  0
  161.0390  211.0360  152.0100 C   0  0  2  0  0  3  0  0  0  0  0  0
  162.4290  207.3400  150.2880 C   0  0  0  0  0  3  0  0  0  0  0  0
  158.9560  213.9960  150.9030 C   0  0  0  0  0  2  0  0  0  0  0  0
  161.9750  207.3670  151.6090 C   0  0  0  0  0  3  0  0  0  0  0  0
  160.1280  213.3380  151.6150 C   0  0  0  0  0  2  0  0  0  0  0  0
  161.0350  213.0590  148.6470 C   0  0  1  0  0  3  0  0  0  0  0  0
  162.3900  208.5000  149.5110 C   0  0  0  0  0  3  0  0  0  0  0  0
  161.8260  210.8890  149.2590 N   0  0  0  0  0  0  0  0  0  0  0  0
  159.2140  213.7010  147.3910 O   0  0  0  0  0  0  0  0  0  0  0  0
  158.1690  212.8420  147.0340 C   0  0  0  0  0  2  0  0  0  0  0  0
  158.4050  214.0150  143.7250 C   0  0  0  0  0  2  0  0  0  0  0  0
  159.2530  212.1950  144.9500 N   0  0  0  0  0  2  0  0  0  0  0  0
  158.0460  212.7710  145.5220 C   0  0  2  0  0  3  0  0  0  0  0  0
  159.4640  212.9470  143.7350 C   0  0  0  0  0  2  0  0  0  0  0  0
  157.8460  214.0590  145.0040 O   0  0  0  0  0  0  0  0  0  0  0  0
  1 18  1  0  0  0  0
  2 27  1  0  0  0  0
  3 16  1  0  0  0  0
  3  7  1  1  0  0  0
  4 15  1  0  0  0  0
  5 19  1  0  0  0  0
  6  7  1  0  0  0  0
  8 16  1  0  0  0  0
  9 27  1  6  0  0  0
  9 13  1  0  0  0  0
 10 22  1  0  0  0  0
 11  5  1  0  0  0  0
 12  8  1  0  0  0  0
 13 24  1  1  0  0  0
 13 20  1  0  0  0  0
 14  2  1  0  0  0  0
 15  5  2  0  0  0  0
 15 12  1  0  0  0  0
 17 25  1  0  0  0  0
 17 10  1  0  0  0  0
 18  4  2  0  0  0  0
 19  6  1  1  0  0  0
 19  3  1  0  0  0  0
 20 18  1  6  0  0  0
 20 11  1  0  0  0  0
 21 23  2  0  0  0  0
 22 24  1  0  0  0  0
 23  4  1  0  0  0  0
 25 14  1  6  0  0  0
 25  9  1  0  0  0  0
 26  1  2  0  0  0  0
 26 21  1  0  0  0  0
 27  1  1  0  0  0  0
 28 17  1  0  0  0  0
 29 28  1  0  0  0  0
 30 33  1  0  0  0  0
 30 34  1  0  0  0  0
 31 32  1  0  0  0  0
 32 29  1  1  0  0  0
 33 31  1  0  0  0  0
 34 32  1  0  0  0  0
M  END
>  <MODEL>
9

>  <REMARK>
 VINA RESULT:      -5.4      4.097      7.271
  Name = 
  3 active torsions:
  status: ('A' for Active; 'I' for Inactive)
    1  A    between atoms: N_17  and  O_28
    2  A    between atoms: O_28  and  C_29
    3  A    between atoms: C_29  and  C_32
                            x       y       z     vdW  Elec       q    Type
                         _______ _______ _______ _____ _____    ______ ____

>  <TORSDO>
F 3

$$$$
