=
 OpenBabel11122412513D

 32 37  0  0  1  0  0  0  0  0999 V2000
  160.1290  203.4070  149.7210 C   0  0  0  0  0  2  0  0  0  0  0  0
  161.9740  208.1480  151.5550 C   0  0  0  0  0  0  0  0  0  0  0  0
  159.7280  208.9780  155.7940 C   0  0  0  0  0  3  0  0  0  0  0  0
  159.3520  210.2460  155.3480 C   0  0  0  0  0  3  0  0  0  0  0  0
  161.9550  209.9330  149.7280 C   0  0  0  0  0  0  0  0  0  0  0  0
  161.5160  211.2770  149.3630 C   0  0  0  0  0  0  0  0  0  0  0  0
  161.9830  205.8140  150.5860 C   0  0  1  0  0  3  0  0  0  0  0  0
  162.0970  206.0640  153.3750 S   0  0  0  0  0  0  0  0  0  0  0  0
  160.4290  213.3150  149.7070 C   0  0  2  0  0  3  0  0  0  0  0  0
  161.2190  203.8220  152.0210 C   0  0  0  0  0  2  0  0  0  0  0  0
  160.4790  208.1420  154.9670 C   0  0  0  0  0  3  0  0  0  0  0  0
  161.6250  207.7280  152.8510 C   0  0  0  0  0  0  0  0  0  0  0  0
  160.8620  208.5620  153.6840 C   0  0  0  0  0  0  0  0  0  0  0  0
  160.8510  210.2860  151.9540 C   0  0  0  0  0  0  0  0  0  0  0  0
  161.0290  213.2490  148.2930 C   0  0  0  0  0  2  0  0  0  0  0  0
  159.7980  204.8970  149.5730 C   0  0  0  0  0  2  0  0  0  0  0  0
  161.3050  205.3490  151.8990 C   0  0  2  0  0  3  0  0  0  0  0  0
  161.6730  211.8910  148.2090 C   0  0  0  0  0  3  0  0  0  0  0  0
  161.0240  205.8000  149.3840 C   0  0  0  0  0  2  0  0  0  0  0  0
  161.2900  203.0850  150.6770 C   0  0  1  0  0  3  0  0  0  0  0  0
  159.7270  210.6780  154.0750 C   0  0  0  0  0  3  0  0  0  0  0  0
  160.4810  209.8460  153.2330 C   0  0  0  0  0  0  0  0  0  0  0  0
  160.4590  211.5730  151.5370 O   0  0  0  0  0  0  0  0  0  0  0  0
  162.7070  207.1660  150.6800 C   0  0  0  0  0  2  0  0  0  0  0  0
  162.6070  209.2370  148.9030 O   0  0  0  0  0  0  0  0  0  0  0  0
  161.0670  214.4530  150.4790 C   0  0  0  0  0  1  0  0  0  0  0  0
  161.6020  209.4350  151.0940 C   0  0  0  0  0  0  0  0  0  0  0  0
  160.8120  212.0500  150.2930 N   0  0  0  0  0  0  0  0  0  0  0  0
  161.3710  201.5880  150.9250 C   0  0  0  0  0  2  0  0  0  0  0  0
  160.7780  200.8310  149.7850 C   0  0  0  0  0  0  0  0  0  0  0  0
  159.5460  200.5760  149.7720 O   0  0  0  0  0  1  0  0  0  0  0  0
  161.5800  200.4320  148.7240 O   0  0  0  0  0  0  0  0  0  0  0  0
  1 20  1  0  0  0  0
  2 12  1  0  0  0  0
  4  3  1  0  0  0  0
  5 27  1  0  0  0  0
  6  5  1  0  0  0  0
  6 28  1  0  0  0  0
  7 19  1  6  0  0  0
  7 24  1  0  0  0  0
  7 17  1  0  0  0  0
  9 28  1  0  0  0  0
  9 26  1  1  0  0  0
 11  3  2  0  0  0  0
 12  8  1  0  0  0  0
 12 13  2  0  0  0  0
 13 11  1  0  0  0  0
 14 22  2  0  0  0  0
 15  9  1  0  0  0  0
 16  1  1  0  0  0  0
 17 10  1  1  0  0  0
 17  8  1  0  0  0  0
 18 15  1  0  0  0  0
 18  6  2  0  0  0  0
 19 16  1  0  0  0  0
 20 29  1  1  0  0  0
 20 10  1  0  0  0  0
 21  4  2  0  0  0  0
 22 13  1  0  0  0  0
 22 21  1  0  0  0  0
 23 14  1  0  0  0  0
 24  2  1  0  0  0  0
 25  5  2  0  0  0  0
 27  2  2  0  0  0  0
 27 14  1  0  0  0  0
 28 23  1  0  0  0  0
 30 29  1  0  0  0  0
 31 30  1  0  0  0  0
 32 30  2  0  0  0  0
M  END
>  <MODEL>
1

>  <REMARK>
 VINA RESULT:      -6.1      0.000      0.000
  Name = 
  2 active torsions:
  status: ('A' for Active; 'I' for Inactive)
    1  A    between atoms: C_20  and  C_29
    2  A    between atoms: C_29  and  C_30
                            x       y       z     vdW  Elec       q    Type
                         _______ _______ _______ _____ _____    ______ ____

>  <TORSDO>
F 2

$$$$
=
 OpenBabel11122412513D

 32 37  0  0  1  0  0  0  0  0999 V2000
  158.4820  213.4140  145.9290 C   0  0  0  0  0  2  0  0  0  0  0  0
  160.6620  212.4860  150.7910 C   0  0  0  0  0  0  0  0  0  0  0  0
  162.2690  207.8900  150.7480 C   0  0  0  0  0  3  0  0  0  0  0  0
  161.5800  207.6370  151.9350 C   0  0  0  0  0  3  0  0  0  0  0  0
  159.1340  213.2880  152.6740 C   0  0  0  0  0  0  0  0  0  0  0  0
  158.4560  212.9190  153.9120 C   0  0  0  0  0  0  0  0  0  0  0  0
  160.1450  213.6460  148.6050 C   0  0  1  0  0  3  0  0  0  0  0  0
  162.2800  211.8290  148.6400 S   0  0  0  0  0  0  0  0  0  0  0  0
  157.8200  211.4640  155.6250 C   0  0  2  0  0  3  0  0  0  0  0  0
  160.8820  212.5870  146.3800 C   0  0  0  0  0  2  0  0  0  0  0  0
  162.2200  209.1600  150.1690 C   0  0  0  0  0  3  0  0  0  0  0  0
  161.4340  211.4720  150.1970 C   0  0  0  0  0  0  0  0  0  0  0  0
  161.4800  210.1900  150.7700 C   0  0  0  0  0  0  0  0  0  0  0  0
  160.0350  210.9470  152.5870 C   0  0  0  0  0  0  0  0  0  0  0  0
  157.1670  212.8430  155.8120 C   0  0  0  0  0  2  0  0  0  0  0  0
  158.0250  212.9480  147.3160 C   0  0  0  0  0  2  0  0  0  0  0  0
  160.7170  212.3930  147.8940 C   0  0  2  0  0  3  0  0  0  0  0  0
  157.6470  213.6590  154.6410 C   0  0  0  0  0  3  0  0  0  0  0  0
  158.6170  213.7550  148.4800 C   0  0  0  0  0  2  0  0  0  0  0  0
  159.9890  213.6870  145.7930 C   0  0  1  0  0  3  0  0  0  0  0  0
  160.8410  208.6530  152.5430 C   0  0  0  0  0  3  0  0  0  0  0  0
  160.7820  209.9330  151.9710 C   0  0  0  0  0  0  0  0  0  0  0  0
  159.3540  210.6590  153.7860 O   0  0  0  0  0  0  0  0  0  0  0  0
  160.5780  213.8060  150.0710 C   0  0  0  0  0  2  0  0  0  0  0  0
  159.0090  214.4530  152.2090 O   0  0  0  0  0  0  0  0  0  0  0  0
  158.7200  211.1610  156.8080 C   0  0  0  0  0  1  0  0  0  0  0  0
  159.9620  212.2410  151.9980 C   0  0  0  0  0  0  0  0  0  0  0  0
  158.6180  211.6290  154.4310 N   0  0  0  0  0  0  0  0  0  0  0  0
  160.3560  213.9100  144.3350 C   0  0  0  0  0  2  0  0  0  0  0  0
  160.8980  212.6590  143.7300 C   0  0  0  0  0  0  0  0  0  0  0  0
  160.1200  211.7170  143.4280 O   0  0  0  0  0  0  0  0  0  0  0  0
  162.2580  212.5440  143.4740 O   0  0  0  0  0  1  0  0  0  0  0  0
  1 16  1  0  0  0  0
  2 27  1  0  0  0  0
  3  4  1  0  0  0  0
  4 21  2  0  0  0  0
  5  6  1  0  0  0  0
  6 28  1  0  0  0  0
  6 18  2  0  0  0  0
  7 19  1  1  0  0  0
  7 24  1  0  0  0  0
  8 12  1  0  0  0  0
  9 15  1  0  0  0  0
  9 26  1  1  0  0  0
 11  3  2  0  0  0  0
 11 13  1  0  0  0  0
 12 13  1  0  0  0  0
 12  2  2  0  0  0  0
 13 22  2  0  0  0  0
 14 23  1  0  0  0  0
 16 19  1  0  0  0  0
 17 10  1  6  0  0  0
 17  7  1  0  0  0  0
 17  8  1  0  0  0  0
 18 15  1  0  0  0  0
 20 29  1  6  0  0  0
 20  1  1  0  0  0  0
 20 10  1  0  0  0  0
 22 21  1  0  0  0  0
 22 14  1  0  0  0  0
 23 28  1  0  0  0  0
 24  2  1  0  0  0  0
 25  5  2  0  0  0  0
 27 14  2  0  0  0  0
 27  5  1  0  0  0  0
 28  9  1  0  0  0  0
 30 29  1  0  0  0  0
 31 30  2  0  0  0  0
 32 30  1  0  0  0  0
M  END
>  <MODEL>
2

>  <REMARK>
 VINA RESULT:      -5.8      4.291      7.892
  Name = 
  2 active torsions:
  status: ('A' for Active; 'I' for Inactive)
    1  A    between atoms: C_20  and  C_29
    2  A    between atoms: C_29  and  C_30
                            x       y       z     vdW  Elec       q    Type
                         _______ _______ _______ _____ _____    ______ ____

>  <TORSDO>
F 2

$$$$
=
 OpenBabel11122412513D

 32 37  0  0  1  0  0  0  0  0999 V2000
  160.5150  209.1880  153.9330 C   0  0  0  0  0  2  0  0  0  0  0  0
  159.5240  213.3500  150.6240 C   0  0  0  0  0  0  0  0  0  0  0  0
  154.8090  214.4530  151.1390 C   0  0  0  0  0  3  0  0  0  0  0  0
  154.6430  214.3950  149.7540 C   0  0  0  0  0  3  0  0  0  0  0  0
  160.4950  212.9510  148.2960 C   0  0  0  0  0  0  0  0  0  0  0  0
  160.2140  212.9200  146.8640 C   0  0  0  0  0  0  0  0  0  0  0  0
  160.6690  211.9320  152.3750 C   0  0  1  0  0  3  0  0  0  0  0  0
  158.6820  213.7100  153.2380 S   0  0  0  0  0  0  0  0  0  0  0  0
  158.8590  213.0830  144.9690 C   0  0  2  0  0  3  0  0  0  0  0  0
  159.4990  211.4580  154.6150 C   0  0  0  0  0  2  0  0  0  0  0  0
  156.0640  214.2150  151.7020 C   0  0  0  0  0  3  0  0  0  0  0  0
  158.4340  213.6830  151.4480 C   0  0  0  0  0  0  0  0  0  0  0  0
  157.1670  213.9150  150.8880 C   0  0  0  0  0  0  0  0  0  0  0  0
  158.0860  213.5540  148.6540 C   0  0  0  0  0  0  0  0  0  0  0  0
  160.2930  212.6840  144.5810 C   0  0  0  0  0  2  0  0  0  0  0  0
  160.1220  209.4160  152.4680 C   0  0  0  0  0  2  0  0  0  0  0  0
  159.3560  212.0180  153.1940 C   0  0  2  0  0  3  0  0  0  0  0  0
  161.0370  212.6010  145.8870 C   0  0  0  0  0  3  0  0  0  0  0  0
  160.9040  210.5370  151.7720 C   0  0  0  0  0  2  0  0  0  0  0  0
  160.6570  210.4640  154.7790 C   0  0  1  0  0  3  0  0  0  0  0  0
  155.7320  214.0980  148.9320 C   0  0  0  0  0  3  0  0  0  0  0  0
  156.9980  213.8550  149.4860 C   0  0  0  0  0  0  0  0  0  0  0  0
  157.8850  213.5070  147.2610 O   0  0  0  0  0  0  0  0  0  0  0  0
  160.8280  213.0170  151.2980 C   0  0  0  0  0  2  0  0  0  0  0  0
  161.6560  212.6940  148.7170 O   0  0  0  0  0  0  0  0  0  0  0  0
  158.5110  214.4150  144.3330 C   0  0  0  0  0  1  0  0  0  0  0  0
  159.3670  213.2920  149.2170 C   0  0  0  0  0  0  0  0  0  0  0  0
  158.9290  213.2280  146.4050 N   0  0  0  0  0  0  0  0  0  0  0  0
  160.8130  210.1090  156.2480 C   0  0  0  0  0  2  0  0  0  0  0  0
  162.1700  209.5540  156.5160 C   0  0  0  0  0  0  0  0  0  0  0  0
  163.1670  210.3220  156.5580 O   0  0  0  0  0  0  0  0  0  0  0  0
  162.3330  208.1940  156.7480 O   0  0  0  0  0  1  0  0  0  0  0  0
  1 20  1  0  0  0  0
  2 24  1  0  0  0  0
  2 12  1  0  0  0  0
  3 11  2  0  0  0  0
  4  3  1  0  0  0  0
  5 25  2  0  0  0  0
  5 27  1  0  0  0  0
  6  5  1  0  0  0  0
  7 24  1  6  0  0  0
  7 17  1  0  0  0  0
  9 26  1  6  0  0  0
  9 28  1  0  0  0  0
 10 20  1  0  0  0  0
 12  8  1  0  0  0  0
 13 12  2  0  0  0  0
 13 11  1  0  0  0  0
 14 27  1  0  0  0  0
 14 22  2  0  0  0  0
 15  9  1  0  0  0  0
 15 18  1  0  0  0  0
 16  1  1  0  0  0  0
 17  8  1  0  0  0  0
 17 10  1  1  0  0  0
 18  6  2  0  0  0  0
 19  7  1  0  0  0  0
 19 16  1  0  0  0  0
 20 29  1  1  0  0  0
 21 22  1  0  0  0  0
 21  4  2  0  0  0  0
 22 13  1  0  0  0  0
 23 14  1  0  0  0  0
 27  2  2  0  0  0  0
 28  6  1  0  0  0  0
 28 23  1  0  0  0  0
 29 30  1  0  0  0  0
 30 31  2  0  0  0  0
 30 32  1  0  0  0  0
M  END
>  <MODEL>
3

>  <REMARK>
 VINA RESULT:      -5.3      4.893      7.121
  Name = 
  2 active torsions:
  status: ('A' for Active; 'I' for Inactive)
    1  A    between atoms: C_20  and  C_29
    2  A    between atoms: C_29  and  C_30
                            x       y       z     vdW  Elec       q    Type
                         _______ _______ _______ _____ _____    ______ ____

>  <TORSDO>
F 2

$$$$
=
 OpenBabel11122412513D

 32 37  0  0  1  0  0  0  0  0999 V2000
  160.4680  205.3960  147.6420 C   0  0  0  0  0  2  0  0  0  0  0  0
  161.6870  208.8060  151.6580 C   0  0  0  0  0  0  0  0  0  0  0  0
  160.1650  206.7100  155.7810 C   0  0  0  0  0  3  0  0  0  0  0  0
  159.4770  207.8760  156.1210 C   0  0  0  0  0  3  0  0  0  0  0  0
  160.9830  211.1980  151.1060 C   0  0  0  0  0  0  0  0  0  0  0  0
  160.2340  212.3670  151.5580 C   0  0  0  0  0  0  0  0  0  0  0  0
  161.9580  207.4020  149.5740 C   0  0  1  0  0  3  0  0  0  0  0  0
  162.5470  206.2000  152.0370 S   0  0  0  0  0  0  0  0  0  0  0  0
  158.8630  213.5670  153.0180 C   0  0  2  0  0  3  0  0  0  0  0  0
  161.8730  204.8370  149.7300 C   0  0  0  0  0  2  0  0  0  0  0  0
  160.8920  206.6510  154.5920 C   0  0  0  0  0  3  0  0  0  0  0  0
  161.6750  207.7040  152.5330 C   0  0  0  0  0  0  0  0  0  0  0  0
  160.9380  207.7550  153.7260 C   0  0  0  0  0  0  0  0  0  0  0  0
  160.2720  210.0490  153.2210 C   0  0  0  0  0  0  0  0  0  0  0  0
  159.1870  214.4000  151.7660 C   0  0  0  0  0  2  0  0  0  0  0  0
  159.8370  206.6010  148.3480 C   0  0  0  0  0  2  0  0  0  0  0  0
  161.6410  206.1680  150.4570 C   0  0  2  0  0  3  0  0  0  0  0  0
  160.0500  213.5030  150.9190 C   0  0  0  0  0  3  0  0  0  0  0  0
  160.8100  207.7570  148.6150 C   0  0  0  0  0  2  0  0  0  0  0  0
  161.8280  204.9470  148.2000 C   0  0  1  0  0  3  0  0  0  0  0  0
  159.5150  208.9830  155.2710 C   0  0  0  0  0  3  0  0  0  0  0  0
  160.2410  208.9350  154.0710 C   0  0  0  0  0  0  0  0  0  0  0  0
  159.5700  211.2120  153.5960 O   0  0  0  0  0  0  0  0  0  0  0  0
  162.4150  208.6470  150.3500 C   0  0  0  0  0  2  0  0  0  0  0  0
  161.5880  211.2260  150.0000 O   0  0  0  0  0  0  0  0  0  0  0  0
  159.4060  214.2660  154.2490 C   0  0  0  0  0  1  0  0  0  0  0  0
  160.9960  209.9960  151.9960 C   0  0  0  0  0  0  0  0  0  0  0  0
  159.5840  212.3340  152.7960 N   0  0  0  0  0  0  0  0  0  0  0  0
  162.2380  203.6180  147.5860 C   0  0  0  0  0  2  0  0  0  0  0  0
  162.0040  203.6220  146.1140 C   0  0  0  0  0  0  0  0  0  0  0  0
  162.7010  204.3590  145.3680 O   0  0  0  0  0  0  0  0  0  0  0  0
  161.0370  202.7930  145.5610 O   0  0  0  0  0  1  0  0  0  0  0  0
  1 20  1  0  0  0  0
  1 16  1  0  0  0  0
  2 27  2  0  0  0  0
  2 12  1  0  0  0  0
  3  4  1  0  0  0  0
  5  6  1  0  0  0  0
  5 27  1  0  0  0  0
  6 28  1  0  0  0  0
  7 19  1  1  0  0  0
  7 24  1  0  0  0  0
  7 17  1  0  0  0  0
  8 12  1  0  0  0  0
  9 26  1  1  0  0  0
 11  3  2  0  0  0  0
 12 13  2  0  0  0  0
 13 22  1  0  0  0  0
 13 11  1  0  0  0  0
 14 23  1  0  0  0  0
 14 22  2  0  0  0  0
 15  9  1  0  0  0  0
 16 19  1  0  0  0  0
 17 10  1  6  0  0  0
 17  8  1  0  0  0  0
 18  6  2  0  0  0  0
 18 15  1  0  0  0  0
 20 29  1  6  0  0  0
 20 10  1  0  0  0  0
 21  4  2  0  0  0  0
 22 21  1  0  0  0  0
 24  2  1  0  0  0  0
 25  5  2  0  0  0  0
 27 14  1  0  0  0  0
 28  9  1  0  0  0  0
 28 23  1  0  0  0  0
 30 29  1  0  0  0  0
 31 30  2  0  0  0  0
 32 30  1  0  0  0  0
M  END
>  <MODEL>
4

>  <REMARK>
 VINA RESULT:      -5.1      2.185      2.845
  Name = 
  2 active torsions:
  status: ('A' for Active; 'I' for Inactive)
    1  A    between atoms: C_20  and  C_29
    2  A    between atoms: C_29  and  C_30
                            x       y       z     vdW  Elec       q    Type
                         _______ _______ _______ _____ _____    ______ ____

>  <TORSDO>
F 2

$$$$
=
 OpenBabel11122412513D

 32 37  0  0  1  0  0  0  0  0999 V2000
  158.4770  210.2390  156.1020 C   0  0  0  0  0  2  0  0  0  0  0  0
  161.7850  207.6840  152.6700 C   0  0  0  0  0  0  0  0  0  0  0  0
  162.1040  210.4770  148.6950 C   0  0  0  0  0  3  0  0  0  0  0  0
  161.7870  209.3780  147.8960 C   0  0  0  0  0  3  0  0  0  0  0  0
  161.1810  205.2120  152.4490 C   0  0  0  0  0  0  0  0  0  0  0  0
  160.8620  204.1290  151.5240 C   0  0  0  0  0  0  0  0  0  0  0  0
  160.9050  208.6750  154.8230 C   0  0  1  0  0  3  0  0  0  0  0  0
  162.4210  210.3360  153.1490 S   0  0  0  0  0  0  0  0  0  0  0  0
  160.4630  203.1880  149.4240 C   0  0  2  0  0  3  0  0  0  0  0  0
  160.6120  211.2210  155.0410 C   0  0  0  0  0  2  0  0  0  0  0  0
  162.1900  210.3310  150.0810 C   0  0  0  0  0  3  0  0  0  0  0  0
  162.0520  208.9300  152.0760 C   0  0  0  0  0  0  0  0  0  0  0  0
  161.9580  209.0850  150.6840 C   0  0  0  0  0  0  0  0  0  0  0  0
  161.3990  206.7190  150.4540 C   0  0  0  0  0  0  0  0  0  0  0  0
  160.2670  202.1440  150.5350 C   0  0  0  0  0  2  0  0  0  0  0  0
  158.3830  209.1720  155.0050 C   0  0  0  0  0  2  0  0  0  0  0  0
  160.8930  210.0450  154.0960 C   0  0  2  0  0  3  0  0  0  0  0  0
  160.5360  202.8880  151.8160 C   0  0  0  0  0  3  0  0  0  0  0  0
  159.4930  208.1140  155.0570 C   0  0  0  0  0  2  0  0  0  0  0  0
  159.8810  210.8230  156.3300 C   0  0  1  0  0  3  0  0  0  0  0  0
  161.5550  208.1320  148.4820 C   0  0  0  0  0  3  0  0  0  0  0  0
  161.6360  207.9730  149.8730 C   0  0  0  0  0  0  0  0  0  0  0  0
  161.0850  205.6290  149.6190 O   0  0  0  0  0  0  0  0  0  0  0  0
  161.8060  207.6120  154.1740 C   0  0  0  0  0  2  0  0  0  0  0  0
  161.2080  204.9920  153.6910 O   0  0  0  0  0  0  0  0  0  0  0  0
  161.5870  202.7500  148.5050 C   0  0  0  0  0  1  0  0  0  0  0  0
  161.4660  206.5600  151.8680 C   0  0  0  0  0  0  0  0  0  0  0  0
  160.8560  204.3770  150.1470 N   0  0  0  0  0  0  0  0  0  0  0  0
  159.8090  212.0220  157.2610 C   0  0  0  0  0  2  0  0  0  0  0  0
  159.2460  213.2070  156.5520 C   0  0  0  0  0  0  0  0  0  0  0  0
  159.9730  214.2120  156.3310 O   0  0  0  0  0  1  0  0  0  0  0  0
  157.9300  213.1930  156.1110 O   0  0  0  0  0  0  0  0  0  0  0  0
  1 20  1  0  0  0  0
  2 24  1  0  0  0  0
  3 11  2  0  0  0  0
  4 21  2  0  0  0  0
  4  3  1  0  0  0  0
  5 25  2  0  0  0  0
  6 18  2  0  0  0  0
  6  5  1  0  0  0  0
  7 24  1  6  0  0  0
  7 19  1  0  0  0  0
  8 17  1  0  0  0  0
  9 26  1  6  0  0  0
  9 28  1  0  0  0  0
  9 15  1  0  0  0  0
 10 20  1  0  0  0  0
 11 13  1  0  0  0  0
 12  2  1  0  0  0  0
 12  8  1  0  0  0  0
 13 12  2  0  0  0  0
 14 27  1  0  0  0  0
 15 18  1  0  0  0  0
 16 19  1  0  0  0  0
 16  1  1  0  0  0  0
 17  7  1  0  0  0  0
 17 10  1  1  0  0  0
 20 29  1  1  0  0  0
 21 22  1  0  0  0  0
 22 14  2  0  0  0  0
 22 13  1  0  0  0  0
 23 28  1  0  0  0  0
 23 14  1  0  0  0  0
 27  5  1  0  0  0  0
 27  2  2  0  0  0  0
 28  6  1  0  0  0  0
 30 29  1  0  0  0  0
 31 30  1  0  0  0  0
 32 30  2  0  0  0  0
M  END
>  <MODEL>
5

>  <REMARK>
 VINA RESULT:      -4.7      2.797      8.254
  Name = 
  2 active torsions:
  status: ('A' for Active; 'I' for Inactive)
    1  A    between atoms: C_20  and  C_29
    2  A    between atoms: C_29  and  C_30
                            x       y       z     vdW  Elec       q    Type
                         _______ _______ _______ _____ _____    ______ ____

>  <TORSDO>
F 2

$$$$
=
 OpenBabel11122412513D

 32 37  0  0  1  0  0  0  0  0999 V2000
  158.9850  213.7240  148.1990 C   0  0  0  0  0  2  0  0  0  0  0  0
  161.6820  210.1140  151.1890 C   0  0  0  0  0  0  0  0  0  0  0  0
  161.2700  205.8280  148.9150 C   0  0  0  0  0  3  0  0  0  0  0  0
  160.8330  205.2390  150.1030 C   0  0  0  0  0  3  0  0  0  0  0  0
  161.0840  210.3090  153.6640 C   0  0  0  0  0  0  0  0  0  0  0  0
  160.6230  209.5950  154.8510 C   0  0  0  0  0  0  0  0  0  0  0  0
  161.1760  212.2460  149.9300 C   0  0  1  0  0  3  0  0  0  0  0  0
  162.3560  210.1420  148.5030 S   0  0  0  0  0  0  0  0  0  0  0  0
  159.8790  207.7290  156.0430 C   0  0  2  0  0  3  0  0  0  0  0  0
  160.8900  212.1950  147.3750 C   0  0  0  0  0  2  0  0  0  0  0  0
  161.5960  207.1850  148.8880 C   0  0  0  0  0  3  0  0  0  0  0  0
  161.8260  209.3320  150.0290 C   0  0  0  0  0  0  0  0  0  0  0  0
  161.4900  207.9690  150.0480 C   0  0  0  0  0  0  0  0  0  0  0  0
  160.9310  208.1350  152.4190 C   0  0  0  0  0  0  0  0  0  0  0  0
  159.8920  208.9790  156.9390 C   0  0  0  0  0  2  0  0  0  0  0  0
  158.7170  212.8010  149.3940 C   0  0  0  0  0  2  0  0  0  0  0  0
  161.0190  211.3690  148.6620 C   0  0  2  0  0  3  0  0  0  0  0  0
  160.3690  210.0910  156.0440 C   0  0  0  0  0  3  0  0  0  0  0  0
  159.8340  212.7900  150.4460 C   0  0  0  0  0  2  0  0  0  0  0  0
  160.3990  213.6300  147.6030 C   0  0  1  0  0  3  0  0  0  0  0  0
  160.7230  206.0060  151.2640 C   0  0  0  0  0  3  0  0  0  0  0  0
  161.0470  207.3710  151.2500 C   0  0  0  0  0  0  0  0  0  0  0  0
  160.4920  207.5090  153.6020 O   0  0  0  0  0  0  0  0  0  0  0  0
  161.9650  211.5880  151.0730 C   0  0  0  0  0  2  0  0  0  0  0  0
  161.3280  211.5440  153.7270 O   0  0  0  0  0  0  0  0  0  0  0  0
  160.8330  206.6910  156.6020 C   0  0  0  0  0  1  0  0  0  0  0  0
  161.2450  209.5250  152.4010 C   0  0  0  0  0  0  0  0  0  0  0  0
  160.3750  208.2200  154.7770 N   0  0  0  0  0  0  0  0  0  0  0  0
  160.4740  214.4030  146.2960 C   0  0  0  0  0  2  0  0  0  0  0  0
  161.6020  213.9100  145.4550 C   0  0  0  0  0  0  0  0  0  0  0  0
  162.7890  214.1960  145.7640 O   0  0  0  0  0  1  0  0  0  0  0  0
  161.3470  213.1140  144.3470 O   0  0  0  0  0  0  0  0  0  0  0  0
  1 16  1  0  0  0  0
  2 27  1  0  0  0  0
  3  4  1  0  0  0  0
  4 21  2  0  0  0  0
  5 25  2  0  0  0  0
  5  6  1  0  0  0  0
  6 18  2  0  0  0  0
  7 19  1  1  0  0  0
  7 24  1  0  0  0  0
  8 17  1  0  0  0  0
  8 12  1  0  0  0  0
  9 26  1  1  0  0  0
  9 15  1  0  0  0  0
 10 20  1  0  0  0  0
 11  3  2  0  0  0  0
 11 13  1  0  0  0  0
 12 13  1  0  0  0  0
 12  2  2  0  0  0  0
 13 22  2  0  0  0  0
 14 23  1  0  0  0  0
 16 19  1  0  0  0  0
 17 10  1  6  0  0  0
 17  7  1  0  0  0  0
 18 15  1  0  0  0  0
 20 29  1  6  0  0  0
 20  1  1  0  0  0  0
 22 21  1  0  0  0  0
 22 14  1  0  0  0  0
 23 28  1  0  0  0  0
 24  2  1  0  0  0  0
 27 14  2  0  0  0  0
 27  5  1  0  0  0  0
 28  6  1  0  0  0  0
 28  9  1  0  0  0  0
 30 31  1  0  0  0  0
 30 29  1  0  0  0  0
 32 30  2  0  0  0  0
M  END
>  <MODEL>
6

>  <REMARK>
 VINA RESULT:      -4.1      3.195      8.011
  Name = 
  2 active torsions:
  status: ('A' for Active; 'I' for Inactive)
    1  A    between atoms: C_20  and  C_29
    2  A    between atoms: C_29  and  C_30
                            x       y       z     vdW  Elec       q    Type
                         _______ _______ _______ _____ _____    ______ ____

>  <TORSDO>
F 2

$$$$
=
 OpenBabel11122412513D

 32 37  0  0  1  0  0  0  0  0999 V2000
  160.1720  203.9680  149.2010 C   0  0  0  0  0  2  0  0  0  0  0  0
  161.6750  208.2860  152.0890 C   0  0  0  0  0  0  0  0  0  0  0  0
  159.9260  207.6390  156.5860 C   0  0  0  0  0  3  0  0  0  0  0  0
  159.3490  208.9090  156.5460 C   0  0  0  0  0  3  0  0  0  0  0  0
  161.2070  210.4630  150.8370 C   0  0  0  0  0  0  0  0  0  0  0  0
  160.5690  211.7740  150.9000 C   0  0  0  0  0  0  0  0  0  0  0  0
  161.8290  206.3130  150.5160 C   0  0  1  0  0  3  0  0  0  0  0  0
  162.2800  205.8420  153.2420 S   0  0  0  0  0  0  0  0  0  0  0  0
  159.3060  213.4680  151.8960 C   0  0  2  0  0  3  0  0  0  0  0  0
  161.5000  203.9250  151.4110 C   0  0  0  0  0  2  0  0  0  0  0  0
  160.6540  207.1680  155.4920 C   0  0  0  0  0  3  0  0  0  0  0  0
  161.5520  207.4960  153.2450 C   0  0  0  0  0  0  0  0  0  0  0  0
  160.8130  207.9610  154.3450 C   0  0  0  0  0  0  0  0  0  0  0  0
  160.3720  210.0550  153.1680 C   0  0  0  0  0  0  0  0  0  0  0  0
  159.7180  213.8630  150.4690 C   0  0  0  0  0  2  0  0  0  0  0  0
  159.6520  205.3790  149.5020 C   0  0  0  0  0  2  0  0  0  0  0  0
  161.3890  205.4270  151.7080 C   0  0  2  0  0  3  0  0  0  0  0  0
  160.5000  212.6850  149.9520 C   0  0  0  0  0  3  0  0  0  0  0  0
  160.7280  206.4710  149.4540 C   0  0  0  0  0  2  0  0  0  0  0  0
  161.4780  203.5840  149.9150 C   0  0  1  0  0  3  0  0  0  0  0  0
  159.5000  209.7090  155.4110 C   0  0  0  0  0  3  0  0  0  0  0  0
  160.2280  209.2470  154.3050 C   0  0  0  0  0  0  0  0  0  0  0  0
  159.7810  211.3330  153.1620 O   0  0  0  0  0  0  0  0  0  0  0  0
  162.3960  207.6860  150.9100 C   0  0  0  0  0  2  0  0  0  0  0  0
  161.8210  210.1100  149.7930 O   0  0  0  0  0  0  0  0  0  0  0  0
  159.9030  214.4470  152.8890 C   0  0  0  0  0  1  0  0  0  0  0  0
  161.0980  209.5790  152.0390 C   0  0  0  0  0  0  0  0  0  0  0  0
  159.9080  212.1650  152.0700 N   0  0  0  0  0  0  0  0  0  0  0  0
  161.7650  202.1030  149.7310 C   0  0  0  0  0  2  0  0  0  0  0  0
  160.8210  201.5000  148.7470 C   0  0  0  0  0  0  0  0  0  0  0  0
  161.2110  201.2380  147.5790 O   0  0  0  0  0  0  0  0  0  0  0  0
  159.5190  201.2020  149.1250 O   0  0  0  0  0  1  0  0  0  0  0  0
  1 16  1  0  0  0  0
  1 20  1  0  0  0  0
  2 12  1  0  0  0  0
  4  3  1  0  0  0  0
  5  6  1  0  0  0  0
  5 27  1  0  0  0  0
  6 28  1  0  0  0  0
  7 19  1  6  0  0  0
  7 24  1  0  0  0  0
  7 17  1  0  0  0  0
  8 12  1  0  0  0  0
  9 28  1  0  0  0  0
  9 26  1  1  0  0  0
 11  3  2  0  0  0  0
 12 13  2  0  0  0  0
 13 11  1  0  0  0  0
 14 22  2  0  0  0  0
 15  9  1  0  0  0  0
 17 10  1  6  0  0  0
 17  8  1  0  0  0  0
 18 15  1  0  0  0  0
 18  6  2  0  0  0  0
 19 16  1  0  0  0  0
 20 29  1  1  0  0  0
 20 10  1  0  0  0  0
 21  4  2  0  0  0  0
 22 13  1  0  0  0  0
 22 21  1  0  0  0  0
 23 14  1  0  0  0  0
 24  2  1  0  0  0  0
 25  5  2  0  0  0  0
 27  2  2  0  0  0  0
 27 14  1  0  0  0  0
 28 23  1  0  0  0  0
 30 32  1  0  0  0  0
 30 29  1  0  0  0  0
 31 30  2  0  0  0  0
M  END
>  <MODEL>
7

>  <REMARK>
 VINA RESULT:      -3.7      1.208      1.537
  Name = 
  2 active torsions:
  status: ('A' for Active; 'I' for Inactive)
    1  A    between atoms: C_20  and  C_29
    2  A    between atoms: C_29  and  C_30
                            x       y       z     vdW  Elec       q    Type
                         _______ _______ _______ _____ _____    ______ ____

>  <TORSDO>
F 2

$$$$
=
 OpenBabel11122412513D

 32 37  0  0  1  0  0  0  0  0999 V2000
  160.9060  209.4640  152.7660 C   0  0  0  0  0  2  0  0  0  0  0  0
  160.3460  213.4920  149.2000 C   0  0  0  0  0  0  0  0  0  0  0  0
  155.5630  214.2070  148.6380 C   0  0  0  0  0  3  0  0  0  0  0  0
  155.7120  214.1190  147.2520 C   0  0  0  0  0  3  0  0  0  0  0  0
  161.8360  213.1490  147.1540 C   0  0  0  0  0  0  0  0  0  0  0  0
  161.8810  213.0780  145.6970 C   0  0  0  0  0  0  0  0  0  0  0  0
  161.1850  212.1930  151.2000 C   0  0  1  0  0  3  0  0  0  0  0  0
  158.9230  213.8100  151.5550 S   0  0  0  0  0  0  0  0  0  0  0  0
  160.9690  213.1070  143.5470 C   0  0  2  0  0  3  0  0  0  0  0  0
  159.5900  211.6500  153.1430 C   0  0  0  0  0  2  0  0  0  0  0  0
  156.6770  214.0800  149.4680 C   0  0  0  0  0  3  0  0  0  0  0  0
  159.0790  213.7430  149.7560 C   0  0  0  0  0  0  0  0  0  0  0  0
  157.9530  213.8620  148.9250 C   0  0  0  0  0  0  0  0  0  0  0  0
  159.3670  213.5540  146.9580 C   0  0  0  0  0  0  0  0  0  0  0  0
  162.4800  212.8240  143.4950 C   0  0  0  0  0  2  0  0  0  0  0  0
  160.8290  209.6420  151.2450 C   0  0  0  0  0  2  0  0  0  0  0  0
  159.7210  212.1800  151.7090 C   0  0  2  0  0  3  0  0  0  0  0  0
  162.9220  212.8170  144.9340 C   0  0  0  0  0  3  0  0  0  0  0  0
  161.6550  210.8160  150.7040 C   0  0  0  0  0  2  0  0  0  0  0  0
  160.7570  210.7570  153.5850 C   0  0  1  0  0  3  0  0  0  0  0  0
  156.9750  213.9040  146.6980 C   0  0  0  0  0  3  0  0  0  0  0  0
  158.1020  213.7730  147.5220 C   0  0  0  0  0  0  0  0  0  0  0  0
  159.4830  213.4750  145.5570 O   0  0  0  0  0  0  0  0  0  0  0  0
  161.4920  213.2760  150.1530 C   0  0  0  0  0  2  0  0  0  0  0  0
  162.8920  212.9930  147.8260 O   0  0  0  0  0  0  0  0  0  0  0  0
  160.6670  214.3980  142.8120 C   0  0  0  0  0  1  0  0  0  0  0  0
  160.5090  213.4060  147.7960 C   0  0  0  0  0  0  0  0  0  0  0  0
  160.7080  213.2730  144.9590 N   0  0  0  0  0  0  0  0  0  0  0  0
  160.6120  210.4320  155.0630 C   0  0  0  0  0  2  0  0  0  0  0  0
  161.8820  209.8710  155.6070 C   0  0  0  0  0  0  0  0  0  0  0  0
  162.9080  210.5970  155.6860 O   0  0  0  0  0  0  0  0  0  0  0  0
  161.9260  208.5580  156.0540 O   0  0  0  0  0  1  0  0  0  0  0  0
  1 20  1  0  0  0  0
  2 12  1  0  0  0  0
  2 24  1  0  0  0  0
  3 11  2  0  0  0  0
  4  3  1  0  0  0  0
  5 27  1  0  0  0  0
  5 25  2  0  0  0  0
  6  5  1  0  0  0  0
  7 24  1  6  0  0  0
  7 17  1  0  0  0  0
  8 17  1  0  0  0  0
  9 26  1  6  0  0  0
  9 28  1  0  0  0  0
 10 20  1  0  0  0  0
 12  8  1  0  0  0  0
 13 11  1  0  0  0  0
 13 12  2  0  0  0  0
 14 22  2  0  0  0  0
 14 27  1  0  0  0  0
 15  9  1  0  0  0  0
 15 18  1  0  0  0  0
 16  1  1  0  0  0  0
 17 10  1  1  0  0  0
 18  6  2  0  0  0  0
 19  7  1  0  0  0  0
 19 16  1  0  0  0  0
 20 29  1  1  0  0  0
 21  4  2  0  0  0  0
 21 22  1  0  0  0  0
 22 13  1  0  0  0  0
 23 14  1  0  0  0  0
 27  2  2  0  0  0  0
 28 23  1  0  0  0  0
 28  6  1  0  0  0  0
 29 30  1  0  0  0  0
 30 31  2  0  0  0  0
 30 32  1  0  0  0  0
M  END
>  <MODEL>
8

>  <REMARK>
 VINA RESULT:      -3.3      4.849      7.459
  Name = 
  2 active torsions:
  status: ('A' for Active; 'I' for Inactive)
    1  A    between atoms: C_20  and  C_29
    2  A    between atoms: C_29  and  C_30
                            x       y       z     vdW  Elec       q    Type
                         _______ _______ _______ _____ _____    ______ ____

>  <TORSDO>
F 2

$$$$
