=
 OpenBabel11122412363D

 30 34  0  0  1  0  0  0  0  0999 V2000
  161.5010  207.6520  151.2510 C   0  0  0  0  0  0  0  0  0  0  0  0
  161.6730  210.2010  150.9380 C   0  0  0  0  0  0  0  0  0  0  0  0
  161.8650  207.0190  147.1190 N   0  0  0  0  0  2  0  0  0  0  0  0
  161.5250  206.3410  150.6880 C   0  0  0  0  0  0  0  0  0  0  0  0
  161.2700  207.7880  152.6220 C   0  0  0  0  0  3  0  0  0  0  0  0
  160.7590  204.3100  153.7140 O   0  0  0  0  0  1  0  0  0  0  0  0
  160.6390  203.3730  149.7010 C   0  0  2  0  0  3  0  0  0  0  0  0
  161.0380  205.3940  152.8860 C   0  0  0  0  0  0  0  0  0  0  0  0
  160.4380  204.3920  148.7400 O   0  0  0  0  0  0  0  0  0  0  0  0
  161.7110  205.6030  147.1170 C   0  0  0  0  0  0  0  0  0  0  0  0
  161.0400  206.6830  153.4340 C   0  0  0  0  0  0  0  0  0  0  0  0
  161.3010  205.1980  151.5090 C   0  0  0  0  0  0  0  0  0  0  0  0
  162.2050  211.3200  150.0900 C   0  0  0  0  0  2  0  0  0  0  0  0
  161.2500  210.4720  152.0930 O   0  0  0  0  0  0  0  0  0  0  0  0
  161.8710  207.3440  148.5010 C   0  0  0  0  0  0  0  0  0  0  0  0
  162.0880  211.0370  148.6190 C   0  0  0  0  0  3  0  0  0  0  0  0
  161.6940  208.8010  150.4230 C   0  0  0  0  0  0  0  0  0  0  0  0
  161.7520  206.2340  149.3080 C   0  0  0  0  0  0  0  0  0  0  0  0
  161.6390  204.9320  146.0550 O   0  0  0  0  0  0  0  0  0  0  0  0
  161.6750  205.0020  148.4850 C   0  0  1  0  0  3  0  0  0  0  0  0
  162.0490  202.8800  151.6660 C   0  0  0  0  0  2  0  0  0  0  0  0
  161.9700  209.7990  148.1370 C   0  0  0  0  0  3  0  0  0  0  0  0
  161.8700  208.6320  149.0300 C   0  0  0  0  0  0  0  0  0  0  0  0
  161.3930  203.8040  150.9630 C   0  0  0  0  0  0  0  0  0  0  0  0
  161.1940  202.1060  149.0410 C   0  0  0  0  0  2  0  0  0  0  0  0
  160.8460  201.5700  146.6520 C   0  0  0  0  0  1  0  0  0  0  0  0
  160.2070  201.5660  148.0240 C   0  0  0  0  0  2  0  0  0  0  0  0
  160.7640  206.9010  154.8890 C   0  0  0  0  0  2  0  0  0  0  0  0
  161.7890  208.5230  156.4900 C   0  0  0  0  0  1  0  0  0  0  0  0
  160.9100  208.3690  155.2630 C   0  0  0  0  0  2  0  0  0  0  0  0
  1  5  2  0  0  0  0
  2 14  2  0  0  0  0
  3 15  1  0  0  0  0
  4  1  1  0  0  0  0
  4 12  2  0  0  0  0
  5 11  1  0  0  0  0
  7 25  1  6  0  0  0
  7 24  1  0  0  0  0
  8 11  2  0  0  0  0
  8  6  1  0  0  0  0
  9  7  1  0  0  0  0
 10  3  1  0  0  0  0
 11 28  1  0  0  0  0
 12  8  1  0  0  0  0
 13  2  1  0  0  0  0
 15 23  1  0  0  0  0
 15 18  2  0  0  0  0
 16 13  1  0  0  0  0
 17  2  1  0  0  0  0
 17  1  1  0  0  0  0
 18  4  1  0  0  0  0
 19 10  2  0  0  0  0
 20 10  1  6  0  0  0
 20  9  1  0  0  0  0
 20 18  1  0  0  0  0
 22 16  2  0  0  0  0
 22 23  1  0  0  0  0
 23 17  2  0  0  0  0
 24 12  1  0  0  0  0
 24 21  2  0  0  0  0
 26 27  1  0  0  0  0
 27 25  1  0  0  0  0
 28 30  1  0  0  0  0
 30 29  1  0  0  0  0
M  END
>  <MODEL>
1

>  <REMARK>
 VINA RESULT:      -8.4      0.000      0.000
  Name = 
  4 active torsions:
  status: ('A' for Active; 'I' for Inactive)
    1  A    between atoms: C_7  and  C_15
    2  A    between atoms: C_11  and  C_28
    3  A    between atoms: C_15  and  C_23
    4  A    between atoms: C_28  and  C_30
                            x       y       z     vdW  Elec       q    Type
                         _______ _______ _______ _____ _____    ______ ____

>  <TORSDO>
F 4

$$$$
=
 OpenBabel11122412363D

 30 34  0  0  1  0  0  0  0  0999 V2000
  161.2210  205.1340  149.3840 C   0  0  0  0  0  0  0  0  0  0  0  0
  160.9800  202.5830  149.1430 C   0  0  0  0  0  0  0  0  0  0  0  0
  161.1530  204.8460  153.5700 N   0  0  0  0  0  2  0  0  0  0  0  0
  161.3650  206.2800  150.2220 C   0  0  0  0  0  0  0  0  0  0  0  0
  161.1450  205.3190  148.0020 C   0  0  0  0  0  3  0  0  0  0  0  0
  161.2860  208.9820  147.6590 O   0  0  0  0  0  1  0  0  0  0  0  0
  160.8040  209.0920  151.7530 C   0  0  2  0  0  3  0  0  0  0  0  0
  161.2980  207.7210  148.2510 C   0  0  0  0  0  0  0  0  0  0  0  0
  160.3380  207.9490  152.4430 O   0  0  0  0  0  0  0  0  0  0  0  0
  161.2090  206.2370  153.8690 C   0  0  0  0  0  0  0  0  0  0  0  0
  161.1810  206.5880  147.4350 C   0  0  0  0  0  0  0  0  0  0  0  0
  161.4130  207.5870  149.6550 C   0  0  0  0  0  0  0  0  0  0  0  0
  161.2330  201.2420  149.7700 C   0  0  0  0  0  2  0  0  0  0  0  0
  160.6680  202.6260  147.9230 O   0  0  0  0  0  0  0  0  0  0  0  0
  161.2850  204.8120  152.1570 C   0  0  0  0  0  0  0  0  0  0  0  0
  160.9750  201.2360  151.2500 C   0  0  0  0  0  3  0  0  0  0  0  0
  161.1390  203.8250  149.9530 C   0  0  0  0  0  0  0  0  0  0  0  0
  161.4300  206.0650  151.6060 C   0  0  0  0  0  0  0  0  0  0  0  0
  161.1030  206.6820  155.0420 O   0  0  0  0  0  0  0  0  0  0  0  0
  161.4320  207.1000  152.6690 C   0  0  1  0  0  3  0  0  0  0  0  0
  162.5040  209.7290  150.0800 C   0  0  0  0  0  2  0  0  0  0  0  0
  160.9800  202.3520  151.9800 C   0  0  0  0  0  3  0  0  0  0  0  0
  161.1620  203.6770  151.3600 C   0  0  0  0  0  0  0  0  0  0  0  0
  161.6380  208.8060  150.5010 C   0  0  0  0  0  0  0  0  0  0  0  0
  161.4500  210.0880  152.7220 C   0  0  0  0  0  2  0  0  0  0  0  0
  159.2850  211.2830  152.7590 C   0  0  0  0  0  1  0  0  0  0  0  0
  160.3960  210.7150  153.6140 C   0  0  0  0  0  2  0  0  0  0  0  0
  161.0600  206.7190  145.9490 C   0  0  0  0  0  2  0  0  0  0  0  0
  160.8230  204.6970  144.5010 C   0  0  0  0  0  1  0  0  0  0  0  0
  161.7990  205.5960  145.2360 C   0  0  0  0  0  2  0  0  0  0  0  0
  1 17  2  0  0  0  0
  1  4  1  0  0  0  0
  2 13  1  0  0  0  0
  2 17  1  0  0  0  0
  3 10  1  0  0  0  0
  4 18  2  0  0  0  0
  5  1  1  0  0  0  0
  6  8  1  0  0  0  0
  7  9  1  0  0  0  0
  7 25  1  1  0  0  0
  8 12  2  0  0  0  0
  9 20  1  0  0  0  0
 10 19  2  0  0  0  0
 11  5  2  0  0  0  0
 11  8  1  0  0  0  0
 12  4  1  0  0  0  0
 12 24  1  0  0  0  0
 13 16  1  0  0  0  0
 14  2  2  0  0  0  0
 15  3  1  0  0  0  0
 16 22  2  0  0  0  0
 17 23  1  0  0  0  0
 18 15  1  0  0  0  0
 20 18  1  6  0  0  0
 20 10  1  0  0  0  0
 21 24  2  0  0  0  0
 23 22  1  0  0  0  0
 23 15  2  0  0  0  0
 24  7  1  0  0  0  0
 25 27  1  0  0  0  0
 26 27  1  0  0  0  0
 28 11  1  0  0  0  0
 29 30  1  0  0  0  0
 30 28  1  0  0  0  0
M  END
>  <MODEL>
2

>  <REMARK>
 VINA RESULT:      -8.2      2.171      7.486
  Name = 
  4 active torsions:
  status: ('A' for Active; 'I' for Inactive)
    1  A    between atoms: C_7  and  C_15
    2  A    between atoms: C_11  and  C_28
    3  A    between atoms: C_15  and  C_23
    4  A    between atoms: C_28  and  C_30
                            x       y       z     vdW  Elec       q    Type
                         _______ _______ _______ _____ _____    ______ ____

>  <TORSDO>
F 4

$$$$
=
 OpenBabel11122412363D

 30 34  0  0  1  0  0  0  0  0999 V2000
  161.4330  208.4760  151.7480 C   0  0  0  0  0  0  0  0  0  0  0  0
  161.5140  209.5880  154.0680 C   0  0  0  0  0  0  0  0  0  0  0  0
  160.7700  204.7050  153.4670 N   0  0  0  0  0  2  0  0  0  0  0  0
  161.2380  207.3070  150.9520 C   0  0  0  0  0  0  0  0  0  0  0  0
  161.7550  209.6760  151.1090 C   0  0  0  0  0  3  0  0  0  0  0  0
  161.9570  208.6890  147.5690 O   0  0  0  0  0  1  0  0  0  0  0  0
  161.7480  204.8060  148.9390 C   0  0  2  0  0  3  0  0  0  0  0  0
  161.7480  208.5990  148.9430 C   0  0  0  0  0  0  0  0  0  0  0  0
  162.0000  204.5200  150.3020 O   0  0  0  0  0  0  0  0  0  0  0  0
  160.7720  203.9340  152.2690 C   0  0  0  0  0  0  0  0  0  0  0  0
  161.9140  209.7460  149.7300 C   0  0  0  0  0  0  0  0  0  0  0  0
  161.3870  207.3660  149.5360 C   0  0  0  0  0  0  0  0  0  0  0  0
  161.0560  209.5260  155.4960 C   0  0  0  0  0  2  0  0  0  0  0  0
  162.0290  210.6580  153.6480 O   0  0  0  0  0  0  0  0  0  0  0  0
  160.8770  206.0400  152.9940 C   0  0  0  0  0  0  0  0  0  0  0  0
  161.0590  208.1280  156.0450 C   0  0  0  0  0  3  0  0  0  0  0  0
  161.3160  208.4120  153.1710 C   0  0  0  0  0  0  0  0  0  0  0  0
  160.9240  206.1150  151.6200 C   0  0  0  0  0  0  0  0  0  0  0  0
  160.7120  202.6770  152.2740 O   0  0  0  0  0  0  0  0  0  0  0  0
  160.8220  204.7610  151.0240 C   0  0  1  0  0  3  0  0  0  0  0  0
  160.4080  206.3430  147.5470 C   0  0  0  0  0  2  0  0  0  0  0  0
  161.0170  207.0510  155.2590 C   0  0  0  0  0  3  0  0  0  0  0  0
  161.0440  207.1700  153.7910 C   0  0  0  0  0  0  0  0  0  0  0  0
  161.1170  206.1740  148.6650 C   0  0  0  0  0  0  0  0  0  0  0  0
  161.0250  203.6360  148.2630 C   0  0  0  0  0  2  0  0  0  0  0  0
  160.3240  201.4140  149.0920 C   0  0  0  0  0  1  0  0  0  0  0  0
  161.5100  202.3170  148.8320 C   0  0  0  0  0  2  0  0  0  0  0  0
  162.2930  211.0550  149.1120 C   0  0  0  0  0  2  0  0  0  0  0  0
  161.5220  213.3780  148.6110 C   0  0  0  0  0  1  0  0  0  0  0  0
  161.2790  212.1380  149.4500 C   0  0  0  0  0  2  0  0  0  0  0  0
  1 17  1  0  0  0  0
  2 13  1  0  0  0  0
  4 18  1  0  0  0  0
  4  1  2  0  0  0  0
  5  1  1  0  0  0  0
  6  8  1  0  0  0  0
  7 25  1  1  0  0  0
  7  9  1  0  0  0  0
  8 12  2  0  0  0  0
  8 11  1  0  0  0  0
 10 19  2  0  0  0  0
 10  3  1  0  0  0  0
 11  5  2  0  0  0  0
 12  4  1  0  0  0  0
 13 16  1  0  0  0  0
 14  2  2  0  0  0  0
 15  3  1  0  0  0  0
 15 23  1  0  0  0  0
 17 23  2  0  0  0  0
 17  2  1  0  0  0  0
 18 15  2  0  0  0  0
 20  9  1  6  0  0  0
 20 18  1  0  0  0  0
 20 10  1  0  0  0  0
 21 24  2  0  0  0  0
 22 16  2  0  0  0  0
 23 22  1  0  0  0  0
 24  7  1  0  0  0  0
 24 12  1  0  0  0  0
 25 27  1  0  0  0  0
 27 26  1  0  0  0  0
 28 30  1  0  0  0  0
 28 11  1  0  0  0  0
 29 30  1  0  0  0  0
M  END
>  <MODEL>
3

>  <REMARK>
 VINA RESULT:      -7.6      1.883      4.959
  Name = 
  4 active torsions:
  status: ('A' for Active; 'I' for Inactive)
    1  A    between atoms: C_7  and  C_15
    2  A    between atoms: C_11  and  C_28
    3  A    between atoms: C_15  and  C_23
    4  A    between atoms: C_28  and  C_30
                            x       y       z     vdW  Elec       q    Type
                         _______ _______ _______ _____ _____    ______ ____

>  <TORSDO>
F 4

$$$$
=
 OpenBabel11122412363D

 30 34  0  0  1  0  0  0  0  0999 V2000
  161.3270  205.4750  149.7590 C   0  0  0  0  0  0  0  0  0  0  0  0
  161.4940  204.3350  147.4580 C   0  0  0  0  0  0  0  0  0  0  0  0
  161.9410  209.2560  148.0440 N   0  0  0  0  0  2  0  0  0  0  0  0
  161.3120  206.6700  150.5400 C   0  0  0  0  0  0  0  0  0  0  0  0
  161.2220  204.2450  150.4140 C   0  0  0  0  0  3  0  0  0  0  0  0
  161.0940  205.2160  153.9620 O   0  0  0  0  0  1  0  0  0  0  0  0
  162.1130  208.9950  152.6660 C   0  0  2  0  0  3  0  0  0  0  0  0
  161.1400  205.3300  152.5750 C   0  0  0  0  0  0  0  0  0  0  0  0
  162.6480  209.1800  151.3690 O   0  0  0  0  0  0  0  0  0  0  0  0
  161.9470  210.0230  149.2440 C   0  0  0  0  0  0  0  0  0  0  0  0
  161.1320  204.1640  151.7980 C   0  0  0  0  0  0  0  0  0  0  0  0
  161.2090  206.6030  151.9600 C   0  0  0  0  0  0  0  0  0  0  0  0
  161.3050  204.4850  145.9760 C   0  0  0  0  0  2  0  0  0  0  0  0
  161.6430  203.1770  147.9300 O   0  0  0  0  0  0  0  0  0  0  0  0
  161.6230  207.9470  148.4970 C   0  0  0  0  0  0  0  0  0  0  0  0
  161.7550  205.8250  145.4670 C   0  0  0  0  0  3  0  0  0  0  0  0
  161.4620  205.5390  148.3380 C   0  0  0  0  0  0  0  0  0  0  0  0
  161.4260  207.8890  149.8580 C   0  0  0  0  0  0  0  0  0  0  0  0
  162.2130  211.2530  149.2580 O   0  0  0  0  0  0  0  0  0  0  0  0
  161.5810  209.2360  150.4610 C   0  0  1  0  0  3  0  0  0  0  0  0
  160.2180  207.8810  153.7870 C   0  0  0  0  0  2  0  0  0  0  0  0
  161.8650  206.8910  146.2610 C   0  0  0  0  0  3  0  0  0  0  0  0
  161.6220  206.7980  147.7110 C   0  0  0  0  0  0  0  0  0  0  0  0
  161.1170  207.8400  152.8040 C   0  0  0  0  0  0  0  0  0  0  0  0
  161.6160  210.3240  153.2440 C   0  0  0  0  0  2  0  0  0  0  0  0
  161.2540  211.0320  155.5860 C   0  0  0  0  0  1  0  0  0  0  0  0
  162.2930  210.6080  154.5710 C   0  0  0  0  0  2  0  0  0  0  0  0
  161.0570  202.8130  152.4390 C   0  0  0  0  0  2  0  0  0  0  0  0
  160.6380  201.2700  150.5190 C   0  0  0  0  0  1  0  0  0  0  0  0
  161.6570  201.7430  151.5380 C   0  0  0  0  0  2  0  0  0  0  0  0
  1  5  2  0  0  0  0
  1  4  1  0  0  0  0
  2 14  2  0  0  0  0
  2 17  1  0  0  0  0
  3 15  1  0  0  0  0
  3 10  1  0  0  0  0
  4 12  2  0  0  0  0
  5 11  1  0  0  0  0
  7 24  1  0  0  0  0
  7 25  1  6  0  0  0
  8  6  1  0  0  0  0
  9  7  1  0  0  0  0
 10 19  2  0  0  0  0
 11 28  1  0  0  0  0
 11  8  2  0  0  0  0
 12  8  1  0  0  0  0
 12 24  1  0  0  0  0
 13  2  1  0  0  0  0
 15 18  2  0  0  0  0
 16 13  1  0  0  0  0
 16 22  2  0  0  0  0
 17  1  1  0  0  0  0
 18 20  1  0  0  0  0
 18  4  1  0  0  0  0
 20 10  1  6  0  0  0
 20  9  1  0  0  0  0
 22 23  1  0  0  0  0
 23 17  2  0  0  0  0
 23 15  1  0  0  0  0
 24 21  2  0  0  0  0
 25 27  1  0  0  0  0
 27 26  1  0  0  0  0
 29 30  1  0  0  0  0
 30 28  1  0  0  0  0
M  END
>  <MODEL>
4

>  <REMARK>
 VINA RESULT:      -7.5      1.562      5.996
  Name = 
  4 active torsions:
  status: ('A' for Active; 'I' for Inactive)
    1  A    between atoms: C_7  and  C_15
    2  A    between atoms: C_11  and  C_28
    3  A    between atoms: C_15  and  C_23
    4  A    between atoms: C_28  and  C_30
                            x       y       z     vdW  Elec       q    Type
                         _______ _______ _______ _____ _____    ______ ____

>  <TORSDO>
F 4

$$$$
=
 OpenBabel11122412363D

 30 34  0  0  1  0  0  0  0  0999 V2000
  161.1390  205.0170  151.1710 C   0  0  0  0  0  0  0  0  0  0  0  0
  160.9080  202.4540  151.2020 C   0  0  0  0  0  0  0  0  0  0  0  0
  161.3500  205.0480  146.9790 N   0  0  0  0  0  2  0  0  0  0  0  0
  161.2410  206.2320  150.4290 C   0  0  0  0  0  0  0  0  0  0  0  0
  161.1810  205.0770  152.5660 C   0  0  0  0  0  3  0  0  0  0  0  0
  161.6820  208.6660  153.2130 O   0  0  0  0  0  1  0  0  0  0  0  0
  162.3680  209.0060  149.1620 C   0  0  2  0  0  3  0  0  0  0  0  0
  161.4720  207.4790  152.5170 C   0  0  0  0  0  0  0  0  0  0  0  0
  162.6530  207.8540  148.3920 O   0  0  0  0  0  0  0  0  0  0  0  0
  161.5580  206.4460  146.7980 C   0  0  0  0  0  0  0  0  0  0  0  0
  161.3460  206.2840  153.2360 C   0  0  0  0  0  0  0  0  0  0  0  0
  161.4010  207.4780  151.1030 C   0  0  0  0  0  0  0  0  0  0  0  0
  160.4490  201.2340  150.4560 C   0  0  0  0  0  2  0  0  0  0  0  0
  161.1640  202.3450  152.4300 O   0  0  0  0  0  0  0  0  0  0  0  0
  161.1480  204.9290  148.3800 C   0  0  0  0  0  0  0  0  0  0  0  0
  160.7710  201.2970  148.9900 C   0  0  0  0  0  3  0  0  0  0  0  0
  161.0110  203.7630  150.4960 C   0  0  0  0  0  0  0  0  0  0  0  0
  161.2040  206.1410  149.0300 C   0  0  0  0  0  0  0  0  0  0  0  0
  161.7970  206.9530  145.6720 O   0  0  0  0  0  0  0  0  0  0  0  0
  161.4370  207.2380  148.0600 C   0  0  1  0  0  3  0  0  0  0  0  0
  160.7320  209.8090  150.8270 C   0  0  0  0  0  2  0  0  0  0  0  0
  161.0000  202.4490  148.3570 C   0  0  0  0  0  3  0  0  0  0  0  0
  161.0280  203.7320  149.0810 C   0  0  0  0  0  0  0  0  0  0  0  0
  161.4370  208.7790  150.3580 C   0  0  0  0  0  0  0  0  0  0  0  0
  161.9560  210.1750  148.2600 C   0  0  0  0  0  2  0  0  0  0  0  0
  161.8140  212.6290  148.5360 C   0  0  0  0  0  1  0  0  0  0  0  0
  162.7270  211.4260  148.6350 C   0  0  0  0  0  2  0  0  0  0  0  0
  161.4180  206.2740  154.7320 C   0  0  0  0  0  2  0  0  0  0  0  0
  160.4540  207.3290  156.7810 C   0  0  0  0  0  1  0  0  0  0  0  0
  160.1830  206.9170  155.3460 C   0  0  0  0  0  2  0  0  0  0  0  0
  1  5  2  0  0  0  0
  2 14  2  0  0  0  0
  3 15  1  0  0  0  0
  4 12  2  0  0  0  0
  4  1  1  0  0  0  0
  5 11  1  0  0  0  0
  7 25  1  6  0  0  0
  7 24  1  0  0  0  0
  8  6  1  0  0  0  0
  8 11  2  0  0  0  0
  9  7  1  0  0  0  0
 10  3  1  0  0  0  0
 11 28  1  0  0  0  0
 12  8  1  0  0  0  0
 13  2  1  0  0  0  0
 15 18  2  0  0  0  0
 15 23  1  0  0  0  0
 16 13  1  0  0  0  0
 17  1  1  0  0  0  0
 17  2  1  0  0  0  0
 18  4  1  0  0  0  0
 19 10  2  0  0  0  0
 20 10  1  6  0  0  0
 20  9  1  0  0  0  0
 20 18  1  0  0  0  0
 22 16  2  0  0  0  0
 22 23  1  0  0  0  0
 23 17  2  0  0  0  0
 24 21  2  0  0  0  0
 24 12  1  0  0  0  0
 25 27  1  0  0  0  0
 26 27  1  0  0  0  0
 28 30  1  0  0  0  0
 30 29  1  0  0  0  0
M  END
>  <MODEL>
5

>  <REMARK>
 VINA RESULT:      -7.4      1.394      5.573
  Name = 
  4 active torsions:
  status: ('A' for Active; 'I' for Inactive)
    1  A    between atoms: C_7  and  C_15
    2  A    between atoms: C_11  and  C_28
    3  A    between atoms: C_15  and  C_23
    4  A    between atoms: C_28  and  C_30
                            x       y       z     vdW  Elec       q    Type
                         _______ _______ _______ _____ _____    ______ ____

>  <TORSDO>
F 4

$$$$
=
 OpenBabel11122412363D

 30 34  0  0  1  0  0  0  0  0999 V2000
  161.1540  204.6010  148.5250 C   0  0  0  0  0  0  0  0  0  0  0  0
  160.8950  202.0960  147.9940 C   0  0  0  0  0  0  0  0  0  0  0  0
  161.2450  203.8220  152.6470 N   0  0  0  0  0  2  0  0  0  0  0  0
  161.3340  205.6410  149.4860 C   0  0  0  0  0  0  0  0  0  0  0  0
  161.0270  204.9480  147.1780 C   0  0  0  0  0  3  0  0  0  0  0  0
  161.1670  208.6260  147.2640 O   0  0  0  0  0  1  0  0  0  0  0  0
  160.8410  208.2530  151.3580 C   0  0  2  0  0  3  0  0  0  0  0  0
  161.1970  207.3040  147.7020 C   0  0  0  0  0  0  0  0  0  0  0  0
  160.3980  207.0350  151.9260 O   0  0  0  0  0  0  0  0  0  0  0  0
  161.3160  205.1680  153.1060 C   0  0  0  0  0  0  0  0  0  0  0  0
  161.0450  206.2750  146.7640 C   0  0  0  0  0  0  0  0  0  0  0  0
  161.3650  207.0050  149.0760 C   0  0  0  0  0  0  0  0  0  0  0  0
  161.1670  200.6910  148.4480 C   0  0  0  0  0  2  0  0  0  0  0  0
  160.5380  202.2830  146.8010 O   0  0  0  0  0  0  0  0  0  0  0  0
  161.3220  203.9550  151.2350 C   0  0  0  0  0  0  0  0  0  0  0  0
  160.9660  200.5110  149.9260 C   0  0  0  0  0  3  0  0  0  0  0  0
  161.0900  203.2340  148.9380 C   0  0  0  0  0  0  0  0  0  0  0  0
  161.4510  205.2640  150.8310 C   0  0  0  0  0  0  0  0  0  0  0  0
  161.2560  205.4710  154.3260 O   0  0  0  0  0  0  0  0  0  0  0  0
  161.4960  206.1670  152.0080 C   0  0  1  0  0  3  0  0  0  0  0  0
  162.4790  209.0830  149.7080 C   0  0  0  0  0  2  0  0  0  0  0  0
  161.0020  201.5330  150.7820 C   0  0  0  0  0  3  0  0  0  0  0  0
  161.1660  202.9210  150.3160 C   0  0  0  0  0  0  0  0  0  0  0  0
  161.6260  208.1160  150.0500 C   0  0  0  0  0  0  0  0  0  0  0  0
  161.5270  209.1280  152.4120 C   0  0  0  0  0  2  0  0  0  0  0  0
  161.4360  208.8200  154.8650 C   0  0  0  0  0  1  0  0  0  0  0  0
  160.6520  209.2520  153.6450 C   0  0  0  0  0  2  0  0  0  0  0  0
  160.8690  206.5800  145.3090 C   0  0  0  0  0  2  0  0  0  0  0  0
  161.6120  205.8200  143.0480 C   0  0  0  0  0  1  0  0  0  0  0  0
  161.2270  205.3780  144.4470 C   0  0  0  0  0  2  0  0  0  0  0  0
  1 17  2  0  0  0  0
  1  4  1  0  0  0  0
  2 13  1  0  0  0  0
  2 17  1  0  0  0  0
  3 10  1  0  0  0  0
  4 18  2  0  0  0  0
  5  1  1  0  0  0  0
  6  8  1  0  0  0  0
  7  9  1  0  0  0  0
  7 25  1  1  0  0  0
  8 12  2  0  0  0  0
  9 20  1  0  0  0  0
 10 19  2  0  0  0  0
 11  5  2  0  0  0  0
 11  8  1  0  0  0  0
 12  4  1  0  0  0  0
 12 24  1  0  0  0  0
 13 16  1  0  0  0  0
 14  2  2  0  0  0  0
 15  3  1  0  0  0  0
 16 22  2  0  0  0  0
 17 23  1  0  0  0  0
 18 15  1  0  0  0  0
 20 18  1  6  0  0  0
 20 10  1  0  0  0  0
 21 24  2  0  0  0  0
 23 22  1  0  0  0  0
 23 15  2  0  0  0  0
 24  7  1  0  0  0  0
 25 27  1  0  0  0  0
 27 26  1  0  0  0  0
 28 11  1  0  0  0  0
 29 30  1  0  0  0  0
 30 28  1  0  0  0  0
M  END
>  <MODEL>
6

>  <REMARK>
 VINA RESULT:      -7.4      2.103      7.557
  Name = 
  4 active torsions:
  status: ('A' for Active; 'I' for Inactive)
    1  A    between atoms: C_7  and  C_15
    2  A    between atoms: C_11  and  C_28
    3  A    between atoms: C_15  and  C_23
    4  A    between atoms: C_28  and  C_30
                            x       y       z     vdW  Elec       q    Type
                         _______ _______ _______ _____ _____    ______ ____

>  <TORSDO>
F 4

$$$$
=
 OpenBabel11122412363D

 30 34  0  0  1  0  0  0  0  0999 V2000
  161.3730  207.2130  150.6630 C   0  0  0  0  0  0  0  0  0  0  0  0
  161.3840  208.3730  152.9610 C   0  0  0  0  0  0  0  0  0  0  0  0
  160.6340  203.4820  152.4370 N   0  0  0  0  0  2  0  0  0  0  0  0
  161.1990  206.0290  149.8860 C   0  0  0  0  0  0  0  0  0  0  0  0
  161.7230  208.3980  150.0110 C   0  0  0  0  0  3  0  0  0  0  0  0
  162.0360  207.3360  146.5000 O   0  0  0  0  0  1  0  0  0  0  0  0
  161.7610  203.4830  147.9440 C   0  0  2  0  0  3  0  0  0  0  0  0
  161.7810  207.2760  147.8680 C   0  0  0  0  0  0  0  0  0  0  0  0
  161.9670  203.2250  149.3190 O   0  0  0  0  0  0  0  0  0  0  0  0
  160.6710  202.6860  151.2560 C   0  0  0  0  0  0  0  0  0  0  0  0
  161.9270  208.4380  148.6360 C   0  0  0  0  0  0  0  0  0  0  0  0
  161.3950  206.0570  148.4740 C   0  0  0  0  0  0  0  0  0  0  0  0
  160.8780  208.3430  154.3740 C   0  0  0  0  0  2  0  0  0  0  0  0
  161.9180  209.4310  152.5360 O   0  0  0  0  0  0  0  0  0  0  0  0
  160.7630  204.8070  151.9400 C   0  0  0  0  0  0  0  0  0  0  0  0
  160.8560  206.9570  154.9520 C   0  0  0  0  0  3  0  0  0  0  0  0
  161.2090  207.1800  152.0830 C   0  0  0  0  0  0  0  0  0  0  0  0
  160.8560  204.8530  150.5670 C   0  0  0  0  0  0  0  0  0  0  0  0
  160.6050  201.4300  151.2860 O   0  0  0  0  0  0  0  0  0  0  0  0
  160.7670  203.4860  149.9970 C   0  0  1  0  0  3  0  0  0  0  0  0
  160.4770  204.9970  146.4760 C   0  0  0  0  0  2  0  0  0  0  0  0
  160.8340  205.8640  154.1880 C   0  0  0  0  0  3  0  0  0  0  0  0
  160.9100  205.9510  152.7190 C   0  0  0  0  0  0  0  0  0  0  0  0
  161.1470  204.8490  147.6200 C   0  0  0  0  0  0  0  0  0  0  0  0
  161.0560  202.3030  147.2680 C   0  0  0  0  0  2  0  0  0  0  0  0
  161.5780  199.9150  146.8870 C   0  0  0  0  0  1  0  0  0  0  0  0
  161.4520  201.0000  147.9350 C   0  0  0  0  0  2  0  0  0  0  0  0
  162.3340  209.7330  148.0040 C   0  0  0  0  0  2  0  0  0  0  0  0
  162.6080  212.1880  148.3720 C   0  0  0  0  0  1  0  0  0  0  0  0
  161.9620  210.9160  148.8860 C   0  0  0  0  0  2  0  0  0  0  0  0
  1 17  1  0  0  0  0
  2 13  1  0  0  0  0
  4 18  1  0  0  0  0
  4  1  2  0  0  0  0
  5  1  1  0  0  0  0
  6  8  1  0  0  0  0
  7 25  1  1  0  0  0
  7  9  1  0  0  0  0
  8 12  2  0  0  0  0
  8 11  1  0  0  0  0
 10 19  2  0  0  0  0
 10  3  1  0  0  0  0
 11  5  2  0  0  0  0
 12  4  1  0  0  0  0
 13 16  1  0  0  0  0
 14  2  2  0  0  0  0
 15  3  1  0  0  0  0
 15 23  1  0  0  0  0
 17 23  2  0  0  0  0
 17  2  1  0  0  0  0
 18 15  2  0  0  0  0
 20  9  1  1  0  0  0
 20 18  1  0  0  0  0
 20 10  1  0  0  0  0
 21 24  2  0  0  0  0
 22 16  2  0  0  0  0
 23 22  1  0  0  0  0
 24  7  1  0  0  0  0
 24 12  1  0  0  0  0
 25 27  1  0  0  0  0
 26 27  1  0  0  0  0
 28 11  1  0  0  0  0
 28 30  1  0  0  0  0
 29 30  1  0  0  0  0
M  END
>  <MODEL>
7

>  <REMARK>
 VINA RESULT:      -6.9      1.800      4.841
  Name = 
  4 active torsions:
  status: ('A' for Active; 'I' for Inactive)
    1  A    between atoms: C_7  and  C_15
    2  A    between atoms: C_11  and  C_28
    3  A    between atoms: C_15  and  C_23
    4  A    between atoms: C_28  and  C_30
                            x       y       z     vdW  Elec       q    Type
                         _______ _______ _______ _____ _____    ______ ____

>  <TORSDO>
F 4

$$$$
=
 OpenBabel11122412363D

 30 34  0  0  1  0  0  0  0  0999 V2000
  160.8960  210.6850  151.6630 C   0  0  0  0  0  0  0  0  0  0  0  0
  160.7970  212.9630  150.4700 C   0  0  0  0  0  0  0  0  0  0  0  0
  162.3190  208.8130  148.1870 N   0  0  0  0  0  2  0  0  0  0  0  0
  161.2290  209.2970  151.6350 C   0  0  0  0  0  0  0  0  0  0  0  0
  160.3270  211.2140  152.8240 C   0  0  0  0  0  3  0  0  0  0  0  0
  160.0370  208.2670  155.0100 O   0  0  0  0  0  1  0  0  0  0  0  0
  161.0080  206.0540  151.6700 C   0  0  2  0  0  3  0  0  0  0  0  0
  160.3590  209.0500  153.9040 C   0  0  0  0  0  0  0  0  0  0  0  0
  160.9090  206.6320  150.3830 O   0  0  0  0  0  0  0  0  0  0  0  0
  162.3610  207.4770  148.6800 C   0  0  0  0  0  0  0  0  0  0  0  0
  160.0580  210.4170  153.9300 C   0  0  0  0  0  0  0  0  0  0  0  0
  160.9680  208.4690  152.7660 C   0  0  0  0  0  0  0  0  0  0  0  0
  161.3630  213.8240  149.3770 C   0  0  0  0  0  2  0  0  0  0  0  0
  160.0770  213.5050  151.3490 O   0  0  0  0  0  0  0  0  0  0  0  0
  161.9510  209.5690  149.3310 C   0  0  0  0  0  0  0  0  0  0  0  0
  161.6400  213.0530  148.1180 C   0  0  0  0  0  3  0  0  0  0  0  0
  161.1270  211.5090  150.5180 C   0  0  0  0  0  0  0  0  0  0  0  0
  161.7910  208.7900  150.4550 C   0  0  0  0  0  0  0  0  0  0  0  0
  162.6350  206.4930  147.9440 O   0  0  0  0  0  0  0  0  0  0  0  0
  162.0780  207.3690  150.1430 C   0  0  1  0  0  3  0  0  0  0  0  0
  161.9580  206.5450  153.8940 C   0  0  0  0  0  2  0  0  0  0  0  0
  161.8070  211.7300  148.1120 C   0  0  0  0  0  3  0  0  0  0  0  0
  161.6520  210.9290  149.3390 C   0  0  0  0  0  0  0  0  0  0  0  0
  161.3730  207.0250  152.7960 C   0  0  0  0  0  0  0  0  0  0  0  0
  161.8680  204.7860  151.6320 C   0  0  0  0  0  2  0  0  0  0  0  0
  160.8270  203.2330  150.0120 C   0  0  0  0  0  1  0  0  0  0  0  0
  160.9900  203.5580  151.4810 C   0  0  0  0  0  2  0  0  0  0  0  0
  159.4160  211.0410  155.1300 C   0  0  0  0  0  2  0  0  0  0  0  0
  156.9510  211.4150  154.9660 C   0  0  0  0  0  1  0  0  0  0  0  0
  158.3220  212.0180  154.7230 C   0  0  0  0  0  2  0  0  0  0  0  0
  1  5  2  0  0  0  0
  2 17  1  0  0  0  0
  2 14  2  0  0  0  0
  3 10  1  0  0  0  0
  3 15  1  0  0  0  0
  4  1  1  0  0  0  0
  4 12  2  0  0  0  0
  5 11  1  0  0  0  0
  7 25  1  6  0  0  0
  7 24  1  0  0  0  0
  8 11  2  0  0  0  0
  8  6  1  0  0  0  0
  9  7  1  0  0  0  0
 11 28  1  0  0  0  0
 12 24  1  0  0  0  0
 12  8  1  0  0  0  0
 13  2  1  0  0  0  0
 15 23  1  0  0  0  0
 15 18  2  0  0  0  0
 16 13  1  0  0  0  0
 17  1  1  0  0  0  0
 18  4  1  0  0  0  0
 19 10  2  0  0  0  0
 20 10  1  6  0  0  0
 20  9  1  0  0  0  0
 20 18  1  0  0  0  0
 22 16  2  0  0  0  0
 22 23  1  0  0  0  0
 23 17  2  0  0  0  0
 24 21  2  0  0  0  0
 26 27  1  0  0  0  0
 27 25  1  0  0  0  0
 30 29  1  0  0  0  0
 30 28  1  0  0  0  0
M  END
>  <MODEL>
8

>  <REMARK>
 VINA RESULT:      -6.8      2.204      3.418
  Name = 
  4 active torsions:
  status: ('A' for Active; 'I' for Inactive)
    1  A    between atoms: C_7  and  C_15
    2  A    between atoms: C_11  and  C_28
    3  A    between atoms: C_15  and  C_23
    4  A    between atoms: C_28  and  C_30
                            x       y       z     vdW  Elec       q    Type
                         _______ _______ _______ _____ _____    ______ ____

>  <TORSDO>
F 4

$$$$
=
 OpenBabel11122412363D

 30 34  0  0  1  0  0  0  0  0999 V2000
  161.6690  207.6270  149.1740 C   0  0  0  0  0  0  0  0  0  0  0  0
  161.5900  206.0270  147.1600 C   0  0  0  0  0  0  0  0  0  0  0  0
  161.2160  204.4340  151.8580 N   0  0  0  0  0  2  0  0  0  0  0  0
  161.6700  207.8240  150.5880 C   0  0  0  0  0  0  0  0  0  0  0  0
  161.7170  208.7480  148.3420 C   0  0  0  0  0  3  0  0  0  0  0  0
  161.6910  211.5450  150.7350 O   0  0  0  0  0  1  0  0  0  0  0  0
  160.8130  208.7090  153.5960 C   0  0  2  0  0  3  0  0  0  0  0  0
  161.7150  210.2420  150.2450 C   0  0  0  0  0  0  0  0  0  0  0  0
  160.3460  207.4320  153.2080 O   0  0  0  0  0  0  0  0  0  0  0  0
  161.1670  205.1890  153.0650 C   0  0  0  0  0  0  0  0  0  0  0  0
  161.7380  210.0380  148.8600 C   0  0  0  0  0  0  0  0  0  0  0  0
  161.7020  209.1400  151.1340 C   0  0  0  0  0  0  0  0  0  0  0  0
  161.8550  204.6350  146.6630 C   0  0  0  0  0  2  0  0  0  0  0  0
  161.3960  206.9400  146.3140 O   0  0  0  0  0  0  0  0  0  0  0  0
  161.4840  205.4170  150.8700 C   0  0  0  0  0  0  0  0  0  0  0  0
  161.4570  203.5800  147.6560 C   0  0  0  0  0  3  0  0  0  0  0  0
  161.6040  206.3100  148.6250 C   0  0  0  0  0  0  0  0  0  0  0  0
  161.6140  206.6820  151.3990 C   0  0  0  0  0  0  0  0  0  0  0  0
  160.9250  204.6640  154.1820 O   0  0  0  0  0  0  0  0  0  0  0  0
  161.4570  206.6430  152.8740 C   0  0  1  0  0  3  0  0  0  0  0  0
  162.6290  210.2970  153.0720 C   0  0  0  0  0  2  0  0  0  0  0  0
  161.3310  203.8370  148.9590 C   0  0  0  0  0  3  0  0  0  0  0  0
  161.5000  205.1990  149.4950 C   0  0  0  0  0  0  0  0  0  0  0  0
  161.7780  209.3790  152.6130 C   0  0  0  0  0  0  0  0  0  0  0  0
  161.3090  208.6910  155.0460 C   0  0  0  0  0  2  0  0  0  0  0  0
  160.1510  207.1690  156.6160 C   0  0  0  0  0  1  0  0  0  0  0  0
  160.1390  208.5520  156.0010 C   0  0  0  0  0  2  0  0  0  0  0  0
  161.7540  211.1970  147.9120 C   0  0  0  0  0  2  0  0  0  0  0  0
  162.7990  213.4650  147.8290 C   0  0  0  0  0  1  0  0  0  0  0  0
  163.0530  211.9820  148.0240 C   0  0  0  0  0  2  0  0  0  0  0  0
  1  4  1  0  0  0  0
  2 17  1  0  0  0  0
  3 10  1  0  0  0  0
  4 12  1  0  0  0  0
  4 18  2  0  0  0  0
  5 11  2  0  0  0  0
  5  1  1  0  0  0  0
  7 25  1  1  0  0  0
  8  6  1  0  0  0  0
  8 12  2  0  0  0  0
  9  7  1  0  0  0  0
 10 19  2  0  0  0  0
 11  8  1  0  0  0  0
 12 24  1  0  0  0  0
 13  2  1  0  0  0  0
 13 16  1  0  0  0  0
 14  2  2  0  0  0  0
 15 18  1  0  0  0  0
 15  3  1  0  0  0  0
 16 22  2  0  0  0  0
 17  1  2  0  0  0  0
 17 23  1  0  0  0  0
 20 18  1  6  0  0  0
 20 10  1  0  0  0  0
 20  9  1  0  0  0  0
 22 23  1  0  0  0  0
 23 15  2  0  0  0  0
 24 21  2  0  0  0  0
 24  7  1  0  0  0  0
 25 27  1  0  0  0  0
 27 26  1  0  0  0  0
 28 30  1  0  0  0  0
 28 11  1  0  0  0  0
 29 30  1  0  0  0  0
M  END
>  <MODEL>
9

>  <REMARK>
 VINA RESULT:      -6.7      1.755      6.610
  Name = 
  4 active torsions:
  status: ('A' for Active; 'I' for Inactive)
    1  A    between atoms: C_7  and  C_15
    2  A    between atoms: C_11  and  C_28
    3  A    between atoms: C_15  and  C_23
    4  A    between atoms: C_28  and  C_30
                            x       y       z     vdW  Elec       q    Type
                         _______ _______ _______ _____ _____    ______ ____

>  <TORSDO>
F 4

$$$$
