=
 OpenBabel11122414313D

 34 40  0  0  1  0  0  0  0  0999 V2000
  161.3630  211.0160  151.4710 C   0  0  2  0  0  3  0  0  0  0  0  0
  162.2440  209.0700  150.0270 C   0  0  0  0  0  3  0  0  0  0  0  0
  156.3210  212.2650  154.4440 C   0  0  0  0  0  2  0  0  0  0  0  0
  159.8250  212.4620  152.9440 C   0  0  0  0  0  0  0  0  0  0  0  0
  159.2920  211.7060  155.2470 C   0  0  0  0  0  0  0  0  0  0  0  0
  157.2210  211.0950  156.4880 C   0  0  0  0  0  2  0  0  0  0  0  0
  156.0830  211.9340  155.9130 C   0  0  0  0  0  2  0  0  0  0  0  0
  157.5770  214.3490  155.1370 C   0  0  0  0  0  2  0  0  0  0  0  0
  161.5960  208.6450  152.1980 C   0  0  0  0  0  0  0  0  0  0  0  0
  161.3600  205.7650  153.2560 C   0  0  0  0  0  2  0  0  0  0  0  0
  159.8630  210.5220  154.9820 C   0  0  0  0  0  3  0  0  0  0  0  0
  158.9880  214.1550  154.5870 C   0  0  0  0  0  2  0  0  0  0  0  0
  161.1580  208.9200  153.4380 C   0  0  0  0  0  0  0  0  0  0  0  0
  162.5380  207.6530  150.3030 N   0  0  0  0  0  0  0  0  0  0  0  0
  159.3020  212.7610  154.2520 N   0  0  0  0  0  0  0  0  0  0  0  0
  156.4870  213.7690  154.2380 C   0  0  0  0  0  2  0  0  0  0  0  0
  161.3120  206.2570  151.8770 N   0  0  0  0  0  0  0  0  0  0  0  0
  160.5530  211.1960  152.7380 C   0  0  0  0  0  0  0  0  0  0  0  0
  158.5480  211.8540  156.5390 C   0  0  0  0  0  2  0  0  0  0  0  0
  160.5460  210.2510  153.6980 C   0  0  0  0  0  0  0  0  0  0  0  0
  159.9960  212.8560  150.5240 C   0  0  0  0  0  3  0  0  0  0  0  0
  160.5140  206.6280  154.1840 C   0  0  0  0  0  2  0  0  0  0  0  0
  159.5690  213.2460  151.8860 C   0  0  0  0  0  3  0  0  0  0  0  0
  161.2610  207.9060  154.5390 C   0  0  0  0  0  2  0  0  0  0  0  0
  162.2370  207.3960  151.7250 C   0  0  2  0  0  3  0  0  0  0  0  0
  160.7820  211.7920  150.3180 C   0  0  0  0  0  3  0  0  0  0  0  0
  161.5210  209.5960  151.1650 N   0  0  0  0  0  0  0  0  0  0  0  0
  161.6660  205.1350  150.9920 C   0  0  0  0  0  2  0  0  0  0  0  0
  161.0280  203.8070  151.4130 C   0  0  0  0  0  2  0  0  0  0  0  0
  161.0900  202.4480  148.1800 C   0  0  0  0  0  2  0  0  0  0  0  0
  160.4500  201.7860  150.3850 C   0  0  0  0  0  2  0  0  0  0  0  0
  160.2950  203.2350  150.2960 N   0  0  0  0  0  0  0  0  0  0  0  0
  161.1570  201.2940  149.1380 C   0  0  0  0  0  2  0  0  0  0  0  0
  160.9730  203.6540  149.0750 C   0  0  0  0  0  2  0  0  0  0  0  0
  1 26  1  6  0  0  0
  1 18  1  0  0  0  0
  2 14  2  0  0  0  0
  2 27  1  0  0  0  0
  3  7  1  0  0  0  0
  4 15  1  0  0  0  0
  5 19  1  0  0  0  0
  6 19  1  0  0  0  0
  7  6  1  0  0  0  0
  9 13  2  0  0  0  0
 10 22  1  0  0  0  0
 11  5  2  0  0  0  0
 12  8  1  0  0  0  0
 13 20  1  0  0  0  0
 13 24  1  0  0  0  0
 15 12  1  0  0  0  0
 15  5  1  0  0  0  0
 16  3  1  0  0  0  0
 16  8  1  0  0  0  0
 17 10  1  0  0  0  0
 18  4  1  0  0  0  0
 18 20  2  0  0  0  0
 20 11  1  0  0  0  0
 21 23  1  0  0  0  0
 22 24  1  0  0  0  0
 23  4  2  0  0  0  0
 25 14  1  6  0  0  0
 25 17  1  0  0  0  0
 25  9  1  0  0  0  0
 26 21  2  0  0  0  0
 27  1  1  0  0  0  0
 27  9  1  0  0  0  0
 28 29  1  0  0  0  0
 28 17  1  0  0  0  0
 30 34  1  0  0  0  0
 30 33  1  0  0  0  0
 32 31  1  0  0  0  0
 32 29  1  0  0  0  0
 33 31  1  0  0  0  0
 34 32  1  0  0  0  0
M  END
>  <MODEL>
1

>  <REMARK>
 VINA RESULT:      -7.9      0.000      0.000
  Name = 
  3 active torsions:
  status: ('A' for Active; 'I' for Inactive)
    1  A    between atoms: N_17  and  C_28
    2  A    between atoms: C_28  and  C_29
    3  A    between atoms: C_29  and  N_32
                            x       y       z     vdW  Elec       q    Type
                         _______ _______ _______ _____ _____    ______ ____

>  <TORSDO>
F 3

$$$$
=
 OpenBabel11122414313D

 34 40  0  0  1  0  0  0  0  0999 V2000
  161.1300  212.0110  150.6370 C   0  0  2  0  0  3  0  0  0  0  0  0
  161.9730  210.4320  148.7800 C   0  0  0  0  0  3  0  0  0  0  0  0
  156.3140  212.3520  154.1740 C   0  0  0  0  0  2  0  0  0  0  0  0
  159.6600  213.0520  152.4750 C   0  0  0  0  0  0  0  0  0  0  0  0
  159.3680  211.8430  154.6230 C   0  0  0  0  0  0  0  0  0  0  0  0
  157.4450  210.8770  155.8780 C   0  0  0  0  0  2  0  0  0  0  0  0
  156.2220  211.7360  155.5650 C   0  0  0  0  0  2  0  0  0  0  0  0
  157.5250  214.3440  155.1580 C   0  0  0  0  0  2  0  0  0  0  0  0
  161.5390  209.5650  150.8710 C   0  0  0  0  0  0  0  0  0  0  0  0
  161.5350  206.5290  151.3670 C   0  0  0  0  0  2  0  0  0  0  0  0
  159.9690  210.7680  154.0910 C   0  0  0  0  0  3  0  0  0  0  0  0
  158.8900  214.3480  154.4740 C   0  0  0  0  0  2  0  0  0  0  0  0
  161.1990  209.5720  152.1710 C   0  0  0  0  0  0  0  0  0  0  0  0
  162.3570  209.0110  148.7530 N   0  0  0  0  0  0  0  0  0  0  0  0
  159.2400  213.0650  153.8530 N   0  0  0  0  0  0  0  0  0  0  0  0
  156.3890  213.8750  154.2510 C   0  0  0  0  0  2  0  0  0  0  0  0
  161.3420  207.2670  150.1170 N   0  0  0  0  0  0  0  0  0  0  0  0
  160.4260  211.8970  151.9720 C   0  0  0  0  0  0  0  0  0  0  0  0
  158.7340  211.6960  155.9720 C   0  0  0  0  0  2  0  0  0  0  0  0
  160.5490  210.7890  152.7300 C   0  0  0  0  0  0  0  0  0  0  0  0
  159.5980  213.9050  150.1710 C   0  0  0  0  0  3  0  0  0  0  0  0
  160.7340  207.1450  152.5070 C   0  0  0  0  0  2  0  0  0  0  0  0
  159.2740  214.0040  151.6110 C   0  0  0  0  0  3  0  0  0  0  0  0
  161.4460  208.3780  153.0440 C   0  0  0  0  0  2  0  0  0  0  0  0
  162.1950  208.4710  150.1180 C   0  0  2  0  0  3  0  0  0  0  0  0
  160.4130  212.9520  149.7030 C   0  0  0  0  0  3  0  0  0  0  0  0
  161.3280  210.6870  150.0510 N   0  0  0  0  0  0  0  0  0  0  0  0
  161.6710  206.3570  149.0070 C   0  0  0  0  0  2  0  0  0  0  0  0
  160.7200  205.1600  148.9060 C   0  0  0  0  0  2  0  0  0  0  0  0
  160.6360  201.7250  149.6160 C   0  0  0  0  0  2  0  0  0  0  0  0
  161.4520  203.1760  147.9030 C   0  0  0  0  0  2  0  0  0  0  0  0
  161.4500  203.9280  149.1540 N   0  0  0  0  0  0  0  0  0  0  0  0
  160.7380  201.8590  148.1240 C   0  0  0  0  0  2  0  0  0  0  0  0
  160.6710  203.1490  150.1090 C   0  0  0  0  0  2  0  0  0  0  0  0
  1 26  1  6  0  0  0
  1 18  1  0  0  0  0
  2 27  1  0  0  0  0
  3 16  1  0  0  0  0
  3  7  1  0  0  0  0
  4 15  1  0  0  0  0
  5 19  1  0  0  0  0
  6 19  1  0  0  0  0
  7  6  1  0  0  0  0
  9 13  2  0  0  0  0
 10 22  1  0  0  0  0
 11  5  2  0  0  0  0
 12  8  1  0  0  0  0
 13 20  1  0  0  0  0
 13 24  1  0  0  0  0
 14  2  2  0  0  0  0
 15 12  1  0  0  0  0
 15  5  1  0  0  0  0
 16  8  1  0  0  0  0
 17 25  1  0  0  0  0
 17 10  1  0  0  0  0
 18  4  1  0  0  0  0
 18 20  2  0  0  0  0
 20 11  1  0  0  0  0
 21 23  1  0  0  0  0
 22 24  1  0  0  0  0
 23  4  2  0  0  0  0
 25 14  1  6  0  0  0
 25  9  1  0  0  0  0
 26 21  2  0  0  0  0
 27  1  1  0  0  0  0
 27  9  1  0  0  0  0
 28 17  1  0  0  0  0
 29 28  1  0  0  0  0
 29 32  1  0  0  0  0
 30 34  1  0  0  0  0
 31 33  1  0  0  0  0
 31 32  1  0  0  0  0
 32 34  1  0  0  0  0
 33 30  1  0  0  0  0
M  END
>  <MODEL>
2

>  <REMARK>
 VINA RESULT:      -7.3      1.100      1.490
  Name = 
  3 active torsions:
  status: ('A' for Active; 'I' for Inactive)
    1  A    between atoms: N_17  and  C_28
    2  A    between atoms: C_28  and  C_29
    3  A    between atoms: C_29  and  N_32
                            x       y       z     vdW  Elec       q    Type
                         _______ _______ _______ _____ _____    ______ ____

>  <TORSDO>
F 3

$$$$
=
 OpenBabel11122414313D

 34 40  0  0  1  0  0  0  0  0999 V2000
  160.7640  212.5560  150.9880 C   0  0  2  0  0  3  0  0  0  0  0  0
  161.7680  211.1700  149.0590 C   0  0  0  0  0  3  0  0  0  0  0  0
  155.9060  212.2470  154.4710 C   0  0  0  0  0  2  0  0  0  0  0  0
  159.1860  213.3500  152.8610 C   0  0  0  0  0  0  0  0  0  0  0  0
  158.9900  211.9990  154.9340 C   0  0  0  0  0  0  0  0  0  0  0  0
  157.1560  210.7890  156.1060 C   0  0  0  0  0  2  0  0  0  0  0  0
  155.8600  211.5460  155.8240 C   0  0  0  0  0  2  0  0  0  0  0  0
  156.9160  214.2840  155.5810 C   0  0  0  0  0  2  0  0  0  0  0  0
  161.3980  210.1490  151.0920 C   0  0  0  0  0  0  0  0  0  0  0  0
  161.6740  207.1020  151.4180 C   0  0  0  0  0  2  0  0  0  0  0  0
  159.6940  211.0170  154.3510 C   0  0  0  0  0  3  0  0  0  0  0  0
  158.2810  214.4530  154.9170 C   0  0  0  0  0  2  0  0  0  0  0  0
  161.0480  210.0510  152.3860 C   0  0  0  0  0  0  0  0  0  0  0  0
  162.2840  209.7950  148.9590 N   0  0  0  0  0  0  0  0  0  0  0  0
  158.7550  213.2450  154.2310 N   0  0  0  0  0  0  0  0  0  0  0  0
  155.8380  213.7630  154.6330 C   0  0  0  0  0  2  0  0  0  0  0  0
  161.4250  207.8900  150.2090 N   0  0  0  0  0  0  0  0  0  0  0  0
  160.0620  212.3010  152.3060 C   0  0  0  0  0  0  0  0  0  0  0  0
  158.3610  211.7180  156.2640 C   0  0  0  0  0  2  0  0  0  0  0  0
  160.2820  211.1690  153.0020 C   0  0  0  0  0  0  0  0  0  0  0  0
  159.0650  214.3230  150.6070 C   0  0  0  0  0  3  0  0  0  0  0  0
  160.8090  207.5760  152.5800 C   0  0  0  0  0  2  0  0  0  0  0  0
  158.7210  214.3090  152.0460 C   0  0  0  0  0  3  0  0  0  0  0  0
  161.3980  208.8380  153.1940 C   0  0  0  0  0  2  0  0  0  0  0  0
  162.1610  209.1660  150.2880 C   0  0  2  0  0  3  0  0  0  0  0  0
  159.9710  213.4780  150.0980 C   0  0  0  0  0  3  0  0  0  0  0  0
  161.0900  211.2910  150.3320 N   0  0  0  0  0  0  0  0  0  0  0  0
  161.8460  207.0780  149.0550 C   0  0  0  0  0  2  0  0  0  0  0  0
  161.2110  205.6840  149.0310 C   0  0  0  0  0  2  0  0  0  0  0  0
  162.2190  205.7670  145.6720 C   0  0  0  0  0  2  0  0  0  0  0  0
  161.8690  204.1480  147.3930 C   0  0  0  0  0  2  0  0  0  0  0  0
  160.9770  205.2730  147.6570 N   0  0  0  0  0  0  0  0  0  0  0  0
  162.8170  204.5300  146.2750 C   0  0  0  0  0  2  0  0  0  0  0  0
  161.4160  206.3650  146.7970 C   0  0  0  0  0  2  0  0  0  0  0  0
  1 26  1  6  0  0  0
  1 18  1  0  0  0  0
  2 27  1  0  0  0  0
  3 16  1  0  0  0  0
  3  7  1  0  0  0  0
  4 15  1  0  0  0  0
  5 19  1  0  0  0  0
  6 19  1  0  0  0  0
  7  6  1  0  0  0  0
  9 13  2  0  0  0  0
 10 22  1  0  0  0  0
 11  5  2  0  0  0  0
 12  8  1  0  0  0  0
 13 20  1  0  0  0  0
 13 24  1  0  0  0  0
 14  2  2  0  0  0  0
 15 12  1  0  0  0  0
 15  5  1  0  0  0  0
 16  8  1  0  0  0  0
 17 25  1  0  0  0  0
 17 10  1  0  0  0  0
 18  4  1  0  0  0  0
 18 20  2  0  0  0  0
 20 11  1  0  0  0  0
 21 23  1  0  0  0  0
 22 24  1  0  0  0  0
 23  4  2  0  0  0  0
 25 14  1  6  0  0  0
 25  9  1  0  0  0  0
 26 21  2  0  0  0  0
 27  1  1  0  0  0  0
 27  9  1  0  0  0  0
 28 17  1  0  0  0  0
 29 28  1  0  0  0  0
 30 33  1  0  0  0  0
 30 34  1  0  0  0  0
 31 32  1  0  0  0  0
 32 29  1  0  0  0  0
 33 31  1  0  0  0  0
 34 32  1  0  0  0  0
M  END
>  <MODEL>
3

>  <REMARK>
 VINA RESULT:      -7.2      1.687      2.179
  Name = 
  3 active torsions:
  status: ('A' for Active; 'I' for Inactive)
    1  A    between atoms: N_17  and  C_28
    2  A    between atoms: C_28  and  C_29
    3  A    between atoms: C_29  and  N_32
                            x       y       z     vdW  Elec       q    Type
                         _______ _______ _______ _____ _____    ______ ____

>  <TORSDO>
F 3

$$$$
=
 OpenBabel11122414313D

 34 40  0  0  1  0  0  0  0  0999 V2000
  160.6180  209.3520  154.9420 C   0  0  2  0  0  3  0  0  0  0  0  0
  159.2730  211.2540  156.0460 C   0  0  0  0  0  3  0  0  0  0  0  0
  159.9970  205.8300  150.1420 C   0  0  0  0  0  2  0  0  0  0  0  0
  161.3220  207.4830  153.3170 C   0  0  0  0  0  0  0  0  0  0  0  0
  161.9930  208.0800  151.0030 C   0  0  0  0  0  0  0  0  0  0  0  0
  161.1660  207.5480  148.7150 C   0  0  0  0  0  2  0  0  0  0  0  0
  160.5650  206.1450  148.7630 C   0  0  0  0  0  2  0  0  0  0  0  0
  162.2580  204.9420  150.8500 C   0  0  0  0  0  2  0  0  0  0  0  0
  159.9650  211.4990  153.8620 C   0  0  0  0  0  0  0  0  0  0  0  0
  158.9640  213.8330  152.1250 C   0  0  0  0  0  2  0  0  0  0  0  0
  161.5650  209.3340  151.2100 C   0  0  0  0  0  3  0  0  0  0  0  0
  162.6820  205.8360  152.0120 C   0  0  0  0  0  2  0  0  0  0  0  0
  160.5890  211.1810  152.7150 C   0  0  0  0  0  0  0  0  0  0  0  0
  158.8810  212.6060  155.6120 N   0  0  0  0  0  0  0  0  0  0  0  0
  161.9480  207.1050  152.0760 N   0  0  0  0  0  0  0  0  0  0  0  0
  160.7550  204.6790  150.8000 C   0  0  0  0  0  2  0  0  0  0  0  0
  158.3600  213.2350  153.3180 N   0  0  0  0  0  0  0  0  0  0  0  0
  160.9820  208.9010  153.5430 C   0  0  0  0  0  0  0  0  0  0  0  0
  162.3960  207.6960  149.6120 C   0  0  0  0  0  2  0  0  0  0  0  0
  161.0660  209.7830  152.5280 C   0  0  0  0  0  0  0  0  0  0  0  0
  160.1730  206.9600  155.4260 C   0  0  0  0  0  3  0  0  0  0  0  0
  159.4580  212.7660  151.1560 C   0  0  0  0  0  2  0  0  0  0  0  0
  160.9370  206.5690  154.2200 C   0  0  0  0  0  3  0  0  0  0  0  0
  160.7880  212.1990  151.6320 C   0  0  0  0  0  2  0  0  0  0  0  0
  159.4220  212.8200  154.2550 C   0  0  2  0  0  3  0  0  0  0  0  0
  159.9740  208.2460  155.7380 C   0  0  0  0  0  3  0  0  0  0  0  0
  159.7920  210.5560  154.8900 N   0  0  0  0  0  0  0  0  0  0  0  0
  157.4590  214.2370  153.9110 C   0  0  0  0  0  2  0  0  0  0  0  0
  156.0370  214.1840  153.3430 C   0  0  0  0  0  2  0  0  0  0  0  0
  155.5510  212.1590  156.1660 C   0  0  0  0  0  2  0  0  0  0  0  0
  155.3010  214.4530  155.5480 C   0  0  0  0  0  2  0  0  0  0  0  0
  155.1270  213.6500  154.3420 N   0  0  0  0  0  0  0  0  0  0  0  0
  155.7860  213.5550  156.6670 C   0  0  0  0  0  2  0  0  0  0  0  0
  155.5840  212.3040  154.6670 C   0  0  0  0  0  2  0  0  0  0  0  0
  1 26  1  6  0  0  0
  3 16  1  0  0  0  0
  4 18  1  0  0  0  0
  4 23  2  0  0  0  0
  5 11  2  0  0  0  0
  5 15  1  0  0  0  0
  6  7  1  0  0  0  0
  6 19  1  0  0  0  0
  7  3  1  0  0  0  0
  8 12  1  0  0  0  0
  9 27  1  0  0  0  0
 10 17  1  0  0  0  0
 11 20  1  0  0  0  0
 12 15  1  0  0  0  0
 13  9  2  0  0  0  0
 14  2  2  0  0  0  0
 15  4  1  0  0  0  0
 16  8  1  0  0  0  0
 17 28  1  0  0  0  0
 17 25  1  0  0  0  0
 18  1  1  0  0  0  0
 19  5  1  0  0  0  0
 20 13  1  0  0  0  0
 20 18  2  0  0  0  0
 21 26  2  0  0  0  0
 22 24  1  0  0  0  0
 22 10  1  0  0  0  0
 23 21  1  0  0  0  0
 24 13  1  0  0  0  0
 25  9  1  6  0  0  0
 25 14  1  0  0  0  0
 27  1  1  0  0  0  0
 27  2  1  0  0  0  0
 29 28  1  0  0  0  0
 29 32  1  0  0  0  0
 30 33  1  0  0  0  0
 31 33  1  0  0  0  0
 32 34  1  0  0  0  0
 32 31  1  0  0  0  0
 34 30  1  0  0  0  0
M  END
>  <MODEL>
4

>  <REMARK>
 VINA RESULT:      -7.2      1.768      8.671
  Name = 
  3 active torsions:
  status: ('A' for Active; 'I' for Inactive)
    1  A    between atoms: N_17  and  C_28
    2  A    between atoms: C_28  and  C_29
    3  A    between atoms: C_29  and  N_32
                            x       y       z     vdW  Elec       q    Type
                         _______ _______ _______ _____ _____    ______ ____

>  <TORSDO>
F 3

$$$$
=
 OpenBabel11122414313D

 34 40  0  0  1  0  0  0  0  0999 V2000
  161.3880  211.0510  151.4470 C   0  0  2  0  0  3  0  0  0  0  0  0
  162.2970  209.1330  149.9830 C   0  0  0  0  0  3  0  0  0  0  0  0
  156.2660  212.2710  154.2950 C   0  0  0  0  0  2  0  0  0  0  0  0
  159.8170  212.4740  152.9080 C   0  0  0  0  0  0  0  0  0  0  0  0
  159.2070  211.6660  155.1740 C   0  0  0  0  0  0  0  0  0  0  0  0
  157.0930  211.0420  156.3350 C   0  0  0  0  0  2  0  0  0  0  0  0
  155.9800  211.9050  155.7470 C   0  0  0  0  0  2  0  0  0  0  0  0
  157.5170  214.3260  155.0780 C   0  0  0  0  0  2  0  0  0  0  0  0
  161.5790  208.6610  152.1210 C   0  0  0  0  0  0  0  0  0  0  0  0
  161.2870  205.7580  153.0990 C   0  0  0  0  0  2  0  0  0  0  0  0
  159.7760  210.4830  154.8970 C   0  0  0  0  0  3  0  0  0  0  0  0
  158.9430  214.1330  154.5670 C   0  0  0  0  0  2  0  0  0  0  0  0
  161.1050  208.9080  153.3540 C   0  0  0  0  0  0  0  0  0  0  0  0
  162.5710  207.7080  150.2320 N   0  0  0  0  0  0  0  0  0  0  0  0
  159.2560  212.7450  154.2070 N   0  0  0  0  0  0  0  0  0  0  0  0
  156.4510  213.7780  154.1320 C   0  0  0  0  0  2  0  0  0  0  0  0
  161.2850  206.2840  151.7320 N   0  0  0  0  0  0  0  0  0  0  0  0
  160.5400  211.2070  152.6930 C   0  0  0  0  0  0  0  0  0  0  0  0
  158.4250  211.7880  156.4460 C   0  0  0  0  0  2  0  0  0  0  0  0
  160.4960  210.2390  153.6290 C   0  0  0  0  0  0  0  0  0  0  0  0
  160.0650  212.9260  150.5050 C   0  0  0  0  0  3  0  0  0  0  0  0
  160.4200  206.6050  154.0220 C   0  0  0  0  0  2  0  0  0  0  0  0
  159.6000  213.2860  151.8630 C   0  0  0  0  0  3  0  0  0  0  0  0
  161.1650  207.8670  154.4310 C   0  0  0  0  0  2  0  0  0  0  0  0
  162.2240  207.4180  151.6370 C   0  0  2  0  0  3  0  0  0  0  0  0
  160.8490  211.8600  150.2960 C   0  0  0  0  0  3  0  0  0  0  0  0
  161.5430  209.6370  151.1110 N   0  0  0  0  0  0  0  0  0  0  0  0
  161.6570  205.1810  150.8300 C   0  0  0  0  0  2  0  0  0  0  0  0
  160.8350  205.1530  149.5370 C   0  0  0  0  0  2  0  0  0  0  0  0
  161.4680  204.2400  146.2100 C   0  0  0  0  0  2  0  0  0  0  0  0
  161.2110  206.2360  147.4970 C   0  0  0  0  0  2  0  0  0  0  0  0
  161.7230  205.1990  148.3870 N   0  0  0  0  0  0  0  0  0  0  0  0
  160.8340  205.6000  146.1740 C   0  0  0  0  0  2  0  0  0  0  0  0
  161.5800  203.9320  147.6800 C   0  0  0  0  0  2  0  0  0  0  0  0
  1 26  1  6  0  0  0
  1 18  1  0  0  0  0
  2 14  2  0  0  0  0
  2 27  1  0  0  0  0
  3  7  1  0  0  0  0
  4 15  1  0  0  0  0
  5 19  1  0  0  0  0
  6 19  1  0  0  0  0
  7  6  1  0  0  0  0
  9 13  2  0  0  0  0
 10 22  1  0  0  0  0
 11  5  2  0  0  0  0
 12  8  1  0  0  0  0
 13 20  1  0  0  0  0
 13 24  1  0  0  0  0
 15 12  1  0  0  0  0
 15  5  1  0  0  0  0
 16  3  1  0  0  0  0
 16  8  1  0  0  0  0
 17 10  1  0  0  0  0
 18  4  1  0  0  0  0
 18 20  2  0  0  0  0
 20 11  1  0  0  0  0
 21 23  1  0  0  0  0
 22 24  1  0  0  0  0
 23  4  2  0  0  0  0
 25 14  1  6  0  0  0
 25 17  1  0  0  0  0
 25  9  1  0  0  0  0
 26 21  2  0  0  0  0
 27  1  1  0  0  0  0
 27  9  1  0  0  0  0
 28 17  1  0  0  0  0
 29 28  1  0  0  0  0
 30 34  1  0  0  0  0
 31 32  1  0  0  0  0
 32 29  1  0  0  0  0
 33 30  1  0  0  0  0
 33 31  1  0  0  0  0
 34 32  1  0  0  0  0
M  END
>  <MODEL>
5

>  <REMARK>
 VINA RESULT:      -7.1      1.131      1.544
  Name = 
  3 active torsions:
  status: ('A' for Active; 'I' for Inactive)
    1  A    between atoms: N_17  and  C_28
    2  A    between atoms: C_28  and  C_29
    3  A    between atoms: C_29  and  N_32
                            x       y       z     vdW  Elec       q    Type
                         _______ _______ _______ _____ _____    ______ ____

>  <TORSDO>
F 3

$$$$
=
 OpenBabel11122414313D

 34 40  0  0  1  0  0  0  0  0999 V2000
  162.3110  207.7740  149.8600 C   0  0  2  0  0  3  0  0  0  0  0  0
  161.9900  206.0520  147.9680 C   0  0  0  0  0  3  0  0  0  0  0  0
  158.9840  209.9790  154.3200 C   0  0  0  0  0  2  0  0  0  0  0  0
  161.8520  209.2720  151.9030 C   0  0  0  0  0  0  0  0  0  0  0  0
  161.5660  208.2230  154.1340 C   0  0  0  0  0  0  0  0  0  0  0  0
  159.7460  208.1080  155.8300 C   0  0  0  0  0  2  0  0  0  0  0  0
  158.9540  209.4100  155.7340 C   0  0  0  0  0  2  0  0  0  0  0  0
  161.0970  211.2460  154.8950 C   0  0  0  0  0  2  0  0  0  0  0  0
  161.7080  205.3760  150.1530 C   0  0  0  0  0  0  0  0  0  0  0  0
  160.5530  202.6040  150.8260 C   0  0  0  0  0  2  0  0  0  0  0  0
  161.5340  207.0150  153.5530 C   0  0  0  0  0  3  0  0  0  0  0  0
  162.1520  210.7020  153.9360 C   0  0  0  0  0  2  0  0  0  0  0  0
  161.6980  205.4800  151.4930 C   0  0  0  0  0  0  0  0  0  0  0  0
  161.7330  204.6020  147.9480 N   0  0  0  0  0  0  0  0  0  0  0  0
  161.7910  209.4120  153.3350 N   0  0  0  0  0  0  0  0  0  0  0  0
  159.7000  211.3270  154.2840 C   0  0  0  0  0  2  0  0  0  0  0  0
  160.4140  203.3980  149.6030 N   0  0  0  0  0  0  0  0  0  0  0  0
  161.9380  207.9190  151.3200 C   0  0  0  0  0  0  0  0  0  0  0  0
  161.2440  208.3090  155.5950 C   0  0  0  0  0  2  0  0  0  0  0  0
  161.7530  206.8370  152.1010 C   0  0  0  0  0  0  0  0  0  0  0  0
  161.6430  210.1510  149.6170 C   0  0  0  0  0  3  0  0  0  0  0  0
  160.3540  203.4600  152.0710 C   0  0  0  0  0  2  0  0  0  0  0  0
  161.7160  210.3260  151.0840 C   0  0  0  0  0  3  0  0  0  0  0  0
  161.6130  204.2630  152.3650 C   0  0  0  0  0  2  0  0  0  0  0  0
  161.6670  204.1340  149.3460 C   0  0  2  0  0  3  0  0  0  0  0  0
  161.8630  208.9600  149.0450 C   0  0  0  0  0  3  0  0  0  0  0  0
  161.8070  206.5100  149.3290 N   0  0  0  0  0  0  0  0  0  0  0  0
  160.0810  202.4730  148.5080 C   0  0  0  0  0  2  0  0  0  0  0  0
  160.8550  201.1520  148.5750 C   0  0  0  0  0  2  0  0  0  0  0  0
  161.2100  199.2670  145.6380 C   0  0  0  0  0  2  0  0  0  0  0  0
  160.7470  201.5240  146.2670 C   0  0  0  0  0  2  0  0  0  0  0  0
  161.5590  200.9300  147.3230 N   0  0  0  0  0  0  0  0  0  0  0  0
  160.3290  200.4350  145.3010 C   0  0  0  0  0  2  0  0  0  0  0  0
  161.5700  199.4920  147.0830 C   0  0  0  0  0  2  0  0  0  0  0  0
  1 26  1  6  0  0  0
  1 18  1  0  0  0  0
  2 27  1  0  0  0  0
  3  7  1  0  0  0  0
  4 15  1  0  0  0  0
  5 19  1  0  0  0  0
  7  6  1  0  0  0  0
  9 13  2  0  0  0  0
 10 22  1  0  0  0  0
 11  5  2  0  0  0  0
 12  8  1  0  0  0  0
 13 20  1  0  0  0  0
 13 24  1  0  0  0  0
 14  2  2  0  0  0  0
 15 12  1  0  0  0  0
 15  5  1  0  0  0  0
 16  3  1  0  0  0  0
 16  8  1  0  0  0  0
 17 10  1  0  0  0  0
 18  4  1  0  0  0  0
 18 20  2  0  0  0  0
 19  6  1  0  0  0  0
 20 11  1  0  0  0  0
 21 23  1  0  0  0  0
 22 24  1  0  0  0  0
 23  4  2  0  0  0  0
 25 14  1  6  0  0  0
 25 17  1  0  0  0  0
 25  9  1  0  0  0  0
 26 21  2  0  0  0  0
 27  1  1  0  0  0  0
 27  9  1  0  0  0  0
 28 29  1  0  0  0  0
 28 17  1  0  0  0  0
 30 34  1  0  0  0  0
 31 32  1  0  0  0  0
 32 29  1  0  0  0  0
 33 30  1  0  0  0  0
 33 31  1  0  0  0  0
 34 32  1  0  0  0  0
M  END
>  <MODEL>
6

>  <REMARK>
 VINA RESULT:      -6.9      2.158      4.000
  Name = 
  3 active torsions:
  status: ('A' for Active; 'I' for Inactive)
    1  A    between atoms: N_17  and  C_28
    2  A    between atoms: C_28  and  C_29
    3  A    between atoms: C_29  and  N_32
                            x       y       z     vdW  Elec       q    Type
                         _______ _______ _______ _____ _____    ______ ____

>  <TORSDO>
F 3

$$$$
=
 OpenBabel11122414313D

 34 40  0  0  1  0  0  0  0  0999 V2000
  161.3040  203.4930  150.7170 C   0  0  2  0  0  3  0  0  0  0  0  0
  161.0510  205.0560  152.7520 C   0  0  0  0  0  3  0  0  0  0  0  0
  158.8120  203.0020  145.2970 C   0  0  0  0  0  2  0  0  0  0  0  0
  160.9660  202.4310  148.3960 C   0  0  0  0  0  0  0  0  0  0  0  0
  161.6670  203.6900  146.3750 C   0  0  0  0  0  0  0  0  0  0  0  0
  160.5280  204.5890  144.3510 C   0  0  0  0  0  2  0  0  0  0  0  0
  159.3610  203.6560  144.0340 C   0  0  0  0  0  2  0  0  0  0  0  0
  160.4680  201.1100  145.0150 C   0  0  0  0  0  2  0  0  0  0  0  0
  161.6220  205.9630  150.7110 C   0  0  0  0  0  0  0  0  0  0  0  0
  161.6670  209.0090  150.2790 C   0  0  0  0  0  2  0  0  0  0  0  0
  161.8710  204.7780  147.1320 C   0  0  0  0  0  3  0  0  0  0  0  0
  161.3340  201.1590  146.2720 C   0  0  0  0  0  2  0  0  0  0  0  0
  161.9500  205.9780  149.4080 C   0  0  0  0  0  0  0  0  0  0  0  0
  161.2860  206.4940  152.9620 N   0  0  0  0  0  0  0  0  0  0  0  0
  161.2620  202.4390  146.9860 N   0  0  0  0  0  0  0  0  0  0  0  0
  159.0100  201.4880  145.2640 C   0  0  0  0  0  2  0  0  0  0  0  0
  160.9440  208.2220  151.2810 N   0  0  0  0  0  0  0  0  0  0  0  0
  161.3230  203.6100  149.2070 C   0  0  0  0  0  0  0  0  0  0  0  0
  161.7520  203.8440  144.8870 C   0  0  0  0  0  2  0  0  0  0  0  0
  161.7260  204.7460  148.6040 C   0  0  0  0  0  0  0  0  0  0  0  0
  159.8590  201.5040  150.3850 C   0  0  0  0  0  3  0  0  0  0  0  0
  161.5520  208.3860  148.8930 C   0  0  0  0  0  2  0  0  0  0  0  0
  160.2740  201.4340  148.9660 C   0  0  0  0  0  3  0  0  0  0  0  0
  162.5100  207.2110  148.7640 C   0  0  0  0  0  2  0  0  0  0  0  0
  161.7660  207.0660  151.6890 C   0  0  2  0  0  3  0  0  0  0  0  0
  160.2880  202.4850  151.1890 C   0  0  0  0  0  3  0  0  0  0  0  0
  161.1130  204.8060  151.3270 N   0  0  0  0  0  0  0  0  0  0  0  0
  160.6410  209.1130  152.4130 C   0  0  0  0  0  2  0  0  0  0  0  0
  161.7640  210.1110  152.7140 C   0  0  0  0  0  2  0  0  0  0  0  0
  159.6860  210.7260  155.4730 C   0  0  0  0  0  2  0  0  0  0  0  0
  162.0210  210.5660  154.9950 C   0  0  0  0  0  2  0  0  0  0  0  0
  161.3510  211.0120  153.7780 N   0  0  0  0  0  0  0  0  0  0  0  0
  160.9710  210.1670  156.0120 C   0  0  0  0  0  2  0  0  0  0  0  0
  159.9230  210.8070  153.9870 C   0  0  0  0  0  2  0  0  0  0  0  0
  1 26  1  6  0  0  0
  1 27  1  0  0  0  0
  2 14  2  0  0  0  0
  4 23  2  0  0  0  0
  4 18  1  0  0  0  0
  5 15  1  0  0  0  0
  5 11  2  0  0  0  0
  6 19  1  0  0  0  0
  7  6  1  0  0  0  0
  7  3  1  0  0  0  0
  8 16  1  0  0  0  0
  8 12  1  0  0  0  0
  9 27  1  0  0  0  0
 10 17  1  0  0  0  0
 11 20  1  0  0  0  0
 12 15  1  0  0  0  0
 13  9  2  0  0  0  0
 15  4  1  0  0  0  0
 16  3  1  0  0  0  0
 17 25  1  0  0  0  0
 17 28  1  0  0  0  0
 18  1  1  0  0  0  0
 19  5  1  0  0  0  0
 20 18  2  0  0  0  0
 20 13  1  0  0  0  0
 21 26  2  0  0  0  0
 22 10  1  0  0  0  0
 23 21  1  0  0  0  0
 24 22  1  0  0  0  0
 24 13  1  0  0  0  0
 25  9  1  6  0  0  0
 25 14  1  0  0  0  0
 27  2  1  0  0  0  0
 28 29  1  0  0  0  0
 29 32  1  0  0  0  0
 30 33  1  0  0  0  0
 31 33  1  0  0  0  0
 32 34  1  0  0  0  0
 32 31  1  0  0  0  0
 34 30  1  0  0  0  0
M  END
>  <MODEL>
7

>  <REMARK>
 VINA RESULT:      -6.3      2.259     10.006
  Name = 
  3 active torsions:
  status: ('A' for Active; 'I' for Inactive)
    1  A    between atoms: N_17  and  C_28
    2  A    between atoms: C_28  and  C_29
    3  A    between atoms: C_29  and  N_32
                            x       y       z     vdW  Elec       q    Type
                         _______ _______ _______ _____ _____    ______ ____

>  <TORSDO>
F 3

$$$$
=
 OpenBabel11122414313D

 34 40  0  0  1  0  0  0  0  0999 V2000
  162.1810  209.2270  150.5980 C   0  0  2  0  0  3  0  0  0  0  0  0
  162.0070  208.1550  148.2590 C   0  0  0  0  0  3  0  0  0  0  0  0
  158.7590  209.5040  155.5010 C   0  0  0  0  0  2  0  0  0  0  0  0
  161.6120  209.9440  153.0050 C   0  0  0  0  0  0  0  0  0  0  0  0
  161.5240  208.2240  154.7920 C   0  0  0  0  0  0  0  0  0  0  0  0
  159.7850  207.3640  156.3530 C   0  0  0  0  0  2  0  0  0  0  0  0
  158.8410  208.5230  156.6650 C   0  0  0  0  0  2  0  0  0  0  0  0
  160.7240  210.7780  156.4590 C   0  0  0  0  0  2  0  0  0  0  0  0
  161.8770  206.8020  150.1200 C   0  0  0  0  0  0  0  0  0  0  0  0
  161.0810  203.8390  149.8820 C   0  0  0  0  0  2  0  0  0  0  0  0
  161.6170  207.2630  153.8610 C   0  0  0  0  0  3  0  0  0  0  0  0
  161.8050  210.6940  155.3850 C   0  0  0  0  0  2  0  0  0  0  0  0
  161.8980  206.4800  151.4250 C   0  0  0  0  0  0  0  0  0  0  0  0
  161.9240  206.7640  147.7840 N   0  0  0  0  0  0  0  0  0  0  0  0
  161.5810  209.6210  154.4080 N   0  0  0  0  0  0  0  0  0  0  0  0
  159.3080  210.8730  155.8940 C   0  0  0  0  0  2  0  0  0  0  0  0
  160.8110  204.9510  148.9690 N   0  0  0  0  0  0  0  0  0  0  0  0
  161.8400  208.8620  152.0280 C   0  0  0  0  0  0  0  0  0  0  0  0
  161.2410  207.8100  156.2030 C   0  0  0  0  0  2  0  0  0  0  0  0
  161.8100  207.5760  152.4290 C   0  0  0  0  0  0  0  0  0  0  0  0
  161.2280  211.4600  151.1080 C   0  0  0  0  0  3  0  0  0  0  0  0
  160.8210  204.2320  151.3310 C   0  0  0  0  0  2  0  0  0  0  0  0
  161.3270  211.1760  152.5570 C   0  0  0  0  0  3  0  0  0  0  0  0
  161.9850  205.0510  151.8700 C   0  0  0  0  0  2  0  0  0  0  0  0
  161.9580  205.8790  148.9640 C   0  0  2  0  0  3  0  0  0  0  0  0
  161.5700  210.5430  150.1930 C   0  0  0  0  0  3  0  0  0  0  0  0
  161.8140  208.1400  149.6940 N   0  0  0  0  0  0  0  0  0  0  0  0
  160.5550  204.3800  147.6360 C   0  0  0  0  0  2  0  0  0  0  0  0
  161.5810  203.3190  147.2250 C   0  0  0  0  0  2  0  0  0  0  0  0
  161.2070  205.1020  144.2270 C   0  0  0  0  0  2  0  0  0  0  0  0
  162.9730  204.3260  145.6360 C   0  0  0  0  0  2  0  0  0  0  0  0
  161.8450  203.4140  145.7990 N   0  0  0  0  0  0  0  0  0  0  0  0
  162.5210  205.5200  144.8210 C   0  0  0  0  0  2  0  0  0  0  0  0
  160.6910  204.0630  145.1880 C   0  0  0  0  0  2  0  0  0  0  0  0
  1 26  1  6  0  0  0
  1 18  1  0  0  0  0
  2 27  1  0  0  0  0
  3 16  1  0  0  0  0
  3  7  1  0  0  0  0
  4 15  1  0  0  0  0
  5 19  1  0  0  0  0
  6  7  1  0  0  0  0
  9 13  2  0  0  0  0
 10 22  1  0  0  0  0
 11  5  2  0  0  0  0
 12  8  1  0  0  0  0
 13 24  1  0  0  0  0
 13 20  1  0  0  0  0
 14  2  2  0  0  0  0
 15  5  1  0  0  0  0
 15 12  1  0  0  0  0
 16  8  1  0  0  0  0
 17 10  1  0  0  0  0
 18 20  2  0  0  0  0
 18  4  1  0  0  0  0
 19  6  1  0  0  0  0
 20 11  1  0  0  0  0
 21 23  1  0  0  0  0
 22 24  1  0  0  0  0
 23  4  2  0  0  0  0
 25 14  1  6  0  0  0
 25 17  1  0  0  0  0
 25  9  1  0  0  0  0
 26 21  2  0  0  0  0
 27  9  1  0  0  0  0
 27  1  1  0  0  0  0
 28 17  1  0  0  0  0
 29 28  1  0  0  0  0
 30 33  1  0  0  0  0
 30 34  1  0  0  0  0
 31 32  1  0  0  0  0
 32 29  1  0  0  0  0
 33 31  1  0  0  0  0
 34 32  1  0  0  0  0
M  END
>  <MODEL>
8

>  <REMARK>
 VINA RESULT:      -6.2      2.240      3.840
  Name = 
  3 active torsions:
  status: ('A' for Active; 'I' for Inactive)
    1  A    between atoms: N_17  and  C_28
    2  A    between atoms: C_28  and  C_29
    3  A    between atoms: C_29  and  N_32
                            x       y       z     vdW  Elec       q    Type
                         _______ _______ _______ _____ _____    ______ ____

>  <TORSDO>
F 3

$$$$
=
 OpenBabel11122414313D

 34 40  0  0  1  0  0  0  0  0999 V2000
  162.1870  209.4400  150.5610 C   0  0  2  0  0  3  0  0  0  0  0  0
  162.0880  208.2770  148.2610 C   0  0  0  0  0  3  0  0  0  0  0  0
  158.6470  209.8350  155.3710 C   0  0  0  0  0  2  0  0  0  0  0  0
  161.5490  210.2370  152.9240 C   0  0  0  0  0  0  0  0  0  0  0  0
  161.4520  208.5850  154.7740 C   0  0  0  0  0  0  0  0  0  0  0  0
  159.6930  207.7500  156.3270 C   0  0  0  0  0  2  0  0  0  0  0  0
  158.7210  208.9010  156.5730 C   0  0  0  0  0  2  0  0  0  0  0  0
  160.5650  211.1830  156.3230 C   0  0  0  0  0  2  0  0  0  0  0  0
  161.9400  206.9920  150.1690 C   0  0  0  0  0  0  0  0  0  0  0  0
  161.2060  204.0080  150.0280 C   0  0  0  0  0  2  0  0  0  0  0  0
  161.5840  207.5910  153.8830 C   0  0  0  0  0  3  0  0  0  0  0  0
  161.6720  211.0800  155.2780 C   0  0  0  0  0  2  0  0  0  0  0  0
  161.9360  206.7220  151.4860 C   0  0  0  0  0  0  0  0  0  0  0  0
  162.0410  206.8670  147.8380 N   0  0  0  0  0  0  0  0  0  0  0  0
  161.4910  209.9670  154.3380 N   0  0  0  0  0  0  0  0  0  0  0  0
  159.1610  211.2290  155.7230 C   0  0  0  0  0  2  0  0  0  0  0  0
  160.9350  205.0790  149.0660 N   0  0  0  0  0  0  0  0  0  0  0  0
  161.8200  209.1230  151.9950 C   0  0  0  0  0  0  0  0  0  0  0  0
  161.1430  208.2190  156.1930 C   0  0  0  0  0  2  0  0  0  0  0  0
  161.8050  207.8530  152.4440 C   0  0  0  0  0  0  0  0  0  0  0  0
  161.1810  211.6710  150.9620 C   0  0  0  0  0  3  0  0  0  0  0  0
  160.9050  204.4500  151.4540 C   0  0  0  0  0  2  0  0  0  0  0  0
  161.2510  211.4450  152.4230 C   0  0  0  0  0  3  0  0  0  0  0  0
  162.0400  205.3120  151.9870 C   0  0  0  0  0  2  0  0  0  0  0  0
  162.0650  206.0280  149.0520 C   0  0  2  0  0  3  0  0  0  0  0  0
  161.5610  210.7280  150.0920 C   0  0  0  0  0  3  0  0  0  0  0  0
  161.8620  208.3120  149.6910 N   0  0  0  0  0  0  0  0  0  0  0  0
  160.7220  204.4530  147.7510 C   0  0  0  0  0  2  0  0  0  0  0  0
  161.5490  203.1800  147.5450 C   0  0  0  0  0  2  0  0  0  0  0  0
  160.8310  200.2200  145.8050 C   0  0  0  0  0  2  0  0  0  0  0  0
  161.2630  200.9130  148.0500 C   0  0  0  0  0  2  0  0  0  0  0  0
  160.6660  202.0440  147.3460 N   0  0  0  0  0  0  0  0  0  0  0  0
  161.5800  199.8250  147.0450 C   0  0  0  0  0  2  0  0  0  0  0  0
  160.6970  201.7150  145.9260 C   0  0  0  0  0  2  0  0  0  0  0  0
  1 26  1  6  0  0  0
  1 18  1  0  0  0  0
  2 27  1  0  0  0  0
  3 16  1  0  0  0  0
  3  7  1  0  0  0  0
  4 15  1  0  0  0  0
  5 19  1  0  0  0  0
  6  7  1  0  0  0  0
  9 13  2  0  0  0  0
 10 22  1  0  0  0  0
 11  5  2  0  0  0  0
 12  8  1  0  0  0  0
 13 24  1  0  0  0  0
 13 20  1  0  0  0  0
 14  2  2  0  0  0  0
 15  5  1  0  0  0  0
 15 12  1  0  0  0  0
 16  8  1  0  0  0  0
 17 10  1  0  0  0  0
 18 20  2  0  0  0  0
 18  4  1  0  0  0  0
 19  6  1  0  0  0  0
 20 11  1  0  0  0  0
 21 23  1  0  0  0  0
 22 24  1  0  0  0  0
 23  4  2  0  0  0  0
 25 14  1  6  0  0  0
 25 17  1  0  0  0  0
 25  9  1  0  0  0  0
 26 21  2  0  0  0  0
 27  9  1  0  0  0  0
 27  1  1  0  0  0  0
 28 17  1  0  0  0  0
 29 28  1  0  0  0  0
 30 34  1  0  0  0  0
 30 33  1  0  0  0  0
 32 29  1  0  0  0  0
 32 31  1  0  0  0  0
 33 31  1  0  0  0  0
 34 32  1  0  0  0  0
M  END
>  <MODEL>
9

>  <REMARK>
 VINA RESULT:      -6.0      1.987      3.266
  Name = 
  3 active torsions:
  status: ('A' for Active; 'I' for Inactive)
    1  A    between atoms: N_17  and  C_28
    2  A    between atoms: C_28  and  C_29
    3  A    between atoms: C_29  and  N_32
                            x       y       z     vdW  Elec       q    Type
                         _______ _______ _______ _____ _____    ______ ____

>  <TORSDO>
F 3

$$$$
