=
 OpenBabel11122414383D

 34 40  0  0  1  0  0  0  0  0999 V2000
  161.0350  207.3140  153.2520 C   0  0  0  0  0  0  0  0  0  0  0  0
  161.0140  204.7370  153.2840 C   0  0  0  0  0  2  0  0  0  0  0  0
  160.4030  212.8800  149.6380 C   0  0  0  0  0  0  0  0  0  0  0  0
  160.6970  209.7160  152.9090 C   0  0  0  0  0  0  0  0  0  0  0  0
  161.3130  210.7160  150.7740 C   0  0  0  0  0  0  0  0  0  0  0  0
  162.4170  211.8180  149.0120 O   0  0  0  0  0  0  0  0  0  0  0  0
  160.1570  213.3440  148.4190 C   0  0  0  0  0  2  0  0  0  0  0  0
  159.3010  212.8220  151.8790 C   0  0  0  0  0  2  0  0  0  0  0  0
  161.3550  205.9140  151.2770 C   0  0  1  0  0  3  0  0  0  0  0  0
  161.1300  204.7260  148.4430 C   0  0  0  0  0  2  0  0  0  0  0  0
  161.7220  209.4880  150.3470 N   0  0  0  0  0  0  0  0  0  0  0  0
  160.4410  212.1990  152.6500 C   0  0  0  0  0  2  0  0  0  0  0  0
  162.1150  207.0320  150.5590 C   0  0  2  0  0  3  0  0  0  0  0  0
  161.3410  203.7080  152.2030 C   0  0  0  0  0  2  0  0  0  0  0  0
  160.7950  210.8560  152.0840 C   0  0  0  0  0  0  0  0  0  0  0  0
  159.8780  213.6870  150.7800 C   0  0  0  0  0  2  0  0  0  0  0  0
  160.7740  204.0220  149.7540 C   0  0  2  0  0  3  0  0  0  0  0  0
  161.1240  208.4610  152.4240 C   0  0  0  0  0  0  0  0  0  0  0  0
  161.4410  211.8360  149.8120 C   0  0  0  0  0  0  0  0  0  0  0  0
  161.6290  208.3660  151.1060 C   0  0  0  0  0  0  0  0  0  0  0  0
  160.1230  208.6740  155.0350 C   0  0  0  0  0  3  0  0  0  0  0  0
  160.8320  206.2190  148.4790 C   0  0  0  0  0  2  0  0  0  0  0  0
  160.1940  209.8050  154.2180 C   0  0  0  0  0  3  0  0  0  0  0  0
  162.0430  206.9660  149.0250 C   0  0  0  0  0  2  0  0  0  0  0  0
  161.6720  204.4780  150.9160 C   0  0  1  0  0  3  0  0  0  0  0  0
  160.5520  207.4350  154.5600 C   0  0  0  0  0  3  0  0  0  0  0  0
  161.6080  206.0160  152.7500 C   0  0  1  0  0  3  0  0  0  0  0  0
  160.9020  202.5190  149.5420 C   0  0  0  0  0  2  0  0  0  0  0  0
  160.1300  202.0910  148.3040 C   0  0  0  0  0  2  0  0  0  0  0  0
  160.8040  200.3920  145.2400 O   0  0  0  0  0  0  0  0  0  0  0  0
  161.6230  200.3160  147.4560 C   0  0  0  0  0  2  0  0  0  0  0  0
  161.0890  201.6920  147.1960 C   0  0  1  0  0  3  0  0  0  0  0  0
  161.1390  199.5080  146.2750 C   0  0  0  0  0  2  0  0  0  0  0  0
  160.3520  201.5540  145.8830 C   0  0  0  0  0  2  0  0  0  0  0  0
  1 26  1  0  0  0  0
  3 19  1  0  0  0  0
  3 16  1  0  0  0  0
  4 23  2  0  0  0  0
  5 15  2  0  0  0  0
  6 19  2  0  0  0  0
  7  3  2  0  0  0  0
  8 12  1  0  0  0  0
  9 27  1  0  0  0  0
 10 22  1  0  0  0  0
 10 17  1  0  0  0  0
 11  5  1  0  0  0  0
 11 20  2  0  0  0  0
 13 20  1  0  0  0  0
 13  9  1  0  0  0  0
 14  2  1  0  0  0  0
 15 12  1  0  0  0  0
 15  4  1  0  0  0  0
 16  8  1  0  0  0  0
 17 25  1  0  0  0  0
 18  4  1  0  0  0  0
 18  1  2  0  0  0  0
 19  5  1  0  0  0  0
 20 18  1  0  0  0  0
 22 24  1  0  0  0  0
 23 21  1  0  0  0  0
 24 13  1  0  0  0  0
 25  9  1  0  0  0  0
 25 14  1  0  0  0  0
 26 21  2  0  0  0  0
 27  1  1  0  0  0  0
 27  2  1  0  0  0  0
 28 17  1  0  0  0  0
 29 28  1  0  0  0  0
 30 34  1  0  0  0  0
 30 33  1  0  0  0  0
 32 31  1  0  0  0  0
 32 29  1  0  0  0  0
 33 31  1  0  0  0  0
 34 32  1  0  0  0  0
M  END
>  <MODEL>
1

>  <REMARK>
 VINA RESULT:     -10.5      0.000      0.000
  Name = 
  3 active torsions:
  status: ('A' for Active; 'I' for Inactive)
    1  A    between atoms: C_17  and  C_28
    2  A    between atoms: C_28  and  C_29
    3  A    between atoms: C_29  and  C_32
                            x       y       z     vdW  Elec       q    Type
                         _______ _______ _______ _____ _____    ______ ____

>  <TORSDO>
F 3

$$$$
=
 OpenBabel11122414383D

 34 40  0  0  1  0  0  0  0  0999 V2000
  161.0280  208.4250  152.9210 C   0  0  0  0  0  0  0  0  0  0  0  0
  160.9060  205.9180  153.5010 C   0  0  0  0  0  2  0  0  0  0  0  0
  160.7650  213.1000  148.1750 C   0  0  0  0  0  0  0  0  0  0  0  0
  160.7980  210.7060  152.0560 C   0  0  0  0  0  0  0  0  0  0  0  0
  161.5410  211.2050  149.7900 C   0  0  0  0  0  0  0  0  0  0  0  0
  162.7600  211.8700  147.8890 O   0  0  0  0  0  0  0  0  0  0  0  0
  160.5880  213.2980  146.8740 C   0  0  0  0  0  2  0  0  0  0  0  0
  159.5690  213.5580  150.3190 C   0  0  0  0  0  2  0  0  0  0  0  0
  161.3750  206.6240  151.3080 C   0  0  1  0  0  3  0  0  0  0  0  0
  161.2220  204.8620  148.7850 C   0  0  0  0  0  2  0  0  0  0  0  0
  161.9200  209.9030  149.6550 N   0  0  0  0  0  0  0  0  0  0  0  0
  160.6510  213.0820  151.2610 C   0  0  0  0  0  2  0  0  0  0  0  0
  162.2070  207.5400  150.4060 C   0  0  2  0  0  3  0  0  0  0  0  0
  161.2370  204.6710  152.6820 C   0  0  0  0  0  2  0  0  0  0  0  0
  160.9760  211.6390  151.0130 C   0  0  0  0  0  0  0  0  0  0  0  0
  160.2240  214.1490  149.0910 C   0  0  0  0  0  2  0  0  0  0  0  0
  160.7850  204.4670  150.1980 C   0  0  2  0  0  3  0  0  0  0  0  0
  161.1960  209.3640  151.8720 C   0  0  0  0  0  0  0  0  0  0  0  0
  161.7530  212.0880  148.6180 C   0  0  0  0  0  0  0  0  0  0  0  0
  161.7520  208.9740  150.6310 C   0  0  0  0  0  0  0  0  0  0  0  0
  160.0960  210.1640  154.3250 C   0  0  0  0  0  3  0  0  0  0  0  0
  160.9810  206.3360  148.4880 C   0  0  0  0  0  2  0  0  0  0  0  0
  160.2460  211.0900  153.2890 C   0  0  0  0  0  3  0  0  0  0  0  0
  162.1970  207.1480  148.9190 C   0  0  0  0  0  2  0  0  0  0  0  0
  161.6510  205.1370  151.2770 C   0  0  1  0  0  3  0  0  0  0  0  0
  160.4960  208.8390  154.1470 C   0  0  0  0  0  3  0  0  0  0  0  0
  161.5700  207.0340  152.7360 C   0  0  1  0  0  3  0  0  0  0  0  0
  160.8620  202.9500  150.3180 C   0  0  0  0  0  2  0  0  0  0  0  0
  160.1950  202.2890  149.1220 C   0  0  0  0  0  2  0  0  0  0  0  0
  161.0590  200.8540  145.9730 O   0  0  0  0  0  0  0  0  0  0  0  0
  161.6540  200.5060  148.2330 C   0  0  0  0  0  2  0  0  0  0  0  0
  161.2320  201.9350  148.0700 C   0  0  1  0  0  3  0  0  0  0  0  0
  161.2390  199.8520  146.9370 C   0  0  0  0  0  2  0  0  0  0  0  0
  160.6180  201.9760  146.6880 C   0  0  0  0  0  2  0  0  0  0  0  0
  1 26  1  0  0  0  0
  3 19  1  0  0  0  0
  3 16  1  0  0  0  0
  4 23  2  0  0  0  0
  5 15  2  0  0  0  0
  6 19  2  0  0  0  0
  7  3  2  0  0  0  0
  8 12  1  0  0  0  0
  9 27  1  0  0  0  0
 10 17  1  0  0  0  0
 11  5  1  0  0  0  0
 11 20  2  0  0  0  0
 13 20  1  0  0  0  0
 13  9  1  0  0  0  0
 14  2  1  0  0  0  0
 15 12  1  0  0  0  0
 15  4  1  0  0  0  0
 16  8  1  0  0  0  0
 17 28  1  0  0  0  0
 17 25  1  0  0  0  0
 18  4  1  0  0  0  0
 18  1  2  0  0  0  0
 19  5  1  0  0  0  0
 20 18  1  0  0  0  0
 22 10  1  0  0  0  0
 22 24  1  0  0  0  0
 23 21  1  0  0  0  0
 24 13  1  0  0  0  0
 25  9  1  0  0  0  0
 25 14  1  0  0  0  0
 26 21  2  0  0  0  0
 27  1  1  0  0  0  0
 27  2  1  0  0  0  0
 29 28  1  0  0  0  0
 30 34  1  0  0  0  0
 30 33  1  0  0  0  0
 32 31  1  0  0  0  0
 32 29  1  0  0  0  0
 33 31  1  0  0  0  0
 34 32  1  0  0  0  0
M  END
>  <MODEL>
2

>  <REMARK>
 VINA RESULT:     -10.4      0.868      1.134
  Name = 
  3 active torsions:
  status: ('A' for Active; 'I' for Inactive)
    1  A    between atoms: C_17  and  C_28
    2  A    between atoms: C_28  and  C_29
    3  A    between atoms: C_29  and  C_32
                            x       y       z     vdW  Elec       q    Type
                         _______ _______ _______ _____ _____    ______ ____

>  <TORSDO>
F 3

$$$$
=
 OpenBabel11122414383D

 34 40  0  0  1  0  0  0  0  0999 V2000
  160.8980  206.9730  153.7970 C   0  0  0  0  0  0  0  0  0  0  0  0
  161.3060  204.5440  153.0400 C   0  0  0  0  0  2  0  0  0  0  0  0
  158.9790  213.1270  152.0970 C   0  0  0  0  0  0  0  0  0  0  0  0
  160.1340  209.2610  154.2230 C   0  0  0  0  0  0  0  0  0  0  0  0
  160.3480  210.9380  152.4680 C   0  0  0  0  0  0  0  0  0  0  0  0
  161.0620  212.6950  151.0740 O   0  0  0  0  0  0  0  0  0  0  0  0
  158.5320  213.8710  151.0920 C   0  0  0  0  0  2  0  0  0  0  0  0
  158.1440  212.2110  154.2650 C   0  0  0  0  0  2  0  0  0  0  0  0
  161.2340  206.2970  151.4740 C   0  0  1  0  0  3  0  0  0  0  0  0
  160.9100  205.9680  148.4280 C   0  0  0  0  0  2  0  0  0  0  0  0
  160.9070  209.9900  151.6660 N   0  0  0  0  0  0  0  0  0  0  0  0
  159.4460  211.6170  154.7500 C   0  0  0  0  0  2  0  0  0  0  0  0
  161.7190  207.6990  151.0950 C   0  0  2  0  0  3  0  0  0  0  0  0
  161.6820  203.9560  151.6800 C   0  0  0  0  0  2  0  0  0  0  0  0
  159.9560  210.5900  153.7830 C   0  0  0  0  0  0  0  0  0  0  0  0
  158.4510  213.4510  153.4560 C   0  0  0  0  0  2  0  0  0  0  0  0
  160.8150  204.8570  149.4770 C   0  0  2  0  0  3  0  0  0  0  0  0
  160.7080  208.3070  153.3560 C   0  0  0  0  0  0  0  0  0  0  0  0
  160.1870  212.2940  151.8900 C   0  0  0  0  0  0  0  0  0  0  0  0
  161.0800  208.6980  152.0490 C   0  0  0  0  0  0  0  0  0  0  0  0
  159.9670  207.5560  155.9550 C   0  0  0  0  0  3  0  0  0  0  0  0
  160.3750  207.3000  148.9350 C   0  0  0  0  0  2  0  0  0  0  0  0
  159.7650  208.8690  155.5200 C   0  0  0  0  0  3  0  0  0  0  0  0
  161.4970  208.0710  149.6200 C   0  0  0  0  0  2  0  0  0  0  0  0
  161.7430  205.1170  150.6750 C   0  0  1  0  0  3  0  0  0  0  0  0
  160.5420  206.6140  155.1020 C   0  0  0  0  0  3  0  0  0  0  0  0
  161.6200  206.0110  152.8930 C   0  0  1  0  0  3  0  0  0  0  0  0
  161.1660  203.5340  148.8090 C   0  0  0  0  0  2  0  0  0  0  0  0
  161.8770  203.7800  147.4880 C   0  0  0  0  0  2  0  0  0  0  0  0
  160.1380  201.9250  144.9860 O   0  0  0  0  0  0  0  0  0  0  0  0
  160.8350  201.5580  147.2150 C   0  0  0  0  0  2  0  0  0  0  0  0
  161.7570  202.5610  146.5900 C   0  0  1  0  0  3  0  0  0  0  0  0
  159.6980  201.4420  146.2260 C   0  0  0  0  0  2  0  0  0  0  0  0
  161.0710  202.9260  145.2920 C   0  0  0  0  0  2  0  0  0  0  0  0
  1 26  1  0  0  0  0
  3 16  1  0  0  0  0
  4 23  2  0  0  0  0
  5 15  2  0  0  0  0
  6 19  2  0  0  0  0
  7  3  2  0  0  0  0
  8 12  1  0  0  0  0
  9 27  1  0  0  0  0
 10 22  1  0  0  0  0
 10 17  1  0  0  0  0
 11 20  2  0  0  0  0
 11  5  1  0  0  0  0
 13  9  1  0  0  0  0
 13 20  1  0  0  0  0
 14  2  1  0  0  0  0
 15  4  1  0  0  0  0
 15 12  1  0  0  0  0
 16  8  1  0  0  0  0
 17 25  1  0  0  0  0
 18  1  2  0  0  0  0
 18  4  1  0  0  0  0
 19  3  1  0  0  0  0
 19  5  1  0  0  0  0
 20 18  1  0  0  0  0
 22 24  1  0  0  0  0
 23 21  1  0  0  0  0
 24 13  1  0  0  0  0
 25  9  1  0  0  0  0
 25 14  1  0  0  0  0
 26 21  2  0  0  0  0
 27  2  1  0  0  0  0
 27  1  1  0  0  0  0
 28 17  1  0  0  0  0
 29 28  1  0  0  0  0
 30 34  1  0  0  0  0
 30 33  1  0  0  0  0
 32 31  1  0  0  0  0
 32 29  1  0  0  0  0
 33 31  1  0  0  0  0
 34 32  1  0  0  0  0
M  END
>  <MODEL>
3

>  <REMARK>
 VINA RESULT:      -9.5      1.365      1.766
  Name = 
  3 active torsions:
  status: ('A' for Active; 'I' for Inactive)
    1  A    between atoms: C_17  and  C_28
    2  A    between atoms: C_28  and  C_29
    3  A    between atoms: C_29  and  C_32
                            x       y       z     vdW  Elec       q    Type
                         _______ _______ _______ _____ _____    ______ ____

>  <TORSDO>
F 3

$$$$
=
 OpenBabel11122414383D

 34 40  0  0  1  0  0  0  0  0999 V2000
  161.8140  208.8680  151.0900 C   0  0  0  0  0  0  0  0  0  0  0  0
  161.4200  210.9210  152.5970 C   0  0  0  0  0  2  0  0  0  0  0  0
  160.6740  202.3840  150.0390 C   0  0  0  0  0  0  0  0  0  0  0  0
  161.7340  206.8110  149.7620 C   0  0  0  0  0  0  0  0  0  0  0  0
  161.6160  204.6590  150.8990 C   0  0  0  0  0  0  0  0  0  0  0  0
  162.1010  202.5890  151.9080 O   0  0  0  0  0  0  0  0  0  0  0  0
  160.0460  201.3150  150.5150 C   0  0  0  0  0  2  0  0  0  0  0  0
  160.5330  203.9190  148.0730 C   0  0  0  0  0  2  0  0  0  0  0  0
  161.1270  208.7410  153.4310 C   0  0  1  0  0  3  0  0  0  0  0  0
  159.6430  207.9990  156.0270 C   0  0  0  0  0  2  0  0  0  0  0  0
  161.6380  205.3170  152.0920 N   0  0  0  0  0  0  0  0  0  0  0  0
  161.7750  204.7300  148.3590 C   0  0  0  0  0  2  0  0  0  0  0  0
  161.7070  207.3310  153.5650 C   0  0  2  0  0  3  0  0  0  0  0  0
  161.1420  211.0400  154.0950 C   0  0  0  0  0  2  0  0  0  0  0  0
  161.6760  205.4020  149.6960 C   0  0  0  0  0  0  0  0  0  0  0  0
  160.7610  202.5020  148.5530 C   0  0  0  0  0  2  0  0  0  0  0  0
  159.7230  209.3890  155.3910 C   0  0  2  0  0  3  0  0  0  0  0  0
  161.7450  207.4540  151.0190 C   0  0  0  0  0  0  0  0  0  0  0  0
  161.5280  203.1800  150.9530 C   0  0  0  0  0  0  0  0  0  0  0  0
  161.6790  206.6710  152.1950 C   0  0  0  0  0  0  0  0  0  0  0  0
  161.8820  208.9850  148.6730 C   0  0  0  0  0  3  0  0  0  0  0  0
  159.6110  206.8820  154.9920 C   0  0  0  0  0  2  0  0  0  0  0  0
  161.8000  207.5920  148.5970 C   0  0  0  0  0  3  0  0  0  0  0  0
  161.0360  206.4680  154.6460 C   0  0  0  0  0  2  0  0  0  0  0  0
  161.0590  209.6150  154.6650 C   0  0  1  0  0  3  0  0  0  0  0  0
  161.9010  209.6210  149.9140 C   0  0  0  0  0  3  0  0  0  0  0  0
  161.9440  209.5160  152.4420 C   0  0  1  0  0  3  0  0  0  0  0  0
  159.5300  210.4300  156.4870 C   0  0  0  0  0  2  0  0  0  0  0  0
  158.1160  210.9860  156.4470 C   0  0  0  0  0  2  0  0  0  0  0  0
  156.9420  213.2880  153.9880 O   0  0  0  0  0  0  0  0  0  0  0  0
  156.2240  211.2190  154.8760 C   0  0  0  0  0  2  0  0  0  0  0  0
  157.7140  211.3030  155.0170 C   0  0  1  0  0  3  0  0  0  0  0  0
  155.8150  212.6200  154.4860 C   0  0  0  0  0  2  0  0  0  0  0  0
  158.0300  212.7450  154.6860 C   0  0  0  0  0  2  0  0  0  0  0  0
  1 27  1  0  0  0  0
  2 14  1  0  0  0  0
  3  7  2  0  0  0  0
  3 19  1  0  0  0  0
  4 18  1  0  0  0  0
  5 19  1  0  0  0  0
  5 11  2  0  0  0  0
  8 12  1  0  0  0  0
  8 16  1  0  0  0  0
  9 13  1  0  0  0  0
  9 25  1  0  0  0  0
 11 20  1  0  0  0  0
 12 15  1  0  0  0  0
 13 24  1  0  0  0  0
 14 25  1  0  0  0  0
 15  4  2  0  0  0  0
 15  5  1  0  0  0  0
 16  3  1  0  0  0  0
 17 10  1  0  0  0  0
 17 28  1  0  0  0  0
 18  1  1  0  0  0  0
 18 20  2  0  0  0  0
 19  6  2  0  0  0  0
 20 13  1  0  0  0  0
 21 26  1  0  0  0  0
 22 10  1  0  0  0  0
 23 21  2  0  0  0  0
 23  4  1  0  0  0  0
 24 22  1  0  0  0  0
 25 17  1  0  0  0  0
 26  1  2  0  0  0  0
 27  2  1  0  0  0  0
 27  9  1  0  0  0  0
 29 28  1  0  0  0  0
 30 33  1  0  0  0  0
 30 34  1  0  0  0  0
 31 32  1  0  0  0  0
 32 29  1  0  0  0  0
 33 31  1  0  0  0  0
 34 32  1  0  0  0  0
M  END
>  <MODEL>
4

>  <REMARK>
 VINA RESULT:      -8.6      2.700      8.936
  Name = 
  3 active torsions:
  status: ('A' for Active; 'I' for Inactive)
    1  A    between atoms: C_17  and  C_28
    2  A    between atoms: C_28  and  C_29
    3  A    between atoms: C_29  and  C_32
                            x       y       z     vdW  Elec       q    Type
                         _______ _______ _______ _____ _____    ______ ____

>  <TORSDO>
F 3

$$$$
=
 OpenBabel11122414383D

 34 40  0  0  1  0  0  0  0  0999 V2000
  160.8510  204.9990  152.2210 C   0  0  0  0  0  0  0  0  0  0  0  0
  161.0650  206.2100  154.4860 C   0  0  0  0  0  2  0  0  0  0  0  0
  161.9850  205.1530  145.6530 C   0  0  0  0  0  0  0  0  0  0  0  0
  161.0790  204.0350  149.9800 C   0  0  0  0  0  0  0  0  0  0  0  0
  160.9780  205.4980  148.0340 C   0  0  0  0  0  0  0  0  0  0  0  0
  160.3020  206.7330  146.1490 O   0  0  0  0  0  0  0  0  0  0  0  0
  162.5100  205.8790  144.6730 C   0  0  0  0  0  2  0  0  0  0  0  0
  162.4500  203.0160  146.8590 C   0  0  0  0  0  2  0  0  0  0  0  0
  161.1810  207.4070  152.4650 C   0  0  1  0  0  3  0  0  0  0  0  0
  162.2470  210.2800  152.1420 C   0  0  0  0  0  2  0  0  0  0  0  0
  160.7950  206.5560  148.8720 N   0  0  0  0  0  0  0  0  0  0  0  0
  161.1980  202.9830  147.7050 C   0  0  0  0  0  2  0  0  0  0  0  0
  160.5550  207.6710  151.0930 C   0  0  2  0  0  3  0  0  0  0  0  0
  161.1210  207.6950  154.8390 C   0  0  0  0  0  2  0  0  0  0  0  0
  161.1140  204.1990  148.5790 C   0  0  0  0  0  0  0  0  0  0  0  0
  162.1220  203.6710  145.5360 C   0  0  0  0  0  2  0  0  0  0  0  0
  162.2940  209.4300  153.4140 C   0  0  2  0  0  3  0  0  0  0  0  0
  160.8970  205.1600  150.8130 C   0  0  0  0  0  0  0  0  0  0  0  0
  161.0240  205.7940  146.5820 C   0  0  0  0  0  0  0  0  0  0  0  0
  160.7700  206.4400  150.2250 C   0  0  0  0  0  0  0  0  0  0  0  0
  161.1440  202.6100  151.9560 C   0  0  0  0  0  3  0  0  0  0  0  0
  162.4060  209.4480  150.8760 C   0  0  0  0  0  2  0  0  0  0  0  0
  161.2040  202.7660  150.5680 C   0  0  0  0  0  3  0  0  0  0  0  0
  161.0390  208.9610  150.4110 C   0  0  0  0  0  2  0  0  0  0  0  0
  161.0860  208.4860  153.5220 C   0  0  1  0  0  3  0  0  0  0  0  0
  160.9560  203.7210  152.7800 C   0  0  0  0  0  3  0  0  0  0  0  0
  160.5370  206.1990  153.0730 C   0  0  1  0  0  3  0  0  0  0  0  0
  162.3470  210.3670  154.6140 C   0  0  0  0  0  2  0  0  0  0  0  0
  161.1220  211.2680  154.6380 C   0  0  0  0  0  2  0  0  0  0  0  0
  158.1650  211.4150  156.6280 O   0  0  0  0  0  0  0  0  0  0  0  0
  160.2320  212.5580  156.5460 C   0  0  0  0  0  2  0  0  0  0  0  0
  160.4310  211.1820  155.9870 C   0  0  1  0  0  3  0  0  0  0  0  0
  158.7310  212.6970  156.6500 C   0  0  0  0  0  2  0  0  0  0  0  0
  159.0250  210.6480  155.8280 C   0  0  0  0  0  2  0  0  0  0  0  0
  1 26  1  0  0  0  0
  1 27  1  0  0  0  0
  2 14  1  0  0  0  0
  3 19  1  0  0  0  0
  4 23  2  0  0  0  0
  4 18  1  0  0  0  0
  5 15  2  0  0  0  0
  5 11  1  0  0  0  0
  6 19  2  0  0  0  0
  7  3  2  0  0  0  0
  8 12  1  0  0  0  0
  9 27  1  0  0  0  0
  9 25  1  0  0  0  0
 10 17  1  0  0  0  0
 11 20  2  0  0  0  0
 12 15  1  0  0  0  0
 13  9  1  0  0  0  0
 15  4  1  0  0  0  0
 16  3  1  0  0  0  0
 16  8  1  0  0  0  0
 17 25  1  0  0  0  0
 17 28  1  0  0  0  0
 18  1  2  0  0  0  0
 19  5  1  0  0  0  0
 20 18  1  0  0  0  0
 20 13  1  0  0  0  0
 21 26  2  0  0  0  0
 22 10  1  0  0  0  0
 23 21  1  0  0  0  0
 24 22  1  0  0  0  0
 24 13  1  0  0  0  0
 25 14  1  0  0  0  0
 27  2  1  0  0  0  0
 28 29  1  0  0  0  0
 29 32  1  0  0  0  0
 30 33  1  0  0  0  0
 31 33  1  0  0  0  0
 32 31  1  0  0  0  0
 34 32  1  0  0  0  0
 34 30  1  0  0  0  0
M  END
>  <MODEL>
5

>  <REMARK>
 VINA RESULT:      -8.3      2.660      8.455
  Name = 
  3 active torsions:
  status: ('A' for Active; 'I' for Inactive)
    1  A    between atoms: C_17  and  C_28
    2  A    between atoms: C_28  and  C_29
    3  A    between atoms: C_29  and  C_32
                            x       y       z     vdW  Elec       q    Type
                         _______ _______ _______ _____ _____    ______ ____

>  <TORSDO>
F 3

$$$$
=
 OpenBabel11122414383D

 34 40  0  0  1  0  0  0  0  0999 V2000
  161.3760  207.3860  149.5570 C   0  0  0  0  0  0  0  0  0  0  0  0
  161.5340  205.5750  147.7310 C   0  0  0  0  0  2  0  0  0  0  0  0
  161.7020  208.8380  156.0560 C   0  0  0  0  0  0  0  0  0  0  0  0
  161.5860  208.8680  151.4970 C   0  0  0  0  0  0  0  0  0  0  0  0
  160.9120  208.0610  153.6950 C   0  0  0  0  0  0  0  0  0  0  0  0
  159.7460  207.5710  155.6800 O   0  0  0  0  0  0  0  0  0  0  0  0
  161.9200  208.3220  157.2590 C   0  0  0  0  0  2  0  0  0  0  0  0
  162.8120  210.4070  154.4610 C   0  0  0  0  0  2  0  0  0  0  0  0
  161.1250  204.9920  149.9730 C   0  0  1  0  0  3  0  0  0  0  0  0
  161.4050  202.1670  151.1710 C   0  0  0  0  0  2  0  0  0  0  0  0
  160.5670  206.8730  153.1240 N   0  0  0  0  0  0  0  0  0  0  0  0
  161.7090  210.4640  153.4300 C   0  0  0  0  0  2  0  0  0  0  0  0
  160.3050  205.2590  151.2380 C   0  0  2  0  0  3  0  0  0  0  0  0
  161.2590  204.0720  147.7680 C   0  0  0  0  0  2  0  0  0  0  0  0
  161.4250  209.0980  152.8800 C   0  0  0  0  0  0  0  0  0  0  0  0
  162.1880  210.2320  155.8270 C   0  0  0  0  0  2  0  0  0  0  0  0
  161.8020  202.5990  149.7560 C   0  0  2  0  0  3  0  0  0  0  0  0
  161.2250  207.6190  150.9470 C   0  0  0  0  0  0  0  0  0  0  0  0
  160.7220  208.1790  155.1600 C   0  0  0  0  0  0  0  0  0  0  0  0
  160.7210  206.6090  151.8010 C   0  0  0  0  0  0  0  0  0  0  0  0
  162.2200  209.6380  149.2740 C   0  0  0  0  0  3  0  0  0  0  0  0
  161.6240  203.2670  152.2010 C   0  0  0  0  0  2  0  0  0  0  0  0
  162.0860  209.8670  150.6460 C   0  0  0  0  0  3  0  0  0  0  0  0
  160.3770  204.1380  152.2890 C   0  0  0  0  0  2  0  0  0  0  0  0
  160.8840  203.7060  149.2130 C   0  0  1  0  0  3  0  0  0  0  0  0
  161.8560  208.4070  148.7290 C   0  0  0  0  0  3  0  0  0  0  0  0
  160.8720  206.0900  148.9840 C   0  0  1  0  0  3  0  0  0  0  0  0
  161.7530  201.3750  148.8510 C   0  0  0  0  0  2  0  0  0  0  0  0
  160.6130  201.4980  147.8530 C   0  0  0  0  0  2  0  0  0  0  0  0
  160.0230  200.4360  144.4990 O   0  0  0  0  0  0  0  0  0  0  0  0
  161.4180  199.7680  146.2860 C   0  0  0  0  0  2  0  0  0  0  0  0
  161.1120  201.2260  146.4450 C   0  0  1  0  0  3  0  0  0  0  0  0
  160.4640  199.3100  145.2080 C   0  0  0  0  0  2  0  0  0  0  0  0
  160.0140  201.4790  145.4370 C   0  0  0  0  0  2  0  0  0  0  0  0
  1 18  1  0  0  0  0
  2 14  1  0  0  0  0
  2 27  1  0  0  0  0
  3  7  2  0  0  0  0
  4 15  1  0  0  0  0
  5 19  1  0  0  0  0
  8 16  1  0  0  0  0
  9 13  1  0  0  0  0
 10 22  1  0  0  0  0
 11  5  1  0  0  0  0
 12  8  1  0  0  0  0
 13 20  1  0  0  0  0
 13 24  1  0  0  0  0
 14 25  1  0  0  0  0
 15 12  1  0  0  0  0
 15  5  2  0  0  0  0
 16  3  1  0  0  0  0
 17 10  1  0  0  0  0
 18  4  2  0  0  0  0
 18 20  1  0  0  0  0
 19  6  2  0  0  0  0
 19  3  1  0  0  0  0
 20 11  2  0  0  0  0
 21 23  2  0  0  0  0
 22 24  1  0  0  0  0
 23  4  1  0  0  0  0
 25 17  1  0  0  0  0
 25  9  1  0  0  0  0
 26 21  1  0  0  0  0
 26  1  2  0  0  0  0
 27  1  1  0  0  0  0
 27  9  1  0  0  0  0
 28 17  1  0  0  0  0
 29 28  1  0  0  0  0
 30 33  1  0  0  0  0
 30 34  1  0  0  0  0
 31 32  1  0  0  0  0
 32 29  1  0  0  0  0
 33 31  1  0  0  0  0
 34 32  1  0  0  0  0
M  END
>  <MODEL>
6

>  <REMARK>
 VINA RESULT:      -8.3      2.355      4.383
  Name = 
  3 active torsions:
  status: ('A' for Active; 'I' for Inactive)
    1  A    between atoms: C_17  and  C_28
    2  A    between atoms: C_28  and  C_29
    3  A    between atoms: C_29  and  C_32
                            x       y       z     vdW  Elec       q    Type
                         _______ _______ _______ _____ _____    ______ ____

>  <TORSDO>
F 3

$$$$
=
 OpenBabel11122414383D

 34 40  0  0  1  0  0  0  0  0999 V2000
  161.8070  208.1890  150.3100 C   0  0  0  0  0  0  0  0  0  0  0  0
  161.5450  210.4110  151.5880 C   0  0  0  0  0  2  0  0  0  0  0  0
  160.5770  201.6390  150.1430 C   0  0  0  0  0  0  0  0  0  0  0  0
  161.6120  205.9890  149.2490 C   0  0  0  0  0  0  0  0  0  0  0  0
  161.5910  203.9900  150.6410 C   0  0  0  0  0  0  0  0  0  0  0  0
  162.1610  202.0490  151.8450 O   0  0  0  0  0  0  0  0  0  0  0  0
  159.9920  200.6410  150.7960 C   0  0  0  0  0  2  0  0  0  0  0  0
  160.2670  202.9300  148.0270 C   0  0  0  0  0  2  0  0  0  0  0  0
  161.3250  208.3490  152.6990 C   0  0  1  0  0  3  0  0  0  0  0  0
  160.0710  207.9380  155.4830 C   0  0  0  0  0  2  0  0  0  0  0  0
  161.7160  204.7850  151.7400 N   0  0  0  0  0  0  0  0  0  0  0  0
  161.5300  203.7560  148.1060 C   0  0  0  0  0  2  0  0  0  0  0  0
  161.9140  206.9590  152.9510 C   0  0  2  0  0  3  0  0  0  0  0  0
  161.3980  210.7110  153.0790 C   0  0  0  0  0  2  0  0  0  0  0  0
  161.5470  204.5840  149.3570 C   0  0  0  0  0  0  0  0  0  0  0  0
  160.5350  201.5780  148.6510 C   0  0  0  0  0  2  0  0  0  0  0  0
  160.0950  209.2420  154.6810 C   0  0  2  0  0  3  0  0  0  0  0  0
  161.7310  206.7770  150.4140 C   0  0  0  0  0  0  0  0  0  0  0  0
  161.5070  202.5290  150.8780 C   0  0  0  0  0  0  0  0  0  0  0  0
  161.7670  206.1410  151.6760 C   0  0  0  0  0  0  0  0  0  0  0  0
  161.6650  208.0170  147.8980 C   0  0  0  0  0  3  0  0  0  0  0  0
  159.9480  206.7060  154.5950 C   0  0  0  0  0  2  0  0  0  0  0  0
  161.5760  206.6250  147.9970 C   0  0  0  0  0  3  0  0  0  0  0  0
  161.3380  206.2380  154.1810 C   0  0  0  0  0  2  0  0  0  0  0  0
  161.3640  209.3650  153.8200 C   0  0  1  0  0  3  0  0  0  0  0  0
  161.7910  208.7960  149.0490 C   0  0  0  0  0  3  0  0  0  0  0  0
  162.0540  208.9920  151.5580 C   0  0  1  0  0  3  0  0  0  0  0  0
  159.9990  210.4070  155.6560 C   0  0  0  0  0  2  0  0  0  0  0  0
  158.5570  210.6160  156.0910 C   0  0  0  0  0  2  0  0  0  0  0  0
  157.4530  213.0030  153.6810 O   0  0  0  0  0  0  0  0  0  0  0  0
  159.2510  212.8130  155.2030 C   0  0  0  0  0  2  0  0  0  0  0  0
  158.0970  212.0190  155.7340 C   0  0  1  0  0  3  0  0  0  0  0  0
  158.8430  213.1500  153.7880 C   0  0  0  0  0  2  0  0  0  0  0  0
  157.1220  211.9760  154.5780 C   0  0  0  0  0  2  0  0  0  0  0  0
  1 18  1  0  0  0  0
  1 27  1  0  0  0  0
  2 14  1  0  0  0  0
  3  7  2  0  0  0  0
  3 19  1  0  0  0  0
  4 15  2  0  0  0  0
  4 18  1  0  0  0  0
  5 19  1  0  0  0  0
  5 11  2  0  0  0  0
  8 12  1  0  0  0  0
  8 16  1  0  0  0  0
  9 13  1  0  0  0  0
  9 25  1  0  0  0  0
 12 15  1  0  0  0  0
 13 24  1  0  0  0  0
 14 25  1  0  0  0  0
 15  5  1  0  0  0  0
 16  3  1  0  0  0  0
 17 10  1  0  0  0  0
 17 28  1  0  0  0  0
 18 20  2  0  0  0  0
 19  6  2  0  0  0  0
 20 11  1  0  0  0  0
 20 13  1  0  0  0  0
 21 23  2  0  0  0  0
 21 26  1  0  0  0  0
 22 10  1  0  0  0  0
 23  4  1  0  0  0  0
 24 22  1  0  0  0  0
 25 17  1  0  0  0  0
 26  1  2  0  0  0  0
 27  2  1  0  0  0  0
 27  9  1  0  0  0  0
 28 29  1  0  0  0  0
 30 33  1  0  0  0  0
 30 34  1  0  0  0  0
 31 32  1  0  0  0  0
 32 29  1  0  0  0  0
 33 31  1  0  0  0  0
 34 32  1  0  0  0  0
M  END
>  <MODEL>
7

>  <REMARK>
 VINA RESULT:      -8.2      2.537      9.075
  Name = 
  3 active torsions:
  status: ('A' for Active; 'I' for Inactive)
    1  A    between atoms: C_17  and  C_28
    2  A    between atoms: C_28  and  C_29
    3  A    between atoms: C_29  and  C_32
                            x       y       z     vdW  Elec       q    Type
                         _______ _______ _______ _____ _____    ______ ____

>  <TORSDO>
F 3

$$$$
