=
 OpenBabel11122412483D

 32 37  0  0  1  0  0  0  0  0999 V2000
  160.7090  213.4880  147.5960 N   0  0  0  0  0  2  0  0  0  0  0  0
  161.3920  208.5260  149.7900 C   0  0  1  0  0  3  0  0  0  0  0  0
  161.3740  207.8910  154.7190 C   0  0  0  0  0  3  0  0  0  0  0  0
  160.8310  206.6190  154.5400 C   0  0  0  0  0  3  0  0  0  0  0  0
  161.2620  206.4850  148.2330 C   0  0  2  0  0  3  0  0  0  0  0  0
  161.1910  204.9820  148.2640 C   0  0  0  0  0  0  0  0  0  0  0  0
  161.4440  210.5460  148.7940 C   0  0  1  0  0  3  0  0  0  0  0  0
  161.5830  210.4920  151.3060 C   0  0  0  0  0  2  0  0  0  0  0  0
  160.9170  202.8840  149.0650 C   0  0  0  0  0  0  0  0  0  0  0  0
  161.4960  212.6740  150.1610 N   0  0  0  0  0  2  0  0  0  0  0  0
  161.7240  208.6610  153.6090 C   0  0  0  0  0  3  0  0  0  0  0  0
  161.9640  209.0180  151.1320 C   0  0  1  0  0  3  0  0  0  0  0  0
  161.5270  208.1760  152.3070 C   0  0  0  0  0  0  0  0  0  0  0  0
  160.7810  206.3080  150.7390 C   0  0  2  0  0  3  0  0  0  0  0  0
  161.7130  202.8690  148.0090 C   0  0  0  0  0  3  0  0  0  0  0  0
  160.5970  212.1310  147.0660 C   0  0  0  0  0  2  0  0  0  0  0  0
  161.9560  211.2860  150.0520 C   0  0  2  0  0  3  0  0  0  0  0  0
  161.9040  204.1930  147.5260 N   0  0  0  0  0  0  0  0  0  0  0  0
  161.7840  211.2890  147.5110 C   0  0  0  0  0  2  0  0  0  0  0  0
  160.0600  212.7670  149.9070 C   0  0  0  0  0  2  0  0  0  0  0  0
  160.6560  206.1110  153.2520 C   0  0  0  0  0  3  0  0  0  0  0  0
  161.0340  206.8610  152.1250 C   0  0  0  0  0  0  0  0  0  0  0  0
  160.9750  204.7850  150.6780 C   0  0  0  0  0  2  0  0  0  0  0  0
  161.9970  209.2540  148.7480 O   0  0  0  0  0  0  0  0  0  0  0  0
  162.2710  206.9530  147.1890 C   0  0  0  0  0  1  0  0  0  0  0  0
  160.4900  201.6670  149.8080 C   0  0  0  0  0  1  0  0  0  0  0  0
  161.6210  207.0160  149.6460 C   0  0  2  0  0  3  0  0  0  0  0  0
  160.4560  204.2700  149.3430 C   0  0  1  0  0  3  0  0  0  0  0  0
  159.8010  213.7080  148.7300 C   0  0  2  0  0  3  0  0  0  0  0  0
  158.3640  213.7020  148.3110 C   0  0  0  0  0  0  0  0  0  0  0  0
  157.9420  214.4490  147.2180 O   0  0  0  0  0  0  0  0  0  0  0  0
  157.5260  213.0350  148.9720 O   0  0  0  0  0  1  0  0  0  0  0  0
  1 29  1  0  0  0  0
  2 24  1  6  0  0  0
  2 12  1  0  0  0  0
  4  3  1  0  0  0  0
  5 25  1  6  0  0  0
  5  6  1  0  0  0  0
  5 27  1  0  0  0  0
  6 28  1  0  0  0  0
  7 19  1  6  0  0  0
  7 17  1  0  0  0  0
  9 28  1  0  0  0  0
  9 26  1  0  0  0  0
 11  3  2  0  0  0  0
 12  8  1  1  0  0  0
 12 13  1  0  0  0  0
 13 11  1  0  0  0  0
 14 23  1  1  0  0  0
 14 22  1  0  0  0  0
 15  9  2  0  0  0  0
 16 19  1  0  0  0  0
 16  1  1  0  0  0  0
 17 10  1  0  0  0  0
 17  8  1  1  0  0  0
 18 15  1  0  0  0  0
 18  6  2  0  0  0  0
 20 10  1  0  0  0  0
 21  4  2  0  0  0  0
 22 13  2  0  0  0  0
 22 21  1  0  0  0  0
 24  7  1  0  0  0  0
 27  2  1  0  0  0  0
 27 14  1  0  0  0  0
 28 23  1  0  0  0  0
 29 20  1  0  0  0  0
 30 29  1  0  0  0  0
 30 32  1  0  0  0  0
 31 30  2  0  0  0  0
M  END
>  <MODEL>
1

>  <REMARK>
 VINA RESULT:      -8.0      0.000      0.000
  Name = 
  1 active torsions:
  status: ('A' for Active; 'I' for Inactive)
    1  A    between atoms: CA_29  and  C_30
                            x       y       z     vdW  Elec       q    Type
                         _______ _______ _______ _____ _____    ______ ____

>  <TORSDO>
F 1

$$$$
=
 OpenBabel11122412483D

 32 37  0  0  1  0  0  0  0  0999 V2000
  160.3860  212.1650  153.2370 N   0  0  0  0  0  2  0  0  0  0  0  0
  161.2990  207.4040  150.7070 C   0  0  1  0  0  3  0  0  0  0  0  0
  160.8310  203.0930  153.1360 C   0  0  0  0  0  3  0  0  0  0  0  0
  160.4310  202.4820  151.9470 C   0  0  0  0  0  3  0  0  0  0  0  0
  161.5230  207.4160  148.1470 C   0  0  2  0  0  3  0  0  0  0  0  0
  161.5900  206.4860  146.9650 C   0  0  0  0  0  0  0  0  0  0  0  0
  161.2650  209.4150  151.7200 C   0  0  1  0  0  3  0  0  0  0  0  0
  161.1480  207.3770  153.1930 C   0  0  0  0  0  2  0  0  0  0  0  0
  161.4320  204.5880  145.7430 C   0  0  0  0  0  0  0  0  0  0  0  0
  160.9760  209.6090  154.2270 N   0  0  0  0  0  2  0  0  0  0  0  0
  161.2210  204.4330  153.1330 C   0  0  0  0  0  3  0  0  0  0  0  0
  161.6810  206.6170  151.9740 C   0  0  1  0  0  3  0  0  0  0  0  0
  161.2060  205.1830  151.9470 C   0  0  0  0  0  0  0  0  0  0  0  0
  160.8040  205.3240  149.4330 C   0  0  2  0  0  3  0  0  0  0  0  0
  162.3310  205.4000  145.2120 C   0  0  0  0  0  3  0  0  0  0  0  0
  160.4570  211.7710  151.8310 C   0  0  0  0  0  2  0  0  0  0  0  0
  161.5730  208.8450  153.1260 C   0  0  2  0  0  3  0  0  0  0  0  0
  162.4460  206.5790  145.9990 N   0  0  0  0  0  0  0  0  0  0  0  0
  161.6650  210.8770  151.5920 C   0  0  0  0  0  2  0  0  0  0  0  0
  159.5720  209.9050  153.9520 C   0  0  0  0  0  2  0  0  0  0  0  0
  160.4390  203.2070  150.7550 C   0  0  0  0  0  3  0  0  0  0  0  0
  160.8590  204.5470  150.7300 C   0  0  0  0  0  0  0  0  0  0  0  0
  161.1450  204.4490  148.2170 C   0  0  0  0  0  2  0  0  0  0  0  0
  161.9380  208.6570  150.7460 O   0  0  0  0  0  0  0  0  0  0  0  0
  162.5860  208.5040  148.0340 C   0  0  0  0  0  1  0  0  0  0  0  0
  161.0460  203.2730  145.1640 C   0  0  0  0  0  1  0  0  0  0  0  0
  161.6830  206.6010  149.4570 C   0  0  2  0  0  3  0  0  0  0  0  0
  160.8170  205.2150  146.9440 C   0  0  1  0  0  3  0  0  0  0  0  0
  159.3490  211.4170  153.9610 C   0  0  2  0  0  3  0  0  0  0  0  0
  157.9710  211.7850  153.5100 C   0  0  0  0  0  0  0  0  0  0  0  0
  157.7640  212.8890  152.6900 O   0  0  0  0  0  0  0  0  0  0  0  0
  156.9860  211.1060  153.9010 O   0  0  0  0  0  1  0  0  0  0  0  0
  1 29  1  0  0  0  0
  2 24  1  6  0  0  0
  2 12  1  0  0  0  0
  4  3  2  0  0  0  0
  5 25  1  6  0  0  0
  5 27  1  0  0  0  0
  6  5  1  0  0  0  0
  7 19  1  1  0  0  0
  7 17  1  0  0  0  0
  9 28  1  0  0  0  0
 11  3  1  0  0  0  0
 12  8  1  1  0  0  0
 13 12  1  0  0  0  0
 13 11  2  0  0  0  0
 14 23  1  6  0  0  0
 14 27  1  0  0  0  0
 14 22  1  0  0  0  0
 15  9  2  0  0  0  0
 15 18  1  0  0  0  0
 16  1  1  0  0  0  0
 17  8  1  6  0  0  0
 17 10  1  0  0  0  0
 18  6  2  0  0  0  0
 19 16  1  0  0  0  0
 20 29  1  0  0  0  0
 20 10  1  0  0  0  0
 21  4  1  0  0  0  0
 22 21  2  0  0  0  0
 22 13  1  0  0  0  0
 24  7  1  0  0  0  0
 26  9  1  0  0  0  0
 27  2  1  0  0  0  0
 28  6  1  0  0  0  0
 28 23  1  0  0  0  0
 30 32  1  0  0  0  0
 30 29  1  0  0  0  0
 31 30  2  0  0  0  0
M  END
>  <MODEL>
2

>  <REMARK>
 VINA RESULT:      -6.9      2.529      3.896
  Name = 
  1 active torsions:
  status: ('A' for Active; 'I' for Inactive)
    1  A    between atoms: CA_29  and  C_30
                            x       y       z     vdW  Elec       q    Type
                         _______ _______ _______ _____ _____    ______ ____

>  <TORSDO>
F 1

$$$$
=
 OpenBabel11122412483D

 32 37  0  0  1  0  0  0  0  0999 V2000
  162.2530  205.7600  152.5140 N   0  0  0  0  0  2  0  0  0  0  0  0
  159.7210  210.5590  153.1920 C   0  0  1  0  0  3  0  0  0  0  0  0
  159.8150  214.0200  149.6260 C   0  0  0  0  0  3  0  0  0  0  0  0
  158.5520  214.4530  150.0320 C   0  0  0  0  0  3  0  0  0  0  0  0
  158.1130  210.8100  155.1810 C   0  0  2  0  0  3  0  0  0  0  0  0
  157.0710  211.7390  155.7450 C   0  0  0  0  0  0  0  0  0  0  0  0
  160.9860  208.6960  153.1540 C   0  0  1  0  0  3  0  0  0  0  0  0
  161.3220  210.3600  151.2960 C   0  0  0  0  0  2  0  0  0  0  0  0
  155.5680  213.4270  155.8610 C   0  0  0  0  0  0  0  0  0  0  0  0
  162.5750  208.2360  151.2390 N   0  0  0  0  0  2  0  0  0  0  0  0
  160.4650  213.0090  150.3350 C   0  0  0  0  0  3  0  0  0  0  0  0
  160.6150  211.3540  152.2220 C   0  0  1  0  0  3  0  0  0  0  0  0
  159.8590  212.4100  151.4510 C   0  0  0  0  0  0  0  0  0  0  0  0
  157.9050  212.2580  153.0820 C   0  0  2  0  0  3  0  0  0  0  0  0
  156.0390  213.1500  157.0650 C   0  0  0  0  0  3  0  0  0  0  0  0
  161.2170  206.2290  153.4330 C   0  0  0  0  0  2  0  0  0  0  0  0
  161.9900  209.2550  152.1170 C   0  0  2  0  0  3  0  0  0  0  0  0
  157.0020  212.1070  156.9840 N   0  0  0  0  0  0  0  0  0  0  0  0
  161.5920  207.5890  154.0030 C   0  0  0  0  0  2  0  0  0  0  0  0
  161.5410  207.3490  150.7110 C   0  0  0  0  0  2  0  0  0  0  0  0
  157.9500  213.8880  151.1570 C   0  0  0  0  0  3  0  0  0  0  0  0
  158.6060  212.8920  151.9000 C   0  0  0  0  0  0  0  0  0  0  0  0
  157.0380  213.2660  153.8520 C   0  0  0  0  0  2  0  0  0  0  0  0
  160.5400  209.7360  153.9880 O   0  0  0  0  0  0  0  0  0  0  0  0
  159.0600  210.3370  156.2790 C   0  0  0  0  0  1  0  0  0  0  0  0
  154.5280  214.4530  155.5840 C   0  0  0  0  0  1  0  0  0  0  0  0
  158.8810  211.5240  154.0390 C   0  0  2  0  0  3  0  0  0  0  0  0
  156.1700  212.5150  154.8520 C   0  0  1  0  0  3  0  0  0  0  0  0
  161.8430  205.9050  151.1100 C   0  0  2  0  0  3  0  0  0  0  0  0
  160.7260  204.9760  150.7510 C   0  0  0  0  0  0  0  0  0  0  0  0
  160.4630  203.8510  151.5240 O   0  0  0  0  0  1  0  0  0  0  0  0
  160.0360  205.2010  149.7230 O   0  0  0  0  0  0  0  0  0  0  0  0
  1 16  1  0  0  0  0
  2 24  1  1  0  0  0
  2 27  1  0  0  0  0
  3  4  2  0  0  0  0
  3 11  1  0  0  0  0
  4 21  1  0  0  0  0
  5  6  1  0  0  0  0
  5 25  1  1  0  0  0
  6 18  2  0  0  0  0
  7 24  1  0  0  0  0
  7 19  1  1  0  0  0
  9 15  2  0  0  0  0
 10 17  1  0  0  0  0
 11 13  2  0  0  0  0
 12  8  1  6  0  0  0
 12  2  1  0  0  0  0
 13 22  1  0  0  0  0
 13 12  1  0  0  0  0
 14 23  1  1  0  0  0
 14 27  1  0  0  0  0
 16 19  1  0  0  0  0
 17  8  1  6  0  0  0
 17  7  1  0  0  0  0
 18 15  1  0  0  0  0
 20 29  1  0  0  0  0
 20 10  1  0  0  0  0
 21 22  2  0  0  0  0
 22 14  1  0  0  0  0
 23 28  1  0  0  0  0
 26  9  1  0  0  0  0
 27  5  1  0  0  0  0
 28  6  1  0  0  0  0
 28  9  1  0  0  0  0
 29  1  1  0  0  0  0
 30 29  1  0  0  0  0
 30 31  1  0  0  0  0
 32 30  2  0  0  0  0
M  END
>  <MODEL>
3

>  <REMARK>
 VINA RESULT:      -6.8      4.291      8.783
  Name = 
  1 active torsions:
  status: ('A' for Active; 'I' for Inactive)
    1  A    between atoms: CA_29  and  C_30
                            x       y       z     vdW  Elec       q    Type
                         _______ _______ _______ _____ _____    ______ ____

>  <TORSDO>
F 1

$$$$
=
 OpenBabel11122412483D

 32 37  0  0  1  0  0  0  0  0999 V2000
  160.3910  213.2490  151.4520 N   0  0  0  0  0  2  0  0  0  0  0  0
  161.3170  207.9930  150.2630 C   0  0  1  0  0  3  0  0  0  0  0  0
  160.8030  204.4640  153.7240 C   0  0  0  0  0  3  0  0  0  0  0  0
  160.4150  203.5650  152.7310 C   0  0  0  0  0  3  0  0  0  0  0  0
  161.5720  207.3370  147.7910 C   0  0  2  0  0  3  0  0  0  0  0  0
  161.6490  206.1310  146.8930 C   0  0  0  0  0  0  0  0  0  0  0  0
  161.2780  210.1990  150.7160 C   0  0  1  0  0  3  0  0  0  0  0  0
  161.1360  208.6150  152.6670 C   0  0  0  0  0  2  0  0  0  0  0  0
  161.4980  203.9800  146.2060 C   0  0  0  0  0  0  0  0  0  0  0  0
  160.9600  211.0390  153.0810 N   0  0  0  0  0  2  0  0  0  0  0  0
  161.1980  205.7570  153.3770 C   0  0  0  0  0  3  0  0  0  0  0  0
  161.6810  207.5630  151.6950 C   0  0  1  0  0  3  0  0  0  0  0  0
  161.2000  206.1720  152.0370 C   0  0  0  0  0  0  0  0  0  0  0  0
  160.8290  205.6530  149.5680 C   0  0  2  0  0  3  0  0  0  0  0  0
  162.4070  204.6260  145.4930 C   0  0  0  0  0  3  0  0  0  0  0  0
  160.4770  212.5020  150.1980 C   0  0  0  0  0  2  0  0  0  0  0  0
  161.5670  210.0150  152.2250 C   0  0  2  0  0  3  0  0  0  0  0  0
  162.5170  205.9690  145.9460 N   0  0  0  0  0  0  0  0  0  0  0  0
  161.6850  211.5760  150.2160 C   0  0  0  0  0  2  0  0  0  0  0  0
  159.5600  211.2540  152.7220 C   0  0  0  0  0  2  0  0  0  0  0  0
  160.4400  203.9540  151.3910 C   0  0  0  0  0  3  0  0  0  0  0  0
  160.8660  205.2410  151.0230 C   0  0  0  0  0  0  0  0  0  0  0  0
  161.1810  204.4910  148.6260 C   0  0  0  0  0  2  0  0  0  0  0  0
  161.9600  209.2130  149.9810 O   0  0  0  0  0  0  0  0  0  0  0  0
  162.6400  208.3580  147.4110 C   0  0  0  0  0  1  0  0  0  0  0  0
  161.1140  202.5600  145.9840 C   0  0  0  0  0  1  0  0  0  0  0  0
  161.7130  206.8920  149.2690 C   0  0  2  0  0  3  0  0  0  0  0  0
  160.8720  204.8990  147.1930 C   0  0  1  0  0  3  0  0  0  0  0  0
  159.3430  212.7170  152.3330 C   0  0  2  0  0  3  0  0  0  0  0  0
  157.9710  212.9550  151.7850 C   0  0  0  0  0  0  0  0  0  0  0  0
  157.7210  212.8310  150.4230 O   0  0  0  0  0  0  0  0  0  0  0  0
  157.0420  213.3000  152.5600 O   0  0  0  0  0  1  0  0  0  0  0  0
  1 29  1  0  0  0  0
  2 24  1  6  0  0  0
  2 12  1  0  0  0  0
  4  3  2  0  0  0  0
  5 25  1  6  0  0  0
  5 27  1  0  0  0  0
  6 28  1  0  0  0  0
  6  5  1  0  0  0  0
  7 19  1  6  0  0  0
  7 17  1  0  0  0  0
  9 28  1  0  0  0  0
 11  3  1  0  0  0  0
 12 13  1  0  0  0  0
 12  8  1  1  0  0  0
 13 11  2  0  0  0  0
 14 23  1  6  0  0  0
 14 22  1  0  0  0  0
 15 18  1  0  0  0  0
 15  9  2  0  0  0  0
 16 19  1  0  0  0  0
 16  1  1  0  0  0  0
 17  8  1  1  0  0  0
 17 10  1  0  0  0  0
 18  6  2  0  0  0  0
 20 10  1  0  0  0  0
 21  4  1  0  0  0  0
 22 21  2  0  0  0  0
 22 13  1  0  0  0  0
 24  7  1  0  0  0  0
 26  9  1  0  0  0  0
 27 14  1  0  0  0  0
 27  2  1  0  0  0  0
 28 23  1  0  0  0  0
 29 20  1  0  0  0  0
 30 29  1  0  0  0  0
 30 32  1  0  0  0  0
 31 30  2  0  0  0  0
M  END
>  <MODEL>
4

>  <REMARK>
 VINA RESULT:      -6.2      1.831      2.728
  Name = 
  1 active torsions:
  status: ('A' for Active; 'I' for Inactive)
    1  A    between atoms: CA_29  and  C_30
                            x       y       z     vdW  Elec       q    Type
                         _______ _______ _______ _____ _____    ______ ____

>  <TORSDO>
F 1

$$$$
