=
 OpenBabel11122413143D

 31 36  0  0  1  0  0  0  0  0999 V2000
  161.8310  207.0710  152.3990 C   0  0  0  0  0  0  0  0  0  0  0  0
  159.7080  209.8820  153.8210 C   0  0  2  0  0  3  0  0  0  0  0  0
  160.3460  210.2510  155.1870 C   0  0  1  0  0  3  0  0  0  0  0  0
  162.3390  210.5170  156.6490 C   0  0  1  0  0  3  0  0  0  0  0  0
  160.6070  209.1070  152.8920 C   0  0  0  0  0  0  0  0  0  0  0  0
  162.3740  207.6700  151.2610 C   0  0  0  0  0  3  0  0  0  0  0  0
  161.8770  210.2890  155.2090 C   0  0  0  0  0  2  0  0  0  0  0  0
  160.1040  211.9220  152.4080 C   0  0  2  0  0  3  0  0  0  0  0  0
  162.1600  205.7970  152.7170 F   0  0  0  0  0  0  0  0  0  0  0  0
  158.4900  211.5420  155.5100 O   0  0  0  0  0  0  0  0  0  0  0  0
  163.7220  210.6820  156.6750 O   0  0  0  0  0  1  0  0  0  0  0  0
  160.7420  211.0840  151.2970 C   0  0  0  0  0  2  0  0  0  0  0  0
  159.0350  211.0910  153.1400 C   0  0  2  0  0  3  0  0  0  0  0  0
  160.9510  207.7890  153.2130 C   0  0  0  0  0  3  0  0  0  0  0  0
  161.6630  211.7470  157.2600 C   0  0  0  0  0  2  0  0  0  0  0  0
  161.1620  209.7140  151.7450 C   0  0  0  0  0  0  0  0  0  0  0  0
  162.0350  208.9840  150.9320 C   0  0  0  0  0  3  0  0  0  0  0  0
  158.2500  211.9360  154.1750 C   0  0  0  0  0  2  0  0  0  0  0  0
  159.8410  211.5470  155.6560 N   0  0  1  0  0  0  0  0  0  0  0  0
  160.1460  211.6610  157.0780 C   0  0  0  0  0  2  0  0  0  0  0  0
  158.2340  212.9120  151.3100 O   0  0  0  0  0  0  0  0  0  0  0  0
  159.2530  212.9750  150.3430 C   0  0  2  0  0  3  0  0  0  0  0  0
  159.5310  213.1890  151.7830 C   0  0  2  0  0  3  0  0  0  0  0  0
  158.5080  213.6140  146.7860 C   0  0  1  0  0  3  0  0  0  0  0  0
  157.7190  214.4530  149.0220 C   0  0  0  0  0  2  0  0  0  0  0  0
  161.4630  214.3470  148.9420 O   0  0  0  0  0  1  0  0  0  0  0  0
  158.2600  212.5840  145.7050 C   0  0  0  0  0  1  0  0  0  0  0  0
  157.4650  213.4530  147.8920 C   0  0  0  0  0  2  0  0  0  0  0  0
  160.1590  214.4520  148.4600 C   0  0  2  0  0  3  0  0  0  0  0  0
  159.1310  214.3020  149.5930 C   0  0  2  0  0  3  0  0  0  0  0  0
  159.9150  213.4360  147.3480 C   0  0  0  0  0  2  0  0  0  0  0  0
  1  9  1  0  0  0  0
  1 14  1  0  0  0  0
  2  5  1  6  0  0  0
  2  3  1  0  0  0  0
  3  7  1  6  0  0  0
  3 19  1  0  0  0  0
  4 11  1  6  0  0  0
  4 15  1  0  0  0  0
  5 14  2  0  0  0  0
  6  1  2  0  0  0  0
  7  4  1  0  0  0  0
  8 12  1  6  0  0  0
  8 13  1  0  0  0  0
 10 19  1  0  0  0  0
 12 16  1  0  0  0  0
 13  2  1  0  0  0  0
 13 18  1  1  0  0  0
 16  5  1  0  0  0  0
 17  6  1  0  0  0  0
 17 16  2  0  0  0  0
 18 10  1  0  0  0  0
 19 20  1  1  0  0  0
 20 15  1  0  0  0  0
 22 21  1  1  0  0  0
 22 23  1  0  0  0  0
 23 21  1  1  0  0  0
 23  8  1  0  0  0  0
 24 27  1  6  0  0  0
 24 31  1  0  0  0  0
 24 28  1  0  0  0  0
 28 25  1  0  0  0  0
 29 26  1  1  0  0  0
 29 30  1  0  0  0  0
 30 25  1  6  0  0  0
 30 22  1  0  0  0  0
 31 29  1  0  0  0  0
M  END
>  <MODEL>
1

>  <REMARK>
 VINA RESULT:      -6.5      0.000      0.000
  Name = 
  2 active torsions:
  status: ('A' for Active; 'I' for Inactive)
    1  A    between atoms: C_5  and  C_30
    2  A    between atoms: C_10  and  C_16
                            x       y       z     vdW  Elec       q    Type
                         _______ _______ _______ _____ _____    ______ ____

>  <TORSDO>
F 2

$$$$
=
 OpenBabel11122413143D

 31 36  0  0  1  0  0  0  0  0999 V2000
  160.7670  207.2640  156.1580 C   0  0  0  0  0  0  0  0  0  0  0  0
  161.8380  209.3610  153.1770 C   0  0  2  0  0  3  0  0  0  0  0  0
  161.8560  208.3980  151.9600 C   0  0  1  0  0  3  0  0  0  0  0  0
  160.9390  206.4440  150.7270 C   0  0  1  0  0  3  0  0  0  0  0  0
  161.0450  208.8710  154.3610 C   0  0  0  0  0  0  0  0  0  0  0  0
  159.5420  207.8450  156.4920 C   0  0  0  0  0  3  0  0  0  0  0  0
  160.6900  207.4070  151.8890 C   0  0  0  0  0  2  0  0  0  0  0  0
  159.9630  210.9490  152.6520 C   0  0  2  0  0  3  0  0  0  0  0  0
  161.2280  206.2030  156.8610 F   0  0  0  0  0  0  0  0  0  0  0  0
  162.8560  210.1150  150.8350 O   0  0  0  0  0  0  0  0  0  0  0  0
  159.8310  205.6140  150.5630 O   0  0  0  0  0  1  0  0  0  0  0  0
  159.3060  210.6940  154.0120 C   0  0  0  0  0  2  0  0  0  0  0  0
  161.4900  210.8090  152.7760 C   0  0  2  0  0  3  0  0  0  0  0  0
  161.5160  207.7750  155.0940 C   0  0  0  0  0  3  0  0  0  0  0  0
  161.2100  207.2030  149.4260 C   0  0  0  0  0  2  0  0  0  0  0  0
  159.8030  209.4520  154.6940 C   0  0  0  0  0  0  0  0  0  0  0  0
  159.0660  208.9390  155.7660 C   0  0  0  0  0  3  0  0  0  0  0  0
  162.2180  211.2050  151.4670 C   0  0  0  0  0  2  0  0  0  0  0  0
  161.9000  209.1570  150.7050 N   0  0  1  0  0  0  0  0  0  0  0  0
  162.3090  208.2450  149.6420 C   0  0  0  0  0  2  0  0  0  0  0  0
  158.1640  212.3050  151.8740 O   0  0  0  0  0  0  0  0  0  0  0  0
  159.0410  212.2630  150.7760 C   0  0  2  0  0  3  0  0  0  0  0  0
  159.5400  212.3320  152.1690 C   0  0  2  0  0  3  0  0  0  0  0  0
  157.8070  213.2800  147.4500 C   0  0  1  0  0  3  0  0  0  0  0  0
  157.6180  214.0940  149.8220 C   0  0  0  0  0  2  0  0  0  0  0  0
  161.1890  213.2870  149.0260 O   0  0  0  0  0  1  0  0  0  0  0  0
  157.1690  212.3940  146.4020 C   0  0  0  0  0  1  0  0  0  0  0  0
  156.9710  213.2410  148.7280 C   0  0  0  0  0  2  0  0  0  0  0  0
  159.8670  213.6710  148.8050 C   0  0  2  0  0  3  0  0  0  0  0  0
  159.0520  213.6380  150.1080 C   0  0  2  0  0  3  0  0  0  0  0  0
  159.2290  212.8000  147.7260 C   0  0  0  0  0  2  0  0  0  0  0  0
  1  6  1  0  0  0  0
  1  9  1  0  0  0  0
  2  5  1  1  0  0  0
  3  7  1  6  0  0  0
  3  2  1  0  0  0  0
  4 11  1  6  0  0  0
  4  7  1  0  0  0  0
  5 16  2  0  0  0  0
  5 14  1  0  0  0  0
  8 13  1  0  0  0  0
  8 12  1  1  0  0  0
 10 18  1  0  0  0  0
 12 16  1  0  0  0  0
 13 18  1  6  0  0  0
 13  2  1  0  0  0  0
 14  1  2  0  0  0  0
 15 20  1  0  0  0  0
 15  4  1  0  0  0  0
 16 17  1  0  0  0  0
 17  6  2  0  0  0  0
 19 20  1  6  0  0  0
 19 10  1  0  0  0  0
 19  3  1  0  0  0  0
 22 21  1  1  0  0  0
 22 23  1  0  0  0  0
 23 21  1  1  0  0  0
 23  8  1  0  0  0  0
 24 27  1  6  0  0  0
 24 31  1  0  0  0  0
 24 28  1  0  0  0  0
 28 25  1  0  0  0  0
 29 26  1  1  0  0  0
 29 30  1  0  0  0  0
 30 25  1  6  0  0  0
 30 22  1  0  0  0  0
 31 29  1  0  0  0  0
M  END
>  <MODEL>
2

>  <REMARK>
 VINA RESULT:      -4.3      2.489      4.304
  Name = 
  2 active torsions:
  status: ('A' for Active; 'I' for Inactive)
    1  A    between atoms: C_5  and  C_30
    2  A    between atoms: C_10  and  C_16
                            x       y       z     vdW  Elec       q    Type
                         _______ _______ _______ _____ _____    ______ ____

>  <TORSDO>
F 2

$$$$
