=
 OpenBabel11122413153D

 31 35  0  0  1  0  0  0  0  0999 V2000
  162.0960  206.9530  147.4450 C   0  0  0  0  0  0  0  0  0  0  0  0
  160.7370  205.3370  150.6520 C   0  0  2  0  0  3  0  0  0  0  0  0
  160.9300  203.8560  150.3830 C   0  0  0  0  0  0  0  0  0  0  0  0
  161.2720  209.8830  153.4770 O   0  0  0  0  0  0  0  0  0  0  0  0
  161.0600  208.9250  154.2660 C   0  0  0  0  0  0  0  0  0  0  0  0
  160.8310  201.9390  148.8860 C   0  0  0  0  0  0  0  0  0  0  0  0
  161.3870  206.3170  149.6850 C   0  0  0  0  0  0  0  0  0  0  0  0
  162.3520  208.2530  147.8860 C   0  0  0  0  0  3  0  0  0  0  0  0
  160.7450  203.3180  149.1010 C   0  0  0  0  0  3  0  0  0  0  0  0
  161.1290  207.1580  152.4200 C   0  0  0  0  0  0  0  0  0  0  0  0
  162.3110  206.6240  146.1490 F   0  0  0  0  0  0  0  0  0  0  0  0
  161.2200  203.4780  152.7610 O   0  0  0  0  0  0  0  0  0  0  0  0
  160.6290  201.2920  147.2730 Cl  0  0  0  0  0  0  0  0  0  0  0  0
  161.4150  208.0180  151.4860 N   0  0  0  0  0  0  0  0  0  0  0  0
  161.0280  205.7280  152.0880 C   0  0  0  0  0  0  0  0  0  0  0  0
  160.9760  207.5780  153.7820 N   0  0  0  0  0  2  0  0  0  0  0  0
  161.6020  205.9980  148.3360 C   0  0  0  0  0  3  0  0  0  0  0  0
  161.0670  201.0790  149.9610 C   0  0  0  0  0  3  0  0  0  0  0  0
  161.6360  207.6410  150.1190 C   0  0  0  0  0  0  0  0  0  0  0  0
  162.1190  208.5950  149.2190 C   0  0  0  0  0  3  0  0  0  0  0  0
  161.2060  204.8360  153.0170 N   0  0  0  0  0  0  0  0  0  0  0  0
  161.1230  202.9770  151.4640 C   0  0  0  0  0  0  0  0  0  0  0  0
  161.2060  201.5980  151.2490 C   0  0  0  0  0  3  0  0  0  0  0  0
  159.3730  211.6910  156.2300 C   0  0  1  0  0  3  0  0  0  0  0  0
  159.4270  209.1810  156.1600 C   0  0  0  0  0  2  0  0  0  0  0  0
  162.8990  210.5700  155.7370 O   0  0  0  0  0  1  0  0  0  0  0  0
  158.6230  212.9160  155.7520 C   0  0  0  0  0  1  0  0  0  0  0  0
  158.6810  210.4360  155.7040 C   0  0  0  0  0  2  0  0  0  0  0  0
  161.5800  210.5130  156.1890 C   0  0  2  0  0  3  0  0  0  0  0  0
  160.8980  209.2120  155.7310 C   0  0  2  0  0  3  0  0  0  0  0  0
  160.8120  211.7510  155.7300 C   0  0  0  0  0  2  0  0  0  0  0  0
  1  8  2  0  0  0  0
  1 17  1  0  0  0  0
  2  7  1  6  0  0  0
  2 15  1  0  0  0  0
  3  2  1  0  0  0  0
  3 22  1  0  0  0  0
  4  5  2  0  0  0  0
  6  9  1  0  0  0  0
  6 18  2  0  0  0  0
  7 19  1  0  0  0  0
  8 20  1  0  0  0  0
  9  3  2  0  0  0  0
 10 16  1  0  0  0  0
 11  1  1  0  0  0  0
 12 21  1  0  0  0  0
 13  6  1  0  0  0  0
 14 10  2  0  0  0  0
 15 10  1  0  0  0  0
 15 21  2  0  0  0  0
 16  5  1  0  0  0  0
 17  7  2  0  0  0  0
 18 23  1  0  0  0  0
 19 14  1  0  0  0  0
 20 19  2  0  0  0  0
 22 12  1  0  0  0  0
 23 22  2  0  0  0  0
 24 27  1  6  0  0  0
 28 25  1  0  0  0  0
 28 24  1  0  0  0  0
 29 26  1  6  0  0  0
 30  5  1  6  0  0  0
 30 25  1  0  0  0  0
 30 29  1  0  0  0  0
 31 29  1  0  0  0  0
 31 24  1  0  0  0  0
M  END
>  <MODEL>
1

>  <REMARK>
 VINA RESULT:     -10.8      0.000      0.000
  Name = 
  1 active torsions:
  status: ('A' for Active; 'I' for Inactive)
    1  A    between atoms: C_5  and  C_30
                            x       y       z     vdW  Elec       q    Type
                         _______ _______ _______ _____ _____    ______ ____

>  <TORSDO>
F 1

$$$$
=
 OpenBabel11122413153D

 31 35  0  0  1  0  0  0  0  0999 V2000
  162.0670  206.7650  147.1460 C   0  0  0  0  0  0  0  0  0  0  0  0
  160.7600  205.7570  150.6140 C   0  0  2  0  0  3  0  0  0  0  0  0
  160.9360  204.2500  150.6080 C   0  0  0  0  0  0  0  0  0  0  0  0
  161.3870  210.7260  152.5780 O   0  0  0  0  0  0  0  0  0  0  0  0
  161.1830  209.9250  153.5280 C   0  0  0  0  0  0  0  0  0  0  0  0
  160.7920  202.1000  149.4770 C   0  0  0  0  0  0  0  0  0  0  0  0
  161.3980  206.5430  149.4770 C   0  0  0  0  0  0  0  0  0  0  0  0
  162.3410  208.1190  147.3450 C   0  0  0  0  0  3  0  0  0  0  0  0
  160.7210  203.4950  149.4450 C   0  0  0  0  0  3  0  0  0  0  0  0
  161.2010  207.8590  152.0230 C   0  0  0  0  0  0  0  0  0  0  0  0
  162.2530  206.2090  145.9260 F   0  0  0  0  0  0  0  0  0  0  0  0
  161.2710  204.2960  153.0090 O   0  0  0  0  0  0  0  0  0  0  0  0
  160.5520  201.1790  148.0080 Cl  0  0  0  0  0  0  0  0  0  0  0  0
  161.4760  208.5360  150.9460 N   0  0  0  0  0  0  0  0  0  0  0  0
  161.0830  206.3930  151.9510 C   0  0  0  0  0  0  0  0  0  0  0  0
  161.0800  208.5140  153.2910 N   0  0  0  0  0  2  0  0  0  0  0  0
  161.5830  205.9880  148.2010 C   0  0  0  0  0  3  0  0  0  0  0  0
  161.0420  201.4410  150.6830 C   0  0  0  0  0  3  0  0  0  0  0  0
  161.6650  207.9200  149.6640 C   0  0  0  0  0  0  0  0  0  0  0  0
  162.1380  208.6940  148.6000 C   0  0  0  0  0  3  0  0  0  0  0  0
  161.2730  205.6780  153.0210 N   0  0  0  0  0  0  0  0  0  0  0  0
  161.1440  203.5740  151.8240 C   0  0  0  0  0  0  0  0  0  0  0  0
  161.2120  202.1780  151.8550 C   0  0  0  0  0  3  0  0  0  0  0  0
  160.3950  208.3710  156.8920 C   0  0  1  0  0  3  0  0  0  0  0  0
  162.1120  209.8870  155.8630 C   0  0  0  0  0  2  0  0  0  0  0  0
  158.6730  210.7890  154.6280 O   0  0  0  0  0  1  0  0  0  0  0  0
  160.0890  206.9350  157.2610 C   0  0  0  0  0  1  0  0  0  0  0  0
  161.7830  208.4470  156.2600 C   0  0  0  0  0  2  0  0  0  0  0  0
  159.6430  210.3210  155.5170 C   0  0  2  0  0  3  0  0  0  0  0  0
  161.0530  210.4690  154.9210 C   0  0  2  0  0  3  0  0  0  0  0  0
  159.3390  208.8780  155.9150 C   0  0  0  0  0  2  0  0  0  0  0  0
  1  8  2  0  0  0  0
  1 17  1  0  0  0  0
  2  7  1  6  0  0  0
  2 15  1  0  0  0  0
  3  2  1  0  0  0  0
  3 22  1  0  0  0  0
  4  5  2  0  0  0  0
  6 18  2  0  0  0  0
  7 19  1  0  0  0  0
  8 20  1  0  0  0  0
  9  6  1  0  0  0  0
  9  3  2  0  0  0  0
 10 16  1  0  0  0  0
 11  1  1  0  0  0  0
 12 21  1  0  0  0  0
 13  6  1  0  0  0  0
 14 10  2  0  0  0  0
 15 10  1  0  0  0  0
 15 21  2  0  0  0  0
 16  5  1  0  0  0  0
 17  7  2  0  0  0  0
 18 23  1  0  0  0  0
 19 14  1  0  0  0  0
 20 19  2  0  0  0  0
 22 23  2  0  0  0  0
 22 12  1  0  0  0  0
 24 27  1  6  0  0  0
 25 28  1  0  0  0  0
 28 24  1  0  0  0  0
 29 26  1  6  0  0  0
 29 31  1  0  0  0  0
 30  5  1  6  0  0  0
 30 29  1  0  0  0  0
 30 25  1  0  0  0  0
 31 24  1  0  0  0  0
M  END
>  <MODEL>
2

>  <REMARK>
 VINA RESULT:     -10.2      1.140      1.989
  Name = 
  1 active torsions:
  status: ('A' for Active; 'I' for Inactive)
    1  A    between atoms: C_5  and  C_30
                            x       y       z     vdW  Elec       q    Type
                         _______ _______ _______ _____ _____    ______ ____

>  <TORSDO>
F 1

$$$$
=
 OpenBabel11122413153D

 31 35  0  0  1  0  0  0  0  0999 V2000
  160.9760  204.4710  152.0730 C   0  0  0  0  0  0  0  0  0  0  0  0
  161.8450  205.5970  148.5060 C   0  0  2  0  0  3  0  0  0  0  0  0
  161.4170  204.4050  147.6690 C   0  0  0  0  0  0  0  0  0  0  0  0
  161.9320  210.7940  149.8910 O   0  0  0  0  0  0  0  0  0  0  0  0
  161.9300  210.6970  148.6360 C   0  0  0  0  0  0  0  0  0  0  0  0
  161.2740  202.0010  147.3160 C   0  0  0  0  0  0  0  0  0  0  0  0
  161.4310  205.6120  149.9710 C   0  0  0  0  0  0  0  0  0  0  0  0
  160.9210  205.6970  152.7370 C   0  0  0  0  0  3  0  0  0  0  0  0
  161.5820  203.0910  148.1340 C   0  0  0  0  0  3  0  0  0  0  0  0
  161.6680  208.1540  148.6550 C   0  0  0  0  0  0  0  0  0  0  0  0
  160.7850  203.3200  152.7610 F   0  0  0  0  0  0  0  0  0  0  0  0
  160.9260  205.8970  145.8230 O   0  0  0  0  0  0  0  0  0  0  0  0
  161.4580  200.3710  147.9260 Cl  0  0  0  0  0  0  0  0  0  0  0  0
  161.5890  208.0840  149.9530 N   0  0  0  0  0  0  0  0  0  0  0  0
  161.5410  206.9290  147.8500 C   0  0  0  0  0  0  0  0  0  0  0  0
  161.8090  209.4190  147.9970 N   0  0  0  0  0  2  0  0  0  0  0  0
  161.2450  204.4290  150.7030 C   0  0  0  0  0  3  0  0  0  0  0  0
  160.8310  202.2130  146.0080 C   0  0  0  0  0  3  0  0  0  0  0  0
  161.3890  206.8490  150.6560 C   0  0  0  0  0  0  0  0  0  0  0  0
  161.1300  206.8830  152.0290 C   0  0  0  0  0  3  0  0  0  0  0  0
  161.1580  207.0090  146.6100 N   0  0  0  0  0  0  0  0  0  0  0  0
  161.0120  204.6050  146.3380 C   0  0  0  0  0  0  0  0  0  0  0  0
  160.7070  203.5140  145.5190 C   0  0  0  0  0  3  0  0  0  0  0  0
  160.0380  213.9780  148.5410 C   0  0  1  0  0  3  0  0  0  0  0  0
  162.4100  213.1650  148.6690 C   0  0  0  0  0  2  0  0  0  0  0  0
  160.4560  211.0990  146.2020 O   0  0  0  0  0  1  0  0  0  0  0  0
  158.8570  214.4530  149.3620 C   0  0  0  0  0  1  0  0  0  0  0  0
  161.2070  213.6620  149.4710 C   0  0  0  0  0  2  0  0  0  0  0  0
  160.8230  212.2320  146.9310 C   0  0  2  0  0  3  0  0  0  0  0  0
  162.0510  211.9460  147.8110 C   0  0  2  0  0  3  0  0  0  0  0  0
  159.6380  212.7360  147.7520 C   0  0  0  0  0  2  0  0  0  0  0  0
  1  8  1  0  0  0  0
  1 11  1  0  0  0  0
  2  3  1  6  0  0  0
  2  7  1  0  0  0  0
  3  9  1  0  0  0  0
  5  4  2  0  0  0  0
  6 13  1  0  0  0  0
  6  9  2  0  0  0  0
  7 19  2  0  0  0  0
  7 17  1  0  0  0  0
 10 14  2  0  0  0  0
 12 22  1  0  0  0  0
 12 21  1  0  0  0  0
 14 19  1  0  0  0  0
 15  2  1  0  0  0  0
 15 10  1  0  0  0  0
 16  5  1  0  0  0  0
 16 10  1  0  0  0  0
 17  1  2  0  0  0  0
 18  6  1  0  0  0  0
 19 20  1  0  0  0  0
 20  8  2  0  0  0  0
 21 15  2  0  0  0  0
 22  3  2  0  0  0  0
 23 18  2  0  0  0  0
 23 22  1  0  0  0  0
 24 27  1  1  0  0  0
 24 28  1  0  0  0  0
 25 28  1  0  0  0  0
 29 26  1  1  0  0  0
 29 31  1  0  0  0  0
 29 30  1  0  0  0  0
 30  5  1  1  0  0  0
 30 25  1  0  0  0  0
 31 24  1  0  0  0  0
M  END
>  <MODEL>
3

>  <REMARK>
 VINA RESULT:      -9.3      3.894      5.779
  Name = 
  1 active torsions:
  status: ('A' for Active; 'I' for Inactive)
    1  A    between atoms: C_5  and  C_30
                            x       y       z     vdW  Elec       q    Type
                         _______ _______ _______ _____ _____    ______ ____

>  <TORSDO>
F 1

$$$$
=
 OpenBabel11122413153D

 31 35  0  0  1  0  0  0  0  0999 V2000
  160.7800  202.2250  150.9470 C   0  0  0  0  0  0  0  0  0  0  0  0
  161.7220  205.6680  149.5300 C   0  0  2  0  0  3  0  0  0  0  0  0
  161.3740  205.5260  148.0590 C   0  0  0  0  0  0  0  0  0  0  0  0
  161.5360  207.9980  154.3750 O   0  0  0  0  0  0  0  0  0  0  0  0
  161.5810  208.8890  153.4860 C   0  0  0  0  0  0  0  0  0  0  0  0
  161.3480  204.2300  145.9990 C   0  0  0  0  0  0  0  0  0  0  0  0
  161.2580  204.5640  150.4710 C   0  0  0  0  0  0  0  0  0  0  0  0
  160.6500  202.5190  152.3050 C   0  0  0  0  0  3  0  0  0  0  0  0
  161.5810  204.3190  147.3750 C   0  0  0  0  0  3  0  0  0  0  0  0
  161.4290  207.2190  151.5560 C   0  0  0  0  0  0  0  0  0  0  0  0
  160.6160  200.9540  150.5110 F   0  0  0  0  0  0  0  0  0  0  0  0
  160.8840  207.8990  147.9640 O   0  0  0  0  0  0  0  0  0  0  0  0
  161.5810  202.7070  145.1710 Cl  0  0  0  0  0  0  0  0  0  0  0  0
  161.3090  206.1870  152.3410 N   0  0  0  0  0  0  0  0  0  0  0  0
  161.3830  207.0320  150.0960 C   0  0  0  0  0  0  0  0  0  0  0  0
  161.5380  208.5420  152.0950 N   0  0  0  0  0  2  0  0  0  0  0  0
  161.0980  203.2390  150.0400 C   0  0  0  0  0  3  0  0  0  0  0  0
  160.9420  205.3600  145.2860 C   0  0  0  0  0  3  0  0  0  0  0  0
  161.1380  204.8500  151.8520 C   0  0  0  0  0  0  0  0  0  0  0  0
  160.8310  203.8280  152.7550 C   0  0  0  0  0  3  0  0  0  0  0  0
  161.0400  208.0250  149.3310 N   0  0  0  0  0  0  0  0  0  0  0  0
  161.0080  206.6670  147.3230 C   0  0  0  0  0  0  0  0  0  0  0  0
  160.7780  206.5780  145.9470 C   0  0  0  0  0  3  0  0  0  0  0  0
  159.1640  211.3260  155.0870 C   0  0  1  0  0  3  0  0  0  0  0  0
  161.5100  210.4960  155.4170 C   0  0  0  0  0  2  0  0  0  0  0  0
  160.8310  211.0590  151.7580 O   0  0  0  0  0  1  0  0  0  0  0  0
  157.7240  211.1400  155.5170 C   0  0  0  0  0  1  0  0  0  0  0  0
  160.0500  210.3400  155.8430 C   0  0  0  0  0  2  0  0  0  0  0  0
  160.7270  211.2620  153.1350 C   0  0  2  0  0  3  0  0  0  0  0  0
  161.6770  210.3280  153.9030 C   0  0  2  0  0  3  0  0  0  0  0  0
  159.2770  211.0960  153.5840 C   0  0  0  0  0  2  0  0  0  0  0  0
  1  8  1  0  0  0  0
  2  3  1  6  0  0  0
  2 15  1  0  0  0  0
  2  7  1  0  0  0  0
  5  4  2  0  0  0  0
  6  9  2  0  0  0  0
  7 19  2  0  0  0  0
  8 20  2  0  0  0  0
  9  3  1  0  0  0  0
 10 16  1  0  0  0  0
 10 14  2  0  0  0  0
 11  1  1  0  0  0  0
 12 21  1  0  0  0  0
 13  6  1  0  0  0  0
 15 10  1  0  0  0  0
 16  5  1  0  0  0  0
 17  7  1  0  0  0  0
 17  1  2  0  0  0  0
 18 23  2  0  0  0  0
 18  6  1  0  0  0  0
 19 14  1  0  0  0  0
 19 20  1  0  0  0  0
 21 15  2  0  0  0  0
 22 12  1  0  0  0  0
 22  3  2  0  0  0  0
 23 22  1  0  0  0  0
 24 27  1  1  0  0  0
 24 28  1  0  0  0  0
 25 28  1  0  0  0  0
 29 26  1  6  0  0  0
 29 31  1  0  0  0  0
 29 30  1  0  0  0  0
 30  5  1  1  0  0  0
 30 25  1  0  0  0  0
 31 24  1  0  0  0  0
M  END
>  <MODEL>
4

>  <REMARK>
 VINA RESULT:      -9.0      2.329      4.068
  Name = 
  1 active torsions:
  status: ('A' for Active; 'I' for Inactive)
    1  A    between atoms: C_5  and  C_30
                            x       y       z     vdW  Elec       q    Type
                         _______ _______ _______ _____ _____    ______ ____

>  <TORSDO>
F 1

$$$$
=
 OpenBabel11122413153D

 31 35  0  0  1  0  0  0  0  0999 V2000
  162.2000  207.0250  147.4270 C   0  0  0  0  0  0  0  0  0  0  0  0
  160.6960  206.1920  150.8610 C   0  0  2  0  0  3  0  0  0  0  0  0
  160.9500  204.7000  150.9800 C   0  0  0  0  0  0  0  0  0  0  0  0
  160.9230  211.3140  152.4900 O   0  0  0  0  0  0  0  0  0  0  0  0
  160.6910  210.5720  153.4800 C   0  0  0  0  0  0  0  0  0  0  0  0
  160.9980  202.4710  150.0040 C   0  0  0  0  0  0  0  0  0  0  0  0
  161.3750  206.9310  149.7160 C   0  0  0  0  0  0  0  0  0  0  0  0
  162.3900  208.4030  147.5430 C   0  0  0  0  0  3  0  0  0  0  0  0
  160.8590  203.8550  149.8640 C   0  0  0  0  0  3  0  0  0  0  0  0
  160.9250  208.4090  152.1380 C   0  0  0  0  0  0  0  0  0  0  0  0
  162.5030  206.3960  146.2670 F   0  0  0  0  0  0  0  0  0  0  0  0
  161.1050  204.9340  153.3880 O   0  0  0  0  0  0  0  0  0  0  0  0
  160.9140  201.4380  148.5940 Cl  0  0  0  0  0  0  0  0  0  0  0  0
  161.2430  209.0230  151.0350 N   0  0  0  0  0  0  0  0  0  0  0  0
  160.8880  206.9370  152.1670 C   0  0  0  0  0  0  0  0  0  0  0  0
  160.6780  209.1440  153.3420 N   0  0  0  0  0  2  0  0  0  0  0  0
  161.6810  206.2980  148.5010 C   0  0  0  0  0  3  0  0  0  0  0  0
  161.1940  201.9140  151.2700 C   0  0  0  0  0  3  0  0  0  0  0  0
  161.5570  208.3300  149.8180 C   0  0  0  0  0  0  0  0  0  0  0  0
  162.0660  209.0530  148.7360 C   0  0  0  0  0  3  0  0  0  0  0  0
  161.0350  206.3110  153.2970 N   0  0  0  0  0  0  0  0  0  0  0  0
  161.1020  204.1250  152.2530 C   0  0  0  0  0  0  0  0  0  0  0  0
  161.2390  202.7400  152.3930 C   0  0  0  0  0  3  0  0  0  0  0  0
  157.6020  210.9950  155.6310 C   0  0  1  0  0  3  0  0  0  0  0  0
  159.9650  210.1770  155.8540 C   0  0  0  0  0  2  0  0  0  0  0  0
  159.8630  213.3080  153.7680 O   0  0  0  0  0  1  0  0  0  0  0  0
  156.1710  210.5640  155.3880 C   0  0  0  0  0  1  0  0  0  0  0  0
  158.5090  209.7680  155.6250 C   0  0  0  0  0  2  0  0  0  0  0  0
  159.4750  212.4070  154.7600 C   0  0  2  0  0  3  0  0  0  0  0  0
  160.4320  211.2040  154.8170 C   0  0  2  0  0  3  0  0  0  0  0  0
  158.0270  211.9740  154.5410 C   0  0  0  0  0  2  0  0  0  0  0  0
  1  8  2  0  0  0  0
  1 17  1  0  0  0  0
  2  7  1  6  0  0  0
  2  3  1  0  0  0  0
  2 15  1  0  0  0  0
  3 22  1  0  0  0  0
  4  5  2  0  0  0  0
  6 18  2  0  0  0  0
  7 19  1  0  0  0  0
  8 20  1  0  0  0  0
  9  6  1  0  0  0  0
  9  3  2  0  0  0  0
 10 15  1  0  0  0  0
 10 16  1  0  0  0  0
 11  1  1  0  0  0  0
 13  6  1  0  0  0  0
 14 10  2  0  0  0  0
 15 21  2  0  0  0  0
 16  5  1  0  0  0  0
 17  7  2  0  0  0  0
 18 23  1  0  0  0  0
 19 14  1  0  0  0  0
 20 19  2  0  0  0  0
 21 12  1  0  0  0  0
 22 23  2  0  0  0  0
 22 12  1  0  0  0  0
 24 27  1  6  0  0  0
 28 24  1  0  0  0  0
 28 25  1  0  0  0  0
 29 26  1  6  0  0  0
 29 30  1  0  0  0  0
 30  5  1  6  0  0  0
 30 25  1  0  0  0  0
 31 29  1  0  0  0  0
 31 24  1  0  0  0  0
M  END
>  <MODEL>
5

>  <REMARK>
 VINA RESULT:      -8.2      1.345      1.759
  Name = 
  1 active torsions:
  status: ('A' for Active; 'I' for Inactive)
    1  A    between atoms: C_5  and  C_30
                            x       y       z     vdW  Elec       q    Type
                         _______ _______ _______ _____ _____    ______ ____

>  <TORSDO>
F 1

$$$$
