=
 OpenBabel11122414373D

 34 40  0  0  1  0  0  0  0  0999 V2000
  161.1310  207.0110  153.9910 C   0  0  0  0  0  0  0  0  0  0  0  0
  161.2110  204.6220  153.2900 C   0  0  0  0  0  2  0  0  0  0  0  0
  159.6260  213.2500  152.5180 C   0  0  1  0  0  3  0  0  0  0  0  0
  160.2100  209.2260  154.2470 C   0  0  0  0  0  0  0  0  0  0  0  0
  160.5330  210.8520  152.3420 C   0  0  2  0  0  3  0  0  0  0  0  0
  160.9290  212.4760  150.6420 O   0  0  0  0  0  1  0  0  0  0  0  0
  159.6470  214.4530  151.8080 O   0  0  0  0  0  1  0  0  0  0  0  0
  158.2060  211.9800  154.1720 C   0  0  0  0  0  2  0  0  0  0  0  0
  162.0470  206.2170  151.7030 C   0  0  2  0  0  3  0  0  0  0  0  0
  161.2580  205.4940  148.7160 C   0  0  0  0  0  2  0  0  0  0  0  0
  160.4160  209.6730  151.4870 N   0  0  0  0  0  2  0  0  0  0  0  0
  158.4720  210.7250  153.6120 O   0  0  0  0  0  0  0  0  0  0  0  0
  161.1970  207.3800  151.1330 C   0  0  1  0  0  3  0  0  0  0  0  0
  161.7080  203.9120  152.0560 C   0  0  0  0  0  2  0  0  0  0  0  0
  159.8610  210.5840  153.7050 C   0  0  1  0  0  3  0  0  0  0  0  0
  158.2260  213.0600  153.0960 C   0  0  0  0  0  2  0  0  0  0  0  0
  160.8160  204.8470  150.0230 C   0  0  2  0  0  3  0  0  0  0  0  0
  160.8310  208.2620  153.4340 C   0  0  0  0  0  0  0  0  0  0  0  0
  159.9850  212.0770  151.5930 C   0  0  2  0  0  3  0  0  0  0  0  0
  161.2650  208.6120  152.0330 C   0  0  2  0  0  3  0  0  0  0  0  0
  160.1840  207.7000  156.0520 C   0  0  0  0  0  3  0  0  0  0  0  0
  160.9120  206.9730  148.6920 C   0  0  0  0  0  2  0  0  0  0  0  0
  159.8910  208.9190  155.5300 N   0  0  0  0  0  0  0  0  0  0  0  0
  161.6960  207.7410  149.7400 C   0  0  0  0  0  2  0  0  0  0  0  0
  161.9210  204.9110  151.0030 N   0  0  1  0  0  0  0  0  0  0  0  0
  160.8040  206.7640  155.2880 N   0  0  0  0  0  0  0  0  0  0  0  0
  161.8750  205.9630  153.2070 C   0  0  1  0  0  3  0  0  0  0  0  0
  160.4590  203.5210  149.7480 O   0  0  0  0  0  0  0  0  0  0  0  0
  160.9380  203.2790  148.4570 C   0  0  0  0  0  2  0  0  0  0  0  0
  161.3330  200.3480  146.5930 C   0  0  0  0  0  2  0  0  0  0  0  0
  160.6710  200.8680  148.7290 N   0  0  0  0  0  2  0  0  0  0  0  0
  160.3090  202.0140  147.8990 C   0  0  2  0  0  3  0  0  0  0  0  0
  161.5840  200.0830  147.9980 N   0  0  0  0  0  2  0  0  0  0  0  0
  160.8350  201.7580  146.5140 C   0  0  0  0  0  2  0  0  0  0  0  0
  1 26  1  0  0  0  0
  3  7  1  6  0  0  0
  3 16  1  0  0  0  0
  4 23  2  0  0  0  0
  5 11  1  6  0  0  0
  5 15  1  0  0  0  0
  6 19  1  0  0  0  0
  9 27  1  0  0  0  0
 10 17  1  0  0  0  0
 11 20  1  0  0  0  0
 12 15  1  0  0  0  0
 12  8  1  0  0  0  0
 13  9  1  0  0  0  0
 13 20  1  0  0  0  0
 14  2  1  0  0  0  0
 15  4  1  0  0  0  0
 16  8  1  0  0  0  0
 17 25  1  0  0  0  0
 18  1  2  0  0  0  0
 18  4  1  0  0  0  0
 19  5  1  0  0  0  0
 19  3  1  0  0  0  0
 20 18  1  0  0  0  0
 22 10  1  0  0  0  0
 22 24  1  0  0  0  0
 23 21  1  0  0  0  0
 24 13  1  0  0  0  0
 25  9  1  0  0  0  0
 25 14  1  0  0  0  0
 26 21  2  0  0  0  0
 27  2  1  0  0  0  0
 27  1  1  0  0  0  0
 28 17  1  0  0  0  0
 29 28  1  0  0  0  0
 30 33  1  0  0  0  0
 32 29  1  0  0  0  0
 32 31  1  0  0  0  0
 33 31  1  0  0  0  0
 34 30  1  0  0  0  0
 34 32  1  0  0  0  0
M  END
>  <MODEL>
1

>  <REMARK>
 VINA RESULT:      -7.9      0.000      0.000
  Name = 
  3 active torsions:
  status: ('A' for Active; 'I' for Inactive)
    1  A    between atoms: C_17  and  O_28
    2  A    between atoms: O_28  and  C_29
    3  A    between atoms: C_29  and  C_32
                            x       y       z     vdW  Elec       q    Type
                         _______ _______ _______ _____ _____    ______ ____

>  <TORSDO>
F 3

$$$$
=
 OpenBabel11122414373D

 34 40  0  0  1  0  0  0  0  0999 V2000
  161.0980  206.8950  154.2440 C   0  0  0  0  0  0  0  0  0  0  0  0
  161.4010  204.6920  153.1220 C   0  0  0  0  0  2  0  0  0  0  0  0
  159.0480  213.1430  153.8950 C   0  0  1  0  0  3  0  0  0  0  0  0
  159.9780  208.9360  154.8750 C   0  0  0  0  0  0  0  0  0  0  0  0
  160.1700  210.9070  153.3080 C   0  0  2  0  0  3  0  0  0  0  0  0
  160.4330  212.8440  151.9430 O   0  0  0  0  0  1  0  0  0  0  0  0
  158.9670  214.4530  153.4170 O   0  0  0  0  0  1  0  0  0  0  0  0
  157.7340  211.4710  155.2530 C   0  0  0  0  0  2  0  0  0  0  0  0
  162.1030  206.6190  151.8740 C   0  0  2  0  0  3  0  0  0  0  0  0
  161.4110  206.3910  148.7850 C   0  0  0  0  0  2  0  0  0  0  0  0
  160.1680  209.8990  152.2500 N   0  0  0  0  0  2  0  0  0  0  0  0
  158.1180  210.3690  154.4800 O   0  0  0  0  0  0  0  0  0  0  0  0
  161.1570  207.7880  151.5040 C   0  0  1  0  0  3  0  0  0  0  0  0
  161.9710  204.2670  151.7920 C   0  0  0  0  0  2  0  0  0  0  0  0
  159.5130  210.3350  154.5810 C   0  0  1  0  0  3  0  0  0  0  0  0
  157.6660  212.7280  154.3920 C   0  0  0  0  0  2  0  0  0  0  0  0
  161.0170  205.4790  149.9410 C   0  0  2  0  0  3  0  0  0  0  0  0
  160.6910  208.1970  153.9160 C   0  0  0  0  0  0  0  0  0  0  0  0
  159.5210  212.1960  152.7810 C   0  0  2  0  0  3  0  0  0  0  0  0
  161.1050  208.8340  152.6150 C   0  0  2  0  0  3  0  0  0  0  0  0
  160.0730  207.1080  156.3710 C   0  0  0  0  0  3  0  0  0  0  0  0
  160.9320  207.8130  149.0230 C   0  0  0  0  0  2  0  0  0  0  0  0
  159.6760  208.3710  156.0730 N   0  0  0  0  0  0  0  0  0  0  0  0
  161.6340  208.4410  150.2140 C   0  0  0  0  0  2  0  0  0  0  0  0
  162.1030  205.4580  150.9440 N   0  0  1  0  0  0  0  0  0  0  0  0
  160.7830  206.3860  155.4660 N   0  0  0  0  0  0  0  0  0  0  0  0
  161.9410  206.0790  153.3010 C   0  0  1  0  0  3  0  0  0  0  0  0
  160.7840  204.1990  149.4200 O   0  0  0  0  0  0  0  0  0  0  0  0
  160.8750  204.3540  148.0330 C   0  0  0  0  0  2  0  0  0  0  0  0
  160.8280  201.1770  146.5740 C   0  0  0  0  0  2  0  0  0  0  0  0
  161.5960  203.2570  145.9750 N   0  0  0  0  0  2  0  0  0  0  0  0
  161.6610  203.2010  147.4340 C   0  0  2  0  0  3  0  0  0  0  0  0
  160.7710  202.2000  145.5450 N   0  0  0  0  0  2  0  0  0  0  0  0
  161.0550  201.8970  147.8680 C   0  0  0  0  0  2  0  0  0  0  0  0
  1 26  1  0  0  0  0
  2 27  1  0  0  0  0
  3  7  1  6  0  0  0
  3 16  1  0  0  0  0
  4 23  2  0  0  0  0
  5 11  1  6  0  0  0
  5 15  1  0  0  0  0
  6 19  1  0  0  0  0
  9 27  1  0  0  0  0
 10 22  1  0  0  0  0
 10 17  1  0  0  0  0
 11 20  1  0  0  0  0
 12 15  1  0  0  0  0
 12  8  1  0  0  0  0
 13  9  1  0  0  0  0
 13 20  1  0  0  0  0
 14  2  1  0  0  0  0
 15  4  1  0  0  0  0
 16  8  1  0  0  0  0
 17 25  1  0  0  0  0
 18  1  2  0  0  0  0
 18  4  1  0  0  0  0
 19  5  1  0  0  0  0
 19  3  1  0  0  0  0
 20 18  1  0  0  0  0
 22 24  1  0  0  0  0
 23 21  1  0  0  0  0
 24 13  1  0  0  0  0
 25 14  1  0  0  0  0
 25  9  1  0  0  0  0
 26 21  2  0  0  0  0
 27  1  1  0  0  0  0
 28 17  1  0  0  0  0
 29 28  1  0  0  0  0
 30 34  1  0  0  0  0
 31 32  1  0  0  0  0
 32 34  1  0  0  0  0
 32 29  1  0  0  0  0
 33 31  1  0  0  0  0
 33 30  1  0  0  0  0
M  END
>  <MODEL>
2

>  <REMARK>
 VINA RESULT:      -7.7      1.205      1.291
  Name = 
  3 active torsions:
  status: ('A' for Active; 'I' for Inactive)
    1  A    between atoms: C_17  and  O_28
    2  A    between atoms: O_28  and  C_29
    3  A    between atoms: C_29  and  C_32
                            x       y       z     vdW  Elec       q    Type
                         _______ _______ _______ _____ _____    ______ ____

>  <TORSDO>
F 3

$$$$
=
 OpenBabel11122414373D

 34 40  0  0  1  0  0  0  0  0999 V2000
  161.8820  209.5890  151.6300 C   0  0  0  0  0  0  0  0  0  0  0  0
  161.0760  211.3820  153.1610 C   0  0  0  0  0  2  0  0  0  0  0  0
  161.4960  203.3330  149.6090 C   0  0  1  0  0  3  0  0  0  0  0  0
  161.7240  207.7170  150.1170 C   0  0  0  0  0  0  0  0  0  0  0  0
  161.6290  205.4040  151.1260 C   0  0  2  0  0  3  0  0  0  0  0  0
  161.6800  203.1910  152.0100 O   0  0  0  0  0  1  0  0  0  0  0  0
  161.5200  201.9400  149.7040 O   0  0  0  0  0  1  0  0  0  0  0  0
  160.6130  205.1800  148.1340 C   0  0  0  0  0  2  0  0  0  0  0  0
  161.5530  209.2600  154.1770 C   0  0  2  0  0  3  0  0  0  0  0  0
  159.4580  208.4890  156.4330 C   0  0  0  0  0  2  0  0  0  0  0  0
  160.8840  206.0480  152.2060 N   0  0  0  0  0  2  0  0  0  0  0  0
  160.3080  206.0390  149.1960 O   0  0  0  0  0  0  0  0  0  0  0  0
  160.8600  207.9390  153.7610 C   0  0  1  0  0  3  0  0  0  0  0  0
  160.8310  211.4530  154.6470 C   0  0  0  0  0  2  0  0  0  0  0  0
  161.5310  206.2520  149.8410 C   0  0  1  0  0  3  0  0  0  0  0  0
  160.4560  203.7250  148.5630 C   0  0  0  0  0  2  0  0  0  0  0  0
  159.4460  209.6540  155.4500 C   0  0  2  0  0  3  0  0  0  0  0  0
  161.6990  208.2130  151.4320 C   0  0  0  0  0  0  0  0  0  0  0  0
  161.1430  203.9550  150.9700 C   0  0  2  0  0  3  0  0  0  0  0  0
  161.5920  207.2680  152.6010 C   0  0  2  0  0  3  0  0  0  0  0  0
  162.0640  209.9040  149.2880 C   0  0  0  0  0  3  0  0  0  0  0  0
  159.5090  207.1580  155.7030 C   0  0  0  0  0  2  0  0  0  0  0  0
  161.8940  208.5740  149.0780 N   0  0  0  0  0  0  0  0  0  0  0  0
  160.8160  206.9890  154.9510 C   0  0  0  0  0  2  0  0  0  0  0  0
  160.8330  210.0870  155.1820 N   0  0  1  0  0  0  0  0  0  0  0  0
  162.0660  210.3990  150.5530 N   0  0  0  0  0  0  0  0  0  0  0  0
  161.9560  210.1770  153.0140 C   0  0  1  0  0  3  0  0  0  0  0  0
  158.6920  210.6890  156.0180 O   0  0  0  0  0  0  0  0  0  0  0  0
  157.4930  210.6980  155.2980 C   0  0  0  0  0  2  0  0  0  0  0  0
  158.1250  214.1360  155.2520 C   0  0  0  0  0  2  0  0  0  0  0  0
  157.0500  212.6380  153.8840 N   0  0  0  0  0  2  0  0  0  0  0  0
  156.9340  212.1090  155.2410 C   0  0  2  0  0  3  0  0  0  0  0  0
  158.0560  213.6230  153.8960 N   0  0  0  0  0  2  0  0  0  0  0  0
  157.7290  213.0040  156.1490 C   0  0  0  0  0  2  0  0  0  0  0  0
  1 27  1  0  0  0  0
  2 14  1  0  0  0  0
  3  7  1  1  0  0  0
  3 19  1  0  0  0  0
  4 18  2  0  0  0  0
  5 11  1  1  0  0  0
  8 16  1  0  0  0  0
  8 12  1  0  0  0  0
  9 25  1  0  0  0  0
 11 20  1  0  0  0  0
 12 15  1  0  0  0  0
 13  9  1  0  0  0  0
 13 24  1  0  0  0  0
 14 25  1  0  0  0  0
 15  4  1  0  0  0  0
 15  5  1  0  0  0  0
 16  3  1  0  0  0  0
 17 28  1  0  0  0  0
 17 10  1  0  0  0  0
 18  1  1  0  0  0  0
 18 20  1  0  0  0  0
 19  5  1  0  0  0  0
 19  6  1  0  0  0  0
 20 13  1  0  0  0  0
 21 26  1  0  0  0  0
 22 10  1  0  0  0  0
 23 21  2  0  0  0  0
 23  4  1  0  0  0  0
 24 22  1  0  0  0  0
 25 17  1  0  0  0  0
 26  1  2  0  0  0  0
 27  2  1  0  0  0  0
 27  9  1  0  0  0  0
 29 28  1  0  0  0  0
 30 34  1  0  0  0  0
 31 33  1  0  0  0  0
 31 32  1  0  0  0  0
 32 29  1  0  0  0  0
 32 34  1  0  0  0  0
 33 30  1  0  0  0  0
M  END
>  <MODEL>
3

>  <REMARK>
 VINA RESULT:      -7.6      2.786      8.792
  Name = 
  3 active torsions:
  status: ('A' for Active; 'I' for Inactive)
    1  A    between atoms: C_17  and  O_28
    2  A    between atoms: O_28  and  C_29
    3  A    between atoms: C_29  and  C_32
                            x       y       z     vdW  Elec       q    Type
                         _______ _______ _______ _____ _____    ______ ____

>  <TORSDO>
F 3

$$$$
=
 OpenBabel11122414373D

 34 40  0  0  1  0  0  0  0  0999 V2000
  161.8700  209.1080  151.0180 C   0  0  0  0  0  0  0  0  0  0  0  0
  161.0650  211.1130  152.2590 C   0  0  0  0  0  2  0  0  0  0  0  0
  161.5050  202.6130  149.9940 C   0  0  1  0  0  3  0  0  0  0  0  0
  161.7130  207.0230  149.8150 C   0  0  0  0  0  0  0  0  0  0  0  0
  161.6370  204.8950  151.1700 C   0  0  2  0  0  3  0  0  0  0  0  0
  161.7070  202.8450  152.3860 O   0  0  0  0  0  1  0  0  0  0  0  0
  161.5380  201.2520  150.3030 O   0  0  0  0  0  1  0  0  0  0  0  0
  160.6020  204.2050  148.2560 C   0  0  0  0  0  2  0  0  0  0  0  0
  161.5610  209.1760  153.5880 C   0  0  2  0  0  3  0  0  0  0  0  0
  159.4860  208.7550  155.9520 C   0  0  0  0  0  2  0  0  0  0  0  0
  160.8960  205.6950  152.1430 N   0  0  0  0  0  2  0  0  0  0  0  0
  160.2990  205.2170  149.1750 O   0  0  0  0  0  0  0  0  0  0  0  0
  160.8720  207.8030  153.3870 C   0  0  1  0  0  3  0  0  0  0  0  0
  160.8300  211.4130  153.7180 C   0  0  0  0  0  2  0  0  0  0  0  0
  161.5250  205.5330  149.7700 C   0  0  1  0  0  3  0  0  0  0  0  0
  160.4560  202.8330  148.9080 C   0  0  0  0  0  2  0  0  0  0  0  0
  159.4610  209.7530  154.8000 C   0  0  2  0  0  3  0  0  0  0  0  0
  161.6940  207.7170  151.0370 C   0  0  0  0  0  0  0  0  0  0  0  0
  161.1580  203.4370  151.2440 C   0  0  2  0  0  3  0  0  0  0  0  0
  161.6010  206.9640  152.3390 C   0  0  2  0  0  3  0  0  0  0  0  0
  162.0350  209.0570  148.6540 C   0  0  0  0  0  3  0  0  0  0  0  0
  159.5390  207.3270  155.4370 C   0  0  0  0  0  2  0  0  0  0  0  0
  161.8700  207.7100  148.6530 N   0  0  0  0  0  0  0  0  0  0  0  0
  160.8420  207.0490  154.7090 C   0  0  0  0  0  2  0  0  0  0  0  0
  160.8440  210.1460  154.4580 N   0  0  1  0  0  0  0  0  0  0  0  0
  162.0420  209.7430  149.8270 N   0  0  0  0  0  0  0  0  0  0  0  0
  161.9510  209.9030  152.2940 C   0  0  1  0  0  3  0  0  0  0  0  0
  158.7050  210.8610  155.2070 O   0  0  0  0  0  0  0  0  0  0  0  0
  158.7760  210.8520  156.6030 C   0  0  0  0  0  2  0  0  0  0  0  0
  156.8830  213.7250  155.9880 C   0  0  0  0  0  2  0  0  0  0  0  0
  156.6360  211.8280  157.2570 N   0  0  0  0  0  2  0  0  0  0  0  0
  158.0730  212.0750  157.1660 C   0  0  2  0  0  3  0  0  0  0  0  0
  156.0070  212.6000  156.2620 N   0  0  0  0  0  2  0  0  0  0  0  0
  158.2780  213.2430  156.2430 C   0  0  0  0  0  2  0  0  0  0  0  0
  1 18  1  0  0  0  0
  1 27  1  0  0  0  0
  2 27  1  0  0  0  0
  2 14  1  0  0  0  0
  3  7  1  1  0  0  0
  3 19  1  0  0  0  0
  4 18  2  0  0  0  0
  5 19  1  0  0  0  0
  5 11  1  1  0  0  0
  8 16  1  0  0  0  0
  8 12  1  0  0  0  0
  9 25  1  0  0  0  0
 11 20  1  0  0  0  0
 12 15  1  0  0  0  0
 13  9  1  0  0  0  0
 13 24  1  0  0  0  0
 14 25  1  0  0  0  0
 15  4  1  0  0  0  0
 15  5  1  0  0  0  0
 16  3  1  0  0  0  0
 17 28  1  0  0  0  0
 17 10  1  0  0  0  0
 18 20  1  0  0  0  0
 19  6  1  0  0  0  0
 20 13  1  0  0  0  0
 21 26  1  0  0  0  0
 22 10  1  0  0  0  0
 23 21  2  0  0  0  0
 23  4  1  0  0  0  0
 24 22  1  0  0  0  0
 25 17  1  0  0  0  0
 26  1  2  0  0  0  0
 27  9  1  0  0  0  0
 28 29  1  0  0  0  0
 29 32  1  0  0  0  0
 30 34  1  0  0  0  0
 30 33  1  0  0  0  0
 32 31  1  0  0  0  0
 33 31  1  0  0  0  0
 34 32  1  0  0  0  0
M  END
>  <MODEL>
4

>  <REMARK>
 VINA RESULT:      -7.4      2.620      9.103
  Name = 
  3 active torsions:
  status: ('A' for Active; 'I' for Inactive)
    1  A    between atoms: C_17  and  O_28
    2  A    between atoms: O_28  and  C_29
    3  A    between atoms: C_29  and  C_32
                            x       y       z     vdW  Elec       q    Type
                         _______ _______ _______ _____ _____    ______ ____

>  <TORSDO>
F 3

$$$$
=
 OpenBabel11122414373D

 34 40  0  0  1  0  0  0  0  0999 V2000
  161.3110  209.5260  152.3390 C   0  0  0  0  0  0  0  0  0  0  0  0
  160.7960  207.1940  153.0500 C   0  0  0  0  0  2  0  0  0  0  0  0
  161.9300  213.9040  147.4600 C   0  0  1  0  0  3  0  0  0  0  0  0
  161.0480  211.5900  151.1200 C   0  0  0  0  0  0  0  0  0  0  0  0
  162.1150  211.7410  148.8360 C   0  0  2  0  0  3  0  0  0  0  0  0
  163.2190  211.9970  146.7390 O   0  0  0  0  0  1  0  0  0  0  0  0
  162.4090  214.4530  146.2680 O   0  0  0  0  0  1  0  0  0  0  0  0
  159.9690  214.0630  149.0400 C   0  0  0  0  0  2  0  0  0  0  0  0
  162.2900  207.4250  151.1860 C   0  0  2  0  0  3  0  0  0  0  0  0
  161.7860  205.2400  148.9400 C   0  0  0  0  0  2  0  0  0  0  0  0
  161.7890  210.3200  148.7330 N   0  0  0  0  0  2  0  0  0  0  0  0
  159.9400  212.6920  149.3230 O   0  0  0  0  0  0  0  0  0  0  0  0
  161.9130  208.1580  149.8740 C   0  0  1  0  0  3  0  0  0  0  0  0
  161.2450  205.8350  152.5760 C   0  0  0  0  0  2  0  0  0  0  0  0
  161.1970  212.4180  149.8740 C   0  0  1  0  0  3  0  0  0  0  0  0
  160.4660  214.3020  147.6180 C   0  0  0  0  0  2  0  0  0  0  0  0
  160.9830  205.5460  150.1990 C   0  0  2  0  0  3  0  0  0  0  0  0
  161.4770  210.2520  151.1510 C   0  0  0  0  0  0  0  0  0  0  0  0
  162.0680  212.3740  147.4370 C   0  0  2  0  0  3  0  0  0  0  0  0
  162.2000  209.6550  149.9720 C   0  0  2  0  0  3  0  0  0  0  0  0
  160.3060  211.4160  153.3570 C   0  0  0  0  0  3  0  0  0  0  0  0
  161.8930  206.4640  148.0480 C   0  0  0  0  0  2  0  0  0  0  0  0
  160.4630  212.1350  152.2170 N   0  0  0  0  0  0  0  0  0  0  0  0
  162.6990  207.5650  148.7140 C   0  0  0  0  0  2  0  0  0  0  0  0
  161.8970  205.9930  151.2710 N   0  0  1  0  0  0  0  0  0  0  0  0
  160.7350  210.1280  153.4140 N   0  0  0  0  0  0  0  0  0  0  0  0
  161.8270  208.1180  152.4740 C   0  0  1  0  0  3  0  0  0  0  0  0
  160.3000  204.3800  150.5680 O   0  0  0  0  0  0  0  0  0  0  0  0
  161.1670  203.3340  150.2370 C   0  0  0  0  0  2  0  0  0  0  0  0
  160.9410  201.1400  147.5250 C   0  0  0  0  0  2  0  0  0  0  0  0
  161.0280  200.9350  149.8100 N   0  0  0  0  0  2  0  0  0  0  0  0
  160.3990  202.2250  149.5390 C   0  0  2  0  0  3  0  0  0  0  0  0
  161.6510  200.5070  148.6210 N   0  0  0  0  0  2  0  0  0  0  0  0
  160.4330  202.4460  148.0530 C   0  0  0  0  0  2  0  0  0  0  0  0
  1 27  1  0  0  0  0
  1 26  1  0  0  0  0
  3  7  1  6  0  0  0
  3 16  1  0  0  0  0
  4 18  1  0  0  0  0
  4 23  2  0  0  0  0
  5 11  1  6  0  0  0
  5 15  1  0  0  0  0
  6 19  1  0  0  0  0
  8 12  1  0  0  0  0
  9 25  1  0  0  0  0
  9 27  1  0  0  0  0
 10 17  1  0  0  0  0
 11 20  1  0  0  0  0
 12 15  1  0  0  0  0
 13 20  1  0  0  0  0
 13  9  1  0  0  0  0
 14  2  1  0  0  0  0
 15  4  1  0  0  0  0
 16  8  1  0  0  0  0
 17 28  1  0  0  0  0
 17 25  1  0  0  0  0
 18  1  2  0  0  0  0
 19  3  1  0  0  0  0
 19  5  1  0  0  0  0
 20 18  1  0  0  0  0
 21 26  2  0  0  0  0
 22 24  1  0  0  0  0
 22 10  1  0  0  0  0
 23 21  1  0  0  0  0
 24 13  1  0  0  0  0
 25 14  1  0  0  0  0
 27  2  1  0  0  0  0
 29 28  1  0  0  0  0
 30 34  1  0  0  0  0
 30 33  1  0  0  0  0
 32 31  1  0  0  0  0
 32 29  1  0  0  0  0
 33 31  1  0  0  0  0
 34 32  1  0  0  0  0
M  END
>  <MODEL>
5

>  <REMARK>
 VINA RESULT:      -7.0      2.385      3.392
  Name = 
  3 active torsions:
  status: ('A' for Active; 'I' for Inactive)
    1  A    between atoms: C_17  and  O_28
    2  A    between atoms: O_28  and  C_29
    3  A    between atoms: C_29  and  C_32
                            x       y       z     vdW  Elec       q    Type
                         _______ _______ _______ _____ _____    ______ ____

>  <TORSDO>
F 3

$$$$
=
 OpenBabel11122414373D

 34 40  0  0  1  0  0  0  0  0999 V2000
  161.3170  208.4700  153.1410 C   0  0  0  0  0  0  0  0  0  0  0  0
  160.8310  206.0530  153.5010 C   0  0  0  0  0  2  0  0  0  0  0  0
  161.5980  213.5900  149.0100 C   0  0  1  0  0  3  0  0  0  0  0  0
  160.9840  210.7060  152.3010 C   0  0  0  0  0  0  0  0  0  0  0  0
  161.8650  211.2300  149.9940 C   0  0  2  0  0  3  0  0  0  0  0  0
  162.8000  211.8280  147.8840 O   0  0  0  0  0  1  0  0  0  0  0  0
  161.9860  214.3270  147.8890 O   0  0  0  0  0  1  0  0  0  0  0  0
  159.7720  213.4860  150.7490 C   0  0  0  0  0  2  0  0  0  0  0  0
  162.1740  206.5870  151.5840 C   0  0  2  0  0  3  0  0  0  0  0  0
  161.4620  204.8000  149.0600 C   0  0  0  0  0  2  0  0  0  0  0  0
  161.5140  209.8460  149.6870 N   0  0  0  0  0  2  0  0  0  0  0  0
  159.7480  212.0880  150.8060 O   0  0  0  0  0  0  0  0  0  0  0  0
  161.7010  207.5260  150.4450 C   0  0  1  0  0  3  0  0  0  0  0  0
  161.2230  204.7900  152.7750 C   0  0  0  0  0  2  0  0  0  0  0  0
  161.0420  211.7280  151.2000 C   0  0  1  0  0  3  0  0  0  0  0  0
  160.1560  213.9560  149.3490 C   0  0  0  0  0  2  0  0  0  0  0  0
  160.7660  204.8950  150.4130 C   0  0  2  0  0  3  0  0  0  0  0  0
  161.3960  209.3810  152.0790 C   0  0  0  0  0  0  0  0  0  0  0  0
  161.7130  212.0840  148.7250 C   0  0  2  0  0  3  0  0  0  0  0  0
  162.0140  208.9860  150.7630 C   0  0  2  0  0  3  0  0  0  0  0  0
  160.4220  210.1670  154.5330 C   0  0  0  0  0  3  0  0  0  0  0  0
  161.5130  206.1540  148.3740 C   0  0  0  0  0  2  0  0  0  0  0  0
  160.4960  211.0640  153.5170 N   0  0  0  0  0  0  0  0  0  0  0  0
  162.3840  207.1310  149.1430 C   0  0  0  0  0  2  0  0  0  0  0  0
  161.7700  205.1610  151.4650 N   0  0  1  0  0  0  0  0  0  0  0  0
  160.8370  208.8870  154.3440 N   0  0  0  0  0  0  0  0  0  0  0  0
  161.8240  207.0590  153.0020 C   0  0  1  0  0  3  0  0  0  0  0  0
  160.1010  203.6830  150.6410 O   0  0  0  0  0  0  0  0  0  0  0  0
  161.1150  202.7260  150.7280 C   0  0  0  0  0  2  0  0  0  0  0  0
  159.7620  201.3010  147.8370 C   0  0  0  0  0  2  0  0  0  0  0  0
  161.7290  201.1080  149.0060 N   0  0  0  0  0  2  0  0  0  0  0  0
  160.7050  201.4670  149.9850 C   0  0  2  0  0  3  0  0  0  0  0  0
  161.2070  201.3780  147.7260 N   0  0  0  0  0  2  0  0  0  0  0  0
  159.4260  201.7170  149.2370 C   0  0  0  0  0  2  0  0  0  0  0  0
  1 26  1  0  0  0  0
  3  7  1  6  0  0  0
  3 16  1  0  0  0  0
  4 23  2  0  0  0  0
  5 11  1  6  0  0  0
  5 15  1  0  0  0  0
  6 19  1  0  0  0  0
  8 12  1  0  0  0  0
  9 27  1  0  0  0  0
 10 17  1  0  0  0  0
 11 20  1  0  0  0  0
 12 15  1  0  0  0  0
 13 20  1  0  0  0  0
 13  9  1  0  0  0  0
 14  2  1  0  0  0  0
 15  4  1  0  0  0  0
 16  8  1  0  0  0  0
 17 28  1  0  0  0  0
 17 25  1  0  0  0  0
 18  4  1  0  0  0  0
 18  1  2  0  0  0  0
 19  3  1  0  0  0  0
 19  5  1  0  0  0  0
 20 18  1  0  0  0  0
 22 10  1  0  0  0  0
 22 24  1  0  0  0  0
 23 21  1  0  0  0  0
 24 13  1  0  0  0  0
 25  9  1  0  0  0  0
 25 14  1  0  0  0  0
 26 21  2  0  0  0  0
 27  1  1  0  0  0  0
 27  2  1  0  0  0  0
 28 29  1  0  0  0  0
 30 34  1  0  0  0  0
 31 32  1  0  0  0  0
 32 29  1  0  0  0  0
 33 30  1  0  0  0  0
 33 31  1  0  0  0  0
 34 32  1  0  0  0  0
M  END
>  <MODEL>
6

>  <REMARK>
 VINA RESULT:      -6.8      1.772      2.445
  Name = 
  3 active torsions:
  status: ('A' for Active; 'I' for Inactive)
    1  A    between atoms: C_17  and  O_28
    2  A    between atoms: O_28  and  C_29
    3  A    between atoms: C_29  and  C_32
                            x       y       z     vdW  Elec       q    Type
                         _______ _______ _______ _____ _____    ______ ____

>  <TORSDO>
F 3

$$$$
=
 OpenBabel11122414373D

 34 40  0  0  1  0  0  0  0  0999 V2000
  161.3940  208.4700  149.4890 C   0  0  0  0  0  0  0  0  0  0  0  0
  161.8080  206.8110  147.6770 C   0  0  0  0  0  2  0  0  0  0  0  0
  161.0830  209.7910  155.9330 C   0  0  1  0  0  3  0  0  0  0  0  0
  161.7650  209.6320  151.5700 C   0  0  0  0  0  0  0  0  0  0  0  0
  160.7820  208.6210  153.6640 C   0  0  2  0  0  3  0  0  0  0  0  0
  159.7580  207.7950  155.6520 O   0  0  0  0  0  1  0  0  0  0  0  0
  160.6640  209.6680  157.2590 O   0  0  0  0  0  1  0  0  0  0  0  0
  162.9950  210.7030  154.5610 C   0  0  0  0  0  2  0  0  0  0  0  0
  160.3860  206.0850  149.4690 C   0  0  2  0  0  3  0  0  0  0  0  0
  160.8930  203.0600  150.2810 C   0  0  0  0  0  2  0  0  0  0  0  0
  161.0640  207.3390  153.0210 N   0  0  0  0  0  2  0  0  0  0  0  0
  162.9700  209.6630  153.6240 O   0  0  0  0  0  0  0  0  0  0  0  0
  160.8310  206.0510  150.9530 C   0  0  1  0  0  3  0  0  0  0  0  0
  161.3310  205.4040  147.4210 C   0  0  0  0  0  2  0  0  0  0  0  0
  161.6870  209.7190  153.0680 C   0  0  1  0  0  3  0  0  0  0  0  0
  162.5540  210.1970  155.9310 C   0  0  0  0  0  2  0  0  0  0  0  0
  161.6630  203.9510  149.3130 C   0  0  2  0  0  3  0  0  0  0  0  0
  161.2920  208.4980  150.8870 C   0  0  0  0  0  0  0  0  0  0  0  0
  160.8960  208.4590  155.1880 C   0  0  2  0  0  3  0  0  0  0  0  0
  160.5900  207.3960  151.6360 C   0  0  2  0  0  3  0  0  0  0  0  0
  162.4260  210.6040  149.5190 C   0  0  0  0  0  3  0  0  0  0  0  0
  160.8560  203.6670  151.6730 C   0  0  0  0  0  2  0  0  0  0  0  0
  162.3310  210.6510  150.8720 N   0  0  0  0  0  0  0  0  0  0  0  0
  160.0650  204.9620  151.6900 C   0  0  0  0  0  2  0  0  0  0  0  0
  160.7290  204.8890  148.6560 N   0  0  1  0  0  0  0  0  0  0  0  0
  161.9540  209.5260  148.8390 N   0  0  0  0  0  0  0  0  0  0  0  0
  160.8280  207.3290  148.6860 C   0  0  1  0  0  3  0  0  0  0  0  0
  162.2950  203.1230  148.3750 O   0  0  0  0  0  0  0  0  0  0  0  0
  161.2930  202.2570  147.9270 C   0  0  0  0  0  2  0  0  0  0  0  0
  160.0810  200.9530  144.9180 C   0  0  0  0  0  2  0  0  0  0  0  0
  161.1880  202.8590  145.5640 N   0  0  0  0  0  2  0  0  0  0  0  0
  161.5880  201.8150  146.5050 C   0  0  2  0  0  3  0  0  0  0  0  0
  160.0400  202.4040  144.8860 N   0  0  0  0  0  2  0  0  0  0  0  0
  160.7910  200.5820  146.1840 C   0  0  0  0  0  2  0  0  0  0  0  0
  1 18  1  0  0  0  0
  2 27  1  0  0  0  0
  3  7  1  1  0  0  0
  4 15  1  0  0  0  0
  5 11  1  6  0  0  0
  5 19  1  0  0  0  0
  8 16  1  0  0  0  0
  9 13  1  0  0  0  0
 10 22  1  0  0  0  0
 12  8  1  0  0  0  0
 13 20  1  0  0  0  0
 13 24  1  0  0  0  0
 14  2  1  0  0  0  0
 14 25  1  0  0  0  0
 15 12  1  0  0  0  0
 15  5  1  0  0  0  0
 16  3  1  0  0  0  0
 17 10  1  0  0  0  0
 18  4  2  0  0  0  0
 18 20  1  0  0  0  0
 19  6  1  0  0  0  0
 19  3  1  0  0  0  0
 20 11  1  0  0  0  0
 21 23  2  0  0  0  0
 22 24  1  0  0  0  0
 23  4  1  0  0  0  0
 25 17  1  0  0  0  0
 25  9  1  0  0  0  0
 26  1  2  0  0  0  0
 26 21  1  0  0  0  0
 27  9  1  0  0  0  0
 27  1  1  0  0  0  0
 28 17  1  0  0  0  0
 29 28  1  0  0  0  0
 30 34  1  0  0  0  0
 31 32  1  0  0  0  0
 32 29  1  0  0  0  0
 33 30  1  0  0  0  0
 33 31  1  0  0  0  0
 34 32  1  0  0  0  0
M  END
>  <MODEL>
7

>  <REMARK>
 VINA RESULT:      -5.4      2.632      4.294
  Name = 
  3 active torsions:
  status: ('A' for Active; 'I' for Inactive)
    1  A    between atoms: C_17  and  O_28
    2  A    between atoms: O_28  and  C_29
    3  A    between atoms: C_29  and  C_32
                            x       y       z     vdW  Elec       q    Type
                         _______ _______ _______ _____ _____    ______ ____

>  <TORSDO>
F 3

$$$$
=
 OpenBabel11122414373D

 34 40  0  0  1  0  0  0  0  0999 V2000
  159.7680  212.7420  150.6700 C   0  0  0  0  0  0  0  0  0  0  0  0
  159.8920  210.9910  152.4390 C   0  0  0  0  0  2  0  0  0  0  0  0
  160.2330  214.3320  144.2970 C   0  0  1  0  0  3  0  0  0  0  0  0
  159.1820  213.7210  148.5450 C   0  0  0  0  0  0  0  0  0  0  0  0
  160.7380  213.3090  146.6000 C   0  0  2  0  0  3  0  0  0  0  0  0
  162.2390  213.0770  144.7630 O   0  0  0  0  0  1  0  0  0  0  0  0
  160.8160  214.4530  143.0340 O   0  0  0  0  0  1  0  0  0  0  0  0
  157.9700  214.2910  145.4120 C   0  0  0  0  0  2  0  0  0  0  0  0
  161.6860  211.0110  150.8430 C   0  0  2  0  0  3  0  0  0  0  0  0
  162.6130  208.0920  150.0140 C   0  0  0  0  0  2  0  0  0  0  0  0
  160.9560  212.0040  147.2190 N   0  0  0  0  0  2  0  0  0  0  0  0
  158.3260  213.3230  146.3590 O   0  0  0  0  0  0  0  0  0  0  0  0
  161.4730  210.8520  149.3170 C   0  0  1  0  0  3  0  0  0  0  0  0
  160.8900  209.9100  152.7680 C   0  0  0  0  0  2  0  0  0  0  0  0
  159.3890  213.8950  147.0660 C   0  0  1  0  0  3  0  0  0  0  0  0
  158.7400  214.0760  144.1140 C   0  0  0  0  0  2  0  0  0  0  0  0
  161.4300  208.5320  150.8680 C   0  0  2  0  0  3  0  0  0  0  0  0
  160.0100  212.8680  149.2950 C   0  0  0  0  0  0  0  0  0  0  0  0
  160.8810  213.1770  145.0760 C   0  0  2  0  0  3  0  0  0  0  0  0
  161.1960  212.1990  148.6510 C   0  0  2  0  0  3  0  0  0  0  0  0
  157.9370  214.2360  150.4870 C   0  0  0  0  0  3  0  0  0  0  0  0
  162.5500  208.7140  148.6290 C   0  0  0  0  0  2  0  0  0  0  0  0
  158.1590  214.3740  149.1560 N   0  0  0  0  0  0  0  0  0  0  0  0
  162.7100  210.2220  148.6920 C   0  0  0  0  0  2  0  0  0  0  0  0
  161.7930  209.7500  151.6230 N   0  0  1  0  0  0  0  0  0  0  0  0
  158.7400  213.4340  151.2330 N   0  0  0  0  0  0  0  0  0  0  0  0
  160.6680  211.9170  151.5500 C   0  0  1  0  0  3  0  0  0  0  0  0
  161.1070  207.4770  151.7320 O   0  0  0  0  0  0  0  0  0  0  0  0
  161.6980  206.3470  151.1570 C   0  0  0  0  0  2  0  0  0  0  0  0
  160.8710  203.5600  149.2160 C   0  0  0  0  0  2  0  0  0  0  0  0
  160.6800  204.1450  151.4280 N   0  0  0  0  0  2  0  0  0  0  0  0
  160.6230  205.3920  150.6690 C   0  0  2  0  0  3  0  0  0  0  0  0
  161.1860  203.1480  150.5720 N   0  0  0  0  0  2  0  0  0  0  0  0
  160.8630  205.0580  149.2240 C   0  0  0  0  0  2  0  0  0  0  0  0
  1 26  1  0  0  0  0
  1 27  1  0  0  0  0
  2 14  1  0  0  0  0
  3  7  1  6  0  0  0
  3 19  1  0  0  0  0
  4 23  2  0  0  0  0
  4 18  1  0  0  0  0
  5 15  1  0  0  0  0
  5 11  1  1  0  0  0
  6 19  1  0  0  0  0
  8 12  1  0  0  0  0
  9 27  1  0  0  0  0
  9 25  1  0  0  0  0
 10 17  1  0  0  0  0
 11 20  1  0  0  0  0
 12 15  1  0  0  0  0
 13  9  1  0  0  0  0
 15  4  1  0  0  0  0
 16  3  1  0  0  0  0
 16  8  1  0  0  0  0
 17 25  1  0  0  0  0
 17 28  1  0  0  0  0
 18  1  2  0  0  0  0
 19  5  1  0  0  0  0
 20 18  1  0  0  0  0
 20 13  1  0  0  0  0
 21 26  2  0  0  0  0
 22 24  1  0  0  0  0
 22 10  1  0  0  0  0
 23 21  1  0  0  0  0
 24 13  1  0  0  0  0
 25 14  1  0  0  0  0
 27  2  1  0  0  0  0
 29 28  1  0  0  0  0
 30 34  1  0  0  0  0
 30 33  1  0  0  0  0
 32 29  1  0  0  0  0
 32 31  1  0  0  0  0
 33 31  1  0  0  0  0
 34 32  1  0  0  0  0
M  END
>  <MODEL>
8

>  <REMARK>
 VINA RESULT:      -5.4      4.049      6.180
  Name = 
  3 active torsions:
  status: ('A' for Active; 'I' for Inactive)
    1  A    between atoms: C_17  and  O_28
    2  A    between atoms: O_28  and  C_29
    3  A    between atoms: C_29  and  C_32
                            x       y       z     vdW  Elec       q    Type
                         _______ _______ _______ _____ _____    ______ ____

>  <TORSDO>
F 3

$$$$
=
 OpenBabel11122414373D

 34 40  0  0  1  0  0  0  0  0999 V2000
  161.1000  207.2830  154.2690 C   0  0  0  0  0  0  0  0  0  0  0  0
  161.8270  205.5110  152.6760 C   0  0  0  0  0  2  0  0  0  0  0  0
  158.1450  213.0850  155.2540 C   0  0  1  0  0  3  0  0  0  0  0  0
  159.6330  208.9240  155.2550 C   0  0  0  0  0  0  0  0  0  0  0  0
  159.6410  211.2450  154.2620 C   0  0  2  0  0  3  0  0  0  0  0  0
  159.7090  213.4910  153.4630 O   0  0  0  0  0  1  0  0  0  0  0  0
  157.9010  214.4520  155.1110 O   0  0  0  0  0  1  0  0  0  0  0  0
  157.0010  210.9590  155.9900 C   0  0  0  0  0  2  0  0  0  0  0  0
  162.3200  207.7720  152.0380 C   0  0  2  0  0  3  0  0  0  0  0  0
  161.9170  208.2800  148.9320 C   0  0  0  0  0  2  0  0  0  0  0  0
  159.8780  210.5610  152.9930 N   0  0  0  0  0  2  0  0  0  0  0  0
  157.6100  210.1590  155.0160 O   0  0  0  0  0  0  0  0  0  0  0  0
  161.2360  208.8660  151.8640 C   0  0  1  0  0  3  0  0  0  0  0  0
  162.5590  205.5290  151.3580 C   0  0  0  0  0  2  0  0  0  0  0  0
  158.9820  210.2790  155.2670 C   0  0  1  0  0  3  0  0  0  0  0  0
  156.8080  212.3790  155.4680 C   0  0  0  0  0  2  0  0  0  0  0  0
  161.5790  207.0520  149.7700 C   0  0  2  0  0  3  0  0  0  0  0  0
  160.5250  208.5610  154.2320 C   0  0  0  0  0  0  0  0  0  0  0  0
  158.8450  212.5330  154.0020 C   0  0  2  0  0  3  0  0  0  0  0  0
  160.9360  209.5670  153.1880 C   0  0  2  0  0  3  0  0  0  0  0  0
  159.8900  206.7950  156.2480 C   0  0  0  0  0  3  0  0  0  0  0  0
  161.2070  209.5150  149.4590 C   0  0  0  0  0  2  0  0  0  0  0  0
  159.3270  208.0290  156.2300 N   0  0  0  0  0  0  0  0  0  0  0  0
  161.7070  209.8920  150.8420 C   0  0  0  0  0  2  0  0  0  0  0  0
  162.5720  206.9070  150.8550 N   0  0  1  0  0  0  0  0  0  0  0  0
  160.7720  206.4330  155.2800 N   0  0  0  0  0  0  0  0  0  0  0  0
  162.1310  206.8590  153.2570 C   0  0  1  0  0  3  0  0  0  0  0  0
  161.5870  205.9360  148.9220 O   0  0  0  0  0  0  0  0  0  0  0  0
  162.0180  206.4270  147.6860 C   0  0  0  0  0  2  0  0  0  0  0  0
  161.9240  204.3300  144.8900 C   0  0  0  0  0  2  0  0  0  0  0  0
  160.8410  204.4330  146.9120 N   0  0  0  0  0  2  0  0  0  0  0  0
  161.1970  205.8080  146.5680 C   0  0  2  0  0  3  0  0  0  0  0  0
  161.5990  203.5780  146.0880 N   0  0  0  0  0  2  0  0  0  0  0  0
  162.0130  205.7660  145.3070 C   0  0  0  0  0  2  0  0  0  0  0  0
  1 26  1  0  0  0  0
  2 27  1  0  0  0  0
  3  7  1  6  0  0  0
  3 16  1  0  0  0  0
  4 15  1  0  0  0  0
  4 23  2  0  0  0  0
  5 11  1  6  0  0  0
  5 15  1  0  0  0  0
  6 19  1  0  0  0  0
  9 27  1  0  0  0  0
 10 22  1  0  0  0  0
 10 17  1  0  0  0  0
 11 20  1  0  0  0  0
 12 15  1  0  0  0  0
 12  8  1  0  0  0  0
 13  9  1  0  0  0  0
 13 20  1  0  0  0  0
 14  2  1  0  0  0  0
 16  8  1  0  0  0  0
 17 25  1  0  0  0  0
 18  1  2  0  0  0  0
 18  4  1  0  0  0  0
 19  5  1  0  0  0  0
 19  3  1  0  0  0  0
 20 18  1  0  0  0  0
 22 24  1  0  0  0  0
 23 21  1  0  0  0  0
 24 13  1  0  0  0  0
 25 14  1  0  0  0  0
 25  9  1  0  0  0  0
 26 21  2  0  0  0  0
 27  1  1  0  0  0  0
 28 17  1  0  0  0  0
 29 28  1  0  0  0  0
 30 34  1  0  0  0  0
 30 33  1  0  0  0  0
 32 31  1  0  0  0  0
 32 29  1  0  0  0  0
 33 31  1  0  0  0  0
 34 32  1  0  0  0  0
M  END
>  <MODEL>
9

>  <REMARK>
 VINA RESULT:      -4.9      2.160      2.579
  Name = 
  3 active torsions:
  status: ('A' for Active; 'I' for Inactive)
    1  A    between atoms: C_17  and  O_28
    2  A    between atoms: O_28  and  C_29
    3  A    between atoms: C_29  and  C_32
                            x       y       z     vdW  Elec       q    Type
                         _______ _______ _______ _____ _____    ______ ____

>  <TORSDO>
F 3

$$$$
