=
 OpenBabel11122412513D

 32 37  0  0  1  0  0  0  0  0999 V2000
  159.6060  212.7110  144.3000 C   0  0  0  0  0  2  0  0  0  0  0  0
  160.9870  212.8500  149.7530 C   0  0  1  0  0  3  0  0  0  0  0  0
  161.6780  208.5700  148.2180 C   0  0  0  0  0  2  0  0  0  0  0  0
  162.5530  208.0940  149.3810 C   0  0  0  0  0  2  0  0  0  0  0  0
  159.4810  212.9820  151.8020 C   0  0  1  0  0  3  0  0  0  0  0  0
  159.0820  212.2600  153.0510 C   0  0  0  0  0  0  0  0  0  0  0  0
  160.0810  213.3250  147.5000 C   0  0  1  0  0  3  0  0  0  0  0  0
  162.5340  212.8550  147.8610 C   0  0  0  0  0  2  0  0  0  0  0  0
  158.9520  210.6990  154.5570 N   0  0  0  0  0  0  0  0  0  0  0  0
  161.7020  213.3610  145.5520 C   0  0  0  0  0  2  0  0  0  0  0  0
  161.4190  210.0840  148.2280 C   0  0  0  0  0  2  0  0  0  0  0  0
  162.2320  212.2960  149.1900 N   0  0  2  0  0  0  0  0  0  0  0  0
  162.3200  210.8210  149.2330 C   0  0  1  0  0  3  0  0  0  0  0  0
  160.8260  210.8210  151.2970 C   0  0  1  0  0  3  0  0  0  0  0  0
  158.0510  211.6350  154.8240 N   0  0  0  0  0  0  0  0  0  0  0  0
  158.8580  212.2070  145.5280 C   0  0  0  0  0  2  0  0  0  0  0  0
  161.3560  212.7280  146.8880 C   0  0  2  0  0  3  0  0  0  0  0  0
  158.1000  212.6010  153.9110 N   0  0  0  0  0  0  0  0  0  0  0  0
  158.8380  213.2910  146.6000 C   0  0  0  0  0  2  0  0  0  0  0  0
  161.1170  212.5180  144.4270 C   0  0  2  0  0  3  0  0  0  0  0  0
  162.0970  208.7300  150.6940 C   0  0  0  0  0  2  0  0  0  0  0  0
  162.1130  210.2730  150.6610 C   0  0  1  0  0  3  0  0  0  0  0  0
  160.7310  210.3640  152.7650 C   0  0  0  0  0  2  0  0  0  0  0  0
  159.7850  212.6450  148.8270 C   0  0  0  0  0  2  0  0  0  0  0  0
  159.7060  214.4530  152.1060 C   0  0  0  0  0  1  0  0  0  0  0  0
  159.1700  209.5100  155.3610 C   0  0  0  0  0  1  0  0  0  0  0  0
  160.7650  212.3680  151.1920 C   0  0  1  0  0  3  0  0  0  0  0  0
  159.5950  211.0560  153.4380 C   0  0  0  0  0  0  0  0  0  0  0  0
  161.7640  212.8810  143.1760 N   0  0  0  0  0  2  0  0  0  0  0  0
  161.5950  212.1270  141.9740 C   0  0  0  0  0  0  0  0  0  0  0  0
  160.8850  211.0860  141.9610 O   0  0  0  0  0  0  0  0  0  0  0  0
  162.2670  212.5720  140.7260 C   0  0  0  0  0  1  0  0  0  0  0  0
  1 20  1  0  0  0  0
  1 16  1  0  0  0  0
  2 24  1  6  0  0  0
  2 27  1  0  0  0  0
  3 11  1  0  0  0  0
  3  4  1  0  0  0  0
  4 21  1  0  0  0  0
  5 25  1  1  0  0  0
  5  6  1  0  0  0  0
  6 28  2  0  0  0  0
  6 18  1  0  0  0  0
  7 19  1  6  0  0  0
  7 24  1  0  0  0  0
  9 15  1  0  0  0  0
  9 26  1  0  0  0  0
 12  8  1  6  0  0  0
 12 13  1  0  0  0  0
 12  2  1  0  0  0  0
 13 11  1  6  0  0  0
 13 22  1  0  0  0  0
 14 23  1  1  0  0  0
 16 19  1  0  0  0  0
 17 10  1  6  0  0  0
 17  7  1  0  0  0  0
 17  8  1  0  0  0  0
 18 15  2  0  0  0  0
 20 29  1  6  0  0  0
 20 10  1  0  0  0  0
 22 21  1  6  0  0  0
 22 14  1  0  0  0  0
 23 28  1  0  0  0  0
 27 14  1  0  0  0  0
 27  5  1  0  0  0  0
 28  9  1  0  0  0  0
 30 29  1  0  0  0  0
 31 30  2  0  0  0  0
 32 30  1  0  0  0  0
M  END
>  <MODEL>
1

>  <REMARK>
 VINA RESULT:      -3.8      0.000      0.000
  Name = 
  1 active torsions:
  status: ('A' for Active; 'I' for Inactive)
    1  A    between atoms: C_20  and  N_29
                            x       y       z     vdW  Elec       q    Type
                         _______ _______ _______ _____ _____    ______ ____

>  <TORSDO>
F 1

$$$$
=
 OpenBabel11122412513D

 32 37  0  0  1  0  0  0  0  0999 V2000
  161.6430  210.1470  150.5700 C   0  0  0  0  0  2  0  0  0  0  0  0
  161.6630  213.8770  146.3570 C   0  0  1  0  0  3  0  0  0  0  0  0
  157.3640  212.3200  146.8610 C   0  0  0  0  0  2  0  0  0  0  0  0
  156.6710  213.4260  146.0600 C   0  0  0  0  0  2  0  0  0  0  0  0
  162.5750  213.6430  143.9910 C   0  0  1  0  0  3  0  0  0  0  0  0
  162.1890  213.6630  142.5460 C   0  0  0  0  0  0  0  0  0  0  0  0
  162.2760  212.2350  148.1040 C   0  0  1  0  0  3  0  0  0  0  0  0
  160.8710  214.2630  148.6370 C   0  0  0  0  0  2  0  0  0  0  0  0
  160.9540  213.7490  140.7600 N   0  0  0  0  0  0  0  0  0  0  0  0
  161.4770  212.6660  150.4700 C   0  0  0  0  0  2  0  0  0  0  0  0
  158.8450  212.6090  147.1460 C   0  0  0  0  0  2  0  0  0  0  0  0
  160.6000  214.4530  147.2020 N   0  0  2  0  0  0  0  0  0  0  0  0
  159.2280  214.0610  146.8120 C   0  0  1  0  0  3  0  0  0  0  0  0
  160.0180  213.8010  144.4030 C   0  0  1  0  0  3  0  0  0  0  0  0
  162.1970  213.4420  140.4120 N   0  0  0  0  0  0  0  0  0  0  0  0
  161.5970  209.9420  149.0610 C   0  0  0  0  0  2  0  0  0  0  0  0
  161.1580  212.8000  148.9920 C   0  0  2  0  0  3  0  0  0  0  0  0
  162.9760  213.3720  141.4880 N   0  0  0  0  0  0  0  0  0  0  0  0
  162.6800  210.7830  148.3930 C   0  0  0  0  0  2  0  0  0  0  0  0
  160.8570  211.3830  151.0070 C   0  0  2  0  0  3  0  0  0  0  0  0
  157.5460  213.8750  144.8910 C   0  0  0  0  0  2  0  0  0  0  0  0
  158.9370  214.3800  145.3300 C   0  0  1  0  0  3  0  0  0  0  0  0
  159.7660  214.2600  142.9550 C   0  0  0  0  0  2  0  0  0  0  0  0
  161.8930  212.3900  146.6410 C   0  0  0  0  0  2  0  0  0  0  0  0
  163.8430  214.4530  144.1990 C   0  0  0  0  0  1  0  0  0  0  0  0
  159.8530  213.9130  139.8280 C   0  0  0  0  0  1  0  0  0  0  0  0
  161.4380  214.2100  144.8760 C   0  0  1  0  0  3  0  0  0  0  0  0
  160.9190  213.8700  142.0930 C   0  0  0  0  0  0  0  0  0  0  0  0
  160.8150  211.4480  152.4600 N   0  0  0  0  0  2  0  0  0  0  0  0
  159.5890  211.4900  153.1940 C   0  0  0  0  0  0  0  0  0  0  0  0
  158.4810  211.4970  152.5960 O   0  0  0  0  0  0  0  0  0  0  0  0
  159.6230  211.5300  154.6780 C   0  0  0  0  0  1  0  0  0  0  0  0
  1 20  1  0  0  0  0
  2 24  1  6  0  0  0
  2 12  1  0  0  0  0
  3 11  1  0  0  0  0
  4  3  1  0  0  0  0
  5 25  1  6  0  0  0
  5 27  1  0  0  0  0
  6  5  1  0  0  0  0
  7 24  1  6  0  0  0
  7 19  1  0  0  0  0
  7 17  1  0  0  0  0
  9 28  1  0  0  0  0
 10 20  1  0  0  0  0
 12  8  1  1  0  0  0
 13 11  1  6  0  0  0
 13 12  1  0  0  0  0
 14 23  1  6  0  0  0
 14 27  1  0  0  0  0
 14 22  1  0  0  0  0
 15  9  1  0  0  0  0
 15 18  2  0  0  0  0
 16  1  1  0  0  0  0
 17  8  1  6  0  0  0
 17 10  1  0  0  0  0
 18  6  1  0  0  0  0
 19 16  1  0  0  0  0
 20 29  1  1  0  0  0
 21  4  1  0  0  0  0
 22 21  1  6  0  0  0
 22 13  1  0  0  0  0
 26  9  1  0  0  0  0
 27  2  1  0  0  0  0
 28  6  2  0  0  0  0
 28 23  1  0  0  0  0
 29 30  1  0  0  0  0
 30 32  1  0  0  0  0
 31 30  2  0  0  0  0
M  END
>  <MODEL>
2

>  <REMARK>
 VINA RESULT:      -2.8      2.641      8.910
  Name = 
  1 active torsions:
  status: ('A' for Active; 'I' for Inactive)
    1  A    between atoms: C_20  and  N_29
                            x       y       z     vdW  Elec       q    Type
                         _______ _______ _______ _____ _____    ______ ____

>  <TORSDO>
F 1

$$$$
