=
 OpenBabel11122414323D

 34 40  0  0  0  0  0  0  0  0999 V2000
  161.0570  204.0470  150.7300 C   0  0  0  0  0  0  0  0  0  0  0  0
  161.0110  205.5720  152.8130 C   0  0  0  0  0  3  0  0  0  0  0  0
  159.0780  203.1620  145.2710 O   0  0  0  0  0  0  0  0  0  0  0  0
  161.1260  202.7220  148.6730 C   0  0  0  0  0  0  0  0  0  0  0  0
  161.5800  203.8110  146.5430 C   0  0  0  0  0  0  0  0  0  0  0  0
  160.8340  204.5040  144.3180 C   0  0  0  0  0  2  0  0  0  0  0  0
  159.5600  203.6970  144.0670 C   0  0  0  0  0  2  0  0  0  0  0  0
  160.5810  201.2420  145.2060 C   0  0  0  0  0  2  0  0  0  0  0  0
  161.4280  206.4420  150.6360 C   0  0  0  0  0  0  0  0  0  0  0  0
  161.9450  209.4220  150.1020 N   0  0  0  0  0  0  0  0  0  0  0  0
  161.6740  205.0410  147.1980 C   0  0  0  0  0  3  0  0  0  0  0  0
  161.1980  201.2770  146.6060 C   0  0  0  0  0  2  0  0  0  0  0  0
  161.6080  206.4130  149.2440 C   0  0  0  0  0  0  0  0  0  0  0  0
  161.2150  207.0110  152.9030 N   0  0  0  0  0  0  0  0  0  0  0  0
  161.2910  202.6360  147.2730 C   0  0  0  0  0  0  0  0  0  0  0  0
  159.1400  201.7650  145.1400 C   0  0  0  0  0  2  0  0  0  0  0  0
  161.6880  208.8370  151.3860 C   0  0  0  0  0  0  0  0  0  0  0  0
  161.2300  203.9740  149.3280 C   0  0  0  0  0  0  0  0  0  0  0  0
  161.7240  203.7730  145.1560 O   0  0  0  0  0  0  0  0  0  0  0  0
  161.5060  205.1530  148.5860 C   0  0  0  0  0  0  0  0  0  0  0  0
  160.6840  201.6570  150.8200 C   0  0  0  0  0  3  0  0  0  0  0  0
  162.0240  208.9090  148.9140 C   0  0  0  0  0  3  0  0  0  0  0  0
  160.8520  201.5750  149.4370 C   0  0  0  0  0  3  0  0  0  0  0  0
  161.8670  207.5050  148.5160 C   0  0  0  0  0  3  0  0  0  0  0  0
  161.4650  207.5330  151.5970 C   0  0  0  0  0  0  0  0  0  0  0  0
  160.7850  202.8880  151.4650 C   0  0  0  0  0  3  0  0  0  0  0  0
  161.1610  205.2900  151.3540 C   0  0  0  0  0  0  0  0  0  0  0  0
  161.6700  209.7430  152.5450 C   0  0  0  0  0  3  0  0  0  0  0  0
  160.6350  210.4710  152.8110 N   0  0  0  0  0  0  0  0  0  0  0  0
  160.8980  211.0670  156.3400 C   0  0  0  0  0  2  0  0  0  0  0  0
  159.2480  211.3600  154.6000 C   0  0  0  0  0  2  0  0  0  0  0  0
  160.6260  211.3630  153.9590 C   0  0  0  0  0  3  0  0  0  0  0  0
  159.4300  210.8960  156.0320 C   0  0  0  0  0  2  0  0  0  0  0  0
  161.6010  210.8720  155.0170 C   0  0  0  0  0  2  0  0  0  0  0  0
  1 27  1  0  0  0  0
  1 26  1  0  0  0  0
  2 14  1  0  0  0  0
  4 18  1  0  0  0  0
  4 23  2  0  0  0  0
  5 11  1  0  0  0  0
  5 15  2  0  0  0  0
  6 19  1  0  0  0  0
  7  6  1  0  0  0  0
  7  3  1  0  0  0  0
  8 12  1  0  0  0  0
  9 27  1  0  0  0  0
  9 25  1  0  0  0  0
 10 17  2  0  0  0  0
 11 20  2  0  0  0  0
 12 15  1  0  0  0  0
 13  9  2  0  0  0  0
 15  4  1  0  0  0  0
 16  8  1  0  0  0  0
 16  3  1  0  0  0  0
 17 25  1  0  0  0  0
 17 28  1  0  0  0  0
 18  1  2  0  0  0  0
 19  5  1  0  0  0  0
 20 13  1  0  0  0  0
 20 18  1  0  0  0  0
 21 26  2  0  0  0  0
 22 10  1  0  0  0  0
 23 21  1  0  0  0  0
 24 22  2  0  0  0  0
 24 13  1  0  0  0  0
 25 14  2  0  0  0  0
 27  2  2  0  0  0  0
 28 29  2  0  0  0  0
 29 32  1  0  0  0  0
 31 33  1  0  0  0  0
 32 31  1  0  0  0  0
 32 34  1  0  0  0  0
 33 30  1  0  0  0  0
 34 30  1  0  0  0  0
M  END
>  <MODEL>
1

>  <REMARK>
 VINA RESULT:     -10.2      0.000      0.000
  Name = 
  2 active torsions:
  status: ('A' for Active; 'I' for Inactive)
    1  A    between atoms: C_17  and  C_28
    2  A    between atoms: N_29  and  C_32
                            x       y       z     vdW  Elec       q    Type
                         _______ _______ _______ _____ _____    ______ ____

>  <TORSDO>
F 2

$$$$
=
 OpenBabel11122414323D

 34 40  0  0  0  0  0  0  0  0999 V2000
  160.9720  204.9730  150.8460 C   0  0  0  0  0  0  0  0  0  0  0  0
  160.7020  206.4600  152.9390 C   0  0  0  0  0  3  0  0  0  0  0  0
  159.6160  204.2020  145.1830 O   0  0  0  0  0  0  0  0  0  0  0  0
  161.2650  203.6850  148.7850 C   0  0  0  0  0  0  0  0  0  0  0  0
  161.9620  204.8080  146.7410 C   0  0  0  0  0  0  0  0  0  0  0  0
  161.4760  205.5470  144.4600 C   0  0  0  0  0  2  0  0  0  0  0  0
  160.2330  204.7550  144.0520 C   0  0  0  0  0  2  0  0  0  0  0  0
  161.1050  202.2720  145.2520 C   0  0  0  0  0  2  0  0  0  0  0  0
  161.3660  207.3660  150.8400 C   0  0  0  0  0  0  0  0  0  0  0  0
  161.9570  210.3510  150.4230 N   0  0  0  0  0  0  0  0  0  0  0  0
  161.9890  206.0250  147.4260 C   0  0  0  0  0  3  0  0  0  0  0  0
  161.5600  202.2770  146.7130 C   0  0  0  0  0  2  0  0  0  0  0  0
  161.7010  207.3610  149.4770 C   0  0  0  0  0  0  0  0  0  0  0  0
  160.9030  207.8960  153.0790 N   0  0  0  0  0  0  0  0  0  0  0  0
  161.5860  203.6230  147.4120 C   0  0  0  0  0  0  0  0  0  0  0  0
  159.6840  202.8070  145.0350 C   0  0  0  0  0  2  0  0  0  0  0  0
  161.5540  209.7450  151.6600 C   0  0  0  0  0  0  0  0  0  0  0  0
  161.3020  204.9240  149.4720 C   0  0  0  0  0  0  0  0  0  0  0  0
  162.2620  204.7940  145.3780 O   0  0  0  0  0  0  0  0  0  0  0  0
  161.6670  206.1130  148.7880 C   0  0  0  0  0  0  0  0  0  0  0  0
  160.5770  202.5840  150.8490 C   0  0  0  0  0  3  0  0  0  0  0  0
  162.1670  209.8590  149.2420 C   0  0  0  0  0  3  0  0  0  0  0  0
  160.9000  202.5260  149.4920 C   0  0  0  0  0  3  0  0  0  0  0  0
  162.0470  208.4630  148.8040 C   0  0  0  0  0  3  0  0  0  0  0  0
  161.3010  208.4390  151.8200 C   0  0  0  0  0  0  0  0  0  0  0  0
  160.6130  203.8020  151.5240 C   0  0  0  0  0  3  0  0  0  0  0  0
  161.0130  206.2030  151.5020 C   0  0  0  0  0  0  0  0  0  0  0  0
  161.4110  210.6300  152.8260 C   0  0  0  0  0  3  0  0  0  0  0  0
  160.2470  211.0190  153.2340 N   0  0  0  0  0  0  0  0  0  0  0  0
  158.5320  212.0850  156.2000 C   0  0  0  0  0  2  0  0  0  0  0  0
  159.1580  213.0280  154.0650 C   0  0  0  0  0  2  0  0  0  0  0  0
  160.1160  211.8930  154.3880 C   0  0  0  0  0  3  0  0  0  0  0  0
  158.0210  212.9420  155.0660 C   0  0  0  0  0  2  0  0  0  0  0  0
  159.5150  211.1350  155.5600 C   0  0  0  0  0  2  0  0  0  0  0  0
  1 27  1  0  0  0  0
  1 26  1  0  0  0  0
  2 14  1  0  0  0  0
  4 18  1  0  0  0  0
  4 23  2  0  0  0  0
  5 15  2  0  0  0  0
  5 11  1  0  0  0  0
  6 19  1  0  0  0  0
  7  6  1  0  0  0  0
  7  3  1  0  0  0  0
  8 12  1  0  0  0  0
  9 27  1  0  0  0  0
  9 25  1  0  0  0  0
 10 17  2  0  0  0  0
 11 20  2  0  0  0  0
 12 15  1  0  0  0  0
 13  9  2  0  0  0  0
 15  4  1  0  0  0  0
 16  3  1  0  0  0  0
 16  8  1  0  0  0  0
 17 25  1  0  0  0  0
 17 28  1  0  0  0  0
 18  1  2  0  0  0  0
 19  5  1  0  0  0  0
 20 18  1  0  0  0  0
 20 13  1  0  0  0  0
 21 26  2  0  0  0  0
 22 10  1  0  0  0  0
 23 21  1  0  0  0  0
 24 22  2  0  0  0  0
 24 13  1  0  0  0  0
 25 14  2  0  0  0  0
 27  2  2  0  0  0  0
 28 29  2  0  0  0  0
 29 32  1  0  0  0  0
 31 32  1  0  0  0  0
 31 33  1  0  0  0  0
 32 34  1  0  0  0  0
 33 30  1  0  0  0  0
 34 30  1  0  0  0  0
M  END
>  <MODEL>
2

>  <REMARK>
 VINA RESULT:      -9.8      1.004      1.245
  Name = 
  2 active torsions:
  status: ('A' for Active; 'I' for Inactive)
    1  A    between atoms: C_17  and  C_28
    2  A    between atoms: N_29  and  C_32
                            x       y       z     vdW  Elec       q    Type
                         _______ _______ _______ _____ _____    ______ ____

>  <TORSDO>
F 2

$$$$
=
 OpenBabel11122414323D

 34 40  0  0  0  0  0  0  0  0999 V2000
  161.5930  208.3240  150.5530 C   0  0  0  0  0  0  0  0  0  0  0  0
  161.4080  207.0130  148.3370 C   0  0  0  0  0  3  0  0  0  0  0  0
  159.2220  209.3920  155.8200 O   0  0  0  0  0  0  0  0  0  0  0  0
  161.7500  209.4400  152.7270 C   0  0  0  0  0  0  0  0  0  0  0  0
  161.5930  208.1340  154.7750 C   0  0  0  0  0  0  0  0  0  0  0  0
  160.3920  207.5440  156.8240 C   0  0  0  0  0  2  0  0  0  0  0  0
  159.3700  208.6660  157.0100 C   0  0  0  0  0  2  0  0  0  0  0  0
  161.1750  210.7910  156.2410 C   0  0  0  0  0  2  0  0  0  0  0  0
  161.2700  205.9230  150.4490 C   0  0  0  0  0  0  0  0  0  0  0  0
  160.8620  202.8920  150.7400 N   0  0  0  0  0  0  0  0  0  0  0  0
  161.4290  206.9730  154.0160 C   0  0  0  0  0  3  0  0  0  0  0  0
  161.9410  210.6680  154.9220 C   0  0  0  0  0  2  0  0  0  0  0  0
  161.2610  205.8110  151.8490 C   0  0  0  0  0  0  0  0  0  0  0  0
  161.2140  205.5850  148.1280 N   0  0  0  0  0  0  0  0  0  0  0  0
  161.7420  209.3850  154.1380 C   0  0  0  0  0  0  0  0  0  0  0  0
  159.6510  210.7010  156.0940 C   0  0  0  0  0  2  0  0  0  0  0  0
  160.9530  203.6070  149.4990 C   0  0  0  0  0  0  0  0  0  0  0  0
  161.5900  208.2550  151.9660 C   0  0  0  0  0  0  0  0  0  0  0  0
  161.5540  208.0390  156.1670 O   0  0  0  0  0  0  0  0  0  0  0  0
  161.4250  207.0020  152.6130 C   0  0  0  0  0  0  0  0  0  0  0  0
  161.9140  210.7220  150.6600 C   0  0  0  0  0  3  0  0  0  0  0  0
  160.9200  203.2840  151.9740 C   0  0  0  0  0  3  0  0  0  0  0  0
  161.9110  210.6640  152.0550 C   0  0  0  0  0  3  0  0  0  0  0  0
  161.1070  204.6460  152.4890 C   0  0  0  0  0  3  0  0  0  0  0  0
  161.1320  204.9310  149.3950 C   0  0  0  0  0  0  0  0  0  0  0  0
  161.7560  209.5570  149.9110 C   0  0  0  0  0  3  0  0  0  0  0  0
  161.4320  207.1470  149.8240 C   0  0  0  0  0  0  0  0  0  0  0  0
  160.8410  202.8200  148.2610 C   0  0  0  0  0  3  0  0  0  0  0  0
  161.5740  203.0850  147.2300 N   0  0  0  0  0  0  0  0  0  0  0  0
  159.6680  201.8360  144.4580 C   0  0  0  0  0  2  0  0  0  0  0  0
  160.8860  200.9300  146.3370 C   0  0  0  0  0  2  0  0  0  0  0  0
  161.4570  202.3000  146.0110 C   0  0  0  0  0  3  0  0  0  0  0  0
  159.6020  200.7880  145.5430 C   0  0  0  0  0  2  0  0  0  0  0  0
  160.4840  202.9610  145.0490 C   0  0  0  0  0  2  0  0  0  0  0  0
  1 18  1  0  0  0  0
  2 27  1  0  0  0  0
  3 16  1  0  0  0  0
  3  7  1  0  0  0  0
  4 15  2  0  0  0  0
  5 19  1  0  0  0  0
  6  7  1  0  0  0  0
  9 13  1  0  0  0  0
 10 22  2  0  0  0  0
 11  5  2  0  0  0  0
 12  8  1  0  0  0  0
 13 24  2  0  0  0  0
 13 20  1  0  0  0  0
 14  2  2  0  0  0  0
 14 25  1  0  0  0  0
 15  5  1  0  0  0  0
 15 12  1  0  0  0  0
 16  8  1  0  0  0  0
 17 10  1  0  0  0  0
 18 20  2  0  0  0  0
 18  4  1  0  0  0  0
 19  6  1  0  0  0  0
 20 11  1  0  0  0  0
 21 23  2  0  0  0  0
 22 24  1  0  0  0  0
 23  4  1  0  0  0  0
 25 17  2  0  0  0  0
 25  9  1  0  0  0  0
 26  1  2  0  0  0  0
 26 21  1  0  0  0  0
 27  9  2  0  0  0  0
 27  1  1  0  0  0  0
 28 17  1  0  0  0  0
 29 28  2  0  0  0  0
 30 34  1  0  0  0  0
 30 33  1  0  0  0  0
 32 31  1  0  0  0  0
 32 29  1  0  0  0  0
 33 31  1  0  0  0  0
 34 32  1  0  0  0  0
M  END
>  <MODEL>
3

>  <REMARK>
 VINA RESULT:      -8.5      3.565      9.539
  Name = 
  2 active torsions:
  status: ('A' for Active; 'I' for Inactive)
    1  A    between atoms: C_17  and  C_28
    2  A    between atoms: N_29  and  C_32
                            x       y       z     vdW  Elec       q    Type
                         _______ _______ _______ _____ _____    ______ ____

>  <TORSDO>
F 2

$$$$
