=
 OpenBabel11122414133D

 28 32  0  0  1  0  0  0  0  0999 V2000
  160.9090  208.3220  155.8300 C   0  0  0  0  0  0  0  0  0  0  0  0
  156.0670  209.7130  154.4570 O   0  0  0  0  0  0  0  0  0  0  0  0
  162.6200  210.6960  152.2120 C   0  0  0  0  0  1  0  0  0  0  0  0
  162.0170  210.5300  157.1460 C   0  0  0  0  0  3  0  0  0  0  0  0
  160.2740  211.4650  152.0530 C   0  0  2  0  0  3  0  0  0  0  0  0
  160.3750  207.2380  155.1280 O   0  0  0  0  0  0  0  0  0  0  0  0
  156.4800  210.3570  156.7920 O   0  0  0  0  0  0  0  0  0  0  0  0
  156.6300  210.7760  155.3570 S   0  0  0  0  0  0  0  0  0  0  0  0
  156.6860  213.3130  154.4090 C   0  0  2  0  0  3  0  0  0  0  0  0
  158.3640  211.0550  154.9810 C   0  0  2  0  0  3  0  0  0  0  0  0
  162.4610  206.1300  152.2290 C   0  0  0  0  0  1  0  0  0  0  0  0
  159.3720  209.6190  153.3100 C   0  0  1  0  0  3  0  0  0  0  0  0
  157.4520  212.6370  153.2770 C   0  0  0  0  0  2  0  0  0  0  0  0
  155.7640  212.3060  155.0800 C   0  0  0  0  0  2  0  0  0  0  0  0
  161.8310  207.1270  153.1790 C   0  0  1  0  0  3  0  0  0  0  0  0
  160.2930  209.5800  155.7170 C   0  0  0  0  0  0  0  0  0  0  0  0
  161.1860  210.2640  151.9730 C   0  0  2  0  0  3  0  0  0  0  0  0
  155.8600  214.4520  153.8530 C   0  0  0  0  0  1  0  0  0  0  0  0
  160.8250  207.9850  152.4190 C   0  0  0  0  0  2  0  0  0  0  0  0
  160.8640  210.6840  156.3720 C   0  0  0  0  0  3  0  0  0  0  0  0
  162.0720  208.1740  156.5990 C   0  0  0  0  0  3  0  0  0  0  0  0
  162.6190  209.2750  157.2610 C   0  0  0  0  0  3  0  0  0  0  0  0
  161.1830  206.3710  154.3400 C   0  0  0  0  0  2  0  0  0  0  0  0
  159.0120  210.9610  152.7060 C   0  0  1  0  0  3  0  0  0  0  0  0
  160.7740  209.3200  153.0040 N   0  0  2  0  0  0  0  0  0  0  0  0
  158.6070  211.8730  153.7720 N   0  0  2  0  0  0  0  0  0  0  0  0
  159.9880  211.9310  150.7700 O   0  0  0  0  0  1  0  0  0  0  0  0
  159.0860  209.7310  154.8100 C   0  0  1  0  0  3  0  0  0  0  0  0
  1 21  1  0  0  0  0
  2  8  2  0  0  0  0
  4 22  1  0  0  0  0
  5 27  1  6  0  0  0
  5 24  1  0  0  0  0
  6  1  1  0  0  0  0
  8  7  2  0  0  0  0
  9 18  1  6  0  0  0
  9 14  1  0  0  0  0
 10  8  1  6  0  0  0
 11 15  1  0  0  0  0
 12 28  1  0  0  0  0
 13 26  1  0  0  0  0
 13  9  1  0  0  0  0
 14  8  1  0  0  0  0
 15 23  1  0  0  0  0
 16  1  2  0  0  0  0
 16 20  1  0  0  0  0
 17  5  1  0  0  0  0
 17  3  1  0  0  0  0
 17 25  1  0  0  0  0
 19 25  1  0  0  0  0
 19 15  1  0  0  0  0
 20  4  2  0  0  0  0
 21 22  2  0  0  0  0
 23  6  1  0  0  0  0
 24 12  1  0  0  0  0
 24 26  1  0  0  0  0
 25 12  1  0  0  0  0
 26 10  1  0  0  0  0
 28 10  1  0  0  0  0
 28 16  1  0  0  0  0
M  END
>  <MODEL>
1

>  <REMARK>
 VINA RESULT:      -1.1      0.000      0.000
  Name = 
  0 active torsions:
  status: ('A' for Active; 'I' for Inactive)
                            x       y       z     vdW  Elec       q    Type
                         _______ _______ _______ _____ _____    ______ ____

>  <TORSDO>
F 0

$$$$
=
 OpenBabel11122414133D

 28 32  0  0  1  0  0  0  0  0999 V2000
  162.0260  209.8650  152.8750 C   0  0  0  0  0  0  0  0  0  0  0  0
  160.8400  214.4530  150.6810 O   0  0  0  0  0  0  0  0  0  0  0  0
  158.1490  210.0840  155.4370 C   0  0  0  0  0  1  0  0  0  0  0  0
  160.4520  207.9460  151.5820 C   0  0  0  0  0  3  0  0  0  0  0  0
  157.7010  212.0210  153.9650 C   0  0  2  0  0  3  0  0  0  0  0  0
  162.7750  210.8280  153.5550 O   0  0  0  0  0  0  0  0  0  0  0  0
  161.1890  212.7660  148.9290 O   0  0  0  0  0  0  0  0  0  0  0  0
  160.1890  213.3600  149.8810 S   0  0  0  0  0  0  0  0  0  0  0  0
  157.5060  213.4950  149.5350 C   0  0  2  0  0  3  0  0  0  0  0  0
  159.5520  212.0840  150.9730 C   0  0  2  0  0  3  0  0  0  0  0  0
  162.2760  210.8010  157.2610 C   0  0  0  0  0  1  0  0  0  0  0  0
  160.0060  212.3340  153.3400 C   0  0  1  0  0  3  0  0  0  0  0  0
  157.5360  213.5560  151.0580 C   0  0  0  0  0  2  0  0  0  0  0  0
  158.8140  214.0310  148.9720 C   0  0  0  0  0  2  0  0  0  0  0  0
  161.8640  210.6830  155.8090 C   0  0  1  0  0  3  0  0  0  0  0  0
  160.9310  210.2740  152.0960 C   0  0  0  0  0  0  0  0  0  0  0  0
  158.6260  211.4620  155.0210 C   0  0  2  0  0  3  0  0  0  0  0  0
  156.3580  214.3330  149.0160 C   0  0  0  0  0  1  0  0  0  0  0  0
  160.9060  211.8190  155.4600 C   0  0  0  0  0  2  0  0  0  0  0  0
  160.1400  209.3020  151.4610 C   0  0  0  0  0  3  0  0  0  0  0  0
  162.3290  208.5020  153.0020 C   0  0  0  0  0  3  0  0  0  0  0  0
  161.5470  207.5460  152.3510 C   0  0  0  0  0  3  0  0  0  0  0  0
  163.1160  210.6950  154.9300 C   0  0  0  0  0  2  0  0  0  0  0  0
  158.5950  212.7840  153.0210 C   0  0  1  0  0  3  0  0  0  0  0  0
  159.9600  211.3720  154.4440 N   0  0  2  0  0  0  0  0  0  0  0  0
  158.2780  212.4270  151.6410 N   0  0  2  0  0  0  0  0  0  0  0  0
  156.7810  212.8900  154.5510 O   0  0  0  0  0  1  0  0  0  0  0  0
  160.5730  211.7480  152.0440 C   0  0  1  0  0  3  0  0  0  0  0  0
  1 21  1  0  0  0  0
  1  6  1  0  0  0  0
  4 22  1  0  0  0  0
  5 27  1  1  0  0  0
  5 17  1  0  0  0  0
  6 23  1  0  0  0  0
  7  8  2  0  0  0  0
  8  2  2  0  0  0  0
  9 18  1  6  0  0  0
  9 13  1  0  0  0  0
 10  8  1  1  0  0  0
 10 26  1  0  0  0  0
 10 28  1  0  0  0  0
 12 25  1  0  0  0  0
 13 26  1  0  0  0  0
 14  9  1  0  0  0  0
 14  8  1  0  0  0  0
 15 11  1  0  0  0  0
 16  1  2  0  0  0  0
 17  3  1  0  0  0  0
 19 15  1  0  0  0  0
 20  4  2  0  0  0  0
 20 16  1  0  0  0  0
 22 21  2  0  0  0  0
 23 15  1  0  0  0  0
 24 12  1  0  0  0  0
 24  5  1  0  0  0  0
 25 17  1  0  0  0  0
 25 19  1  0  0  0  0
 26 24  1  0  0  0  0
 28 16  1  0  0  0  0
 28 12  1  0  0  0  0
M  END
>  <MODEL>
2

>  <REMARK>
 VINA RESULT:      -0.2      2.560      5.039
  Name = 
  0 active torsions:
  status: ('A' for Active; 'I' for Inactive)
                            x       y       z     vdW  Elec       q    Type
                         _______ _______ _______ _____ _____    ______ ____

>  <TORSDO>
F 0

$$$$
=
 OpenBabel11122414133D

 28 32  0  0  1  0  0  0  0  0999 V2000
  161.2520  207.6470  156.1460 C   0  0  0  0  0  0  0  0  0  0  0  0
  163.6760  206.4670  151.6740 O   0  0  0  0  0  0  0  0  0  0  0  0
  159.4920  211.4810  154.1840 C   0  0  0  0  0  1  0  0  0  0  0  0
  158.5820  206.8730  155.8200 C   0  0  0  0  0  3  0  0  0  0  0  0
  160.4530  210.4590  152.1460 C   0  0  2  0  0  3  0  0  0  0  0  0
  162.5720  208.0800  156.2910 O   0  0  0  0  0  0  0  0  0  0  0  0
  162.2840  204.5710  152.3830 O   0  0  0  0  0  0  0  0  0  0  0  0
  162.2950  205.8750  151.6380 S   0  0  0  0  0  0  0  0  0  0  0  0
  160.6940  206.5700  149.5660 C   0  0  2  0  0  3  0  0  0  0  0  0
  161.1120  207.0090  152.3720 C   0  0  2  0  0  3  0  0  0  0  0  0
  162.8930  211.6860  157.2270 C   0  0  0  0  0  1  0  0  0  0  0  0
  161.9970  209.0470  153.3390 C   0  0  1  0  0  3  0  0  0  0  0  0
  161.0250  207.9710  150.0690 C   0  0  0  0  0  2  0  0  0  0  0  0
  161.8100  205.6090  149.9460 C   0  0  0  0  0  2  0  0  0  0  0  0
  162.2960  210.4890  156.5180 C   0  0  1  0  0  3  0  0  0  0  0  0
  160.7600  207.3730  154.8590 C   0  0  0  0  0  0  0  0  0  0  0  0
  160.7730  211.0390  153.5030 C   0  0  2  0  0  3  0  0  0  0  0  0
  160.5460  206.5930  148.0610 C   0  0  0  0  0  1  0  0  0  0  0  0
  162.5230  210.6240  155.0150 C   0  0  0  0  0  2  0  0  0  0  0  0
  159.4150  206.9970  154.7050 C   0  0  0  0  0  3  0  0  0  0  0  0
  160.4100  207.5320  157.2600 C   0  0  0  0  0  3  0  0  0  0  0  0
  159.0800  207.1390  157.0970 C   0  0  0  0  0  3  0  0  0  0  0  0
  162.9190  209.2110  157.0830 C   0  0  0  0  0  2  0  0  0  0  0  0
  161.4240  209.3200  151.9640 C   0  0  1  0  0  3  0  0  0  0  0  0
  161.4210  210.0000  154.2920 N   0  0  2  0  0  0  0  0  0  0  0  0
  160.7130  208.1320  151.4970 N   0  0  2  0  0  0  0  0  0  0  0  0
  160.6610  211.4200  151.1570 O   0  0  0  0  0  1  0  0  0  0  0  0
  161.6670  207.5870  153.6610 C   0  0  1  0  0  3  0  0  0  0  0  0
  1  6  1  0  0  0  0
  1 21  1  0  0  0  0
  4 22  1  0  0  0  0
  5 27  1  6  0  0  0
  5 17  1  0  0  0  0
  6 23  1  0  0  0  0
  8  2  2  0  0  0  0
  8  7  2  0  0  0  0
  9 18  1  6  0  0  0
  9 14  1  0  0  0  0
  9 13  1  0  0  0  0
 10  8  1  6  0  0  0
 10 28  1  0  0  0  0
 12 28  1  0  0  0  0
 12 25  1  0  0  0  0
 13 26  1  0  0  0  0
 14  8  1  0  0  0  0
 15 23  1  0  0  0  0
 15 11  1  0  0  0  0
 16  1  2  0  0  0  0
 17  3  1  0  0  0  0
 17 25  1  0  0  0  0
 19 15  1  0  0  0  0
 20 16  1  0  0  0  0
 20  4  2  0  0  0  0
 22 21  2  0  0  0  0
 24  5  1  0  0  0  0
 24 12  1  0  0  0  0
 25 19  1  0  0  0  0
 26 24  1  0  0  0  0
 26 10  1  0  0  0  0
 28 16  1  0  0  0  0
M  END
>  <MODEL>
3

>  <REMARK>
 VINA RESULT:      -0.0      3.024      5.625
  Name = 
  0 active torsions:
  status: ('A' for Active; 'I' for Inactive)
                            x       y       z     vdW  Elec       q    Type
                         _______ _______ _______ _____ _____    ______ ____

>  <TORSDO>
F 0

$$$$
