=
 OpenBabel11122413093D

 31 35  0  0  1  0  0  0  0  0999 V2000
  161.0400  206.6600  146.8860 C   0  0  0  0  0  0  0  0  0  0  0  0
  160.7690  204.8000  150.1310 N   0  0  0  0  0  0  0  0  0  0  0  0
  160.8760  203.3760  149.8880 C   0  0  0  0  0  0  0  0  0  0  0  0
  161.1030  201.4780  148.3810 C   0  0  0  0  0  0  0  0  0  0  0  0
  161.1410  205.7590  149.1220 C   0  0  0  0  0  0  0  0  0  0  0  0
  161.8980  207.6510  147.2510 N   0  0  0  0  0  0  0  0  0  0  0  0
  160.9240  202.8480  148.5870 C   0  0  0  0  0  3  0  0  0  0  0  0
  162.1910  205.9030  151.7790 C   0  0  2  0  0  3  0  0  0  0  0  0
  160.4310  206.5910  145.2470 Cl  0  0  0  0  0  0  0  0  0  0  0  0
  160.9640  203.0020  152.2770 O   0  0  0  0  0  0  0  0  0  0  0  0
  161.1580  200.8400  146.7510 Cl  0  0  0  0  0  0  0  0  0  0  0  0
  162.4980  206.8930  150.7900 O   0  0  0  0  0  0  0  0  0  0  0  0
  160.8020  205.3160  151.5110 C   0  0  2  0  0  3  0  0  0  0  0  0
  160.6420  205.6980  147.8160 C   0  0  0  0  0  3  0  0  0  0  0  0
  161.2560  200.6200  149.4720 C   0  0  0  0  0  3  0  0  0  0  0  0
  162.0200  206.7980  149.4760 C   0  0  0  0  0  0  0  0  0  0  0  0
  162.3900  207.7410  148.5160 C   0  0  0  0  0  3  0  0  0  0  0  0
  160.3720  204.2670  152.5440 C   0  0  0  0  0  2  0  0  0  0  0  0
  161.0110  202.4990  150.9790 C   0  0  0  0  0  0  0  0  0  0  0  0
  161.2120  201.1310  150.7710 C   0  0  0  0  0  3  0  0  0  0  0  0
  162.2860  206.5190  153.1660 C   0  0  0  0  0  2  0  0  0  0  0  0
  160.4830  206.1910  154.8670 C   0  0  0  0  0  1  0  0  0  0  0  0
  160.9060  206.9680  153.6330 C   0  0  1  0  0  3  0  0  0  0  0  0
  160.1120  211.0260  154.5300 N   0  0  0  0  0  0  0  0  0  0  0  0
  160.8530  208.8300  155.2920 C   0  0  0  0  0  2  0  0  0  0  0  0
  160.5670  209.0080  151.6330 O   0  0  0  0  0  0  0  0  0  0  0  0
  160.2240  212.4440  154.8150 C   0  0  0  0  0  1  0  0  0  0  0  0
  161.0340  210.3410  155.4290 C   0  0  0  0  0  2  0  0  0  0  0  0
  160.6530  209.3730  152.8350 C   0  0  0  0  0  0  0  0  0  0  0  0
  160.8720  208.4100  153.8880 N   0  0  0  0  0  0  0  0  0  0  0  0
  160.5880  210.8320  153.1640 C   0  0  0  0  0  2  0  0  0  0  0  0
  1  6  2  0  0  0  0
  1 14  1  0  0  0  0
  2 13  1  0  0  0  0
  3  2  1  0  0  0  0
  3 19  1  0  0  0  0
  4  7  1  0  0  0  0
  4 15  2  0  0  0  0
  5 16  1  0  0  0  0
  5  2  1  0  0  0  0
  6 17  1  0  0  0  0
  7  3  2  0  0  0  0
  8 21  1  1  0  0  0
  9  1  1  0  0  0  0
 10 18  1  0  0  0  0
 11  4  1  0  0  0  0
 12  8  1  0  0  0  0
 13  8  1  0  0  0  0
 13 18  1  1  0  0  0
 14  5  2  0  0  0  0
 15 20  1  0  0  0  0
 16 12  1  0  0  0  0
 17 16  2  0  0  0  0
 19 10  1  0  0  0  0
 20 19  2  0  0  0  0
 21 23  1  0  0  0  0
 23 30  1  0  0  0  0
 23 22  1  1  0  0  0
 24 27  1  0  0  0  0
 24 28  1  0  0  0  0
 25 28  1  0  0  0  0
 26 29  2  0  0  0  0
 29 31  1  0  0  0  0
 29 30  1  0  0  0  0
 30 25  1  0  0  0  0
 31 24  1  0  0  0  0
M  END
>  <MODEL>
1

>  <REMARK>
 VINA RESULT:      -7.9      0.000      0.000
  Name = 
  3 active torsions:
  status: ('A' for Active; 'I' for Inactive)
    1  A    between atoms: C_5  and  C_16
    2  A    between atoms: C_5  and  N_30
    3  A    between atoms: C_10  and  C_16
                            x       y       z     vdW  Elec       q    Type
                         _______ _______ _______ _____ _____    ______ ____

>  <TORSDO>
F 3

$$$$
=
 OpenBabel11122413093D

 31 35  0  0  1  0  0  0  0  0999 V2000
  160.4350  208.2730  155.4740 C   0  0  0  0  0  0  0  0  0  0  0  0
  161.5580  209.1210  151.9980 N   0  0  0  0  0  0  0  0  0  0  0  0
  161.4360  207.9560  151.1470 C   0  0  0  0  0  0  0  0  0  0  0  0
  160.8960  205.6070  150.8080 C   0  0  0  0  0  0  0  0  0  0  0  0
  160.9190  209.1740  153.2880 C   0  0  0  0  0  0  0  0  0  0  0  0
  159.6660  209.3620  155.7480 N   0  0  0  0  0  0  0  0  0  0  0  0
  161.0810  206.6970  151.6610 C   0  0  0  0  0  3  0  0  0  0  0  0
  160.5600  211.2550  151.3580 C   0  0  2  0  0  3  0  0  0  0  0  0
  160.6180  207.0100  156.6710 Cl  0  0  0  0  0  0  0  0  0  0  0  0
  161.9560  209.3350  149.2280 O   0  0  0  0  0  0  0  0  0  0  0  0
  160.4560  204.0470  151.4690 Cl  0  0  0  0  0  0  0  0  0  0  0  0
  159.9870  211.3330  152.6690 O   0  0  0  0  0  0  0  0  0  0  0  0
  161.8540  210.4380  151.4060 C   0  0  2  0  0  3  0  0  0  0  0  0
  161.0790  208.1610  154.2400 C   0  0  0  0  0  3  0  0  0  0  0  0
  161.0450  205.7640  149.4290 C   0  0  0  0  0  3  0  0  0  0  0  0
  160.1270  210.2930  153.5990 C   0  0  0  0  0  0  0  0  0  0  0  0
  159.5020  210.3670  154.8460 C   0  0  0  0  0  3  0  0  0  0  0  0
  162.5590  210.3290  150.0470 C   0  0  0  0  0  2  0  0  0  0  0  0
  161.6010  208.0970  149.7580 C   0  0  0  0  0  0  0  0  0  0  0  0
  161.3950  207.0100  148.9030 C   0  0  0  0  0  3  0  0  0  0  0  0
  160.7960  212.6560  150.8190 C   0  0  0  0  0  2  0  0  0  0  0  0
  159.1310  214.2870  149.9150 C   0  0  0  0  0  1  0  0  0  0  0  0
  159.8180  212.9530  149.6880 C   0  0  1  0  0  3  0  0  0  0  0  0
  161.7070  213.5930  145.9570 N   0  0  0  0  0  0  0  0  0  0  0  0
  161.9090  213.2720  148.3670 C   0  0  0  0  0  2  0  0  0  0  0  0
  158.5110  212.5780  147.1520 O   0  0  0  0  0  0  0  0  0  0  0  0
  162.4280  213.4350  144.7070 C   0  0  0  0  0  1  0  0  0  0  0  0
  162.5370  213.0010  147.0000 C   0  0  0  0  0  2  0  0  0  0  0  0
  159.7550  212.7770  147.1480 C   0  0  0  0  0  0  0  0  0  0  0  0
  160.4860  212.9260  148.3850 N   0  0  0  0  0  0  0  0  0  0  0  0
  160.4890  212.7960  145.8440 C   0  0  0  0  0  2  0  0  0  0  0  0
  1  6  1  0  0  0  0
  1  9  1  0  0  0  0
  2  5  1  0  0  0  0
  3  7  1  0  0  0  0
  3  2  1  0  0  0  0
  4 11  1  0  0  0  0
  4  7  2  0  0  0  0
  5 16  2  0  0  0  0
  5 14  1  0  0  0  0
  8 21  1  1  0  0  0
  8 13  1  0  0  0  0
  8 12  1  0  0  0  0
 10 19  1  0  0  0  0
 10 18  1  0  0  0  0
 12 16  1  0  0  0  0
 13 18  1  6  0  0  0
 13  2  1  0  0  0  0
 14  1  2  0  0  0  0
 15  4  1  0  0  0  0
 16 17  1  0  0  0  0
 17  6  2  0  0  0  0
 19  3  2  0  0  0  0
 20 15  2  0  0  0  0
 20 19  1  0  0  0  0
 23 22  1  1  0  0  0
 23 21  1  0  0  0  0
 24 28  1  0  0  0  0
 25 30  1  0  0  0  0
 27 24  1  0  0  0  0
 28 25  1  0  0  0  0
 29 26  2  0  0  0  0
 29 30  1  0  0  0  0
 30 23  1  0  0  0  0
 31 24  1  0  0  0  0
 31 29  1  0  0  0  0
M  END
>  <MODEL>
2

>  <REMARK>
 VINA RESULT:      -7.8      4.227      7.144
  Name = 
  3 active torsions:
  status: ('A' for Active; 'I' for Inactive)
    1  A    between atoms: C_5  and  C_16
    2  A    between atoms: C_5  and  N_30
    3  A    between atoms: C_10  and  C_16
                            x       y       z     vdW  Elec       q    Type
                         _______ _______ _______ _____ _____    ______ ____

>  <TORSDO>
F 3

$$$$
=
 OpenBabel11122413093D

 31 35  0  0  1  0  0  0  0  0999 V2000
  162.2040  209.8380  149.2370 C   0  0  0  0  0  0  0  0  0  0  0  0
  161.5520  207.5880  152.1670 N   0  0  0  0  0  0  0  0  0  0  0  0
  161.0120  208.3610  153.2660 C   0  0  0  0  0  0  0  0  0  0  0  0
  160.3220  210.4770  154.2520 C   0  0  0  0  0  0  0  0  0  0  0  0
  161.6070  208.1260  150.8310 C   0  0  0  0  0  0  0  0  0  0  0  0
  161.6840  209.0780  148.2350 N   0  0  0  0  0  0  0  0  0  0  0  0
  160.9160  209.7620  153.2100 C   0  0  0  0  0  3  0  0  0  0  0  0
  160.4190  205.5800  151.3660 C   0  0  2  0  0  3  0  0  0  0  0  0
  162.9070  211.3990  148.8770 Cl  0  0  0  0  0  0  0  0  0  0  0  0
  160.5860  206.3050  154.4680 O   0  0  0  0  0  0  0  0  0  0  0  0
  160.2150  212.2220  154.1630 Cl  0  0  0  0  0  0  0  0  0  0  0  0
  160.5430  206.0910  150.0340 O   0  0  0  0  0  0  0  0  0  0  0  0
  161.5600  206.1160  152.2350 C   0  0  2  0  0  3  0  0  0  0  0  0
  162.1790  209.3730  150.5540 C   0  0  0  0  0  3  0  0  0  0  0  0
  159.7980  209.7990  155.3550 C   0  0  0  0  0  3  0  0  0  0  0  0
  161.0850  207.3580  149.7760 C   0  0  0  0  0  0  0  0  0  0  0  0
  161.1330  207.8580  148.4740 C   0  0  0  0  0  3  0  0  0  0  0  0
  161.5290  205.5920  153.6770 C   0  0  0  0  0  2  0  0  0  0  0  0
  160.4980  207.6920  154.3910 C   0  0  0  0  0  0  0  0  0  0  0  0
  159.8840  208.4080  155.4240 C   0  0  0  0  0  3  0  0  0  0  0  0
  160.4010  204.0600  151.3310 C   0  0  0  0  0  2  0  0  0  0  0  0
  162.3480  202.4920  151.3230 C   0  0  0  0  0  1  0  0  0  0  0  0
  161.5900  203.5420  150.5310 C   0  0  1  0  0  3  0  0  0  0  0  0
  160.9390  201.5670  146.8460 N   0  0  0  0  0  0  0  0  0  0  0  0
  160.4880  201.7160  149.2390 C   0  0  0  0  0  2  0  0  0  0  0  0
  162.2550  204.6780  147.9720 O   0  0  0  0  0  0  0  0  0  0  0  0
  160.3830  201.0870  145.5950 C   0  0  0  0  0  1  0  0  0  0  0  0
  159.9130  201.3740  147.8650 C   0  0  0  0  0  2  0  0  0  0  0  0
  161.5810  203.6140  147.9850 C   0  0  0  0  0  0  0  0  0  0  0  0
  161.1700  203.0130  149.2320 N   0  0  0  0  0  0  0  0  0  0  0  0
  161.1520  203.0030  146.6880 C   0  0  0  0  0  2  0  0  0  0  0  0
  1 14  1  0  0  0  0
  2 13  1  0  0  0  0
  2  3  1  0  0  0  0
  3 19  1  0  0  0  0
  4 15  2  0  0  0  0
  5  2  1  0  0  0  0
  6 17  1  0  0  0  0
  6  1  2  0  0  0  0
  7  3  2  0  0  0  0
  7  4  1  0  0  0  0
  8 21  1  6  0  0  0
  8 13  1  0  0  0  0
  9  1  1  0  0  0  0
 11  4  1  0  0  0  0
 12  8  1  0  0  0  0
 13 18  1  1  0  0  0
 14  5  2  0  0  0  0
 15 20  1  0  0  0  0
 16 12  1  0  0  0  0
 16  5  1  0  0  0  0
 17 16  2  0  0  0  0
 18 10  1  0  0  0  0
 19 10  1  0  0  0  0
 19 20  2  0  0  0  0
 23 22  1  1  0  0  0
 23 21  1  0  0  0  0
 24 28  1  0  0  0  0
 26 29  2  0  0  0  0
 27 24  1  0  0  0  0
 28 25  1  0  0  0  0
 29 30  1  0  0  0  0
 30 25  1  0  0  0  0
 30 23  1  0  0  0  0
 31 24  1  0  0  0  0
 31 29  1  0  0  0  0
M  END
>  <MODEL>
3

>  <REMARK>
 VINA RESULT:      -7.5      2.944      7.371
  Name = 
  3 active torsions:
  status: ('A' for Active; 'I' for Inactive)
    1  A    between atoms: C_5  and  C_16
    2  A    between atoms: C_5  and  N_30
    3  A    between atoms: C_10  and  C_16
                            x       y       z     vdW  Elec       q    Type
                         _______ _______ _______ _____ _____    ______ ____

>  <TORSDO>
F 3

$$$$
=
 OpenBabel11122413093D

 31 35  0  0  1  0  0  0  0  0999 V2000
  162.0800  210.5540  149.3010 C   0  0  0  0  0  0  0  0  0  0  0  0
  161.9290  208.1930  152.2100 N   0  0  0  0  0  0  0  0  0  0  0  0
  161.0930  208.7540  153.2520 C   0  0  0  0  0  0  0  0  0  0  0  0
  159.7100  210.5460  154.1460 C   0  0  0  0  0  0  0  0  0  0  0  0
  161.9180  208.7310  150.8740 C   0  0  0  0  0  0  0  0  0  0  0  0
  161.8990  209.6790  148.2750 N   0  0  0  0  0  0  0  0  0  0  0  0
  160.5750  210.0570  153.1650 C   0  0  0  0  0  3  0  0  0  0  0  0
  161.5340  205.9390  151.3610 C   0  0  2  0  0  3  0  0  0  0  0  0
  162.2940  212.2580  148.9680 Cl  0  0  0  0  0  0  0  0  0  0  0  0
  161.2290  206.6570  154.4530 O   0  0  0  0  0  0  0  0  0  0  0  0
  159.0790  212.1740  154.0200 Cl  0  0  0  0  0  0  0  0  0  0  0  0
  161.5970  206.4730  150.0330 O   0  0  0  0  0  0  0  0  0  0  0  0
  162.3840  206.7940  152.3050 C   0  0  2  0  0  3  0  0  0  0  0  0
  162.0980  210.0950  150.6200 C   0  0  0  0  0  3  0  0  0  0  0  0
  159.3370  209.7330  155.2180 C   0  0  0  0  0  3  0  0  0  0  0  0
  161.7410  207.8470  149.7950 C   0  0  0  0  0  0  0  0  0  0  0  0
  161.7330  208.3470  148.4920 C   0  0  0  0  0  3  0  0  0  0  0  0
  162.4040  206.2760  153.7490 C   0  0  0  0  0  2  0  0  0  0  0  0
  160.7240  207.9510  154.3460 C   0  0  0  0  0  0  0  0  0  0  0  0
  159.8420  208.4350  155.3170 C   0  0  0  0  0  3  0  0  0  0  0  0
  161.9880  204.4880  151.3510 C   0  0  0  0  0  2  0  0  0  0  0  0
  159.5060  204.3430  151.0920 C   0  0  0  0  0  1  0  0  0  0  0  0
  160.8130  203.5740  151.0220 C   0  0  1  0  0  3  0  0  0  0  0  0
  160.5770  201.8530  147.1640 N   0  0  0  0  0  0  0  0  0  0  0  0
  160.9490  203.8300  148.5460 C   0  0  0  0  0  2  0  0  0  0  0  0
  160.8790  200.7400  150.5330 O   0  0  0  0  0  0  0  0  0  0  0  0
  160.8820  201.2780  145.8670 C   0  0  0  0  0  1  0  0  0  0  0  0
  161.3420  203.0910  147.2670 C   0  0  0  0  0  2  0  0  0  0  0  0
  160.9560  201.5090  149.5390 C   0  0  0  0  0  0  0  0  0  0  0  0
  160.9770  202.9430  149.7110 N   0  0  0  0  0  0  0  0  0  0  0  0
  161.0890  200.9240  148.1670 C   0  0  0  0  0  2  0  0  0  0  0  0
  1 14  1  0  0  0  0
  2 13  1  0  0  0  0
  2  3  1  0  0  0  0
  3 19  1  0  0  0  0
  4 15  2  0  0  0  0
  5  2  1  0  0  0  0
  6 17  1  0  0  0  0
  6  1  2  0  0  0  0
  7  3  2  0  0  0  0
  7  4  1  0  0  0  0
  8 21  1  6  0  0  0
  8 13  1  0  0  0  0
  9  1  1  0  0  0  0
 11  4  1  0  0  0  0
 12  8  1  0  0  0  0
 13 18  1  1  0  0  0
 14  5  2  0  0  0  0
 15 20  1  0  0  0  0
 16 12  1  0  0  0  0
 16  5  1  0  0  0  0
 17 16  2  0  0  0  0
 18 10  1  0  0  0  0
 19 10  1  0  0  0  0
 19 20  2  0  0  0  0
 23 22  1  6  0  0  0
 23 21  1  0  0  0  0
 24 28  1  0  0  0  0
 24 31  1  0  0  0  0
 25 30  1  0  0  0  0
 27 24  1  0  0  0  0
 28 25  1  0  0  0  0
 29 30  1  0  0  0  0
 29 26  2  0  0  0  0
 30 23  1  0  0  0  0
 31 29  1  0  0  0  0
M  END
>  <MODEL>
4

>  <REMARK>
 VINA RESULT:      -7.2      2.993      7.443
  Name = 
  3 active torsions:
  status: ('A' for Active; 'I' for Inactive)
    1  A    between atoms: C_5  and  C_16
    2  A    between atoms: C_5  and  N_30
    3  A    between atoms: C_10  and  C_16
                            x       y       z     vdW  Elec       q    Type
                         _______ _______ _______ _____ _____    ______ ____

>  <TORSDO>
F 3

$$$$
=
 OpenBabel11122413093D

 31 35  0  0  1  0  0  0  0  0999 V2000
  160.9990  201.7590  149.3170 C   0  0  0  0  0  0  0  0  0  0  0  0
  162.0160  205.2050  150.3900 N   0  0  0  0  0  0  0  0  0  0  0  0
  161.7820  206.1420  149.3100 C   0  0  0  0  0  0  0  0  0  0  0  0
  161.0790  206.6460  147.0350 C   0  0  0  0  0  0  0  0  0  0  0  0
  161.4410  203.8850  150.3700 C   0  0  0  0  0  0  0  0  0  0  0  0
  160.3140  201.3580  150.4220 N   0  0  0  0  0  0  0  0  0  0  0  0
  161.3710  205.7160  148.0360 C   0  0  0  0  0  3  0  0  0  0  0  0
  161.1270  205.6170  152.6250 C   0  0  2  0  0  3  0  0  0  0  0  0
  161.1550  200.6800  147.9480 Cl  0  0  0  0  0  0  0  0  0  0  0  0
  162.3020  207.9650  150.8150 O   0  0  0  0  0  0  0  0  0  0  0  0
  160.5710  206.0940  145.4530 Cl  0  0  0  0  0  0  0  0  0  0  0  0
  160.6210  204.2770  152.6250 O   0  0  0  0  0  0  0  0  0  0  0  0
  162.3680  205.7010  151.7320 C   0  0  2  0  0  3  0  0  0  0  0  0
  161.5790  203.0290  149.2720 C   0  0  0  0  0  3  0  0  0  0  0  0
  161.1760  208.0130  147.3000 C   0  0  0  0  0  3  0  0  0  0  0  0
  160.7350  203.4430  151.5040 C   0  0  0  0  0  0  0  0  0  0  0  0
  160.1740  202.1650  151.5080 C   0  0  0  0  0  3  0  0  0  0  0  0
  163.0030  207.0980  151.6980 C   0  0  0  0  0  2  0  0  0  0  0  0
  161.8940  207.5220  149.5590 C   0  0  0  0  0  0  0  0  0  0  0  0
  161.5800  208.4510  148.5630 C   0  0  0  0  0  3  0  0  0  0  0  0
  161.4270  206.0500  154.0510 C   0  0  0  0  0  2  0  0  0  0  0  0
  159.3900  206.5790  155.4010 C   0  0  0  0  0  1  0  0  0  0  0  0
  160.4570  207.1440  154.4810 C   0  0  1  0  0  3  0  0  0  0  0  0
  161.8500  210.5050  156.6410 N   0  0  0  0  0  0  0  0  0  0  0  0
  161.5160  208.0900  156.5310 C   0  0  0  0  0  2  0  0  0  0  0  0
  160.9150  209.7250  153.2950 O   0  0  0  0  0  0  0  0  0  0  0  0
  162.6710  211.5280  157.2600 C   0  0  0  0  0  1  0  0  0  0  0  0
  162.4230  209.2180  157.0200 C   0  0  0  0  0  2  0  0  0  0  0  0
  161.3110  209.5430  154.4770 C   0  0  0  0  0  0  0  0  0  0  0  0
  161.1590  208.2590  155.1200 N   0  0  0  0  0  0  0  0  0  0  0  0
  162.0040  210.6570  155.1970 C   0  0  0  0  0  2  0  0  0  0  0  0
  1  6  1  0  0  0  0
  2 13  1  0  0  0  0
  3 19  1  0  0  0  0
  3  2  1  0  0  0  0
  4 15  2  0  0  0  0
  4  7  1  0  0  0  0
  5  2  1  0  0  0  0
  5 16  2  0  0  0  0
  6 17  2  0  0  0  0
  7  3  2  0  0  0  0
  8 21  1  1  0  0  0
  9  1  1  0  0  0  0
 10 18  1  0  0  0  0
 11  4  1  0  0  0  0
 12  8  1  0  0  0  0
 13 18  1  6  0  0  0
 13  8  1  0  0  0  0
 14  1  2  0  0  0  0
 14  5  1  0  0  0  0
 15 20  1  0  0  0  0
 16 17  1  0  0  0  0
 16 12  1  0  0  0  0
 19 10  1  0  0  0  0
 20 19  2  0  0  0  0
 21 23  1  0  0  0  0
 23 30  1  0  0  0  0
 23 22  1  1  0  0  0
 24 28  1  0  0  0  0
 24 27  1  0  0  0  0
 25 28  1  0  0  0  0
 26 29  2  0  0  0  0
 29 30  1  0  0  0  0
 29 31  1  0  0  0  0
 30 25  1  0  0  0  0
 31 24  1  0  0  0  0
M  END
>  <MODEL>
5

>  <REMARK>
 VINA RESULT:      -6.4      1.492      4.157
  Name = 
  3 active torsions:
  status: ('A' for Active; 'I' for Inactive)
    1  A    between atoms: C_5  and  C_16
    2  A    between atoms: C_5  and  N_30
    3  A    between atoms: C_10  and  C_16
                            x       y       z     vdW  Elec       q    Type
                         _______ _______ _______ _____ _____    ______ ____

>  <TORSDO>
F 3

$$$$
=
 OpenBabel11122413093D

 31 35  0  0  1  0  0  0  0  0999 V2000
  161.5950  210.3180  148.5600 C   0  0  0  0  0  0  0  0  0  0  0  0
  161.0260  206.8620  149.9030 N   0  0  0  0  0  0  0  0  0  0  0  0
  161.2480  205.8880  148.8540 C   0  0  0  0  0  0  0  0  0  0  0  0
  161.7800  205.3160  146.5490 C   0  0  0  0  0  0  0  0  0  0  0  0
  161.4650  208.2270  149.7590 C   0  0  0  0  0  0  0  0  0  0  0  0
  162.3380  210.8460  149.5710 N   0  0  0  0  0  0  0  0  0  0  0  0
  161.4930  206.2730  147.5250 C   0  0  0  0  0  3  0  0  0  0  0  0
  162.1580  206.6700  152.0570 C   0  0  2  0  0  3  0  0  0  0  0  0
  161.2040  211.2930  147.1610 Cl  0  0  0  0  0  0  0  0  0  0  0  0
  161.0540  204.1190  150.4940 O   0  0  0  0  0  0  0  0  0  0  0  0
  162.0800  205.8170  144.8990 Cl  0  0  0  0  0  0  0  0  0  0  0  0
  162.5280  208.0490  151.9380 O   0  0  0  0  0  0  0  0  0  0  0  0
  160.8530  206.4170  151.2970 C   0  0  2  0  0  3  0  0  0  0  0  0
  161.1410  208.9990  148.6380 C   0  0  0  0  0  3  0  0  0  0  0  0
  161.8440  203.9640  146.8920 C   0  0  0  0  0  3  0  0  0  0  0  0
  162.2270  208.7990  150.7930 C   0  0  0  0  0  0  0  0  0  0  0  0
  162.6580  210.1220  150.6770 C   0  0  0  0  0  3  0  0  0  0  0  0
  160.3580  204.9680  151.3970 C   0  0  0  0  0  2  0  0  0  0  0  0
  161.2970  204.5220  149.1830 C   0  0  0  0  0  0  0  0  0  0  0  0
  161.6050  203.5670  148.2090 C   0  0  0  0  0  3  0  0  0  0  0  0
  162.0380  206.2980  153.5260 C   0  0  0  0  0  2  0  0  0  0  0  0
  160.0810  206.0260  155.0570 C   0  0  0  0  0  1  0  0  0  0  0  0
  160.8230  206.9810  154.1410 C   0  0  1  0  0  3  0  0  0  0  0  0
  161.3090  210.4020  156.5840 N   0  0  0  0  0  0  0  0  0  0  0  0
  161.7420  208.0300  156.2080 C   0  0  0  0  0  2  0  0  0  0  0  0
  160.3140  209.6680  153.2450 O   0  0  0  0  0  0  0  0  0  0  0  0
  161.8270  211.5760  157.2610 C   0  0  0  0  0  1  0  0  0  0  0  0
  162.2950  209.3420  156.7630 C   0  0  0  0  0  2  0  0  0  0  0  0
  160.8720  209.5180  154.3640 C   0  0  0  0  0  0  0  0  0  0  0  0
  161.2020  208.2010  154.8570 N   0  0  0  0  0  0  0  0  0  0  0  0
  161.2510  210.7270  155.1620 C   0  0  0  0  0  2  0  0  0  0  0  0
  1 14  2  0  0  0  0
  1  6  1  0  0  0  0
  2 13  1  0  0  0  0
  3 19  1  0  0  0  0
  3  2  1  0  0  0  0
  4 15  2  0  0  0  0
  4  7  1  0  0  0  0
  5  2  1  0  0  0  0
  5 16  2  0  0  0  0
  6 17  2  0  0  0  0
  7  3  2  0  0  0  0
  8 21  1  1  0  0  0
  9  1  1  0  0  0  0
 10 18  1  0  0  0  0
 11  4  1  0  0  0  0
 12  8  1  0  0  0  0
 13 18  1  6  0  0  0
 13  8  1  0  0  0  0
 14  5  1  0  0  0  0
 15 20  1  0  0  0  0
 16 12  1  0  0  0  0
 17 16  1  0  0  0  0
 19 10  1  0  0  0  0
 20 19  2  0  0  0  0
 21 23  1  0  0  0  0
 23 30  1  0  0  0  0
 23 22  1  1  0  0  0
 24 28  1  0  0  0  0
 24 27  1  0  0  0  0
 25 28  1  0  0  0  0
 26 29  2  0  0  0  0
 29 30  1  0  0  0  0
 29 31  1  0  0  0  0
 30 25  1  0  0  0  0
 31 24  1  0  0  0  0
M  END
>  <MODEL>
6

>  <REMARK>
 VINA RESULT:      -6.4      1.991      2.833
  Name = 
  3 active torsions:
  status: ('A' for Active; 'I' for Inactive)
    1  A    between atoms: C_5  and  C_16
    2  A    between atoms: C_5  and  N_30
    3  A    between atoms: C_10  and  C_16
                            x       y       z     vdW  Elec       q    Type
                         _______ _______ _______ _____ _____    ______ ____

>  <TORSDO>
F 3

$$$$
=
 OpenBabel11122413093D

 31 35  0  0  1  0  0  0  0  0999 V2000
  161.6700  212.1690  149.0430 C   0  0  0  0  0  0  0  0  0  0  0  0
  162.1780  208.9510  150.9020 N   0  0  0  0  0  0  0  0  0  0  0  0
  161.5030  209.0140  152.1820 C   0  0  0  0  0  0  0  0  0  0  0  0
  160.1860  210.2080  153.8440 C   0  0  0  0  0  0  0  0  0  0  0  0
  161.9010  209.9100  149.8630 C   0  0  0  0  0  0  0  0  0  0  0  0
  161.3690  211.6840  147.8080 N   0  0  0  0  0  0  0  0  0  0  0  0
  160.8960  210.1950  152.6410 C   0  0  0  0  0  3  0  0  0  0  0  0
  161.7860  207.0960  149.3640 C   0  0  2  0  0  3  0  0  0  0  0  0
  161.7140  213.8960  149.3180 Cl  0  0  0  0  0  0  0  0  0  0  0  0
  161.9790  206.6650  152.5180 O   0  0  0  0  0  0  0  0  0  0  0  0
  159.4390  211.6900  154.4000 Cl  0  0  0  0  0  0  0  0  0  0  0  0
  161.5830  208.0570  148.3220 O   0  0  0  0  0  0  0  0  0  0  0  0
  162.7310  207.6710  150.4230 C   0  0  2  0  0  3  0  0  0  0  0  0
  161.9460  211.2900  150.0930 C   0  0  0  0  0  3  0  0  0  0  0  0
  160.0580  209.0370  154.5940 C   0  0  0  0  0  3  0  0  0  0  0  0
  161.5960  209.4360  148.5750 C   0  0  0  0  0  0  0  0  0  0  0  0
  161.3290  210.3490  147.5530 C   0  0  0  0  0  3  0  0  0  0  0  0
  163.0350  206.6950  151.5670 C   0  0  0  0  0  2  0  0  0  0  0  0
  161.3820  207.8450  152.9550 C   0  0  0  0  0  0  0  0  0  0  0  0
  160.6540  207.8550  154.1480 C   0  0  0  0  0  3  0  0  0  0  0  0
  162.3230  205.8040  148.7700 C   0  0  0  0  0  2  0  0  0  0  0  0
  160.1570  205.0960  149.8000 C   0  0  0  0  0  1  0  0  0  0  0  0
  161.4920  204.6210  149.2530 C   0  0  1  0  0  3  0  0  0  0  0  0
  160.2580  202.0300  146.1440 N   0  0  0  0  0  0  0  0  0  0  0  0
  161.2750  204.1440  146.8150 C   0  0  0  0  0  2  0  0  0  0  0  0
  160.8530  201.8440  149.6490 O   0  0  0  0  0  0  0  0  0  0  0  0
  160.2130  201.0640  145.0630 C   0  0  0  0  0  1  0  0  0  0  0  0
  161.2820  203.0080  145.7930 C   0  0  0  0  0  2  0  0  0  0  0  0
  160.9340  202.2640  148.4650 C   0  0  0  0  0  0  0  0  0  0  0  0
  161.2970  203.6340  148.1890 N   0  0  0  0  0  0  0  0  0  0  0  0
  160.7100  201.3120  147.3320 C   0  0  0  0  0  2  0  0  0  0  0  0
  1  9  1  0  0  0  0
  1 14  1  0  0  0  0
  2  3  1  0  0  0  0
  3  7  2  0  0  0  0
  3 19  1  0  0  0  0
  4 11  1  0  0  0  0
  4 15  2  0  0  0  0
  5 14  2  0  0  0  0
  5  2  1  0  0  0  0
  6  1  2  0  0  0  0
  7  4  1  0  0  0  0
  8 21  1  6  0  0  0
  8 13  1  0  0  0  0
 10 19  1  0  0  0  0
 12 16  1  0  0  0  0
 12  8  1  0  0  0  0
 13  2  1  0  0  0  0
 13 18  1  1  0  0  0
 16  5  1  0  0  0  0
 17  6  1  0  0  0  0
 17 16  2  0  0  0  0
 18 10  1  0  0  0  0
 19 20  2  0  0  0  0
 20 15  1  0  0  0  0
 21 23  1  0  0  0  0
 23 22  1  6  0  0  0
 24 31  1  0  0  0  0
 25 30  1  0  0  0  0
 27 24  1  0  0  0  0
 28 24  1  0  0  0  0
 28 25  1  0  0  0  0
 29 26  2  0  0  0  0
 30 29  1  0  0  0  0
 30 23  1  0  0  0  0
 31 29  1  0  0  0  0
M  END
>  <MODEL>
7

>  <REMARK>
 VINA RESULT:      -6.3      3.533      7.719
  Name = 
  3 active torsions:
  status: ('A' for Active; 'I' for Inactive)
    1  A    between atoms: C_5  and  C_16
    2  A    between atoms: C_5  and  N_30
    3  A    between atoms: C_10  and  C_16
                            x       y       z     vdW  Elec       q    Type
                         _______ _______ _______ _____ _____    ______ ____

>  <TORSDO>
F 3

$$$$
=
 OpenBabel11122413093D

 31 35  0  0  1  0  0  0  0  0999 V2000
  162.0810  209.4760  148.9540 C   0  0  0  0  0  0  0  0  0  0  0  0
  161.6840  206.5720  151.2940 N   0  0  0  0  0  0  0  0  0  0  0  0
  161.3140  207.0520  152.6100 C   0  0  0  0  0  0  0  0  0  0  0  0
  160.8420  208.8620  154.1670 C   0  0  0  0  0  0  0  0  0  0  0  0
  161.6030  207.4270  150.1370 C   0  0  0  0  0  0  0  0  0  0  0  0
  161.4120  209.0000  147.8690 N   0  0  0  0  0  0  0  0  0  0  0  0
  161.2750  208.4230  152.9140 C   0  0  0  0  0  3  0  0  0  0  0  0
  160.3730  204.8450  150.1730 C   0  0  2  0  0  3  0  0  0  0  0  0
  162.8050  211.0680  148.9040 Cl  0  0  0  0  0  0  0  0  0  0  0  0
  160.9420  204.7660  153.3100 O   0  0  0  0  0  0  0  0  0  0  0  0
  160.8040  210.5750  154.5270 Cl  0  0  0  0  0  0  0  0  0  0  0  0
  160.3600  205.6720  149.0030 O   0  0  0  0  0  0  0  0  0  0  0  0
  161.6330  205.1300  150.9950 C   0  0  2  0  0  3  0  0  0  0  0  0
  162.1930  208.6960  150.1070 C   0  0  0  0  0  3  0  0  0  0  0  0
  160.4250  207.9370  155.1270 C   0  0  0  0  0  3  0  0  0  0  0  0
  160.9240  206.9560  149.0000 C   0  0  0  0  0  0  0  0  0  0  0  0
  160.8380  207.7660  147.8660 C   0  0  0  0  0  3  0  0  0  0  0  0
  161.7510  204.2610  152.2540 C   0  0  0  0  0  2  0  0  0  0  0  0
  160.9080  206.1290  153.5910 C   0  0  0  0  0  0  0  0  0  0  0  0
  160.4550  206.5710  154.8370 C   0  0  0  0  0  3  0  0  0  0  0  0
  160.2830  203.3830  149.7650 C   0  0  0  0  0  2  0  0  0  0  0  0
  161.7530  201.4400  149.2070 C   0  0  0  0  0  1  0  0  0  0  0  0
  161.5830  202.9440  149.1020 C   0  0  1  0  0  3  0  0  0  0  0  0
  161.2740  204.7000  145.2640 N   0  0  0  0  0  0  0  0  0  0  0  0
  162.3980  204.6030  147.4280 C   0  0  0  0  0  2  0  0  0  0  0  0
  160.1020  201.7780  146.9280 O   0  0  0  0  0  0  0  0  0  0  0  0
  161.4730  205.0750  143.8770 C   0  0  0  0  0  1  0  0  0  0  0  0
  162.5670  204.8320  145.9260 C   0  0  0  0  0  2  0  0  0  0  0  0
  160.8340  202.7710  146.6740 C   0  0  0  0  0  0  0  0  0  0  0  0
  161.6420  203.3790  147.7040 N   0  0  0  0  0  0  0  0  0  0  0  0
  160.9090  203.2860  145.2700 C   0  0  0  0  0  2  0  0  0  0  0  0
  1 14  1  0  0  0  0
  2  3  1  0  0  0  0
  3  7  2  0  0  0  0
  3 19  1  0  0  0  0
  4 11  1  0  0  0  0
  4 15  2  0  0  0  0
  5  2  1  0  0  0  0
  6  1  2  0  0  0  0
  7  4  1  0  0  0  0
  8 21  1  6  0  0  0
  8 13  1  0  0  0  0
  9  1  1  0  0  0  0
 10 19  1  0  0  0  0
 12  8  1  0  0  0  0
 13  2  1  0  0  0  0
 13 18  1  1  0  0  0
 14  5  2  0  0  0  0
 16 12  1  0  0  0  0
 16  5  1  0  0  0  0
 17  6  1  0  0  0  0
 17 16  2  0  0  0  0
 18 10  1  0  0  0  0
 19 20  2  0  0  0  0
 20 15  1  0  0  0  0
 23 22  1  6  0  0  0
 23 21  1  0  0  0  0
 24 31  1  0  0  0  0
 24 28  1  0  0  0  0
 25 30  1  0  0  0  0
 27 24  1  0  0  0  0
 28 25  1  0  0  0  0
 29 26  2  0  0  0  0
 29 30  1  0  0  0  0
 30 23  1  0  0  0  0
 31 29  1  0  0  0  0
M  END
>  <MODEL>
8

>  <REMARK>
 VINA RESULT:      -6.3      3.031      7.053
  Name = 
  3 active torsions:
  status: ('A' for Active; 'I' for Inactive)
    1  A    between atoms: C_5  and  C_16
    2  A    between atoms: C_5  and  N_30
    3  A    between atoms: C_10  and  C_16
                            x       y       z     vdW  Elec       q    Type
                         _______ _______ _______ _____ _____    ______ ____

>  <TORSDO>
F 3

$$$$
=
 OpenBabel11122413093D

 31 35  0  0  1  0  0  0  0  0999 V2000
  161.1670  202.3510  151.0040 C   0  0  0  0  0  0  0  0  0  0  0  0
  161.8260  205.3340  148.8290 N   0  0  0  0  0  0  0  0  0  0  0  0
  161.5390  205.0050  147.4480 C   0  0  0  0  0  0  0  0  0  0  0  0
  160.8620  203.4230  145.7270 C   0  0  0  0  0  0  0  0  0  0  0  0
  161.3770  204.4900  149.9070 C   0  0  0  0  0  0  0  0  0  0  0  0
  160.4890  202.9460  152.0240 N   0  0  0  0  0  0  0  0  0  0  0  0
  161.2090  203.6980  147.0510 C   0  0  0  0  0  3  0  0  0  0  0  0
  160.8350  207.2990  149.8840 C   0  0  2  0  0  3  0  0  0  0  0  0
  161.4650  200.6270  151.0410 Cl  0  0  0  0  0  0  0  0  0  0  0  0
  161.8400  207.3320  146.8580 O   0  0  0  0  0  0  0  0  0  0  0  0
  160.4560  201.7870  145.2530 Cl  0  0  0  0  0  0  0  0  0  0  0  0
  160.4560  206.4650  150.9850 O   0  0  0  0  0  0  0  0  0  0  0  0
  162.0890  206.7320  149.2130 C   0  0  2  0  0  3  0  0  0  0  0  0
  161.6270  203.1140  149.9280 C   0  0  0  0  0  3  0  0  0  0  0  0
  160.8220  204.4530  144.7850 C   0  0  0  0  0  3  0  0  0  0  0  0
  160.6810  205.0810  150.9760 C   0  0  0  0  0  0  0  0  0  0  0  0
  160.2410  204.2830  152.0340 C   0  0  0  0  0  3  0  0  0  0  0  0
  162.5920  207.5830  148.0390 C   0  0  0  0  0  2  0  0  0  0  0  0
  161.5140  206.0310  146.4860 C   0  0  0  0  0  0  0  0  0  0  0  0
  161.1460  205.7570  145.1650 C   0  0  0  0  0  3  0  0  0  0  0  0
  161.0500  208.7230  150.3720 C   0  0  0  0  0  2  0  0  0  0  0  0
  163.0800  209.6840  151.4700 C   0  0  0  0  0  1  0  0  0  0  0  0
  161.9170  208.7210  151.6250 C   0  0  1  0  0  3  0  0  0  0  0  0
  160.2370  210.0000  155.2920 N   0  0  0  0  0  0  0  0  0  0  0  0
  160.6070  210.4060  152.9150 C   0  0  0  0  0  2  0  0  0  0  0  0
  161.5810  207.0060  153.9110 O   0  0  0  0  0  0  0  0  0  0  0  0
  159.3360  210.3040  156.3880 C   0  0  0  0  0  1  0  0  0  0  0  0
  159.6350  210.5540  154.0850 C   0  0  0  0  0  2  0  0  0  0  0  0
  161.0450  208.1450  153.9480 C   0  0  0  0  0  0  0  0  0  0  0  0
  161.1310  209.0410  152.8190 N   0  0  0  0  0  0  0  0  0  0  0  0
  160.2590  208.5460  155.1570 C   0  0  0  0  0  2  0  0  0  0  0  0
  1  9  1  0  0  0  0
  1  6  1  0  0  0  0
  2 13  1  0  0  0  0
  2  5  1  0  0  0  0
  3  2  1  0  0  0  0
  4  7  2  0  0  0  0
  5 14  1  0  0  0  0
  5 16  2  0  0  0  0
  6 17  2  0  0  0  0
  7  3  1  0  0  0  0
  8 21  1  1  0  0  0
  8 12  1  0  0  0  0
 10 18  1  0  0  0  0
 11  4  1  0  0  0  0
 13 18  1  6  0  0  0
 13  8  1  0  0  0  0
 14  1  2  0  0  0  0
 15 20  2  0  0  0  0
 15  4  1  0  0  0  0
 16 12  1  0  0  0  0
 16 17  1  0  0  0  0
 19 10  1  0  0  0  0
 19  3  2  0  0  0  0
 20 19  1  0  0  0  0
 21 23  1  0  0  0  0
 23 22  1  6  0  0  0
 23 30  1  0  0  0  0
 24 27  1  0  0  0  0
 25 28  1  0  0  0  0
 26 29  2  0  0  0  0
 28 24  1  0  0  0  0
 29 31  1  0  0  0  0
 30 25  1  0  0  0  0
 30 29  1  0  0  0  0
 31 24  1  0  0  0  0
M  END
>  <MODEL>
9

>  <REMARK>
 VINA RESULT:      -6.2      1.992      4.249
  Name = 
  3 active torsions:
  status: ('A' for Active; 'I' for Inactive)
    1  A    between atoms: C_5  and  C_16
    2  A    between atoms: C_5  and  N_30
    3  A    between atoms: C_10  and  C_16
                            x       y       z     vdW  Elec       q    Type
                         _______ _______ _______ _____ _____    ______ ____

>  <TORSDO>
F 3

$$$$
