=
 OpenBabel11122413173D

 31 35  0  0  1  0  0  0  0  0999 V2000
  161.2050  204.7780  152.4180 C   0  0  0  0  0  0  0  0  0  0  0  0
  161.4130  205.8310  148.8090 C   0  0  0  0  0  0  0  0  0  0  0  0
  161.3440  204.6470  148.0170 C   0  0  0  0  0  0  0  0  0  0  0  0
  161.7970  210.9670  149.9490 O   0  0  0  0  0  0  0  0  0  0  0  0
  161.8280  210.8150  148.7000 C   0  0  0  0  0  0  0  0  0  0  0  0
  161.1550  202.2260  147.7550 C   0  0  0  0  0  0  0  0  0  0  0  0
  161.3670  205.8620  150.2360 C   0  0  0  0  0  0  0  0  0  0  0  0
  161.2850  206.0170  153.0530 C   0  0  0  0  0  3  0  0  0  0  0  0
  161.2190  203.3590  148.5690 C   0  0  0  0  0  3  0  0  0  0  0  0
  161.6130  208.2710  148.8320 C   0  0  0  0  0  0  0  0  0  0  0  0
  161.0880  203.6460  153.1530 F   0  0  0  0  0  0  0  0  0  0  0  0
  161.5200  205.9810  146.0330 N   0  0  0  0  0  0  0  0  0  0  0  0
  161.0000  200.6400  148.4780 Cl  0  0  0  0  0  0  0  0  0  0  0  0
  161.5660  208.2590  150.1880 N   0  0  0  0  0  0  0  0  0  0  0  0
  161.5380  207.0660  148.1220 C   0  0  0  0  0  0  0  0  0  0  0  0
  161.7390  209.5080  148.1170 N   0  0  0  0  0  2  0  0  0  0  0  0
  161.2460  204.7040  151.0240 C   0  0  0  0  0  3  0  0  0  0  0  0
  161.2120  202.3590  146.3690 C   0  0  0  0  0  3  0  0  0  0  0  0
  161.4470  207.1120  150.8980 C   0  0  0  0  0  0  0  0  0  0  0  0
  161.4060  207.1810  152.2940 C   0  0  0  0  0  3  0  0  0  0  0  0
  161.5860  207.0910  146.7630 N   0  0  0  0  0  0  0  0  0  0  0  0
  161.4010  204.7620  146.6080 C   0  0  0  0  0  0  0  0  0  0  0  0
  161.3360  203.6260  145.7960 C   0  0  0  0  0  3  0  0  0  0  0  0
  159.9700  214.0410  148.4670 C   0  0  1  0  0  3  0  0  0  0  0  0
  162.3570  213.2850  148.6150 C   0  0  0  0  0  2  0  0  0  0  0  0
  160.4470  211.1440  146.3350 O   0  0  0  0  0  1  0  0  0  0  0  0
  158.8670  214.4510  149.2150 O   0  0  0  0  0  1  0  0  0  0  0  0
  161.1650  213.8410  149.3930 C   0  0  0  0  0  2  0  0  0  0  0  0
  160.7950  212.2940  146.9630 N   0  0  0  0  0  0  0  0  0  0  0  0
  161.9660  212.0320  147.8220 C   0  0  2  0  0  3  0  0  0  0  0  0
  159.6460  212.7300  147.7580 C   0  0  0  0  0  2  0  0  0  0  0  0
  1  8  1  0  0  0  0
  1 11  1  0  0  0  0
  2  7  1  0  0  0  0
  3  9  1  0  0  0  0
  3  2  2  0  0  0  0
  5  4  2  0  0  0  0
  6 13  1  0  0  0  0
  6  9  2  0  0  0  0
  7 19  2  0  0  0  0
  7 17  1  0  0  0  0
 10 14  2  0  0  0  0
 12 22  2  0  0  0  0
 12 21  1  0  0  0  0
 14 19  1  0  0  0  0
 15  2  1  0  0  0  0
 15 10  1  0  0  0  0
 16  5  1  0  0  0  0
 16 10  1  0  0  0  0
 17  1  2  0  0  0  0
 18  6  1  0  0  0  0
 19 20  1  0  0  0  0
 20  8  2  0  0  0  0
 21 15  2  0  0  0  0
 22  3  1  0  0  0  0
 23 18  2  0  0  0  0
 23 22  1  0  0  0  0
 24 27  1  1  0  0  0
 24 28  1  0  0  0  0
 25 28  1  0  0  0  0
 26 29  1  0  0  0  0
 29 31  1  0  0  0  0
 29 30  1  0  0  0  0
 30 25  1  0  0  0  0
 30  5  1  1  0  0  0
 31 24  1  0  0  0  0
M  END
>  <MODEL>
1

>  <REMARK>
 VINA RESULT:     -10.6      0.000      0.000
  Name = 
  1 active torsions:
  status: ('A' for Active; 'I' for Inactive)
    1  A    between atoms: C_5  and  C_30
                            x       y       z     vdW  Elec       q    Type
                         _______ _______ _______ _____ _____    ______ ____

>  <TORSDO>
F 1

$$$$
=
 OpenBabel11122413173D

 31 35  0  0  1  0  0  0  0  0999 V2000
  160.8920  202.2140  150.9170 C   0  0  0  0  0  0  0  0  0  0  0  0
  161.1960  205.6500  149.4060 C   0  0  0  0  0  0  0  0  0  0  0  0
  161.2370  205.4880  147.9910 C   0  0  0  0  0  0  0  0  0  0  0  0
  161.2040  208.1010  154.0780 O   0  0  0  0  0  0  0  0  0  0  0  0
  161.3010  208.9560  153.1590 C   0  0  0  0  0  0  0  0  0  0  0  0
  161.2130  204.1220  145.9670 C   0  0  0  0  0  0  0  0  0  0  0  0
  161.0840  204.5810  150.3470 C   0  0  0  0  0  0  0  0  0  0  0  0
  160.8650  202.5310  152.2750 C   0  0  0  0  0  3  0  0  0  0  0  0
  161.1690  204.2340  147.3570 C   0  0  0  0  0  3  0  0  0  0  0  0
  161.2410  207.2100  151.2920 C   0  0  0  0  0  0  0  0  0  0  0  0
  160.8130  200.9210  150.5210 F   0  0  0  0  0  0  0  0  0  0  0  0
  161.4190  207.8650  147.7390 N   0  0  0  0  0  0  0  0  0  0  0  0
  161.1250  202.5450  145.2140 Cl  0  0  0  0  0  0  0  0  0  0  0  0
  161.1330  206.1680  152.1540 N   0  0  0  0  0  0  0  0  0  0  0  0
  161.2740  206.9730  149.9120 C   0  0  0  0  0  0  0  0  0  0  0  0
  161.3210  208.5560  151.7820 N   0  0  0  0  0  2  0  0  0  0  0  0
  161.0000  203.2300  149.9650 C   0  0  0  0  0  3  0  0  0  0  0  0
  161.3240  205.2660  145.1780 C   0  0  0  0  0  3  0  0  0  0  0  0
  161.0550  204.8840  151.7310 C   0  0  0  0  0  0  0  0  0  0  0  0
  160.9460  203.8630  152.6800 C   0  0  0  0  0  3  0  0  0  0  0  0
  161.3820  208.0260  149.0590 N   0  0  0  0  0  0  0  0  0  0  0  0
  161.3510  206.6380  147.1740 C   0  0  0  0  0  0  0  0  0  0  0  0
  161.3940  206.5230  145.7810 C   0  0  0  0  0  3  0  0  0  0  0  0
  160.2140  210.9360  156.1280 C   0  0  1  0  0  3  0  0  0  0  0  0
  162.2940  210.6470  154.7550 C   0  0  0  0  0  2  0  0  0  0  0  0
  159.3240  210.8010  152.6130 O   0  0  0  0  0  1  0  0  0  0  0  0
  159.5350  210.4830  157.2580 O   0  0  0  0  0  1  0  0  0  0  0  0
  161.5740  210.2510  156.0440 C   0  0  0  0  0  2  0  0  0  0  0  0
  160.0990  211.0900  153.6870 N   0  0  0  0  0  0  0  0  0  0  0  0
  161.4020  210.4140  153.5290 C   0  0  2  0  0  3  0  0  0  0  0  0
  159.3990  210.6110  154.8800 C   0  0  0  0  0  2  0  0  0  0  0  0
  1  8  1  0  0  0  0
  2 15  1  0  0  0  0
  2  7  1  0  0  0  0
  3  2  2  0  0  0  0
  5  4  2  0  0  0  0
  6  9  2  0  0  0  0
  7 19  2  0  0  0  0
  8 20  2  0  0  0  0
  9  3  1  0  0  0  0
 10 16  1  0  0  0  0
 10 14  2  0  0  0  0
 11  1  1  0  0  0  0
 12 21  1  0  0  0  0
 13  6  1  0  0  0  0
 15 10  1  0  0  0  0
 16  5  1  0  0  0  0
 17  7  1  0  0  0  0
 17  1  2  0  0  0  0
 18 23  2  0  0  0  0
 18  6  1  0  0  0  0
 19 14  1  0  0  0  0
 19 20  1  0  0  0  0
 21 15  2  0  0  0  0
 22 12  2  0  0  0  0
 22  3  1  0  0  0  0
 23 22  1  0  0  0  0
 24 27  1  1  0  0  0
 25 28  1  0  0  0  0
 26 29  1  0  0  0  0
 28 24  1  0  0  0  0
 29 31  1  0  0  0  0
 30  5  1  1  0  0  0
 30 29  1  0  0  0  0
 30 25  1  0  0  0  0
 31 24  1  0  0  0  0
M  END
>  <MODEL>
2

>  <REMARK>
 VINA RESULT:     -10.5      3.372      4.510
  Name = 
  1 active torsions:
  status: ('A' for Active; 'I' for Inactive)
    1  A    between atoms: C_5  and  C_30
                            x       y       z     vdW  Elec       q    Type
                         _______ _______ _______ _____ _____    ______ ____

>  <TORSDO>
F 1

$$$$
=
 OpenBabel11122413173D

 31 35  0  0  1  0  0  0  0  0999 V2000
  160.8830  202.2290  150.9170 C   0  0  0  0  0  0  0  0  0  0  0  0
  161.1900  205.6400  149.3500 C   0  0  0  0  0  0  0  0  0  0  0  0
  161.2170  205.4570  147.9370 C   0  0  0  0  0  0  0  0  0  0  0  0
  161.2540  208.1640  153.9820 O   0  0  0  0  0  0  0  0  0  0  0  0
  161.3460  209.0040  153.0490 C   0  0  0  0  0  0  0  0  0  0  0  0
  161.1670  204.0600  145.9340 C   0  0  0  0  0  0  0  0  0  0  0  0
  161.0810  204.5870  150.3080 C   0  0  0  0  0  0  0  0  0  0  0  0
  160.8700  202.5680  152.2700 C   0  0  0  0  0  3  0  0  0  0  0  0
  161.1370  204.1930  147.3230 C   0  0  0  0  0  3  0  0  0  0  0  0
  161.2600  207.2300  151.2110 C   0  0  0  0  0  0  0  0  0  0  0  0
  160.7940  200.9310  150.5420 F   0  0  0  0  0  0  0  0  0  0  0  0
  161.4080  207.8290  147.6460 N   0  0  0  0  0  0  0  0  0  0  0  0
  161.0640  202.4710  145.2070 Cl  0  0  0  0  0  0  0  0  0  0  0  0
  161.1560  206.2020  152.0900 N   0  0  0  0  0  0  0  0  0  0  0  0
  161.2790  206.9710  149.8350 C   0  0  0  0  0  0  0  0  0  0  0  0
  161.3510  208.5820  151.6790 N   0  0  0  0  0  2  0  0  0  0  0  0
  160.9880  203.2310  149.9480 C   0  0  0  0  0  3  0  0  0  0  0  0
  161.2760  205.1910  145.1270 C   0  0  0  0  0  3  0  0  0  0  0  0
  161.0670  204.9110  151.6870 C   0  0  0  0  0  0  0  0  0  0  0  0
  160.9620  203.9050  152.6530 C   0  0  0  0  0  3  0  0  0  0  0  0
  161.3840  208.0100  148.9640 N   0  0  0  0  0  0  0  0  0  0  0  0
  161.3280  206.5930  147.1010 C   0  0  0  0  0  0  0  0  0  0  0  0
  161.3580  206.4560  145.7100 C   0  0  0  0  0  3  0  0  0  0  0  0
  158.8930  211.5680  154.1990 C   0  0  1  0  0  3  0  0  0  0  0  0
  161.1630  210.7430  154.8760 C   0  0  0  0  0  2  0  0  0  0  0  0
  160.9100  211.0320  151.2310 O   0  0  0  0  0  1  0  0  0  0  0  0
  157.5250  211.4100  154.4120 O   0  0  0  0  0  1  0  0  0  0  0  0
  159.6630  210.6720  155.1620 C   0  0  0  0  0  2  0  0  0  0  0  0
  160.6670  211.3570  152.5240 N   0  0  0  0  0  0  0  0  0  0  0  0
  161.4580  210.4670  153.3960 C   0  0  2  0  0  3  0  0  0  0  0  0
  159.2330  211.1870  152.7610 C   0  0  0  0  0  2  0  0  0  0  0  0
  1  8  1  0  0  0  0
  2 15  1  0  0  0  0
  2  7  1  0  0  0  0
  3  2  2  0  0  0  0
  5  4  2  0  0  0  0
  6  9  2  0  0  0  0
  7 19  2  0  0  0  0
  8 20  2  0  0  0  0
  9  3  1  0  0  0  0
 10 16  1  0  0  0  0
 10 14  2  0  0  0  0
 11  1  1  0  0  0  0
 12 21  1  0  0  0  0
 13  6  1  0  0  0  0
 15 10  1  0  0  0  0
 16  5  1  0  0  0  0
 17  7  1  0  0  0  0
 17  1  2  0  0  0  0
 18 23  2  0  0  0  0
 18  6  1  0  0  0  0
 19 14  1  0  0  0  0
 19 20  1  0  0  0  0
 21 15  2  0  0  0  0
 22 12  2  0  0  0  0
 22  3  1  0  0  0  0
 23 22  1  0  0  0  0
 24 27  1  6  0  0  0
 24 28  1  0  0  0  0
 25 28  1  0  0  0  0
 26 29  1  0  0  0  0
 29 31  1  0  0  0  0
 29 30  1  0  0  0  0
 30  5  1  6  0  0  0
 30 25  1  0  0  0  0
 31 24  1  0  0  0  0
M  END
>  <MODEL>
3

>  <REMARK>
 VINA RESULT:     -10.3      3.028      3.940
  Name = 
  1 active torsions:
  status: ('A' for Active; 'I' for Inactive)
    1  A    between atoms: C_5  and  C_30
                            x       y       z     vdW  Elec       q    Type
                         _______ _______ _______ _____ _____    ______ ____

>  <TORSDO>
F 1

$$$$
=
 OpenBabel11122413173D

 31 35  0  0  1  0  0  0  0  0999 V2000
  161.7960  206.8830  147.1690 C   0  0  0  0  0  0  0  0  0  0  0  0
  161.2560  205.1510  150.4690 C   0  0  0  0  0  0  0  0  0  0  0  0
  161.1170  203.7580  150.1990 C   0  0  0  0  0  0  0  0  0  0  0  0
  161.5030  209.6160  153.2680 O   0  0  0  0  0  0  0  0  0  0  0  0
  161.3080  208.6460  154.0470 C   0  0  0  0  0  0  0  0  0  0  0  0
  161.0420  201.8440  148.6840 C   0  0  0  0  0  0  0  0  0  0  0  0
  161.4770  206.1560  149.4790 C   0  0  0  0  0  0  0  0  0  0  0  0
  161.9120  208.2080  147.5890 C   0  0  0  0  0  3  0  0  0  0  0  0
  161.1840  203.2150  148.9030 C   0  0  0  0  0  3  0  0  0  0  0  0
  161.2940  206.9150  152.1670 C   0  0  0  0  0  0  0  0  0  0  0  0
  161.8930  206.5780  145.8530 F   0  0  0  0  0  0  0  0  0  0  0  0
  160.8310  203.3470  152.5430 N   0  0  0  0  0  0  0  0  0  0  0  0
  161.1310  201.2050  147.0570 Cl  0  0  0  0  0  0  0  0  0  0  0  0
  161.5020  207.8400  151.1970 N   0  0  0  0  0  0  0  0  0  0  0  0
  161.1680  205.5620  151.8240 C   0  0  0  0  0  0  0  0  0  0  0  0
  161.2010  207.3080  153.5420 N   0  0  0  0  0  2  0  0  0  0  0  0
  161.5810  205.8700  148.1060 C   0  0  0  0  0  3  0  0  0  0  0  0
  160.8310  200.9840  149.7610 C   0  0  0  0  0  3  0  0  0  0  0  0
  161.5960  207.5080  149.8870 C   0  0  0  0  0  0  0  0  0  0  0  0
  161.8120  208.5190  148.9450 C   0  0  0  0  0  3  0  0  0  0  0  0
  160.9590  204.6450  152.8050 N   0  0  0  0  0  0  0  0  0  0  0  0
  160.9020  202.8700  151.2790 C   0  0  0  0  0  0  0  0  0  0  0  0
  160.7600  201.4970  151.0570 C   0  0  0  0  0  3  0  0  0  0  0  0
  159.5450  211.2590  156.0430 C   0  0  1  0  0  3  0  0  0  0  0  0
  159.7410  208.7580  156.0280 C   0  0  0  0  0  2  0  0  0  0  0  0
  162.9990  210.3280  155.4340 O   0  0  0  0  0  1  0  0  0  0  0  0
  158.7950  212.3350  155.5730 O   0  0  0  0  0  1  0  0  0  0  0  0
  158.8800  209.9530  155.6210 C   0  0  0  0  0  2  0  0  0  0  0  0
  161.7540  210.2050  155.9560 N   0  0  0  0  0  0  0  0  0  0  0  0
  161.1810  208.9150  155.5250 C   0  0  2  0  0  3  0  0  0  0  0  0
  160.9540  211.3270  155.4630 C   0  0  0  0  0  2  0  0  0  0  0  0
  1  8  2  0  0  0  0
  1 17  1  0  0  0  0
  2 15  1  0  0  0  0
  3  2  2  0  0  0  0
  3 22  1  0  0  0  0
  4  5  2  0  0  0  0
  6  9  2  0  0  0  0
  6 18  1  0  0  0  0
  7 19  1  0  0  0  0
  7  2  1  0  0  0  0
  8 20  1  0  0  0  0
  9  3  1  0  0  0  0
 10 16  1  0  0  0  0
 11  1  1  0  0  0  0
 12 21  1  0  0  0  0
 13  6  1  0  0  0  0
 14 10  2  0  0  0  0
 15 10  1  0  0  0  0
 15 21  2  0  0  0  0
 16  5  1  0  0  0  0
 17  7  2  0  0  0  0
 18 23  2  0  0  0  0
 19 14  1  0  0  0  0
 20 19  2  0  0  0  0
 22 12  2  0  0  0  0
 23 22  1  0  0  0  0
 24 27  1  6  0  0  0
 26 29  1  0  0  0  0
 28 25  1  0  0  0  0
 28 24  1  0  0  0  0
 30  5  1  6  0  0  0
 30 29  1  0  0  0  0
 30 25  1  0  0  0  0
 31 29  1  0  0  0  0
 31 24  1  0  0  0  0
M  END
>  <MODEL>
4

>  <REMARK>
 VINA RESULT:     -10.0      3.740      5.690
  Name = 
  1 active torsions:
  status: ('A' for Active; 'I' for Inactive)
    1  A    between atoms: C_5  and  C_30
                            x       y       z     vdW  Elec       q    Type
                         _______ _______ _______ _____ _____    ______ ____

>  <TORSDO>
F 1

$$$$
=
 OpenBabel11122413173D

 31 35  0  0  1  0  0  0  0  0999 V2000
  161.8960  207.0020  147.3100 C   0  0  0  0  0  0  0  0  0  0  0  0
  161.3030  205.8390  150.8420 C   0  0  0  0  0  0  0  0  0  0  0  0
  161.1400  204.4230  150.8000 C   0  0  0  0  0  0  0  0  0  0  0  0
  161.6120  210.6940  152.8820 O   0  0  0  0  0  0  0  0  0  0  0  0
  161.3940  209.8680  153.8060 C   0  0  0  0  0  0  0  0  0  0  0  0
  161.0410  202.2900  149.6160 C   0  0  0  0  0  0  0  0  0  0  0  0
  161.5480  206.6660  149.7040 C   0  0  0  0  0  0  0  0  0  0  0  0
  162.0330  208.3760  147.5110 C   0  0  0  0  0  3  0  0  0  0  0  0
  161.2060  203.6760  149.6100 C   0  0  0  0  0  3  0  0  0  0  0  0
  161.3610  207.8540  152.2310 C   0  0  0  0  0  0  0  0  0  0  0  0
  161.9960  206.4860  146.0620 F   0  0  0  0  0  0  0  0  0  0  0  0
  160.8310  204.4030  153.1780 N   0  0  0  0  0  0  0  0  0  0  0  0
  161.1290  201.3940  148.1150 Cl  0  0  0  0  0  0  0  0  0  0  0  0
  161.5930  208.6060  151.1260 N   0  0  0  0  0  0  0  0  0  0  0  0
  161.2130  206.4660  152.1110 C   0  0  0  0  0  0  0  0  0  0  0  0
  161.2660  208.4670  153.5240 N   0  0  0  0  0  2  0  0  0  0  0  0
  161.6560  206.1590  148.3970 C   0  0  0  0  0  3  0  0  0  0  0  0
  160.8070  201.6200  150.8160 C   0  0  0  0  0  3  0  0  0  0  0  0
  161.6890  208.0640  149.8890 C   0  0  0  0  0  0  0  0  0  0  0  0
  161.9290  208.9040  148.7970 C   0  0  0  0  0  3  0  0  0  0  0  0
  160.9810  205.7240  153.2270 N   0  0  0  0  0  0  0  0  0  0  0  0
  160.9020  203.7260  152.0080 C   0  0  0  0  0  0  0  0  0  0  0  0
  160.7370  202.3370  152.0110 C   0  0  0  0  0  3  0  0  0  0  0  0
  160.4620  208.2560  157.0390 C   0  0  1  0  0  3  0  0  0  0  0  0
  162.2870  209.7410  156.1670 C   0  0  0  0  0  2  0  0  0  0  0  0
  159.0220  210.7860  154.8730 O   0  0  0  0  0  1  0  0  0  0  0  0
  160.0950  206.9310  157.2610 O   0  0  0  0  0  1  0  0  0  0  0  0
  161.8970  208.3070  156.5240 C   0  0  0  0  0  2  0  0  0  0  0  0
  159.8980  210.2750  155.7730 N   0  0  0  0  0  0  0  0  0  0  0  0
  161.2620  210.3750  155.2200 C   0  0  2  0  0  3  0  0  0  0  0  0
  159.5260  208.8790  156.0080 C   0  0  0  0  0  2  0  0  0  0  0  0
  1  8  2  0  0  0  0
  1 17  1  0  0  0  0
  2 15  1  0  0  0  0
  3  2  2  0  0  0  0
  3 22  1  0  0  0  0
  4  5  2  0  0  0  0
  6 18  1  0  0  0  0
  7 19  1  0  0  0  0
  7  2  1  0  0  0  0
  8 20  1  0  0  0  0
  9  6  2  0  0  0  0
  9  3  1  0  0  0  0
 10 16  1  0  0  0  0
 11  1  1  0  0  0  0
 12 21  1  0  0  0  0
 13  6  1  0  0  0  0
 14 10  2  0  0  0  0
 15 10  1  0  0  0  0
 15 21  2  0  0  0  0
 16  5  1  0  0  0  0
 17  7  2  0  0  0  0
 18 23  2  0  0  0  0
 19 14  1  0  0  0  0
 20 19  2  0  0  0  0
 22 23  1  0  0  0  0
 22 12  2  0  0  0  0
 24 27  1  6  0  0  0
 25 28  1  0  0  0  0
 26 29  1  0  0  0  0
 28 24  1  0  0  0  0
 29 31  1  0  0  0  0
 30  5  1  6  0  0  0
 30 29  1  0  0  0  0
 30 25  1  0  0  0  0
 31 24  1  0  0  0  0
M  END
>  <MODEL>
5

>  <REMARK>
 VINA RESULT:      -9.7      3.594      6.058
  Name = 
  1 active torsions:
  status: ('A' for Active; 'I' for Inactive)
    1  A    between atoms: C_5  and  C_30
                            x       y       z     vdW  Elec       q    Type
                         _______ _______ _______ _____ _____    ______ ____

>  <TORSDO>
F 1

$$$$
=
 OpenBabel11122413173D

 31 35  0  0  1  0  0  0  0  0999 V2000
  160.9170  201.9550  150.7050 C   0  0  0  0  0  0  0  0  0  0  0  0
  161.2200  205.5660  149.6810 C   0  0  0  0  0  0  0  0  0  0  0  0
  161.2690  205.6000  148.2570 C   0  0  0  0  0  0  0  0  0  0  0  0
  161.1930  207.3550  154.6440 O   0  0  0  0  0  0  0  0  0  0  0  0
  161.2930  208.3280  153.8510 C   0  0  0  0  0  0  0  0  0  0  0  0
  161.2610  204.5240  146.0650 C   0  0  0  0  0  0  0  0  0  0  0  0
  161.1050  204.3790  150.4650 C   0  0  0  0  0  0  0  0  0  0  0  0
  160.8820  202.0830  152.0940 C   0  0  0  0  0  3  0  0  0  0  0  0
  161.2080  204.4440  147.4570 C   0  0  0  0  0  3  0  0  0  0  0  0
  161.2490  206.8540  151.7630 C   0  0  0  0  0  0  0  0  0  0  0  0
  160.8450  200.7290  150.1360 F   0  0  0  0  0  0  0  0  0  0  0  0
  161.4450  207.9900  148.3340 N   0  0  0  0  0  0  0  0  0  0  0  0
  161.1820  203.0650  145.1020 Cl  0  0  0  0  0  0  0  0  0  0  0  0
  161.1400  205.7040  152.4740 N   0  0  0  0  0  0  0  0  0  0  0  0
  161.2900  206.8080  150.3640 C   0  0  0  0  0  0  0  0  0  0  0  0
  161.3220  208.1200  152.4330 N   0  0  0  0  0  2  0  0  0  0  0  0
  161.0280  203.0920  149.9020 C   0  0  0  0  0  3  0  0  0  0  0  0
  161.3730  205.7660  145.4400 C   0  0  0  0  0  3  0  0  0  0  0  0
  161.0680  204.4890  151.8780 C   0  0  0  0  0  0  0  0  0  0  0  0
  160.9570  203.3470  152.6780 C   0  0  0  0  0  3  0  0  0  0  0  0
  161.4000  207.9690  149.6640 N   0  0  0  0  0  0  0  0  0  0  0  0
  161.3840  206.8520  147.6060 C   0  0  0  0  0  0  0  0  0  0  0  0
  161.4350  206.9280  146.2110 C   0  0  0  0  0  3  0  0  0  0  0  0
  159.4630  211.5080  153.1760 C   0  0  1  0  0  3  0  0  0  0  0  0
  160.1170  210.1360  155.1720 C   0  0  0  0  0  2  0  0  0  0  0  0
  162.8610  210.3120  152.7480 O   0  0  0  0  0  1  0  0  0  0  0  0
  158.4510  211.7330  152.2440 O   0  0  0  0  0  1  0  0  0  0  0  0
  158.9890  210.4840  154.2020 C   0  0  0  0  0  2  0  0  0  0  0  0
  161.7760  210.7500  153.4340 N   0  0  0  0  0  0  0  0  0  0  0  0
  161.3880  209.7220  154.4180 C   0  0  2  0  0  3  0  0  0  0  0  0
  160.7050  210.9830  152.4640 C   0  0  0  0  0  2  0  0  0  0  0  0
  1  8  1  0  0  0  0
  2 15  1  0  0  0  0
  2  7  1  0  0  0  0
  3  2  2  0  0  0  0
  5  4  2  0  0  0  0
  6  9  2  0  0  0  0
  7 19  2  0  0  0  0
  8 20  2  0  0  0  0
  9  3  1  0  0  0  0
 10 16  1  0  0  0  0
 10 14  2  0  0  0  0
 11  1  1  0  0  0  0
 12 21  1  0  0  0  0
 13  6  1  0  0  0  0
 15 10  1  0  0  0  0
 16  5  1  0  0  0  0
 17  7  1  0  0  0  0
 17  1  2  0  0  0  0
 18  6  1  0  0  0  0
 18 23  2  0  0  0  0
 19 14  1  0  0  0  0
 19 20  1  0  0  0  0
 21 15  2  0  0  0  0
 22  3  1  0  0  0  0
 22 12  2  0  0  0  0
 23 22  1  0  0  0  0
 24 27  1  6  0  0  0
 24 28  1  0  0  0  0
 26 29  1  0  0  0  0
 28 25  1  0  0  0  0
 29 30  1  0  0  0  0
 30  5  1  6  0  0  0
 30 25  1  0  0  0  0
 31 24  1  0  0  0  0
 31 29  1  0  0  0  0
M  END
>  <MODEL>
6

>  <REMARK>
 VINA RESULT:      -9.3      3.065      4.324
  Name = 
  1 active torsions:
  status: ('A' for Active; 'I' for Inactive)
    1  A    between atoms: C_5  and  C_30
                            x       y       z     vdW  Elec       q    Type
                         _______ _______ _______ _____ _____    ______ ____

>  <TORSDO>
F 1

$$$$
=
 OpenBabel11122413173D

 31 35  0  0  1  0  0  0  0  0999 V2000
  161.0330  202.0680  150.8830 C   0  0  0  0  0  0  0  0  0  0  0  0
  161.1770  205.6250  149.6530 C   0  0  0  0  0  0  0  0  0  0  0  0
  161.3330  205.5780  148.2370 C   0  0  0  0  0  0  0  0  0  0  0  0
  160.6550  207.6980  154.4760 O   0  0  0  0  0  0  0  0  0  0  0  0
  160.7510  208.6270  153.6320 C   0  0  0  0  0  0  0  0  0  0  0  0
  161.5610  204.3760  146.1240 C   0  0  0  0  0  0  0  0  0  0  0  0
  161.0800  204.4800  150.5020 C   0  0  0  0  0  0  0  0  0  0  0  0
  160.8830  202.2750  152.2540 C   0  0  0  0  0  3  0  0  0  0  0  0
  161.4080  204.3750  147.5110 C   0  0  0  0  0  3  0  0  0  0  0  0
  160.9630  207.0320  151.6450 C   0  0  0  0  0  0  0  0  0  0  0  0
  161.0850  200.8080  150.3890 F   0  0  0  0  0  0  0  0  0  0  0  0
  161.3450  207.9740  148.1730 N   0  0  0  0  0  0  0  0  0  0  0  0
  161.6520  202.8600  145.2540 Cl  0  0  0  0  0  0  0  0  0  0  0  0
  160.8750  205.9210  152.4180 N   0  0  0  0  0  0  0  0  0  0  0  0
  161.1140  206.9060  150.2580 C   0  0  0  0  0  0  0  0  0  0  0  0
  160.9020  208.3380  152.2360 N   0  0  0  0  0  2  0  0  0  0  0  0
  161.1310  203.1610  150.0190 C   0  0  0  0  0  3  0  0  0  0  0  0
  161.6400  205.5830  145.4310 C   0  0  0  0  0  3  0  0  0  0  0  0
  160.9280  204.6710  151.8980 C   0  0  0  0  0  0  0  0  0  0  0  0
  160.8310  203.5740  152.7600 C   0  0  0  0  0  3  0  0  0  0  0  0
  161.2000  208.0280  149.4950 N   0  0  0  0  0  0  0  0  0  0  0  0
  161.4140  206.7930  147.5170 C   0  0  0  0  0  0  0  0  0  0  0  0
  161.5670  206.7900  146.1270 C   0  0  0  0  0  3  0  0  0  0  0  0
  162.5260  210.4760  156.3420 C   0  0  1  0  0  3  0  0  0  0  0  0
  162.0430  210.7830  153.8990 C   0  0  0  0  0  2  0  0  0  0  0  0
  159.0990  209.4970  155.6630 O   0  0  0  0  0  1  0  0  0  0  0  0
  163.4530  209.9770  157.2550 O   0  0  0  0  0  1  0  0  0  0  0  0
  163.0840  210.3450  154.9290 C   0  0  0  0  0  2  0  0  0  0  0  0
  160.2410  210.2110  155.5040 N   0  0  0  0  0  0  0  0  0  0  0  0
  160.7110  210.0550  154.1140 C   0  0  2  0  0  3  0  0  0  0  0  0
  161.2250  209.6890  156.4540 C   0  0  0  0  0  2  0  0  0  0  0  0
  1  8  1  0  0  0  0
  2 15  1  0  0  0  0
  2  7  1  0  0  0  0
  3  2  2  0  0  0  0
  5  4  2  0  0  0  0
  6  9  2  0  0  0  0
  7 19  2  0  0  0  0
  8 20  2  0  0  0  0
  9  3  1  0  0  0  0
 10 16  1  0  0  0  0
 10 14  2  0  0  0  0
 11  1  1  0  0  0  0
 12 21  1  0  0  0  0
 13  6  1  0  0  0  0
 15 10  1  0  0  0  0
 16  5  1  0  0  0  0
 17  7  1  0  0  0  0
 17  1  2  0  0  0  0
 18  6  1  0  0  0  0
 18 23  2  0  0  0  0
 19 14  1  0  0  0  0
 19 20  1  0  0  0  0
 21 15  2  0  0  0  0
 22 12  2  0  0  0  0
 22  3  1  0  0  0  0
 23 22  1  0  0  0  0
 24 31  1  0  0  0  0
 24 27  1  1  0  0  0
 25 30  1  0  0  0  0
 25 28  1  0  0  0  0
 28 24  1  0  0  0  0
 29 26  1  0  0  0  0
 29 31  1  0  0  0  0
 30  5  1  1  0  0  0
 30 29  1  0  0  0  0
M  END
>  <MODEL>
7

>  <REMARK>
 VINA RESULT:      -8.5      3.849      5.124
  Name = 
  1 active torsions:
  status: ('A' for Active; 'I' for Inactive)
    1  A    between atoms: C_5  and  C_30
                            x       y       z     vdW  Elec       q    Type
                         _______ _______ _______ _____ _____    ______ ____

>  <TORSDO>
F 1

$$$$
