=
 OpenBabel11122414053D

 28 31  0  0  1  0  0  0  0  0999 V2000
  161.1360  208.3010  155.3710 C   0  0  0  0  0  0  0  0  0  0  0  0
  158.6150  210.9730  155.8650 O   0  0  0  0  0  0  0  0  0  0  0  0
  162.6310  210.2650  156.6970 C   0  0  0  0  0  3  0  0  0  0  0  0
  160.4610  207.1960  154.6180 C   0  0  0  0  0  2  0  0  0  0  0  0
  160.1820  212.7110  155.0780 O   0  0  0  0  0  0  0  0  0  0  0  0
  159.0500  211.8000  154.6890 S   0  0  0  0  0  0  0  0  0  0  0  0
  157.9330  213.2030  152.6470 C   0  0  0  0  0  0  0  0  0  0  0  0
  159.4810  210.7870  153.3500 N   0  0  1  0  0  0  0  0  0  0  0  0
  161.8750  205.5000  151.4640 C   0  0  0  0  0  1  0  0  0  0  0  0
  161.5470  210.0350  152.2840 C   0  0  2  0  0  3  0  0  0  0  0  0
  158.5900  212.2780  151.6490 C   0  0  0  0  0  2  0  0  0  0  0  0
  157.6910  212.7850  154.0790 C   0  0  0  0  0  2  0  0  0  0  0  0
  160.9380  206.3820  152.2680 C   0  0  2  0  0  3  0  0  0  0  0  0
  161.2460  209.5940  154.8190 C   0  0  0  0  0  0  0  0  0  0  0  0
  157.2800  214.2640  152.1830 C   0  0  0  0  0  2  0  0  0  0  0  0
  160.7300  207.7230  151.5530 C   0  0  0  0  0  2  0  0  0  0  0  0
  162.0220  210.5590  155.4740 C   0  0  0  0  0  3  0  0  0  0  0  0
  161.7540  208.0130  156.5940 C   0  0  0  0  0  3  0  0  0  0  0  0
  162.4900  208.9950  157.2600 C   0  0  0  0  0  3  0  0  0  0  0  0
  161.4700  206.5250  153.6940 C   0  0  0  0  0  2  0  0  0  0  0  0
  160.7460  210.9040  151.3260 C   0  0  1  0  0  3  0  0  0  0  0  0
  161.9310  208.6640  151.6980 C   0  0  1  0  0  3  0  0  0  0  0  0
  159.8480  211.6830  152.2690 C   0  0  2  0  0  3  0  0  0  0  0  0
  160.6240  209.8770  153.4800 C   0  0  1  0  0  3  0  0  0  0  0  0
  161.7340  208.2180  149.5390 C   0  0  0  0  0  1  0  0  0  0  0  0
  162.5900  208.8050  150.4730 O   0  0  0  0  0  0  0  0  0  0  0  0
  161.6830  211.8410  150.5800 C   0  0  0  0  0  2  0  0  0  0  0  0
  161.3700  211.8320  149.0970 C   0  0  0  0  0  1  0  0  0  0  0  0
  1 18  1  0  0  0  0
  3 19  1  0  0  0  0
  4  1  1  0  0  0  0
  6  5  2  0  0  0  0
  6  2  2  0  0  0  0
  7 12  1  0  0  0  0
  8 24  1  0  0  0  0
  8  6  1  1  0  0  0
  9 13  1  0  0  0  0
 10 24  1  0  0  0  0
 11 23  1  0  0  0  0
 11  7  1  0  0  0  0
 12  6  1  0  0  0  0
 13 20  1  0  0  0  0
 14  1  2  0  0  0  0
 14 17  1  0  0  0  0
 15  7  2  0  0  0  0
 16 22  1  0  0  0  0
 16 13  1  0  0  0  0
 17  3  2  0  0  0  0
 18 19  2  0  0  0  0
 20  4  1  0  0  0  0
 21 23  1  0  0  0  0
 21 10  1  0  0  0  0
 22 10  1  0  0  0  0
 23  8  1  0  0  0  0
 24 14  1  0  0  0  0
 25 26  1  0  0  0  0
 26 22  1  0  0  0  0
 27 21  1  0  0  0  0
 28 27  1  0  0  0  0
M  END
>  <MODEL>
1

>  <REMARK>
 VINA RESULT:      -6.1      0.000      0.000
  Name = 
  2 active torsions:
  status: ('A' for Active; 'I' for Inactive)
    1  A    between atoms: C_5  and  C_24
    2  A    between atoms: O_17  and  C_25
                            x       y       z     vdW  Elec       q    Type
                         _______ _______ _______ _____ _____    ______ ____

>  <TORSDO>
F 2

$$$$
