=
 OpenBabel11122414103D

 28 32  0  0  1  0  0  0  0  0999 V2000
  161.4060  210.7400  137.6520 C   0  0  0  0  0  0  0  0  0  0  0  0
  156.9870  213.1180  137.1200 C   0  0  0  0  0  1  0  0  0  0  0  0
  161.9640  213.3330  141.9850 O   0  0  0  0  0  0  0  0  0  0  0  0
  160.8190  208.4970  139.3370 C   0  0  0  0  0  2  0  0  0  0  0  0
  159.6210  213.5040  141.5240 C   0  0  0  0  0  0  0  0  0  0  0  0
  161.9180  211.9080  137.0110 N   0  0  0  0  0  2  0  0  0  0  0  0
  157.0670  210.6530  137.0110 C   0  0  0  0  0  1  0  0  0  0  0  0
  156.9080  211.8380  137.9450 C   0  0  0  0  0  0  0  0  0  0  0  0
  155.3800  212.4890  139.7210 C   0  0  0  0  0  0  0  0  0  0  0  0
  158.0090  211.7900  139.0350 C   0  0  2  0  0  3  0  0  0  0  0  0
  164.1170  212.5330  139.4910 O   0  0  0  0  0  0  0  0  0  0  0  0
  159.8240  213.3920  139.1460 C   0  0  1  0  0  3  0  0  0  0  0  0
  156.4780  213.3280  140.2810 C   0  0  0  0  0  2  0  0  0  0  0  0
  155.6300  211.7560  138.5670 O   0  0  0  0  0  0  0  0  0  0  0  0
  163.2930  212.9540  138.6970 C   0  0  0  0  0  0  0  0  0  0  0  0
  160.4040  210.8940  138.7790 C   0  0  2  0  0  3  0  0  0  0  0  0
  161.0040  213.3740  141.1710 C   0  0  0  0  0  0  0  0  0  0  0  0
  154.2440  212.4660  140.2620 O   0  0  0  0  0  0  0  0  0  0  0  0
  162.3070  213.9930  139.1260 C   0  0  0  0  0  2  0  0  0  0  0  0
  159.7460  209.5610  139.1670 C   0  0  0  0  0  2  0  0  0  0  0  0
  161.9640  209.5530  137.3730 C   0  0  0  0  0  3  0  0  0  0  0  0
  161.4980  208.2650  137.9920 C   0  0  0  0  0  2  0  0  0  0  0  0
  163.2520  212.4080  137.3060 C   0  0  0  0  0  2  0  0  0  0  0  0
  158.8080  213.6410  140.2840 C   0  0  1  0  0  3  0  0  0  0  0  0
  161.1570  213.3660  139.7640 N   0  0  0  0  0  0  0  0  0  0  0  0
  157.7670  212.6190  140.2420 N   0  0  2  0  0  0  0  0  0  0  0  0
  159.1720  213.5510  142.7000 O   0  0  0  0  0  0  0  0  0  0  0  0
  159.4170  212.0560  138.5100 C   0  0  1  0  0  3  0  0  0  0  0  0
  1 16  1  0  0  0  0
  2  8  1  0  0  0  0
  5 27  2  0  0  0  0
  6 23  1  0  0  0  0
  6  1  1  0  0  0  0
  7  8  1  0  0  0  0
  8 14  1  0  0  0  0
  9 18  2  0  0  0  0
  9 13  1  0  0  0  0
 10  8  1  6  0  0  0
 10 26  1  0  0  0  0
 12 25  1  1  0  0  0
 12 24  1  0  0  0  0
 14  9  1  0  0  0  0
 15 19  1  0  0  0  0
 15 11  2  0  0  0  0
 16 20  1  6  0  0  0
 17  5  1  0  0  0  0
 17  3  2  0  0  0  0
 19 25  1  0  0  0  0
 20  4  1  0  0  0  0
 21  1  2  0  0  0  0
 21 22  1  0  0  0  0
 22  4  1  0  0  0  0
 23 15  1  0  0  0  0
 24  5  1  1  0  0  0
 25 17  1  0  0  0  0
 26 13  1  6  0  0  0
 26 24  1  0  0  0  0
 28 16  1  0  0  0  0
 28 10  1  0  0  0  0
 28 12  1  0  0  0  0
M  END
>  <MODEL>
1

>  <REMARK>
 VINA RESULT:      -3.8      0.000      0.000
  Name = 
  0 active torsions:
  status: ('A' for Active; 'I' for Inactive)
                            x       y       z     vdW  Elec       q    Type
                         _______ _______ _______ _____ _____    ______ ____

>  <TORSDO>
F 0

$$$$
=
 OpenBabel11122414103D

 28 32  0  0  1  0  0  0  0  0999 V2000
  158.7680  213.5790  141.4290 C   0  0  0  0  0  0  0  0  0  0  0  0
  162.8100  214.4530  138.5370 C   0  0  0  0  0  1  0  0  0  0  0  0
  158.0810  209.3440  138.7080 O   0  0  0  0  0  0  0  0  0  0  0  0
  159.7210  211.8280  143.4880 C   0  0  0  0  0  2  0  0  0  0  0  0
  160.3580  209.9370  138.2630 C   0  0  0  0  0  0  0  0  0  0  0  0
  158.0780  214.2440  140.3710 N   0  0  0  0  0  2  0  0  0  0  0  0
  163.0460  214.4460  140.9940 C   0  0  0  0  0  1  0  0  0  0  0  0
  163.0930  213.5760  139.7510 C   0  0  0  0  0  0  0  0  0  0  0  0
  164.6060  211.9150  138.8190 C   0  0  0  0  0  0  0  0  0  0  0  0
  162.0610  212.4280  139.8830 C   0  0  2  0  0  3  0  0  0  0  0  0
  155.9360  211.6810  139.9040 O   0  0  0  0  0  0  0  0  0  0  0  0
  160.0600  212.2930  138.5220 C   0  0  1  0  0  3  0  0  0  0  0  0
  163.4350  211.3360  138.1000 C   0  0  0  0  0  2  0  0  0  0  0  0
  164.3990  213.0200  139.6370 O   0  0  0  0  0  0  0  0  0  0  0  0
  156.6600  212.5360  139.4230 C   0  0  0  0  0  0  0  0  0  0  0  0
  159.7930  212.5150  141.0900 C   0  0  2  0  0  3  0  0  0  0  0  0
  158.9880  210.2090  138.5860 C   0  0  0  0  0  0  0  0  0  0  0  0
  165.7590  211.4350  138.6680 O   0  0  0  0  0  0  0  0  0  0  0  0
  157.5210  212.2070  138.2460 C   0  0  0  0  0  2  0  0  0  0  0  0
  160.6370  212.1030  142.3070 C   0  0  0  0  0  2  0  0  0  0  0  0
  158.3570  213.7740  142.6900 C   0  0  0  0  0  3  0  0  0  0  0  0
  159.0150  213.1220  143.8740 C   0  0  0  0  0  2  0  0  0  0  0  0
  156.7060  213.9010  140.0300 C   0  0  0  0  0  2  0  0  0  0  0  0
  161.0870  211.2230  138.0870 C   0  0  1  0  0  3  0  0  0  0  0  0
  158.7720  211.6040  138.6860 N   0  0  0  0  0  0  0  0  0  0  0  0
  162.2490  211.2740  138.9690 N   0  0  2  0  0  0  0  0  0  0  0  0
  160.8520  208.7900  138.0970 O   0  0  0  0  0  0  0  0  0  0  0  0
  160.6060  212.8890  139.8260 C   0  0  1  0  0  3  0  0  0  0  0  0
  1 21  2  0  0  0  0
  2  8  1  0  0  0  0
  4 22  1  0  0  0  0
  5 17  1  0  0  0  0
  6  1  1  0  0  0  0
  8  7  1  0  0  0  0
  9 14  1  0  0  0  0
 10  8  1  6  0  0  0
 12 25  1  1  0  0  0
 12 28  1  0  0  0  0
 13  9  1  0  0  0  0
 14  8  1  0  0  0  0
 15 11  2  0  0  0  0
 15 23  1  0  0  0  0
 16  1  1  0  0  0  0
 16 20  1  1  0  0  0
 17 25  1  0  0  0  0
 17  3  2  0  0  0  0
 18  9  2  0  0  0  0
 19 25  1  0  0  0  0
 19 15  1  0  0  0  0
 20  4  1  0  0  0  0
 21 22  1  0  0  0  0
 23  6  1  0  0  0  0
 24  5  1  1  0  0  0
 24 12  1  0  0  0  0
 24 26  1  0  0  0  0
 26 13  1  6  0  0  0
 26 10  1  0  0  0  0
 27  5  2  0  0  0  0
 28 10  1  0  0  0  0
 28 16  1  0  0  0  0
M  END
>  <MODEL>
2

>  <REMARK>
 VINA RESULT:      -3.3      1.878      6.392
  Name = 
  0 active torsions:
  status: ('A' for Active; 'I' for Inactive)
                            x       y       z     vdW  Elec       q    Type
                         _______ _______ _______ _____ _____    ______ ____

>  <TORSDO>
F 0

$$$$
=
 OpenBabel11122414103D

 28 32  0  0  1  0  0  0  0  0999 V2000
  161.7110  210.2580  153.7690 C   0  0  0  0  0  0  0  0  0  0  0  0
  160.5140  214.4520  151.2310 C   0  0  0  0  0  1  0  0  0  0  0  0
  157.3150  210.8380  156.2510 O   0  0  0  0  0  0  0  0  0  0  0  0
  160.3720  208.1540  152.3570 C   0  0  0  0  0  2  0  0  0  0  0  0
  157.0510  212.2100  154.3070 C   0  0  0  0  0  0  0  0  0  0  0  0
  162.2450  211.1850  154.7140 N   0  0  0  0  0  2  0  0  0  0  0  0
  161.0940  212.3980  149.9910 C   0  0  0  0  0  1  0  0  0  0  0  0
  159.9520  213.1740  150.6190 C   0  0  0  0  0  0  0  0  0  0  0  0
  157.7260  213.8870  149.9480 C   0  0  0  0  0  0  0  0  0  0  0  0
  159.2490  212.2910  151.6810 C   0  0  2  0  0  3  0  0  0  0  0  0
  160.4220  209.9290  157.2600 O   0  0  0  0  0  0  0  0  0  0  0  0
  159.3660  212.7450  154.0590 C   0  0  1  0  0  3  0  0  0  0  0  0
  157.3570  213.9030  151.3930 C   0  0  0  0  0  2  0  0  0  0  0  0
  159.0180  213.5110  149.5990 O   0  0  0  0  0  0  0  0  0  0  0  0
  160.8570  210.9040  156.6700 C   0  0  0  0  0  0  0  0  0  0  0  0
  160.3370  210.5100  153.1810 C   0  0  2  0  0  3  0  0  0  0  0  0
  157.8010  211.5660  155.3450 C   0  0  0  0  0  0  0  0  0  0  0  0
  156.8970  214.2310  149.0660 O   0  0  0  0  0  0  0  0  0  0  0  0
  159.9810  212.0960  156.4520 C   0  0  0  0  0  2  0  0  0  0  0  0
  160.0310  209.5890  151.9900 C   0  0  0  0  0  2  0  0  0  0  0  0
  162.3510  209.0960  153.5730 C   0  0  0  0  0  3  0  0  0  0  0  0
  161.8730  208.0540  152.6020 C   0  0  0  0  0  2  0  0  0  0  0  0
  162.2550  210.8920  156.1390 C   0  0  0  0  0  2  0  0  0  0  0  0
  157.9600  213.0790  153.5100 C   0  0  1  0  0  3  0  0  0  0  0  0
  159.1690  211.9160  155.2560 N   0  0  0  0  0  0  0  0  0  0  0  0
  157.8920  212.7260  152.0950 N   0  0  2  0  0  0  0  0  0  0  0  0
  155.8070  212.1010  154.1330 O   0  0  0  0  0  0  0  0  0  0  0  0
  160.0950  212.0170  152.9230 C   0  0  1  0  0  3  0  0  0  0  0  0
  1  6  1  0  0  0  0
  4 22  1  0  0  0  0
  5 17  1  0  0  0  0
  6 23  1  0  0  0  0
  7  8  1  0  0  0  0
  8  2  1  0  0  0  0
  9 13  1  0  0  0  0
 10  8  1  1  0  0  0
 10 26  1  0  0  0  0
 10 28  1  0  0  0  0
 12 25  1  1  0  0  0
 14  9  1  0  0  0  0
 14  8  1  0  0  0  0
 15 11  2  0  0  0  0
 16 20  1  6  0  0  0
 16  1  1  0  0  0  0
 17  3  2  0  0  0  0
 18  9  2  0  0  0  0
 19 15  1  0  0  0  0
 20  4  1  0  0  0  0
 21  1  2  0  0  0  0
 22 21  1  0  0  0  0
 23 15  1  0  0  0  0
 24 12  1  0  0  0  0
 24  5  1  1  0  0  0
 25 17  1  0  0  0  0
 25 19  1  0  0  0  0
 26 13  1  6  0  0  0
 26 24  1  0  0  0  0
 27  5  2  0  0  0  0
 28 16  1  0  0  0  0
 28 12  1  0  0  0  0
M  END
>  <MODEL>
3

>  <REMARK>
 VINA RESULT:      -1.5     12.249     14.491
  Name = 
  0 active torsions:
  status: ('A' for Active; 'I' for Inactive)
                            x       y       z     vdW  Elec       q    Type
                         _______ _______ _______ _____ _____    ______ ____

>  <TORSDO>
F 0

$$$$
