=
 OpenBabel11122414183D

 34 40  0  0  1  0  0  0  0  0999 V2000
  160.8560  207.4920  154.3210 C   0  0  0  0  0  0  0  0  0  0  0  0
  161.3060  205.2990  153.1340 C   0  0  0  0  0  3  0  0  0  0  0  0
  157.5320  212.8420  154.1570 C   0  0  2  0  0  3  0  0  0  0  0  0
  160.0110  209.5630  155.1990 C   0  0  0  0  0  0  0  0  0  0  0  0
  159.7390  211.5850  153.6030 C   0  0  2  0  0  3  0  0  0  0  0  0
  159.5020  214.0450  153.0500 C   0  0  0  0  0  1  0  0  0  0  0  0
  156.5090  213.5110  153.4850 O   0  0  0  0  0  1  0  0  0  0  0  0
  159.1660  213.1980  156.0930 C   0  0  0  0  0  2  0  0  0  0  0  0
  161.8110  207.3930  152.0080 C   0  0  2  0  0  3  0  0  0  0  0  0
  161.3190  207.5210  148.7990 C   0  0  0  0  0  2  0  0  0  0  0  0
  159.5780  210.5120  152.5260 C   0  0  0  0  0  2  0  0  0  0  0  0
  159.4290  211.7270  156.1080 C   0  0  0  0  0  3  0  0  0  0  0  0
  160.8440  208.5390  151.6140 C   0  0  1  0  0  3  0  0  0  0  0  0
  161.7650  204.9530  151.7300 C   0  0  0  0  0  3  0  0  0  0  0  0
  159.6490  210.9870  155.0110 C   0  0  0  0  0  0  0  0  0  0  0  0
  157.7970  213.5250  155.5040 C   0  0  0  0  0  2  0  0  0  0  0  0
  160.9650  206.3910  149.7830 C   0  0  2  0  0  3  0  0  0  0  0  0
  160.4490  208.8090  154.1030 C   0  0  0  0  0  0  0  0  0  0  0  0
  158.7690  212.7280  153.2550 C   0  0  2  0  0  3  0  0  0  0  0  0
  160.4440  209.3600  152.7720 N   0  0  0  0  0  0  0  0  0  0  0  0
  160.3250  207.6850  156.6130 C   0  0  0  0  0  3  0  0  0  0  0  0
  162.1510  208.6570  149.3970 C   0  0  0  0  0  2  0  0  0  0  0  0
  159.9570  208.9800  156.4300 N   0  0  0  0  0  0  0  0  0  0  0  0
  161.4250  209.4260  150.5010 C   0  0  0  0  0  2  0  0  0  0  0  0
  161.9540  206.2670  150.9630 C   0  0  1  0  0  3  0  0  0  0  0  0
  160.7750  206.9480  155.5640 N   0  0  0  0  0  0  0  0  0  0  0  0
  161.3610  206.7410  153.2200 N   0  0  0  0  0  0  0  0  0  0  0  0
  160.8760  205.1400  149.0420 N   0  0  0  0  0  2  0  0  0  0  0  0
  161.5290  205.3590  147.7620 C   0  0  0  0  0  2  0  0  0  0  0  0
  160.8270  201.8780  146.9870 N   0  0  0  0  0  2  0  0  0  0  0  0
  161.2950  203.8960  145.7670 C   0  0  0  0  0  2  0  0  0  0  0  0
  161.9000  204.0290  147.1360 C   0  0  2  0  0  3  0  0  0  0  0  0
  160.9990  202.4210  145.6440 C   0  0  0  0  0  2  0  0  0  0  0  0
  161.2870  202.8960  147.9250 C   0  0  0  0  0  2  0  0  0  0  0  0
  1 26  1  0  0  0  0
  2 27  1  0  0  0  0
  3  7  1  6  0  0  0
  3 16  1  0  0  0  0
  4 23  2  0  0  0  0
  5 11  1  6  0  0  0
  5 15  1  0  0  0  0
  8 12  1  0  0  0  0
  9 27  1  1  0  0  0
 10 22  1  0  0  0  0
 10 17  1  0  0  0  0
 11 20  1  0  0  0  0
 13 24  1  6  0  0  0
 13  9  1  0  0  0  0
 13 20  1  0  0  0  0
 14  2  2  0  0  0  0
 15  4  1  0  0  0  0
 15 12  2  0  0  0  0
 16  8  1  0  0  0  0
 17 28  1  6  0  0  0
 17 25  1  0  0  0  0
 18  1  2  0  0  0  0
 18  4  1  0  0  0  0
 19  6  1  1  0  0  0
 19  5  1  0  0  0  0
 19  3  1  0  0  0  0
 20 18  1  0  0  0  0
 22 24  1  0  0  0  0
 23 21  1  0  0  0  0
 25 14  1  1  0  0  0
 25  9  1  0  0  0  0
 26 21  2  0  0  0  0
 27  1  1  0  0  0  0
 29 28  1  0  0  0  0
 30 34  1  0  0  0  0
 31 32  1  0  0  0  0
 32 29  1  1  0  0  0
 32 34  1  0  0  0  0
 33 31  1  0  0  0  0
 33 30  1  0  0  0  0
M  END
>  <MODEL>
1

>  <REMARK>
 VINA RESULT:      -9.0      0.000      0.000
  Name = 
  3 active torsions:
  status: ('A' for Active; 'I' for Inactive)
    1  A    between atoms: C_17  and  N_28
    2  A    between atoms: N_28  and  C_29
    3  A    between atoms: C_29  and  C_32
                            x       y       z     vdW  Elec       q    Type
                         _______ _______ _______ _____ _____    ______ ____

>  <TORSDO>
F 3

$$$$
=
 OpenBabel11122414183D

 34 40  0  0  1  0  0  0  0  0999 V2000
  161.7200  207.7810  149.5620 C   0  0  0  0  0  0  0  0  0  0  0  0
  161.4300  210.0010  150.7460 C   0  0  0  0  0  3  0  0  0  0  0  0
  159.4400  201.9390  148.9520 C   0  0  2  0  0  3  0  0  0  0  0  0
  161.5290  205.6080  148.5530 C   0  0  0  0  0  0  0  0  0  0  0  0
  161.1460  203.5470  150.0760 C   0  0  2  0  0  3  0  0  0  0  0  0
  161.1730  201.0760  150.6270 C   0  0  0  0  0  1  0  0  0  0  0  0
  158.3920  201.0950  149.3220 O   0  0  0  0  0  1  0  0  0  0  0  0
  161.6040  201.8940  147.5880 C   0  0  0  0  0  2  0  0  0  0  0  0
  161.9270  208.0090  152.0470 C   0  0  2  0  0  3  0  0  0  0  0  0
  160.5490  207.7550  154.9770 C   0  0  0  0  0  2  0  0  0  0  0  0
  160.4990  204.5620  151.0190 C   0  0  0  0  0  2  0  0  0  0  0  0
  161.6090  203.3890  147.5950 C   0  0  0  0  0  3  0  0  0  0  0  0
  161.0940  206.7100  152.1850 C   0  0  1  0  0  3  0  0  0  0  0  0
  161.3930  210.4020  152.2090 C   0  0  0  0  0  3  0  0  0  0  0  0
  161.3710  204.1400  148.6800 C   0  0  0  0  0  0  0  0  0  0  0  0
  160.1970  201.3300  147.7660 C   0  0  0  0  0  2  0  0  0  0  0  0
  160.3120  208.8210  153.8920 C   0  0  2  0  0  3  0  0  0  0  0  0
  161.4950  206.4110  149.7000 C   0  0  0  0  0  0  0  0  0  0  0  0
  160.3220  202.2510  150.1690 C   0  0  2  0  0  3  0  0  0  0  0  0
  161.1940  205.8480  150.9920 N   0  0  0  0  0  0  0  0  0  0  0  0
  161.9220  207.5320  147.2230 C   0  0  0  0  0  3  0  0  0  0  0  0
  161.6970  206.7860  154.6890 C   0  0  0  0  0  2  0  0  0  0  0  0
  161.7390  206.1900  147.3390 N   0  0  0  0  0  0  0  0  0  0  0  0
  161.4650  205.9200  153.4510 C   0  0  0  0  0  2  0  0  0  0  0  0
  161.5680  209.1290  153.0460 C   0  0  1  0  0  3  0  0  0  0  0  0
  161.9150  208.3200  148.3300 N   0  0  0  0  0  0  0  0  0  0  0  0
  161.7480  208.5910  150.7330 N   0  0  0  0  0  0  0  0  0  0  0  0
  159.8030  210.0280  154.5280 N   0  0  0  0  0  2  0  0  0  0  0  0
  159.7110  209.7490  155.9520 C   0  0  0  0  0  2  0  0  0  0  0  0
  159.8040  213.3710  156.2540 N   0  0  0  0  0  2  0  0  0  0  0  0
  158.1360  211.6390  156.3050 C   0  0  0  0  0  2  0  0  0  0  0  0
  159.4490  211.0330  156.7150 C   0  0  2  0  0  3  0  0  0  0  0  0
  158.3740  213.1260  156.4130 C   0  0  0  0  0  2  0  0  0  0  0  0
  160.4740  212.0770  156.3400 C   0  0  0  0  0  2  0  0  0  0  0  0
  1 18  1  0  0  0  0
  1 27  1  0  0  0  0
  2 14  2  0  0  0  0
  3  7  1  1  0  0  0
  3 19  1  0  0  0  0
  4 15  1  0  0  0  0
  4 18  2  0  0  0  0
  5 19  1  0  0  0  0
  5 11  1  1  0  0  0
  8 12  1  0  0  0  0
  8 16  1  0  0  0  0
  9 27  1  6  0  0  0
  9 13  1  0  0  0  0
  9 25  1  0  0  0  0
 12 15  2  0  0  0  0
 13 24  1  1  0  0  0
 15  5  1  0  0  0  0
 16  3  1  0  0  0  0
 17 28  1  1  0  0  0
 17 10  1  0  0  0  0
 18 20  1  0  0  0  0
 19  6  1  6  0  0  0
 20 11  1  0  0  0  0
 20 13  1  0  0  0  0
 21 23  2  0  0  0  0
 21 26  1  0  0  0  0
 22 10  1  0  0  0  0
 23  4  1  0  0  0  0
 24 22  1  0  0  0  0
 25 14  1  6  0  0  0
 25 17  1  0  0  0  0
 26  1  2  0  0  0  0
 27  2  1  0  0  0  0
 28 29  1  0  0  0  0
 30 34  1  0  0  0  0
 30 33  1  0  0  0  0
 31 33  1  0  0  0  0
 31 32  1  0  0  0  0
 32 29  1  6  0  0  0
 34 32  1  0  0  0  0
M  END
>  <MODEL>
2

>  <REMARK>
 VINA RESULT:      -7.9      2.933      9.471
  Name = 
  3 active torsions:
  status: ('A' for Active; 'I' for Inactive)
    1  A    between atoms: C_17  and  N_28
    2  A    between atoms: N_28  and  C_29
    3  A    between atoms: C_29  and  C_32
                            x       y       z     vdW  Elec       q    Type
                         _______ _______ _______ _____ _____    ______ ____

>  <TORSDO>
F 3

$$$$
=
 OpenBabel11122414183D

 34 40  0  0  1  0  0  0  0  0999 V2000
  161.6090  208.1200  149.5190 C   0  0  0  0  0  0  0  0  0  0  0  0
  162.1220  206.4610  147.6740 C   0  0  0  0  0  3  0  0  0  0  0  0
  162.1040  209.2570  155.6970 C   0  0  2  0  0  3  0  0  0  0  0  0
  161.4790  209.4630  151.5080 C   0  0  0  0  0  0  0  0  0  0  0  0
  160.6790  208.3660  153.7140 C   0  0  2  0  0  3  0  0  0  0  0  0
  159.7260  208.3810  156.0600 C   0  0  0  0  0  1  0  0  0  0  0  0
  162.6570  208.7840  156.8880 O   0  0  0  0  0  1  0  0  0  0  0  0
  160.6360  211.1690  154.8400 C   0  0  0  0  0  2  0  0  0  0  0  0
  160.6360  205.8130  149.4840 C   0  0  2  0  0  3  0  0  0  0  0  0
  160.7750  202.7300  150.5010 C   0  0  0  0  0  2  0  0  0  0  0  0
  161.2310  207.0830  153.0910 C   0  0  0  0  0  2  0  0  0  0  0  0
  161.0750  210.8490  153.4480 C   0  0  0  0  0  3  0  0  0  0  0  0
  160.9410  205.7150  151.0010 C   0  0  1  0  0  3  0  0  0  0  0  0
  161.7690  205.0010  147.4610 C   0  0  0  0  0  3  0  0  0  0  0  0
  161.1370  209.6080  152.9420 C   0  0  0  0  0  0  0  0  0  0  0  0
  161.6580  210.7120  155.8780 C   0  0  0  0  0  2  0  0  0  0  0  0
  161.6780  203.4490  149.4820 C   0  0  2  0  0  3  0  0  0  0  0  0
  161.3530  208.2130  150.8880 C   0  0  0  0  0  0  0  0  0  0  0  0
  160.9920  208.3120  155.2190 C   0  0  2  0  0  3  0  0  0  0  0  0
  161.0070  207.0390  151.6470 N   0  0  0  0  0  0  0  0  0  0  0  0
  162.1630  210.4130  149.4450 C   0  0  0  0  0  3  0  0  0  0  0  0
  159.5630  203.5380  150.9700 C   0  0  0  0  0  2  0  0  0  0  0  0
  161.8840  210.5350  150.7700 N   0  0  0  0  0  0  0  0  0  0  0  0
  159.9380  204.8080  151.7330 C   0  0  0  0  0  2  0  0  0  0  0  0
  160.9440  204.5390  148.6690 C   0  0  1  0  0  3  0  0  0  0  0  0
  162.0220  209.2120  148.8250 N   0  0  0  0  0  0  0  0  0  0  0  0
  161.4220  206.8630  148.8730 N   0  0  0  0  0  0  0  0  0  0  0  0
  162.2720  202.4530  148.6030 N   0  0  0  0  0  2  0  0  0  0  0  0
  161.1950  201.5810  148.1620 C   0  0  0  0  0  2  0  0  0  0  0  0
  160.4760  199.6010  145.1990 N   0  0  0  0  0  2  0  0  0  0  0  0
  160.1750  201.8760  145.9150 C   0  0  0  0  0  2  0  0  0  0  0  0
  161.3330  201.2980  146.6780 C   0  0  2  0  0  3  0  0  0  0  0  0
  159.9650  200.9020  144.7810 C   0  0  0  0  0  2  0  0  0  0  0  0
  161.2410  199.8120  146.4240 C   0  0  0  0  0  2  0  0  0  0  0  0
  1 18  1  0  0  0  0
  2 27  1  0  0  0  0
  3 16  1  0  0  0  0
  3  7  1  1  0  0  0
  4 15  1  0  0  0  0
  5 11  1  6  0  0  0
  5 19  1  0  0  0  0
  8 16  1  0  0  0  0
  9 27  1  6  0  0  0
  9 13  1  0  0  0  0
 10 22  1  0  0  0  0
 12  8  1  0  0  0  0
 13 20  1  0  0  0  0
 13 24  1  1  0  0  0
 14  2  2  0  0  0  0
 15 12  2  0  0  0  0
 15  5  1  0  0  0  0
 17 28  1  6  0  0  0
 17 10  1  0  0  0  0
 18  4  2  0  0  0  0
 18 20  1  0  0  0  0
 19  3  1  0  0  0  0
 19  6  1  1  0  0  0
 20 11  1  0  0  0  0
 21 23  2  0  0  0  0
 22 24  1  0  0  0  0
 23  4  1  0  0  0  0
 25 14  1  6  0  0  0
 25 17  1  0  0  0  0
 25  9  1  0  0  0  0
 26 21  1  0  0  0  0
 26  1  2  0  0  0  0
 27  1  1  0  0  0  0
 29 28  1  0  0  0  0
 30 34  1  0  0  0  0
 31 32  1  0  0  0  0
 32 29  1  1  0  0  0
 33 30  1  0  0  0  0
 33 31  1  0  0  0  0
 34 32  1  0  0  0  0
M  END
>  <MODEL>
3

>  <REMARK>
 VINA RESULT:      -6.4      2.568      4.596
  Name = 
  3 active torsions:
  status: ('A' for Active; 'I' for Inactive)
    1  A    between atoms: C_17  and  N_28
    2  A    between atoms: N_28  and  C_29
    3  A    between atoms: C_29  and  C_32
                            x       y       z     vdW  Elec       q    Type
                         _______ _______ _______ _____ _____    ______ ____

>  <TORSDO>
F 3

$$$$
