=
 OpenBabel11122412353D

 30 36  0  0  1  0  0  0  0  0999 V2000
  161.4740  207.5670  151.4560 C   0  0  1  0  0  3  0  0  0  0  0  0
  161.7760  210.0970  151.0130 C   0  0  0  0  0  0  0  0  0  0  0  0
  162.0770  206.7760  147.2130 C   0  0  0  0  0  2  0  0  0  0  0  0
  161.6610  206.1400  150.8670 C   0  0  1  0  0  3  0  0  0  0  0  0
  162.1520  207.5690  152.8200 C   0  0  0  0  0  2  0  0  0  0  0  0
  160.5530  204.4890  153.9940 O   0  0  0  0  0  0  0  0  0  0  0  0
  160.1880  203.2890  150.1680 C   0  0  1  0  0  3  0  0  0  0  0  0
  160.9960  205.3650  153.2000 C   0  0  0  0  0  0  0  0  0  0  0  0
  160.6740  203.6580  148.7670 C   0  0  2  0  0  3  0  0  0  0  0  0
  161.9010  205.3120  147.3420 C   0  0  0  0  0  0  0  0  0  0  0  0
  161.5190  206.6040  153.7180 N   0  0  0  0  0  0  0  0  0  0  0  0
  160.8450  205.1510  151.7110 C   0  0  2  0  0  3  0  0  0  0  0  0
  161.5460  211.1700  149.9780 C   0  0  0  0  0  2  0  0  0  0  0  0
  161.4100  202.4300  148.2720 C   0  0  0  0  0  2  0  0  0  0  0  0
  160.0220  201.7780  150.1590 C   0  0  0  0  0  2  0  0  0  0  0  0
  161.7390  210.3900  152.1970 O   0  0  0  0  0  0  0  0  0  0  0  0
  162.1240  207.1450  148.6750 C   0  0  2  0  0  3  0  0  0  0  0  0
  162.2270  210.7980  148.6840 C   0  0  0  0  0  3  0  0  0  0  0  0
  162.0850  208.6800  150.5680 C   0  0  2  0  0  3  0  0  0  0  0  0
  161.2520  206.1230  149.3840 C   0  0  1  0  0  3  0  0  0  0  0  0
  162.0470  204.5240  146.3700 O   0  0  0  0  0  0  0  0  0  0  0  0
  161.4840  204.8800  148.6440 N   0  0  0  0  0  0  0  0  0  0  0  0
  160.6770  201.2590  148.8890 C   0  0  0  0  0  2  0  0  0  0  0  0
  162.5620  203.3200  151.1840 C   0  0  0  0  0  1  0  0  0  0  0  0
  162.2820  209.5660  148.2970 N   0  0  0  0  0  0  0  0  0  0  0  0
  161.6730  208.5220  149.0940 C   0  0  1  0  0  3  0  0  0  0  0  0
  161.0880  203.6960  151.3330 C   0  0  2  0  0  3  0  0  0  0  0  0
  161.2270  207.0110  155.0930 C   0  0  0  0  0  3  0  0  0  0  0  0
  159.8930  207.7400  155.1650 C   0  0  0  0  0  2  0  0  0  0  0  0
  161.1810  208.5280  155.1890 C   0  0  0  0  0  2  0  0  0  0  0  0
  1  5  1  1  0  0  0
  2 16  2  0  0  0  0
  3 10  1  0  0  0  0
  3 17  1  0  0  0  0
  4  1  1  0  0  0  0
  4 12  1  0  0  0  0
  5 11  1  0  0  0  0
  7 27  1  0  0  0  0
  8 11  1  0  0  0  0
  8  6  2  0  0  0  0
  9  7  1  0  0  0  0
 10 22  1  0  0  0  0
 11 28  1  0  0  0  0
 12  8  1  0  0  0  0
 13  2  1  0  0  0  0
 14  9  1  0  0  0  0
 14 23  1  0  0  0  0
 15  7  1  0  0  0  0
 17 26  1  0  0  0  0
 17 20  1  0  0  0  0
 18 13  1  0  0  0  0
 19  2  1  0  0  0  0
 19  1  1  0  0  0  0
 20  4  1  0  0  0  0
 21 10  2  0  0  0  0
 22  9  1  0  0  0  0
 22 20  1  0  0  0  0
 23 15  1  0  0  0  0
 24 27  1  0  0  0  0
 25 18  2  0  0  0  0
 25 26  1  0  0  0  0
 26 19  1  0  0  0  0
 27 12  1  0  0  0  0
 28 29  1  0  0  0  0
 28 30  1  0  0  0  0
 29 30  1  0  0  0  0
M  END
>  <MODEL>
1

>  <REMARK>
 VINA RESULT:      -7.1      0.000      0.000
  Name = 
  1 active torsions:
  status: ('A' for Active; 'I' for Inactive)
    1  A    between atoms: N_11  and  C_28
                            x       y       z     vdW  Elec       q    Type
                         _______ _______ _______ _____ _____    ______ ____

>  <TORSDO>
F 1

$$$$
=
 OpenBabel11122412353D

 30 36  0  0  1  0  0  0  0  0999 V2000
  161.1270  204.8430  148.8670 C   0  0  1  0  0  3  0  0  0  0  0  0
  160.8280  202.3150  148.4100 C   0  0  0  0  0  0  0  0  0  0  0  0
  161.0770  204.0490  153.1520 C   0  0  0  0  0  2  0  0  0  0  0  0
  161.4840  205.9080  149.9410 C   0  0  1  0  0  3  0  0  0  0  0  0
  162.0330  205.1080  147.6710 C   0  0  0  0  0  2  0  0  0  0  0  0
  161.3310  208.7000  147.5090 O   0  0  0  0  0  0  0  0  0  0  0  0
  160.5100  208.6580  151.4510 C   0  0  1  0  0  3  0  0  0  0  0  0
  161.4340  207.5340  147.9810 C   0  0  0  0  0  0  0  0  0  0  0  0
  160.6430  207.7490  152.6720 C   0  0  2  0  0  3  0  0  0  0  0  0
  161.2270  205.4710  153.5350 C   0  0  0  0  0  0  0  0  0  0  0  0
  161.7840  206.4370  147.1140 N   0  0  0  0  0  0  0  0  0  0  0  0
  161.0550  207.2880  149.4240 C   0  0  2  0  0  3  0  0  0  0  0  0
  160.1980  201.0610  148.9640 C   0  0  0  0  0  2  0  0  0  0  0  0
  161.5060  208.5240  153.6450 C   0  0  0  0  0  2  0  0  0  0  0  0
  160.6520  210.0760  151.9800 C   0  0  0  0  0  2  0  0  0  0  0  0
  160.9540  202.4370  147.2020 O   0  0  0  0  0  0  0  0  0  0  0  0
  161.3200  204.1700  151.6680 C   0  0  2  0  0  3  0  0  0  0  0  0
  160.6880  200.8130  150.3700 C   0  0  0  0  0  3  0  0  0  0  0  0
  161.3270  203.3870  149.3600 C   0  0  2  0  0  3  0  0  0  0  0  0
  160.8190  205.5510  151.2820 C   0  0  1  0  0  3  0  0  0  0  0  0
  161.3440  205.8410  154.7330 O   0  0  0  0  0  0  0  0  0  0  0  0
  161.1540  206.3890  152.4360 N   0  0  0  0  0  0  0  0  0  0  0  0
  161.1500  209.9760  153.4130 C   0  0  0  0  0  2  0  0  0  0  0  0
  162.9760  208.3560  150.7460 C   0  0  0  0  0  1  0  0  0  0  0  0
  160.9170  201.7990  151.1740 N   0  0  0  0  0  0  0  0  0  0  0  0
  160.6890  203.1620  150.7420 C   0  0  1  0  0  3  0  0  0  0  0  0
  161.5100  208.4340  150.3190 C   0  0  2  0  0  3  0  0  0  0  0  0
  161.6770  206.5810  145.6610 C   0  0  0  0  0  3  0  0  0  0  0  0
  160.3000  206.1480  145.1800 C   0  0  0  0  0  2  0  0  0  0  0  0
  161.4790  205.2190  145.0160 C   0  0  0  0  0  2  0  0  0  0  0  0
  1  5  1  6  0  0  0
  1 19  1  0  0  0  0
  1  4  1  0  0  0  0
  2 13  1  0  0  0  0
  2 19  1  0  0  0  0
  3 10  1  0  0  0  0
  4 20  1  0  0  0  0
  6  8  2  0  0  0  0
  7 15  1  0  0  0  0
  7  9  1  0  0  0  0
  8 12  1  0  0  0  0
  9 14  1  0  0  0  0
 10 21  2  0  0  0  0
 11  5  1  0  0  0  0
 11  8  1  0  0  0  0
 12  4  1  0  0  0  0
 12 27  1  0  0  0  0
 13 18  1  0  0  0  0
 15 23  1  0  0  0  0
 16  2  2  0  0  0  0
 17  3  1  0  0  0  0
 18 25  2  0  0  0  0
 19 26  1  0  0  0  0
 20 17  1  0  0  0  0
 20 22  1  0  0  0  0
 22  9  1  0  0  0  0
 22 10  1  0  0  0  0
 23 14  1  0  0  0  0
 26 25  1  0  0  0  0
 26 17  1  0  0  0  0
 27 24  1  0  0  0  0
 27  7  1  0  0  0  0
 28 11  1  0  0  0  0
 29 28  1  0  0  0  0
 30 29  1  0  0  0  0
 30 28  1  0  0  0  0
M  END
>  <MODEL>
2

>  <REMARK>
 VINA RESULT:      -6.7      1.816      7.168
  Name = 
  1 active torsions:
  status: ('A' for Active; 'I' for Inactive)
    1  A    between atoms: N_11  and  C_28
                            x       y       z     vdW  Elec       q    Type
                         _______ _______ _______ _____ _____    ______ ____

>  <TORSDO>
F 1

$$$$
=
 OpenBabel11122412353D

 30 36  0  0  1  0  0  0  0  0999 V2000
  161.1460  208.8970  150.8500 C   0  0  1  0  0  3  0  0  0  0  0  0
  161.5220  207.0090  149.1230 C   0  0  0  0  0  0  0  0  0  0  0  0
  160.9090  205.9160  154.0210 C   0  0  0  0  0  2  0  0  0  0  0  0
  161.1300  209.2530  152.3640 C   0  0  1  0  0  3  0  0  0  0  0  0
  162.0610  209.9080  150.1730 C   0  0  0  0  0  2  0  0  0  0  0  0
  160.5110  212.8480  151.7140 O   0  0  0  0  0  0  0  0  0  0  0  0
  159.3760  210.5500  154.8180 C   0  0  1  0  0  3  0  0  0  0  0  0
  160.8560  211.6470  151.5380 C   0  0  0  0  0  0  0  0  0  0  0  0
  159.6190  209.1600  155.4060 C   0  0  2  0  0  3  0  0  0  0  0  0
  160.6670  206.9070  155.0940 C   0  0  0  0  0  0  0  0  0  0  0  0
  161.5430  211.2670  150.3300 N   0  0  0  0  0  0  0  0  0  0  0  0
  160.4210  210.6030  152.5420 C   0  0  2  0  0  3  0  0  0  0  0  0
  161.1750  205.5720  148.8200 C   0  0  0  0  0  2  0  0  0  0  0  0
  160.1720  209.4120  156.7930 C   0  0  0  0  0  2  0  0  0  0  0  0
  159.1140  211.4570  156.0090 C   0  0  0  0  0  2  0  0  0  0  0  0
  161.7220  207.7830  148.2010 O   0  0  0  0  0  0  0  0  0  0  0  0
  161.2470  206.8580  152.8920 C   0  0  2  0  0  3  0  0  0  0  0  0
  161.5820  204.6860  149.9720 C   0  0  0  0  0  3  0  0  0  0  0  0
  161.6540  207.4610  150.5660 C   0  0  2  0  0  3  0  0  0  0  0  0
  160.4560  208.1260  153.1650 C   0  0  1  0  0  3  0  0  0  0  0  0
  160.5810  206.5830  156.3070 O   0  0  0  0  0  0  0  0  0  0  0  0
  160.4690  208.2470  154.6250 N   0  0  0  0  0  0  0  0  0  0  0  0
  159.4910  210.6800  157.2610 C   0  0  0  0  0  2  0  0  0  0  0  0
  161.8920  211.0790  154.5880 C   0  0  0  0  0  1  0  0  0  0  0  0
  161.4870  205.1020  151.1910 N   0  0  0  0  0  0  0  0  0  0  0  0
  160.9690  206.4240  151.4740 C   0  0  1  0  0  3  0  0  0  0  0  0
  160.4970  211.1380  153.9660 C   0  0  2  0  0  3  0  0  0  0  0  0
  161.5350  212.1540  149.1650 C   0  0  0  0  0  3  0  0  0  0  0  0
  161.3190  211.3570  147.8870 C   0  0  0  0  0  2  0  0  0  0  0  0
  162.7060  211.8270  148.2530 C   0  0  0  0  0  2  0  0  0  0  0  0
  1  5  1  6  0  0  0
  1  4  1  0  0  0  0
  2 19  1  0  0  0  0
  3 10  1  0  0  0  0
  4 12  1  0  0  0  0
  4 20  1  0  0  0  0
  5 11  1  0  0  0  0
  7  9  1  0  0  0  0
  7 15  1  0  0  0  0
  8  6  2  0  0  0  0
  8 12  1  0  0  0  0
  9 14  1  0  0  0  0
 10 21  2  0  0  0  0
 11  8  1  0  0  0  0
 12 27  1  0  0  0  0
 13  2  1  0  0  0  0
 13 18  1  0  0  0  0
 14 23  1  0  0  0  0
 15 23  1  0  0  0  0
 16  2  2  0  0  0  0
 17 20  1  0  0  0  0
 17  3  1  0  0  0  0
 18 25  2  0  0  0  0
 19  1  1  0  0  0  0
 19 26  1  0  0  0  0
 20 22  1  0  0  0  0
 22 10  1  0  0  0  0
 22  9  1  0  0  0  0
 25 26  1  0  0  0  0
 26 17  1  0  0  0  0
 27 24  1  0  0  0  0
 27  7  1  0  0  0  0
 28 11  1  0  0  0  0
 29 30  1  0  0  0  0
 29 28  1  0  0  0  0
 30 28  1  0  0  0  0
M  END
>  <MODEL>
3

>  <REMARK>
 VINA RESULT:      -6.4      2.117      7.186
  Name = 
  1 active torsions:
  status: ('A' for Active; 'I' for Inactive)
    1  A    between atoms: N_11  and  C_28
                            x       y       z     vdW  Elec       q    Type
                         _______ _______ _______ _____ _____    ______ ____

>  <TORSDO>
F 1

$$$$
=
 OpenBabel11122412353D

 30 36  0  0  1  0  0  0  0  0999 V2000
  161.5990  208.3460  151.5950 C   0  0  1  0  0  3  0  0  0  0  0  0
  161.3880  208.8690  154.1180 C   0  0  0  0  0  0  0  0  0  0  0  0
  160.5760  204.1860  152.3970 C   0  0  0  0  0  2  0  0  0  0  0  0
  161.2870  207.3080  150.4800 C   0  0  1  0  0  3  0  0  0  0  0  0
  161.0490  209.6820  151.1150 C   0  0  0  0  0  2  0  0  0  0  0  0
  162.5880  209.5060  147.7950 O   0  0  0  0  0  0  0  0  0  0  0  0
  162.5430  205.4880  148.0510 C   0  0  1  0  0  3  0  0  0  0  0  0
  162.1200  209.1280  148.9050 C   0  0  0  0  0  0  0  0  0  0  0  0
  161.9520  204.3690  148.9080 C   0  0  2  0  0  3  0  0  0  0  0  0
  160.6870  203.7640  150.9830 C   0  0  0  0  0  0  0  0  0  0  0  0
  161.7100  210.1050  149.8810 N   0  0  0  0  0  0  0  0  0  0  0  0
  162.1250  207.6530  149.2410 C   0  0  2  0  0  3  0  0  0  0  0  0
  161.5780  208.2690  155.4900 C   0  0  0  0  0  2  0  0  0  0  0  0
  161.1120  203.5470  147.9530 C   0  0  0  0  0  2  0  0  0  0  0  0
  162.6310  204.9220  146.6430 C   0  0  0  0  0  2  0  0  0  0  0  0
  161.5460  210.0700  153.9640 O   0  0  0  0  0  0  0  0  0  0  0  0
  160.6800  205.6800  152.2150 C   0  0  2  0  0  3  0  0  0  0  0  0
  160.7650  207.0040  155.6190 C   0  0  0  0  0  3  0  0  0  0  0  0
  160.9680  207.9810  152.9620 C   0  0  2  0  0  3  0  0  0  0  0  0
  161.5590  205.8830  150.9930 C   0  0  1  0  0  3  0  0  0  0  0  0
  160.4140  202.5950  150.6020 O   0  0  0  0  0  0  0  0  0  0  0  0
  161.1970  204.7750  150.1040 N   0  0  0  0  0  0  0  0  0  0  0  0
  161.8380  203.6250  146.6280 C   0  0  0  0  0  2  0  0  0  0  0  0
  160.2760  206.6860  147.7500 C   0  0  0  0  0  1  0  0  0  0  0  0
  160.6110  206.2110  154.6120 N   0  0  0  0  0  0  0  0  0  0  0  0
  161.2360  206.5140  153.3410 C   0  0  1  0  0  3  0  0  0  0  0  0
  161.7750  206.8070  148.0240 C   0  0  2  0  0  3  0  0  0  0  0  0
  162.1460  211.4980  149.7610 C   0  0  0  0  0  3  0  0  0  0  0  0
  160.9470  212.4350  149.7560 C   0  0  0  0  0  2  0  0  0  0  0  0
  161.6380  212.0930  148.4570 C   0  0  0  0  0  2  0  0  0  0  0  0
  1  5  1  6  0  0  0
  1 19  1  0  0  0  0
  2 13  1  0  0  0  0
  4 20  1  0  0  0  0
  4  1  1  0  0  0  0
  6  8  2  0  0  0  0
  7  9  1  0  0  0  0
  8 12  1  0  0  0  0
  8 11  1  0  0  0  0
  9 22  1  0  0  0  0
 10  3  1  0  0  0  0
 11  5  1  0  0  0  0
 12  4  1  0  0  0  0
 13 18  1  0  0  0  0
 14  9  1  0  0  0  0
 15  7  1  0  0  0  0
 16  2  2  0  0  0  0
 17  3  1  0  0  0  0
 17 26  1  0  0  0  0
 19 26  1  0  0  0  0
 19  2  1  0  0  0  0
 20 17  1  0  0  0  0
 21 10  2  0  0  0  0
 22 10  1  0  0  0  0
 22 20  1  0  0  0  0
 23 15  1  0  0  0  0
 23 14  1  0  0  0  0
 24 27  1  0  0  0  0
 25 18  2  0  0  0  0
 26 25  1  0  0  0  0
 27  7  1  0  0  0  0
 27 12  1  0  0  0  0
 28 11  1  0  0  0  0
 29 28  1  0  0  0  0
 30 29  1  0  0  0  0
 30 28  1  0  0  0  0
M  END
>  <MODEL>
4

>  <REMARK>
 VINA RESULT:      -6.2      1.681      4.910
  Name = 
  1 active torsions:
  status: ('A' for Active; 'I' for Inactive)
    1  A    between atoms: N_11  and  C_28
                            x       y       z     vdW  Elec       q    Type
                         _______ _______ _______ _____ _____    ______ ____

>  <TORSDO>
F 1

$$$$
=
 OpenBabel11122412353D

 30 36  0  0  1  0  0  0  0  0999 V2000
  160.5270  211.0220  151.3930 C   0  0  1  0  0  3  0  0  0  0  0  0
  161.8880  209.3810  149.9300 C   0  0  0  0  0  0  0  0  0  0  0  0
  160.8290  208.2490  154.7410 C   0  0  0  0  0  2  0  0  0  0  0  0
  160.1010  211.3800  152.8450 C   0  0  1  0  0  3  0  0  0  0  0  0
  161.1110  212.2900  150.7840 C   0  0  0  0  0  2  0  0  0  0  0  0
  158.3260  214.4530  151.7780 O   0  0  0  0  0  0  0  0  0  0  0  0
  157.5700  211.9670  154.8540 C   0  0  1  0  0  3  0  0  0  0  0  0
  159.1180  213.4700  151.7710 C   0  0  0  0  0  0  0  0  0  0  0  0
  158.1970  210.7890  155.5970 C   0  0  2  0  0  3  0  0  0  0  0  0
  160.0430  209.0980  155.6660 C   0  0  0  0  0  0  0  0  0  0  0  0
  160.1070  213.3530  150.7300 N   0  0  0  0  0  0  0  0  0  0  0  0
  158.9230  212.3620  152.7820 C   0  0  2  0  0  3  0  0  0  0  0  0
  162.1600  207.9140  149.7060 C   0  0  0  0  0  2  0  0  0  0  0  0
  158.3510  211.2640  157.0260 C   0  0  0  0  0  2  0  0  0  0  0  0
  156.7760  212.7340  155.8990 C   0  0  0  0  0  2  0  0  0  0  0  0
  161.9540  210.1520  148.9850 O   0  0  0  0  0  0  0  0  0  0  0  0
  160.9960  209.2220  153.6010 C   0  0  2  0  0  3  0  0  0  0  0  0
  162.6460  207.2760  150.9850 C   0  0  0  0  0  3  0  0  0  0  0  0
  161.5740  209.8810  151.3270 C   0  0  2  0  0  3  0  0  0  0  0  0
  159.7570  210.1000  153.6250 C   0  0  1  0  0  3  0  0  0  0  0  0
  159.8610  208.7930  156.8740 O   0  0  0  0  0  0  0  0  0  0  0  0
  159.4540  210.2510  155.0510 N   0  0  0  0  0  0  0  0  0  0  0  0
  157.1750  212.1870  157.2600 C   0  0  0  0  0  2  0  0  0  0  0  0
  159.7080  213.4090  154.9880 C   0  0  0  0  0  1  0  0  0  0  0  0
  162.1800  207.6520  152.1290 N   0  0  0  0  0  0  0  0  0  0  0  0
  161.1660  208.6840  152.2030 C   0  0  1  0  0  3  0  0  0  0  0  0
  158.5310  212.9180  154.1440 C   0  0  2  0  0  3  0  0  0  0  0  0
  159.9870  214.1430  149.5040 C   0  0  0  0  0  3  0  0  0  0  0  0
  159.1450  213.4060  148.4720 C   0  0  0  0  0  2  0  0  0  0  0  0
  160.6490  213.4140  148.3460 C   0  0  0  0  0  2  0  0  0  0  0  0
  1  5  1  1  0  0  0
  1  4  1  0  0  0  0
  2 19  1  0  0  0  0
  3 10  1  0  0  0  0
  4 20  1  0  0  0  0
  7  9  1  0  0  0  0
  7 15  1  0  0  0  0
  8  6  2  0  0  0  0
  8 12  1  0  0  0  0
  9 14  1  0  0  0  0
 10 21  2  0  0  0  0
 11  5  1  0  0  0  0
 11  8  1  0  0  0  0
 12  4  1  0  0  0  0
 12 27  1  0  0  0  0
 13  2  1  0  0  0  0
 13 18  1  0  0  0  0
 14 23  1  0  0  0  0
 15 23  1  0  0  0  0
 16  2  2  0  0  0  0
 17 20  1  0  0  0  0
 17  3  1  0  0  0  0
 18 25  2  0  0  0  0
 19  1  1  0  0  0  0
 19 26  1  0  0  0  0
 20 22  1  0  0  0  0
 22  9  1  0  0  0  0
 22 10  1  0  0  0  0
 25 26  1  0  0  0  0
 26 17  1  0  0  0  0
 27  7  1  0  0  0  0
 27 24  1  0  0  0  0
 28 11  1  0  0  0  0
 29 28  1  0  0  0  0
 30 29  1  0  0  0  0
 30 28  1  0  0  0  0
M  END
>  <MODEL>
5

>  <REMARK>
 VINA RESULT:      -5.3      3.571      8.273
  Name = 
  1 active torsions:
  status: ('A' for Active; 'I' for Inactive)
    1  A    between atoms: N_11  and  C_28
                            x       y       z     vdW  Elec       q    Type
                         _______ _______ _______ _____ _____    ______ ____

>  <TORSDO>
F 1

$$$$
=
 OpenBabel11122412353D

 30 36  0  0  1  0  0  0  0  0999 V2000
  161.5730  205.3990  149.8220 C   0  0  1  0  0  3  0  0  0  0  0  0
  161.8990  204.3930  147.4620 C   0  0  0  0  0  0  0  0  0  0  0  0
  161.9590  209.4020  148.1430 C   0  0  0  0  0  2  0  0  0  0  0  0
  161.2710  206.6980  150.6210 C   0  0  1  0  0  3  0  0  0  0  0  0
  160.5750  204.3510  150.2980 C   0  0  0  0  0  2  0  0  0  0  0  0
  161.1760  204.9140  153.8680 O   0  0  0  0  0  0  0  0  0  0  0  0
  162.2870  208.6910  153.0260 C   0  0  1  0  0  3  0  0  0  0  0  0
  161.1360  205.1320  152.6250 C   0  0  0  0  0  0  0  0  0  0  0  0
  162.2670  209.6960  151.8740 C   0  0  2  0  0  3  0  0  0  0  0  0
  161.8040  210.0890  149.4450 C   0  0  0  0  0  0  0  0  0  0  0  0
  160.7500  204.0760  151.7240 N   0  0  0  0  0  0  0  0  0  0  0  0
  161.6270  206.4600  152.0960 C   0  0  2  0  0  3  0  0  0  0  0  0
  162.5980  204.6230  146.1450 C   0  0  0  0  0  2  0  0  0  0  0  0
  161.4600  210.8680  152.3920 C   0  0  0  0  0  2  0  0  0  0  0  0
  162.1510  209.5190  154.2930 C   0  0  0  0  0  2  0  0  0  0  0  0
  161.6810  203.2500  147.8320 O   0  0  0  0  0  0  0  0  0  0  0  0
  161.6040  207.9980  148.5650 C   0  0  2  0  0  3  0  0  0  0  0  0
  162.2200  205.9730  145.5860 C   0  0  0  0  0  3  0  0  0  0  0  0
  161.4460  205.5820  148.2890 C   0  0  2  0  0  3  0  0  0  0  0  0
  162.0420  207.8830  150.0150 C   0  0  1  0  0  3  0  0  0  0  0  0
  161.7670  211.3440  149.5480 O   0  0  0  0  0  0  0  0  0  0  0  0
  161.7730  209.2090  150.5760 N   0  0  0  0  0  0  0  0  0  0  0  0
  161.7630  210.9280  153.8730 C   0  0  0  0  0  2  0  0  0  0  0  0
  159.7840  208.1060  152.7830 C   0  0  0  0  0  1  0  0  0  0  0  0
  162.0270  206.9820  146.3700 N   0  0  0  0  0  0  0  0  0  0  0  0
  162.1900  206.8370  147.8010 C   0  0  1  0  0  3  0  0  0  0  0  0
  161.2120  207.6070  153.0070 C   0  0  2  0  0  3  0  0  0  0  0  0
  160.7450  202.6830  152.1760 C   0  0  0  0  0  3  0  0  0  0  0  0
  162.0620  202.0040  151.8300 C   0  0  0  0  0  2  0  0  0  0  0  0
  160.8410  201.7470  150.9820 C   0  0  0  0  0  2  0  0  0  0  0  0
  1  5  1  1  0  0  0
  1  4  1  0  0  0  0
  2 16  2  0  0  0  0
  2 19  1  0  0  0  0
  3 17  1  0  0  0  0
  3 10  1  0  0  0  0
  4 12  1  0  0  0  0
  5 11  1  0  0  0  0
  7 15  1  0  0  0  0
  8  6  2  0  0  0  0
  9 14  1  0  0  0  0
  9  7  1  0  0  0  0
 10 21  2  0  0  0  0
 10 22  1  0  0  0  0
 11 28  1  0  0  0  0
 11  8  1  0  0  0  0
 12  8  1  0  0  0  0
 12 27  1  0  0  0  0
 13  2  1  0  0  0  0
 14 23  1  0  0  0  0
 17 20  1  0  0  0  0
 18 13  1  0  0  0  0
 18 25  2  0  0  0  0
 19  1  1  0  0  0  0
 20 22  1  0  0  0  0
 20  4  1  0  0  0  0
 22  9  1  0  0  0  0
 23 15  1  0  0  0  0
 24 27  1  0  0  0  0
 25 26  1  0  0  0  0
 26 19  1  0  0  0  0
 26 17  1  0  0  0  0
 27  7  1  0  0  0  0
 29 28  1  0  0  0  0
 30 29  1  0  0  0  0
 30 28  1  0  0  0  0
M  END
>  <MODEL>
6

>  <REMARK>
 VINA RESULT:      -4.5      1.670      5.683
  Name = 
  1 active torsions:
  status: ('A' for Active; 'I' for Inactive)
    1  A    between atoms: N_11  and  C_28
                            x       y       z     vdW  Elec       q    Type
                         _______ _______ _______ _____ _____    ______ ____

>  <TORSDO>
F 1

$$$$
=
 OpenBabel11122412353D

 30 36  0  0  1  0  0  0  0  0999 V2000
  161.0890  204.0680  148.5520 C   0  0  1  0  0  3  0  0  0  0  0  0
  160.4060  201.6590  149.1990 C   0  0  0  0  0  0  0  0  0  0  0  0
  161.2460  205.1320  152.7760 C   0  0  0  0  0  2  0  0  0  0  0  0
  161.6700  205.4110  149.0780 C   0  0  1  0  0  3  0  0  0  0  0  0
  161.9320  203.6690  147.3480 C   0  0  0  0  0  2  0  0  0  0  0  0
  161.7290  206.9360  145.7020 O   0  0  0  0  0  0  0  0  0  0  0  0
  161.2050  208.6540  149.3050 C   0  0  1  0  0  3  0  0  0  0  0  0
  161.7030  206.0680  146.6180 C   0  0  0  0  0  0  0  0  0  0  0  0
  161.2990  208.3210  150.7930 C   0  0  2  0  0  3  0  0  0  0  0  0
  161.6200  206.5420  152.5260 C   0  0  0  0  0  0  0  0  0  0  0  0
  161.8310  204.6720  146.2870 N   0  0  0  0  0  0  0  0  0  0  0  0
  161.4010  206.5030  148.0340 C   0  0  2  0  0  3  0  0  0  0  0  0
  159.6510  200.8620  150.2340 C   0  0  0  0  0  2  0  0  0  0  0  0
  162.3310  209.2820  151.3450 C   0  0  0  0  0  2  0  0  0  0  0  0
  161.5810  210.1220  149.1900 C   0  0  0  0  0  2  0  0  0  0  0  0
  160.4590  201.2500  148.0500 O   0  0  0  0  0  0  0  0  0  0  0  0
  161.3930  204.5900  151.3760 C   0  0  2  0  0  3  0  0  0  0  0  0
  160.2030  201.1430  151.6100 C   0  0  0  0  0  3  0  0  0  0  0  0
  161.1200  202.9340  149.6080 C   0  0  2  0  0  3  0  0  0  0  0  0
  161.0620  205.7480  150.4510 C   0  0  1  0  0  3  0  0  0  0  0  0
  161.8770  207.3490  153.4580 O   0  0  0  0  0  0  0  0  0  0  0  0
  161.5960  206.9230  151.1450 N   0  0  0  0  0  0  0  0  0  0  0  0
  162.1650  210.5450  150.5280 C   0  0  0  0  0  2  0  0  0  0  0  0
  163.5450  207.7030  148.7700 C   0  0  0  0  0  1  0  0  0  0  0  0
  160.6270  202.3220  151.9240 N   0  0  0  0  0  0  0  0  0  0  0  0
  160.5600  203.4030  150.9630 C   0  0  1  0  0  3  0  0  0  0  0  0
  162.0770  207.8280  148.3620 C   0  0  2  0  0  3  0  0  0  0  0  0
  161.6380  204.2180  144.9090 C   0  0  0  0  0  3  0  0  0  0  0  0
  160.1730  204.3210  144.5110 C   0  0  0  0  0  2  0  0  0  0  0  0
  160.7560  202.9800  144.8860 C   0  0  0  0  0  2  0  0  0  0  0  0
  1  5  1  6  0  0  0
  1  4  1  0  0  0  0
  1 19  1  0  0  0  0
  2 19  1  0  0  0  0
  2 13  1  0  0  0  0
  4 20  1  0  0  0  0
  6  8  2  0  0  0  0
  7  9  1  0  0  0  0
  8 12  1  0  0  0  0
  9 22  1  0  0  0  0
  9 14  1  0  0  0  0
 10  3  1  0  0  0  0
 10 21  2  0  0  0  0
 11  8  1  0  0  0  0
 11  5  1  0  0  0  0
 12 27  1  0  0  0  0
 12  4  1  0  0  0  0
 13 18  1  0  0  0  0
 15  7  1  0  0  0  0
 15 23  1  0  0  0  0
 16  2  2  0  0  0  0
 17  3  1  0  0  0  0
 18 25  2  0  0  0  0
 19 26  1  0  0  0  0
 20 22  1  0  0  0  0
 20 17  1  0  0  0  0
 22 10  1  0  0  0  0
 23 14  1  0  0  0  0
 26 17  1  0  0  0  0
 26 25  1  0  0  0  0
 27 24  1  0  0  0  0
 27  7  1  0  0  0  0
 28 11  1  0  0  0  0
 29 30  1  0  0  0  0
 29 28  1  0  0  0  0
 30 28  1  0  0  0  0
M  END
>  <MODEL>
7

>  <REMARK>
 VINA RESULT:      -4.2      1.967      7.407
  Name = 
  1 active torsions:
  status: ('A' for Active; 'I' for Inactive)
    1  A    between atoms: N_11  and  C_28
                            x       y       z     vdW  Elec       q    Type
                         _______ _______ _______ _____ _____    ______ ____

>  <TORSDO>
F 1

$$$$
