=
 OpenBabel11122414353D

 34 40  0  0  1  0  0  0  0  0999 V2000
  161.0080  207.7610  154.2750 C   0  0  1  0  0  3  0  0  0  0  0  0
  161.5240  205.4610  153.3220 C   0  0  0  0  0  2  0  0  0  0  0  0
  158.4340  213.7320  153.0250 C   0  0  0  0  0  0  0  0  0  0  0  0
  160.1620  210.0610  154.8140 C   0  0  0  0  0  0  0  0  0  0  0  0
  159.9910  211.7730  153.0920 C   0  0  0  0  0  0  0  0  0  0  0  0
  160.0190  213.3820  151.1120 C   0  0  0  0  0  1  0  0  0  0  0  0
  157.4790  213.8380  152.2100 O   0  0  0  0  0  0  0  0  0  0  0  0
  159.2790  213.7730  155.3560 C   0  0  0  0  0  2  0  0  0  0  0  0
  161.7990  207.4130  152.0110 N   0  0  2  0  0  0  0  0  0  0  0  0
  161.9930  207.2250  148.8030 C   0  0  0  0  0  2  0  0  0  0  0  0
  160.4020  210.8450  152.1790 N   0  0  0  0  0  0  0  0  0  0  0  0
  159.3100  212.2680  155.5780 C   0  0  0  0  0  2  0  0  0  0  0  0
  161.0800  208.5630  151.4300 C   0  0  1  0  0  3  0  0  0  0  0  0
  161.9470  205.0050  151.9440 C   0  0  0  0  0  2  0  0  0  0  0  0
  159.8660  211.3930  154.4650 C   0  0  0  0  0  0  0  0  0  0  0  0
  158.2470  214.0980  154.3870 N   0  0  0  0  0  2  0  0  0  0  0  0
  161.3220  206.2690  149.7820 C   0  0  2  0  0  3  0  0  0  0  0  0
  160.6100  209.1560  153.8440 C   0  0  0  0  0  0  0  0  0  0  0  0
  159.7630  213.1880  152.6040 C   0  0  1  0  0  3  0  0  0  0  0  0
  160.7280  209.5690  152.5090 C   0  0  0  0  0  0  0  0  0  0  0  0
  159.9710  208.3260  156.4640 C   0  0  0  0  0  3  0  0  0  0  0  0
  161.5110  208.6560  148.9850 C   0  0  0  0  0  2  0  0  0  0  0  0
  159.9770  209.5930  156.1640 N   0  0  0  0  0  0  0  0  0  0  0  0
  161.9170  209.2180  150.3380 C   0  0  0  0  0  2  0  0  0  0  0  0
  162.1120  206.2820  151.1140 C   0  0  1  0  0  3  0  0  0  0  0  0
  160.0790  207.2760  155.3900 C   0  0  0  0  0  2  0  0  0  0  0  0
  160.9730  206.8370  153.0630 C   0  0  2  0  0  3  0  0  0  0  0  0
  161.2970  204.8950  149.1250 C   0  0  0  0  0  2  0  0  0  0  0  0
  161.5530  205.0290  147.6330 C   0  0  0  0  0  2  0  0  0  0  0  0
  160.6810  201.5630  146.9520 N   0  0  0  0  0  2  0  0  0  0  0  0
  161.1900  203.5360  145.6770 C   0  0  0  0  0  2  0  0  0  0  0  0
  161.8440  203.6700  147.0240 C   0  0  2  0  0  3  0  0  0  0  0  0
  160.8260  202.0740  145.5940 C   0  0  0  0  0  2  0  0  0  0  0  0
  161.2040  202.5840  147.8550 C   0  0  0  0  0  2  0  0  0  0  0  0
  1 26  1  1  0  0  0
  3 16  1  0  0  0  0
  4 23  1  0  0  0  0
  5 15  2  0  0  0  0
  6 19  1  0  0  0  0
  7  3  2  0  0  0  0
  8 12  1  0  0  0  0
  9 27  1  0  0  0  0
 10 22  1  0  0  0  0
 10 17  1  0  0  0  0
 11 20  2  0  0  0  0
 11  5  1  0  0  0  0
 13  9  1  0  0  0  0
 13 20  1  0  0  0  0
 14  2  1  0  0  0  0
 15  4  1  0  0  0  0
 15 12  1  0  0  0  0
 16  8  1  0  0  0  0
 17 25  1  0  0  0  0
 18  1  1  0  0  0  0
 18  4  2  0  0  0  0
 19  3  1  0  0  0  0
 19  5  1  0  0  0  0
 20 18  1  0  0  0  0
 22 24  1  0  0  0  0
 23 21  2  0  0  0  0
 24 13  1  0  0  0  0
 25 14  1  0  0  0  0
 25  9  1  0  0  0  0
 26 21  1  0  0  0  0
 27  2  1  0  0  0  0
 27  1  1  0  0  0  0
 28 17  1  0  0  0  0
 29 28  1  0  0  0  0
 30 34  1  0  0  0  0
 31 32  1  0  0  0  0
 32 29  1  0  0  0  0
 32 34  1  0  0  0  0
 33 31  1  0  0  0  0
 33 30  1  0  0  0  0
M  END
>  <MODEL>
1

>  <REMARK>
 VINA RESULT:     -10.4      0.000      0.000
  Name = 
  3 active torsions:
  status: ('A' for Active; 'I' for Inactive)
    1  A    between atoms: C_17  and  C_28
    2  A    between atoms: C_28  and  C_29
    3  A    between atoms: C_29  and  C_32
                            x       y       z     vdW  Elec       q    Type
                         _______ _______ _______ _____ _____    ______ ____

>  <TORSDO>
F 3

$$$$
=
 OpenBabel11122414353D

 34 40  0  0  1  0  0  0  0  0999 V2000
  162.0500  207.8470  149.5200 C   0  0  1  0  0  3  0  0  0  0  0  0
  161.9370  210.0780  150.7340 C   0  0  0  0  0  2  0  0  0  0  0  0
  159.8620  201.5990  149.3760 C   0  0  0  0  0  0  0  0  0  0  0  0
  161.7080  205.5490  148.5700 C   0  0  0  0  0  0  0  0  0  0  0  0
  161.1170  203.6720  150.0030 C   0  0  0  0  0  0  0  0  0  0  0  0
  160.6080  201.8880  151.7540 C   0  0  0  0  0  1  0  0  0  0  0  0
  158.6960  201.3400  149.7770 O   0  0  0  0  0  0  0  0  0  0  0  0
  161.4850  201.8480  147.5180 C   0  0  0  0  0  2  0  0  0  0  0  0
  161.9340  208.0370  151.9330 N   0  0  2  0  0  0  0  0  0  0  0  0
  160.9440  207.9310  154.9950 C   0  0  0  0  0  2  0  0  0  0  0  0
  161.0710  204.5370  151.0570 N   0  0  0  0  0  0  0  0  0  0  0  0
  161.4300  203.3660  147.4150 C   0  0  0  0  0  2  0  0  0  0  0  0
  161.1830  206.7840  152.1400 C   0  0  1  0  0  3  0  0  0  0  0  0
  161.7860  210.4320  152.1960 C   0  0  0  0  0  2  0  0  0  0  0  0
  161.4530  204.1710  148.7060 C   0  0  0  0  0  0  0  0  0  0  0  0
  160.2170  201.3520  148.0210 N   0  0  0  0  0  2  0  0  0  0  0  0
  160.5690  208.9200  153.8980 C   0  0  2  0  0  3  0  0  0  0  0  0
  161.6780  206.3900  149.6910 C   0  0  0  0  0  0  0  0  0  0  0  0
  160.8850  202.2030  150.2860 C   0  0  1  0  0  3  0  0  0  0  0  0
  161.3530  205.8610  150.9480 C   0  0  0  0  0  0  0  0  0  0  0  0
  161.9350  207.4150  147.0740 C   0  0  0  0  0  3  0  0  0  0  0  0
  160.7170  206.4900  154.5620 C   0  0  0  0  0  2  0  0  0  0  0  0
  161.9700  206.1290  147.2780 N   0  0  0  0  0  0  0  0  0  0  0  0
  161.6390  206.0950  153.4210 C   0  0  0  0  0  2  0  0  0  0  0  0
  161.7800  209.0980  152.9490 C   0  0  1  0  0  3  0  0  0  0  0  0
  161.5360  208.3620  148.1750 C   0  0  0  0  0  2  0  0  0  0  0  0
  161.4830  208.6440  150.6890 C   0  0  2  0  0  3  0  0  0  0  0  0
  160.1610  210.2190  154.5830 C   0  0  0  0  0  2  0  0  0  0  0  0
  159.1900  209.9250  155.7140 C   0  0  0  0  0  2  0  0  0  0  0  0
  157.4600  213.1080  156.0520 N   0  0  0  0  0  2  0  0  0  0  0  0
  157.9620  211.5540  154.2890 C   0  0  0  0  0  2  0  0  0  0  0  0
  157.9550  210.7980  155.5890 C   0  0  2  0  0  3  0  0  0  0  0  0
  157.2880  212.8610  154.6250 C   0  0  0  0  0  2  0  0  0  0  0  0
  157.9760  211.8780  156.6440 C   0  0  0  0  0  2  0  0  0  0  0  0
  1 26  1  6  0  0  0
  1 18  1  0  0  0  0
  1 27  1  0  0  0  0
  2 14  1  0  0  0  0
  3  7  2  0  0  0  0
  3 19  1  0  0  0  0
  4 15  2  0  0  0  0
  4 18  1  0  0  0  0
  5 19  1  0  0  0  0
  5 11  2  0  0  0  0
  8 16  1  0  0  0  0
  9 13  1  0  0  0  0
  9 25  1  0  0  0  0
 12  8  1  0  0  0  0
 12 15  1  0  0  0  0
 13 24  1  0  0  0  0
 14 25  1  0  0  0  0
 15  5  1  0  0  0  0
 16  3  1  0  0  0  0
 17 28  1  0  0  0  0
 17 10  1  0  0  0  0
 18 20  2  0  0  0  0
 19  6  1  0  0  0  0
 20 11  1  0  0  0  0
 20 13  1  0  0  0  0
 21 23  2  0  0  0  0
 21 26  1  0  0  0  0
 22 10  1  0  0  0  0
 23  4  1  0  0  0  0
 24 22  1  0  0  0  0
 25 17  1  0  0  0  0
 27  2  1  0  0  0  0
 27  9  1  0  0  0  0
 28 29  1  0  0  0  0
 30 34  1  0  0  0  0
 31 33  1  0  0  0  0
 31 32  1  0  0  0  0
 32 29  1  0  0  0  0
 32 34  1  0  0  0  0
 33 30  1  0  0  0  0
M  END
>  <MODEL>
2

>  <REMARK>
 VINA RESULT:      -8.5      2.788      9.370
  Name = 
  3 active torsions:
  status: ('A' for Active; 'I' for Inactive)
    1  A    between atoms: C_17  and  C_28
    2  A    between atoms: C_28  and  C_29
    3  A    between atoms: C_29  and  C_32
                            x       y       z     vdW  Elec       q    Type
                         _______ _______ _______ _____ _____    ______ ____

>  <TORSDO>
F 3

$$$$
=
 OpenBabel11122414353D

 34 40  0  0  1  0  0  0  0  0999 V2000
  161.3050  207.9240  149.6440 C   0  0  1  0  0  3  0  0  0  0  0  0
  161.6390  206.1740  147.8300 C   0  0  0  0  0  2  0  0  0  0  0  0
  161.6670  209.1930  156.1330 C   0  0  0  0  0  0  0  0  0  0  0  0
  161.2890  209.3390  151.7170 C   0  0  0  0  0  0  0  0  0  0  0  0
  160.8870  208.3540  153.9070 C   0  0  0  0  0  0  0  0  0  0  0  0
  160.3390  207.0670  156.0400 C   0  0  0  0  0  1  0  0  0  0  0  0
  162.5400  208.6130  156.8310 O   0  0  0  0  0  0  0  0  0  0  0  0
  160.8150  211.2460  155.0320 C   0  0  0  0  0  2  0  0  0  0  0  0
  160.7280  205.5880  149.9360 N   0  0  2  0  0  0  0  0  0  0  0  0
  160.6730  202.5200  150.9070 C   0  0  0  0  0  2  0  0  0  0  0  0
  160.8420  207.1290  153.3080 N   0  0  0  0  0  0  0  0  0  0  0  0
  161.3060  210.9290  153.6260 C   0  0  0  0  0  2  0  0  0  0  0  0
  161.0140  205.5500  151.3820 C   0  0  1  0  0  3  0  0  0  0  0  0
  161.4280  204.6770  147.8130 C   0  0  0  0  0  2  0  0  0  0  0  0
  161.1090  209.5150  153.1030 C   0  0  0  0  0  0  0  0  0  0  0  0
  161.6880  210.6090  156.0030 N   0  0  0  0  0  2  0  0  0  0  0  0
  161.6160  203.1970  149.9200 C   0  0  2  0  0  3  0  0  0  0  0  0
  161.2010  208.0610  151.1470 C   0  0  0  0  0  0  0  0  0  0  0  0
  160.6170  208.4210  155.3950 C   0  0  1  0  0  3  0  0  0  0  0  0
  160.9730  206.9480  151.9690 C   0  0  0  0  0  0  0  0  0  0  0  0
  162.0390  210.3000  149.6480 C   0  0  0  0  0  3  0  0  0  0  0  0
  160.6240  203.2510  152.2390 C   0  0  0  0  0  2  0  0  0  0  0  0
  161.5980  210.4570  150.8630 N   0  0  0  0  0  0  0  0  0  0  0  0
  160.0230  204.6390  152.0970 C   0  0  0  0  0  2  0  0  0  0  0  0
  160.8450  204.3220  149.1840 C   0  0  1  0  0  3  0  0  0  0  0  0
  162.3230  208.9280  149.0980 C   0  0  0  0  0  2  0  0  0  0  0  0
  161.6830  206.4870  149.3020 C   0  0  2  0  0  3  0  0  0  0  0  0
  162.1300  202.1190  148.9740 C   0  0  0  0  0  2  0  0  0  0  0  0
  160.9610  201.4060  148.3170 C   0  0  0  0  0  2  0  0  0  0  0  0
  160.6040  199.5360  145.2160 N   0  0  0  0  0  2  0  0  0  0  0  0
  160.1090  201.7520  146.0050 C   0  0  0  0  0  2  0  0  0  0  0  0
  161.2320  201.2010  146.8380 C   0  0  2  0  0  3  0  0  0  0  0  0
  160.0490  200.8250  144.8160 C   0  0  0  0  0  2  0  0  0  0  0  0
  161.2430  199.7260  146.5140 C   0  0  0  0  0  2  0  0  0  0  0  0
  1 26  1  1  0  0  0
  1 18  1  0  0  0  0
  2 27  1  0  0  0  0
  3  7  2  0  0  0  0
  4 15  1  0  0  0  0
  5 19  1  0  0  0  0
  8 16  1  0  0  0  0
  9 13  1  0  0  0  0
 10 22  1  0  0  0  0
 11  5  1  0  0  0  0
 12  8  1  0  0  0  0
 13 20  1  0  0  0  0
 13 24  1  0  0  0  0
 14  2  1  0  0  0  0
 14 25  1  0  0  0  0
 15 12  1  0  0  0  0
 15  5  2  0  0  0  0
 16  3  1  0  0  0  0
 17 10  1  0  0  0  0
 18  4  2  0  0  0  0
 18 20  1  0  0  0  0
 19  6  1  0  0  0  0
 19  3  1  0  0  0  0
 20 11  2  0  0  0  0
 21 23  2  0  0  0  0
 23  4  1  0  0  0  0
 24 22  1  0  0  0  0
 25 17  1  0  0  0  0
 25  9  1  0  0  0  0
 26 21  1  0  0  0  0
 27  1  1  0  0  0  0
 27  9  1  0  0  0  0
 28 17  1  0  0  0  0
 29 28  1  0  0  0  0
 30 34  1  0  0  0  0
 31 32  1  0  0  0  0
 32 29  1  0  0  0  0
 33 30  1  0  0  0  0
 33 31  1  0  0  0  0
 34 32  1  0  0  0  0
M  END
>  <MODEL>
3

>  <REMARK>
 VINA RESULT:      -8.3      2.429      4.610
  Name = 
  3 active torsions:
  status: ('A' for Active; 'I' for Inactive)
    1  A    between atoms: C_17  and  C_28
    2  A    between atoms: C_28  and  C_29
    3  A    between atoms: C_29  and  C_32
                            x       y       z     vdW  Elec       q    Type
                         _______ _______ _______ _____ _____    ______ ____

>  <TORSDO>
F 3

$$$$
=
 OpenBabel11122414353D

 34 40  0  0  1  0  0  0  0  0999 V2000
  162.0700  207.7990  149.5880 C   0  0  1  0  0  3  0  0  0  0  0  0
  161.9640  210.0240  150.8130 C   0  0  0  0  0  2  0  0  0  0  0  0
  159.8150  201.5760  149.3780 C   0  0  0  0  0  0  0  0  0  0  0  0
  161.7160  205.5100  148.6200 C   0  0  0  0  0  0  0  0  0  0  0  0
  161.0840  203.6320  150.0350 C   0  0  0  0  0  0  0  0  0  0  0  0
  160.5290  201.8440  151.7680 C   0  0  0  0  0  1  0  0  0  0  0  0
  158.6410  201.3280  149.7610 O   0  0  0  0  0  0  0  0  0  0  0  0
  161.4680  201.8180  147.5450 C   0  0  0  0  0  2  0  0  0  0  0  0
  161.9210  207.9770  152.0000 N   0  0  2  0  0  0  0  0  0  0  0  0
  160.8850  207.8660  155.0470 C   0  0  0  0  0  2  0  0  0  0  0  0
  161.0320  204.4920  151.0920 N   0  0  0  0  0  0  0  0  0  0  0  0
  161.4310  203.3360  147.4500 C   0  0  0  0  0  2  0  0  0  0  0  0
  161.1530  206.7310  152.1890 C   0  0  1  0  0  3  0  0  0  0  0  0
  161.7960  210.3720  152.2740 C   0  0  0  0  0  2  0  0  0  0  0  0
  161.4440  204.1340  148.7450 C   0  0  0  0  0  0  0  0  0  0  0  0
  160.1860  201.3330  148.0270 N   0  0  0  0  0  2  0  0  0  0  0  0
  160.5370  208.8650  153.9500 C   0  0  2  0  0  3  0  0  0  0  0  0
  161.6790  206.3450  149.7450 C   0  0  0  0  0  0  0  0  0  0  0  0
  160.8310  202.1650  150.3060 C   0  0  1  0  0  3  0  0  0  0  0  0
  161.3310  205.8130  150.9940 C   0  0  0  0  0  0  0  0  0  0  0  0
  161.9850  207.3810  147.1380 C   0  0  0  0  0  3  0  0  0  0  0  0
  160.6490  206.4300  154.6030 C   0  0  0  0  0  2  0  0  0  0  0  0
  162.0030  206.0940  147.3350 N   0  0  0  0  0  0  0  0  0  0  0  0
  161.5830  206.0310  153.4720 C   0  0  0  0  0  2  0  0  0  0  0  0
  161.7640  209.0340  153.0200 C   0  0  1  0  0  3  0  0  0  0  0  0
  161.5810  208.3260  148.2380 C   0  0  0  0  0  2  0  0  0  0  0  0
  161.4950  208.5960  150.7530 C   0  0  2  0  0  3  0  0  0  0  0  0
  160.1340  210.1650  154.6360 C   0  0  0  0  0  2  0  0  0  0  0  0
  158.7270  210.5560  154.2170 C   0  0  0  0  0  2  0  0  0  0  0  0
  157.8310  213.3290  152.0380 N   0  0  0  0  0  2  0  0  0  0  0  0
  157.3380  212.6190  154.2810 C   0  0  0  0  0  2  0  0  0  0  0  0
  158.6670  212.0370  153.8890 C   0  0  2  0  0  3  0  0  0  0  0  0
  157.0880  213.6840  153.2420 C   0  0  0  0  0  2  0  0  0  0  0  0
  158.7330  212.2380  152.3940 C   0  0  0  0  0  2  0  0  0  0  0  0
  1 26  1  6  0  0  0
  1 18  1  0  0  0  0
  1 27  1  0  0  0  0
  2 14  1  0  0  0  0
  3  7  2  0  0  0  0
  3 19  1  0  0  0  0
  4 15  2  0  0  0  0
  4 18  1  0  0  0  0
  5 19  1  0  0  0  0
  5 11  2  0  0  0  0
  8 16  1  0  0  0  0
  9 13  1  0  0  0  0
  9 25  1  0  0  0  0
 12  8  1  0  0  0  0
 12 15  1  0  0  0  0
 13 24  1  0  0  0  0
 14 25  1  0  0  0  0
 15  5  1  0  0  0  0
 16  3  1  0  0  0  0
 17 28  1  0  0  0  0
 17 10  1  0  0  0  0
 18 20  2  0  0  0  0
 19  6  1  0  0  0  0
 20 11  1  0  0  0  0
 20 13  1  0  0  0  0
 21 23  2  0  0  0  0
 21 26  1  0  0  0  0
 22 10  1  0  0  0  0
 23  4  1  0  0  0  0
 24 22  1  0  0  0  0
 25 17  1  0  0  0  0
 27  2  1  0  0  0  0
 27  9  1  0  0  0  0
 29 28  1  0  0  0  0
 30 34  1  0  0  0  0
 30 33  1  0  0  0  0
 32 29  1  0  0  0  0
 32 31  1  0  0  0  0
 33 31  1  0  0  0  0
 34 32  1  0  0  0  0
M  END
>  <MODEL>
4

>  <REMARK>
 VINA RESULT:      -8.2      2.761      9.191
  Name = 
  3 active torsions:
  status: ('A' for Active; 'I' for Inactive)
    1  A    between atoms: C_17  and  C_28
    2  A    between atoms: C_28  and  C_29
    3  A    between atoms: C_29  and  C_32
                            x       y       z     vdW  Elec       q    Type
                         _______ _______ _______ _____ _____    ______ ____

>  <TORSDO>
F 3

$$$$
