=
 OpenBabel11122412313D

 30 35  0  0  1  0  0  0  0  0999 V2000
  161.4310  207.7910  151.2140 C   0  0  0  0  0  0  0  0  0  0  0  0
  161.5410  210.2610  150.7700 C   0  0  0  0  0  0  0  0  0  0  0  0
  162.2110  206.8810  147.1160 C   0  0  0  0  0  2  0  0  0  0  0  0
  161.5580  206.4670  150.7140 C   0  0  0  0  0  0  0  0  0  0  0  0
  160.9230  208.0000  152.6200 C   0  0  0  0  0  2  0  0  0  0  0  0
  161.1910  204.6170  153.8880 O   0  0  0  0  0  0  0  0  0  0  0  0
  160.2110  203.8150  150.2050 C   0  0  1  0  0  3  0  0  0  0  0  0
  161.3510  205.5750  153.0820 C   0  0  0  0  0  0  0  0  0  0  0  0
  160.5950  204.1330  148.7670 C   0  0  2  0  0  3  0  0  0  0  0  0
  162.1960  205.3500  147.2620 C   0  0  1  0  0  3  0  0  0  0  0  0
  161.2670  206.9250  153.5480 N   0  0  0  0  0  0  0  0  0  0  0  0
  161.7700  205.3050  151.6680 C   0  0  1  0  0  3  0  0  0  0  0  0
  161.7420  211.3050  149.8620 C   0  0  0  0  0  3  0  0  0  0  0  0
  160.8860  202.7840  148.2020 C   0  0  0  0  0  2  0  0  0  0  0  0
  159.6750  202.5110  150.2470 O   0  0  0  0  0  0  0  0  0  0  0  0
  161.2880  210.6030  152.0940 O   0  0  0  0  0  1  0  0  0  0  0  0
  161.9590  207.3520  148.5020 C   0  0  0  0  0  0  0  0  0  0  0  0
  162.0200  211.0430  148.5230 C   0  0  0  0  0  3  0  0  0  0  0  0
  161.6130  208.9080  150.3360 C   0  0  0  0  0  0  0  0  0  0  0  0
  161.7480  206.2930  149.3330 C   0  0  0  0  0  0  0  0  0  0  0  0
  163.6030  204.8110  147.0810 C   0  0  0  0  0  1  0  0  0  0  0  0
  161.7270  205.0580  148.6190 N   0  0  0  0  0  0  0  0  0  0  0  0
  159.9720  201.8930  149.0130 C   0  0  0  0  0  2  0  0  0  0  0  0
  162.2070  202.9280  151.3610 C   0  0  0  0  0  2  0  0  0  0  0  0
  162.1010  209.7290  148.0750 C   0  0  0  0  0  3  0  0  0  0  0  0
  161.9030  208.6660  148.9620 C   0  0  0  0  0  0  0  0  0  0  0  0
  161.3690  203.9480  151.1600 C   0  0  0  0  0  0  0  0  0  0  0  0
  161.2930  207.1790  154.9890 C   0  0  0  0  0  2  0  0  0  0  0  0
  160.1180  207.0360  156.8520 C   0  0  0  0  0  1  0  0  0  0  0  0
  160.0050  207.3550  155.5000 O   0  0  0  0  0  0  0  0  0  0  0  0
  1  5  1  0  0  0  0
  2 16  1  0  0  0  0
  3 10  1  0  0  0  0
  3 17  1  0  0  0  0
  4  1  1  0  0  0  0
  5 11  1  0  0  0  0
  7 15  1  6  0  0  0
  7 27  1  0  0  0  0
  8 11  1  0  0  0  0
  8  6  2  0  0  0  0
  9 14  1  6  0  0  0
  9  7  1  0  0  0  0
 10 21  1  1  0  0  0
 10 22  1  0  0  0  0
 11 28  1  0  0  0  0
 12  4  1  6  0  0  0
 12  8  1  0  0  0  0
 13  2  2  0  0  0  0
 14 23  1  0  0  0  0
 17 26  2  0  0  0  0
 17 20  1  0  0  0  0
 18 13  1  0  0  0  0
 19  2  1  0  0  0  0
 19  1  2  0  0  0  0
 20  4  2  0  0  0  0
 22  9  1  0  0  0  0
 22 20  1  0  0  0  0
 23 15  1  0  0  0  0
 25 18  2  0  0  0  0
 25 26  1  0  0  0  0
 26 19  1  0  0  0  0
 27 24  2  0  0  0  0
 27 12  1  0  0  0  0
 28 30  1  0  0  0  0
 30 29  1  0  0  0  0
M  END
>  <MODEL>
1

>  <REMARK>
 VINA RESULT:      -6.7      0.000      0.000
  Name = 
  2 active torsions:
  status: ('A' for Active; 'I' for Inactive)
    1  A    between atoms: N_11  and  C_28
    2  A    between atoms: C_28  and  O_30
                            x       y       z     vdW  Elec       q    Type
                         _______ _______ _______ _____ _____    ______ ____

>  <TORSDO>
F 2

$$$$
=
 OpenBabel11122412313D

 30 35  0  0  1  0  0  0  0  0999 V2000
  161.2370  210.5050  151.0610 C   0  0  0  0  0  0  0  0  0  0  0  0
  161.1780  212.3840  149.3940 C   0  0  0  0  0  0  0  0  0  0  0  0
  158.9770  212.7630  153.8920 C   0  0  0  0  0  2  0  0  0  0  0  0
  160.8320  209.9980  152.3250 C   0  0  0  0  0  0  0  0  0  0  0  0
  162.2270  209.7180  150.2360 C   0  0  0  0  0  2  0  0  0  0  0  0
  162.1520  206.5640  152.0180 O   0  0  0  0  0  0  0  0  0  0  0  0
  161.6880  208.9840  155.0350 C   0  0  1  0  0  3  0  0  0  0  0  0
  161.7950  207.7330  151.7030 C   0  0  0  0  0  0  0  0  0  0  0  0
  160.8450  210.1580  155.5090 C   0  0  2  0  0  3  0  0  0  0  0  0
  158.9180  211.6820  154.9840 C   0  0  1  0  0  3  0  0  0  0  0  0
  162.1500  208.2710  150.4260 N   0  0  0  0  0  0  0  0  0  0  0  0
  160.8800  208.5060  152.6040 C   0  0  1  0  0  3  0  0  0  0  0  0
  160.7530  213.6730  149.0600 C   0  0  0  0  0  3  0  0  0  0  0  0
  160.2620  209.6460  156.7830 C   0  0  0  0  0  2  0  0  0  0  0  0
  162.0950  208.2400  156.1630 O   0  0  0  0  0  0  0  0  0  0  0  0
  161.9130  211.6850  148.4430 O   0  0  0  0  0  1  0  0  0  0  0  0
  159.7440  212.1010  152.8060 C   0  0  0  0  0  0  0  0  0  0  0  0
  159.9970  214.4290  149.9520 C   0  0  0  0  0  3  0  0  0  0  0  0
  160.8460  211.8230  150.6590 C   0  0  0  0  0  0  0  0  0  0  0  0
  160.1490  210.8610  153.1980 C   0  0  0  0  0  0  0  0  0  0  0  0
  157.5000  211.1530  155.0970 C   0  0  0  0  0  1  0  0  0  0  0  0
  159.8140  210.6030  154.5610 N   0  0  0  0  0  0  0  0  0  0  0  0
  161.3290  208.6870  157.2610 C   0  0  0  0  0  2  0  0  0  0  0  0
  160.1690  207.1170  154.4740 C   0  0  0  0  0  2  0  0  0  0  0  0
  159.6540  213.9000  151.1920 C   0  0  0  0  0  3  0  0  0  0  0  0
  160.0670  212.6140  151.5510 C   0  0  0  0  0  0  0  0  0  0  0  0
  160.9620  208.1040  154.0500 C   0  0  0  0  0  0  0  0  0  0  0  0
  162.6600  207.3670  149.3940 C   0  0  0  0  0  2  0  0  0  0  0  0
  161.8220  206.5520  147.5220 C   0  0  0  0  0  1  0  0  0  0  0  0
  162.2210  207.7440  148.1220 O   0  0  0  0  0  0  0  0  0  0  0  0
  1  4  1  0  0  0  0
  2 19  1  0  0  0  0
  3 10  1  0  0  0  0
  4 12  1  0  0  0  0
  4 20  2  0  0  0  0
  5 11  1  0  0  0  0
  5  1  1  0  0  0  0
  7 27  1  6  0  0  0
  7  9  1  0  0  0  0
  7 15  1  0  0  0  0
  8  6  2  0  0  0  0
  9 14  1  1  0  0  0
 10 21  1  6  0  0  0
 11  8  1  0  0  0  0
 12  8  1  6  0  0  0
 12 27  1  0  0  0  0
 13  2  2  0  0  0  0
 13 18  1  0  0  0  0
 14 23  1  0  0  0  0
 15 23  1  0  0  0  0
 16  2  1  0  0  0  0
 17 20  1  0  0  0  0
 17  3  1  0  0  0  0
 18 25  2  0  0  0  0
 19  1  2  0  0  0  0
 19 26  1  0  0  0  0
 20 22  1  0  0  0  0
 22 10  1  0  0  0  0
 22  9  1  0  0  0  0
 25 26  1  0  0  0  0
 26 17  2  0  0  0  0
 27 24  2  0  0  0  0
 28 11  1  0  0  0  0
 29 30  1  0  0  0  0
 30 28  1  0  0  0  0
M  END
>  <MODEL>
2

>  <REMARK>
 VINA RESULT:      -6.6      2.897      6.755
  Name = 
  2 active torsions:
  status: ('A' for Active; 'I' for Inactive)
    1  A    between atoms: N_11  and  C_28
    2  A    between atoms: C_28  and  O_30
                            x       y       z     vdW  Elec       q    Type
                         _______ _______ _______ _____ _____    ______ ____

>  <TORSDO>
F 2

$$$$
=
 OpenBabel11122412313D

 30 35  0  0  1  0  0  0  0  0999 V2000
  161.2850  210.5980  151.1370 C   0  0  0  0  0  0  0  0  0  0  0  0
  161.8560  211.3380  148.8040 C   0  0  0  0  0  0  0  0  0  0  0  0
  159.1010  214.1890  151.8890 C   0  0  0  0  0  2  0  0  0  0  0  0
  160.5980  210.8590  152.3530 C   0  0  0  0  0  0  0  0  0  0  0  0
  162.2170  209.4130  151.0590 C   0  0  0  0  0  2  0  0  0  0  0  0
  161.2490  207.6610  154.0790 O   0  0  0  0  0  0  0  0  0  0  0  0
  160.8070  211.3240  155.3270 C   0  0  1  0  0  3  0  0  0  0  0  0
  161.1820  208.5240  153.1600 C   0  0  0  0  0  0  0  0  0  0  0  0
  160.1480  212.6440  154.9560 C   0  0  2  0  0  3  0  0  0  0  0  0
  158.6630  213.8400  153.3200 C   0  0  1  0  0  3  0  0  0  0  0  0
  161.8290  208.2880  151.9070 N   0  0  0  0  0  0  0  0  0  0  0  0
  160.3080  209.7310  153.3270 C   0  0  1  0  0  3  0  0  0  0  0  0
  161.7490  212.2990  147.7950 C   0  0  0  0  0  3  0  0  0  0  0  0
  159.2860  212.9220  156.1410 C   0  0  0  0  0  2  0  0  0  0  0  0
  160.8810  211.2400  156.7330 O   0  0  0  0  0  0  0  0  0  0  0  0
  162.5770  210.1840  148.5170 O   0  0  0  0  0  1  0  0  0  0  0  0
  159.8830  212.9940  151.4770 C   0  0  0  0  0  0  0  0  0  0  0  0
  161.0270  213.4710  148.0000 C   0  0  0  0  0  3  0  0  0  0  0  0
  161.2280  211.5460  150.0640 C   0  0  0  0  0  0  0  0  0  0  0  0
  159.9710  212.1070  152.5070 C   0  0  0  0  0  0  0  0  0  0  0  0
  157.1690  213.5760  153.3420 C   0  0  0  0  0  1  0  0  0  0  0  0
  159.3840  212.6230  153.7000 N   0  0  0  0  0  0  0  0  0  0  0  0
  160.0560  212.2580  157.2600 C   0  0  0  0  0  2  0  0  0  0  0  0
  159.0570  209.5810  155.4110 C   0  0  0  0  0  2  0  0  0  0  0  0
  160.3990  213.6960  149.2200 C   0  0  0  0  0  3  0  0  0  0  0  0
  160.4900  212.7510  150.2470 C   0  0  0  0  0  0  0  0  0  0  0  0
  160.0840  210.1310  154.7580 C   0  0  0  0  0  0  0  0  0  0  0  0
  162.3050  206.9380  151.5990 C   0  0  0  0  0  2  0  0  0  0  0  0
  161.5560  204.8650  151.7010 C   0  0  0  0  0  1  0  0  0  0  0  0
  161.2630  206.1160  151.1620 O   0  0  0  0  0  0  0  0  0  0  0  0
  1  4  1  0  0  0  0
  2 19  1  0  0  0  0
  3 10  1  0  0  0  0
  4 20  2  0  0  0  0
  5  1  1  0  0  0  0
  5 11  1  0  0  0  0
  7 27  1  1  0  0  0
  7 15  1  0  0  0  0
  8 12  1  0  0  0  0
  8  6  2  0  0  0  0
  9  7  1  0  0  0  0
  9 14  1  1  0  0  0
 10 21  1  6  0  0  0
 10 22  1  0  0  0  0
 11  8  1  0  0  0  0
 12  4  1  6  0  0  0
 12 27  1  0  0  0  0
 13 18  1  0  0  0  0
 13  2  2  0  0  0  0
 14 23  1  0  0  0  0
 15 23  1  0  0  0  0
 16  2  1  0  0  0  0
 17  3  1  0  0  0  0
 17 20  1  0  0  0  0
 18 25  2  0  0  0  0
 19 26  1  0  0  0  0
 19  1  2  0  0  0  0
 20 22  1  0  0  0  0
 22  9  1  0  0  0  0
 25 26  1  0  0  0  0
 26 17  2  0  0  0  0
 27 24  2  0  0  0  0
 28 11  1  0  0  0  0
 30 28  1  0  0  0  0
 30 29  1  0  0  0  0
M  END
>  <MODEL>
3

>  <REMARK>
 VINA RESULT:      -5.9      3.398      7.206
  Name = 
  2 active torsions:
  status: ('A' for Active; 'I' for Inactive)
    1  A    between atoms: N_11  and  C_28
    2  A    between atoms: C_28  and  O_30
                            x       y       z     vdW  Elec       q    Type
                         _______ _______ _______ _____ _____    ______ ____

>  <TORSDO>
F 2

$$$$
=
 OpenBabel11122412313D

 30 35  0  0  1  0  0  0  0  0999 V2000
  161.7260  208.2820  150.9530 C   0  0  0  0  0  0  0  0  0  0  0  0
  162.2810  209.0750  148.6340 C   0  0  0  0  0  0  0  0  0  0  0  0
  160.4780  212.1880  152.1390 C   0  0  0  0  0  2  0  0  0  0  0  0
  161.2050  208.5820  152.2400 C   0  0  0  0  0  0  0  0  0  0  0  0
  162.3550  206.9310  150.7110 C   0  0  0  0  0  2  0  0  0  0  0  0
  161.2320  205.1830  153.6800 O   0  0  0  0  0  0  0  0  0  0  0  0
  161.7270  208.7310  155.2080 C   0  0  1  0  0  3  0  0  0  0  0  0
  161.2970  206.1160  152.8310 C   0  0  0  0  0  0  0  0  0  0  0  0
  161.3610  210.1910  154.9890 C   0  0  2  0  0  3  0  0  0  0  0  0
  160.0750  211.8240  153.5770 C   0  0  1  0  0  3  0  0  0  0  0  0
  161.7820  205.8510  151.5120 N   0  0  0  0  0  0  0  0  0  0  0  0
  160.7350  207.4670  153.1570 C   0  0  1  0  0  3  0  0  0  0  0  0
  162.3250  210.1200  147.7070 C   0  0  0  0  0  3  0  0  0  0  0  0
  160.6720  210.5490  156.2620 C   0  0  0  0  0  2  0  0  0  0  0  0
  161.8800  208.5110  156.5940 O   0  0  0  0  0  0  0  0  0  0  0  0
  162.6980  207.8200  148.2060 O   0  0  0  0  0  1  0  0  0  0  0  0
  160.9340  210.8900  151.5790 C   0  0  0  0  0  0  0  0  0  0  0  0
  161.9050  211.4010  148.0540 C   0  0  0  0  0  3  0  0  0  0  0  0
  161.8090  209.3080  149.9570 C   0  0  0  0  0  0  0  0  0  0  0  0
  160.8910  209.9200  152.5340 C   0  0  0  0  0  0  0  0  0  0  0  0
  158.5650  211.8960  153.7140 C   0  0  0  0  0  1  0  0  0  0  0  0
  160.5250  210.4490  153.8080 N   0  0  0  0  0  0  0  0  0  0  0  0
  161.3490  209.6370  157.2600 C   0  0  0  0  0  2  0  0  0  0  0  0
  159.6360  207.4190  155.3300 C   0  0  0  0  0  2  0  0  0  0  0  0
  161.4340  211.6530  149.3380 C   0  0  0  0  0  3  0  0  0  0  0  0
  161.3810  210.6260  150.2860 C   0  0  0  0  0  0  0  0  0  0  0  0
  160.7120  207.7810  154.6260 C   0  0  0  0  0  0  0  0  0  0  0  0
  161.9140  204.4610  151.0720 C   0  0  0  0  0  2  0  0  0  0  0  0
  160.8480  203.5830  149.3510 C   0  0  0  0  0  1  0  0  0  0  0  0
  160.6810  203.9260  150.6910 O   0  0  0  0  0  0  0  0  0  0  0  0
  1  4  1  0  0  0  0
  2 19  1  0  0  0  0
  3 10  1  0  0  0  0
  4 20  2  0  0  0  0
  5  1  1  0  0  0  0
  5 11  1  0  0  0  0
  7 27  1  1  0  0  0
  7 15  1  0  0  0  0
  8 12  1  0  0  0  0
  8  6  2  0  0  0  0
  9  7  1  0  0  0  0
  9 14  1  1  0  0  0
 10 21  1  6  0  0  0
 10 22  1  0  0  0  0
 11  8  1  0  0  0  0
 12  4  1  6  0  0  0
 12 27  1  0  0  0  0
 13 18  1  0  0  0  0
 13  2  2  0  0  0  0
 14 23  1  0  0  0  0
 15 23  1  0  0  0  0
 16  2  1  0  0  0  0
 17  3  1  0  0  0  0
 17 20  1  0  0  0  0
 18 25  2  0  0  0  0
 19 26  1  0  0  0  0
 19  1  2  0  0  0  0
 20 22  1  0  0  0  0
 22  9  1  0  0  0  0
 25 26  1  0  0  0  0
 26 17  2  0  0  0  0
 27 24  2  0  0  0  0
 28 11  1  0  0  0  0
 29 30  1  0  0  0  0
 30 28  1  0  0  0  0
M  END
>  <MODEL>
4

>  <REMARK>
 VINA RESULT:      -5.9      2.165      6.072
  Name = 
  2 active torsions:
  status: ('A' for Active; 'I' for Inactive)
    1  A    between atoms: N_11  and  C_28
    2  A    between atoms: C_28  and  O_30
                            x       y       z     vdW  Elec       q    Type
                         _______ _______ _______ _____ _____    ______ ____

>  <TORSDO>
F 2

$$$$
=
 OpenBabel11122412313D

 30 35  0  0  1  0  0  0  0  0999 V2000
  160.8450  210.1940  151.7390 C   0  0  0  0  0  0  0  0  0  0  0  0
  162.0470  208.1940  150.8060 C   0  0  0  0  0  0  0  0  0  0  0  0
  160.2590  208.2590  155.4990 C   0  0  0  0  0  2  0  0  0  0  0  0
  160.2150  210.8140  152.8510 C   0  0  0  0  0  0  0  0  0  0  0  0
  160.7930  210.8720  150.3920 C   0  0  0  0  0  2  0  0  0  0  0  0
  159.6350  214.1560  151.3940 O   0  0  0  0  0  0  0  0  0  0  0  0
  157.6830  212.0010  153.9840 C   0  0  1  0  0  3  0  0  0  0  0  0
  160.0760  212.9820  151.5380 C   0  0  0  0  0  0  0  0  0  0  0  0
  157.8780  210.9040  155.0190 C   0  0  2  0  0  3  0  0  0  0  0  0
  159.5340  209.4240  156.1940 C   0  0  1  0  0  3  0  0  0  0  0  0
  160.7490  212.3310  150.4560 N   0  0  0  0  0  0  0  0  0  0  0  0
  160.0220  212.3200  152.8820 C   0  0  1  0  0  3  0  0  0  0  0  0
  162.5430  206.9010  150.9970 C   0  0  0  0  0  3  0  0  0  0  0  0
  157.3620  211.5370  156.2670 C   0  0  0  0  0  2  0  0  0  0  0  0
  156.6030  212.8130  154.3920 O   0  0  0  0  0  0  0  0  0  0  0  0
  162.2590  208.7860  149.5660 O   0  0  0  0  0  1  0  0  0  0  0  0
  160.5460  208.8020  154.1470 C   0  0  0  0  0  0  0  0  0  0  0  0
  162.3880  206.2500  152.2170 C   0  0  0  0  0  3  0  0  0  0  0  0
  161.3670  208.8650  151.8610 C   0  0  0  0  0  0  0  0  0  0  0  0
  160.0190  210.0510  154.0150 C   0  0  0  0  0  0  0  0  0  0  0  0
  160.4360  210.0180  157.2600 C   0  0  0  0  0  1  0  0  0  0  0  0
  159.2620  210.4280  155.1630 N   0  0  0  0  0  0  0  0  0  0  0  0
  156.3130  212.4850  155.7340 C   0  0  0  0  0  2  0  0  0  0  0  0
  159.1840  213.8800  154.5540 C   0  0  0  0  0  2  0  0  0  0  0  0
  161.7330  206.8870  153.2660 C   0  0  0  0  0  3  0  0  0  0  0  0
  161.2260  208.1800  153.1020 C   0  0  0  0  0  0  0  0  0  0  0  0
  158.9230  212.8300  153.7710 C   0  0  0  0  0  0  0  0  0  0  0  0
  161.1800  213.1300  149.3070 C   0  0  0  0  0  2  0  0  0  0  0  0
  162.7800  212.6740  147.8580 C   0  0  0  0  0  1  0  0  0  0  0  0
  161.4780  212.3230  148.2070 O   0  0  0  0  0  0  0  0  0  0  0  0
  1 19  2  0  0  0  0
  1  4  1  0  0  0  0
  2 13  2  0  0  0  0
  2 19  1  0  0  0  0
  3 10  1  0  0  0  0
  4 12  1  0  0  0  0
  4 20  2  0  0  0  0
  5 11  1  0  0  0  0
  5  1  1  0  0  0  0
  6  8  2  0  0  0  0
  7 27  1  1  0  0  0
  7 15  1  0  0  0  0
  7  9  1  0  0  0  0
  9 22  1  0  0  0  0
  9 14  1  1  0  0  0
 10 21  1  1  0  0  0
 11  8  1  0  0  0  0
 12  8  1  6  0  0  0
 12 27  1  0  0  0  0
 13 18  1  0  0  0  0
 15 23  1  0  0  0  0
 16  2  1  0  0  0  0
 17  3  1  0  0  0  0
 18 25  2  0  0  0  0
 19 26  1  0  0  0  0
 20 17  1  0  0  0  0
 20 22  1  0  0  0  0
 22 10  1  0  0  0  0
 23 14  1  0  0  0  0
 26 25  1  0  0  0  0
 26 17  2  0  0  0  0
 27 24  2  0  0  0  0
 28 11  1  0  0  0  0
 29 30  1  0  0  0  0
 30 28  1  0  0  0  0
M  END
>  <MODEL>
5

>  <REMARK>
 VINA RESULT:      -5.6      3.736      8.234
  Name = 
  2 active torsions:
  status: ('A' for Active; 'I' for Inactive)
    1  A    between atoms: N_11  and  C_28
    2  A    between atoms: C_28  and  O_30
                            x       y       z     vdW  Elec       q    Type
                         _______ _______ _______ _____ _____    ______ ____

>  <TORSDO>
F 2

$$$$
=
 OpenBabel11122412313D

 30 35  0  0  1  0  0  0  0  0999 V2000
  161.1950  206.1360  150.4280 C   0  0  0  0  0  0  0  0  0  0  0  0
  160.8630  203.6480  150.3010 C   0  0  0  0  0  0  0  0  0  0  0  0
  160.7840  206.1120  154.6770 C   0  0  0  0  0  2  0  0  0  0  0  0
  161.3230  207.2980  151.2350 C   0  0  0  0  0  0  0  0  0  0  0  0
  161.1230  206.2870  148.9280 C   0  0  0  0  0  2  0  0  0  0  0  0
  162.1770  209.7380  148.6000 O   0  0  0  0  0  0  0  0  0  0  0  0
  160.2180  210.0110  151.9550 C   0  0  1  0  0  3  0  0  0  0  0  0
  161.9640  208.6350  149.1750 C   0  0  0  0  0  0  0  0  0  0  0  0
  160.0990  209.3680  153.3280 C   0  0  2  0  0  3  0  0  0  0  0  0
  161.0000  207.6200  154.8910 C   0  0  1  0  0  3  0  0  0  0  0  0
  161.8630  207.4330  148.4040 N   0  0  0  0  0  0  0  0  0  0  0  0
  161.9570  208.5570  150.6720 C   0  0  1  0  0  3  0  0  0  0  0  0
  160.6470  202.4360  150.9620 C   0  0  0  0  0  3  0  0  0  0  0  0
  160.3650  210.5130  154.2470 C   0  0  0  0  0  2  0  0  0  0  0  0
  159.8830  211.3770  152.0700 O   0  0  0  0  0  0  0  0  0  0  0  0
  160.9900  203.6100  148.9170 O   0  0  0  0  0  1  0  0  0  0  0  0
  160.9140  205.9600  153.2050 C   0  0  0  0  0  0  0  0  0  0  0  0
  160.5290  202.3900  152.3490 C   0  0  0  0  0  3  0  0  0  0  0  0
  160.9620  204.8610  151.0390 C   0  0  0  0  0  0  0  0  0  0  0  0
  161.0990  207.1740  152.6170 C   0  0  0  0  0  0  0  0  0  0  0  0
  162.3380  207.8470  155.5700 C   0  0  0  0  0  1  0  0  0  0  0  0
  161.0090  208.2390  153.5630 N   0  0  0  0  0  0  0  0  0  0  0  0
  159.8600  211.6910  153.4460 C   0  0  0  0  0  2  0  0  0  0  0  0
  162.5640  210.7130  151.6270 C   0  0  0  0  0  2  0  0  0  0  0  0
  160.6280  203.5600  153.0930 C   0  0  0  0  0  3  0  0  0  0  0  0
  160.8430  204.7870  152.4560 C   0  0  0  0  0  0  0  0  0  0  0  0
  161.5880  209.8460  151.3490 C   0  0  0  0  0  0  0  0  0  0  0  0
  162.3000  207.4500  147.0070 C   0  0  0  0  0  2  0  0  0  0  0  0
  162.5080  205.6920  145.6890 C   0  0  0  0  0  1  0  0  0  0  0  0
  161.5590  206.5570  146.2300 O   0  0  0  0  0  0  0  0  0  0  0  0
  1 19  2  0  0  0  0
  1  4  1  0  0  0  0
  2 13  2  0  0  0  0
  2 19  1  0  0  0  0
  3 10  1  0  0  0  0
  4 20  2  0  0  0  0
  5  1  1  0  0  0  0
  6  8  2  0  0  0  0
  7 27  1  1  0  0  0
  7 15  1  0  0  0  0
  7  9  1  0  0  0  0
  9 22  1  0  0  0  0
  9 14  1  1  0  0  0
 10 21  1  6  0  0  0
 11  5  1  0  0  0  0
 11  8  1  0  0  0  0
 12  8  1  6  0  0  0
 12  4  1  0  0  0  0
 12 27  1  0  0  0  0
 13 18  1  0  0  0  0
 15 23  1  0  0  0  0
 16  2  1  0  0  0  0
 17  3  1  0  0  0  0
 18 25  2  0  0  0  0
 19 26  1  0  0  0  0
 20 17  1  0  0  0  0
 20 22  1  0  0  0  0
 22 10  1  0  0  0  0
 23 14  1  0  0  0  0
 26 25  1  0  0  0  0
 26 17  2  0  0  0  0
 27 24  2  0  0  0  0
 28 11  1  0  0  0  0
 29 30  1  0  0  0  0
 30 28  1  0  0  0  0
M  END
>  <MODEL>
6

>  <REMARK>
 VINA RESULT:      -4.9      1.982      7.240
  Name = 
  2 active torsions:
  status: ('A' for Active; 'I' for Inactive)
    1  A    between atoms: N_11  and  C_28
    2  A    between atoms: C_28  and  O_30
                            x       y       z     vdW  Elec       q    Type
                         _______ _______ _______ _____ _____    ______ ____

>  <TORSDO>
F 2

$$$$
=
 OpenBabel11122412313D

 30 35  0  0  1  0  0  0  0  0999 V2000
  161.2740  207.8110  151.2180 C   0  0  0  0  0  0  0  0  0  0  0  0
  161.5530  205.5200  150.2240 C   0  0  0  0  0  0  0  0  0  0  0  0
  160.5570  206.1870  155.1010 C   0  0  0  0  0  2  0  0  0  0  0  0
  161.0600  208.6070  152.3750 C   0  0  0  0  0  0  0  0  0  0  0  0
  161.2820  208.4710  149.8610 C   0  0  0  0  0  2  0  0  0  0  0  0
  161.5070  211.9460  150.8640 O   0  0  0  0  0  0  0  0  0  0  0  0
  159.2890  210.6110  153.7740 C   0  0  1  0  0  3  0  0  0  0  0  0
  161.5190  210.6910  151.0000 C   0  0  0  0  0  0  0  0  0  0  0  0
  159.2230  209.5090  154.8200 C   0  0  2  0  0  3  0  0  0  0  0  0
  160.3920  207.5290  155.8340 C   0  0  1  0  0  3  0  0  0  0  0  0
  161.7660  209.8500  149.8690 N   0  0  0  0  0  0  0  0  0  0  0  0
  161.4180  210.0830  152.3660 C   0  0  1  0  0  3  0  0  0  0  0  0
  161.5810  204.1340  150.4040 C   0  0  0  0  0  3  0  0  0  0  0  0
  159.1380  210.2760  156.0960 C   0  0  0  0  0  2  0  0  0  0  0  0
  158.6320  211.7510  154.2820 O   0  0  0  0  0  0  0  0  0  0  0  0
  161.7900  206.0050  148.9430 O   0  0  0  0  0  1  0  0  0  0  0  0
  160.8310  206.6010  153.7010 C   0  0  0  0  0  0  0  0  0  0  0  0
  161.3730  203.5720  151.6600 C   0  0  0  0  0  3  0  0  0  0  0  0
  161.3040  206.3820  151.3280 C   0  0  0  0  0  0  0  0  0  0  0  0
  160.7670  207.9560  153.5850 C   0  0  0  0  0  0  0  0  0  0  0  0
  161.5810  207.7560  156.7480 C   0  0  0  0  0  1  0  0  0  0  0  0
  160.3550  208.5720  154.8050 N   0  0  0  0  0  0  0  0  0  0  0  0
  158.4300  211.5400  155.6630 C   0  0  0  0  0  2  0  0  0  0  0  0
  161.4200  211.8280  154.0650 C   0  0  0  0  0  2  0  0  0  0  0  0
  161.1340  204.3940  152.7570 C   0  0  0  0  0  3  0  0  0  0  0  0
  161.0990  205.7840  152.6040 C   0  0  0  0  0  0  0  0  0  0  0  0
  160.7010  210.9450  153.3670 C   0  0  0  0  0  0  0  0  0  0  0  0
  162.2920  210.4510  148.6420 C   0  0  0  0  0  2  0  0  0  0  0  0
  161.8330  212.2900  147.5110 C   0  0  0  0  0  1  0  0  0  0  0  0
  161.2810  211.0720  147.9040 O   0  0  0  0  0  0  0  0  0  0  0  0
  1 19  2  0  0  0  0
  1  4  1  0  0  0  0
  2 13  2  0  0  0  0
  2 19  1  0  0  0  0
  3 10  1  0  0  0  0
  4 20  2  0  0  0  0
  5 11  1  0  0  0  0
  5  1  1  0  0  0  0
  6  8  2  0  0  0  0
  7 27  1  1  0  0  0
  7 15  1  0  0  0  0
  7  9  1  0  0  0  0
  9 14  1  1  0  0  0
 10 21  1  1  0  0  0
 11  8  1  0  0  0  0
 12  8  1  6  0  0  0
 12  4  1  0  0  0  0
 12 27  1  0  0  0  0
 13 18  1  0  0  0  0
 15 23  1  0  0  0  0
 16  2  1  0  0  0  0
 17  3  1  0  0  0  0
 18 25  2  0  0  0  0
 19 26  1  0  0  0  0
 20 17  1  0  0  0  0
 20 22  1  0  0  0  0
 22  9  1  0  0  0  0
 22 10  1  0  0  0  0
 23 14  1  0  0  0  0
 26 25  1  0  0  0  0
 26 17  2  0  0  0  0
 27 24  2  0  0  0  0
 28 11  1  0  0  0  0
 29 30  1  0  0  0  0
 30 28  1  0  0  0  0
M  END
>  <MODEL>
7

>  <REMARK>
 VINA RESULT:      -4.7      2.437      7.396
  Name = 
  2 active torsions:
  status: ('A' for Active; 'I' for Inactive)
    1  A    between atoms: N_11  and  C_28
    2  A    between atoms: C_28  and  O_30
                            x       y       z     vdW  Elec       q    Type
                         _______ _______ _______ _____ _____    ______ ____

>  <TORSDO>
F 2

$$$$
=
 OpenBabel11122412313D

 30 35  0  0  1  0  0  0  0  0999 V2000
  161.4650  207.7700  149.7750 C   0  0  0  0  0  0  0  0  0  0  0  0
  161.4770  205.8180  148.1920 C   0  0  0  0  0  0  0  0  0  0  0  0
  160.8310  205.2140  153.1360 C   0  0  0  0  0  2  0  0  0  0  0  0
  161.3910  208.2380  151.1140 C   0  0  0  0  0  0  0  0  0  0  0  0
  161.4540  208.7700  148.6450 C   0  0  0  0  0  2  0  0  0  0  0  0
  162.0500  211.8200  150.5080 O   0  0  0  0  0  0  0  0  0  0  0  0
  159.8930  209.9110  153.1300 C   0  0  1  0  0  3  0  0  0  0  0  0
  161.9560  210.5770  150.3060 C   0  0  0  0  0  0  0  0  0  0  0  0
  159.7880  208.5750  153.8500 C   0  0  2  0  0  3  0  0  0  0  0  0
  160.8310  206.3170  154.2070 C   0  0  1  0  0  3  0  0  0  0  0  0
  162.0600  210.0580  148.9770 N   0  0  0  0  0  0  0  0  0  0  0  0
  161.8790  209.6320  151.4670 C   0  0  1  0  0  3  0  0  0  0  0  0
  161.3910  204.4370  147.9960 C   0  0  0  0  0  3  0  0  0  0  0  0
  159.8480  208.9730  155.2860 C   0  0  0  0  0  2  0  0  0  0  0  0
  159.3720  210.9150  153.9730 O   0  0  0  0  0  0  0  0  0  0  0  0
  161.6820  206.6140  147.0690 O   0  0  0  0  0  1  0  0  0  0  0  0
  161.0600  205.9690  151.8770 C   0  0  0  0  0  0  0  0  0  0  0  0
  161.2060  203.5740  149.0720 C   0  0  0  0  0  3  0  0  0  0  0  0
  161.3720  206.3670  149.5010 C   0  0  0  0  0  0  0  0  0  0  0  0
  161.1110  207.3070  152.1290 C   0  0  0  0  0  0  0  0  0  0  0  0
  162.0870  206.2030  155.0510 C   0  0  0  0  0  1  0  0  0  0  0  0
  160.8280  207.5980  153.4970 N   0  0  0  0  0  0  0  0  0  0  0  0
  159.2320  210.3540  155.2600 C   0  0  0  0  0  2  0  0  0  0  0  0
  162.1380  210.8490  153.5610 C   0  0  0  0  0  2  0  0  0  0  0  0
  161.1060  204.0840  150.3620 C   0  0  0  0  0  3  0  0  0  0  0  0
  161.1880  205.4620  150.5860 C   0  0  0  0  0  0  0  0  0  0  0  0
  161.3030  210.2410  152.7140 C   0  0  0  0  0  0  0  0  0  0  0  0
  162.5650  210.9280  147.9140 C   0  0  0  0  0  2  0  0  0  0  0  0
  162.3070  212.9540  147.0780 C   0  0  0  0  0  1  0  0  0  0  0  0
  161.5890  211.8320  147.4870 O   0  0  0  0  0  0  0  0  0  0  0  0
  1  4  1  0  0  0  0
  2 19  1  0  0  0  0
  3 10  1  0  0  0  0
  4 12  1  0  0  0  0
  4 20  2  0  0  0  0
  5 11  1  0  0  0  0
  5  1  1  0  0  0  0
  7 27  1  1  0  0  0
  7  9  1  0  0  0  0
  7 15  1  0  0  0  0
  8  6  2  0  0  0  0
  9 14  1  1  0  0  0
 10 21  1  6  0  0  0
 11  8  1  0  0  0  0
 12  8  1  6  0  0  0
 12 27  1  0  0  0  0
 13  2  2  0  0  0  0
 13 18  1  0  0  0  0
 15 23  1  0  0  0  0
 16  2  1  0  0  0  0
 17 20  1  0  0  0  0
 17  3  1  0  0  0  0
 18 25  2  0  0  0  0
 19  1  2  0  0  0  0
 19 26  1  0  0  0  0
 20 22  1  0  0  0  0
 22  9  1  0  0  0  0
 22 10  1  0  0  0  0
 23 14  1  0  0  0  0
 25 26  1  0  0  0  0
 26 17  2  0  0  0  0
 27 24  2  0  0  0  0
 28 11  1  0  0  0  0
 29 30  1  0  0  0  0
 30 28  1  0  0  0  0
M  END
>  <MODEL>
8

>  <REMARK>
 VINA RESULT:      -4.5      2.313      6.812
  Name = 
  2 active torsions:
  status: ('A' for Active; 'I' for Inactive)
    1  A    between atoms: N_11  and  C_28
    2  A    between atoms: C_28  and  O_30
                            x       y       z     vdW  Elec       q    Type
                         _______ _______ _______ _____ _____    ______ ____

>  <TORSDO>
F 2

$$$$
=
 OpenBabel11122412313D

 30 35  0  0  1  0  0  0  0  0999 V2000
  161.5670  208.1840  151.3010 C   0  0  0  0  0  0  0  0  0  0  0  0
  161.5920  208.6530  153.7690 C   0  0  0  0  0  0  0  0  0  0  0  0
  160.8380  204.0290  151.9580 C   0  0  0  0  0  2  0  0  0  0  0  0
  161.3850  207.2430  150.2520 C   0  0  0  0  0  0  0  0  0  0  0  0
  162.0520  209.5740  150.9660 C   0  0  0  0  0  2  0  0  0  0  0  0
  161.5840  209.5460  147.3730 O   0  0  0  0  0  0  0  0  0  0  0  0
  162.6080  205.8240  147.8870 C   0  0  1  0  0  3  0  0  0  0  0  0
  161.4910  209.1350  148.5630 C   0  0  0  0  0  0  0  0  0  0  0  0
  162.2750  204.5940  148.7170 C   0  0  2  0  0  3  0  0  0  0  0  0
  160.7720  203.6170  150.4790 C   0  0  1  0  0  3  0  0  0  0  0  0
  161.6330  210.0540  149.6510 N   0  0  0  0  0  0  0  0  0  0  0  0
  161.0930  207.7170  148.8390 C   0  0  1  0  0  3  0  0  0  0  0  0
  161.4650  208.1780  155.0770 C   0  0  0  0  0  3  0  0  0  0  0  0
  161.9290  203.5820  147.6770 C   0  0  0  0  0  2  0  0  0  0  0  0
  163.0770  205.3980  146.6250 O   0  0  0  0  0  0  0  0  0  0  0  0
  161.8310  210.0130  153.6010 O   0  0  0  0  0  1  0  0  0  0  0  0
  161.0810  205.4930  151.8900 C   0  0  0  0  0  0  0  0  0  0  0  0
  161.2060  206.8330  155.3270 C   0  0  0  0  0  3  0  0  0  0  0  0
  161.4620  207.7630  152.6660 C   0  0  0  0  0  0  0  0  0  0  0  0
  161.2190  205.8900  150.5940 C   0  0  0  0  0  0  0  0  0  0  0  0
  159.3450  203.2500  150.1180 C   0  0  0  0  0  1  0  0  0  0  0  0
  161.1950  204.7820  149.6960 N   0  0  0  0  0  0  0  0  0  0  0  0
  162.7780  204.0240  146.5070 C   0  0  0  0  0  2  0  0  0  0  0  0
  160.5440  206.5780  146.7570 C   0  0  0  0  0  2  0  0  0  0  0  0
  161.0690  205.9440  154.2660 C   0  0  0  0  0  3  0  0  0  0  0  0
  161.1920  206.3930  152.9470 C   0  0  0  0  0  0  0  0  0  0  0  0
  161.4370  206.7590  147.7330 C   0  0  0  0  0  0  0  0  0  0  0  0
  161.5860  211.4910  149.3740 C   0  0  0  0  0  2  0  0  0  0  0  0
  162.3220  212.9570  147.8990 C   0  0  0  0  0  1  0  0  0  0  0  0
  162.7480  211.9260  148.7330 O   0  0  0  0  0  0  0  0  0  0  0  0
  1 19  1  0  0  0  0
  2 13  1  0  0  0  0
  4 20  1  0  0  0  0
  4  1  2  0  0  0  0
  5  1  1  0  0  0  0
  6  8  2  0  0  0  0
  7 15  1  6  0  0  0
  7  9  1  0  0  0  0
  8 12  1  0  0  0  0
  8 11  1  0  0  0  0
  9 14  1  6  0  0  0
  9 22  1  0  0  0  0
 10 21  1  6  0  0  0
 10  3  1  0  0  0  0
 11  5  1  0  0  0  0
 12 27  1  6  0  0  0
 12  4  1  0  0  0  0
 13 18  2  0  0  0  0
 16  2  1  0  0  0  0
 17  3  1  0  0  0  0
 17 26  1  0  0  0  0
 19 26  1  0  0  0  0
 19  2  2  0  0  0  0
 20 17  2  0  0  0  0
 22 10  1  0  0  0  0
 22 20  1  0  0  0  0
 23 15  1  0  0  0  0
 23 14  1  0  0  0  0
 24 27  2  0  0  0  0
 25 18  1  0  0  0  0
 26 25  2  0  0  0  0
 27  7  1  0  0  0  0
 28 11  1  0  0  0  0
 29 30  1  0  0  0  0
 30 28  1  0  0  0  0
M  END
>  <MODEL>
9

>  <REMARK>
 VINA RESULT:      -4.2      2.088      5.217
  Name = 
  2 active torsions:
  status: ('A' for Active; 'I' for Inactive)
    1  A    between atoms: N_11  and  C_28
    2  A    between atoms: C_28  and  O_30
                            x       y       z     vdW  Elec       q    Type
                         _______ _______ _______ _____ _____    ______ ____

>  <TORSDO>
F 2

$$$$
