=
 OpenBabel11122414073D

 28 32  0  0  1  0  0  0  0  0999 V2000
  160.8260  209.0580  156.1630 C   0  0  0  0  0  0  0  0  0  0  0  0
  157.1540  211.7330  154.1280 O   0  0  0  0  0  0  0  0  0  0  0  0
  162.1130  207.9520  150.7780 O   0  0  0  0  0  0  0  0  0  0  0  0
  163.0960  210.6860  156.3950 C   0  0  0  0  0  3  0  0  0  0  0  0
  161.5810  210.3220  150.9960 C   0  0  1  0  0  3  0  0  0  0  0  0
  159.6700  208.1170  156.0050 C   0  0  0  0  0  2  0  0  0  0  0  0
  158.2500  213.2760  155.6980 O   0  0  0  0  0  0  0  0  0  0  0  0
  158.2660  212.7290  154.3000 S   0  0  0  0  0  0  0  0  0  0  0  0
  158.2730  213.1110  151.5710 C   0  0  0  0  0  0  0  0  0  0  0  0
  159.8560  212.0000  153.9530 C   0  0  2  0  0  3  0  0  0  0  0  0
  162.0490  206.4000  154.2090 O   0  0  0  0  0  0  0  0  0  0  0  0
  160.2290  209.9250  152.8930 C   0  0  1  0  0  3  0  0  0  0  0  0
  159.2610  212.2830  151.5180 N   0  0  0  0  0  0  0  0  0  0  0  0
  158.0750  214.2800  152.9230 S   0  0  0  0  0  0  0  0  0  0  0  0
  160.9010  206.8130  154.2370 C   0  0  0  0  0  0  0  0  0  0  0  0
  160.9810  210.1640  155.3030 C   0  0  0  0  0  0  0  0  0  0  0  0
  161.6010  208.8870  151.4490 C   0  0  0  0  0  0  0  0  0  0  0  0
  157.1840  212.9990  150.5620 C   0  0  0  0  0  1  0  0  0  0  0  0
  160.2900  207.3870  153.0030 C   0  0  0  0  0  2  0  0  0  0  0  0
  162.1330  210.9620  155.4220 C   0  0  0  0  0  3  0  0  0  0  0  0
  161.7930  208.7920  157.1420 C   0  0  0  0  0  3  0  0  0  0  0  0
  162.9220  209.6040  157.2610 C   0  0  0  0  0  3  0  0  0  0  0  0
  160.1210  206.7410  155.5160 C   0  0  0  0  0  2  0  0  0  0  0  0
  161.1200  210.9490  152.2920 C   0  0  2  0  0  3  0  0  0  0  0  0
  160.9080  208.6660  152.6820 N   0  0  0  0  0  0  0  0  0  0  0  0
  160.3470  212.2280  152.4850 C   0  0  2  0  0  3  0  0  0  0  0  0
  162.9850  210.8020  150.6760 C   0  0  0  0  0  1  0  0  0  0  0  0
  159.9220  210.4820  154.2660 C   0  0  1  0  0  3  0  0  0  0  0  0
  1 21  1  0  0  0  0
  2  8  2  0  0  0  0
  3 17  2  0  0  0  0
  4 22  1  0  0  0  0
  5 27  1  1  0  0  0
  5 17  1  0  0  0  0
  5 24  1  0  0  0  0
  6  1  1  0  0  0  0
  8  7  2  0  0  0  0
  9 14  1  0  0  0  0
 10 28  1  0  0  0  0
 10  8  1  6  0  0  0
 11 15  2  0  0  0  0
 12 25  1  1  0  0  0
 12 28  1  0  0  0  0
 13  9  2  0  0  0  0
 13 26  1  0  0  0  0
 14  8  1  0  0  0  0
 15 23  1  0  0  0  0
 16 20  1  0  0  0  0
 16  1  2  0  0  0  0
 17 25  1  0  0  0  0
 18  9  1  0  0  0  0
 19 15  1  0  0  0  0
 20  4  2  0  0  0  0
 21 22  2  0  0  0  0
 23  6  1  0  0  0  0
 24 26  1  0  0  0  0
 24 12  1  0  0  0  0
 25 19  1  0  0  0  0
 26 10  1  0  0  0  0
 28 16  1  0  0  0  0
M  END
>  <MODEL>
1

>  <REMARK>
 VINA RESULT:      -4.0      0.000      0.000
  Name = 
  0 active torsions:
  status: ('A' for Active; 'I' for Inactive)
                            x       y       z     vdW  Elec       q    Type
                         _______ _______ _______ _____ _____    ______ ____

>  <TORSDO>
F 0

$$$$
=
 OpenBabel11122414073D

 28 32  0  0  1  0  0  0  0  0999 V2000
  160.5960  209.6430  155.5920 C   0  0  0  0  0  0  0  0  0  0  0  0
  155.7740  210.7850  155.1100 O   0  0  0  0  0  0  0  0  0  0  0  0
  160.9570  211.8400  150.4040 O   0  0  0  0  0  0  0  0  0  0  0  0
  161.9380  211.8650  156.6510 C   0  0  0  0  0  3  0  0  0  0  0  0
  159.5280  213.2680  151.7720 C   0  0  1  0  0  3  0  0  0  0  0  0
  159.9510  208.4460  154.9630 C   0  0  0  0  0  2  0  0  0  0  0  0
  156.4350  211.7750  157.2610 O   0  0  0  0  0  0  0  0  0  0  0  0
  156.3610  211.9960  155.7780 S   0  0  0  0  0  0  0  0  0  0  0  0
  155.5760  213.5050  153.6100 C   0  0  0  0  0  0  0  0  0  0  0  0
  157.9830  212.3730  155.1400 C   0  0  2  0  0  3  0  0  0  0  0  0
  162.3520  209.1100  152.5910 O   0  0  0  0  0  0  0  0  0  0  0  0
  158.9520  211.4670  153.1890 C   0  0  1  0  0  3  0  0  0  0  0  0
  156.7820  213.3850  153.1660 N   0  0  0  0  0  0  0  0  0  0  0  0
  155.2150  213.6850  155.3620 S   0  0  0  0  0  0  0  0  0  0  0  0
  161.1780  208.8520  152.8020 C   0  0  0  0  0  0  0  0  0  0  0  0
  160.0620  210.9350  155.4070 C   0  0  0  0  0  0  0  0  0  0  0  0
  160.2630  211.9960  151.4440 C   0  0  0  0  0  0  0  0  0  0  0  0
  154.4400  213.3440  152.6610 C   0  0  0  0  0  1  0  0  0  0  0  0
  160.1140  209.5380  152.0110 C   0  0  0  0  0  2  0  0  0  0  0  0
  160.7550  212.0400  155.9310 C   0  0  0  0  0  3  0  0  0  0  0  0
  161.7800  209.4750  156.3230 C   0  0  0  0  0  3  0  0  0  0  0  0
  162.4470  210.5800  156.8530 C   0  0  0  0  0  3  0  0  0  0  0  0
  160.8210  207.8480  153.8570 C   0  0  0  0  0  2  0  0  0  0  0  0
  159.1550  212.9370  153.2000 C   0  0  2  0  0  3  0  0  0  0  0  0
  160.0350  210.9430  152.3870 N   0  0  0  0  0  0  0  0  0  0  0  0
  157.9780  213.4380  153.9940 C   0  0  2  0  0  3  0  0  0  0  0  0
  160.4770  214.4520  151.7610 C   0  0  0  0  0  1  0  0  0  0  0  0
  158.7610  211.1240  154.6500 C   0  0  1  0  0  3  0  0  0  0  0  0
  1 21  1  0  0  0  0
  2  8  2  0  0  0  0
  3 17  2  0  0  0  0
  4 22  1  0  0  0  0
  5 27  1  1  0  0  0
  5 24  1  0  0  0  0
  6  1  1  0  0  0  0
  8  7  2  0  0  0  0
  9 14  1  0  0  0  0
 10  8  1  6  0  0  0
 11 15  2  0  0  0  0
 12 25  1  1  0  0  0
 12 24  1  0  0  0  0
 12 28  1  0  0  0  0
 13  9  2  0  0  0  0
 13 26  1  0  0  0  0
 14  8  1  0  0  0  0
 15 23  1  0  0  0  0
 16  1  2  0  0  0  0
 16 20  1  0  0  0  0
 17  5  1  0  0  0  0
 17 25  1  0  0  0  0
 18  9  1  0  0  0  0
 19 25  1  0  0  0  0
 19 15  1  0  0  0  0
 20  4  2  0  0  0  0
 21 22  2  0  0  0  0
 23  6  1  0  0  0  0
 24 26  1  0  0  0  0
 26 10  1  0  0  0  0
 28 10  1  0  0  0  0
 28 16  1  0  0  0  0
M  END
>  <MODEL>
2

>  <REMARK>
 VINA RESULT:      -2.2      2.129      2.688
  Name = 
  0 active torsions:
  status: ('A' for Active; 'I' for Inactive)
                            x       y       z     vdW  Elec       q    Type
                         _______ _______ _______ _____ _____    ______ ____

>  <TORSDO>
F 0

$$$$
