=
 OpenBabel11122412393D

 30 35  0  0  1  0  0  0  0  0999 V2000
  161.4410  208.2880  151.1980 C   0  0  0  0  0  0  0  0  0  0  0  0
  160.9840  209.7290  153.2020 C   0  0  2  0  0  3  0  0  0  0  0  0
  160.9680  204.5860  153.1770 C   0  0  0  0  0  2  0  0  0  0  0  0
  161.4800  207.0360  150.5030 C   0  0  0  0  0  0  0  0  0  0  0  0
  161.7670  209.4170  150.5200 N   0  0  0  0  0  0  0  0  0  0  0  0
  162.2440  208.2140  147.2520 O   0  0  0  0  0  0  0  0  0  0  0  0
  161.7490  204.6500  148.3800 C   0  0  1  0  0  3  0  0  0  0  0  0
  162.0140  208.2080  148.4930 C   0  0  0  0  0  0  0  0  0  0  0  0
  161.3730  204.0330  149.6280 N   0  0  0  0  0  0  0  0  0  0  0  0
  161.5380  203.7460  152.0850 C   0  0  0  0  0  0  0  0  0  0  0  0
  162.0990  209.4040  149.2080 C   0  0  0  0  0  0  0  0  0  0  0  0
  161.6400  207.0500  149.1250 N   0  0  0  0  0  0  0  0  0  0  0  0
  160.8820  209.6230  154.7020 C   0  0  0  0  0  3  0  0  0  0  0  0
  160.9110  202.7140  149.3810 C   0  0  0  0  0  3  0  0  0  0  0  0
  161.2850  203.6660  147.3060 C   0  0  0  0  0  2  0  0  0  0  0  0
  159.7560  210.4590  152.6850 C   0  0  0  0  0  1  0  0  0  0  0  0
  160.9300  205.9090  152.5780 N   0  0  0  0  0  0  0  0  0  0  0  0
  160.7080  208.4600  155.3370 C   0  0  0  0  0  3  0  0  0  0  0  0
  161.1190  208.3810  152.5130 C   0  0  0  0  0  0  0  0  0  0  0  0
  161.3480  205.8850  151.2180 C   0  0  0  0  0  0  0  0  0  0  0  0
  161.7650  202.5540  152.2130 O   0  0  0  0  0  0  0  0  0  0  0  0
  161.9190  204.5450  150.8720 C   0  0  2  0  0  3  0  0  0  0  0  0
  160.8410  202.4700  148.0860 C   0  0  0  0  0  3  0  0  0  0  0  0
  159.5540  205.9560  148.3530 C   0  0  0  0  0  1  0  0  0  0  0  0
  160.6640  207.1870  154.6030 C   0  0  0  0  0  3  0  0  0  0  0  0
  160.8550  207.1470  153.2820 C   0  0  0  0  0  0  0  0  0  0  0  0
  161.0770  206.0080  148.2450 C   0  0  2  0  0  3  0  0  0  0  0  0
  162.4660  210.6170  148.5440 N   0  0  0  0  0  2  0  0  0  0  0  0
  161.2950  212.7010  148.9380 C   0  0  0  0  0  1  0  0  0  0  0  0
  162.5370  211.8890  149.2420 C   0  0  0  0  0  2  0  0  0  0  0  0
  1 19  2  0  0  0  0
  2 16  1  6  0  0  0
  2 13  1  0  0  0  0
  4  1  1  0  0  0  0
  4 20  2  0  0  0  0
  5  1  1  0  0  0  0
  6  8  2  0  0  0  0
  7 15  1  6  0  0  0
  7  9  1  0  0  0  0
  8 12  1  0  0  0  0
  8 11  1  0  0  0  0
  9 22  1  0  0  0  0
 10 21  2  0  0  0  0
 10  3  1  0  0  0  0
 11  5  2  0  0  0  0
 12  4  1  0  0  0  0
 13 18  2  0  0  0  0
 14  9  1  0  0  0  0
 15 23  1  0  0  0  0
 17  3  1  0  0  0  0
 17 26  1  0  0  0  0
 19  2  1  0  0  0  0
 19 26  1  0  0  0  0
 20 17  1  0  0  0  0
 22 20  1  1  0  0  0
 22 10  1  0  0  0  0
 23 14  2  0  0  0  0
 25 18  1  0  0  0  0
 26 25  2  0  0  0  0
 27 24  1  1  0  0  0
 27  7  1  0  0  0  0
 27 12  1  0  0  0  0
 28 11  1  0  0  0  0
 28 30  1  0  0  0  0
 29 30  1  0  0  0  0
M  END
>  <MODEL>
1

>  <REMARK>
 VINA RESULT:      -6.6      0.000      0.000
  Name = 
  1 active torsions:
  status: ('A' for Active; 'I' for Inactive)
    1  A    between atoms: N_28  and  C_30
                            x       y       z     vdW  Elec       q    Type
                         _______ _______ _______ _____ _____    ______ ____

>  <TORSDO>
F 1

$$$$
=
 OpenBabel11122412393D

 30 35  0  0  1  0  0  0  0  0999 V2000
  160.8460  210.7220  151.4790 C   0  0  0  0  0  0  0  0  0  0  0  0
  159.7430  212.8850  152.1170 C   0  0  2  0  0  3  0  0  0  0  0  0
  159.9720  208.6830  155.0730 C   0  0  0  0  0  2  0  0  0  0  0  0
  161.1490  209.3350  151.6670 C   0  0  0  0  0  0  0  0  0  0  0  0
  161.3080  211.3420  150.3640 N   0  0  0  0  0  0  0  0  0  0  0  0
  162.7990  208.6920  148.6000 O   0  0  0  0  0  0  0  0  0  0  0  0
  162.1530  206.2990  151.4420 C   0  0  1  0  0  3  0  0  0  0  0  0
  162.2070  209.3120  149.5280 C   0  0  0  0  0  0  0  0  0  0  0  0
  161.4480  206.3950  152.6970 N   0  0  0  0  0  0  0  0  0  0  0  0
  160.8810  207.5270  154.8280 C   0  0  0  0  0  0  0  0  0  0  0  0
  162.0190  210.6900  149.4140 C   0  0  0  0  0  0  0  0  0  0  0  0
  161.7150  208.6340  150.6130 N   0  0  0  0  0  0  0  0  0  0  0  0
  159.2000  213.5900  153.3340 C   0  0  0  0  0  3  0  0  0  0  0  0
  161.1420  205.0900  153.1650 C   0  0  0  0  0  3  0  0  0  0  0  0
  162.0780  204.8190  151.0660 C   0  0  0  0  0  2  0  0  0  0  0  0
  158.6950  212.9420  151.0190 C   0  0  0  0  0  1  0  0  0  0  0  0
  160.0540  209.4270  153.8280 N   0  0  0  0  0  0  0  0  0  0  0  0
  158.8980  212.9510  154.4670 C   0  0  0  0  0  3  0  0  0  0  0  0
  160.1410  211.4430  152.3870 C   0  0  0  0  0  0  0  0  0  0  0  0
  160.8620  208.7580  152.8660 C   0  0  0  0  0  0  0  0  0  0  0  0
  161.1130  206.6740  155.6680 O   0  0  0  0  0  0  0  0  0  0  0  0
  161.5710  207.5990  153.4960 C   0  0  2  0  0  3  0  0  0  0  0  0
  161.4760  204.1750  152.2740 C   0  0  0  0  0  3  0  0  0  0  0  0
  160.0090  206.8870  150.1830 C   0  0  0  0  0  1  0  0  0  0  0  0
  159.1350  211.5090  154.6200 C   0  0  0  0  0  3  0  0  0  0  0  0
  159.7150  210.8000  153.6480 C   0  0  0  0  0  0  0  0  0  0  0  0
  161.4900  207.1900  150.4010 C   0  0  2  0  0  3  0  0  0  0  0  0
  162.5120  211.3950  148.2710 N   0  0  0  0  0  2  0  0  0  0  0  0
  161.1280  213.0580  147.1830 C   0  0  0  0  0  1  0  0  0  0  0  0
  162.3120  212.8230  148.0980 C   0  0  0  0  0  2  0  0  0  0  0  0
  1  4  1  0  0  0  0
  1 19  2  0  0  0  0
  2 16  1  6  0  0  0
  2 19  1  0  0  0  0
  2 13  1  0  0  0  0
  4 20  2  0  0  0  0
  5  1  1  0  0  0  0
  6  8  2  0  0  0  0
  7 15  1  6  0  0  0
  7  9  1  0  0  0  0
  8 12  1  0  0  0  0
  9 14  1  0  0  0  0
  9 22  1  0  0  0  0
 10  3  1  0  0  0  0
 10 21  2  0  0  0  0
 11  8  1  0  0  0  0
 11  5  2  0  0  0  0
 12  4  1  0  0  0  0
 13 18  2  0  0  0  0
 15 23  1  0  0  0  0
 17  3  1  0  0  0  0
 18 25  1  0  0  0  0
 19 26  1  0  0  0  0
 20 17  1  0  0  0  0
 22 20  1  6  0  0  0
 22 10  1  0  0  0  0
 23 14  2  0  0  0  0
 26 17  1  0  0  0  0
 26 25  2  0  0  0  0
 27 24  1  1  0  0  0
 27 12  1  0  0  0  0
 27  7  1  0  0  0  0
 28 11  1  0  0  0  0
 29 30  1  0  0  0  0
 30 28  1  0  0  0  0
M  END
>  <MODEL>
2

>  <REMARK>
 VINA RESULT:      -5.1      2.051      3.454
  Name = 
  1 active torsions:
  status: ('A' for Active; 'I' for Inactive)
    1  A    between atoms: N_28  and  C_30
                            x       y       z     vdW  Elec       q    Type
                         _______ _______ _______ _____ _____    ______ ____

>  <TORSDO>
F 1

$$$$
=
 OpenBabel11122412393D

 30 35  0  0  1  0  0  0  0  0999 V2000
  161.3350  208.1190  151.4840 C   0  0  0  0  0  0  0  0  0  0  0  0
  161.9680  210.5180  151.1020 C   0  0  0  0  0  0  0  0  0  0  0  0
  161.4960  206.9520  147.4280 C   0  0  0  0  0  2  0  0  0  0  0  0
  161.1630  206.7590  151.0700 C   0  0  0  0  0  0  0  0  0  0  0  0
  161.1040  208.4370  152.7830 N   0  0  0  0  0  0  0  0  0  0  0  0
  160.4460  205.2950  154.2140 O   0  0  0  0  0  0  0  0  0  0  0  0
  160.6240  203.6080  150.8450 C   0  0  1  0  0  3  0  0  0  0  0  0
  160.7010  206.1650  153.3340 C   0  0  0  0  0  0  0  0  0  0  0  0
  160.9660  204.0500  149.5160 N   0  0  0  0  0  0  0  0  0  0  0  0
  160.8270  205.6330  147.6130 C   0  0  0  0  0  0  0  0  0  0  0  0
  160.7440  207.5110  153.7020 C   0  0  0  0  0  0  0  0  0  0  0  0
  160.9760  205.7910  152.0450 N   0  0  0  0  0  0  0  0  0  0  0  0
  162.0920  211.5170  149.9790 C   0  0  0  0  0  3  0  0  0  0  0  0
  161.2960  202.9250  148.7160 C   0  0  0  0  0  3  0  0  0  0  0  0
  160.9710  202.1190  150.8600 C   0  0  0  0  0  2  0  0  0  0  0  0
  163.2490  210.5520  151.9190 C   0  0  0  0  0  1  0  0  0  0  0  0
  161.6470  207.4310  148.7900 N   0  0  0  0  0  0  0  0  0  0  0  0
  162.1670  211.1570  148.6950 C   0  0  0  0  0  3  0  0  0  0  0  0
  161.6910  209.1050  150.6200 C   0  0  0  0  0  0  0  0  0  0  0  0
  161.2000  206.4690  149.7400 C   0  0  0  0  0  0  0  0  0  0  0  0
  160.4900  204.9210  146.6810 O   0  0  0  0  0  0  0  0  0  0  0  0
  160.4980  205.3420  149.0490 C   0  0  2  0  0  3  0  0  0  0  0  0
  161.3150  201.8190  149.4360 C   0  0  0  0  0  3  0  0  0  0  0  0
  162.9330  204.3120  151.6830 C   0  0  0  0  0  1  0  0  0  0  0  0
  162.0750  209.7480  148.2880 C   0  0  0  0  0  3  0  0  0  0  0  0
  161.8530  208.7850  149.1860 C   0  0  2  0  0  3  0  0  0  0  0  0
  161.4190  204.3930  151.8780 C   0  0  2  0  0  3  0  0  0  0  0  0
  160.4800  207.9000  155.0520 N   0  0  0  0  0  2  0  0  0  0  0  0
  161.8310  209.5150  156.2490 C   0  0  0  0  0  1  0  0  0  0  0  0
  160.5440  209.2850  155.4850 C   0  0  0  0  0  2  0  0  0  0  0  0
  1  5  1  0  0  0  0
  2 16  1  0  0  0  0
  3 10  1  0  0  0  0
  3 17  1  0  0  0  0
  4  1  1  0  0  0  0
  4 12  1  0  0  0  0
  5 11  2  0  0  0  0
  7 15  1  6  0  0  0
  7 27  1  0  0  0  0
  8 11  1  0  0  0  0
  8  6  2  0  0  0  0
  9  7  1  0  0  0  0
 11 28  1  0  0  0  0
 12  8  1  0  0  0  0
 13  2  2  0  0  0  0
 14 23  2  0  0  0  0
 14  9  1  0  0  0  0
 17 26  1  0  0  0  0
 17 20  1  0  0  0  0
 18 13  1  0  0  0  0
 19  2  1  0  0  0  0
 19  1  2  0  0  0  0
 20  4  2  0  0  0  0
 21 10  2  0  0  0  0
 22 10  1  6  0  0  0
 22  9  1  0  0  0  0
 22 20  1  0  0  0  0
 23 15  1  0  0  0  0
 25 18  2  0  0  0  0
 26 25  1  6  0  0  0
 26 19  1  0  0  0  0
 27 24  1  6  0  0  0
 27 12  1  0  0  0  0
 28 30  1  0  0  0  0
 30 29  1  0  0  0  0
M  END
>  <MODEL>
3

>  <REMARK>
 VINA RESULT:      -5.1      1.647      4.717
  Name = 
  1 active torsions:
  status: ('A' for Active; 'I' for Inactive)
    1  A    between atoms: N_28  and  C_30
                            x       y       z     vdW  Elec       q    Type
                         _______ _______ _______ _____ _____    ______ ____

>  <TORSDO>
F 1

$$$$
=
 OpenBabel11122412393D

 30 35  0  0  1  0  0  0  0  0999 V2000
  159.4840  211.8020  152.1310 C   0  0  0  0  0  0  0  0  0  0  0  0
  160.0260  213.1410  150.0780 C   0  0  2  0  0  3  0  0  0  0  0  0
  162.3170  208.7450  151.4470 C   0  0  0  0  0  2  0  0  0  0  0  0
  159.7250  210.7550  153.0780 C   0  0  0  0  0  0  0  0  0  0  0  0
  158.4440  212.6470  152.3490 N   0  0  0  0  0  0  0  0  0  0  0  0
  157.2630  211.5840  155.4840 O   0  0  0  0  0  0  0  0  0  0  0  0
  159.7050  208.7100  155.5450 C   0  0  1  0  0  3  0  0  0  0  0  0
  157.9570  211.6160  154.4290 C   0  0  0  0  0  0  0  0  0  0  0  0
  160.7890  208.2930  154.6910 N   0  0  0  0  0  0  0  0  0  0  0  0
  161.7900  207.8040  152.4770 C   0  0  0  0  0  0  0  0  0  0  0  0
  157.6490  212.5510  153.4400 C   0  0  0  0  0  0  0  0  0  0  0  0
  159.0280  210.7740  154.2760 N   0  0  0  0  0  0  0  0  0  0  0  0
  160.7690  213.0050  148.7730 C   0  0  0  0  0  3  0  0  0  0  0  0
  161.6430  207.4160  155.4090 C   0  0  0  0  0  3  0  0  0  0  0  0
  160.0730  208.1750  156.9290 C   0  0  0  0  0  2  0  0  0  0  0  0
  160.4680  214.4280  150.7520 C   0  0  0  0  0  1  0  0  0  0  0  0
  161.5140  209.9370  151.6590 N   0  0  0  0  0  0  0  0  0  0  0  0
  161.6830  212.0570  148.5540 C   0  0  0  0  0  3  0  0  0  0  0  0
  160.2360  211.9620  151.0130 C   0  0  0  0  0  0  0  0  0  0  0  0
  160.6350  209.7900  152.7690 C   0  0  0  0  0  0  0  0  0  0  0  0
  162.1920  206.6590  152.5980 O   0  0  0  0  0  0  0  0  0  0  0  0
  160.6350  208.3720  153.2500 C   0  0  2  0  0  3  0  0  0  0  0  0
  161.2770  207.3270  156.6740 C   0  0  0  0  0  3  0  0  0  0  0  0
  160.8620  210.9540  155.9350 C   0  0  0  0  0  1  0  0  0  0  0  0
  161.9850  211.0360  149.5680 C   0  0  0  0  0  3  0  0  0  0  0  0
  161.3110  210.9900  150.7200 C   0  0  0  0  0  0  0  0  0  0  0  0
  159.5800  210.2270  155.5310 C   0  0  2  0  0  3  0  0  0  0  0  0
  156.5460  213.4450  153.6090 N   0  0  0  0  0  2  0  0  0  0  0  0
  154.8310  214.1690  152.0590 C   0  0  0  0  0  1  0  0  0  0  0  0
  156.2080  214.4530  152.6190 C   0  0  0  0  0  2  0  0  0  0  0  0
  1  5  1  0  0  0  0
  1  4  1  0  0  0  0
  2 16  1  1  0  0  0
  2 19  1  0  0  0  0
  3 17  1  0  0  0  0
  3 10  1  0  0  0  0
  4 12  1  0  0  0  0
  5 11  2  0  0  0  0
  7 15  1  1  0  0  0
  8  6  2  0  0  0  0
  9 14  1  0  0  0  0
  9  7  1  0  0  0  0
 10 21  2  0  0  0  0
 11 28  1  0  0  0  0
 11  8  1  0  0  0  0
 12  8  1  0  0  0  0
 12 27  1  0  0  0  0
 13  2  1  0  0  0  0
 14 23  2  0  0  0  0
 17 20  1  0  0  0  0
 18 13  2  0  0  0  0
 18 25  1  0  0  0  0
 19  1  2  0  0  0  0
 20  4  2  0  0  0  0
 20 22  1  0  0  0  0
 22 10  1  6  0  0  0
 22  9  1  0  0  0  0
 23 15  1  0  0  0  0
 25 26  2  0  0  0  0
 26 19  1  0  0  0  0
 26 17  1  0  0  0  0
 27  7  1  0  0  0  0
 27 24  1  6  0  0  0
 29 30  1  0  0  0  0
 30 28  1  0  0  0  0
M  END
>  <MODEL>
4

>  <REMARK>
 VINA RESULT:      -4.9      3.646      6.816
  Name = 
  1 active torsions:
  status: ('A' for Active; 'I' for Inactive)
    1  A    between atoms: N_28  and  C_30
                            x       y       z     vdW  Elec       q    Type
                         _______ _______ _______ _____ _____    ______ ____

>  <TORSDO>
F 1

$$$$
=
 OpenBabel11122412393D

 30 35  0  0  1  0  0  0  0  0999 V2000
  161.3500  208.9900  153.0230 C   0  0  0  0  0  0  0  0  0  0  0  0
  161.8050  206.5220  153.0770 C   0  0  0  0  0  0  0  0  0  0  0  0
  161.9100  209.4710  148.8650 C   0  0  0  0  0  2  0  0  0  0  0  0
  161.1050  210.2330  152.3560 C   0  0  0  0  0  0  0  0  0  0  0  0
  161.3080  208.9630  154.3800 N   0  0  0  0  0  0  0  0  0  0  0  0
  160.2980  212.2380  155.1610 O   0  0  0  0  0  0  0  0  0  0  0  0
  160.4540  213.2620  151.5340 C   0  0  1  0  0  3  0  0  0  0  0  0
  160.6500  211.2410  154.4700 C   0  0  0  0  0  0  0  0  0  0  0  0
  160.6940  212.5560  150.2990 N   0  0  0  0  0  0  0  0  0  0  0  0
  161.9500  210.9600  148.8790 C   0  0  0  0  0  0  0  0  0  0  0  0
  161.0160  210.0600  155.1180 C   0  0  0  0  0  0  0  0  0  0  0  0
  160.6300  211.3010  153.1010 N   0  0  0  0  0  0  0  0  0  0  0  0
  162.3900  205.4360  152.2110 C   0  0  0  0  0  3  0  0  0  0  0  0
  160.2030  213.3280  149.2140 C   0  0  0  0  0  3  0  0  0  0  0  0
  159.5810  214.4530  151.1370 C   0  0  0  0  0  2  0  0  0  0  0  0
  160.4580  206.0510  153.5970 C   0  0  0  0  0  1  0  0  0  0  0  0
  161.5740  209.1440  150.2400 N   0  0  0  0  0  0  0  0  0  0  0  0
  162.5490  205.5680  150.8910 C   0  0  0  0  0  3  0  0  0  0  0  0
  161.6510  207.8490  152.3530 C   0  0  0  0  0  0  0  0  0  0  0  0
  161.3370  210.3140  151.0160 C   0  0  0  0  0  0  0  0  0  0  0  0
  162.2410  211.6270  147.8990 O   0  0  0  0  0  0  0  0  0  0  0  0
  161.7260  211.5380  150.2460 C   0  0  2  0  0  3  0  0  0  0  0  0
  159.5660  214.4010  149.6430 C   0  0  0  0  0  3  0  0  0  0  0  0
  158.4470  211.7550  152.0150 C   0  0  0  0  0  1  0  0  0  0  0  0
  162.2130  206.8220  150.2010 C   0  0  0  0  0  3  0  0  0  0  0  0
  161.7920  207.8910  150.8820 C   0  0  2  0  0  3  0  0  0  0  0  0
  159.7580  212.3480  152.5320 C   0  0  2  0  0  3  0  0  0  0  0  0
  161.0150  209.9890  156.5460 N   0  0  0  0  0  2  0  0  0  0  0  0
  160.1700  207.8350  157.2610 C   0  0  0  0  0  1  0  0  0  0  0  0
  161.3600  208.7720  157.2600 C   0  0  0  0  0  2  0  0  0  0  0  0
  1  5  1  0  0  0  0
  2 16  1  0  0  0  0
  3 10  1  0  0  0  0
  3 17  1  0  0  0  0
  4  1  1  0  0  0  0
  4 12  1  0  0  0  0
  5 11  2  0  0  0  0
  7 15  1  6  0  0  0
  7 27  1  0  0  0  0
  8 11  1  0  0  0  0
  8  6  2  0  0  0  0
  9  7  1  0  0  0  0
 11 28  1  0  0  0  0
 12  8  1  0  0  0  0
 13  2  2  0  0  0  0
 14 23  2  0  0  0  0
 14  9  1  0  0  0  0
 17 26  1  0  0  0  0
 17 20  1  0  0  0  0
 18 13  1  0  0  0  0
 19  1  2  0  0  0  0
 19  2  1  0  0  0  0
 20  4  2  0  0  0  0
 21 10  2  0  0  0  0
 22 10  1  6  0  0  0
 22  9  1  0  0  0  0
 22 20  1  0  0  0  0
 23 15  1  0  0  0  0
 25 18  2  0  0  0  0
 26 25  1  1  0  0  0
 26 19  1  0  0  0  0
 27 24  1  6  0  0  0
 27 12  1  0  0  0  0
 28 30  1  0  0  0  0
 30 29  1  0  0  0  0
M  END
>  <MODEL>
5

>  <REMARK>
 VINA RESULT:      -4.9      2.976      7.171
  Name = 
  1 active torsions:
  status: ('A' for Active; 'I' for Inactive)
    1  A    between atoms: N_28  and  C_30
                            x       y       z     vdW  Elec       q    Type
                         _______ _______ _______ _____ _____    ______ ____

>  <TORSDO>
F 1

$$$$
=
 OpenBabel11122412393D

 30 35  0  0  1  0  0  0  0  0999 V2000
  160.9650  204.8320  148.9190 C   0  0  0  0  0  0  0  0  0  0  0  0
  160.9850  202.3490  148.5530 C   0  0  2  0  0  3  0  0  0  0  0  0
  161.1570  204.6770  153.1360 C   0  0  0  0  0  2  0  0  0  0  0  0
  161.0970  206.0090  149.7240 C   0  0  0  0  0  0  0  0  0  0  0  0
  160.7420  204.9780  147.5880 N   0  0  0  0  0  0  0  0  0  0  0  0
  160.9370  208.4630  147.1770 O   0  0  0  0  0  0  0  0  0  0  0  0
  161.3110  208.9860  150.8930 C   0  0  1  0  0  3  0  0  0  0  0  0
  160.9250  207.3380  147.7500 C   0  0  0  0  0  0  0  0  0  0  0  0
  161.4580  208.1020  152.0230 N   0  0  0  0  0  0  0  0  0  0  0  0
  160.8330  206.1130  153.3650 C   0  0  0  0  0  0  0  0  0  0  0  0
  160.6680  206.1920  146.9950 C   0  0  0  0  0  0  0  0  0  0  0  0
  161.2030  207.2360  149.0890 N   0  0  0  0  0  0  0  0  0  0  0  0
  160.8000  201.0660  149.3230 C   0  0  0  0  0  3  0  0  0  0  0  0
  161.9980  208.8250  153.1190 C   0  0  0  0  0  3  0  0  0  0  0  0
  162.0020  210.2810  151.3210 C   0  0  0  0  0  2  0  0  0  0  0  0
  162.2670  202.2450  147.7450 C   0  0  0  0  0  1  0  0  0  0  0  0
  161.2710  204.5990  151.6900 N   0  0  0  0  0  0  0  0  0  0  0  0
  160.8820  201.0010  150.6540 C   0  0  0  0  0  3  0  0  0  0  0  0
  161.0240  203.5810  149.4410 C   0  0  0  0  0  0  0  0  0  0  0  0
  161.1230  205.8760  151.0790 C   0  0  0  0  0  0  0  0  0  0  0  0
  160.6210  206.5790  154.4730 O   0  0  0  0  0  0  0  0  0  0  0  0
  160.6690  206.8860  152.0880 C   0  0  2  0  0  3  0  0  0  0  0  0
  162.3230  210.0540  152.7630 C   0  0  0  0  0  3  0  0  0  0  0  0
  163.4310  208.0170  149.8480 C   0  0  0  0  0  1  0  0  0  0  0  0
  161.1040  202.2060  151.4670 C   0  0  0  0  0  3  0  0  0  0  0  0
  161.1720  203.4140  150.9030 C   0  0  0  0  0  0  0  0  0  0  0  0
  161.9560  208.3700  149.6600 C   0  0  2  0  0  3  0  0  0  0  0  0
  160.4000  206.2960  145.5940 N   0  0  0  0  0  2  0  0  0  0  0  0
  161.4680  204.4110  144.5110 C   0  0  0  0  0  1  0  0  0  0  0  0
  160.1590  205.1280  144.7650 C   0  0  0  0  0  2  0  0  0  0  0  0
  1 19  2  0  0  0  0
  1  4  1  0  0  0  0
  2 16  1  1  0  0  0
  2 13  1  0  0  0  0
  2 19  1  0  0  0  0
  3 10  1  0  0  0  0
  4 20  2  0  0  0  0
  5  1  1  0  0  0  0
  6  8  2  0  0  0  0
  7 15  1  1  0  0  0
  7  9  1  0  0  0  0
  8 12  1  0  0  0  0
  9 22  1  0  0  0  0
  9 14  1  0  0  0  0
 10 21  2  0  0  0  0
 11  5  2  0  0  0  0
 11  8  1  0  0  0  0
 12 27  1  0  0  0  0
 12  4  1  0  0  0  0
 13 18  2  0  0  0  0
 15 23  1  0  0  0  0
 17  3  1  0  0  0  0
 18 25  1  0  0  0  0
 19 26  1  0  0  0  0
 20 17  1  0  0  0  0
 22 20  1  6  0  0  0
 22 10  1  0  0  0  0
 23 14  2  0  0  0  0
 26 25  2  0  0  0  0
 26 17  1  0  0  0  0
 27 24  1  1  0  0  0
 27  7  1  0  0  0  0
 28 11  1  0  0  0  0
 29 30  1  0  0  0  0
 30 28  1  0  0  0  0
M  END
>  <MODEL>
6

>  <REMARK>
 VINA RESULT:      -4.4      1.932      5.820
  Name = 
  1 active torsions:
  status: ('A' for Active; 'I' for Inactive)
    1  A    between atoms: N_28  and  C_30
                            x       y       z     vdW  Elec       q    Type
                         _______ _______ _______ _____ _____    ______ ____

>  <TORSDO>
F 1

$$$$
=
 OpenBabel11122412393D

 30 35  0  0  1  0  0  0  0  0999 V2000
  161.2540  203.6800  147.4230 C   0  0  0  0  0  0  0  0  0  0  0  0
  160.9460  203.8910  144.9400 C   0  0  2  0  0  3  0  0  0  0  0  0
  161.5290  207.8220  148.2040 C   0  0  0  0  0  2  0  0  0  0  0  0
  161.3320  204.2060  148.7520 C   0  0  0  0  0  0  0  0  0  0  0  0
  161.3370  202.3360  147.2500 N   0  0  0  0  0  0  0  0  0  0  0  0
  161.4430  201.1640  150.5620 O   0  0  0  0  0  0  0  0  0  0  0  0
  161.5490  204.6830  151.9150 C   0  0  1  0  0  3  0  0  0  0  0  0
  161.4090  201.9740  149.5940 C   0  0  0  0  0  0  0  0  0  0  0  0
  161.4450  205.9920  151.3200 N   0  0  0  0  0  0  0  0  0  0  0  0
  162.0180  207.6890  149.6060 C   0  0  0  0  0  0  0  0  0  0  0  0
  161.4630  201.4790  148.2900 C   0  0  0  0  0  0  0  0  0  0  0  0
  161.2760  203.3200  149.8170 N   0  0  0  0  0  0  0  0  0  0  0  0
  161.0890  204.9120  143.8400 C   0  0  0  0  0  3  0  0  0  0  0  0
  161.1070  206.9390  152.3220 C   0  0  0  0  0  3  0  0  0  0  0  0
  161.0430  204.8650  153.3450 C   0  0  0  0  0  2  0  0  0  0  0  0
  159.5760  203.2440  144.8220 C   0  0  0  0  0  1  0  0  0  0  0  0
  161.2440  206.4470  147.8310 N   0  0  0  0  0  0  0  0  0  0  0  0
  161.1530  206.2250  144.0740 C   0  0  0  0  0  3  0  0  0  0  0  0
  161.1310  204.4760  146.3300 C   0  0  0  0  0  0  0  0  0  0  0  0
  161.4480  205.5520  148.9190 C   0  0  0  0  0  0  0  0  0  0  0  0
  162.4000  208.6390  150.2690 O   0  0  0  0  0  0  0  0  0  0  0  0
  162.1120  206.2610  150.0590 C   0  0  2  0  0  3  0  0  0  0  0  0
  160.8680  206.3440  153.4750 C   0  0  0  0  0  3  0  0  0  0  0  0
  159.2380  204.0770  151.0090 C   0  0  0  0  0  1  0  0  0  0  0  0
  161.1460  206.7600  145.4440 C   0  0  0  0  0  3  0  0  0  0  0  0
  161.1350  205.9440  146.5010 C   0  0  0  0  0  0  0  0  0  0  0  0
  160.7090  203.6840  151.1310 C   0  0  2  0  0  3  0  0  0  0  0  0
  161.5780  200.0730  148.0550 N   0  0  0  0  0  2  0  0  0  0  0  0
  160.4780  200.1040  145.8970 C   0  0  0  0  0  1  0  0  0  0  0  0
  161.6060  199.5120  146.7150 C   0  0  0  0  0  2  0  0  0  0  0  0
  1  4  1  0  0  0  0
  2 16  1  1  0  0  0
  2 19  1  0  0  0  0
  3 10  1  0  0  0  0
  4 20  2  0  0  0  0
  4 12  1  0  0  0  0
  5  1  1  0  0  0  0
  5 11  2  0  0  0  0
  7 15  1  1  0  0  0
  8 12  1  0  0  0  0
  8  6  2  0  0  0  0
  9  7  1  0  0  0  0
  9 14  1  0  0  0  0
 10 22  1  0  0  0  0
 10 21  2  0  0  0  0
 11  8  1  0  0  0  0
 12 27  1  0  0  0  0
 13 18  2  0  0  0  0
 13  2  1  0  0  0  0
 14 23  2  0  0  0  0
 15 23  1  0  0  0  0
 17  3  1  0  0  0  0
 17 20  1  0  0  0  0
 18 25  1  0  0  0  0
 19 26  1  0  0  0  0
 19  1  2  0  0  0  0
 22 20  1  6  0  0  0
 22  9  1  0  0  0  0
 25 26  2  0  0  0  0
 26 17  1  0  0  0  0
 27 24  1  6  0  0  0
 27  7  1  0  0  0  0
 28 11  1  0  0  0  0
 29 30  1  0  0  0  0
 30 28  1  0  0  0  0
M  END
>  <MODEL>
7

>  <REMARK>
 VINA RESULT:      -4.2      2.315      7.497
  Name = 
  1 active torsions:
  status: ('A' for Active; 'I' for Inactive)
    1  A    between atoms: N_28  and  C_30
                            x       y       z     vdW  Elec       q    Type
                         _______ _______ _______ _____ _____    ______ ____

>  <TORSDO>
F 1

$$$$
=
 OpenBabel11122412393D

 30 35  0  0  1  0  0  0  0  0999 V2000
  160.9890  210.6010  151.2150 C   0  0  0  0  0  0  0  0  0  0  0  0
  161.7980  210.6360  148.8380 C   0  0  2  0  0  3  0  0  0  0  0  0
  161.9760  206.5660  151.9770 C   0  0  0  0  0  2  0  0  0  0  0  0
  160.8490  210.0100  152.5110 C   0  0  0  0  0  0  0  0  0  0  0  0
  160.4950  211.8490  151.0140 N   0  0  0  0  0  0  0  0  0  0  0  0
  159.4000  212.7440  154.2320 O   0  0  0  0  0  0  0  0  0  0  0  0
  160.2300  209.3210  155.5800 C   0  0  1  0  0  3  0  0  0  0  0  0
  159.8790  212.0430  153.2970 C   0  0  0  0  0  0  0  0  0  0  0  0
  160.8730  208.1530  155.0310 N   0  0  0  0  0  0  0  0  0  0  0  0
  161.2230  206.4550  153.2580 C   0  0  0  0  0  0  0  0  0  0  0  0
  159.9020  212.5610  152.0010 C   0  0  0  0  0  0  0  0  0  0  0  0
  160.4110  210.8070  153.5570 N   0  0  0  0  0  0  0  0  0  0  0  0
  162.2080  209.6840  147.7430 C   0  0  0  0  0  3  0  0  0  0  0  0
  161.3180  207.3190  156.0900 C   0  0  0  0  0  3  0  0  0  0  0  0
  160.4970  209.2410  157.0830 C   0  0  0  0  0  2  0  0  0  0  0  0
  162.8700  211.7030  148.9760 C   0  0  0  0  0  1  0  0  0  0  0  0
  161.8480  207.9750  151.6490 N   0  0  0  0  0  0  0  0  0  0  0  0
  162.5450  208.4130  147.9760 C   0  0  0  0  0  3  0  0  0  0  0  0
  161.5690  209.9500  150.1740 C   0  0  0  0  0  0  0  0  0  0  0  0
  161.1620  208.6940  152.6680 C   0  0  0  0  0  0  0  0  0  0  0  0
  161.0660  205.3990  153.8480 O   0  0  0  0  0  0  0  0  0  0  0  0
  160.5770  207.7470  153.6690 C   0  0  2  0  0  3  0  0  0  0  0  0
  161.1300  207.8980  157.2610 C   0  0  0  0  0  3  0  0  0  0  0  0
  162.3300  210.7030  155.1230 C   0  0  0  0  0  1  0  0  0  0  0  0
  162.4800  207.8390  149.3280 C   0  0  0  0  0  3  0  0  0  0  0  0
  162.0250  208.5560  150.3590 C   0  0  0  0  0  0  0  0  0  0  0  0
  160.8160  210.5810  154.9590 C   0  0  2  0  0  3  0  0  0  0  0  0
  159.3690  213.8600  151.7320 N   0  0  0  0  0  2  0  0  0  0  0  0
  158.0460  214.2860  149.7490 C   0  0  0  0  0  1  0  0  0  0  0  0
  159.4000  214.4500  150.4050 C   0  0  0  0  0  2  0  0  0  0  0  0
  1  4  1  0  0  0  0
  2 16  1  1  0  0  0
  2 19  1  0  0  0  0
  3 10  1  0  0  0  0
  4 20  2  0  0  0  0
  4 12  1  0  0  0  0
  5  1  1  0  0  0  0
  5 11  2  0  0  0  0
  7 15  1  1  0  0  0
  8 12  1  0  0  0  0
  8  6  2  0  0  0  0
  9  7  1  0  0  0  0
  9 14  1  0  0  0  0
 10 22  1  0  0  0  0
 10 21  2  0  0  0  0
 11  8  1  0  0  0  0
 12 27  1  0  0  0  0
 13 18  2  0  0  0  0
 13  2  1  0  0  0  0
 14 23  2  0  0  0  0
 15 23  1  0  0  0  0
 17  3  1  0  0  0  0
 17 20  1  0  0  0  0
 18 25  1  0  0  0  0
 19 26  1  0  0  0  0
 19  1  2  0  0  0  0
 22 20  1  6  0  0  0
 22  9  1  0  0  0  0
 25 26  2  0  0  0  0
 26 17  1  0  0  0  0
 27 24  1  6  0  0  0
 27  7  1  0  0  0  0
 28 11  1  0  0  0  0
 29 30  1  0  0  0  0
 30 28  1  0  0  0  0
M  END
>  <MODEL>
8

>  <REMARK>
 VINA RESULT:      -3.9      2.920      6.069
  Name = 
  1 active torsions:
  status: ('A' for Active; 'I' for Inactive)
    1  A    between atoms: N_28  and  C_30
                            x       y       z     vdW  Elec       q    Type
                         _______ _______ _______ _____ _____    ______ ____

>  <TORSDO>
F 1

$$$$
=
 OpenBabel11122412393D

 30 35  0  0  1  0  0  0  0  0999 V2000
  160.6410  209.0930  153.3100 C   0  0  0  0  0  0  0  0  0  0  0  0
  160.3400  208.5310  155.7380 C   0  0  0  0  0  0  0  0  0  0  0  0
  159.4940  213.1450  153.6310 C   0  0  0  0  0  2  0  0  0  0  0  0
  160.7210  210.0020  152.2060 C   0  0  0  0  0  0  0  0  0  0  0  0
  160.8680  207.7750  153.0820 N   0  0  0  0  0  0  0  0  0  0  0  0
  161.7850  207.7500  149.6890 O   0  0  0  0  0  0  0  0  0  0  0  0
  161.0800  211.4410  149.3650 C   0  0  1  0  0  3  0  0  0  0  0  0
  161.4010  208.1920  150.8080 C   0  0  0  0  0  0  0  0  0  0  0  0
  160.7150  212.4810  150.2950 N   0  0  0  0  0  0  0  0  0  0  0  0
  159.3710  213.3950  152.1670 C   0  0  0  0  0  0  0  0  0  0  0  0
  161.1940  207.2960  151.8590 C   0  0  0  0  0  0  0  0  0  0  0  0
  161.2310  209.5380  151.0030 N   0  0  0  0  0  0  0  0  0  0  0  0
  159.7060  209.0940  156.9840 C   0  0  0  0  0  3  0  0  0  0  0  0
  161.0090  213.7470  149.7250 C   0  0  0  0  0  3  0  0  0  0  0  0
  161.8200  212.1680  148.2410 C   0  0  0  0  0  2  0  0  0  0  0  0
  161.7700  208.1340  156.0610 C   0  0  0  0  0  1  0  0  0  0  0  0
  160.0320  211.7980  153.6840 N   0  0  0  0  0  0  0  0  0  0  0  0
  159.3610  210.3790  157.1050 C   0  0  0  0  0  3  0  0  0  0  0  0
  160.3180  209.4960  154.5650 C   0  0  0  0  0  0  0  0  0  0  0  0
  160.3050  211.2870  152.3840 C   0  0  0  0  0  0  0  0  0  0  0  0
  158.9120  214.4260  151.7040 O   0  0  0  0  0  0  0  0  0  0  0  0
  159.7450  212.2000  151.3380 C   0  0  2  0  0  3  0  0  0  0  0  0
  161.6360  213.6140  148.5710 C   0  0  0  0  0  3  0  0  0  0  0  0
  163.2160  210.9910  150.6910 C   0  0  0  0  0  1  0  0  0  0  0  0
  159.5280  211.3240  155.9920 C   0  0  0  0  0  3  0  0  0  0  0  0
  159.9760  210.9150  154.8030 C   0  0  2  0  0  3  0  0  0  0  0  0
  161.9560  210.4060  150.0550 C   0  0  2  0  0  3  0  0  0  0  0  0
  161.3930  205.8940  151.6620 N   0  0  0  0  0  2  0  0  0  0  0  0
  160.8320  203.5890  152.1490 C   0  0  0  0  0  1  0  0  0  0  0  0
  161.2200  204.9300  152.7350 C   0  0  0  0  0  2  0  0  0  0  0  0
  1 19  2  0  0  0  0
  2 16  1  0  0  0  0
  2 13  2  0  0  0  0
  3 17  1  0  0  0  0
  4 20  2  0  0  0  0
  4  1  1  0  0  0  0
  5  1  1  0  0  0  0
  6  8  2  0  0  0  0
  7 15  1  6  0  0  0
  7 27  1  0  0  0  0
  7  9  1  0  0  0  0
  8 12  1  0  0  0  0
  8 11  1  0  0  0  0
  9 22  1  0  0  0  0
 10  3  1  0  0  0  0
 11  5  2  0  0  0  0
 12  4  1  0  0  0  0
 13 18  1  0  0  0  0
 14  9  1  0  0  0  0
 15 23  1  0  0  0  0
 17 26  1  0  0  0  0
 19 26  1  0  0  0  0
 19  2  1  0  0  0  0
 20 17  1  0  0  0  0
 21 10  2  0  0  0  0
 22 10  1  1  0  0  0
 22 20  1  0  0  0  0
 23 14  2  0  0  0  0
 25 18  2  0  0  0  0
 26 25  1  6  0  0  0
 27 24  1  1  0  0  0
 27 12  1  0  0  0  0
 28 11  1  0  0  0  0
 28 30  1  0  0  0  0
 29 30  1  0  0  0  0
M  END
>  <MODEL>
9

>  <REMARK>
 VINA RESULT:      -3.7      2.485      6.588
  Name = 
  1 active torsions:
  status: ('A' for Active; 'I' for Inactive)
    1  A    between atoms: N_28  and  C_30
                            x       y       z     vdW  Elec       q    Type
                         _______ _______ _______ _____ _____    ______ ____

>  <TORSDO>
F 1

$$$$
