=
 OpenBabel11122414153D

 34 41  0  0  1  0  0  0  0  0999 V2000
  160.9000  204.5430  151.4210 C   0  0  0  0  0  0  0  0  0  0  0  0
  160.8070  206.1260  153.4490 C   0  0  0  0  0  2  0  0  0  0  0  0
  160.9540  203.5970  145.0600 C   0  0  0  0  0  0  0  0  0  0  0  0
  161.1000  203.2050  149.3840 C   0  0  0  0  0  0  0  0  0  0  0  0
  161.5780  204.3410  147.2860 C   0  0  0  0  0  0  0  0  0  0  0  0
  161.5840  205.5060  145.1160 C   0  0  0  0  0  2  0  0  0  0  0  0
  160.6750  204.7910  144.2990 O   0  0  0  0  0  0  0  0  0  0  0  0
  160.9340  201.4570  146.0890 C   0  0  0  0  0  3  0  0  0  0  0  0
  161.1800  207.0120  151.2920 C   0  0  0  0  0  0  0  0  0  0  0  0
  162.0020  210.1050  150.7330 C   0  0  0  0  0  2  0  0  0  0  0  0
  161.6110  205.5250  147.9590 N   0  0  0  0  0  0  0  0  0  0  0  0
  161.2950  201.7850  147.3420 C   0  0  0  0  0  3  0  0  0  0  0  0
  161.4060  206.9580  149.9590 C   0  0  0  0  0  0  0  0  0  0  0  0
  161.1380  207.6180  153.5850 C   0  0  0  0  0  2  0  0  0  0  0  0
  161.3170  203.1320  147.9890 C   0  0  0  0  0  0  0  0  0  0  0  0
  160.5040  202.3890  145.0910 N   0  0  0  0  0  0  0  0  0  0  0  0
  162.3090  209.1580  151.9000 C   0  0  2  0  0  3  0  0  0  0  0  0
  161.1200  204.4570  150.0340 C   0  0  0  0  0  0  0  0  0  0  0  0
  161.9750  204.3310  145.8390 C   0  0  2  0  0  3  0  0  0  0  0  0
  161.3750  205.6260  149.2930 C   0  0  0  0  0  0  0  0  0  0  0  0
  160.6350  202.1410  151.5280 C   0  0  0  0  0  3  0  0  0  0  0  0
  161.2050  209.4640  149.5950 C   0  0  0  0  0  2  0  0  0  0  0  0
  160.8530  202.0520  150.1500 C   0  0  0  0  0  3  0  0  0  0  0  0
  161.8370  208.1540  149.1430 C   0  0  0  0  0  2  0  0  0  0  0  0
  161.1290  208.2170  152.1680 C   0  0  1  0  0  3  0  0  0  0  0  0
  160.6580  203.3830  152.1650 C   0  0  0  0  0  3  0  0  0  0  0  0
  160.9360  205.8350  152.0360 N   0  0  0  0  0  0  0  0  0  0  0  0
  162.6090  209.9240  153.0320 O   0  0  0  0  0  0  0  0  0  0  0  0
  161.4870  210.7330  153.2250 C   0  0  0  0  0  2  0  0  0  0  0  0
  160.5680  210.0840  156.6030 O   0  0  0  0  0  0  0  0  0  0  0  0
  162.5650  210.6180  155.4560 C   0  0  0  0  0  2  0  0  0  0  0  0
  161.4060  211.1660  154.6770 C   0  0  2  0  0  3  0  0  0  0  0  0
  161.9190  209.7250  156.4890 C   0  0  0  0  0  2  0  0  0  0  0  0
  160.1990  210.5310  155.3260 C   0  0  0  0  0  2  0  0  0  0  0  0
  1 27  1  0  0  0  0
  1 26  1  0  0  0  0
  2 14  1  0  0  0  0
  3 16  2  0  0  0  0
  3 19  1  0  0  0  0
  4 18  1  0  0  0  0
  4 23  2  0  0  0  0
  5 11  1  0  0  0  0
  5 15  2  0  0  0  0
  7  3  1  0  0  0  0
  7  6  1  0  0  0  0
  8 12  2  0  0  0  0
  9 27  1  0  0  0  0
  9 25  1  0  0  0  0
 10 17  1  0  0  0  0
 11 20  2  0  0  0  0
 12 15  1  0  0  0  0
 13  9  2  0  0  0  0
 15  4  1  0  0  0  0
 16  8  1  0  0  0  0
 17 25  1  0  0  0  0
 17 28  1  1  0  0  0
 18  1  2  0  0  0  0
 19  6  1  6  0  0  0
 19  5  1  0  0  0  0
 20 13  1  0  0  0  0
 20 18  1  0  0  0  0
 21 26  2  0  0  0  0
 22 10  1  0  0  0  0
 23 21  1  0  0  0  0
 24 22  1  0  0  0  0
 24 13  1  0  0  0  0
 25 14  1  1  0  0  0
 27  2  1  0  0  0  0
 28 29  1  0  0  0  0
 31 33  1  0  0  0  0
 32 29  1  6  0  0  0
 32 34  1  0  0  0  0
 32 31  1  0  0  0  0
 33 30  1  0  0  0  0
 34 30  1  0  0  0  0
M  END
>  <MODEL>
1

>  <REMARK>
 VINA RESULT:     -10.5      0.000      0.000
  Name = 
  3 active torsions:
  status: ('A' for Active; 'I' for Inactive)
    1  A    between atoms: C_17  and  O_28
    2  A    between atoms: O_28  and  C_29
    3  A    between atoms: C_29  and  C_32
                            x       y       z     vdW  Elec       q    Type
                         _______ _______ _______ _____ _____    ______ ____

>  <TORSDO>
F 3

$$$$
=
 OpenBabel11122414153D

 34 41  0  0  1  0  0  0  0  0999 V2000
  161.7650  207.1230  148.9170 C   0  0  0  0  0  0  0  0  0  0  0  0
  162.1020  209.2940  150.2600 C   0  0  0  0  0  2  0  0  0  0  0  0
  161.1030  200.7310  148.6890 C   0  0  0  0  0  0  0  0  0  0  0  0
  161.3300  204.9820  147.8210 C   0  0  0  0  0  0  0  0  0  0  0  0
  160.7120  203.0730  149.1970 C   0  0  0  0  0  0  0  0  0  0  0  0
  160.5570  201.0520  150.5980 C   0  0  0  0  0  2  0  0  0  0  0  0
  161.3600  200.0810  149.9520 O   0  0  0  0  0  0  0  0  0  0  0  0
  161.1310  201.5150  146.4480 C   0  0  0  0  0  3  0  0  0  0  0  0
  161.5720  207.2900  151.3910 C   0  0  0  0  0  0  0  0  0  0  0  0
  160.8270  207.1490  154.5510 C   0  0  0  0  0  2  0  0  0  0  0  0
  160.7860  203.8710  150.3000 N   0  0  0  0  0  0  0  0  0  0  0  0
  160.8960  202.8240  146.6440 C   0  0  0  0  0  3  0  0  0  0  0  0
  161.2270  205.9860  151.4940 C   0  0  0  0  0  0  0  0  0  0  0  0
  161.8440  209.6210  151.7360 C   0  0  0  0  0  2  0  0  0  0  0  0
  160.9870  203.6130  147.9100 C   0  0  0  0  0  0  0  0  0  0  0  0
  161.5060  200.5890  147.4730 N   0  0  0  0  0  0  0  0  0  0  0  0
  160.5890  208.2300  153.4890 C   0  0  2  0  0  3  0  0  0  0  0  0
  161.4180  205.7620  148.9930 C   0  0  0  0  0  0  0  0  0  0  0  0
  160.1870  201.6760  149.3610 C   0  0  2  0  0  3  0  0  0  0  0  0
  161.1440  205.1790  150.2440 C   0  0  0  0  0  0  0  0  0  0  0  0
  161.9420  206.9440  146.5110 C   0  0  0  0  0  3  0  0  0  0  0  0
  161.4930  205.8790  154.0170 C   0  0  0  0  0  2  0  0  0  0  0  0
  161.5980  205.5910  146.5830 C   0  0  0  0  0  3  0  0  0  0  0  0
  160.7720  205.3490  152.7860 C   0  0  0  0  0  2  0  0  0  0  0  0
  161.7500  208.2830  152.4890 C   0  0  1  0  0  3  0  0  0  0  0  0
  162.0260  207.7110  147.6750 C   0  0  0  0  0  3  0  0  0  0  0  0
  161.8350  207.8760  150.1320 N   0  0  0  0  0  0  0  0  0  0  0  0
  160.4220  209.4610  154.1320 O   0  0  0  0  0  0  0  0  0  0  0  0
  160.1640  209.1360  155.4660 C   0  0  0  0  0  2  0  0  0  0  0  0
  163.0960  210.0680  157.2590 O   0  0  0  0  0  0  0  0  0  0  0  0
  161.7440  211.0450  155.5840 C   0  0  0  0  0  2  0  0  0  0  0  0
  160.9020  210.0950  156.3830 C   0  0  2  0  0  3  0  0  0  0  0  0
  163.1550  210.7460  156.0330 C   0  0  0  0  0  2  0  0  0  0  0  0
  161.9060  209.3290  157.2110 C   0  0  0  0  0  2  0  0  0  0  0  0
  1 18  1  0  0  0  0
  1 27  1  0  0  0  0
  2 14  1  0  0  0  0
  3 19  1  0  0  0  0
  3  7  1  0  0  0  0
  4 15  2  0  0  0  0
  4 18  1  0  0  0  0
  5 19  1  0  0  0  0
  5 11  2  0  0  0  0
  7  6  1  0  0  0  0
  8 12  2  0  0  0  0
  8 16  1  0  0  0  0
  9 13  2  0  0  0  0
  9 25  1  0  0  0  0
 12 15  1  0  0  0  0
 13 24  1  0  0  0  0
 15  5  1  0  0  0  0
 16  3  2  0  0  0  0
 17 28  1  1  0  0  0
 17 10  1  0  0  0  0
 18 20  2  0  0  0  0
 19  6  1  1  0  0  0
 20 11  1  0  0  0  0
 20 13  1  0  0  0  0
 21 23  2  0  0  0  0
 21 26  1  0  0  0  0
 22 10  1  0  0  0  0
 23  4  1  0  0  0  0
 24 22  1  0  0  0  0
 25 14  1  6  0  0  0
 25 17  1  0  0  0  0
 26  1  2  0  0  0  0
 27  2  1  0  0  0  0
 27  9  1  0  0  0  0
 28 29  1  0  0  0  0
 31 33  1  0  0  0  0
 31 32  1  0  0  0  0
 32 29  1  6  0  0  0
 32 34  1  0  0  0  0
 33 30  1  0  0  0  0
 34 30  1  0  0  0  0
M  END
>  <MODEL>
2

>  <REMARK>
 VINA RESULT:      -9.5      1.940      3.769
  Name = 
  3 active torsions:
  status: ('A' for Active; 'I' for Inactive)
    1  A    between atoms: C_17  and  O_28
    2  A    between atoms: O_28  and  C_29
    3  A    between atoms: C_29  and  C_32
                            x       y       z     vdW  Elec       q    Type
                         _______ _______ _______ _____ _____    ______ ____

>  <TORSDO>
F 3

$$$$
=
 OpenBabel11122414153D

 34 41  0  0  1  0  0  0  0  0999 V2000
  161.7970  206.9680  148.4770 C   0  0  0  0  0  0  0  0  0  0  0  0
  162.1670  209.2610  149.5890 C   0  0  0  0  0  2  0  0  0  0  0  0
  161.1120  200.5880  148.9050 C   0  0  0  0  0  0  0  0  0  0  0  0
  161.3340  204.7300  147.6110 C   0  0  0  0  0  0  0  0  0  0  0  0
  160.7380  202.9720  149.1830 C   0  0  0  0  0  0  0  0  0  0  0  0
  160.6040  201.1020  150.7820 C   0  0  0  0  0  2  0  0  0  0  0  0
  161.3910  200.0670  150.2210 O   0  0  0  0  0  0  0  0  0  0  0  0
  161.0980  201.1440  146.5960 C   0  0  0  0  0  3  0  0  0  0  0  0
  161.6530  207.3840  150.9260 C   0  0  0  0  0  0  0  0  0  0  0  0
  160.9690  207.5640  154.0970 C   0  0  0  0  0  2  0  0  0  0  0  0
  160.8350  203.8760  150.1980 N   0  0  0  0  0  0  0  0  0  0  0  0
  160.8710  202.4670  146.6650 C   0  0  0  0  0  3  0  0  0  0  0  0
  161.3060  206.0980  151.1650 C   0  0  0  0  0  0  0  0  0  0  0  0
  161.9390  209.7360  151.0300 C   0  0  0  0  0  2  0  0  0  0  0  0
  160.9890  203.3790  147.8430 C   0  0  0  0  0  0  0  0  0  0  0  0
  161.4900  200.3230  147.7010 N   0  0  0  0  0  0  0  0  0  0  0  0
  160.7140  208.5340  152.9370 C   0  0  2  0  0  3  0  0  0  0  0  0
  161.4480  205.6230  148.6960 C   0  0  0  0  0  0  0  0  0  0  0  0
  160.2110  201.6020  149.4960 C   0  0  2  0  0  3  0  0  0  0  0  0
  161.1970  205.1700  150.0040 C   0  0  0  0  0  0  0  0  0  0  0  0
  161.9270  206.5480  146.0980 C   0  0  0  0  0  3  0  0  0  0  0  0
  161.6210  206.2430  153.6810 C   0  0  0  0  0  2  0  0  0  0  0  0
  161.5810  205.2110  146.3120 C   0  0  0  0  0  3  0  0  0  0  0  0
  160.8740  205.5960  152.5230 C   0  0  0  0  0  2  0  0  0  0  0  0
  161.8550  208.4810  151.9140 C   0  0  1  0  0  3  0  0  0  0  0  0
  162.0360  207.4270  147.1770 C   0  0  0  0  0  3  0  0  0  0  0  0
  161.8940  207.8390  149.6090 N   0  0  0  0  0  0  0  0  0  0  0  0
  160.5630  209.8250  153.4560 O   0  0  0  0  0  0  0  0  0  0  0  0
  161.2460  209.8020  154.6740 C   0  0  0  0  0  2  0  0  0  0  0  0
  158.8850  212.3790  155.3580 O   0  0  0  0  0  0  0  0  0  0  0  0
  159.4400  210.2850  156.3060 C   0  0  0  0  0  2  0  0  0  0  0  0
  160.6550  210.8350  155.6170 C   0  0  2  0  0  3  0  0  0  0  0  0
  158.3210  211.1920  155.8480 C   0  0  0  0  0  2  0  0  0  0  0  0
  160.1230  212.0010  154.8180 C   0  0  0  0  0  2  0  0  0  0  0  0
  1 18  1  0  0  0  0
  1 27  1  0  0  0  0
  2 27  1  0  0  0  0
  2 14  1  0  0  0  0
  3 19  1  0  0  0  0
  3  7  1  0  0  0  0
  4 15  2  0  0  0  0
  4 18  1  0  0  0  0
  5 19  1  0  0  0  0
  5 11  2  0  0  0  0
  7  6  1  0  0  0  0
  8 12  2  0  0  0  0
  8 16  1  0  0  0  0
  9 13  2  0  0  0  0
  9 25  1  0  0  0  0
 12 15  1  0  0  0  0
 13 24  1  0  0  0  0
 15  5  1  0  0  0  0
 16  3  2  0  0  0  0
 17 28  1  1  0  0  0
 17 10  1  0  0  0  0
 18 20  2  0  0  0  0
 19  6  1  1  0  0  0
 20 11  1  0  0  0  0
 20 13  1  0  0  0  0
 21 23  2  0  0  0  0
 21 26  1  0  0  0  0
 22 10  1  0  0  0  0
 23  4  1  0  0  0  0
 24 22  1  0  0  0  0
 25 14  1  6  0  0  0
 25 17  1  0  0  0  0
 26  1  2  0  0  0  0
 27  9  1  0  0  0  0
 28 29  1  0  0  0  0
 30 33  1  0  0  0  0
 32 29  1  6  0  0  0
 32 31  1  0  0  0  0
 33 31  1  0  0  0  0
 34 30  1  0  0  0  0
 34 32  1  0  0  0  0
M  END
>  <MODEL>
3

>  <REMARK>
 VINA RESULT:      -9.3      2.010      3.830
  Name = 
  3 active torsions:
  status: ('A' for Active; 'I' for Inactive)
    1  A    between atoms: C_17  and  O_28
    2  A    between atoms: O_28  and  C_29
    3  A    between atoms: C_29  and  C_32
                            x       y       z     vdW  Elec       q    Type
                         _______ _______ _______ _____ _____    ______ ____

>  <TORSDO>
F 3

$$$$
=
 OpenBabel11122414153D

 34 41  0  0  1  0  0  0  0  0999 V2000
  161.8790  206.8660  148.0620 C   0  0  0  0  0  0  0  0  0  0  0  0
  162.2650  209.2370  148.9890 C   0  0  0  0  0  2  0  0  0  0  0  0
  161.1180  200.5490  148.9940 C   0  0  0  0  0  0  0  0  0  0  0  0
  161.3980  204.5700  147.3730 C   0  0  0  0  0  0  0  0  0  0  0  0
  160.7690  202.9510  149.0760 C   0  0  0  0  0  0  0  0  0  0  0  0
  160.6010  201.2170  150.8190 C   0  0  0  0  0  2  0  0  0  0  0  0
  161.3810  200.1320  150.3500 O   0  0  0  0  0  0  0  0  0  0  0  0
  161.1300  200.9170  146.6480 C   0  0  0  0  0  3  0  0  0  0  0  0
  161.7190  207.4780  150.4670 C   0  0  0  0  0  0  0  0  0  0  0  0
  161.0110  207.9200  153.6080 C   0  0  0  0  0  2  0  0  0  0  0  0
  160.8680  203.9320  150.0160 N   0  0  0  0  0  0  0  0  0  0  0  0
  160.9180  202.2440  146.6080 C   0  0  0  0  0  3  0  0  0  0  0  0
  161.3550  206.2190  150.8060 C   0  0  0  0  0  0  0  0  0  0  0  0
  162.0300  209.8280  150.3850 C   0  0  0  0  0  2  0  0  0  0  0  0
  161.0360  203.2460  147.7100 C   0  0  0  0  0  0  0  0  0  0  0  0
  161.5040  200.1840  147.8190 N   0  0  0  0  0  0  0  0  0  0  0  0
  160.7760  208.7970  152.3710 C   0  0  2  0  0  3  0  0  0  0  0  0
  161.5130  205.5470  148.3850 C   0  0  0  0  0  0  0  0  0  0  0  0
  160.2240  201.6150  149.4930 C   0  0  2  0  0  3  0  0  0  0  0  0
  161.2460  205.2030  149.7220 C   0  0  0  0  0  0  0  0  0  0  0  0
  162.0240  206.2540  145.7250 C   0  0  0  0  0  3  0  0  0  0  0  0
  161.6510  206.5630  153.3050 C   0  0  0  0  0  2  0  0  0  0  0  0
  161.6610  204.9430  146.0430 C   0  0  0  0  0  3  0  0  0  0  0  0
  160.9070  205.8330  152.1960 C   0  0  0  0  0  2  0  0  0  0  0  0
  161.9250  208.6490  151.3670 C   0  0  1  0  0  3  0  0  0  0  0  0
  162.1340  207.2170  146.7320 C   0  0  0  0  0  3  0  0  0  0  0  0
  161.9760  207.8240  149.1210 N   0  0  0  0  0  0  0  0  0  0  0  0
  160.6360  210.1260  152.7830 O   0  0  0  0  0  0  0  0  0  0  0  0
  160.2760  210.0460  154.1310 C   0  0  0  0  0  2  0  0  0  0  0  0
  159.1610  213.3930  154.6160 O   0  0  0  0  0  0  0  0  0  0  0  0
  158.6190  211.6140  153.1560 C   0  0  0  0  0  2  0  0  0  0  0  0
  159.1660  211.0370  154.4290 C   0  0  2  0  0  3  0  0  0  0  0  0
  158.9170  213.0910  153.2690 C   0  0  0  0  0  2  0  0  0  0  0  0
  159.7380  212.2330  155.1530 C   0  0  0  0  0  2  0  0  0  0  0  0
  1 18  1  0  0  0  0
  1 27  1  0  0  0  0
  2 27  1  0  0  0  0
  2 14  1  0  0  0  0
  3 19  1  0  0  0  0
  3  7  1  0  0  0  0
  4 15  2  0  0  0  0
  4 18  1  0  0  0  0
  5 19  1  0  0  0  0
  5 11  2  0  0  0  0
  7  6  1  0  0  0  0
  8 16  1  0  0  0  0
  9 13  2  0  0  0  0
  9 25  1  0  0  0  0
 12  8  2  0  0  0  0
 12 15  1  0  0  0  0
 13 24  1  0  0  0  0
 15  5  1  0  0  0  0
 16  3  2  0  0  0  0
 17 28  1  1  0  0  0
 17 10  1  0  0  0  0
 18 20  2  0  0  0  0
 19  6  1  1  0  0  0
 20 11  1  0  0  0  0
 20 13  1  0  0  0  0
 21 23  2  0  0  0  0
 21 26  1  0  0  0  0
 22 10  1  0  0  0  0
 23  4  1  0  0  0  0
 24 22  1  0  0  0  0
 25 14  1  6  0  0  0
 25 17  1  0  0  0  0
 26  1  2  0  0  0  0
 27  9  1  0  0  0  0
 28 29  1  0  0  0  0
 30 34  1  0  0  0  0
 31 33  1  0  0  0  0
 31 32  1  0  0  0  0
 32 29  1  6  0  0  0
 32 34  1  0  0  0  0
 33 30  1  0  0  0  0
M  END
>  <MODEL>
4

>  <REMARK>
 VINA RESULT:      -9.1      2.175      4.002
  Name = 
  3 active torsions:
  status: ('A' for Active; 'I' for Inactive)
    1  A    between atoms: C_17  and  O_28
    2  A    between atoms: O_28  and  C_29
    3  A    between atoms: C_29  and  C_32
                            x       y       z     vdW  Elec       q    Type
                         _______ _______ _______ _____ _____    ______ ____

>  <TORSDO>
F 3

$$$$
=
 OpenBabel11122414153D

 34 41  0  0  1  0  0  0  0  0999 V2000
  161.6190  208.3690  149.6100 C   0  0  0  0  0  0  0  0  0  0  0  0
  161.6450  207.0140  147.4220 C   0  0  0  0  0  2  0  0  0  0  0  0
  160.1740  208.8840  155.8560 C   0  0  0  0  0  0  0  0  0  0  0  0
  161.6200  209.4590  151.7990 C   0  0  0  0  0  0  0  0  0  0  0  0
  161.1520  208.1130  153.7710 C   0  0  0  0  0  0  0  0  0  0  0  0
  160.2230  206.8800  155.6920 C   0  0  0  0  0  2  0  0  0  0  0  0
  159.3670  207.7960  156.3510 O   0  0  0  0  0  0  0  0  0  0  0  0
  161.0520  210.9790  155.1620 C   0  0  0  0  0  3  0  0  0  0  0  0
  161.1370  205.9340  149.4590 C   0  0  0  0  0  0  0  0  0  0  0  0
  160.8530  202.7110  149.7670 C   0  0  0  0  0  2  0  0  0  0  0  0
  161.0310  207.0180  152.9690 N   0  0  0  0  0  0  0  0  0  0  0  0
  161.6370  210.6270  154.0040 C   0  0  0  0  0  3  0  0  0  0  0  0
  160.9890  205.8370  150.8010 C   0  0  0  0  0  0  0  0  0  0  0  0
  161.5610  205.5030  147.1660 C   0  0  0  0  0  2  0  0  0  0  0  0
  161.4520  209.3810  153.2000 C   0  0  0  0  0  0  0  0  0  0  0  0
  160.1150  210.1720  155.8830 N   0  0  0  0  0  0  0  0  0  0  0  0
  161.7280  203.5810  148.8550 C   0  0  2  0  0  3  0  0  0  0  0  0
  161.4610  208.3030  151.0070 C   0  0  0  0  0  0  0  0  0  0  0  0
  161.1180  207.9150  155.2590 C   0  0  2  0  0  3  0  0  0  0  0  0
  161.1560  207.0730  151.6180 C   0  0  0  0  0  0  0  0  0  0  0  0
  162.0920  210.7360  149.7770 C   0  0  0  0  0  3  0  0  0  0  0  0
  159.9890  203.5030  150.7510 C   0  0  0  0  0  2  0  0  0  0  0  0
  161.9350  210.6740  151.1640 C   0  0  0  0  0  3  0  0  0  0  0  0
  160.8170  204.5220  151.5230 C   0  0  0  0  0  2  0  0  0  0  0  0
  160.9890  204.8570  148.4380 C   0  0  1  0  0  3  0  0  0  0  0  0
  161.9350  209.5870  148.9990 C   0  0  0  0  0  3  0  0  0  0  0  0
  161.4550  207.1690  148.8490 N   0  0  0  0  0  0  0  0  0  0  0  0
  162.1000  202.8260  147.7380 O   0  0  0  0  0  0  0  0  0  0  0  0
  160.9610  202.0840  147.4130 C   0  0  0  0  0  2  0  0  0  0  0  0
  159.1880  202.4230  144.3440 O   0  0  0  0  0  0  0  0  0  0  0  0
  161.2640  203.1610  145.1990 C   0  0  0  0  0  2  0  0  0  0  0  0
  160.8780  201.8970  145.9090 C   0  0  2  0  0  3  0  0  0  0  0  0
  160.0150  203.5510  144.4440 C   0  0  0  0  0  2  0  0  0  0  0  0
  159.4390  201.6800  145.5060 C   0  0  0  0  0  2  0  0  0  0  0  0
  1 18  1  0  0  0  0
  2 27  1  0  0  0  0
  3 16  2  0  0  0  0
  3  7  1  0  0  0  0
  4 15  1  0  0  0  0
  5 19  1  0  0  0  0
  6  7  1  0  0  0  0
  8 16  1  0  0  0  0
  9 13  2  0  0  0  0
 10 22  1  0  0  0  0
 11  5  1  0  0  0  0
 12  8  2  0  0  0  0
 13 24  1  0  0  0  0
 13 20  1  0  0  0  0
 14  2  1  0  0  0  0
 15  5  2  0  0  0  0
 15 12  1  0  0  0  0
 17 28  1  6  0  0  0
 17 10  1  0  0  0  0
 18 20  1  0  0  0  0
 18  4  2  0  0  0  0
 19  6  1  6  0  0  0
 19  3  1  0  0  0  0
 20 11  2  0  0  0  0
 21 23  2  0  0  0  0
 22 24  1  0  0  0  0
 23  4  1  0  0  0  0
 25 14  1  6  0  0  0
 25 17  1  0  0  0  0
 25  9  1  0  0  0  0
 26  1  2  0  0  0  0
 26 21  1  0  0  0  0
 27  9  1  0  0  0  0
 27  1  1  0  0  0  0
 29 28  1  0  0  0  0
 30 33  1  0  0  0  0
 30 34  1  0  0  0  0
 31 32  1  0  0  0  0
 32 29  1  1  0  0  0
 33 31  1  0  0  0  0
 34 32  1  0  0  0  0
M  END
>  <MODEL>
5

>  <REMARK>
 VINA RESULT:      -8.9      1.882      9.083
  Name = 
  3 active torsions:
  status: ('A' for Active; 'I' for Inactive)
    1  A    between atoms: C_17  and  O_28
    2  A    between atoms: O_28  and  C_29
    3  A    between atoms: C_29  and  C_32
                            x       y       z     vdW  Elec       q    Type
                         _______ _______ _______ _____ _____    ______ ____

>  <TORSDO>
F 3

$$$$
=
 OpenBabel11122414153D

 34 41  0  0  1  0  0  0  0  0999 V2000
  161.7870  207.7280  149.5370 C   0  0  0  0  0  0  0  0  0  0  0  0
  162.1110  209.9360  150.8230 C   0  0  0  0  0  2  0  0  0  0  0  0
  161.1820  201.3260  149.4750 C   0  0  0  0  0  0  0  0  0  0  0  0
  161.3670  205.5560  148.4980 C   0  0  0  0  0  0  0  0  0  0  0  0
  160.7720  203.6780  149.9250 C   0  0  0  0  0  0  0  0  0  0  0  0
  160.6420  201.6910  151.3780 C   0  0  0  0  0  2  0  0  0  0  0  0
  161.4500  200.7110  150.7520 O   0  0  0  0  0  0  0  0  0  0  0  0
  161.1930  202.0540  147.2140 C   0  0  0  0  0  3  0  0  0  0  0  0
  161.6040  207.9570  152.0080 C   0  0  0  0  0  0  0  0  0  0  0  0
  160.8730  207.8890  155.1730 C   0  0  0  0  0  2  0  0  0  0  0  0
  160.8440  204.5040  151.0070 N   0  0  0  0  0  0  0  0  0  0  0  0
  160.9480  203.3650  147.3790 C   0  0  0  0  0  3  0  0  0  0  0  0
  161.2700  206.6520  152.1450 C   0  0  0  0  0  0  0  0  0  0  0  0
  161.8560  210.2980  152.2920 C   0  0  0  0  0  2  0  0  0  0  0  0
  161.0360  204.1870  148.6240 C   0  0  0  0  0  0  0  0  0  0  0  0
  161.5810  201.1570  148.2610 N   0  0  0  0  0  0  0  0  0  0  0  0
  160.6210  208.9410  154.0850 C   0  0  2  0  0  3  0  0  0  0  0  0
  161.4530  206.3670  149.6490 C   0  0  0  0  0  0  0  0  0  0  0  0
  160.2600  202.2810  150.1270 C   0  0  2  0  0  3  0  0  0  0  0  0
  161.1900  205.8130  150.9160 C   0  0  0  0  0  0  0  0  0  0  0  0
  161.9560  207.4900  147.1360 C   0  0  0  0  0  3  0  0  0  0  0  0
  161.5490  206.6120  154.6690 C   0  0  0  0  0  2  0  0  0  0  0  0
  161.6250  206.1360  147.2440 C   0  0  0  0  0  3  0  0  0  0  0  0
  160.8260  206.0440  153.4550 C   0  0  0  0  0  2  0  0  0  0  0  0
  161.7770  208.9790  153.0790 C   0  0  1  0  0  3  0  0  0  0  0  0
  162.0380  208.2870  148.2790 C   0  0  0  0  0  3  0  0  0  0  0  0
  161.8560  208.5130  150.7330 N   0  0  0  0  0  0  0  0  0  0  0  0
  160.4460  210.1860  154.6970 O   0  0  0  0  0  0  0  0  0  0  0  0
  159.2350  210.0780  155.3870 C   0  0  0  0  0  2  0  0  0  0  0  0
  157.2730  213.0260  155.7630 O   0  0  0  0  0  0  0  0  0  0  0  0
  158.9440  212.2740  154.2690 C   0  0  0  0  0  2  0  0  0  0  0  0
  158.2350  211.0780  154.8340 C   0  0  2  0  0  3  0  0  0  0  0  0
  158.4550  213.4220  155.1210 C   0  0  0  0  0  2  0  0  0  0  0  0
  157.4120  211.6450  155.9660 C   0  0  0  0  0  2  0  0  0  0  0  0
  1 18  1  0  0  0  0
  1 27  1  0  0  0  0
  2 14  1  0  0  0  0
  3 19  1  0  0  0  0
  3  7  1  0  0  0  0
  4 15  2  0  0  0  0
  4 18  1  0  0  0  0
  5 19  1  0  0  0  0
  5 11  2  0  0  0  0
  7  6  1  0  0  0  0
  8 12  2  0  0  0  0
  8 16  1  0  0  0  0
  9 13  2  0  0  0  0
  9 25  1  0  0  0  0
 12 15  1  0  0  0  0
 13 24  1  0  0  0  0
 15  5  1  0  0  0  0
 16  3  2  0  0  0  0
 17 28  1  1  0  0  0
 17 10  1  0  0  0  0
 18 20  2  0  0  0  0
 19  6  1  1  0  0  0
 20 11  1  0  0  0  0
 20 13  1  0  0  0  0
 21 23  2  0  0  0  0
 21 26  1  0  0  0  0
 22 10  1  0  0  0  0
 23  4  1  0  0  0  0
 24 22  1  0  0  0  0
 25 14  1  6  0  0  0
 25 17  1  0  0  0  0
 26  1  2  0  0  0  0
 27  2  1  0  0  0  0
 27  9  1  0  0  0  0
 28 29  1  0  0  0  0
 30 34  1  0  0  0  0
 31 32  1  0  0  0  0
 31 33  1  0  0  0  0
 32 29  1  1  0  0  0
 32 34  1  0  0  0  0
 33 30  1  0  0  0  0
M  END
>  <MODEL>
6

>  <REMARK>
 VINA RESULT:      -8.6      2.220      4.164
  Name = 
  3 active torsions:
  status: ('A' for Active; 'I' for Inactive)
    1  A    between atoms: C_17  and  O_28
    2  A    between atoms: O_28  and  C_29
    3  A    between atoms: C_29  and  C_32
                            x       y       z     vdW  Elec       q    Type
                         _______ _______ _______ _____ _____    ______ ____

>  <TORSDO>
F 3

$$$$
