=
 OpenBabel11122412383D

 30 35  0  0  1  0  0  0  0  0999 V2000
  161.5430  208.5720  151.7030 C   0  0  0  0  0  0  0  0  0  0  0  0
  161.3520  209.4670  154.0310 C   0  0  0  0  0  0  0  0  0  0  0  0
  160.8210  204.7370  153.0070 N   0  0  0  0  0  2  0  0  0  0  0  0
  161.4700  207.4700  150.7970 C   0  0  0  0  0  0  0  0  0  0  0  0
  161.8190  209.8050  151.2060 N   0  0  0  0  0  0  0  0  0  0  0  0
  161.9470  209.1920  147.7420 O   0  0  0  0  0  0  0  0  0  0  0  0
  162.2010  205.5400  148.4840 C   0  0  1  0  0  3  0  0  0  0  0  0
  161.8320  208.9740  148.9820 C   0  0  0  0  0  0  0  0  0  0  0  0
  161.8900  204.4840  149.5280 C   0  0  2  0  0  3  0  0  0  0  0  0
  161.0190  204.1170  151.8260 C   0  0  0  0  0  0  0  0  0  0  0  0
  161.9850  210.0300  149.8840 C   0  0  0  0  0  0  0  0  0  0  0  0
  161.5440  207.7160  149.4440 N   0  0  0  0  0  0  0  0  0  0  0  0
  161.0970  209.2340  155.3860 C   0  0  0  0  0  3  0  0  0  0  0  0
  161.0370  203.4500  148.8230 C   0  0  0  0  0  2  0  0  0  0  0  0
  162.1740  204.8090  147.1510 C   0  0  0  0  0  2  0  0  0  0  0  0
  161.6440  210.7680  153.6390 O   0  0  0  0  0  1  0  0  0  0  0  0
  160.9890  206.0320  152.6940 C   0  0  0  0  0  0  0  0  0  0  0  0
  160.8000  207.9520  155.8450 C   0  0  0  0  0  3  0  0  0  0  0  0
  161.3090  208.3950  153.1000 C   0  0  0  0  0  0  0  0  0  0  0  0
  161.2540  206.1850  151.3550 C   0  0  0  0  0  0  0  0  0  0  0  0
  161.0070  202.8600  151.7190 O   0  0  0  0  0  0  0  0  0  0  0  0
  161.2850  204.9510  150.7860 N   0  0  0  0  0  0  0  0  0  0  0  0
  161.5280  203.4520  147.3910 C   0  0  0  0  0  2  0  0  0  0  0  0
  159.7370  206.3340  148.4580 C   0  0  0  0  0  1  0  0  0  0  0  0
  160.7550  206.8850  154.9500 C   0  0  0  0  0  3  0  0  0  0  0  0
  161.0030  207.0970  153.5890 C   0  0  0  0  0  0  0  0  0  0  0  0
  161.2190  206.7020  148.4430 C   0  0  2  0  0  3  0  0  0  0  0  0
  162.3210  211.4080  149.4160 C   0  0  0  0  0  2  0  0  0  0  0  0
  161.0900  212.6890  147.9120 C   0  0  0  0  0  1  0  0  0  0  0  0
  161.1050  212.1870  149.2720 N   0  0  0  0  0  2  0  0  0  0  0  0
  1 19  1  0  0  0  0
  2 13  1  0  0  0  0
  4 20  1  0  0  0  0
  4  1  2  0  0  0  0
  5  1  1  0  0  0  0
  6  8  2  0  0  0  0
  7 15  1  6  0  0  0
  7  9  1  0  0  0  0
  8 12  1  0  0  0  0
  8 11  1  0  0  0  0
  9 14  1  6  0  0  0
  9 22  1  0  0  0  0
 10  3  1  0  0  0  0
 11  5  2  0  0  0  0
 12  4  1  0  0  0  0
 13 18  2  0  0  0  0
 15 23  1  0  0  0  0
 16  2  1  0  0  0  0
 17  3  1  0  0  0  0
 17 26  1  0  0  0  0
 19 26  1  0  0  0  0
 19  2  2  0  0  0  0
 20 17  2  0  0  0  0
 21 10  2  0  0  0  0
 22 20  1  0  0  0  0
 22 10  1  0  0  0  0
 23 14  1  0  0  0  0
 25 18  1  0  0  0  0
 26 25  2  0  0  0  0
 27 24  1  1  0  0  0
 27  7  1  0  0  0  0
 27 12  1  0  0  0  0
 28 11  1  0  0  0  0
 29 30  1  0  0  0  0
 30 28  1  0  0  0  0
M  END
>  <MODEL>
1

>  <REMARK>
 VINA RESULT:      -7.6      0.000      0.000
  Name = 
  2 active torsions:
  status: ('A' for Active; 'I' for Inactive)
    1  A    between atoms: C_11  and  C_28
    2  A    between atoms: C_28  and  N_30
                            x       y       z     vdW  Elec       q    Type
                         _______ _______ _______ _____ _____    ______ ____

>  <TORSDO>
F 2

$$$$
=
 OpenBabel11122412383D

 30 35  0  0  1  0  0  0  0  0999 V2000
  161.1780  205.6580  149.8040 C   0  0  0  0  0  0  0  0  0  0  0  0
  161.1490  203.1710  149.5410 C   0  0  0  0  0  0  0  0  0  0  0  0
  160.9770  205.3310  153.9010 N   0  0  0  0  0  2  0  0  0  0  0  0
  161.1960  206.8070  150.6530 C   0  0  0  0  0  0  0  0  0  0  0  0
  161.2120  205.8430  148.4600 N   0  0  0  0  0  0  0  0  0  0  0  0
  161.5350  209.3380  148.2030 O   0  0  0  0  0  0  0  0  0  0  0  0
  160.5110  209.6110  151.7850 C   0  0  1  0  0  3  0  0  0  0  0  0
  161.4080  208.1940  148.7250 C   0  0  0  0  0  0  0  0  0  0  0  0
  160.4540  208.8510  153.0980 C   0  0  2  0  0  3  0  0  0  0  0  0
  160.8630  206.6470  154.1710 C   0  0  0  0  0  0  0  0  0  0  0  0
  161.3040  207.0700  147.9010 C   0  0  0  0  0  0  0  0  0  0  0  0
  161.3860  208.0480  150.0880 N   0  0  0  0  0  0  0  0  0  0  0  0
  161.1360  201.9040  150.1340 C   0  0  0  0  0  3  0  0  0  0  0  0
  161.2090  209.7040  154.0960 C   0  0  0  0  0  2  0  0  0  0  0  0
  160.6200  211.0770  152.1720 C   0  0  0  0  0  2  0  0  0  0  0  0
  161.1640  203.2390  148.1530 O   0  0  0  0  0  1  0  0  0  0  0  0
  161.0980  205.3110  152.5640 C   0  0  0  0  0  0  0  0  0  0  0  0
  161.1200  201.7670  151.5200 C   0  0  0  0  0  3  0  0  0  0  0  0
  161.1470  204.3390  150.3500 C   0  0  0  0  0  0  0  0  0  0  0  0
  161.0840  206.5840  152.0490 C   0  0  0  0  0  0  0  0  0  0  0  0
  160.6650  207.0780  155.3390 O   0  0  0  0  0  0  0  0  0  0  0  0
  160.9220  207.4560  153.0790 N   0  0  0  0  0  0  0  0  0  0  0  0
  160.9630  211.1300  153.6540 C   0  0  0  0  0  2  0  0  0  0  0  0
  163.0490  209.1550  151.5560 C   0  0  0  0  0  1  0  0  0  0  0  0
  161.1150  202.8990  152.3320 C   0  0  0  0  0  3  0  0  0  0  0  0
  161.1320  204.1760  151.7610 C   0  0  0  0  0  0  0  0  0  0  0  0
  161.6800  209.2370  150.8850 C   0  0  2  0  0  3  0  0  0  0  0  0
  161.3020  207.1950  146.4130 C   0  0  0  0  0  2  0  0  0  0  0  0
  161.0770  205.5470  144.7840 C   0  0  0  0  0  1  0  0  0  0  0  0
  160.3690  206.2410  145.8430 N   0  0  0  0  0  2  0  0  0  0  0  0
  1 19  2  0  0  0  0
  1  4  1  0  0  0  0
  2 13  2  0  0  0  0
  2 19  1  0  0  0  0
  3 10  1  0  0  0  0
  4 20  2  0  0  0  0
  5  1  1  0  0  0  0
  6  8  2  0  0  0  0
  7 15  1  1  0  0  0
  7  9  1  0  0  0  0
  8 12  1  0  0  0  0
  9 14  1  1  0  0  0
 10 21  2  0  0  0  0
 11  5  2  0  0  0  0
 11  8  1  0  0  0  0
 12  4  1  0  0  0  0
 12 27  1  0  0  0  0
 13 18  1  0  0  0  0
 15 23  1  0  0  0  0
 16  2  1  0  0  0  0
 17  3  1  0  0  0  0
 18 25  2  0  0  0  0
 19 26  1  0  0  0  0
 20 17  1  0  0  0  0
 20 22  1  0  0  0  0
 22  9  1  0  0  0  0
 22 10  1  0  0  0  0
 23 14  1  0  0  0  0
 26 25  1  0  0  0  0
 26 17  2  0  0  0  0
 27 24  1  1  0  0  0
 27  7  1  0  0  0  0
 28 11  1  0  0  0  0
 29 30  1  0  0  0  0
 30 28  1  0  0  0  0
M  END
>  <MODEL>
2

>  <REMARK>
 VINA RESULT:      -7.4      2.026      5.557
  Name = 
  2 active torsions:
  status: ('A' for Active; 'I' for Inactive)
    1  A    between atoms: C_11  and  C_28
    2  A    between atoms: C_28  and  N_30
                            x       y       z     vdW  Elec       q    Type
                         _______ _______ _______ _____ _____    ______ ____

>  <TORSDO>
F 2

$$$$
=
 OpenBabel11122412383D

 30 35  0  0  1  0  0  0  0  0999 V2000
  161.3390  208.1140  151.5780 C   0  0  0  0  0  0  0  0  0  0  0  0
  161.6810  210.5190  150.9810 C   0  0  0  0  0  0  0  0  0  0  0  0
  161.7980  206.9670  147.6530 N   0  0  0  0  0  2  0  0  0  0  0  0
  161.2920  206.7420  151.1850 C   0  0  0  0  0  0  0  0  0  0  0  0
  161.1450  208.4220  152.8860 N   0  0  0  0  0  0  0  0  0  0  0  0
  160.8460  205.2390  154.3580 O   0  0  0  0  0  0  0  0  0  0  0  0
  160.3290  203.8040  150.9480 C   0  0  1  0  0  3  0  0  0  0  0  0
  160.9870  206.1260  153.4690 C   0  0  0  0  0  0  0  0  0  0  0  0
  160.5910  204.0440  149.4720 C   0  0  2  0  0  3  0  0  0  0  0  0
  161.5110  205.6600  147.8250 C   0  0  0  0  0  0  0  0  0  0  0  0
  160.9500  207.4750  153.8310 C   0  0  0  0  0  0  0  0  0  0  0  0
  161.1900  205.7740  152.1590 N   0  0  0  0  0  0  0  0  0  0  0  0
  161.9640  211.4820  150.0080 C   0  0  0  0  0  3  0  0  0  0  0  0
  161.3340  202.8170  148.9850 C   0  0  0  0  0  2  0  0  0  0  0  0
  160.2520  202.2940  151.1040 C   0  0  0  0  0  2  0  0  0  0  0  0
  161.4800  210.9530  152.2860 O   0  0  0  0  0  1  0  0  0  0  0  0
  161.7230  207.4530  148.9030 C   0  0  0  0  0  0  0  0  0  0  0  0
  162.1740  211.1140  148.6810 C   0  0  0  0  0  3  0  0  0  0  0  0
  161.6060  209.1450  150.6280 C   0  0  0  0  0  0  0  0  0  0  0  0
  161.4240  206.4590  149.8020 C   0  0  0  0  0  0  0  0  0  0  0  0
  161.4180  204.8620  146.8530 O   0  0  0  0  0  0  0  0  0  0  0  0
  161.2750  205.2970  149.1130 N   0  0  0  0  0  0  0  0  0  0  0  0
  160.7950  201.6770  149.8230 C   0  0  0  0  0  2  0  0  0  0  0  0
  162.8460  204.0500  151.5020 C   0  0  0  0  0  1  0  0  0  0  0  0
  162.1020  209.7720  148.3110 C   0  0  0  0  0  3  0  0  0  0  0  0
  161.8250  208.7910  149.2700 C   0  0  0  0  0  0  0  0  0  0  0  0
  161.3990  204.3550  151.8800 C   0  0  2  0  0  3  0  0  0  0  0  0
  160.7090  207.8940  155.2440 C   0  0  0  0  0  2  0  0  0  0  0  0
  162.0410  208.8620  156.8900 C   0  0  0  0  0  1  0  0  0  0  0  0
  161.5140  209.0610  155.5530 N   0  0  0  0  0  2  0  0  0  0  0  0
  1  5  1  0  0  0  0
  2 16  1  0  0  0  0
  3 10  1  0  0  0  0
  3 17  1  0  0  0  0
  4  1  1  0  0  0  0
  4 12  1  0  0  0  0
  5 11  2  0  0  0  0
  7 15  1  6  0  0  0
  7 27  1  0  0  0  0
  8 11  1  0  0  0  0
  8  6  2  0  0  0  0
  9 14  1  1  0  0  0
  9  7  1  0  0  0  0
 10 22  1  0  0  0  0
 11 28  1  0  0  0  0
 12  8  1  0  0  0  0
 13  2  2  0  0  0  0
 14 23  1  0  0  0  0
 17 26  2  0  0  0  0
 17 20  1  0  0  0  0
 18 13  1  0  0  0  0
 19  2  1  0  0  0  0
 19  1  2  0  0  0  0
 20  4  2  0  0  0  0
 21 10  2  0  0  0  0
 22  9  1  0  0  0  0
 22 20  1  0  0  0  0
 23 15  1  0  0  0  0
 25 18  2  0  0  0  0
 25 26  1  0  0  0  0
 26 19  1  0  0  0  0
 27 24  1  6  0  0  0
 27 12  1  0  0  0  0
 28 30  1  0  0  0  0
 30 29  1  0  0  0  0
M  END
>  <MODEL>
3

>  <REMARK>
 VINA RESULT:      -6.7      1.878      4.876
  Name = 
  2 active torsions:
  status: ('A' for Active; 'I' for Inactive)
    1  A    between atoms: C_11  and  C_28
    2  A    between atoms: C_28  and  N_30
                            x       y       z     vdW  Elec       q    Type
                         _______ _______ _______ _____ _____    ______ ____

>  <TORSDO>
F 2

$$$$
=
 OpenBabel11122412383D

 30 35  0  0  1  0  0  0  0  0999 V2000
  161.3520  207.8470  150.6980 C   0  0  0  0  0  0  0  0  0  0  0  0
  161.4670  205.6870  149.4420 C   0  0  0  0  0  0  0  0  0  0  0  0
  160.7980  205.8640  154.2610 N   0  0  0  0  0  2  0  0  0  0  0  0
  161.2380  208.5460  151.9390 C   0  0  0  0  0  0  0  0  0  0  0  0
  161.4990  208.5670  149.5570 N   0  0  0  0  0  0  0  0  0  0  0  0
  161.6740  211.8620  150.7830 O   0  0  0  0  0  0  0  0  0  0  0  0
  160.3190  210.6320  154.0400 C   0  0  1  0  0  3  0  0  0  0  0  0
  161.5560  210.6040  150.7760 C   0  0  0  0  0  0  0  0  0  0  0  0
  160.1810  209.4000  154.9150 C   0  0  2  0  0  3  0  0  0  0  0  0
  160.5980  206.9530  155.0310 C   0  0  0  0  0  0  0  0  0  0  0  0
  161.5810  209.9160  149.5600 C   0  0  0  0  0  0  0  0  0  0  0  0
  161.4180  209.9110  151.9510 N   0  0  0  0  0  0  0  0  0  0  0  0
  161.4620  204.2890  149.4620 C   0  0  0  0  0  3  0  0  0  0  0  0
  160.8010  209.7730  156.2460 C   0  0  0  0  0  2  0  0  0  0  0  0
  160.3220  211.8110  155.0000 C   0  0  0  0  0  2  0  0  0  0  0  0
  161.6030  206.3190  148.2110 O   0  0  0  0  0  1  0  0  0  0  0  0
  161.0400  206.3960  153.0520 C   0  0  0  0  0  0  0  0  0  0  0  0
  161.3270  203.5940  150.6620 C   0  0  0  0  0  3  0  0  0  0  0  0
  161.3360  206.4200  150.6510 C   0  0  0  0  0  0  0  0  0  0  0  0
  161.0110  207.7690  153.1020 C   0  0  0  0  0  0  0  0  0  0  0  0
  160.2740  206.8640  156.2460 O   0  0  0  0  0  0  0  0  0  0  0  0
  160.7150  208.1390  154.3770 N   0  0  0  0  0  0  0  0  0  0  0  0
  160.5270  211.2530  156.4010 C   0  0  0  0  0  2  0  0  0  0  0  0
  162.8870  210.3280  153.9050 C   0  0  0  0  0  1  0  0  0  0  0  0
  161.1940  204.2920  151.8600 C   0  0  0  0  0  3  0  0  0  0  0  0
  161.2020  205.6920  151.8640 C   0  0  0  0  0  0  0  0  0  0  0  0
  161.5810  210.6690  153.1900 C   0  0  2  0  0  3  0  0  0  0  0  0
  161.7070  210.6420  148.2610 C   0  0  0  0  0  2  0  0  0  0  0  0
  162.6130  212.6510  147.5100 C   0  0  0  0  0  1  0  0  0  0  0  0
  162.9130  211.4500  148.2660 N   0  0  0  0  0  2  0  0  0  0  0  0
  1  4  1  0  0  0  0
  2 13  2  0  0  0  0
  2 19  1  0  0  0  0
  3 10  1  0  0  0  0
  4 12  1  0  0  0  0
  4 20  2  0  0  0  0
  5 11  2  0  0  0  0
  5  1  1  0  0  0  0
  7  9  1  0  0  0  0
  7 15  1  1  0  0  0
  8  6  2  0  0  0  0
  8 12  1  0  0  0  0
  9 14  1  1  0  0  0
 10 21  2  0  0  0  0
 11  8  1  0  0  0  0
 12 27  1  0  0  0  0
 13 18  1  0  0  0  0
 14 23  1  0  0  0  0
 15 23  1  0  0  0  0
 16  2  1  0  0  0  0
 17 20  1  0  0  0  0
 17  3  1  0  0  0  0
 18 25  2  0  0  0  0
 19  1  2  0  0  0  0
 19 26  1  0  0  0  0
 20 22  1  0  0  0  0
 22  9  1  0  0  0  0
 22 10  1  0  0  0  0
 25 26  1  0  0  0  0
 26 17  2  0  0  0  0
 27 24  1  1  0  0  0
 27  7  1  0  0  0  0
 28 30  1  0  0  0  0
 28 11  1  0  0  0  0
 29 30  1  0  0  0  0
M  END
>  <MODEL>
4

>  <REMARK>
 VINA RESULT:      -6.1      1.819      5.550
  Name = 
  2 active torsions:
  status: ('A' for Active; 'I' for Inactive)
    1  A    between atoms: C_11  and  C_28
    2  A    between atoms: C_28  and  N_30
                            x       y       z     vdW  Elec       q    Type
                         _______ _______ _______ _____ _____    ______ ____

>  <TORSDO>
F 2

$$$$
=
 OpenBabel11122412383D

 30 35  0  0  1  0  0  0  0  0999 V2000
  161.4580  206.2290  150.3720 C   0  0  0  0  0  0  0  0  0  0  0  0
  161.1990  205.5100  152.7540 C   0  0  0  0  0  0  0  0  0  0  0  0
  160.8260  202.3890  149.0350 N   0  0  0  0  0  2  0  0  0  0  0  0
  161.4340  205.9110  148.9790 C   0  0  0  0  0  0  0  0  0  0  0  0
  161.7060  207.5110  150.7410 N   0  0  0  0  0  0  0  0  0  0  0  0
  161.9160  209.1480  147.6320 O   0  0  0  0  0  0  0  0  0  0  0  0
  162.2630  205.8090  145.9940 C   0  0  1  0  0  3  0  0  0  0  0  0
  161.7840  208.2160  148.4750 C   0  0  0  0  0  0  0  0  0  0  0  0
  161.9640  204.3310  146.1640 C   0  0  2  0  0  3  0  0  0  0  0  0
  161.0630  202.6240  147.7280 C   0  0  0  0  0  0  0  0  0  0  0  0
  161.8900  208.5010  149.8390 C   0  0  0  0  0  0  0  0  0  0  0  0
  161.5260  206.9340  148.0620 N   0  0  0  0  0  0  0  0  0  0  0  0
  160.9260  204.4930  153.6740 C   0  0  0  0  0  3  0  0  0  0  0  0
  161.1550  203.9350  144.9470 C   0  0  0  0  0  2  0  0  0  0  0  0
  162.2810  206.0460  144.4920 C   0  0  0  0  0  2  0  0  0  0  0  0
  161.4600  206.7830  153.2480 O   0  0  0  0  0  1  0  0  0  0  0  0
  160.9610  203.6070  149.5850 C   0  0  0  0  0  0  0  0  0  0  0  0
  160.6590  203.1960  153.2440 C   0  0  0  0  0  3  0  0  0  0  0  0
  161.2040  205.2310  151.3610 C   0  0  0  0  0  0  0  0  0  0  0  0
  161.2460  204.5510  148.6280 C   0  0  0  0  0  0  0  0  0  0  0  0
  161.0900  201.6960  146.8750 O   0  0  0  0  0  0  0  0  0  0  0  0
  161.3240  203.9230  147.4250 N   0  0  0  0  0  0  0  0  0  0  0  0
  161.6720  204.8180  143.8310 C   0  0  0  0  0  2  0  0  0  0  0  0
  159.7770  206.4220  146.3800 C   0  0  0  0  0  1  0  0  0  0  0  0
  160.6620  202.8990  151.8830 C   0  0  0  0  0  3  0  0  0  0  0  0
  160.9270  203.9020  150.9430 C   0  0  0  0  0  0  0  0  0  0  0  0
  161.2480  206.7410  146.6400 C   0  0  2  0  0  3  0  0  0  0  0  0
  162.1940  209.8810  150.3220 C   0  0  0  0  0  2  0  0  0  0  0  0
  161.0260  210.6250  152.1940 C   0  0  0  0  0  1  0  0  0  0  0  0
  162.2090  209.8990  151.7730 N   0  0  0  0  0  2  0  0  0  0  0  0
  1  5  1  0  0  0  0
  1 19  1  0  0  0  0
  2 16  1  0  0  0  0
  2 13  1  0  0  0  0
  3 17  1  0  0  0  0
  4  1  2  0  0  0  0
  6  8  2  0  0  0  0
  7 15  1  6  0  0  0
  7  9  1  0  0  0  0
  7 27  1  0  0  0  0
  8 11  1  0  0  0  0
  9 14  1  6  0  0  0
  9 22  1  0  0  0  0
 10  3  1  0  0  0  0
 11 28  1  0  0  0  0
 11  5  2  0  0  0  0
 12  8  1  0  0  0  0
 12  4  1  0  0  0  0
 17 26  1  0  0  0  0
 18 13  2  0  0  0  0
 19  2  2  0  0  0  0
 20  4  1  0  0  0  0
 20 17  2  0  0  0  0
 21 10  2  0  0  0  0
 22 10  1  0  0  0  0
 22 20  1  0  0  0  0
 23 15  1  0  0  0  0
 23 14  1  0  0  0  0
 25 18  1  0  0  0  0
 26 19  1  0  0  0  0
 26 25  2  0  0  0  0
 27 24  1  1  0  0  0
 27 12  1  0  0  0  0
 28 30  1  0  0  0  0
 30 29  1  0  0  0  0
M  END
>  <MODEL>
5

>  <REMARK>
 VINA RESULT:      -5.5      2.265      3.527
  Name = 
  2 active torsions:
  status: ('A' for Active; 'I' for Inactive)
    1  A    between atoms: C_11  and  C_28
    2  A    between atoms: C_28  and  N_30
                            x       y       z     vdW  Elec       q    Type
                         _______ _______ _______ _____ _____    ______ ____

>  <TORSDO>
F 2

$$$$
=
 OpenBabel11122412383D

 30 35  0  0  1  0  0  0  0  0999 V2000
  161.6290  206.4680  148.3210 C   0  0  0  0  0  0  0  0  0  0  0  0
  161.6160  205.3060  146.1060 C   0  0  0  0  0  0  0  0  0  0  0  0
  160.8220  202.9450  150.2900 N   0  0  0  0  0  2  0  0  0  0  0  0
  161.5320  206.4060  149.7460 C   0  0  0  0  0  0  0  0  0  0  0  0
  161.8630  207.6700  147.7370 N   0  0  0  0  0  0  0  0  0  0  0  0
  162.2540  209.7820  150.5260 O   0  0  0  0  0  0  0  0  0  0  0  0
  160.7150  207.1210  152.6490 C   0  0  1  0  0  3  0  0  0  0  0  0
  162.0400  208.7340  149.8520 C   0  0  0  0  0  0  0  0  0  0  0  0
  160.4580  205.6280  152.7360 C   0  0  2  0  0  3  0  0  0  0  0  0
  160.6830  203.4700  151.5250 C   0  0  0  0  0  0  0  0  0  0  0  0
  162.0490  208.7990  148.4570 C   0  0  0  0  0  0  0  0  0  0  0  0
  161.8160  207.5360  150.4800 N   0  0  0  0  0  0  0  0  0  0  0  0
  161.5030  204.1170  145.3790 C   0  0  0  0  0  3  0  0  0  0  0  0
  161.0650  205.1850  154.0510 C   0  0  0  0  0  2  0  0  0  0  0  0
  160.7800  207.6040  154.0900 C   0  0  0  0  0  2  0  0  0  0  0  0
  161.8350  206.4820  145.3990 O   0  0  0  0  0  1  0  0  0  0  0  0
  161.1390  204.0180  149.5460 C   0  0  0  0  0  0  0  0  0  0  0  0
  161.2810  202.9040  146.0260 C   0  0  0  0  0  3  0  0  0  0  0  0
  161.5060  205.2910  147.5230 C   0  0  0  0  0  0  0  0  0  0  0  0
  161.2130  205.1500  150.3200 C   0  0  0  0  0  0  0  0  0  0  0  0
  160.3180  202.7740  152.5110 O   0  0  0  0  0  0  0  0  0  0  0  0
  160.9100  204.8080  151.6000 N   0  0  0  0  0  0  0  0  0  0  0  0
  160.9010  206.3720  154.9750 C   0  0  0  0  0  2  0  0  0  0  0  0
  163.2550  206.7310  152.3320 C   0  0  0  0  0  1  0  0  0  0  0  0
  161.1670  202.8660  147.4150 C   0  0  0  0  0  3  0  0  0  0  0  0
  161.2810  204.0430  148.1630 C   0  0  0  0  0  0  0  0  0  0  0  0
  162.0000  207.5030  151.9290 C   0  0  2  0  0  3  0  0  0  0  0  0
  162.2670  210.0920  147.7410 C   0  0  0  0  0  2  0  0  0  0  0  0
  161.8990  212.3500  148.1710 C   0  0  0  0  0  1  0  0  0  0  0  0
  161.2550  211.0510  148.1430 N   0  0  0  0  0  2  0  0  0  0  0  0
  1  4  1  0  0  0  0
  2 19  1  0  0  0  0
  3 10  1  0  0  0  0
  4 20  2  0  0  0  0
  4 12  1  0  0  0  0
  5  1  1  0  0  0  0
  5 11  2  0  0  0  0
  7  9  1  0  0  0  0
  7 15  1  1  0  0  0
  8 12  1  0  0  0  0
  8  6  2  0  0  0  0
  9 14  1  1  0  0  0
 10 22  1  0  0  0  0
 10 21  2  0  0  0  0
 11  8  1  0  0  0  0
 12 27  1  0  0  0  0
 13 18  1  0  0  0  0
 13  2  2  0  0  0  0
 14 23  1  0  0  0  0
 15 23  1  0  0  0  0
 16  2  1  0  0  0  0
 17  3  1  0  0  0  0
 17 20  1  0  0  0  0
 18 25  2  0  0  0  0
 19 26  1  0  0  0  0
 19  1  2  0  0  0  0
 20 22  1  0  0  0  0
 22  9  1  0  0  0  0
 25 26  1  0  0  0  0
 26 17  2  0  0  0  0
 27 24  1  6  0  0  0
 27  7  1  0  0  0  0
 28 30  1  0  0  0  0
 28 11  1  0  0  0  0
 30 29  1  0  0  0  0
M  END
>  <MODEL>
6

>  <REMARK>
 VINA RESULT:      -5.0      1.488      5.431
  Name = 
  2 active torsions:
  status: ('A' for Active; 'I' for Inactive)
    1  A    between atoms: C_11  and  C_28
    2  A    between atoms: C_28  and  N_30
                            x       y       z     vdW  Elec       q    Type
                         _______ _______ _______ _____ _____    ______ ____

>  <TORSDO>
F 2

$$$$
=
 OpenBabel11122412383D

 30 35  0  0  1  0  0  0  0  0999 V2000
  161.2690  203.9650  148.4620 C   0  0  0  0  0  0  0  0  0  0  0  0
  160.8050  201.5920  149.1000 C   0  0  0  0  0  0  0  0  0  0  0  0
  161.2020  205.1460  152.4040 N   0  0  0  0  0  2  0  0  0  0  0  0
  161.5210  205.3180  148.8480 C   0  0  0  0  0  0  0  0  0  0  0  0
  161.2730  203.6550  147.1410 N   0  0  0  0  0  0  0  0  0  0  0  0
  162.1740  206.7200  145.6640 O   0  0  0  0  0  0  0  0  0  0  0  0
  161.3770  208.4140  148.8960 C   0  0  1  0  0  3  0  0  0  0  0  0
  161.8780  205.8750  146.5560 C   0  0  0  0  0  0  0  0  0  0  0  0
  161.2520  208.1900  150.3920 C   0  0  2  0  0  3  0  0  0  0  0  0
  161.3280  206.4710  152.1850 C   0  0  0  0  0  0  0  0  0  0  0  0
  161.5470  204.5690  146.1840 C   0  0  0  0  0  0  0  0  0  0  0  0
  161.8940  206.2260  147.8810 N   0  0  0  0  0  0  0  0  0  0  0  0
  160.6030  200.6400  150.1040 C   0  0  0  0  0  3  0  0  0  0  0  0
  162.1860  209.1930  151.0360 C   0  0  0  0  0  2  0  0  0  0  0  0
  161.7520  209.8790  148.7390 C   0  0  0  0  0  2  0  0  0  0  0  0
  160.7670  201.1620  147.7790 O   0  0  0  0  0  1  0  0  0  0  0  0
  161.2570  204.6350  151.1630 C   0  0  0  0  0  0  0  0  0  0  0  0
  160.6270  201.0060  151.4480 C   0  0  0  0  0  3  0  0  0  0  0  0
  161.0390  202.9510  149.4400 C   0  0  0  0  0  0  0  0  0  0  0  0
  161.4370  205.6260  150.2290 C   0  0  0  0  0  0  0  0  0  0  0  0
  161.2600  207.3140  153.1210 O   0  0  0  0  0  0  0  0  0  0  0  0
  161.4730  206.8190  150.8790 N   0  0  0  0  0  0  0  0  0  0  0  0
  162.1670  210.3910  150.1110 C   0  0  0  0  0  2  0  0  0  0  0  0
  163.7870  207.4690  148.8910 C   0  0  0  0  0  1  0  0  0  0  0  0
  160.8520  202.3340  151.8050 C   0  0  0  0  0  3  0  0  0  0  0  0
  161.0610  203.3020  150.8170 C   0  0  0  0  0  0  0  0  0  0  0  0
  162.4230  207.5480  148.2090 C   0  0  2  0  0  3  0  0  0  0  0  0
  161.4980  204.1590  144.7490 C   0  0  0  0  0  2  0  0  0  0  0  0
  159.5280  202.9940  144.3260 C   0  0  0  0  0  1  0  0  0  0  0  0
  160.1450  204.3030  144.2440 N   0  0  0  0  0  2  0  0  0  0  0  0
  1  4  2  0  0  0  0
  1 19  1  0  0  0  0
  2 19  2  0  0  0  0
  2 13  1  0  0  0  0
  4 20  1  0  0  0  0
  5  1  1  0  0  0  0
  6  8  2  0  0  0  0
  7 15  1  1  0  0  0
  7  9  1  0  0  0  0
  8 12  1  0  0  0  0
  9 22  1  0  0  0  0
  9 14  1  1  0  0  0
 10  3  1  0  0  0  0
 10 21  2  0  0  0  0
 11  8  1  0  0  0  0
 11  5  2  0  0  0  0
 12 27  1  0  0  0  0
 12  4  1  0  0  0  0
 13 18  2  0  0  0  0
 15 23  1  0  0  0  0
 16  2  1  0  0  0  0
 17  3  1  0  0  0  0
 18 25  1  0  0  0  0
 19 26  1  0  0  0  0
 20 22  1  0  0  0  0
 20 17  2  0  0  0  0
 22 10  1  0  0  0  0
 23 14  1  0  0  0  0
 26 17  1  0  0  0  0
 26 25  2  0  0  0  0
 27 24  1  1  0  0  0
 27  7  1  0  0  0  0
 28 11  1  0  0  0  0
 30 29  1  0  0  0  0
 30 28  1  0  0  0  0
M  END
>  <MODEL>
7

>  <REMARK>
 VINA RESULT:      -5.0      2.408      6.129
  Name = 
  2 active torsions:
  status: ('A' for Active; 'I' for Inactive)
    1  A    between atoms: C_11  and  C_28
    2  A    between atoms: C_28  and  N_30
                            x       y       z     vdW  Elec       q    Type
                         _______ _______ _______ _____ _____    ______ ____

>  <TORSDO>
F 2

$$$$
