=
 OpenBabel11122413143D

 31 35  0  0  1  0  0  0  0  0999 V2000
  160.4740  208.1570  156.1060 C   0  0  0  0  0  0  0  0  0  0  0  0
  161.4800  209.1450  152.6220 N   0  0  0  0  0  0  0  0  0  0  0  0
  161.4100  207.9720  151.7710 C   0  0  0  0  0  0  0  0  0  0  0  0
  161.0060  205.5940  151.4370 C   0  0  0  0  0  0  0  0  0  0  0  0
  160.8810  209.1600  153.9310 C   0  0  0  0  0  0  0  0  0  0  0  0
  159.6700  209.2430  156.4600 C   0  0  0  0  0  3  0  0  0  0  0  0
  161.1430  206.6940  152.2890 C   0  0  0  0  0  3  0  0  0  0  0  0
  160.3320  211.1440  151.9870 N   0  0  0  0  0  0  0  0  0  0  0  0
  160.7230  206.8470  157.2370 Cl  0  0  0  0  0  0  0  0  0  0  0  0
  161.8110  209.3790  149.8440 O   0  0  0  0  0  0  0  0  0  0  0  0
  160.7250  204.2490  152.0040 C   0  0  0  0  0  1  0  0  0  0  0  0
  159.9290  211.4380  153.3710 C   0  0  0  0  0  2  0  0  0  0  0  0
  161.6440  210.4800  152.0220 C   0  0  2  0  0  3  0  0  0  0  0  0
  161.0830  208.1180  154.8480 C   0  0  0  0  0  3  0  0  0  0  0  0
  161.1190  205.7620  150.0560 C   0  0  0  0  0  3  0  0  0  0  0  0
  160.0710  210.2550  154.2950 C   0  0  0  0  0  0  0  0  0  0  0  0
  159.4750  210.2930  155.5590 C   0  0  0  0  0  3  0  0  0  0  0  0
  162.3490  210.4150  150.6550 C   0  0  0  0  0  2  0  0  0  0  0  0
  161.5400  208.1240  150.3780 C   0  0  0  0  0  0  0  0  0  0  0  0
  161.3830  207.0270  149.5270 C   0  0  0  0  0  3  0  0  0  0  0  0
  160.4450  212.4390  151.3260 C   0  0  0  0  0  2  0  0  0  0  0  0
  158.7560  214.2070  151.8610 C   0  0  0  0  0  1  0  0  0  0  0  0
  159.0560  212.9800  151.0180 C   0  0  1  0  0  3  0  0  0  0  0  0
  158.7580  213.6930  146.8130 N   0  0  0  0  0  0  0  0  0  0  0  0
  160.1290  213.4240  148.8060 C   0  0  0  0  0  2  0  0  0  0  0  0
  156.5620  213.0530  149.5610 O   0  0  0  0  0  0  0  0  0  0  0  0
  158.6470  214.4530  145.5820 C   0  0  0  0  0  1  0  0  0  0  0  0
  159.8700  214.2690  147.5630 C   0  0  0  0  0  2  0  0  0  0  0  0
  157.6180  213.3610  148.9460 C   0  0  0  0  0  0  0  0  0  0  0  0
  158.9050  213.2650  149.5900 N   0  0  0  0  0  0  0  0  0  0  0  0
  157.5220  213.9240  147.5590 C   0  0  0  0  0  2  0  0  0  0  0  0
  1  6  1  0  0  0  0
  1  9  1  0  0  0  0
  2  5  1  0  0  0  0
  3  7  1  0  0  0  0
  3  2  1  0  0  0  0
  4 11  1  0  0  0  0
  4  7  2  0  0  0  0
  5 16  2  0  0  0  0
  5 14  1  0  0  0  0
  8 13  1  0  0  0  0
  8 12  1  0  0  0  0
 10 19  1  0  0  0  0
 10 18  1  0  0  0  0
 12 16  1  0  0  0  0
 13 18  1  6  0  0  0
 13  2  1  0  0  0  0
 14  1  2  0  0  0  0
 15  4  1  0  0  0  0
 16 17  1  0  0  0  0
 17  6  2  0  0  0  0
 19  3  2  0  0  0  0
 20 15  2  0  0  0  0
 20 19  1  0  0  0  0
 21  8  1  0  0  0  0
 23 21  1  0  0  0  0
 23 22  1  1  0  0  0
 24 31  1  0  0  0  0
 24 28  1  0  0  0  0
 25 30  1  0  0  0  0
 27 24  1  0  0  0  0
 28 25  1  0  0  0  0
 29 26  2  0  0  0  0
 29 30  1  0  0  0  0
 30 23  1  0  0  0  0
 31 29  1  0  0  0  0
M  END
>  <MODEL>
1

>  <REMARK>
 VINA RESULT:      -7.2      0.000      0.000
  Name = 
  3 active torsions:
  status: ('A' for Active; 'I' for Inactive)
    1  A    between atoms: C_5  and  C_16
    2  A    between atoms: C_5  and  N_30
    3  A    between atoms: N_10  and  C_16
                            x       y       z     vdW  Elec       q    Type
                         _______ _______ _______ _____ _____    ______ ____

>  <TORSDO>
F 3

$$$$
=
 OpenBabel11122413143D

 31 35  0  0  1  0  0  0  0  0999 V2000
  160.6180  208.5780  154.9240 C   0  0  0  0  0  0  0  0  0  0  0  0
  161.6290  209.4140  151.4020 N   0  0  0  0  0  0  0  0  0  0  0  0
  161.4710  208.2270  150.5820 C   0  0  0  0  0  0  0  0  0  0  0  0
  160.9110  205.8720  150.3150 C   0  0  0  0  0  0  0  0  0  0  0  0
  161.0530  209.4990  152.7190 C   0  0  0  0  0  0  0  0  0  0  0  0
  159.8900  209.7220  155.2620 C   0  0  0  0  0  3  0  0  0  0  0  0
  161.1310  206.9810  151.1360 C   0  0  0  0  0  3  0  0  0  0  0  0
  160.6000  211.4650  150.7320 N   0  0  0  0  0  0  0  0  0  0  0  0
  160.8010  207.2830  156.0850 Cl  0  0  0  0  0  0  0  0  0  0  0  0
  161.9300  209.5570  148.6140 O   0  0  0  0  0  0  0  0  0  0  0  0
  160.5540  204.5620  150.9200 C   0  0  0  0  0  1  0  0  0  0  0  0
  160.2390  211.8180  152.1140 C   0  0  0  0  0  2  0  0  0  0  0  0
  161.8680  210.7200  150.7650 C   0  0  2  0  0  3  0  0  0  0  0  0
  161.2030  208.4690  153.6580 C   0  0  0  0  0  3  0  0  0  0  0  0
  161.0120  205.9980  148.9290 C   0  0  0  0  0  3  0  0  0  0  0  0
  160.3210  210.6520  153.0660 C   0  0  0  0  0  0  0  0  0  0  0  0
  159.7480  210.7600  154.3370 C   0  0  0  0  0  3  0  0  0  0  0  0
  162.5450  210.5760  149.3900 C   0  0  0  0  0  2  0  0  0  0  0  0
  161.5890  208.3360  149.1840 C   0  0  0  0  0  0  0  0  0  0  0  0
  161.3480  207.2300  148.3630 C   0  0  0  0  0  3  0  0  0  0  0  0
  160.7850  212.7340  150.0360 C   0  0  0  0  0  2  0  0  0  0  0  0
  159.0200  214.4530  149.5940 C   0  0  0  0  0  1  0  0  0  0  0  0
  159.5320  213.0680  149.2390 C   0  0  1  0  0  3  0  0  0  0  0  0
  160.3890  212.5960  145.0770 N   0  0  0  0  0  0  0  0  0  0  0  0
  161.1530  213.0710  147.3390 C   0  0  0  0  0  2  0  0  0  0  0  0
  157.5560  212.3780  147.2470 O   0  0  0  0  0  0  0  0  0  0  0  0
  160.5770  212.9800  143.6900 C   0  0  0  0  0  1  0  0  0  0  0  0
  161.1970  213.5100  145.8780 C   0  0  0  0  0  2  0  0  0  0  0  0
  158.7170  212.6690  146.8550 C   0  0  0  0  0  0  0  0  0  0  0  0
  159.7720  212.9420  147.8010 N   0  0  0  0  0  0  0  0  0  0  0  0
  158.9790  212.8260  145.3860 C   0  0  0  0  0  2  0  0  0  0  0  0
  1  6  1  0  0  0  0
  1  9  1  0  0  0  0
  2  5  1  0  0  0  0
  3  7  1  0  0  0  0
  3  2  1  0  0  0  0
  4 11  1  0  0  0  0
  4  7  2  0  0  0  0
  5 16  2  0  0  0  0
  5 14  1  0  0  0  0
  8 13  1  0  0  0  0
  8 12  1  0  0  0  0
 10 19  1  0  0  0  0
 10 18  1  0  0  0  0
 12 16  1  0  0  0  0
 13 18  1  6  0  0  0
 13  2  1  0  0  0  0
 14  1  2  0  0  0  0
 15  4  1  0  0  0  0
 16 17  1  0  0  0  0
 17  6  2  0  0  0  0
 19  3  2  0  0  0  0
 20 15  2  0  0  0  0
 20 19  1  0  0  0  0
 21  8  1  0  0  0  0
 23 22  1  6  0  0  0
 23 21  1  0  0  0  0
 24 31  1  0  0  0  0
 24 28  1  0  0  0  0
 25 30  1  0  0  0  0
 27 24  1  0  0  0  0
 28 25  1  0  0  0  0
 29 26  2  0  0  0  0
 29 30  1  0  0  0  0
 30 23  1  0  0  0  0
 31 29  1  0  0  0  0
M  END
>  <MODEL>
2

>  <REMARK>
 VINA RESULT:      -7.2      1.468      1.720
  Name = 
  3 active torsions:
  status: ('A' for Active; 'I' for Inactive)
    1  A    between atoms: C_5  and  C_16
    2  A    between atoms: C_5  and  N_30
    3  A    between atoms: N_10  and  C_16
                            x       y       z     vdW  Elec       q    Type
                         _______ _______ _______ _____ _____    ______ ____

>  <TORSDO>
F 3

$$$$
=
 OpenBabel11122413143D

 31 35  0  0  1  0  0  0  0  0999 V2000
  160.9540  206.7560  147.1030 C   0  0  0  0  0  0  0  0  0  0  0  0
  160.6950  204.8070  150.3060 N   0  0  0  0  0  0  0  0  0  0  0  0
  160.8440  203.3960  150.0010 C   0  0  0  0  0  0  0  0  0  0  0  0
  161.1390  201.5710  148.4170 C   0  0  0  0  0  0  0  0  0  0  0  0
  161.0360  205.8230  149.3430 C   0  0  0  0  0  0  0  0  0  0  0  0
  161.7500  207.8280  147.5160 C   0  0  0  0  0  3  0  0  0  0  0  0
  160.9200  202.9260  148.6790 C   0  0  0  0  0  3  0  0  0  0  0  0
  162.0780  205.8130  151.9760 N   0  0  0  0  0  0  0  0  0  0  0  0
  160.4060  206.6620  145.4440 Cl  0  0  0  0  0  0  0  0  0  0  0  0
  160.9130  202.9180  152.3720 O   0  0  0  0  0  0  0  0  0  0  0  0
  161.2150  201.0910  147.0120 C   0  0  0  0  0  1  0  0  0  0  0  0
  162.2310  207.0560  151.2030 C   0  0  0  0  0  2  0  0  0  0  0  0
  160.7400  205.2650  151.7040 C   0  0  2  0  0  3  0  0  0  0  0  0
  160.5930  205.7590  148.0140 C   0  0  0  0  0  3  0  0  0  0  0  0
  161.3010  200.6720  149.4720 C   0  0  0  0  0  3  0  0  0  0  0  0
  161.8360  206.9070  149.7560 C   0  0  0  0  0  0  0  0  0  0  0  0
  162.1840  207.9070  148.8420 C   0  0  0  0  0  3  0  0  0  0  0  0
  160.3040  204.1640  152.6870 C   0  0  0  0  0  2  0  0  0  0  0  0
  160.9900  202.4760  151.0560 C   0  0  0  0  0  0  0  0  0  0  0  0
  161.2300  201.1250  150.7910 C   0  0  0  0  0  3  0  0  0  0  0  0
  162.1820  206.2050  153.3770 C   0  0  0  0  0  2  0  0  0  0  0  0
  159.9260  206.3580  154.4520 C   0  0  0  0  0  1  0  0  0  0  0  0
  161.0250  207.1260  153.7390 C   0  0  1  0  0  3  0  0  0  0  0  0
  162.5000  210.3350  156.1480 N   0  0  0  0  0  0  0  0  0  0  0  0
  161.8410  208.0020  155.9300 C   0  0  0  0  0  2  0  0  0  0  0  0
  161.4930  209.8040  152.7590 O   0  0  0  0  0  0  0  0  0  0  0  0
  162.4550  211.4680  157.0530 C   0  0  0  0  0  1  0  0  0  0  0  0
  161.7170  209.2710  156.7690 C   0  0  0  0  0  2  0  0  0  0  0  0
  161.6220  209.5930  153.9940 C   0  0  0  0  0  0  0  0  0  0  0  0
  161.4840  208.2630  154.5370 N   0  0  0  0  0  0  0  0  0  0  0  0
  161.8270  210.7550  154.9200 C   0  0  0  0  0  2  0  0  0  0  0  0
  1  6  2  0  0  0  0
  1 14  1  0  0  0  0
  2 13  1  0  0  0  0
  3  2  1  0  0  0  0
  3 19  1  0  0  0  0
  4  7  1  0  0  0  0
  4 15  2  0  0  0  0
  5 16  1  0  0  0  0
  5  2  1  0  0  0  0
  6 17  1  0  0  0  0
  7  3  2  0  0  0  0
  8 21  1  0  0  0  0
  9  1  1  0  0  0  0
 10 18  1  0  0  0  0
 11  4  1  0  0  0  0
 12  8  1  0  0  0  0
 13  8  1  0  0  0  0
 13 18  1  1  0  0  0
 14  5  2  0  0  0  0
 15 20  1  0  0  0  0
 16 12  1  0  0  0  0
 17 16  2  0  0  0  0
 19 10  1  0  0  0  0
 20 19  2  0  0  0  0
 21 23  1  0  0  0  0
 23 22  1  1  0  0  0
 23 30  1  0  0  0  0
 24 28  1  0  0  0  0
 24 27  1  0  0  0  0
 25 28  1  0  0  0  0
 26 29  2  0  0  0  0
 29 30  1  0  0  0  0
 29 31  1  0  0  0  0
 30 25  1  0  0  0  0
 31 24  1  0  0  0  0
M  END
>  <MODEL>
3

>  <REMARK>
 VINA RESULT:      -6.1      4.843      7.554
  Name = 
  3 active torsions:
  status: ('A' for Active; 'I' for Inactive)
    1  A    between atoms: C_5  and  C_16
    2  A    between atoms: C_5  and  N_30
    3  A    between atoms: N_10  and  C_16
                            x       y       z     vdW  Elec       q    Type
                         _______ _______ _______ _____ _____    ______ ____

>  <TORSDO>
F 3

$$$$
=
 OpenBabel11122413143D

 31 35  0  0  1  0  0  0  0  0999 V2000
  162.2140  210.0500  149.2470 C   0  0  0  0  0  0  0  0  0  0  0  0
  161.6280  207.5540  151.9950 N   0  0  0  0  0  0  0  0  0  0  0  0
  161.1160  208.2570  153.1570 C   0  0  0  0  0  0  0  0  0  0  0  0
  160.4610  210.3060  154.2980 C   0  0  0  0  0  0  0  0  0  0  0  0
  161.6740  208.1790  150.6990 C   0  0  0  0  0  0  0  0  0  0  0  0
  161.7180  209.3450  148.1480 C   0  0  0  0  0  3  0  0  0  0  0  0
  161.0280  209.6590  153.1970 C   0  0  0  0  0  3  0  0  0  0  0  0
  160.4410  205.6670  151.1310 N   0  0  0  0  0  0  0  0  0  0  0  0
  162.8580  211.6620  149.0350 Cl  0  0  0  0  0  0  0  0  0  0  0  0
  160.7040  206.1290  154.2310 O   0  0  0  0  0  0  0  0  0  0  0  0
  160.3790  211.7890  154.3240 C   0  0  0  0  0  1  0  0  0  0  0  0
  160.7130  206.0440  149.7350 C   0  0  0  0  0  2  0  0  0  0  0  0
  161.5890  206.0830  151.9510 C   0  0  2  0  0  3  0  0  0  0  0  0
  162.1970  209.4680  150.5180 C   0  0  0  0  0  3  0  0  0  0  0  0
  159.9590  209.5590  155.3650 C   0  0  0  0  0  3  0  0  0  0  0  0
  161.1780  207.4710  149.5860 C   0  0  0  0  0  0  0  0  0  0  0  0
  161.2080  208.0550  148.3160 C   0  0  0  0  0  3  0  0  0  0  0  0
  161.6080  205.4630  153.3600 C   0  0  0  0  0  2  0  0  0  0  0  0
  160.6230  207.5170  154.2470 C   0  0  0  0  0  0  0  0  0  0  0  0
  160.0370  208.1650  155.3380 C   0  0  0  0  0  3  0  0  0  0  0  0
  160.3280  204.2130  151.1310 C   0  0  0  0  0  2  0  0  0  0  0  0
  162.2200  202.5910  151.3710 C   0  0  0  0  0  1  0  0  0  0  0  0
  161.5490  203.6030  150.4580 C   0  0  1  0  0  3  0  0  0  0  0  0
  160.3510  201.8340  146.7550 N   0  0  0  0  0  0  0  0  0  0  0  0
  160.3590  201.8120  149.1890 C   0  0  0  0  0  2  0  0  0  0  0  0
  162.1940  204.6910  147.8600 O   0  0  0  0  0  0  0  0  0  0  0  0
  160.4220  200.9690  145.5920 C   0  0  0  0  0  1  0  0  0  0  0  0
  160.5610  200.9840  147.9230 C   0  0  0  0  0  2  0  0  0  0  0  0
  161.6230  203.5700  147.9090 C   0  0  0  0  0  0  0  0  0  0  0  0
  161.2000  203.0070  149.1680 N   0  0  0  0  0  0  0  0  0  0  0  0
  161.4700  202.7680  146.6500 C   0  0  0  0  0  2  0  0  0  0  0  0
  1 14  1  0  0  0  0
  2  3  1  0  0  0  0
  3  7  2  0  0  0  0
  3 19  1  0  0  0  0
  4 11  1  0  0  0  0
  4 15  2  0  0  0  0
  5  2  1  0  0  0  0
  6 17  1  0  0  0  0
  6  1  2  0  0  0  0
  7  4  1  0  0  0  0
  8 21  1  0  0  0  0
  8 13  1  0  0  0  0
  9  1  1  0  0  0  0
 10 19  1  0  0  0  0
 12  8  1  0  0  0  0
 13  2  1  0  0  0  0
 13 18  1  1  0  0  0
 14  5  2  0  0  0  0
 16 12  1  0  0  0  0
 16  5  1  0  0  0  0
 17 16  2  0  0  0  0
 18 10  1  0  0  0  0
 19 20  2  0  0  0  0
 20 15  1  0  0  0  0
 23 21  1  0  0  0  0
 23 22  1  1  0  0  0
 24 28  1  0  0  0  0
 26 29  2  0  0  0  0
 27 24  1  0  0  0  0
 28 25  1  0  0  0  0
 29 30  1  0  0  0  0
 30 25  1  0  0  0  0
 30 23  1  0  0  0  0
 31 24  1  0  0  0  0
 31 29  1  0  0  0  0
M  END
>  <MODEL>
4

>  <REMARK>
 VINA RESULT:      -6.0      4.217      8.284
  Name = 
  3 active torsions:
  status: ('A' for Active; 'I' for Inactive)
    1  A    between atoms: C_5  and  C_16
    2  A    between atoms: C_5  and  N_30
    3  A    between atoms: N_10  and  C_16
                            x       y       z     vdW  Elec       q    Type
                         _______ _______ _______ _____ _____    ______ ____

>  <TORSDO>
F 3

$$$$
=
 OpenBabel11122413143D

 31 35  0  0  1  0  0  0  0  0999 V2000
  161.9560  212.1960  148.9530 C   0  0  0  0  0  0  0  0  0  0  0  0
  161.0950  210.5130  152.2010 N   0  0  0  0  0  0  0  0  0  0  0  0
  160.0160  211.2500  152.8320 C   0  0  0  0  0  0  0  0  0  0  0  0
  158.4500  213.1140  152.8920 C   0  0  0  0  0  0  0  0  0  0  0  0
  161.4480  210.7300  150.8220 C   0  0  0  0  0  0  0  0  0  0  0  0
  162.1180  211.0850  148.1210 C   0  0  0  0  0  3  0  0  0  0  0  0
  159.5400  212.4640  152.3070 C   0  0  0  0  0  3  0  0  0  0  0  0
  160.8800  208.1560  151.8560 N   0  0  0  0  0  0  0  0  0  0  0  0
  162.1650  213.8080  148.3090 Cl  0  0  0  0  0  0  0  0  0  0  0  0
  159.8330  209.5060  154.4980 O   0  0  0  0  0  0  0  0  0  0  0  0
  157.9620  214.3980  152.3240 C   0  0  0  0  0  1  0  0  0  0  0  0
  161.5380  208.2160  150.5420 C   0  0  0  0  0  2  0  0  0  0  0  0
  161.4790  209.1880  152.7170 C   0  0  2  0  0  3  0  0  0  0  0  0
  161.6270  212.0200  150.3000 C   0  0  0  0  0  3  0  0  0  0  0  0
  157.8120  212.5510  153.9980 C   0  0  0  0  0  3  0  0  0  0  0  0
  161.6160  209.6130  149.9800 C   0  0  0  0  0  0  0  0  0  0  0  0
  161.9560  209.7960  148.6360 C   0  0  0  0  0  3  0  0  0  0  0  0
  161.1410  209.0310  154.2100 C   0  0  0  0  0  2  0  0  0  0  0  0
  159.3760  210.7030  153.9580 C   0  0  0  0  0  0  0  0  0  0  0  0
  158.2730  211.3440  154.5290 C   0  0  0  0  0  3  0  0  0  0  0  0
  161.1770  206.8300  152.3860 C   0  0  0  0  0  2  0  0  0  0  0  0
  163.4550  205.8280  152.1140 C   0  0  0  0  0  1  0  0  0  0  0  0
  162.1210  206.1000  151.4410 C   0  0  1  0  0  3  0  0  0  0  0  0
  160.2380  202.4940  150.1290 N   0  0  0  0  0  0  0  0  0  0  0  0
  161.2040  203.8270  151.9210 C   0  0  0  0  0  2  0  0  0  0  0  0
  161.2930  205.6050  148.7180 O   0  0  0  0  0  0  0  0  0  0  0  0
  160.1340  201.1360  149.6270 C   0  0  0  0  0  1  0  0  0  0  0  0
  161.1590  202.4530  151.2600 C   0  0  0  0  0  2  0  0  0  0  0  0
  161.1980  204.6620  149.5480 C   0  0  0  0  0  0  0  0  0  0  0  0
  161.5160  204.8660  150.9400 N   0  0  0  0  0  0  0  0  0  0  0  0
  160.8430  203.2880  149.0610 C   0  0  0  0  0  2  0  0  0  0  0  0
  1 14  1  0  0  0  0
  2 13  1  0  0  0  0
  2  3  1  0  0  0  0
  3 19  1  0  0  0  0
  4 15  2  0  0  0  0
  5  2  1  0  0  0  0
  6 17  1  0  0  0  0
  6  1  2  0  0  0  0
  7  3  2  0  0  0  0
  7  4  1  0  0  0  0
  8 21  1  0  0  0  0
  8 13  1  0  0  0  0
  9  1  1  0  0  0  0
 11  4  1  0  0  0  0
 12  8  1  0  0  0  0
 13 18  1  1  0  0  0
 14  5  2  0  0  0  0
 15 20  1  0  0  0  0
 16 12  1  0  0  0  0
 16  5  1  0  0  0  0
 17 16  2  0  0  0  0
 18 10  1  0  0  0  0
 19 10  1  0  0  0  0
 19 20  2  0  0  0  0
 23 22  1  1  0  0  0
 23 21  1  0  0  0  0
 24 28  1  0  0  0  0
 26 29  2  0  0  0  0
 27 24  1  0  0  0  0
 28 25  1  0  0  0  0
 29 30  1  0  0  0  0
 30 23  1  0  0  0  0
 30 25  1  0  0  0  0
 31 29  1  0  0  0  0
 31 24  1  0  0  0  0
M  END
>  <MODEL>
5

>  <REMARK>
 VINA RESULT:      -5.8      3.460      8.038
  Name = 
  3 active torsions:
  status: ('A' for Active; 'I' for Inactive)
    1  A    between atoms: C_5  and  C_16
    2  A    between atoms: C_5  and  N_30
    3  A    between atoms: N_10  and  C_16
                            x       y       z     vdW  Elec       q    Type
                         _______ _______ _______ _____ _____    ______ ____

>  <TORSDO>
F 3

$$$$
=
 OpenBabel11122413143D

 31 35  0  0  1  0  0  0  0  0999 V2000
  161.2070  202.3060  150.8830 C   0  0  0  0  0  0  0  0  0  0  0  0
  161.8730  205.4460  148.9280 N   0  0  0  0  0  0  0  0  0  0  0  0
  161.5560  205.1980  147.5340 C   0  0  0  0  0  0  0  0  0  0  0  0
  160.8310  203.7250  145.7360 C   0  0  0  0  0  0  0  0  0  0  0  0
  161.4510  204.5420  149.9670 C   0  0  0  0  0  0  0  0  0  0  0  0
  160.5890  202.8350  152.0200 C   0  0  0  0  0  3  0  0  0  0  0  0
  161.2050  203.9200  147.0680 C   0  0  0  0  0  3  0  0  0  0  0  0
  160.9010  207.3180  150.0530 N   0  0  0  0  0  0  0  0  0  0  0  0
  161.4380  200.5790  150.7380 Cl  0  0  0  0  0  0  0  0  0  0  0  0
  161.8740  207.5510  147.0710 O   0  0  0  0  0  0  0  0  0  0  0  0
  160.4650  202.3660  145.2610 C   0  0  0  0  0  1  0  0  0  0  0  0
  160.7150  206.5630  151.3020 C   0  0  0  0  0  2  0  0  0  0  0  0
  162.1180  206.8210  149.3930 C   0  0  2  0  0  3  0  0  0  0  0  0
  161.6410  203.1560  149.8620 C   0  0  0  0  0  3  0  0  0  0  0  0
  160.7870  204.8080  144.8570 C   0  0  0  0  0  3  0  0  0  0  0  0
  160.8310  205.0710  151.1160 C   0  0  0  0  0  0  0  0  0  0  0  0
  160.4090  204.2160  152.1390 C   0  0  0  0  0  3  0  0  0  0  0  0
  162.6310  207.7300  148.2610 C   0  0  0  0  0  2  0  0  0  0  0  0
  161.5260  206.2780  146.6330 C   0  0  0  0  0  0  0  0  0  0  0  0
  161.1310  206.0860  145.3070 C   0  0  0  0  0  3  0  0  0  0  0  0
  161.0840  208.7080  150.4560 C   0  0  0  0  0  2  0  0  0  0  0  0
  163.0800  209.5690  151.6980 C   0  0  0  0  0  1  0  0  0  0  0  0
  161.7970  208.7630  151.8000 C   0  0  1  0  0  3  0  0  0  0  0  0
  159.0920  210.3290  154.7170 N   0  0  0  0  0  0  0  0  0  0  0  0
  160.0810  210.4390  152.4960 C   0  0  0  0  0  2  0  0  0  0  0  0
  161.4060  207.6190  154.4240 O   0  0  0  0  0  0  0  0  0  0  0  0
  158.6310  211.1540  155.8180 C   0  0  0  0  0  1  0  0  0  0  0  0
  159.7010  211.2310  153.7440 C   0  0  0  0  0  2  0  0  0  0  0  0
  160.8320  208.7090  154.1600 C   0  0  0  0  0  0  0  0  0  0  0  0
  160.9180  209.2910  152.8440 N   0  0  0  0  0  0  0  0  0  0  0  0
  160.1320  209.4550  155.2580 C   0  0  0  0  0  2  0  0  0  0  0  0
  1  6  1  0  0  0  0
  2 13  1  0  0  0  0
  2  5  1  0  0  0  0
  3  2  1  0  0  0  0
  4  7  2  0  0  0  0
  5 16  2  0  0  0  0
  6 17  2  0  0  0  0
  7  3  1  0  0  0  0
  8 21  1  0  0  0  0
  8 12  1  0  0  0  0
  9  1  1  0  0  0  0
 10 18  1  0  0  0  0
 11  4  1  0  0  0  0
 13 18  1  6  0  0  0
 13  8  1  0  0  0  0
 14  5  1  0  0  0  0
 14  1  2  0  0  0  0
 15 20  2  0  0  0  0
 15  4  1  0  0  0  0
 16 12  1  0  0  0  0
 16 17  1  0  0  0  0
 19 10  1  0  0  0  0
 19  3  2  0  0  0  0
 20 19  1  0  0  0  0
 21 23  1  0  0  0  0
 23 22  1  6  0  0  0
 23 30  1  0  0  0  0
 24 31  1  0  0  0  0
 24 27  1  0  0  0  0
 25 30  1  0  0  0  0
 25 28  1  0  0  0  0
 28 24  1  0  0  0  0
 29 26  2  0  0  0  0
 29 31  1  0  0  0  0
 30 29  1  0  0  0  0
M  END
>  <MODEL>
6

>  <REMARK>
 VINA RESULT:      -5.7      3.977      6.482
  Name = 
  3 active torsions:
  status: ('A' for Active; 'I' for Inactive)
    1  A    between atoms: C_5  and  C_16
    2  A    between atoms: C_5  and  N_30
    3  A    between atoms: N_10  and  C_16
                            x       y       z     vdW  Elec       q    Type
                         _______ _______ _______ _____ _____    ______ ____

>  <TORSDO>
F 3

$$$$
=
 OpenBabel11122413143D

 31 35  0  0  1  0  0  0  0  0999 V2000
  160.8250  201.7130  149.1630 C   0  0  0  0  0  0  0  0  0  0  0  0
  161.9990  205.0850  150.3350 N   0  0  0  0  0  0  0  0  0  0  0  0
  161.7460  206.0530  149.2840 C   0  0  0  0  0  0  0  0  0  0  0  0
  160.9660  206.6290  147.0510 C   0  0  0  0  0  0  0  0  0  0  0  0
  161.4010  203.7750  150.3090 C   0  0  0  0  0  0  0  0  0  0  0  0
  160.2040  201.2390  150.3210 C   0  0  0  0  0  3  0  0  0  0  0  0
  161.2730  205.6690  148.0190 C   0  0  0  0  0  3  0  0  0  0  0  0
  161.1910  205.4960  152.5480 N   0  0  0  0  0  0  0  0  0  0  0  0
  160.8520  200.7270  147.7180 Cl  0  0  0  0  0  0  0  0  0  0  0  0
  162.3800  207.8280  150.8020 O   0  0  0  0  0  0  0  0  0  0  0  0
  160.4690  206.2030  145.7170 C   0  0  0  0  0  1  0  0  0  0  0  0
  160.8320  204.0850  152.7560 C   0  0  0  0  0  2  0  0  0  0  0  0
  162.3790  205.5450  151.6810 C   0  0  2  0  0  3  0  0  0  0  0  0
  161.4270  202.9750  149.1580 C   0  0  0  0  0  3  0  0  0  0  0  0
  161.1130  207.9870  147.3410 C   0  0  0  0  0  3  0  0  0  0  0  0
  160.7770  203.2910  151.4750 C   0  0  0  0  0  0  0  0  0  0  0  0
  160.1860  202.0230  151.4770 C   0  0  0  0  0  3  0  0  0  0  0  0
  163.0730  206.9190  151.6480 C   0  0  0  0  0  2  0  0  0  0  0  0
  161.9080  207.4240  149.5580 C   0  0  0  0  0  0  0  0  0  0  0  0
  161.5810  208.3840  148.5970 C   0  0  0  0  0  3  0  0  0  0  0  0
  161.5160  206.0200  153.8700 C   0  0  0  0  0  2  0  0  0  0  0  0
  159.4200  206.5780  155.1200 C   0  0  0  0  0  1  0  0  0  0  0  0
  160.5330  207.1210  154.2400 C   0  0  1  0  0  3  0  0  0  0  0  0
  162.6660  210.2870  156.1650 N   0  0  0  0  0  0  0  0  0  0  0  0
  161.8080  208.0090  156.1950 C   0  0  0  0  0  2  0  0  0  0  0  0
  161.0020  209.7130  153.0530 O   0  0  0  0  0  0  0  0  0  0  0  0
  162.8750  211.4530  157.0030 C   0  0  0  0  0  1  0  0  0  0  0  0
  161.9380  209.3140  156.9750 C   0  0  0  0  0  2  0  0  0  0  0  0
  161.3460  209.5390  154.2520 C   0  0  0  0  0  0  0  0  0  0  0  0
  161.2160  208.2460  154.8800 N   0  0  0  0  0  0  0  0  0  0  0  0
  161.8050  210.7150  155.0630 C   0  0  0  0  0  2  0  0  0  0  0  0
  1  6  1  0  0  0  0
  2 13  1  0  0  0  0
  3 19  1  0  0  0  0
  3  2  1  0  0  0  0
  4 15  2  0  0  0  0
  4  7  1  0  0  0  0
  5  2  1  0  0  0  0
  5 16  2  0  0  0  0
  6 17  2  0  0  0  0
  7  3  2  0  0  0  0
  8 12  1  0  0  0  0
  8 21  1  0  0  0  0
  9  1  1  0  0  0  0
 10 18  1  0  0  0  0
 11  4  1  0  0  0  0
 13 18  1  6  0  0  0
 13  8  1  0  0  0  0
 14  1  2  0  0  0  0
 14  5  1  0  0  0  0
 15 20  1  0  0  0  0
 16 17  1  0  0  0  0
 16 12  1  0  0  0  0
 19 10  1  0  0  0  0
 20 19  2  0  0  0  0
 21 23  1  0  0  0  0
 23 30  1  0  0  0  0
 23 22  1  1  0  0  0
 24 28  1  0  0  0  0
 24 27  1  0  0  0  0
 25 28  1  0  0  0  0
 26 29  2  0  0  0  0
 29 30  1  0  0  0  0
 29 31  1  0  0  0  0
 30 25  1  0  0  0  0
 31 24  1  0  0  0  0
M  END
>  <MODEL>
7

>  <REMARK>
 VINA RESULT:      -5.6      4.710      7.427
  Name = 
  3 active torsions:
  status: ('A' for Active; 'I' for Inactive)
    1  A    between atoms: C_5  and  C_16
    2  A    between atoms: C_5  and  N_30
    3  A    between atoms: N_10  and  C_16
                            x       y       z     vdW  Elec       q    Type
                         _______ _______ _______ _____ _____    ______ ____

>  <TORSDO>
F 3

$$$$
=
 OpenBabel11122413143D

 31 35  0  0  1  0  0  0  0  0999 V2000
  161.2190  201.5320  149.4030 C   0  0  0  0  0  0  0  0  0  0  0  0
  161.7230  205.2110  148.8250 N   0  0  0  0  0  0  0  0  0  0  0  0
  161.3320  205.5220  147.4620 C   0  0  0  0  0  0  0  0  0  0  0  0
  160.5310  204.8530  145.2620 C   0  0  0  0  0  0  0  0  0  0  0  0
  161.3740  203.9550  149.4380 C   0  0  0  0  0  0  0  0  0  0  0  0
  160.6580  201.5460  150.6830 C   0  0  0  0  0  3  0  0  0  0  0  0
  160.9760  204.5200  146.5440 C   0  0  0  0  0  3  0  0  0  0  0  0
  160.7840  206.4490  150.6420 N   0  0  0  0  0  0  0  0  0  0  0  0
  161.4710  200.0120  148.5750 Cl  0  0  0  0  0  0  0  0  0  0  0  0
  161.5840  207.8770  147.9550 O   0  0  0  0  0  0  0  0  0  0  0  0
  160.1610  203.7780  144.3040 C   0  0  0  0  0  1  0  0  0  0  0  0
  160.6810  205.2560  151.4960 C   0  0  0  0  0  2  0  0  0  0  0  0
  161.9700  206.2990  149.7850 C   0  0  2  0  0  3  0  0  0  0  0  0
  161.5810  202.7320  148.7840 C   0  0  0  0  0  3  0  0  0  0  0  0
  160.4190  206.1920  144.8870 C   0  0  0  0  0  3  0  0  0  0  0  0
  160.8110  203.9640  150.7300 C   0  0  0  0  0  0  0  0  0  0  0  0
  160.4610  202.7590  151.3470 C   0  0  0  0  0  3  0  0  0  0  0  0
  162.4030  207.6000  149.0830 C   0  0  0  0  0  2  0  0  0  0  0  0
  161.2320  206.8680  147.0650 C   0  0  0  0  0  0  0  0  0  0  0  0
  160.7670  207.2000  145.7900 C   0  0  0  0  0  3  0  0  0  0  0  0
  160.9660  207.5730  151.5540 C   0  0  0  0  0  2  0  0  0  0  0  0
  162.3070  206.2800  153.2260 C   0  0  0  0  0  1  0  0  0  0  0  0
  161.0290  207.0650  152.9870 C   0  0  1  0  0  3  0  0  0  0  0  0
  160.5470  210.3790  155.6440 N   0  0  0  0  0  0  0  0  0  0  0  0
  161.1840  209.5120  153.4610 C   0  0  0  0  0  2  0  0  0  0  0  0
  160.0300  206.8420  155.6890 O   0  0  0  0  0  0  0  0  0  0  0  0
  160.9100  211.3640  156.6470 C   0  0  0  0  0  1  0  0  0  0  0  0
  161.5810  210.4270  154.6150 C   0  0  0  0  0  2  0  0  0  0  0  0
  160.4560  207.9630  155.3050 C   0  0  0  0  0  0  0  0  0  0  0  0
  160.8910  208.1630  153.9440 N   0  0  0  0  0  0  0  0  0  0  0  0
  160.6020  209.0740  156.3020 C   0  0  0  0  0  2  0  0  0  0  0  0
  1  6  1  0  0  0  0
  2  5  1  0  0  0  0
  2 13  1  0  0  0  0
  3  2  1  0  0  0  0
  4  7  1  0  0  0  0
  5 16  2  0  0  0  0
  6 17  2  0  0  0  0
  7  3  2  0  0  0  0
  8 12  1  0  0  0  0
  8 21  1  0  0  0  0
  9  1  1  0  0  0  0
 10 18  1  0  0  0  0
 11  4  1  0  0  0  0
 13 18  1  6  0  0  0
 13  8  1  0  0  0  0
 14  1  2  0  0  0  0
 14  5  1  0  0  0  0
 15  4  2  0  0  0  0
 15 20  1  0  0  0  0
 16 17  1  0  0  0  0
 16 12  1  0  0  0  0
 19  3  1  0  0  0  0
 19 10  1  0  0  0  0
 20 19  2  0  0  0  0
 21 23  1  0  0  0  0
 23 22  1  1  0  0  0
 23 30  1  0  0  0  0
 24 31  1  0  0  0  0
 24 27  1  0  0  0  0
 25 30  1  0  0  0  0
 25 28  1  0  0  0  0
 28 24  1  0  0  0  0
 29 26  2  0  0  0  0
 29 31  1  0  0  0  0
 30 29  1  0  0  0  0
M  END
>  <MODEL>
8

>  <REMARK>
 VINA RESULT:      -5.3      4.658      7.407
  Name = 
  3 active torsions:
  status: ('A' for Active; 'I' for Inactive)
    1  A    between atoms: C_5  and  C_16
    2  A    between atoms: C_5  and  N_30
    3  A    between atoms: N_10  and  C_16
                            x       y       z     vdW  Elec       q    Type
                         _______ _______ _______ _____ _____    ______ ____

>  <TORSDO>
F 3

$$$$
=
 OpenBabel11122413143D

 31 35  0  0  1  0  0  0  0  0999 V2000
  161.0290  206.5870  146.8210 C   0  0  0  0  0  0  0  0  0  0  0  0
  160.7640  204.8700  150.1530 N   0  0  0  0  0  0  0  0  0  0  0  0
  160.8700  203.4380  149.9450 C   0  0  0  0  0  0  0  0  0  0  0  0
  161.0930  201.5010  148.4870 C   0  0  0  0  0  0  0  0  0  0  0  0
  161.1180  205.8080  149.1190 C   0  0  0  0  0  0  0  0  0  0  0  0
  161.8600  207.6620  147.1490 C   0  0  0  0  0  3  0  0  0  0  0  0
  160.9140  202.8770  148.6580 C   0  0  0  0  0  3  0  0  0  0  0  0
  162.1980  205.9500  151.7330 N   0  0  0  0  0  0  0  0  0  0  0  0
  160.4560  206.3950  145.1800 Cl  0  0  0  0  0  0  0  0  0  0  0  0
  160.9600  203.1220  152.3420 O   0  0  0  0  0  0  0  0  0  0  0  0
  161.1350  200.9250  147.1170 C   0  0  0  0  0  1  0  0  0  0  0  0
  162.3730  207.1310  150.8750 C   0  0  0  0  0  2  0  0  0  0  0  0
  160.8420  205.4220  151.5160 C   0  0  2  0  0  3  0  0  0  0  0  0
  160.6550  205.6660  147.8030 C   0  0  0  0  0  3  0  0  0  0  0  0
  161.2460  200.6720  149.5990 C   0  0  0  0  0  3  0  0  0  0  0  0
  161.9530  206.8960  149.4460 C   0  0  0  0  0  0  0  0  0  0  0  0
  162.3150  207.8200  148.4610 C   0  0  0  0  0  3  0  0  0  0  0  0
  160.3900  204.4030  152.5780 C   0  0  0  0  0  2  0  0  0  0  0  0
  161.0070  202.5890  151.0580 C   0  0  0  0  0  0  0  0  0  0  0  0
  161.2060  201.2170  150.8850 C   0  0  0  0  0  3  0  0  0  0  0  0
  162.3320  206.4340  153.1030 C   0  0  0  0  0  2  0  0  0  0  0  0
  160.7650  206.2120  155.0420 C   0  0  0  0  0  1  0  0  0  0  0  0
  160.9610  206.7970  153.6550 C   0  0  1  0  0  3  0  0  0  0  0  0
  160.1950  211.0030  153.5830 N   0  0  0  0  0  0  0  0  0  0  0  0
  160.0830  208.8280  152.4960 C   0  0  0  0  0  2  0  0  0  0  0  0
  161.5860  208.5940  155.8290 O   0  0  0  0  0  0  0  0  0  0  0  0
  160.4390  212.4100  153.3270 C   0  0  0  0  0  1  0  0  0  0  0  0
  160.4570  210.2980  152.3310 C   0  0  0  0  0  2  0  0  0  0  0  0
  161.1660  209.0910  154.7510 C   0  0  0  0  0  0  0  0  0  0  0  0
  160.7580  208.2460  153.6550 N   0  0  0  0  0  0  0  0  0  0  0  0
  161.1850  210.5810  154.5720 C   0  0  0  0  0  2  0  0  0  0  0  0
  1  6  2  0  0  0  0
  1 14  1  0  0  0  0
  2 13  1  0  0  0  0
  3  2  1  0  0  0  0
  3 19  1  0  0  0  0
  4  7  1  0  0  0  0
  4 15  2  0  0  0  0
  5 16  1  0  0  0  0
  5  2  1  0  0  0  0
  6 17  1  0  0  0  0
  7  3  2  0  0  0  0
  8 21  1  0  0  0  0
  9  1  1  0  0  0  0
 10 18  1  0  0  0  0
 11  4  1  0  0  0  0
 12  8  1  0  0  0  0
 13  8  1  0  0  0  0
 13 18  1  1  0  0  0
 14  5  2  0  0  0  0
 15 20  1  0  0  0  0
 16 12  1  0  0  0  0
 17 16  2  0  0  0  0
 19 10  1  0  0  0  0
 20 19  2  0  0  0  0
 21 23  1  0  0  0  0
 23 30  1  0  0  0  0
 23 22  1  1  0  0  0
 24 31  1  0  0  0  0
 25 30  1  0  0  0  0
 27 24  1  0  0  0  0
 28 25  1  0  0  0  0
 28 24  1  0  0  0  0
 29 26  2  0  0  0  0
 30 29  1  0  0  0  0
 31 29  1  0  0  0  0
M  END
>  <MODEL>
9

>  <REMARK>
 VINA RESULT:      -5.2      4.368      7.102
  Name = 
  3 active torsions:
  status: ('A' for Active; 'I' for Inactive)
    1  A    between atoms: C_5  and  C_16
    2  A    between atoms: C_5  and  N_30
    3  A    between atoms: N_10  and  C_16
                            x       y       z     vdW  Elec       q    Type
                         _______ _______ _______ _____ _____    ______ ____

>  <TORSDO>
F 3

$$$$
