=
 OpenBabel11122414313D

 34 41  0  0  1  0  0  0  0  0999 V2000
  161.0900  204.3310  150.8540 C   0  0  0  0  0  0  0  0  0  0  0  0
  161.0100  205.7420  152.9860 C   0  0  0  0  0  3  0  0  0  0  0  0
  159.4880  202.5500  145.3510 C   0  0  2  0  0  3  0  0  0  0  0  0
  161.1980  203.0980  148.7410 C   0  0  0  0  0  0  0  0  0  0  0  0
  161.6500  204.2460  146.7080 C   0  0  0  0  0  0  0  0  0  0  0  0
  160.4500  204.7040  144.5470 C   0  0  0  0  0  2  0  0  0  0  0  0
  159.6310  203.4630  144.1520 C   0  0  0  0  0  2  0  0  0  0  0  0
  160.7730  201.7450  145.3050 C   0  0  1  0  0  3  0  0  0  0  0  0
  161.4470  206.7110  150.8550 C   0  0  0  0  0  0  0  0  0  0  0  0
  161.9860  209.7450  150.3370 C   0  0  0  0  0  3  0  0  0  0  0  0
  161.7250  205.4440  147.4130 C   0  0  0  0  0  3  0  0  0  0  0  0
  161.3450  201.7360  146.7150 C   0  0  0  0  0  2  0  0  0  0  0  0
  161.6300  206.7040  149.4860 N   0  0  0  0  0  0  0  0  0  0  0  0
  161.2160  207.2410  153.1200 C   0  0  0  0  0  3  0  0  0  0  0  0
  161.3780  203.0660  147.3770 N   0  0  0  0  0  0  0  0  0  0  0  0
  159.4400  201.0600  145.0910 C   0  0  0  0  0  2  0  0  0  0  0  0
  161.7460  209.1690  151.5040 C   0  0  0  0  0  0  0  0  0  0  0  0
  161.2810  204.3270  149.4560 C   0  0  0  0  0  0  0  0  0  0  0  0
  161.7950  204.3550  145.2100 C   0  0  0  0  0  2  0  0  0  0  0  0
  161.5460  205.4950  148.8040 C   0  0  0  0  0  0  0  0  0  0  0  0
  160.7370  201.9380  150.8410 C   0  0  0  0  0  3  0  0  0  0  0  0
  162.0500  209.1350  149.0210 C   0  0  0  0  0  3  0  0  0  0  0  0
  160.9240  201.9170  149.4600 C   0  0  0  0  0  3  0  0  0  0  0  0
  161.9000  207.8650  148.6710 C   0  0  0  0  0  3  0  0  0  0  0  0
  161.4860  207.7300  151.7230 C   0  0  0  0  0  0  0  0  0  0  0  0
  160.8200  203.1410  151.5360 C   0  0  0  0  0  3  0  0  0  0  0  0
  161.1780  205.5390  151.5290 C   0  0  0  0  0  0  0  0  0  0  0  0
  161.7630  210.0820  152.6870 C   0  0  0  0  0  2  0  0  0  0  0  0
  160.4630  210.8670  152.7640 C   0  0  0  0  0  2  0  0  0  0  0  0
  159.2030  210.1470  155.6760 O   0  0  0  0  0  0  0  0  0  0  0  0
  161.3350  210.9640  155.0790 C   0  0  0  0  0  2  0  0  0  0  0  0
  160.3290  211.5360  154.1210 C   0  0  2  0  0  3  0  0  0  0  0  0
  160.4920  210.3700  156.1800 C   0  0  0  0  0  2  0  0  0  0  0  0
  158.9970  211.1660  154.7340 C   0  0  0  0  0  2  0  0  0  0  0  0
  1 27  2  0  0  0  0
  1 26  1  0  0  0  0
  2 14  2  0  0  0  0
  3  7  1  6  0  0  0
  4 18  1  0  0  0  0
  4 23  2  0  0  0  0
  5 15  1  0  0  0  0
  5 11  2  0  0  0  0
  6 19  1  0  0  0  0
  7  6  1  0  0  0  0
  8 16  1  1  0  0  0
  8  3  1  0  0  0  0
  8 12  1  0  0  0  0
  9 27  1  0  0  0  0
  9 25  2  0  0  0  0
 10 17  2  0  0  0  0
 11 20  1  0  0  0  0
 12 15  1  0  0  0  0
 13  9  1  0  0  0  0
 15  4  1  0  0  0  0
 16  3  1  0  0  0  0
 17 25  1  0  0  0  0
 17 28  1  0  0  0  0
 18  1  1  0  0  0  0
 19  5  1  0  0  0  0
 20 18  2  0  0  0  0
 20 13  1  0  0  0  0
 21 26  2  0  0  0  0
 22 10  1  0  0  0  0
 23 21  1  0  0  0  0
 24 22  2  0  0  0  0
 24 13  1  0  0  0  0
 25 14  1  0  0  0  0
 27  2  1  0  0  0  0
 28 29  1  0  0  0  0
 30 33  1  0  0  0  0
 31 33  1  0  0  0  0
 32 29  1  6  0  0  0
 32 34  1  0  0  0  0
 32 31  1  0  0  0  0
 34 30  1  0  0  0  0
M  END
>  <MODEL>
1

>  <REMARK>
 VINA RESULT:     -11.0      0.000      0.000
  Name = 
  3 active torsions:
  status: ('A' for Active; 'I' for Inactive)
    1  A    between atoms: C_17  and  C_28
    2  A    between atoms: C_28  and  C_29
    3  A    between atoms: C_29  and  C_32
                            x       y       z     vdW  Elec       q    Type
                         _______ _______ _______ _____ _____    ______ ____

>  <TORSDO>
F 3

$$$$
=
 OpenBabel11122414313D

 34 41  0  0  1  0  0  0  0  0999 V2000
  161.0420  203.9590  151.0520 C   0  0  0  0  0  0  0  0  0  0  0  0
  160.9410  205.2630  153.2500 C   0  0  0  0  0  3  0  0  0  0  0  0
  159.5020  202.4600  145.4480 C   0  0  2  0  0  3  0  0  0  0  0  0
  161.1710  202.8310  148.8830 C   0  0  0  0  0  0  0  0  0  0  0  0
  161.6540  204.0750  146.9140 C   0  0  0  0  0  0  0  0  0  0  0  0
  160.4840  204.6450  144.7640 C   0  0  0  0  0  2  0  0  0  0  0  0
  159.6640  203.4300  144.2980 C   0  0  0  0  0  2  0  0  0  0  0  0
  160.7840  201.6510  145.3790 C   0  0  1  0  0  3  0  0  0  0  0  0
  161.4090  206.3340  151.1750 C   0  0  0  0  0  0  0  0  0  0  0  0
  161.9690  209.3860  150.8150 C   0  0  0  0  0  3  0  0  0  0  0  0
  161.7260  205.2370  147.6790 C   0  0  0  0  0  3  0  0  0  0  0  0
  161.3380  201.5700  146.7930 C   0  0  0  0  0  2  0  0  0  0  0  0
  161.6110  206.3940  149.8100 N   0  0  0  0  0  0  0  0  0  0  0  0
  161.1520  206.7520  153.4610 C   0  0  0  0  0  3  0  0  0  0  0  0
  161.3680  202.8660  147.5210 N   0  0  0  0  0  0  0  0  0  0  0  0
  159.4510  200.9840  145.1140 C   0  0  0  0  0  2  0  0  0  0  0  0
  161.7120  208.7550  151.9490 C   0  0  0  0  0  0  0  0  0  0  0  0
  161.2510  204.0220  149.6590 C   0  0  0  0  0  0  0  0  0  0  0  0
  161.8190  204.2580  145.4250 C   0  0  0  0  0  2  0  0  0  0  0  0
  161.5290  205.2200  149.0680 C   0  0  0  0  0  0  0  0  0  0  0  0
  160.6780  201.5710  150.9170 C   0  0  0  0  0  3  0  0  0  0  0  0
  162.0470  208.8420  149.4710 C   0  0  0  0  0  3  0  0  0  0  0  0
  160.8830  201.6170  149.5390 C   0  0  0  0  0  3  0  0  0  0  0  0
  161.8960  207.5920  149.0570 C   0  0  0  0  0  3  0  0  0  0  0  0
  161.4420  207.3080  152.0930 C   0  0  0  0  0  0  0  0  0  0  0  0
  160.7580  202.7380  151.6720 C   0  0  0  0  0  3  0  0  0  0  0  0
  161.1270  205.1320  151.7870 C   0  0  0  0  0  0  0  0  0  0  0  0
  161.7180  209.6090  153.1760 C   0  0  0  0  0  2  0  0  0  0  0  0
  161.0290  210.9350  152.8970 C   0  0  0  0  0  2  0  0  0  0  0  0
  158.7820  212.5190  154.6360 O   0  0  0  0  0  0  0  0  0  0  0  0
  158.7950  211.8610  152.3700 C   0  0  0  0  0  2  0  0  0  0  0  0
  159.5380  210.8240  153.1630 C   0  0  2  0  0  3  0  0  0  0  0  0
  158.1090  212.6990  153.4200 C   0  0  0  0  0  2  0  0  0  0  0  0
  159.2550  211.1990  154.6010 C   0  0  0  0  0  2  0  0  0  0  0  0
  1 26  1  0  0  0  0
  1 27  2  0  0  0  0
  2 14  2  0  0  0  0
  3  7  1  6  0  0  0
  4 23  2  0  0  0  0
  4 18  1  0  0  0  0
  5 15  1  0  0  0  0
  5 11  2  0  0  0  0
  6 19  1  0  0  0  0
  7  6  1  0  0  0  0
  8 16  1  1  0  0  0
  8  3  1  0  0  0  0
  8 12  1  0  0  0  0
  9 27  1  0  0  0  0
  9 25  2  0  0  0  0
 10 17  2  0  0  0  0
 11 20  1  0  0  0  0
 12 15  1  0  0  0  0
 13  9  1  0  0  0  0
 15  4  1  0  0  0  0
 16  3  1  0  0  0  0
 17 25  1  0  0  0  0
 17 28  1  0  0  0  0
 18  1  1  0  0  0  0
 19  5  1  0  0  0  0
 20 18  2  0  0  0  0
 20 13  1  0  0  0  0
 21 26  2  0  0  0  0
 22 10  1  0  0  0  0
 23 21  1  0  0  0  0
 24 22  2  0  0  0  0
 24 13  1  0  0  0  0
 25 14  1  0  0  0  0
 27  2  1  0  0  0  0
 29 28  1  0  0  0  0
 31 32  1  0  0  0  0
 31 33  1  0  0  0  0
 32 29  1  1  0  0  0
 32 34  1  0  0  0  0
 33 30  1  0  0  0  0
 34 30  1  0  0  0  0
M  END
>  <MODEL>
2

>  <REMARK>
 VINA RESULT:     -10.6      0.821      1.182
  Name = 
  3 active torsions:
  status: ('A' for Active; 'I' for Inactive)
    1  A    between atoms: C_17  and  C_28
    2  A    between atoms: C_28  and  C_29
    3  A    between atoms: C_29  and  C_32
                            x       y       z     vdW  Elec       q    Type
                         _______ _______ _______ _____ _____    ______ ____

>  <TORSDO>
F 3

$$$$
=
 OpenBabel11122414313D

 34 41  0  0  1  0  0  0  0  0999 V2000
  161.6690  207.5390  149.7650 C   0  0  0  0  0  0  0  0  0  0  0  0
  161.6370  205.8420  147.8510 C   0  0  0  0  0  3  0  0  0  0  0  0
  159.5310  210.6000  154.4650 C   0  0  2  0  0  3  0  0  0  0  0  0
  161.6820  209.0560  151.6880 C   0  0  0  0  0  0  0  0  0  0  0  0
  161.3530  208.2050  153.8850 C   0  0  0  0  0  0  0  0  0  0  0  0
  159.6500  208.4480  155.7170 C   0  0  0  0  0  2  0  0  0  0  0  0
  159.1550  209.9040  155.7550 C   0  0  0  0  0  2  0  0  0  0  0  0
  160.9530  211.0520  154.7380 C   0  0  1  0  0  3  0  0  0  0  0  0
  161.3250  205.1830  150.1190 C   0  0  0  0  0  0  0  0  0  0  0  0
  160.8590  202.2510  151.0880 C   0  0  0  0  0  3  0  0  0  0  0  0
  161.2300  206.9220  153.3580 C   0  0  0  0  0  3  0  0  0  0  0  0
  161.7840  210.6700  153.5220 C   0  0  0  0  0  2  0  0  0  0  0  0
  161.2140  205.3830  151.4800 N   0  0  0  0  0  0  0  0  0  0  0  0
  161.4310  204.3410  147.9400 C   0  0  0  0  0  3  0  0  0  0  0  0
  161.5740  209.2790  153.0420 N   0  0  0  0  0  0  0  0  0  0  0  0
  159.8560  212.0760  154.5370 C   0  0  0  0  0  2  0  0  0  0  0  0
  161.0410  202.6550  149.8420 C   0  0  0  0  0  0  0  0  0  0  0  0
  161.5580  207.7400  151.1570 C   0  0  0  0  0  0  0  0  0  0  0  0
  161.1460  208.3270  155.3740 C   0  0  0  0  0  2  0  0  0  0  0  0
  161.3370  206.6760  151.9810 C   0  0  0  0  0  0  0  0  0  0  0  0
  162.0180  209.9080  149.4230 C   0  0  0  0  0  3  0  0  0  0  0  0
  160.8170  203.0450  152.3030 C   0  0  0  0  0  3  0  0  0  0  0  0
  161.9110  210.1230  150.7960 C   0  0  0  0  0  3  0  0  0  0  0  0
  160.9660  204.3530  152.4610 C   0  0  0  0  0  3  0  0  0  0  0  0
  161.2530  204.0520  149.4060 C   0  0  0  0  0  0  0  0  0  0  0  0
  161.8980  208.6210  148.9090 C   0  0  0  0  0  3  0  0  0  0  0  0
  161.5480  206.2490  149.2720 C   0  0  0  0  0  0  0  0  0  0  0  0
  161.0430  201.5740  148.8090 C   0  0  0  0  0  2  0  0  0  0  0  0
  160.1710  201.9720  147.6290 C   0  0  0  0  0  2  0  0  0  0  0  0
  160.5150  199.4820  145.5640 O   0  0  0  0  0  0  0  0  0  0  0  0
  159.9190  201.7320  145.1790 C   0  0  0  0  0  2  0  0  0  0  0  0
  160.8920  201.6950  146.3220 C   0  0  2  0  0  3  0  0  0  0  0  0
  159.9960  200.3450  144.5900 C   0  0  0  0  0  2  0  0  0  0  0  0
  161.3980  200.2700  146.3180 C   0  0  0  0  0  2  0  0  0  0  0  0
  1 18  1  0  0  0  0
  2 14  2  0  0  0  0
  2 27  1  0  0  0  0
  3 16  1  1  0  0  0
  3  8  1  0  0  0  0
  3  7  1  0  0  0  0
  4 15  1  0  0  0  0
  5 19  1  0  0  0  0
  6  7  1  0  0  0  0
  8 12  1  6  0  0  0
  9 13  1  0  0  0  0
 10 22  1  0  0  0  0
 11  5  2  0  0  0  0
 13 20  1  0  0  0  0
 13 24  1  0  0  0  0
 14 25  1  0  0  0  0
 15 12  1  0  0  0  0
 15  5  1  0  0  0  0
 16  8  1  0  0  0  0
 17 10  2  0  0  0  0
 18  4  1  0  0  0  0
 18 20  2  0  0  0  0
 19  6  1  0  0  0  0
 20 11  1  0  0  0  0
 21 23  1  0  0  0  0
 22 24  2  0  0  0  0
 23  4  2  0  0  0  0
 25 17  1  0  0  0  0
 25  9  2  0  0  0  0
 26 21  2  0  0  0  0
 26  1  1  0  0  0  0
 27  1  2  0  0  0  0
 27  9  1  0  0  0  0
 28 17  1  0  0  0  0
 29 28  1  0  0  0  0
 30 34  1  0  0  0  0
 31 32  1  0  0  0  0
 32 29  1  1  0  0  0
 33 31  1  0  0  0  0
 33 30  1  0  0  0  0
 34 32  1  0  0  0  0
M  END
>  <MODEL>
3

>  <REMARK>
 VINA RESULT:      -9.7      2.920      9.378
  Name = 
  3 active torsions:
  status: ('A' for Active; 'I' for Inactive)
    1  A    between atoms: C_17  and  C_28
    2  A    between atoms: C_28  and  C_29
    3  A    between atoms: C_29  and  C_32
                            x       y       z     vdW  Elec       q    Type
                         _______ _______ _______ _____ _____    ______ ____

>  <TORSDO>
F 3

$$$$
=
 OpenBabel11122414313D

 34 41  0  0  1  0  0  0  0  0999 V2000
  161.7280  207.6940  149.8820 C   0  0  0  0  0  0  0  0  0  0  0  0
  161.7500  206.1200  147.8660 C   0  0  0  0  0  3  0  0  0  0  0  0
  159.4730  210.4290  154.7260 C   0  0  2  0  0  3  0  0  0  0  0  0
  161.6890  209.0880  151.8950 C   0  0  0  0  0  0  0  0  0  0  0  0
  161.3370  208.0990  154.0290 C   0  0  0  0  0  0  0  0  0  0  0  0
  159.6010  208.2060  155.8440 C   0  0  0  0  0  2  0  0  0  0  0  0
  159.0860  209.6500  155.9640 C   0  0  0  0  0  2  0  0  0  0  0  0
  160.8840  210.8810  155.0510 C   0  0  1  0  0  3  0  0  0  0  0  0
  161.4110  205.3170  150.0830 C   0  0  0  0  0  0  0  0  0  0  0  0
  160.9680  202.3240  150.8600 C   0  0  0  0  0  3  0  0  0  0  0  0
  161.2390  206.8490  153.4220 C   0  0  0  0  0  3  0  0  0  0  0  0
  161.7400  210.5860  153.8280 C   0  0  0  0  0  2  0  0  0  0  0  0
  161.2750  205.4310  151.4520 N   0  0  0  0  0  0  0  0  0  0  0  0
  161.5620  204.6140  147.8580 C   0  0  0  0  0  3  0  0  0  0  0  0
  161.5570  209.2260  153.2580 N   0  0  0  0  0  0  0  0  0  0  0  0
  159.7770  211.9020  154.8950 C   0  0  0  0  0  2  0  0  0  0  0  0
  161.1650  202.8080  149.6440 C   0  0  0  0  0  0  0  0  0  0  0  0
  161.5920  207.8070  151.2820 C   0  0  0  0  0  0  0  0  0  0  0  0
  161.1040  208.1240  155.5200 C   0  0  0  0  0  2  0  0  0  0  0  0
  161.3720  206.6910  152.0330 C   0  0  0  0  0  0  0  0  0  0  0  0
  162.0510  210.0850  149.6940 C   0  0  0  0  0  3  0  0  0  0  0  0
  160.8960  203.0410  152.1210 C   0  0  0  0  0  3  0  0  0  0  0  0
  161.9180  210.2120  151.0760 C   0  0  0  0  0  3  0  0  0  0  0  0
  161.0250  204.3380  152.3620 C   0  0  0  0  0  3  0  0  0  0  0  0
  161.3650  204.2320  149.3000 C   0  0  0  0  0  0  0  0  0  0  0  0
  161.9560  208.8300  149.0990 C   0  0  0  0  0  3  0  0  0  0  0  0
  161.6320  206.4360  149.3080 C   0  0  0  0  0  0  0  0  0  0  0  0
  161.1980  201.7930  148.5470 C   0  0  0  0  0  2  0  0  0  0  0  0
  160.1550  202.1250  147.4920 C   0  0  0  0  0  2  0  0  0  0  0  0
  159.2720  202.7810  144.4300 O   0  0  0  0  0  0  0  0  0  0  0  0
  161.2640  203.2680  145.5980 C   0  0  0  0  0  2  0  0  0  0  0  0
  160.7370  201.9540  146.1000 C   0  0  2  0  0  3  0  0  0  0  0  0
  160.4500  203.5370  144.3560 C   0  0  0  0  0  2  0  0  0  0  0  0
  159.6270  201.6170  145.1290 C   0  0  0  0  0  2  0  0  0  0  0  0
  1 18  1  0  0  0  0
  2 27  1  0  0  0  0
  3 16  1  1  0  0  0
  3  8  1  0  0  0  0
  3  7  1  0  0  0  0
  4 15  1  0  0  0  0
  5 19  1  0  0  0  0
  6  7  1  0  0  0  0
  8 12  1  6  0  0  0
  9 13  1  0  0  0  0
 10 22  1  0  0  0  0
 11  5  2  0  0  0  0
 13 20  1  0  0  0  0
 13 24  1  0  0  0  0
 14  2  2  0  0  0  0
 14 25  1  0  0  0  0
 15 12  1  0  0  0  0
 15  5  1  0  0  0  0
 16  8  1  0  0  0  0
 17 10  2  0  0  0  0
 18  4  1  0  0  0  0
 18 20  2  0  0  0  0
 19  6  1  0  0  0  0
 20 11  1  0  0  0  0
 21 23  1  0  0  0  0
 22 24  2  0  0  0  0
 23  4  2  0  0  0  0
 25 17  1  0  0  0  0
 25  9  2  0  0  0  0
 26 21  2  0  0  0  0
 26  1  1  0  0  0  0
 27  1  2  0  0  0  0
 27  9  1  0  0  0  0
 28 17  1  0  0  0  0
 29 28  1  0  0  0  0
 30 34  1  0  0  0  0
 31 32  1  0  0  0  0
 32 29  1  1  0  0  0
 33 30  1  0  0  0  0
 33 31  1  0  0  0  0
 34 32  1  0  0  0  0
M  END
>  <MODEL>
4

>  <REMARK>
 VINA RESULT:      -9.4      2.684      9.195
  Name = 
  3 active torsions:
  status: ('A' for Active; 'I' for Inactive)
    1  A    between atoms: C_17  and  C_28
    2  A    between atoms: C_28  and  C_29
    3  A    between atoms: C_29  and  C_32
                            x       y       z     vdW  Elec       q    Type
                         _______ _______ _______ _____ _____    ______ ____

>  <TORSDO>
F 3

$$$$
