=
 OpenBabel11122413013D

 32 37  0  0  1  0  0  0  0  0999 V2000
  161.8850  208.5980  150.5450 C   0  0  1  0  0  3  0  0  0  0  0  0
  161.4690  209.8950  154.6120 O   0  0  0  0  0  0  0  0  0  0  0  0
  161.1970  211.1900  154.1350 C   0  0  0  0  0  2  0  0  0  0  0  0
  162.1550  210.5750  148.8960 C   0  0  0  0  0  0  0  0  0  0  0  0
  161.7350  211.9710  148.5640 C   0  0  2  0  0  3  0  0  0  0  0  0
  161.4540  206.2900  149.5030 C   0  0  2  0  0  3  0  0  0  0  0  0
  161.3850  206.8230  151.9090 O   0  0  0  0  0  0  0  0  0  0  0  0
  161.3000  214.1210  149.4800 C   0  0  1  0  0  3  0  0  0  0  0  0
  161.8400  209.1190  153.4970 C   0  0  0  0  0  2  0  0  0  0  0  0
  160.8910  208.0060  151.4550 N   0  0  1  0  0  0  0  0  0  0  0  0
  160.6120  208.8890  152.5980 C   0  0  2  0  0  3  0  0  0  0  0  0
  160.9400  210.8600  151.0450 C   0  0  2  0  0  3  0  0  0  0  0  0
  162.2690  214.2860  148.3030 C   0  0  0  0  0  2  0  0  0  0  0  0
  161.0430  205.8630  150.9330 C   0  0  2  0  0  3  0  0  0  0  0  0
  162.7320  212.8830  147.8940 C   0  0  0  0  0  2  0  0  0  0  0  0
  159.9030  211.1890  153.3140 C   0  0  0  0  0  2  0  0  0  0  0  0
  160.0380  210.2400  152.1190 C   0  0  2  0  0  3  0  0  0  0  0  0
  160.4000  212.0680  150.5400 O   0  0  0  0  0  0  0  0  0  0  0  0
  162.3260  207.5520  149.5040 C   0  0  0  0  0  2  0  0  0  0  0  0
  163.0710  210.0250  148.3030 O   0  0  0  0  0  0  0  0  0  0  0  0
  159.9950  214.3510  149.0370 O   0  0  0  0  0  1  0  0  0  0  0  0
  161.2810  209.8570  149.9110 C   0  0  2  0  0  3  0  0  0  0  0  0
  161.4760  212.6710  149.8670 C   0  0  1  0  0  3  0  0  0  0  0  0
  160.9890  203.8940  152.4480 C   0  0  0  0  0  2  0  0  0  0  0  0
  161.7000  204.5380  151.2750 C   0  0  1  0  0  3  0  0  0  0  0  0
  160.7060  203.4180  151.0390 C   0  0  1  0  0  3  0  0  0  0  0  0
  161.4670  202.1350  150.7730 C   0  0  0  0  0  2  0  0  0  0  0  0
  160.8240  201.3920  149.6550 C   0  0  0  0  0  0  0  0  0  0  0  0
  161.6050  200.6740  148.7580 O   0  0  0  0  0  0  0  0  0  0  0  0
  159.5760  201.4410  149.5010 O   0  0  0  0  0  1  0  0  0  0  0  0
  160.5660  206.4090  147.1730 C   0  0  0  0  0  1  0  0  0  0  0  0
  160.2210  206.5250  148.6450 C   0  0  0  0  0  2  0  0  0  0  0  0
  1 19  1  6  0  0  0
  1 10  1  0  0  0  0
  3  2  1  0  0  0  0
  5 15  1  1  0  0  0
  5  4  1  0  0  0  0
  5 23  1  0  0  0  0
  6 32  1  6  0  0  0
  6 19  1  0  0  0  0
  6 14  1  0  0  0  0
  8 21  1  6  0  0  0
  8 23  1  0  0  0  0
  9  2  1  0  0  0  0
 10  7  1  1  0  0  0
 10 11  1  0  0  0  0
 11  9  1  6  0  0  0
 12 18  1  6  0  0  0
 12 17  1  0  0  0  0
 13  8  1  0  0  0  0
 14 25  1  0  0  0  0
 14  7  1  1  0  0  0
 15 13  1  0  0  0  0
 16  3  1  0  0  0  0
 17 11  1  0  0  0  0
 17 16  1  1  0  0  0
 20  4  2  0  0  0  0
 22  4  1  6  0  0  0
 22  1  1  0  0  0  0
 22 12  1  0  0  0  0
 23 18  1  6  0  0  0
 25 24  1  1  0  0  0
 26 27  1  1  0  0  0
 26 25  1  0  0  0  0
 26 24  1  0  0  0  0
 28 27  1  0  0  0  0
 29 28  2  0  0  0  0
 30 28  1  0  0  0  0
 31 32  1  0  0  0  0
M  END
>  <MODEL>
1

>  <REMARK>
 VINA RESULT:      -6.1      0.000      0.000
  Name = 
  4 active torsions:
  status: ('A' for Active; 'I' for Inactive)
    1  A    between atoms: C_7  and  C_19
    2  A    between atoms: C_10  and  C_17
    3  A    between atoms: C_20  and  C_29
    4  A    between atoms: C_29  and  C_30
                            x       y       z     vdW  Elec       q    Type
                         _______ _______ _______ _____ _____    ______ ____

>  <TORSDO>
F 4

$$$$
=
 OpenBabel11122413013D

 32 37  0  0  1  0  0  0  0  0999 V2000
  161.8020  206.0860  151.8840 C   0  0  1  0  0  3  0  0  0  0  0  0
  162.5920  208.2060  148.2410 O   0  0  0  0  0  0  0  0  0  0  0  0
  162.1330  207.0830  147.5290 C   0  0  0  0  0  2  0  0  0  0  0  0
  161.4730  203.5470  151.5040 C   0  0  0  0  0  0  0  0  0  0  0  0
  160.9130  202.4970  150.5970 C   0  0  2  0  0  3  0  0  0  0  0  0
  161.1720  206.9850  154.2060 C   0  0  2  0  0  3  0  0  0  0  0  0
  161.8170  208.3490  152.2570 O   0  0  0  0  0  0  0  0  0  0  0  0
  160.6880  201.8340  148.3260 C   0  0  1  0  0  3  0  0  0  0  0  0
  162.6380  207.8360  149.5990 C   0  0  0  0  0  2  0  0  0  0  0  0
  161.1590  207.3720  151.5760 N   0  0  1  0  0  0  0  0  0  0  0  0
  161.2050  207.6670  150.1360 C   0  0  2  0  0  3  0  0  0  0  0  0
  160.9600  205.1850  149.7070 C   0  0  2  0  0  3  0  0  0  0  0  0
  161.2440  200.6470  149.1200 C   0  0  0  0  0  2  0  0  0  0  0  0
  161.2340  208.3810  153.5420 C   0  0  2  0  0  3  0  0  0  0  0  0
  161.6180  201.1670  150.5130 C   0  0  0  0  0  2  0  0  0  0  0  0
  160.6510  206.8340  147.8320 C   0  0  0  0  0  2  0  0  0  0  0  0
  160.4550  206.5840  149.3310 C   0  0  2  0  0  3  0  0  0  0  0  0
  160.2410  204.1690  149.0330 O   0  0  0  0  0  0  0  0  0  0  0  0
  161.9490  205.9280  153.4100 C   0  0  0  0  0  2  0  0  0  0  0  0
  162.1860  203.2570  152.4520 O   0  0  0  0  0  0  0  0  0  0  0  0
  159.3010  201.7030  148.2120 O   0  0  0  0  0  1  0  0  0  0  0  0
  160.9800  204.9600  151.2430 C   0  0  2  0  0  3  0  0  0  0  0  0
  161.0350  203.0210  149.1950 C   0  0  1  0  0  3  0  0  0  0  0  0
  162.0760  210.7060  153.7960 C   0  0  0  0  0  2  0  0  0  0  0  0
  162.0200  209.3300  154.4290 C   0  0  1  0  0  3  0  0  0  0  0  0
  161.0960  210.4290  154.9170 C   0  0  1  0  0  3  0  0  0  0  0  0
  161.6400  210.9860  156.2170 C   0  0  0  0  0  2  0  0  0  0  0  0
  160.5670  211.7270  156.9340 C   0  0  0  0  0  0  0  0  0  0  0  0
  159.3570  211.1030  157.2110 O   0  0  0  0  0  0  0  0  0  0  0  0
  160.7420  212.9290  157.2610 O   0  0  0  0  0  1  0  0  0  0  0  0
  159.1940  206.9400  155.7300 C   0  0  0  0  0  1  0  0  0  0  0  0
  159.7270  206.5390  154.3670 C   0  0  0  0  0  2  0  0  0  0  0  0
  1 19  1  1  0  0  0
  2  9  1  0  0  0  0
  3 16  1  0  0  0  0
  3  2  1  0  0  0  0
  4 20  2  0  0  0  0
  5 15  1  6  0  0  0
  5  4  1  0  0  0  0
  6 32  1  6  0  0  0
  8 21  1  1  0  0  0
  8 13  1  0  0  0  0
  8 23  1  0  0  0  0
 10  1  1  0  0  0  0
 10  7  1  1  0  0  0
 11  9  1  6  0  0  0
 11 10  1  0  0  0  0
 12 18  1  6  0  0  0
 12 22  1  0  0  0  0
 13 15  1  0  0  0  0
 14  7  1  6  0  0  0
 14  6  1  0  0  0  0
 14 25  1  0  0  0  0
 17 16  1  6  0  0  0
 17 12  1  0  0  0  0
 17 11  1  0  0  0  0
 19  6  1  0  0  0  0
 22  4  1  6  0  0  0
 22  1  1  0  0  0  0
 23 18  1  1  0  0  0
 23  5  1  0  0  0  0
 24 26  1  0  0  0  0
 25 24  1  6  0  0  0
 25 26  1  0  0  0  0
 26 27  1  1  0  0  0
 27 28  1  0  0  0  0
 28 29  2  0  0  0  0
 28 30  1  0  0  0  0
 32 31  1  0  0  0  0
M  END
>  <MODEL>
2

>  <REMARK>
 VINA RESULT:      -5.9      2.927      8.384
  Name = 
  4 active torsions:
  status: ('A' for Active; 'I' for Inactive)
    1  A    between atoms: C_7  and  C_19
    2  A    between atoms: C_10  and  C_17
    3  A    between atoms: C_20  and  C_29
    4  A    between atoms: C_29  and  C_30
                            x       y       z     vdW  Elec       q    Type
                         _______ _______ _______ _____ _____    ______ ____

>  <TORSDO>
F 4

$$$$
=
 OpenBabel11122413013D

 32 37  0  0  1  0  0  0  0  0999 V2000
  160.5490  205.4770  150.3570 C   0  0  1  0  0  3  0  0  0  0  0  0
  159.9370  201.2760  150.9650 O   0  0  0  0  0  0  0  0  0  0  0  0
  160.3220  201.0610  149.6290 C   0  0  0  0  0  2  0  0  0  0  0  0
  160.7040  206.1040  147.8500 C   0  0  0  0  0  0  0  0  0  0  0  0
  161.1970  205.6860  146.5020 C   0  0  2  0  0  3  0  0  0  0  0  0
  161.2220  207.3000  152.0360 C   0  0  2  0  0  3  0  0  0  0  0  0
  160.6880  204.9570  152.5860 O   0  0  0  0  0  0  0  0  0  0  0  0
  161.3940  203.8480  145.0080 C   0  0  1  0  0  3  0  0  0  0  0  0
  159.8550  202.6690  151.1470 C   0  0  0  0  0  2  0  0  0  0  0  0
  161.2820  204.7220  151.3860 N   0  0  1  0  0  0  0  0  0  0  0  0
  161.2680  203.2780  151.1090 C   0  0  2  0  0  3  0  0  0  0  0  0
  161.3440  203.8370  148.6420 C   0  0  2  0  0  3  0  0  0  0  0  0
  160.7500  205.0160  144.2510 C   0  0  0  0  0  2  0  0  0  0  0  0
  161.2610  206.1520  153.0730 C   0  0  2  0  0  3  0  0  0  0  0  0
  160.4020  206.0920  145.2860 C   0  0  0  0  0  2  0  0  0  0  0  0
  161.7810  201.4860  149.4260 C   0  0  0  0  0  2  0  0  0  0  0  0
  161.9470  202.9730  149.7560 C   0  0  2  0  0  3  0  0  0  0  0  0
  161.9960  203.6260  147.4030 O   0  0  0  0  0  0  0  0  0  0  0  0
  160.3800  206.9410  150.8050 C   0  0  0  0  0  2  0  0  0  0  0  0
  159.9650  207.0670  147.9900 O   0  0  0  0  0  0  0  0  0  0  0  0
  162.7690  203.8400  144.7590 O   0  0  0  0  0  1  0  0  0  0  0  0
  161.2950  205.3410  149.0230 C   0  0  2  0  0  3  0  0  0  0  0  0
  161.1230  204.1870  146.4560 C   0  0  1  0  0  3  0  0  0  0  0  0
  161.5390  206.9660  155.4040 C   0  0  0  0  0  2  0  0  0  0  0  0
  160.5360  206.5830  154.3350 C   0  0  1  0  0  3  0  0  0  0  0  0
  160.8390  208.0430  154.6040 C   0  0  1  0  0  3  0  0  0  0  0  0
  159.7110  208.6350  155.4250 C   0  0  0  0  0  2  0  0  0  0  0  0
  159.7870  210.1210  155.3870 C   0  0  0  0  0  0  0  0  0  0  0  0
  161.0020  210.7490  155.1440 O   0  0  0  0  0  0  0  0  0  0  0  0
  158.7570  210.8100  155.6070 O   0  0  0  0  0  1  0  0  0  0  0  0
  162.5940  208.5290  150.3500 C   0  0  0  0  0  1  0  0  0  0  0  0
  162.6310  207.6670  151.5980 C   0  0  0  0  0  2  0  0  0  0  0  0
  1 19  1  1  0  0  0
  1 10  1  0  0  0  0
  2  9  1  0  0  0  0
  3  2  1  0  0  0  0
  4 20  2  0  0  0  0
  5 15  1  6  0  0  0
  5  4  1  0  0  0  0
  6 32  1  6  0  0  0
  6 14  1  0  0  0  0
  8 21  1  1  0  0  0
  8 23  1  0  0  0  0
 10  7  1  1  0  0  0
 11  9  1  6  0  0  0
 11 10  1  0  0  0  0
 12 18  1  6  0  0  0
 12 22  1  0  0  0  0
 12 17  1  0  0  0  0
 13  8  1  0  0  0  0
 13 15  1  0  0  0  0
 14  7  1  6  0  0  0
 14 25  1  0  0  0  0
 16  3  1  0  0  0  0
 17 16  1  6  0  0  0
 17 11  1  0  0  0  0
 19  6  1  0  0  0  0
 22  4  1  6  0  0  0
 22  1  1  0  0  0  0
 23  5  1  0  0  0  0
 23 18  1  1  0  0  0
 25 26  1  0  0  0  0
 25 24  1  1  0  0  0
 26 24  1  0  0  0  0
 26 27  1  1  0  0  0
 28 27  1  0  0  0  0
 28 30  1  0  0  0  0
 29 28  2  0  0  0  0
 31 32  1  0  0  0  0
M  END
>  <MODEL>
3

>  <REMARK>
 VINA RESULT:      -4.2      3.103      7.543
  Name = 
  4 active torsions:
  status: ('A' for Active; 'I' for Inactive)
    1  A    between atoms: C_7  and  C_19
    2  A    between atoms: C_10  and  C_17
    3  A    between atoms: C_20  and  C_29
    4  A    between atoms: C_29  and  C_30
                            x       y       z     vdW  Elec       q    Type
                         _______ _______ _______ _____ _____    ______ ____

>  <TORSDO>
F 4

$$$$
=
 OpenBabel11122413013D

 32 37  0  0  1  0  0  0  0  0999 V2000
  162.1180  206.7940  149.7190 C   0  0  1  0  0  3  0  0  0  0  0  0
  162.5080  205.9270  145.5370 O   0  0  0  0  0  0  0  0  0  0  0  0
  162.0200  204.6330  145.7950 C   0  0  0  0  0  2  0  0  0  0  0  0
  161.8330  204.6580  151.1530 C   0  0  0  0  0  0  0  0  0  0  0  0
  161.2250  203.2940  151.2270 C   0  0  2  0  0  3  0  0  0  0  0  0
  161.6740  209.0320  150.9000 C   0  0  2  0  0  3  0  0  0  0  0  0
  162.0970  208.7310  148.4900 O   0  0  0  0  0  0  0  0  0  0  0  0
  160.8150  201.2990  150.0030 C   0  0  1  0  0  3  0  0  0  0  0  0
  162.6880  206.5520  146.7860 C   0  0  0  0  0  2  0  0  0  0  0  0
  161.4100  207.5740  148.6910 N   0  0  1  0  0  0  0  0  0  0  0  0
  161.3160  206.8360  147.4230 C   0  0  2  0  0  3  0  0  0  0  0  0
  161.1090  204.7080  148.7760 C   0  0  2  0  0  3  0  0  0  0  0  0
  161.4770  200.9190  151.3320 C   0  0  0  0  0  2  0  0  0  0  0  0
  161.6330  209.6310  149.4730 C   0  0  2  0  0  3  0  0  0  0  0  0
  161.9600  202.2180  151.9870 C   0  0  0  0  0  2  0  0  0  0  0  0
  160.5810  204.7050  146.3160 C   0  0  0  0  0  2  0  0  0  0  0  0
  160.5300  205.5210  147.6120 C   0  0  2  0  0  3  0  0  0  0  0  0
  160.3630  203.5280  149.0150 O   0  0  0  0  0  0  0  0  0  0  0  0
  162.4070  207.6850  150.9430 C   0  0  0  0  0  2  0  0  0  0  0  0
  162.6380  205.0460  151.9860 O   0  0  0  0  0  0  0  0  0  0  0  0
  159.4280  201.1780  150.1280 O   0  0  0  0  0  1  0  0  0  0  0  0
  161.2760  205.5590  150.0630 C   0  0  2  0  0  3  0  0  0  0  0  0
  161.2030  202.7490  149.8280 C   0  0  1  0  0  3  0  0  0  0  0  0
  163.3490  210.8990  148.2000 C   0  0  0  0  0  2  0  0  0  0  0  0
  162.4670  210.8980  149.4310 C   0  0  1  0  0  3  0  0  0  0  0  0
  162.0710  211.7100  148.2140 C   0  0  1  0  0  3  0  0  0  0  0  0
  162.3960  213.1680  148.4680 C   0  0  0  0  0  2  0  0  0  0  0  0
  161.6530  214.0240  147.5040 C   0  0  0  0  0  0  0  0  0  0  0  0
  162.2650  214.4400  146.3290 O   0  0  0  0  0  0  0  0  0  0  0  0
  160.4810  214.4000  147.7670 O   0  0  0  0  0  1  0  0  0  0  0  0
  160.1630  209.4160  152.8510 C   0  0  0  0  0  1  0  0  0  0  0  0
  160.2640  208.8600  151.4430 C   0  0  0  0  0  2  0  0  0  0  0  0
  1 22  1  0  0  0  0
  1 19  1  1  0  0  0
  2  3  1  0  0  0  0
  2  9  1  0  0  0  0
  3 16  1  0  0  0  0
  4  5  1  0  0  0  0
  4 20  2  0  0  0  0
  5 15  1  1  0  0  0
  6 19  1  0  0  0  0
  6 32  1  6  0  0  0
  8 21  1  1  0  0  0
  8 13  1  0  0  0  0
 10  7  1  6  0  0  0
 10  1  1  0  0  0  0
 11  9  1  1  0  0  0
 11 17  1  0  0  0  0
 11 10  1  0  0  0  0
 12 18  1  1  0  0  0
 12 22  1  0  0  0  0
 13 15  1  0  0  0  0
 14  7  1  6  0  0  0
 14  6  1  0  0  0  0
 17 16  1  6  0  0  0
 17 12  1  0  0  0  0
 22  4  1  1  0  0  0
 23 18  1  6  0  0  0
 23  8  1  0  0  0  0
 23  5  1  0  0  0  0
 24 26  1  0  0  0  0
 25 24  1  6  0  0  0
 25 14  1  0  0  0  0
 26 27  1  1  0  0  0
 26 25  1  0  0  0  0
 28 30  1  0  0  0  0
 28 27  1  0  0  0  0
 29 28  2  0  0  0  0
 32 31  1  0  0  0  0
M  END
>  <MODEL>
4

>  <REMARK>
 VINA RESULT:      -3.4      1.822      8.757
  Name = 
  4 active torsions:
  status: ('A' for Active; 'I' for Inactive)
    1  A    between atoms: C_7  and  C_19
    2  A    between atoms: C_10  and  C_17
    3  A    between atoms: C_20  and  C_29
    4  A    between atoms: C_29  and  C_30
                            x       y       z     vdW  Elec       q    Type
                         _______ _______ _______ _____ _____    ______ ____

>  <TORSDO>
F 4

$$$$
=
 OpenBabel11122413013D

 32 37  0  0  1  0  0  0  0  0999 V2000
  162.0290  206.8340  149.7570 C   0  0  1  0  0  3  0  0  0  0  0  0
  161.9700  207.1520  154.0340 O   0  0  0  0  0  0  0  0  0  0  0  0
  161.7450  208.5340  153.8930 C   0  0  0  0  0  2  0  0  0  0  0  0
  162.3050  209.1300  148.5950 C   0  0  0  0  0  0  0  0  0  0  0  0
  161.9480  210.5820  148.6300 C   0  0  2  0  0  3  0  0  0  0  0  0
  161.3900  204.8570  148.2470 C   0  0  2  0  0  3  0  0  0  0  0  0
  161.5170  204.8110  150.7090 O   0  0  0  0  0  0  0  0  0  0  0  0
  161.7060  212.4720  150.0510 C   0  0  1  0  0  3  0  0  0  0  0  0
  162.2170  206.6460  152.7430 C   0  0  0  0  0  2  0  0  0  0  0  0
  161.0650  206.0880  150.5820 N   0  0  1  0  0  0  0  0  0  0  0  0
  160.9190  206.6870  151.9160 C   0  0  2  0  0  3  0  0  0  0  0  0
  161.2580  208.9530  150.8420 C   0  0  2  0  0  3  0  0  0  0  0  0
  162.6010  212.8680  148.8700 C   0  0  0  0  0  2  0  0  0  0  0  0
  161.0520  204.1230  149.5670 C   0  0  2  0  0  3  0  0  0  0  0  0
  162.9490  211.5830  148.1110 C   0  0  0  0  0  2  0  0  0  0  0  0
  160.4000  208.7820  153.2010 C   0  0  0  0  0  2  0  0  0  0  0  0
  160.3960  208.1360  151.8110 C   0  0  2  0  0  3  0  0  0  0  0  0
  160.7590  210.2670  150.6750 O   0  0  0  0  0  0  0  0  0  0  0  0
  162.3350  206.0450  148.4700 C   0  0  0  0  0  2  0  0  0  0  0  0
  163.1430  208.6970  147.8180 O   0  0  0  0  0  0  0  0  0  0  0  0
  160.3900  212.8550  149.7800 O   0  0  0  0  0  1  0  0  0  0  0  0
  161.4600  208.2320  149.4820 C   0  0  2  0  0  3  0  0  0  0  0  0
  161.8210  210.9650  150.0760 C   0  0  1  0  0  3  0  0  0  0  0  0
  160.8460  201.8010  150.4280 C   0  0  0  0  0  2  0  0  0  0  0  0
  161.6500  202.7280  149.5390 C   0  0  1  0  0  3  0  0  0  0  0  0
  160.6450  201.7720  148.9280 C   0  0  1  0  0  3  0  0  0  0  0  0
  161.3880  200.5900  148.3380 C   0  0  0  0  0  2  0  0  0  0  0  0
  161.1910  200.5590  146.8630 C   0  0  0  0  0  0  0  0  0  0  0  0
  160.8150  201.7120  146.1870 O   0  0  0  0  0  0  0  0  0  0  0  0
  161.3340  199.4800  146.2310 O   0  0  0  0  0  1  0  0  0  0  0  0
  160.4490  206.1980  146.3630 C   0  0  0  0  0  1  0  0  0  0  0  0
  160.1170  205.3390  147.5690 C   0  0  0  0  0  2  0  0  0  0  0  0
  1 19  1  6  0  0  0
  1 10  1  0  0  0  0
  3  2  1  0  0  0  0
  4  5  1  0  0  0  0
  5 15  1  1  0  0  0
  5 23  1  0  0  0  0
  6 32  1  1  0  0  0
  6 19  1  0  0  0  0
  6 14  1  0  0  0  0
  8 21  1  6  0  0  0
  8 23  1  0  0  0  0
  9  2  1  0  0  0  0
 10  7  1  1  0  0  0
 10 11  1  0  0  0  0
 11  9  1  6  0  0  0
 12 18  1  6  0  0  0
 12 17  1  0  0  0  0
 13  8  1  0  0  0  0
 14  7  1  1  0  0  0
 15 13  1  0  0  0  0
 16  3  1  0  0  0  0
 17 11  1  0  0  0  0
 17 16  1  1  0  0  0
 20  4  2  0  0  0  0
 22  4  1  6  0  0  0
 22  1  1  0  0  0  0
 22 12  1  0  0  0  0
 23 18  1  6  0  0  0
 25 14  1  0  0  0  0
 25 24  1  1  0  0  0
 26 27  1  6  0  0  0
 26 25  1  0  0  0  0
 26 24  1  0  0  0  0
 28 27  1  0  0  0  0
 29 28  2  0  0  0  0
 30 28  1  0  0  0  0
 31 32  1  0  0  0  0
M  END
>  <MODEL>
5

>  <REMARK>
 VINA RESULT:      -3.2      1.735      2.249
  Name = 
  4 active torsions:
  status: ('A' for Active; 'I' for Inactive)
    1  A    between atoms: C_7  and  C_19
    2  A    between atoms: C_10  and  C_17
    3  A    between atoms: C_20  and  C_29
    4  A    between atoms: C_29  and  C_30
                            x       y       z     vdW  Elec       q    Type
                         _______ _______ _______ _____ _____    ______ ____

>  <TORSDO>
F 4

$$$$
