=
 OpenBabel11122412363D

 30 35  0  0  1  0  0  0  0  0999 V2000
  160.9070  210.5290  152.3980 C   0  0  1  0  0  3  0  0  0  0  0  0
  161.0570  212.2540  150.5330 C   0  0  2  0  0  3  0  0  0  0  0  0
  158.3950  212.9170  154.5710 N   0  0  0  0  0  2  0  0  0  0  0  0
  159.9260  209.7820  153.3140 C   0  0  1  0  0  3  0  0  0  0  0  0
  161.8580  209.5850  151.6350 C   0  0  0  0  0  2  0  0  0  0  0  0
  161.5590  206.5370  153.4390 O   0  0  0  0  0  0  0  0  0  0  0  0
  161.8560  210.2640  155.3740 C   0  0  1  0  0  3  0  0  0  0  0  0
  161.2200  207.6560  153.0810 C   0  0  0  0  0  0  0  0  0  0  0  0
  160.8440  211.3760  155.6900 C   0  0  2  0  0  3  0  0  0  0  0  0
  158.6330  212.2200  155.8340 C   0  0  1  0  0  3  0  0  0  0  0  0
  161.4420  208.1120  151.6570 C   0  0  2  0  0  3  0  0  0  0  0  0
  160.4740  208.5440  154.0420 C   0  0  1  0  0  3  0  0  0  0  0  0
  160.4420  213.5230  149.9580 C   0  0  0  0  0  2  0  0  0  0  0  0
  161.1240  211.8260  157.0510 N   0  0  0  0  0  2  0  0  0  0  0  0
  162.9240  210.3720  156.4380 C   0  0  0  0  0  2  0  0  0  0  0  0
  161.4250  211.4230  149.4740 O   0  0  0  0  0  1  0  0  0  0  0  0
  158.7880  212.0350  153.5440 C   0  0  2  0  0  3  0  0  0  0  0  0
  160.0600  214.4530  151.0900 C   0  0  0  0  0  2  0  0  0  0  0  0
  160.1080  211.5000  151.4930 C   0  0  2  0  0  3  0  0  0  0  0  0
  159.0500  210.7180  154.1470 C   0  0  2  0  0  3  0  0  0  0  0  0
  157.3090  211.8510  156.4810 C   0  0  0  0  0  1  0  0  0  0  0  0
  159.4190  210.9970  155.5470 N   0  0  1  0  0  0  0  0  0  0  0  0
  162.5460  211.5900  157.2490 C   0  0  0  0  0  2  0  0  0  0  0  0
  160.5620  208.3960  156.5510 C   0  0  0  0  0  1  0  0  0  0  0  0
  158.9270  213.8310  151.8850 C   0  0  0  0  0  2  0  0  0  0  0  0
  159.2770  212.4500  152.3630 C   0  0  1  0  0  3  0  0  0  0  0  0
  161.3070  208.8320  155.2960 C   0  0  2  0  0  3  0  0  0  0  0  0
  162.4900  207.2670  150.9400 C   0  0  0  0  0  2  0  0  0  0  0  0
  160.8950  206.9310  149.0510 C   0  0  0  0  0  1  0  0  0  0  0  0
  162.3100  207.3230  149.4310 C   0  0  0  0  0  2  0  0  0  0  0  0
  1  5  1  6  0  0  0
  1  4  1  0  0  0  0
  2 16  1  6  0  0  0
  2 19  1  0  0  0  0
  3 10  1  0  0  0  0
  4 12  1  0  0  0  0
  4 20  1  0  0  0  0
  5 11  1  0  0  0  0
  7  9  1  0  0  0  0
  7 15  1  0  0  0  0
  8  6  2  0  0  0  0
  8 12  1  0  0  0  0
  9 14  1  0  0  0  0
 10 21  1  0  0  0  0
 11  8  1  0  0  0  0
 12 27  1  0  0  0  0
 13  2  1  0  0  0  0
 13 18  1  0  0  0  0
 14 23  1  0  0  0  0
 15 23  1  0  0  0  0
 17 20  1  0  0  0  0
 17  3  1  0  0  0  0
 18 25  1  0  0  0  0
 19 26  1  0  0  0  0
 19  1  1  0  0  0  0
 20 22  1  0  0  0  0
 22  9  1  0  0  0  0
 22 10  1  0  0  0  0
 25 26  1  0  0  0  0
 26 17  1  0  0  0  0
 27  7  1  0  0  0  0
 27 24  1  0  0  0  0
 28 11  1  0  0  0  0
 29 30  1  0  0  0  0
 30 28  1  0  0  0  0
M  END
>  <MODEL>
1

>  <REMARK>
 VINA RESULT:      -6.0      0.000      0.000
  Name = 
  2 active torsions:
  status: ('A' for Active; 'I' for Inactive)
    1  A    between atoms: C_11  and  C_28
    2  A    between atoms: C_28  and  C_30
                            x       y       z     vdW  Elec       q    Type
                         _______ _______ _______ _____ _____    ______ ____

>  <TORSDO>
F 2

$$$$
=
 OpenBabel11122412363D

 30 35  0  0  1  0  0  0  0  0999 V2000
  160.6700  209.2130  153.4660 C   0  0  1  0  0  3  0  0  0  0  0  0
  160.6430  206.9650  154.6580 C   0  0  2  0  0  3  0  0  0  0  0  0
  160.3470  211.2330  157.0090 N   0  0  0  0  0  2  0  0  0  0  0  0
  161.3050  210.6120  153.4800 C   0  0  1  0  0  3  0  0  0  0  0  0
  160.7820  208.5130  152.0970 C   0  0  0  0  0  2  0  0  0  0  0  0
  161.5730  211.1960  149.9030 O   0  0  0  0  0  0  0  0  0  0  0  0
  158.6600  211.5570  152.9210 C   0  0  1  0  0  3  0  0  0  0  0  0
  161.4670  210.6390  150.9860 C   0  0  0  0  0  0  0  0  0  0  0  0
  158.7290  211.8330  154.4310 C   0  0  2  0  0  3  0  0  0  0  0  0
  159.8930  212.4790  156.3930 C   0  0  1  0  0  3  0  0  0  0  0  0
  161.7740  209.1660  151.1310 C   0  0  2  0  0  3  0  0  0  0  0  0
  161.1350  211.4560  152.2070 C   0  0  1  0  0  3  0  0  0  0  0  0
  160.7750  206.2680  156.0060 C   0  0  0  0  0  2  0  0  0  0  0  0
  157.6540  212.7730  154.7370 N   0  0  0  0  0  2  0  0  0  0  0  0
  157.3090  212.0660  152.4760 C   0  0  0  0  0  2  0  0  0  0  0  0
  161.2750  206.1800  153.6930 O   0  0  0  0  0  1  0  0  0  0  0  0
  160.9700  210.4840  155.9900 C   0  0  2  0  0  3  0  0  0  0  0  0
  160.0710  207.0900  157.0660 C   0  0  0  0  0  2  0  0  0  0  0  0
  161.2370  208.3920  154.6510 C   0  0  2  0  0  3  0  0  0  0  0  0
  161.1070  211.3480  154.8060 C   0  0  2  0  0  3  0  0  0  0  0  0
  160.7320  213.6420  156.8930 C   0  0  0  0  0  1  0  0  0  0  0  0
  160.0290  212.3470  154.9240 N   0  0  1  0  0  0  0  0  0  0  0  0
  156.6210  212.5100  153.7470 C   0  0  0  0  0  2  0  0  0  0  0  0
  159.9300  213.6630  152.2160 C   0  0  0  0  0  1  0  0  0  0  0  0
  160.8180  208.3960  157.2600 C   0  0  0  0  0  2  0  0  0  0  0  0
  160.9820  209.1410  155.9650 C   0  0  1  0  0  3  0  0  0  0  0  0
  159.7790  212.1560  152.0570 C   0  0  2  0  0  3  0  0  0  0  0  0
  161.7460  208.4390  149.7890 C   0  0  0  0  0  2  0  0  0  0  0  0
  160.7290  206.5210  148.5580 C   0  0  0  0  0  1  0  0  0  0  0  0
  161.1250  207.0570  149.9210 C   0  0  0  0  0  2  0  0  0  0  0  0
  1  5  1  6  0  0  0
  1  4  1  0  0  0  0
  1 19  1  0  0  0  0
  2 16  1  6  0  0  0
  2 13  1  0  0  0  0
  4 20  1  0  0  0  0
  6  8  2  0  0  0  0
  7  9  1  0  0  0  0
  8 11  1  0  0  0  0
  8 12  1  0  0  0  0
  9 14  1  0  0  0  0
  9 22  1  0  0  0  0
 10 21  1  0  0  0  0
 10  3  1  0  0  0  0
 11  5  1  0  0  0  0
 12  4  1  0  0  0  0
 13 18  1  0  0  0  0
 15  7  1  0  0  0  0
 15 23  1  0  0  0  0
 17  3  1  0  0  0  0
 18 25  1  0  0  0  0
 19  2  1  0  0  0  0
 19 26  1  0  0  0  0
 20 22  1  0  0  0  0
 20 17  1  0  0  0  0
 22 10  1  0  0  0  0
 23 14  1  0  0  0  0
 26 17  1  0  0  0  0
 26 25  1  0  0  0  0
 27 12  1  0  0  0  0
 27 24  1  0  0  0  0
 27  7  1  0  0  0  0
 28 30  1  0  0  0  0
 28 11  1  0  0  0  0
 29 30  1  0  0  0  0
M  END
>  <MODEL>
2

>  <REMARK>
 VINA RESULT:      -4.5      1.305      4.886
  Name = 
  2 active torsions:
  status: ('A' for Active; 'I' for Inactive)
    1  A    between atoms: C_11  and  C_28
    2  A    between atoms: C_28  and  C_30
                            x       y       z     vdW  Elec       q    Type
                         _______ _______ _______ _____ _____    ______ ____

>  <TORSDO>
F 2

$$$$
