=
 OpenBabel11122413083D

 31 35  0  0  1  0  0  0  0  0999 V2000
  161.5990  207.0000  147.1720 C   0  0  0  0  0  0  0  0  0  0  0  0
  161.1950  205.1230  150.4150 C   0  0  0  0  0  0  0  0  0  0  0  0
  161.0570  203.7360  150.0780 C   0  0  0  0  0  0  0  0  0  0  0  0
  161.5360  209.4920  153.3680 O   0  0  0  0  0  0  0  0  0  0  0  0
  161.3610  208.4970  154.1200 C   0  0  0  0  0  0  0  0  0  0  0  0
  160.9450  201.9120  148.4520 C   0  0  0  0  0  0  0  0  0  0  0  0
  161.3710  206.1730  149.4610 C   0  0  0  0  0  0  0  0  0  0  0  0
  161.7200  208.3070  147.6420 C   0  0  0  0  0  3  0  0  0  0  0  0
  161.0820  203.2690  148.7500 C   0  0  0  0  0  3  0  0  0  0  0  0
  161.2840  206.8250  152.1840 C   0  0  0  0  0  0  0  0  0  0  0  0
  161.6500  206.7510  145.8420 F   0  0  0  0  0  0  0  0  0  0  0  0
  160.8520  203.1640  152.4420 C   0  0  0  0  0  3  0  0  0  0  0  0
  160.9770  201.4570  147.0370 C   0  0  0  0  0  1  0  0  0  0  0  0
  161.4490  207.7880  151.2430 N   0  0  0  0  0  0  0  0  0  0  0  0
  161.1540  205.4830  151.7950 C   0  0  0  0  0  0  0  0  0  0  0  0
  161.2400  207.1760  153.5750 N   0  0  0  0  0  2  0  0  0  0  0  0
  161.4270  205.9480  148.0730 C   0  0  0  0  0  3  0  0  0  0  0  0
  160.7790  200.9850  149.4790 C   0  0  0  0  0  3  0  0  0  0  0  0
  161.4950  207.5090  149.9190 C   0  0  0  0  0  0  0  0  0  0  0  0
  161.6680  208.5590  149.0130 C   0  0  0  0  0  3  0  0  0  0  0  0
  160.9840  204.5030  152.7800 C   0  0  0  0  0  3  0  0  0  0  0  0
  160.8860  202.7740  151.1090 C   0  0  0  0  0  0  0  0  0  0  0  0
  160.7500  201.4160  150.8050 C   0  0  0  0  0  3  0  0  0  0  0  0
  159.2990  210.5770  156.2720 C   0  0  1  0  0  3  0  0  0  0  0  0
  159.8860  208.3890  156.1470 C   0  0  0  0  0  2  0  0  0  0  0  0
  162.9330  210.4880  155.4410 C   0  0  0  0  0  1  0  0  0  0  0  0
  158.2770  211.5600  155.9630 N   0  0  0  0  0  1  0  0  0  0  0  0
  158.9490  209.3420  155.6980 O   0  0  0  0  0  0  0  0  0  0  0  0
  161.6780  210.0710  156.0520 N   0  0  0  0  0  0  0  0  0  0  0  0
  161.2870  208.7150  155.6120 C   0  0  2  0  0  3  0  0  0  0  0  0
  160.6440  211.0510  155.7150 C   0  0  0  0  0  2  0  0  0  0  0  0
  1  8  2  0  0  0  0
  1 17  1  0  0  0  0
  2 15  1  0  0  0  0
  3  2  2  0  0  0  0
  3 22  1  0  0  0  0
  4  5  2  0  0  0  0
  6  9  2  0  0  0  0
  6 18  1  0  0  0  0
  7 19  1  0  0  0  0
  7  2  1  0  0  0  0
  8 20  1  0  0  0  0
  9  3  1  0  0  0  0
 10 16  1  0  0  0  0
 11  1  1  0  0  0  0
 12 21  1  0  0  0  0
 13  6  1  0  0  0  0
 14 10  2  0  0  0  0
 15 10  1  0  0  0  0
 15 21  2  0  0  0  0
 16  5  1  0  0  0  0
 17  7  2  0  0  0  0
 18 23  2  0  0  0  0
 19 14  1  0  0  0  0
 20 19  2  0  0  0  0
 22 12  2  0  0  0  0
 23 22  1  0  0  0  0
 24 27  1  6  0  0  0
 26 29  1  0  0  0  0
 28 25  1  0  0  0  0
 28 24  1  0  0  0  0
 30  5  1  6  0  0  0
 30 29  1  0  0  0  0
 30 25  1  0  0  0  0
 31 29  1  0  0  0  0
 31 24  1  0  0  0  0
M  END
>  <MODEL>
1

>  <REMARK>
 VINA RESULT:     -11.0      0.000      0.000
  Name = 
  1 active torsions:
  status: ('A' for Active; 'I' for Inactive)
    1  A    between atoms: C_5  and  C_30
                            x       y       z     vdW  Elec       q    Type
                         _______ _______ _______ _____ _____    ______ ____

>  <TORSDO>
F 1

$$$$
=
 OpenBabel11122413083D

 31 35  0  0  1  0  0  0  0  0999 V2000
  161.9040  207.0150  147.2670 C   0  0  0  0  0  0  0  0  0  0  0  0
  161.3240  205.7910  150.7830 C   0  0  0  0  0  0  0  0  0  0  0  0
  161.1550  204.3690  150.7060 C   0  0  0  0  0  0  0  0  0  0  0  0
  161.6960  210.6270  152.8800 O   0  0  0  0  0  0  0  0  0  0  0  0
  161.4630  209.7960  153.7970 C   0  0  0  0  0  0  0  0  0  0  0  0
  161.0450  202.2750  149.4460 C   0  0  0  0  0  0  0  0  0  0  0  0
  161.5680  206.6380  149.6580 C   0  0  0  0  0  0  0  0  0  0  0  0
  162.0490  208.3830  147.4890 C   0  0  0  0  0  3  0  0  0  0  0  0
  161.2130  203.6600  149.4910 C   0  0  0  0  0  3  0  0  0  0  0  0
  161.4030  207.7930  152.2060 C   0  0  0  0  0  0  0  0  0  0  0  0
  161.9950  206.5190  146.0100 F   0  0  0  0  0  0  0  0  0  0  0  0
  160.8480  204.2570  153.1250 C   0  0  0  0  0  3  0  0  0  0  0  0
  161.1130  201.5620  148.1440 C   0  0  0  0  0  1  0  0  0  0  0  0
  161.6320  208.5570  151.1090 N   0  0  0  0  0  0  0  0  0  0  0  0
  161.2450  206.4050  152.0690 C   0  0  0  0  0  0  0  0  0  0  0  0
  161.3200  208.4000  153.5040 N   0  0  0  0  0  2  0  0  0  0  0  0
  161.6660  206.1550  148.3410 C   0  0  0  0  0  3  0  0  0  0  0  0
  160.8130  201.5630  150.6200 C   0  0  0  0  0  3  0  0  0  0  0  0
  161.7170  208.0330  149.8630 C   0  0  0  0  0  0  0  0  0  0  0  0
  161.9560  208.8900  148.7850 C   0  0  0  0  0  3  0  0  0  0  0  0
  161.0090  205.6310  153.2120 C   0  0  0  0  0  3  0  0  0  0  0  0
  160.9170  203.6220  151.8910 C   0  0  0  0  0  0  0  0  0  0  0  0
  160.7490  202.2350  151.8400 C   0  0  0  0  0  3  0  0  0  0  0  0
  160.5490  208.2370  156.9510 C   0  0  1  0  0  3  0  0  0  0  0  0
  162.2600  209.4990  156.1580 C   0  0  0  0  0  2  0  0  0  0  0  0
  159.0270  210.8900  154.8180 C   0  0  0  0  0  1  0  0  0  0  0  0
  160.1000  206.8930  157.2610 N   0  0  0  0  0  1  0  0  0  0  0  0
  161.7960  208.1760  156.3040 O   0  0  0  0  0  0  0  0  0  0  0  0
  159.9640  210.2840  155.7530 N   0  0  0  0  0  0  0  0  0  0  0  0
  161.3420  210.2920  155.2170 C   0  0  2  0  0  3  0  0  0  0  0  0
  159.5220  208.9190  156.0420 C   0  0  0  0  0  2  0  0  0  0  0  0
  1  8  2  0  0  0  0
  1 17  1  0  0  0  0
  2 15  1  0  0  0  0
  3  2  2  0  0  0  0
  3 22  1  0  0  0  0
  4  5  2  0  0  0  0
  6  9  2  0  0  0  0
  6 18  1  0  0  0  0
  7 19  1  0  0  0  0
  7  2  1  0  0  0  0
  8 20  1  0  0  0  0
  9  3  1  0  0  0  0
 10 16  1  0  0  0  0
 11  1  1  0  0  0  0
 12 21  1  0  0  0  0
 13  6  1  0  0  0  0
 14 10  2  0  0  0  0
 15 10  1  0  0  0  0
 15 21  2  0  0  0  0
 16  5  1  0  0  0  0
 17  7  2  0  0  0  0
 18 23  2  0  0  0  0
 19 14  1  0  0  0  0
 20 19  2  0  0  0  0
 22 12  2  0  0  0  0
 23 22  1  0  0  0  0
 24 27  1  6  0  0  0
 25 28  1  0  0  0  0
 26 29  1  0  0  0  0
 28 24  1  0  0  0  0
 29 31  1  0  0  0  0
 30  5  1  6  0  0  0
 30 29  1  0  0  0  0
 30 25  1  0  0  0  0
 31 24  1  0  0  0  0
M  END
>  <MODEL>
2

>  <REMARK>
 VINA RESULT:     -10.9      1.246      1.793
  Name = 
  1 active torsions:
  status: ('A' for Active; 'I' for Inactive)
    1  A    between atoms: C_5  and  C_30
                            x       y       z     vdW  Elec       q    Type
                         _______ _______ _______ _____ _____    ______ ____

>  <TORSDO>
F 1

$$$$
=
 OpenBabel11122413083D

 31 35  0  0  1  0  0  0  0  0999 V2000
  160.8050  202.1080  150.8820 C   0  0  0  0  0  0  0  0  0  0  0  0
  161.2600  205.4990  149.3030 C   0  0  0  0  0  0  0  0  0  0  0  0
  161.3140  205.2930  147.8850 C   0  0  0  0  0  0  0  0  0  0  0  0
  161.2680  208.0250  153.9440 O   0  0  0  0  0  0  0  0  0  0  0  0
  161.4260  208.8630  153.0180 C   0  0  0  0  0  0  0  0  0  0  0  0
  161.2620  203.8490  145.9110 C   0  0  0  0  0  0  0  0  0  0  0  0
  161.0940  204.4560  150.2650 C   0  0  0  0  0  0  0  0  0  0  0  0
  160.7710  202.4530  152.2320 C   0  0  0  0  0  3  0  0  0  0  0  0
  161.2060  204.0200  147.2960 C   0  0  0  0  0  3  0  0  0  0  0  0
  161.3340  207.0970  151.1680 C   0  0  0  0  0  0  0  0  0  0  0  0
  160.6840  200.8120  150.5110 F   0  0  0  0  0  0  0  0  0  0  0  0
  161.5940  207.6920  147.5300 C   0  0  0  0  0  3  0  0  0  0  0  0
  161.1450  202.4880  145.3260 C   0  0  0  0  0  1  0  0  0  0  0  0
  161.1760  206.0740  152.0440 N   0  0  0  0  0  0  0  0  0  0  0  0
  161.3790  206.8360  149.7890 C   0  0  0  0  0  0  0  0  0  0  0  0
  161.4570  208.4450  151.6460 N   0  0  0  0  0  2  0  0  0  0  0  0
  160.9660  203.1000  149.9130 C   0  0  0  0  0  3  0  0  0  0  0  0
  161.4270  204.9540  145.0790 C   0  0  0  0  0  3  0  0  0  0  0  0
  161.0570  204.7860  151.6430 C   0  0  0  0  0  0  0  0  0  0  0  0
  160.8960  203.7900  152.6110 C   0  0  0  0  0  3  0  0  0  0  0  0
  161.5440  207.9030  148.9000 C   0  0  0  0  0  3  0  0  0  0  0  0
  161.4820  206.4060  147.0170 C   0  0  0  0  0  0  0  0  0  0  0  0
  161.5370  206.2300  145.6310 C   0  0  0  0  0  3  0  0  0  0  0  0
  159.1510  211.4140  154.2550 C   0  0  1  0  0  3  0  0  0  0  0  0
  161.1800  210.5790  154.8330 C   0  0  0  0  0  2  0  0  0  0  0  0
  161.0560  210.9380  151.0850 C   0  0  0  0  0  1  0  0  0  0  0  0
  157.7250  211.3790  154.5210 N   0  0  0  0  0  1  0  0  0  0  0  0
  159.7920  210.4110  155.0060 O   0  0  0  0  0  0  0  0  0  0  0  0
  160.8310  211.2470  152.4910 N   0  0  0  0  0  0  0  0  0  0  0  0
  161.5770  210.3230  153.3720 C   0  0  2  0  0  3  0  0  0  0  0  0
  159.3940  211.1830  152.7610 C   0  0  0  0  0  2  0  0  0  0  0  0
  1  8  1  0  0  0  0
  2 15  1  0  0  0  0
  2  7  1  0  0  0  0
  3  2  2  0  0  0  0
  5  4  2  0  0  0  0
  6  9  2  0  0  0  0
  7 19  2  0  0  0  0
  8 20  2  0  0  0  0
  9  3  1  0  0  0  0
 10 16  1  0  0  0  0
 10 14  2  0  0  0  0
 11  1  1  0  0  0  0
 12 21  1  0  0  0  0
 13  6  1  0  0  0  0
 15 10  1  0  0  0  0
 16  5  1  0  0  0  0
 17  7  1  0  0  0  0
 17  1  2  0  0  0  0
 18 23  2  0  0  0  0
 18  6  1  0  0  0  0
 19 14  1  0  0  0  0
 19 20  1  0  0  0  0
 21 15  2  0  0  0  0
 22 12  2  0  0  0  0
 22  3  1  0  0  0  0
 23 22  1  0  0  0  0
 24 27  1  6  0  0  0
 24 28  1  0  0  0  0
 25 28  1  0  0  0  0
 26 29  1  0  0  0  0
 29 31  1  0  0  0  0
 29 30  1  0  0  0  0
 30  5  1  6  0  0  0
 30 25  1  0  0  0  0
 31 24  1  0  0  0  0
M  END
>  <MODEL>
3

>  <REMARK>
 VINA RESULT:     -10.4      2.179      4.104
  Name = 
  1 active torsions:
  status: ('A' for Active; 'I' for Inactive)
    1  A    between atoms: C_5  and  C_30
                            x       y       z     vdW  Elec       q    Type
                         _______ _______ _______ _____ _____    ______ ____

>  <TORSDO>
F 1

$$$$
=
 OpenBabel11122413083D

 31 35  0  0  1  0  0  0  0  0999 V2000
  161.1590  204.6090  152.4270 C   0  0  0  0  0  0  0  0  0  0  0  0
  161.4180  205.7120  148.8330 C   0  0  0  0  0  0  0  0  0  0  0  0
  161.3450  204.5270  148.0280 C   0  0  0  0  0  0  0  0  0  0  0  0
  161.8100  210.8300  150.0880 O   0  0  0  0  0  0  0  0  0  0  0  0
  161.8710  210.7060  148.8360 C   0  0  0  0  0  0  0  0  0  0  0  0
  161.1360  202.1040  147.7710 C   0  0  0  0  0  0  0  0  0  0  0  0
  161.3550  205.7240  150.2610 C   0  0  0  0  0  0  0  0  0  0  0  0
  161.2420  205.8370  153.0820 C   0  0  0  0  0  3  0  0  0  0  0  0
  161.2030  203.2400  148.5800 C   0  0  0  0  0  3  0  0  0  0  0  0
  161.6370  208.1580  148.9020 C   0  0  0  0  0  0  0  0  0  0  0  0
  161.0230  203.4670  153.1430 F   0  0  0  0  0  0  0  0  0  0  0  0
  161.5570  205.8700  146.0010 C   0  0  0  0  0  3  0  0  0  0  0  0
  160.9860  200.7610  148.3910 C   0  0  0  0  0  1  0  0  0  0  0  0
  161.5750  208.1200  150.2570 N   0  0  0  0  0  0  0  0  0  0  0  0
  161.5610  206.9650  148.1660 C   0  0  0  0  0  0  0  0  0  0  0  0
  161.7840  209.4130  148.2210 N   0  0  0  0  0  2  0  0  0  0  0  0
  161.2150  204.5570  151.0330 C   0  0  0  0  0  3  0  0  0  0  0  0
  161.2080  202.2290  146.3860 C   0  0  0  0  0  3  0  0  0  0  0  0
  161.4390  206.9630  150.9460 C   0  0  0  0  0  0  0  0  0  0  0  0
  161.3810  207.0100  152.3410 C   0  0  0  0  0  3  0  0  0  0  0  0
  161.6280  207.0230  146.7690 C   0  0  0  0  0  3  0  0  0  0  0  0
  161.4180  204.6310  146.6130 C   0  0  0  0  0  0  0  0  0  0  0  0
  161.3490  203.4900  145.8080 C   0  0  0  0  0  3  0  0  0  0  0  0
  160.2020  213.9330  148.7280 C   0  0  1  0  0  3  0  0  0  0  0  0
  162.3360  213.1720  148.8570 C   0  0  0  0  0  2  0  0  0  0  0  0
  160.4560  211.0510  146.3760 C   0  0  0  0  0  1  0  0  0  0  0  0
  159.0720  214.4530  149.4750 N   0  0  0  0  0  1  0  0  0  0  0  0
  161.2080  213.5270  149.6230 O   0  0  0  0  0  0  0  0  0  0  0  0
  160.8810  212.2360  147.1080 N   0  0  0  0  0  0  0  0  0  0  0  0
  162.0320  211.9430  147.9870 C   0  0  2  0  0  3  0  0  0  0  0  0
  159.7450  212.7420  147.8810 C   0  0  0  0  0  2  0  0  0  0  0  0
  1  8  1  0  0  0  0
  1 11  1  0  0  0  0
  2  7  1  0  0  0  0
  3  9  1  0  0  0  0
  3  2  2  0  0  0  0
  5  4  2  0  0  0  0
  6 13  1  0  0  0  0
  6  9  2  0  0  0  0
  7 19  2  0  0  0  0
  7 17  1  0  0  0  0
 10 14  2  0  0  0  0
 12 22  2  0  0  0  0
 12 21  1  0  0  0  0
 14 19  1  0  0  0  0
 15  2  1  0  0  0  0
 15 10  1  0  0  0  0
 16  5  1  0  0  0  0
 16 10  1  0  0  0  0
 17  1  2  0  0  0  0
 18  6  1  0  0  0  0
 19 20  1  0  0  0  0
 20  8  2  0  0  0  0
 21 15  2  0  0  0  0
 22  3  1  0  0  0  0
 23 18  2  0  0  0  0
 23 22  1  0  0  0  0
 24 27  1  1  0  0  0
 24 28  1  0  0  0  0
 25 28  1  0  0  0  0
 26 29  1  0  0  0  0
 29 31  1  0  0  0  0
 29 30  1  0  0  0  0
 30  5  1  1  0  0  0
 30 25  1  0  0  0  0
 31 24  1  0  0  0  0
M  END
>  <MODEL>
4

>  <REMARK>
 VINA RESULT:     -10.3      3.430      5.699
  Name = 
  1 active torsions:
  status: ('A' for Active; 'I' for Inactive)
    1  A    between atoms: C_5  and  C_30
                            x       y       z     vdW  Elec       q    Type
                         _______ _______ _______ _____ _____    ______ ____

>  <TORSDO>
F 1

$$$$
=
 OpenBabel11122413083D

 31 35  0  0  1  0  0  0  0  0999 V2000
  161.2680  204.1560  145.9100 C   0  0  0  0  0  0  0  0  0  0  0  0
  161.3120  205.8060  149.2970 C   0  0  0  0  0  0  0  0  0  0  0  0
  161.1970  204.7600  150.2710 C   0  0  0  0  0  0  0  0  0  0  0  0
  161.7950  210.6690  147.2870 O   0  0  0  0  0  0  0  0  0  0  0  0
  161.7490  210.7440  148.5430 C   0  0  0  0  0  0  0  0  0  0  0  0
  160.9820  202.4030  150.8900 C   0  0  0  0  0  0  0  0  0  0  0  0
  161.3340  205.5960  147.8840 C   0  0  0  0  0  0  0  0  0  0  0  0
  161.3840  205.2680  145.0780 C   0  0  0  0  0  3  0  0  0  0  0  0
  161.0930  203.4010  149.9200 C   0  0  0  0  0  3  0  0  0  0  0  0
  161.5260  208.2150  148.8610 C   0  0  0  0  0  0  0  0  0  0  0  0
  161.1790  202.9150  145.3740 F   0  0  0  0  0  0  0  0  0  0  0  0
  161.2850  206.4040  152.0730 C   0  0  0  0  0  3  0  0  0  0  0  0
  160.8740  200.9790  150.4790 C   0  0  0  0  0  1  0  0  0  0  0  0
  161.5420  207.9660  147.5280 N   0  0  0  0  0  0  0  0  0  0  0  0
  161.4120  207.1500  149.7680 C   0  0  0  0  0  0  0  0  0  0  0  0
  161.6240  209.5620  149.3450 N   0  0  0  0  0  2  0  0  0  0  0  0
  161.2430  204.3210  147.2960 C   0  0  0  0  0  3  0  0  0  0  0  0
  160.9730  202.7430  152.2410 C   0  0  0  0  0  3  0  0  0  0  0  0
  161.4510  206.7140  147.0210 C   0  0  0  0  0  0  0  0  0  0  0  0
  161.4760  206.5440  145.6330 C   0  0  0  0  0  3  0  0  0  0  0  0
  161.3960  207.4240  151.1410 C   0  0  0  0  0  3  0  0  0  0  0  0
  161.1850  205.0830  151.6550 C   0  0  0  0  0  0  0  0  0  0  0  0
  161.0740  204.0800  152.6220 C   0  0  0  0  0  3  0  0  0  0  0  0
  160.3060  213.9990  147.8080 C   0  0  1  0  0  3  0  0  0  0  0  0
  160.4410  212.6090  149.5970 C   0  0  0  0  0  2  0  0  0  0  0  0
  163.7770  212.6360  147.8480 C   0  0  0  0  0  1  0  0  0  0  0  0
  159.4760  214.4530  146.7080 N   0  0  0  0  0  1  0  0  0  0  0  0
  159.6780  212.9180  148.4530 O   0  0  0  0  0  0  0  0  0  0  0  0
  162.5150  213.1310  148.3820 N   0  0  0  0  0  0  0  0  0  0  0  0
  161.8340  212.1020  149.1960 C   0  0  2  0  0  3  0  0  0  0  0  0
  161.6710  213.5630  147.2680 C   0  0  0  0  0  2  0  0  0  0  0  0
  1 17  1  0  0  0  0
  2 15  2  0  0  0  0
  2  3  1  0  0  0  0
  3 22  1  0  0  0  0
  4  5  2  0  0  0  0
  5 16  1  0  0  0  0
  6 18  2  0  0  0  0
  7  2  1  0  0  0  0
  8 20  1  0  0  0  0
  8  1  2  0  0  0  0
  9  3  2  0  0  0  0
  9  6  1  0  0  0  0
 10 16  1  0  0  0  0
 10 15  1  0  0  0  0
 11  1  1  0  0  0  0
 13  6  1  0  0  0  0
 14 10  2  0  0  0  0
 15 21  1  0  0  0  0
 17  7  2  0  0  0  0
 18 23  1  0  0  0  0
 19 14  1  0  0  0  0
 19  7  1  0  0  0  0
 20 19  2  0  0  0  0
 21 12  2  0  0  0  0
 22 12  1  0  0  0  0
 22 23  2  0  0  0  0
 24 27  1  6  0  0  0
 24 28  1  0  0  0  0
 26 29  1  0  0  0  0
 28 25  1  0  0  0  0
 29 30  1  0  0  0  0
 30  5  1  6  0  0  0
 30 25  1  0  0  0  0
 31 24  1  0  0  0  0
 31 29  1  0  0  0  0
M  END
>  <MODEL>
5

>  <REMARK>
 VINA RESULT:      -8.8      3.707      5.223
  Name = 
  1 active torsions:
  status: ('A' for Active; 'I' for Inactive)
    1  A    between atoms: C_5  and  C_30
                            x       y       z     vdW  Elec       q    Type
                         _______ _______ _______ _____ _____    ______ ____

>  <TORSDO>
F 1

$$$$
=
 OpenBabel11122413083D

 31 35  0  0  1  0  0  0  0  0999 V2000
  160.7950  207.1970  154.3660 C   0  0  0  0  0  0  0  0  0  0  0  0
  161.2650  207.5780  150.6470 C   0  0  0  0  0  0  0  0  0  0  0  0
  161.3060  206.2540  150.0950 C   0  0  0  0  0  0  0  0  0  0  0  0
  161.3310  212.8570  150.8630 O   0  0  0  0  0  0  0  0  0  0  0  0
  161.4890  212.4900  149.6690 C   0  0  0  0  0  0  0  0  0  0  0  0
  161.2260  203.8200  150.3210 C   0  0  0  0  0  0  0  0  0  0  0  0
  161.0980  207.8690  152.0360 C   0  0  0  0  0  0  0  0  0  0  0  0
  160.7750  208.5330  154.7630 C   0  0  0  0  0  3  0  0  0  0  0  0
  161.1830  205.0960  150.8850 C   0  0  0  0  0  3  0  0  0  0  0  0
  161.3670  209.9970  150.2340 C   0  0  0  0  0  0  0  0  0  0  0  0
  160.6600  206.2140  155.2880 F   0  0  0  0  0  0  0  0  0  0  0  0
  161.6030  207.1780  147.8560 C   0  0  0  0  0  3  0  0  0  0  0  0
  161.0930  202.6200  151.1890 C   0  0  0  0  0  1  0  0  0  0  0  0
  161.2080  210.2250  151.5610 N   0  0  0  0  0  0  0  0  0  0  0  0
  161.3990  208.6800  149.7500 C   0  0  0  0  0  0  0  0  0  0  0  0
  161.5060  211.0980  149.3230 N   0  0  0  0  0  2  0  0  0  0  0  0
  160.9560  206.8720  153.0180 C   0  0  0  0  0  3  0  0  0  0  0  0
  161.3940  203.6710  148.9460 C   0  0  0  0  0  3  0  0  0  0  0  0
  161.0750  209.2220  152.4600 C   0  0  0  0  0  0  0  0  0  0  0  0
  160.9140  209.5420  153.8110 C   0  0  0  0  0  3  0  0  0  0  0  0
  161.5660  208.4630  148.3780 C   0  0  0  0  0  3  0  0  0  0  0  0
  161.4760  206.0790  148.6960 C   0  0  0  0  0  0  0  0  0  0  0  0
  161.5180  204.7980  148.1350 C   0  0  0  0  0  3  0  0  0  0  0  0
  159.8540  213.1420  146.4880 C   0  0  1  0  0  3  0  0  0  0  0  0
  160.3440  214.3090  148.3720 C   0  0  0  0  0  2  0  0  0  0  0  0
  163.3090  212.1600  147.4880 C   0  0  0  0  0  1  0  0  0  0  0  0
  158.8280  212.4100  145.7700 N   0  0  0  0  0  1  0  0  0  0  0  0
  159.3800  213.4750  147.7700 O   0  0  0  0  0  0  0  0  0  0  0  0
  162.1520  213.0260  147.3050 N   0  0  0  0  0  0  0  0  0  0  0  0
  161.6550  213.5420  148.5990 C   0  0  2  0  0  3  0  0  0  0  0  0
  161.1100  212.2750  146.6050 C   0  0  0  0  0  2  0  0  0  0  0  0
  1  8  1  0  0  0  0
  1 11  1  0  0  0  0
  2  7  1  0  0  0  0
  3  2  1  0  0  0  0
  3  9  1  0  0  0  0
  5  4  2  0  0  0  0
  6  9  2  0  0  0  0
  6 13  1  0  0  0  0
  7 19  2  0  0  0  0
  7 17  1  0  0  0  0
 10 14  2  0  0  0  0
 12 21  2  0  0  0  0
 12 22  1  0  0  0  0
 14 19  1  0  0  0  0
 15 10  1  0  0  0  0
 15  2  2  0  0  0  0
 16  5  1  0  0  0  0
 16 10  1  0  0  0  0
 17  1  2  0  0  0  0
 18  6  1  0  0  0  0
 19 20  1  0  0  0  0
 20  8  2  0  0  0  0
 21 15  1  0  0  0  0
 22  3  2  0  0  0  0
 23 22  1  0  0  0  0
 23 18  2  0  0  0  0
 24 27  1  1  0  0  0
 24 31  1  0  0  0  0
 24 28  1  0  0  0  0
 25 30  1  0  0  0  0
 28 25  1  0  0  0  0
 29 26  1  0  0  0  0
 29 30  1  0  0  0  0
 30  5  1  1  0  0  0
 31 29  1  0  0  0  0
M  END
>  <MODEL>
6

>  <REMARK>
 VINA RESULT:      -8.5      3.765      6.327
  Name = 
  1 active torsions:
  status: ('A' for Active; 'I' for Inactive)
    1  A    between atoms: C_5  and  C_30
                            x       y       z     vdW  Elec       q    Type
                         _______ _______ _______ _____ _____    ______ ____

>  <TORSDO>
F 1

$$$$
