=
 OpenBabel11122413393D

 37 42  0  0  1  0  0  0  0  0999 V2000
  160.7460  207.6700  156.1090 C   0  0  0  0  0  0  0  0  0  0  0  0
  160.2810  210.2380  152.8440 C   0  0  0  0  0  0  0  0  0  0  0  0
  162.8730  210.6920  151.4300 C   0  0  0  0  0  1  0  0  0  0  0  0
  160.2620  210.0180  155.2260 C   0  0  0  0  0  0  0  0  0  0  0  0
  160.6750  209.4230  151.6520 C   0  0  1  0  0  3  0  0  0  0  0  0
  160.4010  209.4790  153.9600 C   0  0  0  0  0  0  0  0  0  0  0  0
  161.6280  210.1710  150.7120 C   0  0  1  0  0  3  0  0  0  0  0  0
  159.9730  211.3480  155.3360 N   0  0  0  0  0  0  0  0  0  0  0  0
  160.9050  208.1940  153.7020 N   0  0  0  0  0  0  0  0  0  0  0  0
  159.3600  207.0520  156.0570 C   0  0  0  0  0  1  0  0  0  0  0  0
  160.1320  212.5070  151.7440 C   0  0  0  0  0  2  0  0  0  0  0  0
  159.8470  212.1460  154.2270 C   0  0  0  0  0  3  0  0  0  0  0  0
  161.4860  207.3990  154.7800 C   0  0  0  0  0  2  0  0  0  0  0  0
  160.0080  211.6050  152.9370 C   0  0  0  0  0  0  0  0  0  0  0  0
  161.2820  208.1390  152.2870 C   0  0  1  0  0  3  0  0  0  0  0  0
  160.6260  209.1820  156.4240 C   0  0  0  0  0  2  0  0  0  0  0  0
  160.8670  211.2750  149.9370 C   0  0  1  0  0  3  0  0  0  0  0  0
  161.5170  207.0070  157.2310 C   0  0  0  0  0  1  0  0  0  0  0  0
  159.7330  211.8500  150.5660 O   0  0  0  0  0  0  0  0  0  0  0  0
  161.6750  206.3800  150.4930 C   0  0  0  0  0  2  0  0  0  0  0  0
  161.0280  205.2860  149.6950 C   0  0  0  0  0  0  0  0  0  0  0  0
  161.0840  203.6410  151.5270 C   0  0  0  0  0  0  0  0  0  0  0  0
  160.8260  204.0980  150.1890 N   0  0  0  0  0  0  0  0  0  0  0  0
  161.3910  204.5620  152.6710 C   0  0  1  0  0  3  0  0  0  0  0  0
  162.7310  204.9080  152.6960 F   0  0  0  0  0  0  0  0  0  0  0  0
  160.4730  205.7860  152.6970 C   0  0  0  0  0  2  0  0  0  0  0  0
  161.0330  202.4060  151.7630 O   0  0  0  0  0  0  0  0  0  0  0  0
  160.7700  206.8540  151.6310 C   0  0  1  0  0  3  0  0  0  0  0  0
  160.8540  206.8120  147.6830 C   0  0  0  0  0  1  0  0  0  0  0  0
  160.6580  205.5280  148.3360 N   0  0  0  0  0  2  0  0  0  0  0  0
  161.4220  213.5950  149.0920 C   0  0  0  0  0  3  0  0  0  0  0  0
  161.6770  212.2160  149.0930 C   0  0  0  0  0  0  0  0  0  0  0  0
  162.7180  211.7050  148.3100 C   0  0  0  0  0  3  0  0  0  0  0  0
  164.5000  212.0640  146.7680 F   0  0  0  0  0  0  0  0  0  0  0  0
  163.2350  213.9370  147.5250 C   0  0  0  0  0  3  0  0  0  0  0  0
  163.4950  212.5640  147.5260 C   0  0  0  0  0  0  0  0  0  0  0  0
  162.1990  214.4530  148.3090 C   0  0  0  0  0  3  0  0  0  0  0  0
  1 16  1  0  0  0  0
  1 18  1  0  0  0  0
  2 14  2  0  0  0  0
  2  6  1  0  0  0  0
  4  8  1  0  0  0  0
  4 16  1  0  0  0  0
  5 15  1  0  0  0  0
  5  2  1  1  0  0  0
  6  4  2  0  0  0  0
  7  3  1  1  0  0  0
  7  5  1  0  0  0  0
  9  6  1  0  0  0  0
  9 13  1  0  0  0  0
 10  1  1  0  0  0  0
 11 14  1  0  0  0  0
 12  8  2  0  0  0  0
 13  1  1  0  0  0  0
 14 12  1  0  0  0  0
 15  9  1  1  0  0  0
 17 32  1  1  0  0  0
 17 19  1  0  0  0  0
 17  7  1  0  0  0  0
 19 11  1  0  0  0  0
 21 23  2  0  0  0  0
 21 20  1  0  0  0  0
 22 27  2  0  0  0  0
 22 24  1  0  0  0  0
 23 22  1  0  0  0  0
 24 25  1  6  0  0  0
 24 26  1  0  0  0  0
 28 20  1  6  0  0  0
 28 15  1  0  0  0  0
 28 26  1  0  0  0  0
 29 30  1  0  0  0  0
 30 21  1  0  0  0  0
 31 32  1  0  0  0  0
 33 32  2  0  0  0  0
 34 36  1  0  0  0  0
 35 36  2  0  0  0  0
 35 37  1  0  0  0  0
 36 33  1  0  0  0  0
 37 31  2  0  0  0  0
M  END
>  <MODEL>
1

>  <REMARK>
 VINA RESULT:      -4.5      0.000      0.000
  Name = 
  2 active torsions:
  status: ('A' for Active; 'I' for Inactive)
    1  A    between atoms: C_21  and  C_27
    2  A    between atoms: C_23  and  C_30
                            x       y       z     vdW  Elec       q    Type
                         _______ _______ _______ _____ _____    ______ ____

>  <TORSDO>
F 2

$$$$
=
 OpenBabel11122413393D

 37 42  0  0  1  0  0  0  0  0999 V2000
  161.0900  208.6130  155.8090 C   0  0  0  0  0  0  0  0  0  0  0  0
  160.3020  210.8310  152.3540 C   0  0  0  0  0  0  0  0  0  0  0  0
  162.7880  211.3120  150.7700 C   0  0  0  0  0  1  0  0  0  0  0  0
  160.4100  210.8340  154.7440 C   0  0  0  0  0  0  0  0  0  0  0  0
  160.6930  209.9350  151.2220 C   0  0  1  0  0  3  0  0  0  0  0  0
  160.5250  210.1880  153.5260 C   0  0  0  0  0  0  0  0  0  0  0  0
  161.5480  210.6490  150.1690 C   0  0  1  0  0  3  0  0  0  0  0  0
  160.0370  212.1480  154.7500 N   0  0  0  0  0  0  0  0  0  0  0  0
  161.1010  208.9190  153.3600 N   0  0  0  0  0  0  0  0  0  0  0  0
  159.7480  207.9080  155.8860 C   0  0  0  0  0  1  0  0  0  0  0  0
  159.9500  212.9730  151.0640 C   0  0  0  0  0  2  0  0  0  0  0  0
  159.8050  212.8290  153.5810 C   0  0  0  0  0  3  0  0  0  0  0  0
  161.7830  208.2660  154.4730 C   0  0  0  0  0  2  0  0  0  0  0  0
  159.9420  212.1810  152.3380 C   0  0  0  0  0  0  0  0  0  0  0  0
  161.4140  208.7550  151.9380 C   0  0  1  0  0  3  0  0  0  0  0  0
  160.8850  210.1380  155.9920 C   0  0  0  0  0  2  0  0  0  0  0  0
  160.6800  211.6260  149.3390 C   0  0  1  0  0  3  0  0  0  0  0  0
  161.9560  208.1070  156.9430 C   0  0  0  0  0  1  0  0  0  0  0  0
  159.5410  212.1860  149.9720 O   0  0  0  0  0  0  0  0  0  0  0  0
  161.8490  206.8580  150.3010 C   0  0  0  0  0  2  0  0  0  0  0  0
  161.2420  205.6560  149.6380 C   0  0  0  0  0  0  0  0  0  0  0  0
  161.4700  204.2020  151.6130 C   0  0  0  0  0  0  0  0  0  0  0  0
  161.1330  204.5120  150.2500 N   0  0  0  0  0  0  0  0  0  0  0  0
  161.7610  205.2450  152.6500 C   0  0  1  0  0  3  0  0  0  0  0  0
  163.0770  205.6700  152.5850 F   0  0  0  0  0  0  0  0  0  0  0  0
  160.7700  206.4100  152.6010 C   0  0  0  0  0  2  0  0  0  0  0  0
  161.5050  202.9940  151.9650 O   0  0  0  0  0  0  0  0  0  0  0  0
  160.9590  207.3850  151.4280 C   0  0  1  0  0  3  0  0  0  0  0  0
  160.8960  206.9680  147.5010 C   0  0  0  0  0  1  0  0  0  0  0  0
  160.8060  205.7440  148.2800 N   0  0  0  0  0  2  0  0  0  0  0  0
  162.1320  213.6320  148.8180 C   0  0  0  0  0  3  0  0  0  0  0  0
  161.3840  212.5330  148.3720 C   0  0  0  0  0  0  0  0  0  0  0  0
  161.3060  212.2610  147.0020 C   0  0  0  0  0  3  0  0  0  0  0  0
  161.8840  212.8150  144.7570 F   0  0  0  0  0  0  0  0  0  0  0  0
  162.7070  214.1790  146.5310 C   0  0  0  0  0  3  0  0  0  0  0  0
  161.9650  213.0830  146.0820 C   0  0  0  0  0  0  0  0  0  0  0  0
  162.7910  214.4530  147.8990 C   0  0  0  0  0  3  0  0  0  0  0  0
  1 10  1  0  0  0  0
  1 16  1  0  0  0  0
  1 18  1  0  0  0  0
  2  6  1  0  0  0  0
  4  8  1  0  0  0  0
  4 16  1  0  0  0  0
  5 15  1  0  0  0  0
  5  2  1  1  0  0  0
  6  4  2  0  0  0  0
  7  3  1  1  0  0  0
  7  5  1  0  0  0  0
  9  6  1  0  0  0  0
  9 13  1  0  0  0  0
 11 14  1  0  0  0  0
 12  8  2  0  0  0  0
 13  1  1  0  0  0  0
 14  2  2  0  0  0  0
 14 12  1  0  0  0  0
 15  9  1  1  0  0  0
 17 32  1  1  0  0  0
 17 19  1  0  0  0  0
 17  7  1  0  0  0  0
 19 11  1  0  0  0  0
 21 23  2  0  0  0  0
 21 20  1  0  0  0  0
 22 27  2  0  0  0  0
 22 24  1  0  0  0  0
 23 22  1  0  0  0  0
 24 25  1  6  0  0  0
 26 24  1  0  0  0  0
 28 20  1  6  0  0  0
 28 15  1  0  0  0  0
 28 26  1  0  0  0  0
 29 30  1  0  0  0  0
 30 21  1  0  0  0  0
 32 31  1  0  0  0  0
 33 32  2  0  0  0  0
 34 36  1  0  0  0  0
 35 37  1  0  0  0  0
 36 35  2  0  0  0  0
 36 33  1  0  0  0  0
 37 31  2  0  0  0  0
M  END
>  <MODEL>
2

>  <REMARK>
 VINA RESULT:      -3.5      1.059      1.072
  Name = 
  2 active torsions:
  status: ('A' for Active; 'I' for Inactive)
    1  A    between atoms: C_21  and  C_27
    2  A    between atoms: C_23  and  C_30
                            x       y       z     vdW  Elec       q    Type
                         _______ _______ _______ _____ _____    ______ ____

>  <TORSDO>
F 2

$$$$
=
 OpenBabel11122413393D

 37 42  0  0  1  0  0  0  0  0999 V2000
  161.9050  206.5800  147.6260 C   0  0  0  0  0  0  0  0  0  0  0  0
  160.9730  208.2030  151.3630 C   0  0  0  0  0  0  0  0  0  0  0  0
  163.3190  209.6080  152.5640 C   0  0  0  0  0  1  0  0  0  0  0  0
  161.3210  206.2110  150.0850 C   0  0  0  0  0  0  0  0  0  0  0  0
  161.1660  209.6780  151.2040 C   0  0  1  0  0  3  0  0  0  0  0  0
  161.2550  207.5890  150.1890 C   0  0  0  0  0  0  0  0  0  0  0  0
  161.9710  210.2980  152.3530 C   0  0  1  0  0  3  0  0  0  0  0  0
  161.0690  205.4640  151.2000 N   0  0  0  0  0  0  0  0  0  0  0  0
  161.6960  208.4750  149.1940 N   0  0  0  0  0  0  0  0  0  0  0  0
  160.5200  206.7100  147.0170 C   0  0  0  0  0  1  0  0  0  0  0  0
  160.6840  208.1080  153.8700 C   0  0  0  0  0  2  0  0  0  0  0  0
  160.7820  206.0540  152.4060 C   0  0  0  0  0  3  0  0  0  0  0  0
  162.4270  207.9770  148.0320 C   0  0  0  0  0  2  0  0  0  0  0  0
  160.7350  207.4570  152.5210 C   0  0  0  0  0  0  0  0  0  0  0  0
  161.8490  209.7960  149.8100 C   0  0  1  0  0  3  0  0  0  0  0  0
  161.8560  205.5950  148.8200 C   0  0  0  0  0  2  0  0  0  0  0  0
  161.1140  210.3630  153.6400 C   0  0  1  0  0  3  0  0  0  0  0  0
  162.8330  206.0110  146.5730 C   0  0  0  0  0  1  0  0  0  0  0  0
  160.0990  209.3850  153.7980 O   0  0  0  0  0  0  0  0  0  0  0  0
  161.0380  212.2040  149.6890 C   0  0  0  0  0  2  0  0  0  0  0  0
  160.1910  213.1680  148.9120 C   0  0  0  0  0  0  0  0  0  0  0  0
  161.8440  213.4800  147.1130 C   0  0  0  0  0  0  0  0  0  0  0  0
  160.6090  213.7200  147.8100 N   0  0  0  0  0  0  0  0  0  0  0  0
  162.7530  212.3270  147.4160 C   0  0  1  0  0  3  0  0  0  0  0  0
  163.5900  212.6090  148.4820 F   0  0  0  0  0  0  0  0  0  0  0  0
  161.9890  211.0140  147.6070 C   0  0  0  0  0  2  0  0  0  0  0  0
  162.1750  214.2640  146.1860 O   0  0  0  0  0  0  0  0  0  0  0  0
  161.2250  210.8860  148.9340 C   0  0  1  0  0  3  0  0  0  0  0  0
  158.3450  212.9880  150.6350 C   0  0  0  0  0  1  0  0  0  0  0  0
  158.9010  213.5330  149.4070 N   0  0  0  0  0  2  0  0  0  0  0  0
  161.0610  211.0680  156.0700 C   0  0  0  0  0  3  0  0  0  0  0  0
  161.7950  210.7890  154.9080 C   0  0  0  0  0  0  0  0  0  0  0  0
  163.1910  210.8880  154.9330 C   0  0  0  0  0  3  0  0  0  0  0  0
  165.2000  211.3650  156.1240 F   0  0  0  0  0  0  0  0  0  0  0  0
  163.1130  211.5500  157.2610 C   0  0  0  0  0  3  0  0  0  0  0  0
  163.8490  211.2690  156.1060 C   0  0  0  0  0  0  0  0  0  0  0  0
  161.7190  211.4490  157.2430 C   0  0  0  0  0  3  0  0  0  0  0  0
  1 13  1  0  0  0  0
  1 16  1  0  0  0  0
  2 14  1  0  0  0  0
  4  6  1  0  0  0  0
  4  8  2  0  0  0  0
  5  2  1  1  0  0  0
  5  7  1  0  0  0  0
  6  2  2  0  0  0  0
  7  3  1  1  0  0  0
  7 17  1  0  0  0  0
  8 12  1  0  0  0  0
  9  6  1  0  0  0  0
 10  1  1  0  0  0  0
 12 14  2  0  0  0  0
 13  9  1  0  0  0  0
 14 11  1  0  0  0  0
 15  9  1  6  0  0  0
 15  5  1  0  0  0  0
 16  4  1  0  0  0  0
 17 19  1  0  0  0  0
 17 32  1  1  0  0  0
 18  1  1  0  0  0  0
 19 11  1  0  0  0  0
 21 30  1  0  0  0  0
 21 20  1  0  0  0  0
 22 24  1  0  0  0  0
 22 23  1  0  0  0  0
 23 21  2  0  0  0  0
 24 26  1  0  0  0  0
 24 25  1  1  0  0  0
 27 22  2  0  0  0  0
 28 26  1  6  0  0  0
 28 20  1  0  0  0  0
 28 15  1  0  0  0  0
 30 29  1  0  0  0  0
 31 37  1  0  0  0  0
 32 33  1  0  0  0  0
 32 31  2  0  0  0  0
 33 36  2  0  0  0  0
 36 34  1  0  0  0  0
 36 35  1  0  0  0  0
 37 35  2  0  0  0  0
M  END
>  <MODEL>
3

>  <REMARK>
 VINA RESULT:      -2.2      2.927      7.367
  Name = 
  2 active torsions:
  status: ('A' for Active; 'I' for Inactive)
    1  A    between atoms: C_21  and  C_27
    2  A    between atoms: C_23  and  C_30
                            x       y       z     vdW  Elec       q    Type
                         _______ _______ _______ _____ _____    ______ ____

>  <TORSDO>
F 2

$$$$
