=
 OpenBabel11122414043D

 28 32  0  0  1  0  0  0  0  0999 V2000
  159.9720  211.7330  151.1450 C   0  0  0  0  0  0  0  0  0  0  0  0
  160.7410  207.8820  149.5600 O   0  0  0  0  0  0  0  0  0  0  0  0
  163.0550  211.0100  156.1470 O   0  0  0  0  0  0  0  0  0  0  0  0
  162.3720  211.5830  149.7150 C   0  0  0  0  0  3  0  0  0  0  0  0
  161.9770  208.6960  155.5500 C   0  0  2  0  0  3  0  0  0  0  0  0
  158.7870  211.9580  152.0340 C   0  0  0  0  0  2  0  0  0  0  0  0
  162.8840  207.9680  150.7910 O   0  0  0  0  0  0  0  0  0  0  0  0
  161.4460  207.5310  150.8390 S   0  0  0  0  0  0  0  0  0  0  0  0
  161.0520  205.3860  152.5640 C   0  0  0  0  0  0  0  0  0  0  0  0
  160.6180  208.1950  152.2040 N   0  0  1  0  0  0  0  0  0  0  0  0
  159.0150  213.4120  155.5930 C   0  0  0  0  0  1  0  0  0  0  0  0
  161.2020  209.8500  153.7680 C   0  0  2  0  0  3  0  0  0  0  0  0
  161.0210  206.2670  153.5860 C   0  0  0  0  0  3  0  0  0  0  0  0
  161.4060  205.7590  151.1260 C   0  0  0  0  0  2  0  0  0  0  0  0
  158.7260  212.3670  154.5340 C   0  0  2  0  0  3  0  0  0  0  0  0
  160.8500  210.6500  151.3670 C   0  0  0  0  0  0  0  0  0  0  0  0
  161.6800  210.3590  156.2160 S   0  0  2  0  0  0  0  0  0  0  0  0
  160.7370  203.9610  152.8530 C   0  0  0  0  0  1  0  0  0  0  0  0
  159.3430  211.0250  154.9430 C   0  0  0  0  0  2  0  0  0  0  0  0
  162.0700  210.6180  150.6760 C   0  0  0  0  0  3  0  0  0  0  0  0
  160.2820  212.7000  150.1820 C   0  0  0  0  0  3  0  0  0  0  0  0
  161.4710  212.6170  149.4570 C   0  0  0  0  0  3  0  0  0  0  0  0
  159.2010  212.8760  153.1750 C   0  0  0  0  0  2  0  0  0  0  0  0
  161.0330  208.5920  154.4540 N   0  0  1  0  0  0  0  0  0  0  0  0
  160.8560  210.9650  154.7270 C   0  0  2  0  0  3  0  0  0  0  0  0
  161.3680  207.7050  153.3570 C   0  0  2  0  0  3  0  0  0  0  0  0
  161.6510  207.6660  156.6130 C   0  0  0  0  0  1  0  0  0  0  0  0
  160.5140  209.6490  152.4470 C   0  0  1  0  0  3  0  0  0  0  0  0
  1 16  1  0  0  0  0
  1  6  1  0  0  0  0
  2  8  2  0  0  0  0
  3 17  2  0  0  0  0
  4 20  1  0  0  0  0
  5 17  1  0  0  0  0
  5 27  1  1  0  0  0
  6 23  1  0  0  0  0
  7  8  2  0  0  0  0
  8 14  1  0  0  0  0
  9 18  1  0  0  0  0
  9 13  2  0  0  0  0
 10  8  1  6  0  0  0
 10 28  1  0  0  0  0
 10 26  1  0  0  0  0
 12 24  1  0  0  0  0
 12 25  1  0  0  0  0
 14  9  1  0  0  0  0
 15 19  1  0  0  0  0
 15 11  1  0  0  0  0
 16 28  1  0  0  0  0
 20 16  2  0  0  0  0
 21  1  2  0  0  0  0
 22  4  2  0  0  0  0
 22 21  1  0  0  0  0
 23 15  1  0  0  0  0
 24  5  1  0  0  0  0
 25 19  1  0  0  0  0
 25 17  1  0  0  0  0
 26 13  1  0  0  0  0
 26 24  1  0  0  0  0
 28 12  1  0  0  0  0
M  END
>  <MODEL>
1

>  <REMARK>
 VINA RESULT:      -4.9      0.000      0.000
  Name = 
  0 active torsions:
  status: ('A' for Active; 'I' for Inactive)
                            x       y       z     vdW  Elec       q    Type
                         _______ _______ _______ _____ _____    ______ ____

>  <TORSDO>
F 0

$$$$
=
 OpenBabel11122414043D

 28 32  0  0  1  0  0  0  0  0999 V2000
  161.5190  209.3290  155.2700 C   0  0  0  0  0  0  0  0  0  0  0  0
  163.0570  208.5340  151.4050 O   0  0  0  0  0  0  0  0  0  0  0  0
  156.5760  212.0390  153.4640 O   0  0  0  0  0  0  0  0  0  0  0  0
  160.5490  206.9500  154.1600 C   0  0  0  0  0  3  0  0  0  0  0  0
  158.4700  212.6470  151.7570 C   0  0  2  0  0  3  0  0  0  0  0  0
  161.8460  210.6170  155.9600 C   0  0  0  0  0  2  0  0  0  0  0  0
  160.7030  208.4270  150.6550 O   0  0  0  0  0  0  0  0  0  0  0  0
  161.9090  209.3090  150.8240 S   0  0  0  0  0  0  0  0  0  0  0  0
  161.9170  211.4400  149.0380 C   0  0  0  0  0  0  0  0  0  0  0  0
  161.5560  210.7050  151.7830 N   0  0  1  0  0  0  0  0  0  0  0  0
  159.1970  213.0920  157.2610 C   0  0  0  0  0  1  0  0  0  0  0  0
  159.7000  211.3030  153.0960 C   0  0  2  0  0  3  0  0  0  0  0  0
  161.0820  212.0920  149.8750 C   0  0  0  0  0  3  0  0  0  0  0  0
  162.3420  209.9850  149.2170 C   0  0  0  0  0  2  0  0  0  0  0  0
  160.3490  212.6140  156.4000 C   0  0  2  0  0  3  0  0  0  0  0  0
  161.0700  209.3160  153.9310 C   0  0  0  0  0  0  0  0  0  0  0  0
  157.7910  212.9560  153.4120 S   0  0  2  0  0  0  0  0  0  0  0  0
  162.4470  212.1780  147.8590 C   0  0  0  0  0  1  0  0  0  0  0  0
  160.0760  212.9510  154.9290 C   0  0  0  0  0  2  0  0  0  0  0  0
  160.5430  208.1270  153.4090 C   0  0  0  0  0  3  0  0  0  0  0  0
  161.5200  208.1470  156.0200 C   0  0  0  0  0  3  0  0  0  0  0  0
  161.0510  206.9570  155.4620 C   0  0  0  0  0  3  0  0  0  0  0  0
  160.5930  211.1290  156.6570 C   0  0  0  0  0  2  0  0  0  0  0  0
  159.8420  212.2530  152.0190 N   0  0  1  0  0  0  0  0  0  0  0  0
  159.0660  212.0090  154.2710 C   0  0  2  0  0  3  0  0  0  0  0  0
  160.4890  211.3850  151.0540 C   0  0  2  0  0  3  0  0  0  0  0  0
  158.4460  213.9340  150.9580 C   0  0  0  0  0  1  0  0  0  0  0  0
  161.0340  210.6160  153.1630 C   0  0  1  0  0  3  0  0  0  0  0  0
  1  6  1  0  0  0  0
  1 21  1  0  0  0  0
  4 22  1  0  0  0  0
  5 27  1  6  0  0  0
  5 24  1  0  0  0  0
  5 17  1  0  0  0  0
  6 23  1  0  0  0  0
  7  8  2  0  0  0  0
  8  2  2  0  0  0  0
  9 14  1  0  0  0  0
  9 13  2  0  0  0  0
 10  8  1  6  0  0  0
 10 28  1  0  0  0  0
 12 28  1  0  0  0  0
 12 25  1  0  0  0  0
 13 26  1  0  0  0  0
 14  8  1  0  0  0  0
 15 23  1  0  0  0  0
 15 11  1  0  0  0  0
 16  1  2  0  0  0  0
 17  3  2  0  0  0  0
 17 25  1  0  0  0  0
 18  9  1  0  0  0  0
 19 15  1  0  0  0  0
 20 16  1  0  0  0  0
 20  4  2  0  0  0  0
 22 21  2  0  0  0  0
 24 12  1  0  0  0  0
 25 19  1  0  0  0  0
 26 10  1  0  0  0  0
 26 24  1  0  0  0  0
 28 16  1  0  0  0  0
M  END
>  <MODEL>
2

>  <REMARK>
 VINA RESULT:      -3.4      2.292      5.248
  Name = 
  0 active torsions:
  status: ('A' for Active; 'I' for Inactive)
                            x       y       z     vdW  Elec       q    Type
                         _______ _______ _______ _____ _____    ______ ____

>  <TORSDO>
F 0

$$$$
=
 OpenBabel11122414043D

 28 32  0  0  1  0  0  0  0  0999 V2000
  160.8900  208.2510  155.2570 C   0  0  0  0  0  0  0  0  0  0  0  0
  158.4170  211.4880  156.4120 O   0  0  0  0  0  0  0  0  0  0  0  0
  163.5340  211.0230  150.7440 O   0  0  0  0  0  0  0  0  0  0  0  0
  162.1470  210.0330  157.0100 C   0  0  0  0  0  3  0  0  0  0  0  0
  161.0600  211.8840  150.8510 C   0  0  2  0  0  3  0  0  0  0  0  0
  160.4130  207.2670  154.2330 C   0  0  0  0  0  2  0  0  0  0  0  0
  160.2040  212.9640  155.5520 O   0  0  0  0  0  0  0  0  0  0  0  0
  158.9200  212.2560  155.2230 S   0  0  0  0  0  0  0  0  0  0  0  0
  157.5100  213.5170  153.1860 C   0  0  0  0  0  0  0  0  0  0  0  0
  159.0910  211.2220  153.8460 N   0  0  1  0  0  0  0  0  0  0  0  0
  162.3100  206.4590  150.9800 C   0  0  0  0  0  1  0  0  0  0  0  0
  160.9650  210.4920  152.6290 C   0  0  2  0  0  3  0  0  0  0  0  0
  158.3100  212.8900  152.2980 C   0  0  0  0  0  3  0  0  0  0  0  0
  157.7180  213.4820  154.6980 C   0  0  0  0  0  2  0  0  0  0  0  0
  161.1670  206.9740  151.8310 C   0  0  2  0  0  3  0  0  0  0  0  0
  160.7870  209.6410  155.0310 C   0  0  0  0  0  0  0  0  0  0  0  0
  162.1480  210.5110  150.3760 S   0  0  2  0  0  0  0  0  0  0  0  0
  156.3600  214.3040  152.6620 C   0  0  0  0  0  1  0  0  0  0  0  0
  160.7420  208.3650  151.3480 C   0  0  0  0  0  2  0  0  0  0  0  0
  161.4630  210.5160  155.8930 C   0  0  0  0  0  3  0  0  0  0  0  0
  161.5790  207.7720  156.3770 C   0  0  0  0  0  3  0  0  0  0  0  0
  162.1930  208.6620  157.2610 C   0  0  0  0  0  3  0  0  0  0  0  0
  161.5710  206.9300  153.3040 C   0  0  0  0  0  2  0  0  0  0  0  0
  160.1130  211.2710  151.7630 N   0  0  1  0  0  0  0  0  0  0  0  0
  161.6980  209.4760  151.7860 C   0  0  2  0  0  3  0  0  0  0  0  0
  159.5030  212.1170  152.7690 C   0  0  2  0  0  3  0  0  0  0  0  0
  160.3370  212.3960  149.6210 C   0  0  0  0  0  1  0  0  0  0  0  0
  160.0800  210.1260  153.7870 C   0  0  1  0  0  3  0  0  0  0  0  0
  1 21  1  0  0  0  0
  4 22  1  0  0  0  0
  5 27  1  6  0  0  0
  5 24  1  0  0  0  0
  6  1  1  0  0  0  0
  8  7  2  0  0  0  0
  8  2  2  0  0  0  0
  9 14  1  0  0  0  0
 10  8  1  1  0  0  0
 11 15  1  0  0  0  0
 12 28  1  0  0  0  0
 13 26  1  0  0  0  0
 13  9  2  0  0  0  0
 14  8  1  0  0  0  0
 15 23  1  0  0  0  0
 16  1  2  0  0  0  0
 16 20  1  0  0  0  0
 17  3  2  0  0  0  0
 17  5  1  0  0  0  0
 17 25  1  0  0  0  0
 18  9  1  0  0  0  0
 19 25  1  0  0  0  0
 19 15  1  0  0  0  0
 20  4  2  0  0  0  0
 21 22  2  0  0  0  0
 23  6  1  0  0  0  0
 24 12  1  0  0  0  0
 24 26  1  0  0  0  0
 25 12  1  0  0  0  0
 26 10  1  0  0  0  0
 28 10  1  0  0  0  0
 28 16  1  0  0  0  0
M  END
>  <MODEL>
3

>  <REMARK>
 VINA RESULT:      -3.3      2.155      6.640
  Name = 
  0 active torsions:
  status: ('A' for Active; 'I' for Inactive)
                            x       y       z     vdW  Elec       q    Type
                         _______ _______ _______ _____ _____    ______ ____

>  <TORSDO>
F 0

$$$$
=
 OpenBabel11122414043D

 28 32  0  0  1  0  0  0  0  0999 V2000
  158.5440  212.8980  151.2660 C   0  0  0  0  0  0  0  0  0  0  0  0
  160.8310  209.5420  150.0680 O   0  0  0  0  0  0  0  0  0  0  0  0
  160.6480  213.1860  156.7910 O   0  0  0  0  0  0  0  0  0  0  0  0
  161.0910  213.5730  150.3250 C   0  0  0  0  0  3  0  0  0  0  0  0
  160.5310  210.6530  156.1300 C   0  0  2  0  0  3  0  0  0  0  0  0
  157.2010  212.7060  151.9020 C   0  0  0  0  0  2  0  0  0  0  0  0
  162.5410  210.3230  151.6740 O   0  0  0  0  0  0  0  0  0  0  0  0
  161.3470  209.4310  151.4740 S   0  0  0  0  0  0  0  0  0  0  0  0
  161.3500  207.2580  153.2080 C   0  0  0  0  0  0  0  0  0  0  0  0
  160.0950  209.7650  152.6200 N   0  0  1  0  0  0  0  0  0  0  0  0
  156.2360  214.1120  155.3560 C   0  0  0  0  0  1  0  0  0  0  0  0
  159.7850  211.5030  154.1730 C   0  0  2  0  0  3  0  0  0  0  0  0
  160.8310  208.0660  154.1570 C   0  0  0  0  0  3  0  0  0  0  0  0
  161.8360  207.7430  151.8450 C   0  0  0  0  0  2  0  0  0  0  0  0
  156.5190  213.0430  154.3200 C   0  0  2  0  0  3  0  0  0  0  0  0
  159.6680  212.1670  151.7090 C   0  0  0  0  0  0  0  0  0  0  0  0
  159.5790  212.1130  156.6350 S   0  0  2  0  0  0  0  0  0  0  0  0
  161.4700  205.8060  153.5110 C   0  0  0  0  0  1  0  0  0  0  0  0
  157.4500  211.9780  154.9100 C   0  0  0  0  0  2  0  0  0  0  0  0
  160.9400  212.5510  151.2630 C   0  0  0  0  0  3  0  0  0  0  0  0
  158.7010  213.9240  150.3270 C   0  0  0  0  0  3  0  0  0  0  0  0
  159.9690  214.2510  149.8460 C   0  0  0  0  0  3  0  0  0  0  0  0
  157.0580  213.6970  153.0490 C   0  0  0  0  0  2  0  0  0  0  0  0
  159.9070  210.2520  154.8820 N   0  0  1  0  0  0  0  0  0  0  0  0
  158.9110  212.4280  154.9870 C   0  0  2  0  0  3  0  0  0  0  0  0
  160.7240  209.5400  153.9190 C   0  0  2  0  0  3  0  0  0  0  0  0
  160.3590  209.5610  157.1670 C   0  0  0  0  0  1  0  0  0  0  0  0
  159.4740  211.0990  152.7600 C   0  0  1  0  0  3  0  0  0  0  0  0
  1 16  1  0  0  0  0
  1  6  1  0  0  0  0
  2  8  2  0  0  0  0
  4 20  1  0  0  0  0
  5 17  1  0  0  0  0
  5 27  1  1  0  0  0
  6 23  1  0  0  0  0
  8  7  2  0  0  0  0
  8 14  1  0  0  0  0
  9 18  1  0  0  0  0
  9 13  2  0  0  0  0
 10  8  1  6  0  0  0
 10 28  1  0  0  0  0
 10 26  1  0  0  0  0
 12 24  1  0  0  0  0
 12 25  1  0  0  0  0
 14  9  1  0  0  0  0
 15 19  1  0  0  0  0
 15 11  1  0  0  0  0
 16 28  1  0  0  0  0
 17  3  2  0  0  0  0
 19 25  1  0  0  0  0
 20 16  2  0  0  0  0
 21  1  2  0  0  0  0
 22  4  2  0  0  0  0
 22 21  1  0  0  0  0
 23 15  1  0  0  0  0
 24  5  1  0  0  0  0
 25 17  1  0  0  0  0
 26 13  1  0  0  0  0
 26 24  1  0  0  0  0
 28 12  1  0  0  0  0
M  END
>  <MODEL>
4

>  <REMARK>
 VINA RESULT:      -2.8      1.796      2.237
  Name = 
  0 active torsions:
  status: ('A' for Active; 'I' for Inactive)
                            x       y       z     vdW  Elec       q    Type
                         _______ _______ _______ _____ _____    ______ ____

>  <TORSDO>
F 0

$$$$
=
 OpenBabel11122414043D

 28 32  0  0  1  0  0  0  0  0999 V2000
  161.7180  206.3570  152.7640 C   0  0  0  0  0  0  0  0  0  0  0  0
  163.0840  207.5470  148.9370 O   0  0  0  0  0  0  0  0  0  0  0  0
  157.5900  210.5630  153.3240 O   0  0  0  0  0  0  0  0  0  0  0  0
  160.2280  205.2580  150.6660 C   0  0  0  0  0  3  0  0  0  0  0  0
  159.6010  211.6100  152.0090 C   0  0  2  0  0  3  0  0  0  0  0  0
  162.3310  206.9440  153.9980 C   0  0  0  0  0  2  0  0  0  0  0  0
  160.7850  208.3630  148.5360 O   0  0  0  0  0  0  0  0  0  0  0  0
  162.1630  208.7320  149.0110 S   0  0  0  0  0  0  0  0  0  0  0  0
  162.7050  211.4380  148.6830 C   0  0  0  0  0  0  0  0  0  0  0  0
  162.1360  209.3950  150.6080 N   0  0  1  0  0  0  0  0  0  0  0  0
  160.3250  208.7620  156.7390 C   0  0  0  0  0  1  0  0  0  0  0  0
  160.4550  209.5310  152.2460 C   0  0  2  0  0  3  0  0  0  0  0  0
  162.0360  211.6710  149.8310 C   0  0  0  0  0  3  0  0  0  0  0  0
  162.7690  210.0790  147.9910 C   0  0  0  0  0  2  0  0  0  0  0  0
  161.3440  208.6180  155.6270 C   0  0  2  0  0  3  0  0  0  0  0  0
  161.3000  207.1830  151.6980 C   0  0  0  0  0  0  0  0  0  0  0  0
  158.9890  211.0810  153.6330 S   0  0  2  0  0  0  0  0  0  0  0  0
  163.4140  212.5780  148.0390 C   0  0  0  0  0  1  0  0  0  0  0  0
  161.1830  209.7620  154.6190 C   0  0  0  0  0  2  0  0  0  0  0  0
  160.5140  206.6240  150.6810 C   0  0  0  0  0  3  0  0  0  0  0  0
  161.4260  204.9890  152.7460 C   0  0  0  0  0  3  0  0  0  0  0  0
  160.6960  204.4370  151.6920 C   0  0  0  0  0  3  0  0  0  0  0  0
  161.2240  207.2280  155.0050 C   0  0  0  0  0  2  0  0  0  0  0  0
  160.8360  210.8650  151.8490 N   0  0  1  0  0  0  0  0  0  0  0  0
  159.9880  209.5770  153.6810 C   0  0  2  0  0  3  0  0  0  0  0  0
  161.2730  210.5680  150.4990 C   0  0  2  0  0  3  0  0  0  0  0  0
  159.8960  213.0960  152.0460 C   0  0  0  0  0  1  0  0  0  0  0  0
  161.5870  208.6650  151.7690 C   0  0  1  0  0  3  0  0  0  0  0  0
  1  6  1  0  0  0  0
  2  8  2  0  0  0  0
  3 17  2  0  0  0  0
  4 20  2  0  0  0  0
  4 22  1  0  0  0  0
  5 27  1  1  0  0  0
  5 17  1  0  0  0  0
  6 23  1  0  0  0  0
  7  8  2  0  0  0  0
  9 13  2  0  0  0  0
 10  8  1  6  0  0  0
 10 28  1  0  0  0  0
 12 25  1  0  0  0  0
 13 26  1  0  0  0  0
 14  9  1  0  0  0  0
 14  8  1  0  0  0  0
 15 11  1  0  0  0  0
 16 28  1  0  0  0  0
 16  1  2  0  0  0  0
 17 25  1  0  0  0  0
 18  9  1  0  0  0  0
 19 15  1  0  0  0  0
 20 16  1  0  0  0  0
 21  1  1  0  0  0  0
 22 21  2  0  0  0  0
 23 15  1  0  0  0  0
 24  5  1  0  0  0  0
 24 12  1  0  0  0  0
 25 19  1  0  0  0  0
 26 10  1  0  0  0  0
 26 24  1  0  0  0  0
 28 12  1  0  0  0  0
M  END
>  <MODEL>
5

>  <REMARK>
 VINA RESULT:      -2.2      2.139      5.394
  Name = 
  0 active torsions:
  status: ('A' for Active; 'I' for Inactive)
                            x       y       z     vdW  Elec       q    Type
                         _______ _______ _______ _____ _____    ______ ____

>  <TORSDO>
F 0

$$$$
