=
 OpenBabel11122412523D

 32 38  0  0  1  0  0  0  0  0999 V2000
  160.3060  209.0270  156.8380 C   0  0  1  0  0  3  0  0  0  0  0  0
  161.0020  206.5060  152.2680 C   0  0  0  0  0  0  0  0  0  0  0  0
  161.9580  210.0330  149.0220 C   0  0  0  0  0  3  0  0  0  0  0  0
  162.0000  209.0890  147.9980 C   0  0  0  0  0  3  0  0  0  0  0  0
  160.8280  204.1260  151.4800 C   0  0  0  0  0  0  0  0  0  0  0  0
  160.8860  203.2450  150.4050 C   0  0  0  0  0  0  0  0  0  0  0  0
  160.6970  207.1140  154.6480 C   0  0  0  0  0  0  0  0  0  0  0  0
  161.1930  208.9340  153.0500 C   0  0  0  0  0  3  0  0  0  0  0  0
  161.1110  202.4650  148.3470 C   0  0  0  0  0  0  0  0  0  0  0  0
  160.8770  209.4480  155.5430 C   0  0  2  0  0  3  0  0  0  0  0  0
  161.7020  209.6260  150.3310 C   0  0  0  0  0  3  0  0  0  0  0  0
  161.2230  207.8730  151.9630 C   0  0  1  0  0  3  0  0  0  0  0  0
  161.4820  208.2700  150.6380 C   0  0  0  0  0  0  0  0  0  0  0  0
  161.3080  205.9510  149.8850 C   0  0  0  0  0  0  0  0  0  0  0  0
  160.8620  201.4680  149.1350 N   0  0  0  0  0  0  0  0  0  0  0  0
  159.7300  207.5980  156.8780 C   0  0  0  0  0  2  0  0  0  0  0  0
  160.9070  208.4220  154.4320 C   0  0  0  0  0  0  0  0  0  0  0  0
  160.7180  201.9620  150.4450 N   0  0  0  0  0  0  0  0  0  0  0  0
  160.4990  206.5900  156.0310 C   0  0  0  0  0  2  0  0  0  0  0  0
  161.7670  209.0310  156.6440 N   0  0  0  0  0  0  0  0  0  0  0  0
  161.7850  207.7410  148.2840 C   0  0  0  0  0  3  0  0  0  0  0  0
  161.5230  207.3130  149.6000 C   0  0  0  0  0  0  0  0  0  0  0  0
  161.3530  205.0050  148.8350 C   0  0  0  0  0  3  0  0  0  0  0  0
  160.7580  206.1550  153.5390 C   0  0  0  0  0  3  0  0  0  0  0  0
  160.5640  203.6160  152.7490 O   0  0  0  0  0  1  0  0  0  0  0  0
  161.3260  202.3420  146.8810 C   0  0  0  0  0  1  0  0  0  0  0  0
  161.0420  205.5250  151.2340 C   0  0  0  0  0  0  0  0  0  0  0  0
  161.1380  203.6740  149.1400 C   0  0  0  0  0  0  0  0  0  0  0  0
  162.2680  210.2490  157.2610 C   0  0  0  0  0  2  0  0  0  0  0  0
  163.4450  210.8040  156.5110 C   0  0  0  0  0  0  0  0  0  0  0  0
  164.5890  211.4630  157.2100 C   0  0  0  0  0  1  0  0  0  0  0  0
  163.4670  210.7130  155.2950 O   0  0  0  0  0  0  0  0  0  0  0  0
  1 16  1  6  0  0  0
  2 24  1  0  0  0  0
  3 11  1  0  0  0  0
  4 21  1  0  0  0  0
  4  3  2  0  0  0  0
  5 25  1  0  0  0  0
  6 18  1  0  0  0  0
  6  5  2  0  0  0  0
  7 19  1  0  0  0  0
  8 17  2  0  0  0  0
  9 15  1  0  0  0  0
  9 28  2  0  0  0  0
 10 17  1  6  0  0  0
 10 20  1  0  0  0  0
 10  1  1  0  0  0  0
 11 13  2  0  0  0  0
 12  2  1  0  0  0  0
 12  8  1  1  0  0  0
 13 12  1  0  0  0  0
 14 27  1  0  0  0  0
 15 18  2  0  0  0  0
 17  7  1  0  0  0  0
 19 16  1  0  0  0  0
 20  1  1  0  0  0  0
 20 29  1  0  0  0  0
 21 22  2  0  0  0  0
 22 14  1  0  0  0  0
 22 13  1  0  0  0  0
 23 28  1  0  0  0  0
 23 14  2  0  0  0  0
 24  7  2  0  0  0  0
 26  9  1  0  0  0  0
 27  5  1  0  0  0  0
 27  2  2  0  0  0  0
 28  6  1  0  0  0  0
 30 31  1  0  0  0  0
 30 29  1  0  0  0  0
 32 30  2  0  0  0  0
M  END
>  <MODEL>
1

>  <REMARK>
 VINA RESULT:     -10.5      0.000      0.000
  Name = 
  2 active torsions:
  status: ('A' for Active; 'I' for Inactive)
    1  A    between atoms: N_20  and  C_29
    2  A    between atoms: C_29  and  C_30
                            x       y       z     vdW  Elec       q    Type
                         _______ _______ _______ _____ _____    ______ ____

>  <TORSDO>
F 2

$$$$
=
 OpenBabel11122412523D

 32 38  0  0  1  0  0  0  0  0999 V2000
  162.1460  212.9560  148.9970 C   0  0  1  0  0  3  0  0  0  0  0  0
  161.4730  207.7530  149.4450 C   0  0  0  0  0  0  0  0  0  0  0  0
  161.1350  206.9400  154.2520 C   0  0  0  0  0  3  0  0  0  0  0  0
  161.0550  205.5680  154.0220 C   0  0  0  0  0  3  0  0  0  0  0  0
  161.4310  205.8010  147.8630 C   0  0  0  0  0  0  0  0  0  0  0  0
  161.3450  204.4210  147.7130 C   0  0  0  0  0  0  0  0  0  0  0  0
  161.6880  210.0820  148.6320 C   0  0  0  0  0  0  0  0  0  0  0  0
  161.5050  209.7270  151.0710 C   0  0  0  0  0  3  0  0  0  0  0  0
  161.1700  202.2700  148.2000 C   0  0  0  0  0  0  0  0  0  0  0  0
  161.7120  212.0990  150.1190 C   0  0  2  0  0  3  0  0  0  0  0  0
  161.2570  207.8190  153.1760 C   0  0  0  0  0  3  0  0  0  0  0  0
  161.4280  208.2390  150.7760 C   0  0  0  0  0  0  0  0  0  0  0  0
  161.3030  207.3420  151.8520 C   0  0  0  0  0  0  0  0  0  0  0  0
  161.2650  205.4510  150.3030 C   0  0  0  0  0  0  0  0  0  0  0  0
  161.2520  202.3900  146.9130 N   0  0  0  0  0  0  0  0  0  0  0  0
  162.5540  212.2130  147.7100 C   0  0  0  0  0  2  0  0  0  0  0  0
  161.6410  210.6090  149.8650 C   0  0  0  0  0  0  0  0  0  0  0  0
  161.3640  203.7580  146.6020 N   0  0  0  0  0  0  0  0  0  0  0  0
  161.7340  210.9590  147.4260 C   0  0  0  0  0  2  0  0  0  0  0  0
  160.7110  212.8040  149.2950 N   0  0  0  0  0  0  0  0  0  0  0  0
  161.0980  205.0770  152.7170 C   0  0  0  0  0  3  0  0  0  0  0  0
  161.2230  205.9500  151.6180 C   0  0  0  0  0  0  0  0  0  0  0  0
  161.1820  204.0560  150.0850 C   0  0  0  0  0  3  0  0  0  0  0  0
  161.5920  208.6300  148.4370 C   0  0  0  0  0  2  0  0  0  0  0  0
  161.5510  206.5900  146.7210 O   0  0  0  0  0  1  0  0  0  0  0  0
  161.0380  200.9720  148.9140 C   0  0  0  0  0  1  0  0  0  0  0  0
  161.3910  206.3530  149.1880 C   0  0  0  0  0  0  0  0  0  0  0  0
  161.2260  203.5910  148.7840 C   0  0  0  0  0  0  0  0  0  0  0  0
  160.3110  213.9850  150.0430 C   0  0  0  0  0  2  0  0  0  0  0  0
  159.1380  213.7000  150.9380 C   0  0  0  0  0  0  0  0  0  0  0  0
  157.7960  213.3320  150.3910 C   0  0  0  0  0  1  0  0  0  0  0  0
  159.2850  213.7710  152.1460 O   0  0  0  0  0  0  0  0  0  0  0  0
  1 16  1  6  0  0  0
  1 20  1  0  0  0  0
  1 10  1  0  0  0  0
  2 12  1  0  0  0  0
  4  3  1  0  0  0  0
  5 27  1  0  0  0  0
  6  5  2  0  0  0  0
  6 28  1  0  0  0  0
  7 17  2  0  0  0  0
  9 28  2  0  0  0  0
  9 26  1  0  0  0  0
 10 17  1  6  0  0  0
 11  3  2  0  0  0  0
 12  8  2  0  0  0  0
 12 13  1  0  0  0  0
 13 11  1  0  0  0  0
 14 22  1  0  0  0  0
 15  9  1  0  0  0  0
 17  8  1  0  0  0  0
 18 15  2  0  0  0  0
 18  6  1  0  0  0  0
 19 16  1  0  0  0  0
 19  7  1  0  0  0  0
 20 29  1  0  0  0  0
 20 10  1  0  0  0  0
 21  4  2  0  0  0  0
 22 13  2  0  0  0  0
 22 21  1  0  0  0  0
 23 14  2  0  0  0  0
 24  7  1  0  0  0  0
 24  2  1  0  0  0  0
 25  5  1  0  0  0  0
 27  2  2  0  0  0  0
 27 14  1  0  0  0  0
 28 23  1  0  0  0  0
 29 30  1  0  0  0  0
 30 32  2  0  0  0  0
 31 30  1  0  0  0  0
M  END
>  <MODEL>
2

>  <REMARK>
 VINA RESULT:      -9.4      3.092      5.648
  Name = 
  2 active torsions:
  status: ('A' for Active; 'I' for Inactive)
    1  A    between atoms: N_20  and  C_29
    2  A    between atoms: C_29  and  C_30
                            x       y       z     vdW  Elec       q    Type
                         _______ _______ _______ _____ _____    ______ ____

>  <TORSDO>
F 2

$$$$
=
 OpenBabel11122412523D

 32 38  0  0  1  0  0  0  0  0999 V2000
  161.5800  209.8330  154.6180 C   0  0  1  0  0  3  0  0  0  0  0  0
  161.1240  206.6470  150.4500 C   0  0  0  0  0  0  0  0  0  0  0  0
  160.9460  202.1390  152.3290 C   0  0  0  0  0  3  0  0  0  0  0  0
  160.9140  201.5970  151.0460 C   0  0  0  0  0  3  0  0  0  0  0  0
  161.1150  206.9390  147.9540 C   0  0  0  0  0  0  0  0  0  0  0  0
  161.0790  206.3240  146.7070 C   0  0  0  0  0  0  0  0  0  0  0  0
  161.2250  208.5870  151.9860 C   0  0  0  0  0  0  0  0  0  0  0  0
  161.1220  206.3290  152.9880 C   0  0  0  0  0  3  0  0  0  0  0  0
  161.0010  204.7570  145.1470 C   0  0  0  0  0  0  0  0  0  0  0  0
  161.2110  208.4090  154.4860 C   0  0  2  0  0  3  0  0  0  0  0  0
  161.0050  203.5230  152.4980 C   0  0  0  0  0  3  0  0  0  0  0  0
  161.0950  205.7810  151.5720 C   0  0  0  0  0  0  0  0  0  0  0  0
  161.0340  204.3870  151.3880 C   0  0  0  0  0  0  0  0  0  0  0  0
  161.0280  204.6840  148.9610 C   0  0  0  0  0  0  0  0  0  0  0  0
  161.0440  205.9120  144.5610 N   0  0  0  0  0  0  0  0  0  0  0  0
  161.9820  210.5410  153.3090 C   0  0  0  0  0  2  0  0  0  0  0  0
  161.1900  207.8250  153.0900 C   0  0  0  0  0  0  0  0  0  0  0  0
  161.0940  206.9090  145.5530 N   0  0  0  0  0  0  0  0  0  0  0  0
  161.2050  210.0750  152.0820 C   0  0  0  0  0  2  0  0  0  0  0  0
  160.1600  209.4380  154.6210 N   0  0  0  0  0  0  0  0  0  0  0  0
  160.9410  202.4390  149.9340 C   0  0  0  0  0  3  0  0  0  0  0  0
  161.0020  203.8380  150.0860 C   0  0  0  0  0  0  0  0  0  0  0  0
  160.9940  204.1200  147.6650 C   0  0  0  0  0  3  0  0  0  0  0  0
  161.1810  207.9720  150.6540 C   0  0  0  0  0  2  0  0  0  0  0  0
  161.1740  208.3290  148.0120 O   0  0  0  0  0  1  0  0  0  0  0  0
  160.9400  203.4550  144.4300 C   0  0  0  0  0  1  0  0  0  0  0  0
  161.0890  206.1130  149.1290 C   0  0  0  0  0  0  0  0  0  0  0  0
  161.0220  204.9720  146.5760 C   0  0  0  0  0  0  0  0  0  0  0  0
  159.7350  209.4190  156.0120 C   0  0  0  0  0  2  0  0  0  0  0  0
  159.0580  210.7030  156.3990 C   0  0  0  0  0  0  0  0  0  0  0  0
  157.7830  211.1500  155.7600 C   0  0  0  0  0  1  0  0  0  0  0  0
  159.5640  211.4010  157.2610 O   0  0  0  0  0  0  0  0  0  0  0  0
  1 16  1  6  0  0  0
  1 20  1  0  0  0  0
  2 24  1  0  0  0  0
  2 12  1  0  0  0  0
  3 11  1  0  0  0  0
  4  3  2  0  0  0  0
  5 25  1  0  0  0  0
  5 27  1  0  0  0  0
  6  5  2  0  0  0  0
  7 19  1  0  0  0  0
  7 17  2  0  0  0  0
  8 17  1  0  0  0  0
  9 28  2  0  0  0  0
 10 17  1  6  0  0  0
 10  1  1  0  0  0  0
 10 20  1  0  0  0  0
 12  8  2  0  0  0  0
 13 12  1  0  0  0  0
 13 11  2  0  0  0  0
 14 27  1  0  0  0  0
 14 22  1  0  0  0  0
 15  9  1  0  0  0  0
 15 18  2  0  0  0  0
 18  6  1  0  0  0  0
 19 16  1  0  0  0  0
 20 29  1  0  0  0  0
 21 22  2  0  0  0  0
 21  4  1  0  0  0  0
 22 13  1  0  0  0  0
 23 14  2  0  0  0  0
 24  7  1  0  0  0  0
 26  9  1  0  0  0  0
 27  2  2  0  0  0  0
 28  6  1  0  0  0  0
 28 23  1  0  0  0  0
 29 30  1  0  0  0  0
 30 32  2  0  0  0  0
 31 30  1  0  0  0  0
M  END
>  <MODEL>
3

>  <REMARK>
 VINA RESULT:      -9.2      2.740      4.566
  Name = 
  2 active torsions:
  status: ('A' for Active; 'I' for Inactive)
    1  A    between atoms: N_20  and  C_29
    2  A    between atoms: C_29  and  C_30
                            x       y       z     vdW  Elec       q    Type
                         _______ _______ _______ _____ _____    ______ ____

>  <TORSDO>
F 2

$$$$
=
 OpenBabel11122412523D

 32 38  0  0  1  0  0  0  0  0999 V2000
  161.9270  202.9810  146.8980 C   0  0  1  0  0  3  0  0  0  0  0  0
  161.3360  206.4840  150.7840 C   0  0  0  0  0  0  0  0  0  0  0  0
  162.3310  210.8090  148.7380 C   0  0  0  0  0  3  0  0  0  0  0  0
  162.1720  211.4380  149.9710 C   0  0  0  0  0  3  0  0  0  0  0  0
  160.8310  206.3760  153.2430 C   0  0  0  0  0  0  0  0  0  0  0  0
  160.6890  207.0740  154.4380 C   0  0  0  0  0  0  0  0  0  0  0  0
  161.3470  204.4530  149.3680 C   0  0  0  0  0  0  0  0  0  0  0  0
  161.8430  206.6170  148.2810 C   0  0  0  0  0  3  0  0  0  0  0  0
  160.6270  208.7370  155.8960 C   0  0  0  0  0  0  0  0  0  0  0  0
  161.8100  204.4520  146.9050 C   0  0  2  0  0  3  0  0  0  0  0  0
  162.1620  209.4280  148.6350 C   0  0  0  0  0  3  0  0  0  0  0  0
  161.6670  207.2600  149.6450 C   0  0  0  0  0  0  0  0  0  0  0  0
  161.8330  208.6530  149.7620 C   0  0  0  0  0  0  0  0  0  0  0  0
  161.3430  208.5340  152.1540 C   0  0  0  0  0  0  0  0  0  0  0  0
  160.3520  207.6370  156.5220 N   0  0  0  0  0  0  0  0  0  0  0  0
  161.9520  202.3080  148.2840 C   0  0  0  0  0  2  0  0  0  0  0  0
  161.6510  205.1290  148.2490 C   0  0  0  0  0  0  0  0  0  0  0  0
  160.3910  206.5780  155.5960 N   0  0  0  0  0  2  0  0  0  0  0  0
  161.0700  202.9880  149.3260 C   0  0  0  0  0  2  0  0  0  0  0  0
  160.6280  203.6170  146.6140 N   0  0  0  0  0  0  0  0  0  0  0  0
  161.8460  210.6850  151.0990 C   0  0  0  0  0  3  0  0  0  0  0  0
  161.6730  209.2900  151.0140 C   0  0  0  0  0  0  0  0  0  0  0  0
  161.1850  209.1860  153.3990 C   0  0  0  0  0  3  0  0  0  0  0  0
  161.1830  205.1590  150.6440 C   0  0  0  0  0  3  0  0  0  0  0  0
  160.6410  204.9960  153.2500 O   0  0  0  0  0  1  0  0  0  0  0  0
  160.6820  210.0770  156.5390 C   0  0  0  0  0  1  0  0  0  0  0  0
  161.1680  207.1090  152.0550 C   0  0  0  0  0  0  0  0  0  0  0  0
  160.8610  208.4210  154.5050 C   0  0  0  0  0  0  0  0  0  0  0  0
  160.4670  203.6110  145.1690 C   0  0  0  0  0  2  0  0  0  0  0  0
  160.7060  204.9730  144.5820 C   0  0  0  0  0  0  0  0  0  0  0  0
  160.0810  206.2030  145.1560 C   0  0  0  0  0  1  0  0  0  0  0  0
  161.4310  205.0770  143.6070 O   0  0  0  0  0  0  0  0  0  0  0  0
  1 10  1  0  0  0  0
  1 16  1  1  0  0  0
  2 27  1  0  0  0  0
  3  4  1  0  0  0  0
  4 21  2  0  0  0  0
  5 25  1  0  0  0  0
  5  6  1  0  0  0  0
  6 28  2  0  0  0  0
  6 18  1  0  0  0  0
  7 24  2  0  0  0  0
  8 12  1  0  0  0  0
  9 15  2  0  0  0  0
  9 26  1  0  0  0  0
 10 17  1  1  0  0  0
 11  3  2  0  0  0  0
 11 13  1  0  0  0  0
 12 13  1  0  0  0  0
 12  2  2  0  0  0  0
 13 22  2  0  0  0  0
 14 23  2  0  0  0  0
 16 19  1  0  0  0  0
 17  8  2  0  0  0  0
 17  7  1  0  0  0  0
 18 15  1  0  0  0  0
 19  7  1  0  0  0  0
 20  1  1  0  0  0  0
 20 10  1  0  0  0  0
 22 21  1  0  0  0  0
 22 14  1  0  0  0  0
 23 28  1  0  0  0  0
 24  2  1  0  0  0  0
 27 14  1  0  0  0  0
 27  5  2  0  0  0  0
 28  9  1  0  0  0  0
 29 20  1  0  0  0  0
 30 31  1  0  0  0  0
 30 29  1  0  0  0  0
 32 30  2  0  0  0  0
M  END
>  <MODEL>
4

>  <REMARK>
 VINA RESULT:      -8.7      2.282      7.872
  Name = 
  2 active torsions:
  status: ('A' for Active; 'I' for Inactive)
    1  A    between atoms: N_20  and  C_29
    2  A    between atoms: C_29  and  C_30
                            x       y       z     vdW  Elec       q    Type
                         _______ _______ _______ _____ _____    ______ ____

>  <TORSDO>
F 2

$$$$
=
 OpenBabel11122412523D

 32 38  0  0  1  0  0  0  0  0999 V2000
  161.2750  201.5670  148.9990 C   0  0  1  0  0  3  0  0  0  0  0  0
  161.2100  206.1160  151.6500 C   0  0  0  0  0  0  0  0  0  0  0  0
  161.9560  209.5560  148.2610 C   0  0  0  0  0  3  0  0  0  0  0  0
  161.9610  210.5390  149.2480 C   0  0  0  0  0  3  0  0  0  0  0  0
  161.0260  206.7890  154.0650 C   0  0  0  0  0  0  0  0  0  0  0  0
  161.0440  207.8260  154.9920 C   0  0  0  0  0  0  0  0  0  0  0  0
  161.0270  203.7500  150.9420 C   0  0  0  0  0  0  0  0  0  0  0  0
  161.3900  205.4520  149.1870 C   0  0  0  0  0  3  0  0  0  0  0  0
  161.1800  209.8560  155.8600 C   0  0  0  0  0  0  0  0  0  0  0  0
  161.1670  202.9740  148.5640 C   0  0  2  0  0  3  0  0  0  0  0  0
  161.7680  208.2200  148.6120 C   0  0  0  0  0  3  0  0  0  0  0  0
  161.3950  206.4900  150.2960 C   0  0  0  0  0  0  0  0  0  0  0  0
  161.5830  207.8430  149.9550 C   0  0  0  0  0  0  0  0  0  0  0  0
  161.4050  208.4840  152.3070 C   0  0  0  0  0  0  0  0  0  0  0  0
  160.9820  209.0150  156.8240 N   0  0  0  0  0  0  0  0  0  0  0  0
  161.4750  201.3510  150.5110 C   0  0  0  0  0  2  0  0  0  0  0  0
  161.1870  204.0360  149.6410 C   0  0  0  0  0  0  0  0  0  0  0  0
  160.8950  207.7220  156.2740 N   0  0  0  0  0  2  0  0  0  0  0  0
  160.7380  202.3570  151.3900 C   0  0  0  0  0  2  0  0  0  0  0  0
  159.9530  202.1440  148.6910 N   0  0  0  0  0  0  0  0  0  0  0  0
  161.7800  210.1830  150.5850 C   0  0  0  0  0  3  0  0  0  0  0  0
  161.5890  208.8390  150.9580 C   0  0  0  0  0  0  0  0  0  0  0  0
  161.4120  209.4930  153.2990 C   0  0  0  0  0  3  0  0  0  0  0  0
  161.0320  204.8200  151.9470 C   0  0  0  0  0  3  0  0  0  0  0  0
  160.8310  205.4880  154.5210 O   0  0  0  0  0  1  0  0  0  0  0  0
  161.3250  211.3250  156.0450 C   0  0  0  0  0  1  0  0  0  0  0  0
  161.2100  207.1070  152.6760 C   0  0  0  0  0  0  0  0  0  0  0  0
  161.2300  209.1190  154.6170 C   0  0  0  0  0  0  0  0  0  0  0  0
  159.6060  201.7030  147.3490 C   0  0  0  0  0  2  0  0  0  0  0  0
  160.8060  201.6880  146.4460 C   0  0  0  0  0  0  0  0  0  0  0  0
  161.2060  202.8810  145.6400 C   0  0  0  0  0  1  0  0  0  0  0  0
  161.4740  200.6710  146.3680 O   0  0  0  0  0  0  0  0  0  0  0  0
  1 16  1  1  0  0  0
  2 24  1  0  0  0  0
  2 27  1  0  0  0  0
  3 11  2  0  0  0  0
  3  4  1  0  0  0  0
  4 21  2  0  0  0  0
  5 25  1  0  0  0  0
  5  6  1  0  0  0  0
  6 18  1  0  0  0  0
  7 19  1  0  0  0  0
  7 24  2  0  0  0  0
  8 17  2  0  0  0  0
  8 12  1  0  0  0  0
  9 26  1  0  0  0  0
  9 15  2  0  0  0  0
 10 20  1  0  0  0  0
 10  1  1  0  0  0  0
 10 17  1  1  0  0  0
 11 13  1  0  0  0  0
 12  2  2  0  0  0  0
 13 12  1  0  0  0  0
 13 22  2  0  0  0  0
 14 27  1  0  0  0  0
 14 23  2  0  0  0  0
 16 19  1  0  0  0  0
 17  7  1  0  0  0  0
 18 15  1  0  0  0  0
 20  1  1  0  0  0  0
 21 22  1  0  0  0  0
 22 14  1  0  0  0  0
 23 28  1  0  0  0  0
 27  5  2  0  0  0  0
 28  6  2  0  0  0  0
 28  9  1  0  0  0  0
 29 20  1  0  0  0  0
 30 29  1  0  0  0  0
 31 30  1  0  0  0  0
 32 30  2  0  0  0  0
M  END
>  <MODEL>
5

>  <REMARK>
 VINA RESULT:      -8.6      1.661      7.878
  Name = 
  2 active torsions:
  status: ('A' for Active; 'I' for Inactive)
    1  A    between atoms: N_20  and  C_29
    2  A    between atoms: C_29  and  C_30
                            x       y       z     vdW  Elec       q    Type
                         _______ _______ _______ _____ _____    ______ ____

>  <TORSDO>
F 2

$$$$
