=
 OpenBabel11122413013D

 32 37  0  0  1  0  0  0  0  0999 V2000
  161.5350  209.0560  157.2610 C   0  0  0  0  0  2  0  0  0  0  0  0
  160.6630  206.9010  152.2460 C   0  0  2  0  0  3  0  0  0  0  0  0
  161.9440  210.7630  149.1760 C   0  0  0  0  0  2  0  0  0  0  0  0
  162.7190  209.7660  148.3380 C   0  0  0  0  0  2  0  0  0  0  0  0
  160.9730  204.5370  151.2740 C   0  0  0  0  0  0  0  0  0  0  0  0
  161.3190  203.7830  150.0290 C   0  0  1  0  0  3  0  0  0  0  0  0
  160.8760  207.3930  154.6410 C   0  0  0  0  0  0  0  0  0  0  0  0
  160.6060  209.3220  153.0390 C   0  0  0  0  0  2  0  0  0  0  0  0
  160.9370  203.5140  147.8230 C   0  0  2  0  0  3  0  0  0  0  0  0
  160.1430  209.7260  155.4520 C   0  0  0  0  0  2  0  0  0  0  0  0
  161.8770  210.2500  150.6080 C   0  0  0  0  0  2  0  0  0  0  0  0
  160.8950  208.3380  151.9820 N   0  0  0  0  0  0  0  0  0  0  0  0
  161.3820  208.8220  150.7050 C   0  0  0  0  0  0  0  0  0  0  0  0
  160.9950  206.5730  149.8000 C   0  0  1  0  0  3  0  0  0  0  0  0
  160.7930  202.1630  148.5230 C   0  0  0  0  0  2  0  0  0  0  0  0
  160.9140  207.6600  157.1260 C   0  0  0  0  0  2  0  0  0  0  0  0
  160.1100  208.6770  154.3410 C   0  0  2  0  0  3  0  0  0  0  0  0
  160.8410  202.4150  149.9660 N   0  0  0  0  0  2  0  0  0  0  0  0
  161.3180  207.0220  155.9210 O   0  0  0  0  0  0  0  0  0  0  0  0
  161.4850  209.8190  156.0140 N   0  0  0  0  0  0  0  0  0  0  0  0
  161.9480  208.4540  148.2910 C   0  0  0  0  0  2  0  0  0  0  0  0
  161.5150  207.9740  149.6580 C   0  0  0  0  0  0  0  0  0  0  0  0
  161.4610  205.6820  148.7270 N   0  0  0  0  0  2  0  0  0  0  0  0
  161.1400  206.5690  153.6290 C   0  0  0  0  0  3  0  0  0  0  0  0
  160.9740  203.9240  152.4010 N   0  0  0  0  0  2  0  0  0  0  0  0
  162.3170  203.5900  147.1700 C   0  0  0  0  0  1  0  0  0  0  0  0
  161.3430  206.0120  151.1950 C   0  0  1  0  0  3  0  0  0  0  0  0
  160.7500  204.4780  148.8990 N   0  0  2  0  0  0  0  0  0  0  0  0
  161.7020  211.2140  156.3590 C   0  0  0  0  0  2  0  0  0  0  0  0
  160.3820  211.9660  156.3520 C   0  0  0  0  0  3  0  0  0  0  0  0
  160.0750  212.4220  154.9420 C   0  0  0  0  0  1  0  0  0  0  0  0
  160.4640  213.1780  157.2610 C   0  0  0  0  0  1  0  0  0  0  0  0
  2 24  1  1  0  0  0
  3 11  1  0  0  0  0
  4  3  1  0  0  0  0
  5 25  2  0  0  0  0
  6 18  1  1  0  0  0
  6  5  1  0  0  0  0
  7 19  1  0  0  0  0
  9 26  1  1  0  0  0
  9 15  1  0  0  0  0
  9 28  1  0  0  0  0
 10 20  1  0  0  0  0
 11 13  1  0  0  0  0
 12  2  1  0  0  0  0
 12  8  1  0  0  0  0
 13 12  1  0  0  0  0
 14 23  1  6  0  0  0
 14 27  1  0  0  0  0
 15 18  1  0  0  0  0
 16  1  1  0  0  0  0
 17  8  1  6  0  0  0
 17  7  1  0  0  0  0
 17 10  1  0  0  0  0
 19 16  1  0  0  0  0
 20 29  1  0  0  0  0
 20  1  1  0  0  0  0
 21  4  1  0  0  0  0
 21 22  1  0  0  0  0
 22 14  1  0  0  0  0
 22 13  2  0  0  0  0
 24  7  2  0  0  0  0
 27  5  1  6  0  0  0
 27  2  1  0  0  0  0
 28 23  1  6  0  0  0
 28  6  1  0  0  0  0
 30 29  1  0  0  0  0
 30 32  1  0  0  0  0
 31 30  1  0  0  0  0
M  END
>  <MODEL>
1

>  <REMARK>
 VINA RESULT:      -7.9      0.000      0.000
  Name = 
  2 active torsions:
  status: ('A' for Active; 'I' for Inactive)
    1  A    between atoms: N_20  and  C_29
    2  A    between atoms: C_29  and  C_30
                            x       y       z     vdW  Elec       q    Type
                         _______ _______ _______ _____ _____    ______ ____

>  <TORSDO>
F 2

$$$$
=
 OpenBabel11122413013D

 32 37  0  0  1  0  0  0  0  0999 V2000
  160.5110  209.6910  153.9670 C   0  0  0  0  0  2  0  0  0  0  0  0
  161.5920  206.3740  149.6790 C   0  0  2  0  0  3  0  0  0  0  0  0
  161.1610  201.7430  151.7650 C   0  0  0  0  0  2  0  0  0  0  0  0
  160.3480  201.3340  150.5530 C   0  0  0  0  0  2  0  0  0  0  0  0
  161.0680  206.5310  147.1640 C   0  0  0  0  0  0  0  0  0  0  0  0
  160.7520  205.7210  145.9470 C   0  0  1  0  0  3  0  0  0  0  0  0
  161.2040  208.2300  151.2380 C   0  0  0  0  0  0  0  0  0  0  0  0
  161.8930  205.9950  152.1810 C   0  0  0  0  0  2  0  0  0  0  0  0
  161.3180  203.9560  144.6600 C   0  0  2  0  0  3  0  0  0  0  0  0
  162.1570  208.0090  153.6210 C   0  0  0  0  0  2  0  0  0  0  0  0
  161.0120  203.2450  151.9700 C   0  0  0  0  0  2  0  0  0  0  0  0
  161.5840  205.4620  150.8440 N   0  0  0  0  0  0  0  0  0  0  0  0
  161.2980  204.0460  150.7160 C   0  0  0  0  0  0  0  0  0  0  0  0
  161.4700  204.3170  148.2830 C   0  0  1  0  0  3  0  0  0  0  0  0
  161.2070  205.2000  143.7810 C   0  0  0  0  0  2  0  0  0  0  0  0
  160.9480  210.2930  152.6270 C   0  0  0  0  0  2  0  0  0  0  0  0
  162.1620  207.5070  152.1780 C   0  0  2  0  0  3  0  0  0  0  0  0
  161.0460  206.3510  144.6740 N   0  0  0  0  0  2  0  0  0  0  0  0
  160.5880  209.4570  151.5340 O   0  0  0  0  0  0  0  0  0  0  0  0
  160.7890  208.2580  154.0610 N   0  0  0  0  0  0  0  0  0  0  0  0
  160.9370  201.9990  149.3160 C   0  0  0  0  0  2  0  0  0  0  0  0
  161.1600  203.4840  149.4920 C   0  0  0  0  0  0  0  0  0  0  0  0
  161.0000  203.7010  147.0320 N   0  0  0  0  0  2  0  0  0  0  0  0
  160.9360  207.6690  150.0610 C   0  0  0  0  0  3  0  0  0  0  0  0
  160.8700  207.7990  147.1440 N   0  0  0  0  0  2  0  0  0  0  0  0
  160.0340  203.1370  144.5260 C   0  0  0  0  0  1  0  0  0  0  0  0
  160.9090  205.7440  148.4570 C   0  0  1  0  0  3  0  0  0  0  0  0
  161.5220  204.5000  145.9970 N   0  0  2  0  0  0  0  0  0  0  0  0
  160.7270  207.9040  155.4690 C   0  0  0  0  0  2  0  0  0  0  0  0
  161.0890  209.1050  156.3260 C   0  0  0  0  0  3  0  0  0  0  0  0
  162.3200  208.7810  157.1460 C   0  0  0  0  0  1  0  0  0  0  0  0
  159.9440  209.4460  157.2610 C   0  0  0  0  0  1  0  0  0  0  0  0
  1 20  1  0  0  0  0
  2 24  1  1  0  0  0
  2 12  1  0  0  0  0
  3 11  1  0  0  0  0
  4  3  1  0  0  0  0
  6 18  1  6  0  0  0
  6 28  1  0  0  0  0
  6  5  1  0  0  0  0
  7 19  1  0  0  0  0
  7 17  1  0  0  0  0
  9 26  1  1  0  0  0
  9 28  1  0  0  0  0
 10 20  1  0  0  0  0
 12  8  1  0  0  0  0
 13 12  1  0  0  0  0
 13 11  1  0  0  0  0
 14 23  1  6  0  0  0
 14 27  1  0  0  0  0
 14 22  1  0  0  0  0
 15  9  1  0  0  0  0
 15 18  1  0  0  0  0
 16  1  1  0  0  0  0
 17  8  1  1  0  0  0
 17 10  1  0  0  0  0
 19 16  1  0  0  0  0
 20 29  1  0  0  0  0
 21 22  1  0  0  0  0
 21  4  1  0  0  0  0
 22 13  2  0  0  0  0
 24  7  2  0  0  0  0
 25  5  2  0  0  0  0
 27  5  1  6  0  0  0
 27  2  1  0  0  0  0
 28 23  1  1  0  0  0
 29 30  1  0  0  0  0
 30 31  1  0  0  0  0
 30 32  1  0  0  0  0
M  END
>  <MODEL>
2

>  <REMARK>
 VINA RESULT:      -7.4      2.212      4.781
  Name = 
  2 active torsions:
  status: ('A' for Active; 'I' for Inactive)
    1  A    between atoms: N_20  and  C_29
    2  A    between atoms: C_29  and  C_30
                            x       y       z     vdW  Elec       q    Type
                         _______ _______ _______ _____ _____    ______ ____

>  <TORSDO>
F 2

$$$$
=
 OpenBabel11122413013D

 32 37  0  0  1  0  0  0  0  0999 V2000
  160.4780  202.5690  147.2430 C   0  0  0  0  0  2  0  0  0  0  0  0
  161.7620  206.3250  151.0890 C   0  0  2  0  0  3  0  0  0  0  0  0
  162.1870  210.5900  148.3310 C   0  0  0  0  0  2  0  0  0  0  0  0
  161.3670  211.2930  149.3940 C   0  0  0  0  0  2  0  0  0  0  0  0
  161.0520  206.6350  153.5440 C   0  0  0  0  0  0  0  0  0  0  0  0
  160.7820  207.6610  154.5990 C   0  0  1  0  0  3  0  0  0  0  0  0
  161.2010  204.3230  149.7850 C   0  0  0  0  0  0  0  0  0  0  0  0
  162.2850  206.2650  148.5960 C   0  0  0  0  0  2  0  0  0  0  0  0
  161.5230  209.5060  155.6640 C   0  0  2  0  0  3  0  0  0  0  0  0
  162.3340  204.0350  147.4900 C   0  0  0  0  0  2  0  0  0  0  0  0
  161.8240  209.1110  148.3310 C   0  0  0  0  0  2  0  0  0  0  0  0
  161.9720  207.0370  149.8100 N   0  0  0  0  0  0  0  0  0  0  0  0
  161.8990  208.4810  149.7070 C   0  0  0  0  0  0  0  0  0  0  0  0
  161.8620  208.5700  152.1590 C   0  0  1  0  0  3  0  0  0  0  0  0
  161.1640  208.4420  156.7000 C   0  0  0  0  0  2  0  0  0  0  0  0
  160.7260  202.1260  148.6890 C   0  0  0  0  0  2  0  0  0  0  0  0
  162.3190  204.7490  148.8400 C   0  0  2  0  0  3  0  0  0  0  0  0
  160.8900  207.2010  155.9710 N   0  0  0  0  0  2  0  0  0  0  0  0
  160.4250  203.1650  149.6140 O   0  0  0  0  0  0  0  0  0  0  0  0
  160.9780  203.9160  146.9700 N   0  0  0  0  0  0  0  0  0  0  0  0
  161.7620  210.7520  150.7610 C   0  0  0  0  0  2  0  0  0  0  0  0
  161.7660  209.2400  150.8200 C   0  0  0  0  0  0  0  0  0  0  0  0
  161.4090  209.4330  153.2610 N   0  0  0  0  0  2  0  0  0  0  0  0
  160.9430  205.0920  150.8400 C   0  0  0  0  0  3  0  0  0  0  0  0
  160.6610  205.4270  153.7280 N   0  0  0  0  0  2  0  0  0  0  0  0
  160.3740  210.5090  155.5640 C   0  0  0  0  0  1  0  0  0  0  0  0
  161.1030  207.2270  152.1420 C   0  0  1  0  0  3  0  0  0  0  0  0
  161.7310  208.7380  154.4430 N   0  0  2  0  0  0  0  0  0  0  0  0
  161.0660  204.0530  145.5250 C   0  0  0  0  0  2  0  0  0  0  0  0
  161.3380  205.5010  145.1530 C   0  0  0  0  0  3  0  0  0  0  0  0
  160.1730  206.3580  145.5990 C   0  0  0  0  0  1  0  0  0  0  0  0
  161.5070  205.6320  143.6510 C   0  0  0  0  0  1  0  0  0  0  0  0
  1 16  1  0  0  0  0
  2 24  1  6  0  0  0
  2 27  1  0  0  0  0
  3 11  1  0  0  0  0
  3  4  1  0  0  0  0
  4 21  1  0  0  0  0
  5 25  2  0  0  0  0
  6  5  1  6  0  0  0
  6 18  1  0  0  0  0
  7 24  2  0  0  0  0
  8 17  1  0  0  0  0
  8 12  1  0  0  0  0
  9 26  1  6  0  0  0
  9 15  1  0  0  0  0
 11 13  1  0  0  0  0
 12  2  1  0  0  0  0
 13 12  1  0  0  0  0
 13 22  2  0  0  0  0
 14 22  1  6  0  0  0
 14 23  1  0  0  0  0
 16 19  1  0  0  0  0
 17 10  1  6  0  0  0
 17  7  1  0  0  0  0
 18 15  1  0  0  0  0
 19  7  1  0  0  0  0
 20  1  1  0  0  0  0
 20 10  1  0  0  0  0
 21 22  1  0  0  0  0
 27 14  1  0  0  0  0
 27  5  1  1  0  0  0
 28 23  1  6  0  0  0
 28  6  1  0  0  0  0
 28  9  1  0  0  0  0
 29 20  1  0  0  0  0
 30 29  1  0  0  0  0
 30 31  1  0  0  0  0
 32 30  1  0  0  0  0
M  END
>  <MODEL>
3

>  <REMARK>
 VINA RESULT:      -7.4      2.119      7.745
  Name = 
  2 active torsions:
  status: ('A' for Active; 'I' for Inactive)
    1  A    between atoms: N_20  and  C_29
    2  A    between atoms: C_29  and  C_30
                            x       y       z     vdW  Elec       q    Type
                         _______ _______ _______ _____ _____    ______ ____

>  <TORSDO>
F 2

$$$$
=
 OpenBabel11122413013D

 32 37  0  0  1  0  0  0  0  0999 V2000
  161.0440  204.6480  148.0920 C   0  0  0  0  0  2  0  0  0  0  0  0
  161.4510  208.8150  151.7010 C   0  0  2  0  0  3  0  0  0  0  0  0
  161.2110  212.8990  148.6630 C   0  0  0  0  0  2  0  0  0  0  0  0
  160.2300  213.5050  149.6470 C   0  0  0  0  0  2  0  0  0  0  0  0
  160.5890  209.1440  154.1040 C   0  0  0  0  0  0  0  0  0  0  0  0
  160.0920  210.1680  155.0750 C   0  0  1  0  0  3  0  0  0  0  0  0
  161.3230  206.6640  150.5250 C   0  0  0  0  0  0  0  0  0  0  0  0
  162.0850  208.6930  149.2370 C   0  0  0  0  0  2  0  0  0  0  0  0
  160.4360  212.1820  156.0300 C   0  0  2  0  0  3  0  0  0  0  0  0
  162.5890  206.4450  148.2930 C   0  0  0  0  0  2  0  0  0  0  0  0
  161.1240  211.3820  148.7560 C   0  0  0  0  0  2  0  0  0  0  0  0
  161.5840  209.4700  150.3820 N   0  0  0  0  0  0  0  0  0  0  0  0
  161.2520  210.8660  150.1750 C   0  0  0  0  0  0  0  0  0  0  0  0
  161.0930  211.1030  152.6130 C   0  0  1  0  0  3  0  0  0  0  0  0
  160.2320  211.1390  157.1270 C   0  0  0  0  0  2  0  0  0  0  0  0
  161.3060  204.3520  149.5730 C   0  0  0  0  0  2  0  0  0  0  0  0
  162.3850  207.2290  149.5880 C   0  0  2  0  0  3  0  0  0  0  0  0
  160.2210  209.8240  156.4790 N   0  0  0  0  0  2  0  0  0  0  0  0
  160.7800  205.3740  150.4120 O   0  0  0  0  0  0  0  0  0  0  0  0
  161.3010  206.0440  147.7400 N   0  0  0  0  0  0  0  0  0  0  0  0
  160.6570  213.1350  151.0610 C   0  0  0  0  0  2  0  0  0  0  0  0
  160.9350  211.6570  151.2270 C   0  0  0  0  0  0  0  0  0  0  0  0
  160.4420  211.9360  153.6360 N   0  0  0  0  0  2  0  0  0  0  0  0
  160.8830  207.4390  151.5140 C   0  0  0  0  0  3  0  0  0  0  0  0
  160.4180  207.8990  154.3610 N   0  0  0  0  0  2  0  0  0  0  0  0
  159.1280  212.9470  155.8230 C   0  0  0  0  0  1  0  0  0  0  0  0
  160.5930  209.6440  152.6670 C   0  0  1  0  0  3  0  0  0  0  0  0
  160.8340  211.3900  154.8740 N   0  0  2  0  0  0  0  0  0  0  0  0
  161.4260  206.1020  146.2930 C   0  0  0  0  0  2  0  0  0  0  0  0
  161.6070  204.7030  145.7280 C   0  0  0  0  0  3  0  0  0  0  0  0
  163.0560  204.5070  145.3340 C   0  0  0  0  0  1  0  0  0  0  0  0
  160.7290  204.5150  144.5050 C   0  0  0  0  0  1  0  0  0  0  0  0
  1 16  1  0  0  0  0
  2 24  1  6  0  0  0
  2 27  1  0  0  0  0
  3 11  1  0  0  0  0
  3  4  1  0  0  0  0
  4 21  1  0  0  0  0
  5 25  2  0  0  0  0
  6  5  1  6  0  0  0
  6 18  1  0  0  0  0
  7 24  2  0  0  0  0
  8 17  1  0  0  0  0
  8 12  1  0  0  0  0
  9 26  1  6  0  0  0
  9 15  1  0  0  0  0
 11 13  1  0  0  0  0
 12  2  1  0  0  0  0
 13 12  1  0  0  0  0
 13 22  2  0  0  0  0
 14 22  1  6  0  0  0
 14 27  1  0  0  0  0
 14 23  1  0  0  0  0
 16 19  1  0  0  0  0
 17 10  1  6  0  0  0
 17  7  1  0  0  0  0
 18 15  1  0  0  0  0
 19  7  1  0  0  0  0
 20  1  1  0  0  0  0
 20 10  1  0  0  0  0
 21 22  1  0  0  0  0
 27  5  1  1  0  0  0
 28 23  1  6  0  0  0
 28  6  1  0  0  0  0
 28  9  1  0  0  0  0
 29 20  1  0  0  0  0
 30 29  1  0  0  0  0
 31 30  1  0  0  0  0
 32 30  1  0  0  0  0
M  END
>  <MODEL>
4

>  <REMARK>
 VINA RESULT:      -7.0      2.102      8.087
  Name = 
  2 active torsions:
  status: ('A' for Active; 'I' for Inactive)
    1  A    between atoms: N_20  and  C_29
    2  A    between atoms: C_29  and  C_30
                            x       y       z     vdW  Elec       q    Type
                         _______ _______ _______ _____ _____    ______ ____

>  <TORSDO>
F 2

$$$$
=
 OpenBabel11122413013D

 32 37  0  0  1  0  0  0  0  0999 V2000
  160.7540  213.7140  147.5510 C   0  0  0  0  0  2  0  0  0  0  0  0
  161.8290  208.5120  149.0800 C   0  0  2  0  0  3  0  0  0  0  0  0
  161.2580  208.7360  154.1390 C   0  0  0  0  0  2  0  0  0  0  0  0
  160.4560  207.4530  154.0500 C   0  0  0  0  0  2  0  0  0  0  0  0
  161.3490  206.2290  147.9910 C   0  0  0  0  0  0  0  0  0  0  0  0
  161.0350  204.7970  148.2850 C   0  0  1  0  0  3  0  0  0  0  0  0
  161.4580  210.6430  147.9200 C   0  0  0  0  0  0  0  0  0  0  0  0
  162.0800  210.6980  150.3630 C   0  0  0  0  0  2  0  0  0  0  0  0
  161.5810  202.9530  149.4650 C   0  0  2  0  0  3  0  0  0  0  0  0
  162.3660  212.7820  149.0310 C   0  0  0  0  0  2  0  0  0  0  0  0
  161.1400  209.4800  152.8160 C   0  0  0  0  0  2  0  0  0  0  0  0
  161.7800  209.2570  150.3560 N   0  0  0  0  0  0  0  0  0  0  0  0
  161.4650  208.6130  151.6170 C   0  0  0  0  0  0  0  0  0  0  0  0
  161.6820  206.4530  150.4720 C   0  0  1  0  0  3  0  0  0  0  0  0
  161.5130  202.5940  147.9820 C   0  0  0  0  0  2  0  0  0  0  0  0
  161.2270  212.6940  146.5090 C   0  0  0  0  0  2  0  0  0  0  0  0
  162.3840  211.2560  148.9650 C   0  0  2  0  0  3  0  0  0  0  0  0
  161.3640  203.8480  147.2380 N   0  0  0  0  0  2  0  0  0  0  0  0
  160.8650  211.3670  146.8730 O   0  0  0  0  0  0  0  0  0  0  0  0
  160.9980  213.2740  148.9250 N   0  0  0  0  0  0  0  0  0  0  0  0
  161.0800  206.5530  152.9920 C   0  0  0  0  0  2  0  0  0  0  0  0
  161.3340  207.2670  151.6830 C   0  0  0  0  0  0  0  0  0  0  0  0
  161.2190  205.0610  150.5700 N   0  0  0  0  0  2  0  0  0  0  0  0
  161.1970  209.3410  148.0000 C   0  0  0  0  0  3  0  0  0  0  0  0
  161.1800  206.6770  146.8000 N   0  0  0  0  0  2  0  0  0  0  0  0
  160.2810  202.5170  150.1410 C   0  0  0  0  0  1  0  0  0  0  0  0
  161.1510  207.1390  149.1950 C   0  0  1  0  0  3  0  0  0  0  0  0
  161.7750  204.3970  149.4590 N   0  0  2  0  0  0  0  0  0  0  0  0
  160.9050  214.4510  149.7720 C   0  0  0  0  0  2  0  0  0  0  0  0
  159.6800  214.3560  150.6660 C   0  0  0  0  0  3  0  0  0  0  0  0
  159.7010  213.0340  151.4030 C   0  0  0  0  0  1  0  0  0  0  0  0
  158.4150  214.4420  149.8330 C   0  0  0  0  0  1  0  0  0  0  0  0
  1 20  1  0  0  0  0
  2 24  1  6  0  0  0
  2 27  1  0  0  0  0
  2 12  1  0  0  0  0
  4  3  1  0  0  0  0
  5  6  1  0  0  0  0
  6 18  1  6  0  0  0
  6 28  1  0  0  0  0
  7 24  2  0  0  0  0
  7 17  1  0  0  0  0
  9 26  1  1  0  0  0
 11  3  1  0  0  0  0
 12  8  1  0  0  0  0
 12 13  1  0  0  0  0
 13 22  2  0  0  0  0
 13 11  1  0  0  0  0
 14 23  1  1  0  0  0
 14 22  1  0  0  0  0
 15  9  1  0  0  0  0
 16 19  1  0  0  0  0
 16  1  1  0  0  0  0
 17 10  1  1  0  0  0
 17  8  1  0  0  0  0
 18 15  1  0  0  0  0
 19  7  1  0  0  0  0
 20 10  1  0  0  0  0
 20 29  1  0  0  0  0
 21  4  1  0  0  0  0
 22 21  1  0  0  0  0
 25  5  2  0  0  0  0
 27  5  1  6  0  0  0
 27 14  1  0  0  0  0
 28  9  1  0  0  0  0
 28 23  1  1  0  0  0
 29 30  1  0  0  0  0
 30 31  1  0  0  0  0
 32 30  1  0  0  0  0
M  END
>  <MODEL>
5

>  <REMARK>
 VINA RESULT:      -6.6      2.937      5.627
  Name = 
  2 active torsions:
  status: ('A' for Active; 'I' for Inactive)
    1  A    between atoms: N_20  and  C_29
    2  A    between atoms: C_29  and  C_30
                            x       y       z     vdW  Elec       q    Type
                         _______ _______ _______ _____ _____    ______ ____

>  <TORSDO>
F 2

$$$$
=
 OpenBabel11122413013D

 32 37  0  0  1  0  0  0  0  0999 V2000
  160.2480  202.3960  149.1880 C   0  0  0  0  0  2  0  0  0  0  0  0
  161.5890  206.9250  152.0600 C   0  0  2  0  0  3  0  0  0  0  0  0
  162.3620  210.3530  148.3690 C   0  0  0  0  0  2  0  0  0  0  0  0
  161.5410  211.3320  149.1830 C   0  0  0  0  0  2  0  0  0  0  0  0
  160.8000  207.8630  154.3240 C   0  0  0  0  0  0  0  0  0  0  0  0
  160.5480  209.1290  155.0800 C   0  0  1  0  0  3  0  0  0  0  0  0
  160.9680  204.6900  151.2580 C   0  0  0  0  0  0  0  0  0  0  0  0
  162.2060  206.2270  149.6890 C   0  0  0  0  0  2  0  0  0  0  0  0
  161.3480  211.1450  155.7000 C   0  0  2  0  0  3  0  0  0  0  0  0
  162.1730  203.7930  149.1660 C   0  0  0  0  0  2  0  0  0  0  0  0
  161.9170  208.9370  148.7120 C   0  0  0  0  0  2  0  0  0  0  0  0
  161.8890  207.2880  150.6580 N   0  0  0  0  0  0  0  0  0  0  0  0
  161.9010  208.6650  150.2020 C   0  0  0  0  0  0  0  0  0  0  0  0
  161.7730  209.3580  152.5530 C   0  0  1  0  0  3  0  0  0  0  0  0
  160.8890  210.3870  156.9440 C   0  0  0  0  0  2  0  0  0  0  0  0
  160.4140  202.3140  150.7100 C   0  0  0  0  0  2  0  0  0  0  0  0
  162.1450  204.8190  150.2970 C   0  0  2  0  0  3  0  0  0  0  0  0
  160.5740  209.0170  156.5270 N   0  0  0  0  0  2  0  0  0  0  0  0
  160.1350  203.5610  151.3350 O   0  0  0  0  0  0  0  0  0  0  0  0
  160.8340  203.6110  148.6200 N   0  0  0  0  0  0  0  0  0  0  0  0
  161.8510  211.1290  150.6600 C   0  0  0  0  0  2  0  0  0  0  0  0
  161.7670  209.6800  151.0870 C   0  0  0  0  0  0  0  0  0  0  0  0
  161.3260  210.4860  153.3850 N   0  0  0  0  0  2  0  0  0  0  0  0
  160.7120  205.7070  152.0780 C   0  0  0  0  0  3  0  0  0  0  0  0
  160.3350  206.7570  154.7770 N   0  0  0  0  0  2  0  0  0  0  0  0
  160.2620  212.1420  155.2970 C   0  0  0  0  0  1  0  0  0  0  0  0
  160.9400  208.0870  152.8250 C   0  0  1  0  0  3  0  0  0  0  0  0
  161.5610  210.0910  154.7160 N   0  0  2  0  0  0  0  0  0  0  0  0
  160.9870  203.3820  147.1930 C   0  0  0  0  0  2  0  0  0  0  0  0
  160.5390  201.9740  146.8380 C   0  0  0  0  0  3  0  0  0  0  0  0
  161.6420  200.9970  147.1870 C   0  0  0  0  0  1  0  0  0  0  0  0
  160.2400  201.8780  145.3540 C   0  0  0  0  0  1  0  0  0  0  0  0
  1 16  1  0  0  0  0
  2 24  1  6  0  0  0
  2 27  1  0  0  0  0
  3 11  1  0  0  0  0
  3  4  1  0  0  0  0
  4 21  1  0  0  0  0
  5 25  2  0  0  0  0
  6  5  1  6  0  0  0
  6 18  1  0  0  0  0
  7 19  1  0  0  0  0
  7 24  2  0  0  0  0
  8 17  1  0  0  0  0
  8 12  1  0  0  0  0
  9 26  1  6  0  0  0
  9 15  1  0  0  0  0
 11 13  1  0  0  0  0
 12  2  1  0  0  0  0
 13 12  1  0  0  0  0
 13 22  2  0  0  0  0
 14 22  1  6  0  0  0
 14 27  1  0  0  0  0
 14 23  1  0  0  0  0
 16 19  1  0  0  0  0
 17 10  1  6  0  0  0
 17  7  1  0  0  0  0
 18 15  1  0  0  0  0
 20 10  1  0  0  0  0
 20  1  1  0  0  0  0
 21 22  1  0  0  0  0
 27  5  1  1  0  0  0
 28 23  1  6  0  0  0
 28  6  1  0  0  0  0
 28  9  1  0  0  0  0
 29 20  1  0  0  0  0
 30 31  1  0  0  0  0
 30 29  1  0  0  0  0
 32 30  1  0  0  0  0
M  END
>  <MODEL>
6

>  <REMARK>
 VINA RESULT:      -5.4      1.748      7.933
  Name = 
  2 active torsions:
  status: ('A' for Active; 'I' for Inactive)
    1  A    between atoms: N_20  and  C_29
    2  A    between atoms: C_29  and  C_30
                            x       y       z     vdW  Elec       q    Type
                         _______ _______ _______ _____ _____    ______ ____

>  <TORSDO>
F 2

$$$$
=
 OpenBabel11122413013D

 32 37  0  0  1  0  0  0  0  0999 V2000
  160.7510  212.7410  146.2200 C   0  0  0  0  0  2  0  0  0  0  0  0
  160.4110  212.5320  151.7330 C   0  0  2  0  0  3  0  0  0  0  0  0
  155.7700  214.4530  152.6000 C   0  0  0  0  0  2  0  0  0  0  0  0
  155.5410  213.3130  153.5720 C   0  0  0  0  0  2  0  0  0  0  0  0
  161.2830  210.8570  153.4820 C   0  0  0  0  0  0  0  0  0  0  0  0
  160.9850  210.2410  154.8130 C   0  0  1  0  0  3  0  0  0  0  0  0
  161.0420  212.4310  149.3630 C   0  0  0  0  0  0  0  0  0  0  0  0
  159.2640  214.0760  150.0620 C   0  0  0  0  0  2  0  0  0  0  0  0
  160.4030  210.5940  156.9630 C   0  0  2  0  0  3  0  0  0  0  0  0
  160.3820  214.4190  147.8650 C   0  0  0  0  0  2  0  0  0  0  0  0
  156.7830  214.0070  151.5540 C   0  0  0  0  0  2  0  0  0  0  0  0
  159.2330  213.3320  151.3320 N   0  0  0  0  0  0  0  0  0  0  0  0
  158.0450  213.4280  152.1580 C   0  0  0  0  0  0  0  0  0  0  0  0
  159.3110  212.3410  153.9580 C   0  0  1  0  0  3  0  0  0  0  0  0
  161.6670  209.7370  156.9230 C   0  0  0  0  0  2  0  0  0  0  0  0
  161.9670  212.3020  147.0440 C   0  0  0  0  0  2  0  0  0  0  0  0
  160.5700  213.8790  149.2810 C   0  0  2  0  0  3  0  0  0  0  0  0
  162.1270  209.7070  155.5310 N   0  0  0  0  0  2  0  0  0  0  0  0
  161.5770  211.7150  148.2800 O   0  0  0  0  0  0  0  0  0  0  0  0
  159.7350  213.4170  147.0270 N   0  0  0  0  0  0  0  0  0  0  0  0
  156.8370  213.0320  154.3190 C   0  0  0  0  0  2  0  0  0  0  0  0
  158.0300  212.8880  153.4000 C   0  0  0  0  0  0  0  0  0  0  0  0
  159.1030  211.5260  155.1650 N   0  0  0  0  0  2  0  0  0  0  0  0
  160.9460  211.8050  150.5340 C   0  0  0  0  0  3  0  0  0  0  0  0
  162.1790  210.3290  152.7320 N   0  0  0  0  0  2  0  0  0  0  0  0
  159.1960  209.6870  157.2000 C   0  0  0  0  0  1  0  0  0  0  0  0
  160.0770  211.5570  152.8710 C   0  0  1  0  0  3  0  0  0  0  0  0
  160.3910  211.2480  155.6610 N   0  0  2  0  0  0  0  0  0  0  0  0
  158.8670  214.1330  146.1070 C   0  0  0  0  0  2  0  0  0  0  0  0
  157.5580  213.3810  145.9300 C   0  0  0  0  0  3  0  0  0  0  0  0
  156.4650  214.3610  145.5630 C   0  0  0  0  0  1  0  0  0  0  0  0
  157.1820  212.6740  147.2190 C   0  0  0  0  0  1  0  0  0  0  0  0
  1 20  1  0  0  0  0
  1 16  1  0  0  0  0
  2 24  1  6  0  0  0
  2 27  1  0  0  0  0
  3  4  1  0  0  0  0
  4 21  1  0  0  0  0
  6  5  1  6  0  0  0
  6 18  1  0  0  0  0
  6 28  1  0  0  0  0
  7 24  2  0  0  0  0
  8 12  1  0  0  0  0
  9 26  1  6  0  0  0
 11 13  1  0  0  0  0
 11  3  1  0  0  0  0
 12  2  1  0  0  0  0
 12 13  1  0  0  0  0
 13 22  2  0  0  0  0
 14 22  1  6  0  0  0
 14 23  1  0  0  0  0
 15  9  1  0  0  0  0
 16 19  1  0  0  0  0
 17 10  1  6  0  0  0
 17  7  1  0  0  0  0
 17  8  1  0  0  0  0
 18 15  1  0  0  0  0
 19  7  1  0  0  0  0
 20 10  1  0  0  0  0
 22 21  1  0  0  0  0
 25  5  2  0  0  0  0
 27  5  1  1  0  0  0
 27 14  1  0  0  0  0
 28 23  1  6  0  0  0
 28  9  1  0  0  0  0
 29 20  1  0  0  0  0
 30 29  1  0  0  0  0
 30 32  1  0  0  0  0
 31 30  1  0  0  0  0
M  END
>  <MODEL>
7

>  <REMARK>
 VINA RESULT:      -5.2      5.085      8.811
  Name = 
  2 active torsions:
  status: ('A' for Active; 'I' for Inactive)
    1  A    between atoms: N_20  and  C_29
    2  A    between atoms: C_29  and  C_30
                            x       y       z     vdW  Elec       q    Type
                         _______ _______ _______ _____ _____    ______ ____

>  <TORSDO>
F 2

$$$$
=
 OpenBabel11122413013D

 32 37  0  0  1  0  0  0  0  0999 V2000
  160.8150  211.4400  152.7830 C   0  0  0  0  0  2  0  0  0  0  0  0
  161.7980  207.1020  149.5010 C   0  0  2  0  0  3  0  0  0  0  0  0
  161.1140  203.1730  152.6750 C   0  0  0  0  0  2  0  0  0  0  0  0
  160.3000  202.5050  151.5840 C   0  0  0  0  0  2  0  0  0  0  0  0
  161.3200  206.6400  147.0140 C   0  0  0  0  0  0  0  0  0  0  0  0
  160.9840  205.5620  146.0330 C   0  0  1  0  0  3  0  0  0  0  0  0
  161.4770  209.3070  150.5300 C   0  0  0  0  0  0  0  0  0  0  0  0
  162.0430  207.3560  152.0240 C   0  0  0  0  0  2  0  0  0  0  0  0
  161.4820  203.5060  145.2480 C   0  0  2  0  0  3  0  0  0  0  0  0
  162.3820  209.6560  152.9160 C   0  0  0  0  0  2  0  0  0  0  0  0
  161.0340  204.6820  152.4900 C   0  0  0  0  0  2  0  0  0  0  0  0
  161.7280  206.5160  150.8580 N   0  0  0  0  0  0  0  0  0  0  0  0
  161.3770  205.1270  151.0830 C   0  0  0  0  0  0  0  0  0  0  0  0
  161.5980  204.7650  148.6660 C   0  0  1  0  0  3  0  0  0  0  0  0
  161.4440  204.4910  144.0810 C   0  0  0  0  0  2  0  0  0  0  0  0
  161.3010  211.6640  151.3460 C   0  0  0  0  0  2  0  0  0  0  0  0
  162.3850  208.8050  151.6480 C   0  0  2  0  0  3  0  0  0  0  0  0
  161.3260  205.8360  144.6500 N   0  0  0  0  0  2  0  0  0  0  0  0
  160.9160  210.5940  150.4910 O   0  0  0  0  0  0  0  0  0  0  0  0
  161.0220  210.0670  153.2420 N   0  0  0  0  0  0  0  0  0  0  0  0
  160.9390  202.8090  150.2350 C   0  0  0  0  0  2  0  0  0  0  0  0
  161.2300  204.2800  150.0370 C   0  0  0  0  0  0  0  0  0  0  0  0
  161.1170  203.8730  147.5990 N   0  0  0  0  0  2  0  0  0  0  0  0
  161.2000  208.4780  149.5260 C   0  0  0  0  0  3  0  0  0  0  0  0
  161.1830  207.8680  146.6700 N   0  0  0  0  0  2  0  0  0  0  0  0
  160.1630  202.7360  145.2910 C   0  0  0  0  0  1  0  0  0  0  0  0
  161.1040  206.2130  148.4590 C   0  0  1  0  0  3  0  0  0  0  0  0
  161.6920  204.3620  146.4100 N   0  0  2  0  0  0  0  0  0  0  0  0
  160.9230  210.0830  154.6920 C   0  0  0  0  0  2  0  0  0  0  0  0
  159.8400  209.1210  155.1530 C   0  0  0  0  0  3  0  0  0  0  0  0
  159.2100  209.6490  156.4240 C   0  0  0  0  0  1  0  0  0  0  0  0
  160.4370  207.7530  155.4240 C   0  0  0  0  0  1  0  0  0  0  0  0
  1 20  1  0  0  0  0
  2 24  1  1  0  0  0
  2 12  1  0  0  0  0
  4  3  1  0  0  0  0
  6 18  1  6  0  0  0
  6 28  1  0  0  0  0
  6  5  1  0  0  0  0
  7 17  1  0  0  0  0
  9 26  1  1  0  0  0
  9 28  1  0  0  0  0
 10 20  1  0  0  0  0
 11  3  1  0  0  0  0
 12 13  1  0  0  0  0
 12  8  1  0  0  0  0
 13 11  1  0  0  0  0
 14 23  1  6  0  0  0
 14 22  1  0  0  0  0
 15 18  1  0  0  0  0
 15  9  1  0  0  0  0
 16  1  1  0  0  0  0
 17  8  1  1  0  0  0
 17 10  1  0  0  0  0
 19  7  1  0  0  0  0
 19 16  1  0  0  0  0
 20 29  1  0  0  0  0
 21  4  1  0  0  0  0
 22 21  1  0  0  0  0
 22 13  2  0  0  0  0
 24  7  2  0  0  0  0
 25  5  2  0  0  0  0
 27  5  1  6  0  0  0
 27 14  1  0  0  0  0
 27  2  1  0  0  0  0
 28 23  1  1  0  0  0
 29 30  1  0  0  0  0
 30 32  1  0  0  0  0
 30 31  1  0  0  0  0
M  END
>  <MODEL>
8

>  <REMARK>
 VINA RESULT:      -5.1      2.238      4.697
  Name = 
  2 active torsions:
  status: ('A' for Active; 'I' for Inactive)
    1  A    between atoms: N_20  and  C_29
    2  A    between atoms: C_29  and  C_30
                            x       y       z     vdW  Elec       q    Type
                         _______ _______ _______ _____ _____    ______ ____

>  <TORSDO>
F 2

$$$$
