=
 OpenBabel11122414033D

 28 32  0  0  1  0  0  0  0  0999 V2000
  157.8160  213.0280  138.6980 C   0  0  0  0  0  0  0  0  0  0  0  0
  161.2220  214.4530  141.5040 O   0  0  0  0  0  0  0  0  0  0  0  0
  160.8350  207.7070  138.8600 O   0  0  0  0  0  0  0  0  0  0  0  0
  157.3970  213.9480  141.3160 C   0  0  0  0  0  3  0  0  0  0  0  0
  162.1030  209.6770  138.4240 C   0  0  1  0  0  3  0  0  0  0  0  0
  157.9220  212.5070  137.2930 C   0  0  0  0  0  2  0  0  0  0  0  0
  162.1510  212.1780  141.6370 O   0  0  0  0  0  0  0  0  0  0  0  0
  162.0190  213.4060  140.7800 S   0  0  0  0  0  0  0  0  0  0  0  0
  164.2060  213.5840  139.2320 C   0  0  0  0  0  0  0  0  0  0  0  0
  161.2570  213.0290  139.2570 N   0  0  1  0  0  0  0  0  0  0  0  0
  156.5570  209.8540  138.9090 N   0  0  0  0  0  2  0  0  0  0  0  0
  160.1390  211.1270  138.3150 C   0  0  1  0  0  3  0  0  0  0  0  0
  163.7000  212.3420  138.5740 C   0  0  0  0  0  2  0  0  0  0  0  0
  163.5760  214.0430  140.4190 N   0  0  0  0  0  2  0  0  0  0  0  0
  157.3200  210.1220  137.9140 C   0  0  0  0  0  0  0  0  0  0  0  0
  158.8160  212.8100  139.6930 C   0  0  0  0  0  0  0  0  0  0  0  0
  160.8520  208.9140  138.6690 C   0  0  0  0  0  0  0  0  0  0  0  0
  165.3930  214.0610  138.8950 C   0  0  0  0  0  2  0  0  0  0  0  0
  158.5770  209.3270  137.7100 C   0  0  0  0  0  2  0  0  0  0  0  0
  158.5730  213.2690  140.9940 C   0  0  0  0  0  3  0  0  0  0  0  0
  156.6430  213.7160  139.0350 C   0  0  0  0  0  3  0  0  0  0  0  0
  156.4350  214.1780  140.3340 C   0  0  0  0  0  3  0  0  0  0  0  0
  157.0020  211.3050  137.0420 C   0  0  0  0  0  2  0  0  0  0  0  0
  161.5720  211.0180  137.8720 C   0  0  1  0  0  3  0  0  0  0  0  0
  159.6320  209.7600  138.7210 C   0  0  2  0  0  3  0  0  0  0  0  0
  162.1780  212.3540  138.3070 C   0  0  1  0  0  3  0  0  0  0  0  0
  162.8510  209.7850  139.7470 C   0  0  0  0  0  1  0  0  0  0  0  0
  160.1430  212.1010  139.4720 C   0  0  2  0  0  3  0  0  0  0  0  0
  1 21  2  0  0  0  0
  1 16  1  0  0  0  0
  5 17  1  0  0  0  0
  5 27  1  1  0  0  0
  6  1  1  0  0  0  0
  8  2  2  0  0  0  0
  8  7  2  0  0  0  0
  9 14  1  0  0  0  0
 10 28  1  0  0  0  0
 10  8  1  1  0  0  0
 12 25  1  0  0  0  0
 12 28  1  0  0  0  0
 13  9  1  0  0  0  0
 14  8  1  0  0  0  0
 15 11  2  0  0  0  0
 16 20  2  0  0  0  0
 17 25  1  0  0  0  0
 17  3  2  0  0  0  0
 18  9  2  0  0  0  0
 19 15  1  0  0  0  0
 19 25  1  0  0  0  0
 20  4  1  0  0  0  0
 21 22  1  0  0  0  0
 22  4  2  0  0  0  0
 23  6  1  0  0  0  0
 23 15  1  0  0  0  0
 24 26  1  0  0  0  0
 24 12  1  0  0  0  0
 24  5  1  0  0  0  0
 26 13  1  0  0  0  0
 26 10  1  0  0  0  0
 28 16  1  0  0  0  0
M  END
>  <MODEL>
1

>  <REMARK>
 VINA RESULT:      -4.8      0.000      0.000
  Name = 
  0 active torsions:
  status: ('A' for Active; 'I' for Inactive)
                            x       y       z     vdW  Elec       q    Type
                         _______ _______ _______ _____ _____    ______ ____

>  <TORSDO>
F 0

$$$$
=
 OpenBabel11122414033D

 28 32  0  0  1  0  0  0  0  0999 V2000
  158.2260  212.4540  152.2620 C   0  0  0  0  0  0  0  0  0  0  0  0
  161.7880  210.4610  150.0620 O   0  0  0  0  0  0  0  0  0  0  0  0
  161.5820  211.3540  157.2600 O   0  0  0  0  0  0  0  0  0  0  0  0
  159.8030  213.7620  150.3440 C   0  0  0  0  0  3  0  0  0  0  0  0
  161.2840  209.5600  155.7200 C   0  0  1  0  0  3  0  0  0  0  0  0
  157.3260  211.8610  153.3090 C   0  0  0  0  0  2  0  0  0  0  0  0
  163.0860  210.3280  152.1490 O   0  0  0  0  0  0  0  0  0  0  0  0
  161.9540  209.7280  151.3630 S   0  0  0  0  0  0  0  0  0  0  0  0
  161.8080  207.1150  151.9670 C   0  0  0  0  0  0  0  0  0  0  0  0
  160.4630  209.7810  152.2670 N   0  0  1  0  0  0  0  0  0  0  0  0
  158.7240  214.4530  154.9940 N   0  0  0  0  0  2  0  0  0  0  0  0
  159.7230  210.8020  154.3080 C   0  0  1  0  0  3  0  0  0  0  0  0
  161.4080  207.5710  153.3310 C   0  0  0  0  0  2  0  0  0  0  0  0
  162.2800  208.0720  151.0290 N   0  0  0  0  0  2  0  0  0  0  0  0
  158.2480  213.2810  155.1990 C   0  0  0  0  0  0  0  0  0  0  0  0
  159.6060  212.1140  152.1290 C   0  0  0  0  0  0  0  0  0  0  0  0
  161.0640  210.9360  156.2360 C   0  0  0  0  0  0  0  0  0  0  0  0
  162.0100  205.8270  151.7450 C   0  0  0  0  0  2  0  0  0  0  0  0
  158.9870  212.3260  156.0910 C   0  0  0  0  0  2  0  0  0  0  0  0
  160.3710  212.7930  151.1730 C   0  0  0  0  0  3  0  0  0  0  0  0
  157.6690  213.4250  151.4210 C   0  0  0  0  0  3  0  0  0  0  0  0
  158.4500  214.0730  150.4640 C   0  0  0  0  0  3  0  0  0  0  0  0
  157.0210  212.8440  154.4470 C   0  0  0  0  0  2  0  0  0  0  0  0
  160.1520  209.4090  154.6810 C   0  0  1  0  0  3  0  0  0  0  0  0
  160.2060  211.7760  155.3610 C   0  0  2  0  0  3  0  0  0  0  0  0
  160.3990  208.7420  153.3260 C   0  0  1  0  0  3  0  0  0  0  0  0
  162.6920  209.4980  155.1410 C   0  0  0  0  0  1  0  0  0  0  0  0
  160.3420  211.0700  152.9550 C   0  0  2  0  0  3  0  0  0  0  0  0
  1  6  1  0  0  0  0
  2  8  2  0  0  0  0
  4 22  2  0  0  0  0
  4 20  1  0  0  0  0
  5 27  1  6  0  0  0
  5 17  1  0  0  0  0
  6 23  1  0  0  0  0
  8  7  2  0  0  0  0
  9 13  1  0  0  0  0
 10  8  1  1  0  0  0
 10 28  1  0  0  0  0
 10 26  1  0  0  0  0
 11 15  2  0  0  0  0
 12 24  1  0  0  0  0
 12 25  1  0  0  0  0
 14  8  1  0  0  0  0
 14  9  1  0  0  0  0
 15 19  1  0  0  0  0
 16  1  1  0  0  0  0
 16 28  1  0  0  0  0
 17  3  2  0  0  0  0
 18  9  2  0  0  0  0
 20 16  2  0  0  0  0
 21  1  2  0  0  0  0
 22 21  1  0  0  0  0
 23 15  1  0  0  0  0
 24  5  1  0  0  0  0
 25 19  1  0  0  0  0
 25 17  1  0  0  0  0
 26 13  1  0  0  0  0
 26 24  1  0  0  0  0
 28 12  1  0  0  0  0
M  END
>  <MODEL>
2

>  <REMARK>
 VINA RESULT:      -4.7     12.860     14.773
  Name = 
  0 active torsions:
  status: ('A' for Active; 'I' for Inactive)
                            x       y       z     vdW  Elec       q    Type
                         _______ _______ _______ _____ _____    ______ ____

>  <TORSDO>
F 0

$$$$
=
 OpenBabel11122414033D

 28 32  0  0  1  0  0  0  0  0999 V2000
  158.0780  213.8790  139.8100 C   0  0  0  0  0  0  0  0  0  0  0  0
  162.3560  214.0460  141.5910 O   0  0  0  0  0  0  0  0  0  0  0  0
  160.1110  208.7400  137.1810 O   0  0  0  0  0  0  0  0  0  0  0  0
  158.6250  213.8030  142.5620 C   0  0  0  0  0  3  0  0  0  0  0  0
  161.4860  210.6790  137.0110 C   0  0  1  0  0  3  0  0  0  0  0  0
  157.6680  213.8990  138.3650 C   0  0  0  0  0  2  0  0  0  0  0  0
  162.9050  211.8410  140.6470 O   0  0  0  0  0  0  0  0  0  0  0  0
  162.7180  213.3000  140.3390 S   0  0  0  0  0  0  0  0  0  0  0  0
  164.3310  213.9360  138.2880 C   0  0  0  0  0  0  0  0  0  0  0  0
  161.4800  213.5330  139.1320 N   0  0  1  0  0  0  0  0  0  0  0  0
  156.4510  210.9000  139.3840 N   0  0  0  0  0  2  0  0  0  0  0  0
  159.8390  212.1510  138.0590 C   0  0  1  0  0  3  0  0  0  0  0  0
  163.4580  213.0400  137.4740 C   0  0  0  0  0  2  0  0  0  0  0  0
  164.1720  213.9590  139.7000 N   0  0  0  0  0  2  0  0  0  0  0  0
  156.9090  211.4780  138.3350 C   0  0  0  0  0  0  0  0  0  0  0  0
  159.2840  213.2730  140.2750 C   0  0  0  0  0  0  0  0  0  0  0  0
  160.2620  209.9320  137.4020 C   0  0  0  0  0  0  0  0  0  0  0  0
  165.4210  214.4530  137.7440 C   0  0  0  0  0  2  0  0  0  0  0  0
  157.9000  210.7590  137.4660 C   0  0  0  0  0  2  0  0  0  0  0  0
  159.5230  213.2380  141.6550 C   0  0  0  0  0  3  0  0  0  0  0  0
  157.1890  214.4450  140.7320 C   0  0  0  0  0  3  0  0  0  0  0  0
  157.4610  214.4130  142.0990 C   0  0  0  0  0  3  0  0  0  0  0  0
  156.5350  212.9090  138.0630 C   0  0  0  0  0  2  0  0  0  0  0  0
  161.0340  212.1500  137.1450 C   0  0  1  0  0  3  0  0  0  0  0  0
  159.2670  210.7520  138.1400 C   0  0  2  0  0  3  0  0  0  0  0  0
  161.9490  213.2110  137.7610 C   0  0  1  0  0  3  0  0  0  0  0  0
  162.6060  210.2690  137.9580 C   0  0  0  0  0  1  0  0  0  0  0  0
  160.3500  212.6380  139.3960 C   0  0  2  0  0  3  0  0  0  0  0  0
  1 16  2  0  0  0  0
  1 21  1  0  0  0  0
  3 17  2  0  0  0  0
  5 24  1  0  0  0  0
  5 17  1  0  0  0  0
  5 27  1  1  0  0  0
  6  1  1  0  0  0  0
  8  7  2  0  0  0  0
  8  2  2  0  0  0  0
  9 14  1  0  0  0  0
 10 28  1  0  0  0  0
 10  8  1  1  0  0  0
 12 25  1  0  0  0  0
 12 28  1  0  0  0  0
 13 26  1  0  0  0  0
 13  9  1  0  0  0  0
 14  8  1  0  0  0  0
 15 11  2  0  0  0  0
 16 20  1  0  0  0  0
 17 25  1  0  0  0  0
 18  9  2  0  0  0  0
 19 25  1  0  0  0  0
 19 15  1  0  0  0  0
 20  4  2  0  0  0  0
 21 22  2  0  0  0  0
 22  4  1  0  0  0  0
 23 15  1  0  0  0  0
 23  6  1  0  0  0  0
 24 26  1  0  0  0  0
 24 12  1  0  0  0  0
 26 10  1  0  0  0  0
 28 16  1  0  0  0  0
M  END
>  <MODEL>
3

>  <REMARK>
 VINA RESULT:      -3.9      1.197      1.439
  Name = 
  0 active torsions:
  status: ('A' for Active; 'I' for Inactive)
                            x       y       z     vdW  Elec       q    Type
                         _______ _______ _______ _____ _____    ______ ____

>  <TORSDO>
F 0

$$$$
=
 OpenBabel11122414033D

 28 32  0  0  1  0  0  0  0  0999 V2000
  160.1030  211.9520  153.7010 C   0  0  0  0  0  0  0  0  0  0  0  0
  162.3570  210.4400  149.9410 O   0  0  0  0  0  0  0  0  0  0  0  0
  155.9390  213.8110  149.6200 O   0  0  0  0  0  0  0  0  0  0  0  0
  160.7310  209.2560  153.2380 C   0  0  0  0  0  3  0  0  0  0  0  0
  158.2180  214.3630  149.1940 C   0  0  1  0  0  3  0  0  0  0  0  0
  159.7040  213.3580  154.0470 C   0  0  0  0  0  2  0  0  0  0  0  0
  160.4640  211.0410  148.4860 O   0  0  0  0  0  0  0  0  0  0  0  0
  161.6330  211.5720  149.2670 S   0  0  0  0  0  0  0  0  0  0  0  0
  162.5350  213.7780  148.0290 C   0  0  0  0  0  0  0  0  0  0  0  0
  161.1160  212.7360  150.4590 N   0  0  1  0  0  0  0  0  0  0  0  0
  156.6910  211.8050  153.9010 N   0  0  0  0  0  2  0  0  0  0  0  0
  159.0110  213.4860  151.3330 C   0  0  1  0  0  3  0  0  0  0  0  0
  161.2310  214.3900  148.4200 C   0  0  0  0  0  2  0  0  0  0  0  0
  162.7270  212.3830  148.2160 N   0  0  0  0  0  2  0  0  0  0  0  0
  157.2220  212.9560  153.7070 C   0  0  0  0  0  0  0  0  0  0  0  0
  160.1510  211.4560  152.3630 C   0  0  0  0  0  0  0  0  0  0  0  0
  157.1020  213.7940  149.9940 C   0  0  0  0  0  0  0  0  0  0  0  0
  163.3630  214.4530  147.2490 C   0  0  0  0  0  2  0  0  0  0  0  0
  156.8540  213.7450  152.4840 C   0  0  0  0  0  2  0  0  0  0  0  0
  160.4530  210.1030  152.1640 C   0  0  0  0  0  3  0  0  0  0  0  0
  160.3880  211.0900  154.7680 C   0  0  0  0  0  3  0  0  0  0  0  0
  160.7040  209.7520  154.5400 C   0  0  0  0  0  3  0  0  0  0  0  0
  158.2930  213.4380  154.6460 C   0  0  0  0  0  2  0  0  0  0  0  0
  159.3600  214.4470  150.2290 C   0  0  1  0  0  3  0  0  0  0  0  0
  157.5370  213.1490  151.2590 C   0  0  2  0  0  3  0  0  0  0  0  0
  160.7950  214.0590  149.8650 C   0  0  1  0  0  3  0  0  0  0  0  0
  158.4850  213.4200  148.0270 C   0  0  0  0  0  1  0  0  0  0  0  0
  159.8860  212.2730  151.1080 C   0  0  2  0  0  3  0  0  0  0  0  0
  1  6  1  0  0  0  0
  1 21  1  0  0  0  0
  3 17  2  0  0  0  0
  4 22  1  0  0  0  0
  5 27  1  6  0  0  0
  5 17  1  0  0  0  0
  5 24  1  0  0  0  0
  6 23  1  0  0  0  0
  7  8  2  0  0  0  0
  8  2  2  0  0  0  0
  9 14  1  0  0  0  0
  9 13  1  0  0  0  0
 10  8  1  6  0  0  0
 10 28  1  0  0  0  0
 13 26  1  0  0  0  0
 14  8  1  0  0  0  0
 15 11  2  0  0  0  0
 15 23  1  0  0  0  0
 16  1  2  0  0  0  0
 17 25  1  0  0  0  0
 18  9  2  0  0  0  0
 19 15  1  0  0  0  0
 20 16  1  0  0  0  0
 20  4  2  0  0  0  0
 22 21  2  0  0  0  0
 24 12  1  0  0  0  0
 25 12  1  0  0  0  0
 25 19  1  0  0  0  0
 26 24  1  0  0  0  0
 26 10  1  0  0  0  0
 28 12  1  0  0  0  0
 28 16  1  0  0  0  0
M  END
>  <MODEL>
4

>  <REMARK>
 VINA RESULT:      -1.9     10.657     12.819
  Name = 
  0 active torsions:
  status: ('A' for Active; 'I' for Inactive)
                            x       y       z     vdW  Elec       q    Type
                         _______ _______ _______ _____ _____    ______ ____

>  <TORSDO>
F 0

$$$$
