=
 OpenBabel11122412503D

 32 38  0  0  1  0  0  0  0  0999 V2000
  162.2410  205.8790  152.7470 C   0  0  2  0  0  3  0  0  0  0  0  0
  159.8060  210.1200  152.9940 C   0  0  1  0  0  3  0  0  0  0  0  0
  160.3320  214.0060  149.7900 C   0  0  0  0  0  2  0  0  0  0  0  0
  158.9750  214.4530  150.2500 C   0  0  0  0  0  3  0  0  0  0  0  0
  158.3610  210.5270  155.0810 C   0  0  2  0  0  3  0  0  0  0  0  0
  157.6560  211.6370  155.8490 C   0  0  2  0  0  3  0  0  0  0  0  0
  161.2600  208.2760  152.8040 C   0  0  1  0  0  3  0  0  0  0  0  0
  161.5880  210.2310  151.2720 C   0  0  0  0  0  3  0  0  0  0  0  0
  155.8160  213.1010  155.9080 C   0  0  1  0  0  3  0  0  0  0  0  0
  162.7060  208.0700  150.7110 C   0  0  0  0  0  2  0  0  0  0  0  0
  160.5740  212.6470  150.1600 O   0  0  0  0  0  0  0  0  0  0  0  0
  160.5230  210.8080  151.8450 C   0  0  0  0  0  0  0  0  0  0  0  0
  159.9880  212.0720  151.2970 C   0  0  0  0  0  0  0  0  0  0  0  0
  158.2080  212.0520  153.0330 C   0  0  2  0  0  3  0  0  0  0  0  0
  155.8230  212.1950  157.1410 C   0  0  0  0  0  2  0  0  0  0  0  0
  161.0570  205.9850  153.7000 C   0  0  0  0  0  2  0  0  0  0  0  0
  162.2130  208.9830  151.8320 C   0  0  2  0  0  3  0  0  0  0  0  0
  156.8610  211.1700  156.9710 N   0  0  0  0  0  2  0  0  0  0  0  0
  161.9830  207.1690  153.5500 C   0  0  1  0  0  3  0  0  0  0  0  0
  161.6750  207.0060  150.3610 C   0  0  0  0  0  2  0  0  0  0  0  0
  158.3760  213.8440  151.2300 N   0  0  0  0  0  0  0  0  0  0  0  0
  158.9340  212.6830  151.8680 C   0  0  0  0  0  0  0  0  0  0  0  0
  157.4550  213.0940  153.8720 C   0  0  0  0  0  2  0  0  0  0  0  0
  160.7210  209.2550  153.7420 N   0  0  0  0  0  2  0  0  0  0  0  0
  159.2390  209.8730  155.9480 O   0  0  0  0  0  1  0  0  0  0  0  0
  156.4050  214.4530  156.2870 C   0  0  0  0  0  1  0  0  0  0  0  0
  159.1410  211.1640  153.9030 C   0  0  2  0  0  3  0  0  0  0  0  0
  156.6930  212.3370  154.9460 C   0  0  1  0  0  3  0  0  0  0  0  0
  161.7910  205.7670  151.2600 C   0  0  2  0  0  3  0  0  0  0  0  0
  160.6910  204.7830  151.0150 C   0  0  0  0  0  0  0  0  0  0  0  0
  160.5890  203.6350  151.7910 O   0  0  0  0  0  1  0  0  0  0  0  0
  159.8640  204.9870  150.0880 O   0  0  0  0  0  0  0  0  0  0  0  0
  1 19  1  0  0  0  0
  1 16  1  1  0  0  0
  2 12  1  6  0  0  0
  2 24  1  0  0  0  0
  2 27  1  0  0  0  0
  3 11  1  0  0  0  0
  3  4  1  0  0  0  0
  4 21  2  0  0  0  0
  5  6  1  0  0  0  0
  5 25  1  1  0  0  0
  6 18  1  1  0  0  0
  7 19  1  0  0  0  0
  7 24  1  1  0  0  0
  8 17  1  0  0  0  0
  8 12  2  0  0  0  0
  9 26  1  1  0  0  0
  9 15  1  0  0  0  0
 11 13  1  0  0  0  0
 13 12  1  0  0  0  0
 13 22  2  0  0  0  0
 14 23  1  1  0  0  0
 14 27  1  0  0  0  0
 17 10  1  6  0  0  0
 17  7  1  0  0  0  0
 18 15  1  0  0  0  0
 19 16  1  1  0  0  0
 20 10  1  0  0  0  0
 20 29  1  0  0  0  0
 21 22  1  0  0  0  0
 22 14  1  0  0  0  0
 23 28  1  0  0  0  0
 27  5  1  0  0  0  0
 28  6  1  0  0  0  0
 28  9  1  0  0  0  0
 29  1  1  0  0  0  0
 30 29  1  0  0  0  0
 30 31  1  0  0  0  0
 32 30  2  0  0  0  0
M  END
>  <MODEL>
1

>  <REMARK>
 VINA RESULT:      -6.4      0.000      0.000
  Name = 
  1 active torsions:
  status: ('A' for Active; 'I' for Inactive)
    1  A    between atoms: C_29  and  C_30
                            x       y       z     vdW  Elec       q    Type
                         _______ _______ _______ _____ _____    ______ ____

>  <TORSDO>
F 1

$$$$
=
 OpenBabel11122412503D

 32 38  0  0  1  0  0  0  0  0999 V2000
  161.3340  212.8130  147.5300 C   0  0  2  0  0  3  0  0  0  0  0  0
  161.1740  208.6510  150.1060 C   0  0  1  0  0  3  0  0  0  0  0  0
  161.2650  208.3120  155.1580 C   0  0  0  0  0  2  0  0  0  0  0  0
  160.6490  206.9530  154.9880 C   0  0  0  0  0  3  0  0  0  0  0  0
  161.3550  206.4480  148.7930 C   0  0  2  0  0  3  0  0  0  0  0  0
  161.6410  204.9640  148.9820 C   0  0  2  0  0  3  0  0  0  0  0  0
  161.5000  210.7540  149.0950 C   0  0  1  0  0  3  0  0  0  0  0  0
  161.6360  210.5840  151.5910 C   0  0  0  0  0  3  0  0  0  0  0  0
  160.8140  202.9020  149.7550 C   0  0  1  0  0  3  0  0  0  0  0  0
  161.3900  212.8440  150.5570 C   0  0  0  0  0  2  0  0  0  0  0  0
  161.1520  209.0770  153.9560 O   0  0  0  0  0  0  0  0  0  0  0  0
  161.3500  209.2800  151.4770 C   0  0  0  0  0  0  0  0  0  0  0  0
  161.1100  208.4720  152.6920 C   0  0  0  0  0  0  0  0  0  0  0  0
  160.6910  206.4800  151.2630 C   0  0  2  0  0  3  0  0  0  0  0  0
  161.1530  202.8220  148.2660 C   0  0  0  0  0  2  0  0  0  0  0  0
  160.9910  211.5190  146.8040 C   0  0  0  0  0  2  0  0  0  0  0  0
  161.9560  211.4340  150.3920 C   0  0  2  0  0  3  0  0  0  0  0  0
  161.4730  204.1700  147.7770 N   0  0  0  0  0  2  0  0  0  0  0  0
  162.0450  211.4910  147.8850 C   0  0  1  0  0  3  0  0  0  0  0  0
  160.0300  212.9830  149.8860 C   0  0  0  0  0  2  0  0  0  0  0  0
  160.5010  206.4380  153.8040 N   0  0  0  0  0  0  0  0  0  0  0  0
  160.8430  207.1550  152.6060 C   0  0  0  0  0  0  0  0  0  0  0  0
  160.9540  204.9710  151.3480 C   0  0  0  0  0  2  0  0  0  0  0  0
  161.9550  209.3680  149.0950 N   0  0  0  0  0  2  0  0  0  0  0  0
  162.2500  206.9580  147.8500 O   0  0  0  0  0  1  0  0  0  0  0  0
  161.9590  202.2970  150.5550 C   0  0  0  0  0  1  0  0  0  0  0  0
  161.5430  207.1610  150.1560 C   0  0  2  0  0  3  0  0  0  0  0  0
  160.6800  204.3910  149.9710 C   0  0  1  0  0  3  0  0  0  0  0  0
  160.1500  213.3340  148.3970 C   0  0  2  0  0  3  0  0  0  0  0  0
  158.8240  213.3300  147.7040 C   0  0  0  0  0  0  0  0  0  0  0  0
  158.6770  213.9360  146.4630 O   0  0  0  0  0  0  0  0  0  0  0  0
  157.8300  212.7910  148.2590 O   0  0  0  0  0  1  0  0  0  0  0  0
  1 16  1  6  0  0  0
  1 19  1  0  0  0  0
  1 29  1  0  0  0  0
  2 24  1  6  0  0  0
  2 27  1  0  0  0  0
  2 12  1  0  0  0  0
  4  3  1  0  0  0  0
  5 25  1  6  0  0  0
  5  6  1  0  0  0  0
  5 27  1  0  0  0  0
  6 18  1  6  0  0  0
  6 28  1  0  0  0  0
  7 24  1  1  0  0  0
  7 17  1  0  0  0  0
  9 28  1  0  0  0  0
  9 26  1  1  0  0  0
 11  3  1  0  0  0  0
 12  8  2  0  0  0  0
 12 13  1  0  0  0  0
 13 11  1  0  0  0  0
 14 23  1  1  0  0  0
 14 22  1  0  0  0  0
 15  9  1  0  0  0  0
 17 10  1  1  0  0  0
 17  8  1  0  0  0  0
 18 15  1  0  0  0  0
 19 16  1  6  0  0  0
 19  7  1  0  0  0  0
 20 10  1  0  0  0  0
 21  4  2  0  0  0  0
 22 13  2  0  0  0  0
 22 21  1  0  0  0  0
 27 14  1  0  0  0  0
 28 23  1  0  0  0  0
 29 20  1  0  0  0  0
 30 32  1  0  0  0  0
 30 29  1  0  0  0  0
 31 30  2  0  0  0  0
M  END
>  <MODEL>
2

>  <REMARK>
 VINA RESULT:      -5.9      3.826      8.355
  Name = 
  1 active torsions:
  status: ('A' for Active; 'I' for Inactive)
    1  A    between atoms: C_29  and  C_30
                            x       y       z     vdW  Elec       q    Type
                         _______ _______ _______ _____ _____    ______ ____

>  <TORSDO>
F 1

$$$$
=
 OpenBabel11122412503D

 32 38  0  0  1  0  0  0  0  0999 V2000
  161.6580  212.7180  148.2340 C   0  0  2  0  0  3  0  0  0  0  0  0
  161.3800  207.9680  149.3900 C   0  0  1  0  0  3  0  0  0  0  0  0
  161.4930  206.0700  154.0840 C   0  0  0  0  0  2  0  0  0  0  0  0
  160.8320  204.8500  153.5100 C   0  0  0  0  0  3  0  0  0  0  0  0
  161.4800  206.2790  147.4540 C   0  0  2  0  0  3  0  0  0  0  0  0
  161.7200  204.8020  147.1670 C   0  0  2  0  0  3  0  0  0  0  0  0
  161.7670  210.2710  149.0790 C   0  0  1  0  0  3  0  0  0  0  0  0
  161.9140  209.3280  151.3950 C   0  0  0  0  0  3  0  0  0  0  0  0
  160.8320  202.6270  147.2750 C   0  0  1  0  0  3  0  0  0  0  0  0
  161.7340  211.8040  151.1190 C   0  0  0  0  0  2  0  0  0  0  0  0
  161.3960  207.1740  153.1820 O   0  0  0  0  0  0  0  0  0  0  0  0
  161.5850  208.1330  150.8860 C   0  0  0  0  0  0  0  0  0  0  0  0
  161.3270  206.9940  151.7930 C   0  0  0  0  0  0  0  0  0  0  0  0
  160.8350  205.5590  149.8230 C   0  0  2  0  0  3  0  0  0  0  0  0
  161.1580  203.0040  145.8290 C   0  0  0  0  0  2  0  0  0  0  0  0
  161.2680  211.7250  147.1470 C   0  0  0  0  0  2  0  0  0  0  0  0
  162.2530  210.4990  150.5150 C   0  0  2  0  0  3  0  0  0  0  0  0
  161.5180  204.4270  145.7790 N   0  0  0  0  0  2  0  0  0  0  0  0
  162.3270  211.3320  148.1490 C   0  0  1  0  0  3  0  0  0  0  0  0
  160.3750  212.1840  150.5480 C   0  0  0  0  0  2  0  0  0  0  0  0
  160.6590  204.7340  152.2270 N   0  0  0  0  0  0  0  0  0  0  0  0
  161.0170  205.7780  151.3060 C   0  0  0  0  0  0  0  0  0  0  0  0
  161.0490  204.0910  149.4300 C   0  0  0  0  0  2  0  0  0  0  0  0
  162.1770  208.9410  148.6400 N   0  0  0  0  0  2  0  0  0  0  0  0
  162.3850  207.0310  146.7030 O   0  0  0  0  0  1  0  0  0  0  0  0
  161.9620  201.7700  147.8280 C   0  0  0  0  0  1  0  0  0  0  0  0
  161.7010  206.5260  148.9690 C   0  0  2  0  0  3  0  0  0  0  0  0
  160.7470  203.9770  147.9450 C   0  0  1  0  0  3  0  0  0  0  0  0
  160.4960  212.9770  149.2390 C   0  0  2  0  0  3  0  0  0  0  0  0
  159.1670  213.2270  148.6020 C   0  0  0  0  0  0  0  0  0  0  0  0
  157.9930  212.9550  149.2940 O   0  0  0  0  0  1  0  0  0  0  0  0
  159.1100  213.6660  147.4230 O   0  0  0  0  0  0  0  0  0  0  0  0
  1 16  1  6  0  0  0
  1 29  1  0  0  0  0
  2 24  1  6  0  0  0
  2 12  1  0  0  0  0
  4  3  1  0  0  0  0
  5 25  1  6  0  0  0
  5 27  1  0  0  0  0
  6 18  1  6  0  0  0
  6  5  1  0  0  0  0
  6 28  1  0  0  0  0
  7 24  1  6  0  0  0
  7 17  1  0  0  0  0
  9 26  1  1  0  0  0
  9 28  1  0  0  0  0
 11  3  1  0  0  0  0
 12  8  2  0  0  0  0
 12 13  1  0  0  0  0
 13 11  1  0  0  0  0
 14 23  1  1  0  0  0
 14 22  1  0  0  0  0
 15  9  1  0  0  0  0
 17 10  1  1  0  0  0
 17  8  1  0  0  0  0
 18 15  1  0  0  0  0
 19 16  1  6  0  0  0
 19  1  1  0  0  0  0
 19  7  1  0  0  0  0
 20 10  1  0  0  0  0
 21  4  2  0  0  0  0
 22 13  2  0  0  0  0
 22 21  1  0  0  0  0
 27  2  1  0  0  0  0
 27 14  1  0  0  0  0
 28 23  1  0  0  0  0
 29 20  1  0  0  0  0
 30 29  1  0  0  0  0
 30 31  1  0  0  0  0
 32 30  2  0  0  0  0
M  END
>  <MODEL>
3

>  <REMARK>
 VINA RESULT:      -5.6      4.142      9.061
  Name = 
  1 active torsions:
  status: ('A' for Active; 'I' for Inactive)
    1  A    between atoms: C_29  and  C_30
                            x       y       z     vdW  Elec       q    Type
                         _______ _______ _______ _____ _____    ______ ____

>  <TORSDO>
F 1

$$$$
=
 OpenBabel11122412503D

 32 38  0  0  1  0  0  0  0  0999 V2000
  161.3840  210.7060  153.2260 C   0  0  2  0  0  3  0  0  0  0  0  0
  161.2380  206.6570  150.4770 C   0  0  1  0  0  3  0  0  0  0  0  0
  161.2000  201.9070  152.2330 C   0  0  0  0  0  2  0  0  0  0  0  0
  160.6160  201.5160  150.9060 C   0  0  0  0  0  3  0  0  0  0  0  0
  161.4970  206.9510  147.9360 C   0  0  2  0  0  3  0  0  0  0  0  0
  161.8080  206.1670  146.6670 C   0  0  2  0  0  3  0  0  0  0  0  0
  161.5480  208.4330  151.9920 C   0  0  1  0  0  3  0  0  0  0  0  0
  161.6210  206.0840  152.8590 C   0  0  0  0  0  3  0  0  0  0  0  0
  161.0020  204.6320  145.0780 C   0  0  1  0  0  3  0  0  0  0  0  0
  161.3580  207.9560  154.4920 C   0  0  0  0  0  2  0  0  0  0  0  0
  161.1040  203.3180  152.4370 O   0  0  0  0  0  0  0  0  0  0  0  0
  161.3640  205.6600  151.6150 C   0  0  0  0  0  0  0  0  0  0  0  0
  161.1080  204.2250  151.3670 C   0  0  0  0  0  0  0  0  0  0  0  0
  160.7670  204.7200  148.9540 C   0  0  2  0  0  3  0  0  0  0  0  0
  161.3820  205.9520  144.4060 C   0  0  0  0  0  2  0  0  0  0  0  0
  161.0860  210.8450  151.7390 C   0  0  0  0  0  2  0  0  0  0  0  0
  161.9560  207.5210  153.1550 C   0  0  2  0  0  3  0  0  0  0  0  0
  161.6880  206.9440  145.4450 N   0  0  0  0  0  2  0  0  0  0  0  0
  162.1110  209.8300  152.1860 C   0  0  1  0  0  3  0  0  0  0  0  0
  160.0140  208.6470  154.3060 C   0  0  0  0  0  2  0  0  0  0  0  0
  160.5090  202.3880  149.9480 N   0  0  0  0  0  0  0  0  0  0  0  0
  160.8700  203.7690  150.1230 C   0  0  0  0  0  0  0  0  0  0  0  0
  161.0580  204.0210  147.6190 C   0  0  0  0  0  2  0  0  0  0  0  0
  162.0310  207.8590  150.7410 N   0  0  0  0  0  2  0  0  0  0  0  0
  162.4070  208.0050  148.0420 O   0  0  0  0  0  1  0  0  0  0  0  0
  162.1370  203.6360  144.8860 C   0  0  0  0  0  1  0  0  0  0  0  0
  161.6350  205.9950  149.1480 C   0  0  2  0  0  3  0  0  0  0  0  0
  160.8320  205.0450  146.5200 C   0  0  1  0  0  3  0  0  0  0  0  0
  160.1660  210.1480  154.0210 C   0  0  2  0  0  3  0  0  0  0  0  0
  158.8600  210.7990  153.6960 C   0  0  0  0  0  0  0  0  0  0  0  0
  157.9440  211.0770  154.7020 O   0  0  0  0  0  1  0  0  0  0  0  0
  158.5800  211.0780  152.5000 O   0  0  0  0  0  0  0  0  0  0  0  0
  1 16  1  6  0  0  0
  1 29  1  0  0  0  0
  2 24  1  1  0  0  0
  2 12  1  0  0  0  0
  3 11  1  0  0  0  0
  4  3  1  0  0  0  0
  5 25  1  1  0  0  0
  5 27  1  0  0  0  0
  6 18  1  6  0  0  0
  6  5  1  0  0  0  0
  7 24  1  6  0  0  0
  7 19  1  0  0  0  0
  7 17  1  0  0  0  0
  9 26  1  1  0  0  0
  9 28  1  0  0  0  0
 12  8  2  0  0  0  0
 13 12  1  0  0  0  0
 13 11  1  0  0  0  0
 14 23  1  6  0  0  0
 14 27  1  0  0  0  0
 14 22  1  0  0  0  0
 15  9  1  0  0  0  0
 15 18  1  0  0  0  0
 17  8  1  6  0  0  0
 17 10  1  0  0  0  0
 19 16  1  6  0  0  0
 19  1  1  0  0  0  0
 20 10  1  0  0  0  0
 21 22  1  0  0  0  0
 21  4  2  0  0  0  0
 22 13  2  0  0  0  0
 27  2  1  0  0  0  0
 28  6  1  0  0  0  0
 28 23  1  0  0  0  0
 29 20  1  0  0  0  0
 30 29  1  0  0  0  0
 30 31  1  0  0  0  0
 32 30  2  0  0  0  0
M  END
>  <MODEL>
4

>  <REMARK>
 VINA RESULT:      -5.5      3.505      9.131
  Name = 
  1 active torsions:
  status: ('A' for Active; 'I' for Inactive)
    1  A    between atoms: C_29  and  C_30
                            x       y       z     vdW  Elec       q    Type
                         _______ _______ _______ _____ _____    ______ ____

>  <TORSDO>
F 1

$$$$
=
 OpenBabel11122412503D

 32 38  0  0  1  0  0  0  0  0999 V2000
  162.3550  205.1440  151.7860 C   0  0  2  0  0  3  0  0  0  0  0  0
  160.6360  209.6860  152.4160 C   0  0  1  0  0  3  0  0  0  0  0  0
  161.1820  213.5180  149.1510 C   0  0  0  0  0  2  0  0  0  0  0  0
  159.9990  214.1470  149.8300 C   0  0  0  0  0  3  0  0  0  0  0  0
  159.6310  210.2550  154.7130 C   0  0  2  0  0  3  0  0  0  0  0  0
  159.2320  211.4400  155.5830 C   0  0  2  0  0  3  0  0  0  0  0  0
  161.7560  207.6570  151.9940 C   0  0  1  0  0  3  0  0  0  0  0  0
  162.1040  209.5740  150.4200 C   0  0  0  0  0  3  0  0  0  0  0  0
  157.6590  213.1520  155.9420 C   0  0  1  0  0  3  0  0  0  0  0  0
  162.7890  207.2850  149.6900 C   0  0  0  0  0  2  0  0  0  0  0  0
  161.2820  212.1320  149.4820 O   0  0  0  0  0  0  0  0  0  0  0  0
  161.2450  210.2860  151.1610 C   0  0  0  0  0  0  0  0  0  0  0  0
  160.8150  211.6250  150.7030 C   0  0  0  0  0  0  0  0  0  0  0  0
  159.3640  211.8270  152.7120 C   0  0  2  0  0  3  0  0  0  0  0  0
  157.7390  212.2300  157.1600 C   0  0  0  0  0  2  0  0  0  0  0  0
  161.3740  205.4010  152.9230 C   0  0  0  0  0  2  0  0  0  0  0  0
  162.6260  208.2380  150.8740 C   0  0  2  0  0  3  0  0  0  0  0  0
  158.5740  211.0700  156.8240 N   0  0  0  0  0  2  0  0  0  0  0  0
  162.4230  206.4430  152.6140 C   0  0  1  0  0  3  0  0  0  0  0  0
  161.5710  206.3880  149.5230 C   0  0  0  0  0  2  0  0  0  0  0  0
  159.4880  213.6110  150.8980 N   0  0  0  0  0  0  0  0  0  0  0  0
  159.9700  212.3700  151.4400 C   0  0  0  0  0  0  0  0  0  0  0  0
  158.9200  212.9490  153.6600 C   0  0  0  0  0  2  0  0  0  0  0  0
  161.5270  208.6840  153.0050 N   0  0  0  0  0  2  0  0  0  0  0  0
  160.5370  209.4650  155.4250 O   0  0  0  0  0  1  0  0  0  0  0  0
  158.4930  214.3970  156.2100 C   0  0  0  0  0  1  0  0  0  0  0  0
  160.2890  210.7970  153.4190 C   0  0  2  0  0  3  0  0  0  0  0  0
  158.2450  212.2880  154.8500 C   0  0  1  0  0  3  0  0  0  0  0  0
  161.6530  205.1280  150.3950 C   0  0  2  0  0  3  0  0  0  0  0  0
  160.3970  204.3180  150.3420 C   0  0  0  0  0  0  0  0  0  0  0  0
  160.4570  202.9320  150.2530 O   0  0  0  0  0  0  0  0  0  0  0  0
  159.2780  204.8960  150.3580 O   0  0  0  0  0  1  0  0  0  0  0  0
  1 19  1  0  0  0  0
  1 16  1  1  0  0  0
  2 12  1  6  0  0  0
  2 24  1  0  0  0  0
  2 27  1  0  0  0  0
  3 11  1  0  0  0  0
  3  4  1  0  0  0  0
  4 21  2  0  0  0  0
  5 25  1  1  0  0  0
  5  6  1  0  0  0  0
  6 18  1  1  0  0  0
  7 19  1  0  0  0  0
  7 24  1  1  0  0  0
  8 17  1  0  0  0  0
  8 12  2  0  0  0  0
  9 26  1  1  0  0  0
  9 15  1  0  0  0  0
 11 13  1  0  0  0  0
 13 12  1  0  0  0  0
 13 22  2  0  0  0  0
 14 27  1  0  0  0  0
 14 23  1  1  0  0  0
 17 10  1  6  0  0  0
 17  7  1  0  0  0  0
 18 15  1  0  0  0  0
 19 16  1  1  0  0  0
 20 10  1  0  0  0  0
 20 29  1  0  0  0  0
 21 22  1  0  0  0  0
 22 14  1  0  0  0  0
 23 28  1  0  0  0  0
 27  5  1  0  0  0  0
 28  6  1  0  0  0  0
 28  9  1  0  0  0  0
 29  1  1  0  0  0  0
 30 32  1  0  0  0  0
 30 29  1  0  0  0  0
 31 30  2  0  0  0  0
M  END
>  <MODEL>
5

>  <REMARK>
 VINA RESULT:      -5.2      1.230      1.336
  Name = 
  1 active torsions:
  status: ('A' for Active; 'I' for Inactive)
    1  A    between atoms: C_29  and  C_30
                            x       y       z     vdW  Elec       q    Type
                         _______ _______ _______ _____ _____    ______ ____

>  <TORSDO>
F 1

$$$$
=
 OpenBabel11122412503D

 32 38  0  0  1  0  0  0  0  0999 V2000
  160.2300  208.9900  156.2100 C   0  0  2  0  0  3  0  0  0  0  0  0
  161.2800  208.9650  151.4270 C   0  0  1  0  0  3  0  0  0  0  0  0
  161.6170  213.0600  148.4670 C   0  0  0  0  0  2  0  0  0  0  0  0
  162.4400  212.2120  147.5400 C   0  0  0  0  0  3  0  0  0  0  0  0
  161.3790  206.6780  150.2570 C   0  0  2  0  0  3  0  0  0  0  0  0
  161.3620  206.0410  148.8730 C   0  0  2  0  0  3  0  0  0  0  0  0
  160.5300  209.2170  153.6460 C   0  0  1  0  0  3  0  0  0  0  0  0
  160.6080  211.2360  152.1650 C   0  0  0  0  0  3  0  0  0  0  0  0
  162.5800  205.6240  146.9050 C   0  0  1  0  0  3  0  0  0  0  0  0
  160.3920  211.5680  154.6310 C   0  0  0  0  0  2  0  0  0  0  0  0
  161.5120  212.4520  149.7560 O   0  0  0  0  0  0  0  0  0  0  0  0
  161.1010  210.4550  151.1940 C   0  0  0  0  0  0  0  0  0  0  0  0
  161.5620  211.0610  149.9270 C   0  0  0  0  0  0  0  0  0  0  0  0
  162.2060  208.8060  149.1020 C   0  0  2  0  0  3  0  0  0  0  0  0
  162.1520  204.3110  147.5610 C   0  0  0  0  0  2  0  0  0  0  0  0
  160.7330  207.6970  155.5810 C   0  0  0  0  0  2  0  0  0  0  0  0
  160.0620  210.6630  153.4440 C   0  0  2  0  0  3  0  0  0  0  0  0
  161.5730  204.6040  148.8790 N   0  0  0  0  0  2  0  0  0  0  0  0
  159.7820  208.5690  154.7960 C   0  0  1  0  0  3  0  0  0  0  0  0
  161.6560  211.1130  155.3470 C   0  0  0  0  0  2  0  0  0  0  0  0
  162.5860  210.9400  147.7630 N   0  0  0  0  0  0  0  0  0  0  0  0
  162.0410  210.2970  148.9280 C   0  0  0  0  0  0  0  0  0  0  0  0
  162.2090  208.0680  147.7560 C   0  0  0  0  0  2  0  0  0  0  0  0
  160.3170  208.4680  152.4120 N   0  0  0  0  0  2  0  0  0  0  0  0
  160.3440  206.1250  151.0140 O   0  0  0  0  0  1  0  0  0  0  0  0
  161.6150  205.9470  145.7720 C   0  0  0  0  0  1  0  0  0  0  0  0
  161.1730  208.2050  150.0960 C   0  0  2  0  0  3  0  0  0  0  0  0
  162.4760  206.6020  148.0510 C   0  0  1  0  0  3  0  0  0  0  0  0
  161.3700  210.0340  156.4010 C   0  0  2  0  0  3  0  0  0  0  0  0
  162.6230  209.4840  157.0040 C   0  0  0  0  0  0  0  0  0  0  0  0
  163.7050  210.3170  157.2610 O   0  0  0  0  0  0  0  0  0  0  0  0
  162.7060  208.2540  157.2610 O   0  0  0  0  0  1  0  0  0  0  0  0
  1 16  1  1  0  0  0
  1 29  1  0  0  0  0
  2 12  1  6  0  0  0
  2 24  1  0  0  0  0
  3 11  1  0  0  0  0
  4 21  2  0  0  0  0
  4  3  1  0  0  0  0
  5 25  1  1  0  0  0
  6 18  1  1  0  0  0
  6  5  1  0  0  0  0
  7 24  1  6  0  0  0
  7 19  1  0  0  0  0
  9 26  1  6  0  0  0
  9 15  1  0  0  0  0
  9 28  1  0  0  0  0
 10 20  1  0  0  0  0
 11 13  1  0  0  0  0
 12  8  2  0  0  0  0
 13 12  1  0  0  0  0
 14 23  1  6  0  0  0
 14 27  1  0  0  0  0
 15 18  1  0  0  0  0
 17  8  1  6  0  0  0
 17  7  1  0  0  0  0
 17 10  1  0  0  0  0
 19 16  1  1  0  0  0
 19  1  1  0  0  0  0
 20 29  1  0  0  0  0
 21 22  1  0  0  0  0
 22 14  1  0  0  0  0
 22 13  2  0  0  0  0
 23 28  1  0  0  0  0
 27  5  1  0  0  0  0
 27  2  1  0  0  0  0
 28  6  1  0  0  0  0
 29 30  1  0  0  0  0
 30 31  2  0  0  0  0
 30 32  1  0  0  0  0
M  END
>  <MODEL>
6

>  <REMARK>
 VINA RESULT:      -5.0      3.010      7.212
  Name = 
  1 active torsions:
  status: ('A' for Active; 'I' for Inactive)
    1  A    between atoms: C_29  and  C_30
                            x       y       z     vdW  Elec       q    Type
                         _______ _______ _______ _____ _____    ______ ____

>  <TORSDO>
F 1

$$$$
=
 OpenBabel11122412503D

 32 38  0  0  1  0  0  0  0  0999 V2000
  158.1860  212.8000  156.1260 C   0  0  2  0  0  3  0  0  0  0  0  0
  160.3720  211.3090  152.0060 C   0  0  1  0  0  3  0  0  0  0  0  0
  162.7780  206.8960  151.3830 C   0  0  0  0  0  2  0  0  0  0  0  0
  162.5660  207.0910  149.9090 C   0  0  0  0  0  3  0  0  0  0  0  0
  160.5740  213.0180  150.0960 C   0  0  2  0  0  3  0  0  0  0  0  0
  161.3240  213.2750  148.7950 C   0  0  2  0  0  3  0  0  0  0  0  0
  159.6040  211.8990  154.1540 C   0  0  1  0  0  3  0  0  0  0  0  0
  160.8700  209.7550  153.8750 C   0  0  0  0  0  3  0  0  0  0  0  0
  161.5490  212.6910  146.5280 C   0  0  1  0  0  3  0  0  0  0  0  0
  159.5610  210.1080  155.9720 C   0  0  0  0  0  2  0  0  0  0  0  0
  161.9330  207.7660  152.1400 O   0  0  0  0  0  0  0  0  0  0  0  0
  160.9480  210.0190  152.5640 C   0  0  0  0  0  0  0  0  0  0  0  0
  161.5120  209.0080  151.6440 C   0  0  0  0  0  0  0  0  0  0  0  0
  161.0920  210.5400  149.7300 C   0  0  2  0  0  3  0  0  0  0  0  0
  161.2030  214.1740  146.6700 C   0  0  0  0  0  2  0  0  0  0  0  0
  157.9410  213.5880  154.8440 C   0  0  0  0  0  2  0  0  0  0  0  0
  160.3710  210.7750  154.8610 C   0  0  2  0  0  3  0  0  0  0  0  0
  160.8750  214.4530  148.0750 N   0  0  0  0  0  2  0  0  0  0  0  0
  159.3230  213.0410  155.1130 C   0  0  1  0  0  3  0  0  0  0  0  0
  158.0680  210.1430  155.6740 C   0  0  0  0  0  2  0  0  0  0  0  0
  162.0640  208.2010  149.4550 N   0  0  0  0  0  0  0  0  0  0  0  0
  161.6210  209.2560  150.3250 C   0  0  0  0  0  0  0  0  0  0  0  0
  161.7830  210.8850  148.4050 C   0  0  0  0  0  2  0  0  0  0  0  0
  160.3870  212.3700  153.0160 N   0  0  0  0  0  2  0  0  0  0  0  0
  160.7740  214.1070  150.9480 O   0  0  0  0  0  1  0  0  0  0  0  0
  163.0500  212.5540  146.3080 C   0  0  0  0  0  1  0  0  0  0  0  0
  161.1330  211.7230  150.7370 C   0  0  2  0  0  3  0  0  0  0  0  0
  161.1070  212.1310  147.8590 C   0  0  1  0  0  3  0  0  0  0  0  0
  157.4120  211.4490  156.1430 C   0  0  2  0  0  3  0  0  0  0  0  0
  155.9800  211.5470  155.7240 C   0  0  0  0  0  0  0  0  0  0  0  0
  155.5020  210.7790  154.6690 O   0  0  0  0  0  0  0  0  0  0  0  0
  155.2070  212.3440  156.3170 O   0  0  0  0  0  1  0  0  0  0  0  0
  1 16  1  6  0  0  0
  1 29  1  0  0  0  0
  2 12  1  1  0  0  0
  2 24  1  0  0  0  0
  3 11  1  0  0  0  0
  4  3  1  0  0  0  0
  5 27  1  0  0  0  0
  5 25  1  1  0  0  0
  6 18  1  6  0  0  0
  6  5  1  0  0  0  0
  7 24  1  6  0  0  0
  7 17  1  0  0  0  0
  7 19  1  0  0  0  0
  9 26  1  1  0  0  0
  9 15  1  0  0  0  0
  9 28  1  0  0  0  0
 12  8  2  0  0  0  0
 13 11  1  0  0  0  0
 13 12  1  0  0  0  0
 14 23  1  6  0  0  0
 14 22  1  0  0  0  0
 14 27  1  0  0  0  0
 15 18  1  0  0  0  0
 17  8  1  6  0  0  0
 17 10  1  0  0  0  0
 19 16  1  6  0  0  0
 19  1  1  0  0  0  0
 20 10  1  0  0  0  0
 20 29  1  0  0  0  0
 21  4  2  0  0  0  0
 21 22  1  0  0  0  0
 22 13  2  0  0  0  0
 27  2  1  0  0  0  0
 28 23  1  0  0  0  0
 28  6  1  0  0  0  0
 30 29  1  0  0  0  0
 30 32  1  0  0  0  0
 31 30  2  0  0  0  0
M  END
>  <MODEL>
7

>  <REMARK>
 VINA RESULT:      -3.4      2.507      7.422
  Name = 
  1 active torsions:
  status: ('A' for Active; 'I' for Inactive)
    1  A    between atoms: C_29  and  C_30
                            x       y       z     vdW  Elec       q    Type
                         _______ _______ _______ _____ _____    ______ ____

>  <TORSDO>
F 1

$$$$
