=
 OpenBabel11122412413D

 30 35  0  0  1  0  0  0  0  0999 V2000
  161.5570  205.8250  150.1140 C   0  0  0  0  0  0  0  0  0  0  0  0
  161.0180  203.3850  149.8110 C   0  0  0  0  0  0  0  0  0  0  0  0
  161.1900  205.4780  154.2800 N   0  0  0  0  0  2  0  0  0  0  0  0
  161.7190  206.9300  150.9890 C   0  0  0  0  0  0  0  0  0  0  0  0
  161.7030  206.0420  148.7050 N   0  0  0  0  0  2  0  0  0  0  0  0
  162.3140  209.6470  148.4720 O   0  0  0  0  0  1  0  0  0  0  0  0
  160.4370  209.3780  152.0660 C   0  0  1  0  0  3  0  0  0  0  0  0
  161.7440  208.4740  148.9730 C   0  0  1  0  0  3  0  0  0  0  0  0
  160.5970  208.7600  153.3950 N   0  0  2  0  0  0  0  0  0  0  0  0
  161.5000  206.8220  154.7530 C   0  0  2  0  0  3  0  0  0  0  0  0
  162.2190  207.2850  148.1440 C   0  0  2  0  0  3  0  0  0  0  0  0
  162.1610  208.2770  150.4360 C   0  0  1  0  0  3  0  0  0  0  0  0
  160.7030  202.1540  150.3950 C   0  0  0  0  0  3  0  0  0  0  0  0
  160.9420  209.8740  154.2680 C   0  0  0  0  0  2  0  0  0  0  0  0
  159.8700  210.7660  152.3030 C   0  0  0  0  0  2  0  0  0  0  0  0
  161.1270  203.3960  148.3230 C   0  0  0  0  0  1  0  0  0  0  0  0
  161.2600  205.4860  152.8680 C   0  0  0  0  0  0  0  0  0  0  0  0
  160.5780  202.0260  151.7760 C   0  0  0  0  0  3  0  0  0  0  0  0
  161.2160  204.5340  150.6290 C   0  0  0  0  0  0  0  0  0  0  0  0
  161.5500  206.7210  152.3680 C   0  0  0  0  0  0  0  0  0  0  0  0
  160.4390  207.2620  155.7530 C   0  0  0  0  0  1  0  0  0  0  0  0
  161.6520  207.7240  153.4840 C   0  0  1  0  0  3  0  0  0  0  0  0
  160.2200  211.0960  153.7380 C   0  0  0  0  0  2  0  0  0  0  0  0
  162.4720  210.4130  151.3760 O   0  0  0  0  0  0  0  0  0  0  0  0
  160.7660  203.1340  152.5950 C   0  0  0  0  0  3  0  0  0  0  0  0
  161.0800  204.3790  152.0400 C   0  0  0  0  0  0  0  0  0  0  0  0
  161.7320  209.4440  151.2810 C   0  0  0  0  0  0  0  0  0  0  0  0
  161.7560  207.4190  146.7020 C   0  0  0  0  0  2  0  0  0  0  0  0
  160.3990  206.1150  145.3300 C   0  0  0  0  0  1  0  0  0  0  0  0
  161.6300  206.1050  146.0970 N   0  0  0  0  0  2  0  0  0  0  0  0
  1 19  2  0  0  0  0
  1  4  1  0  0  0  0
  2 13  2  0  0  0  0
  2 19  1  0  0  0  0
  3 10  1  0  0  0  0
  4 20  2  0  0  0  0
  5  1  1  0  0  0  0
  7 15  1  1  0  0  0
  7  9  1  0  0  0  0
  8  6  1  6  0  0  0
  8 12  1  0  0  0  0
  9 22  1  0  0  0  0
  9 14  1  1  0  0  0
 10 21  1  1  0  0  0
 11 28  1  6  0  0  0
 11  5  1  0  0  0  0
 11  8  1  0  0  0  0
 12  4  1  1  0  0  0
 12 27  1  0  0  0  0
 13 18  1  0  0  0  0
 15 23  1  0  0  0  0
 16  2  1  0  0  0  0
 17  3  1  0  0  0  0
 18 25  2  0  0  0  0
 19 26  1  0  0  0  0
 20 17  1  0  0  0  0
 22 20  1  6  0  0  0
 22 10  1  0  0  0  0
 23 14  1  0  0  0  0
 26 25  1  0  0  0  0
 26 17  2  0  0  0  0
 27 24  2  0  0  0  0
 27  7  1  0  0  0  0
 29 30  1  0  0  0  0
 30 28  1  0  0  0  0
M  END
>  <MODEL>
1

>  <REMARK>
 VINA RESULT:      -8.5      0.000      0.000
  Name = 
  2 active torsions:
  status: ('A' for Active; 'I' for Inactive)
    1  A    between atoms: C_11  and  C_28
    2  A    between atoms: C_28  and  N_30
                            x       y       z     vdW  Elec       q    Type
                         _______ _______ _______ _____ _____    ______ ____

>  <TORSDO>
F 2

$$$$
=
 OpenBabel11122412413D

 30 35  0  0  1  0  0  0  0  0999 V2000
  161.6300  207.8540  151.3550 C   0  0  0  0  0  0  0  0  0  0  0  0
  161.4920  210.3400  150.9820 C   0  0  0  0  0  0  0  0  0  0  0  0
  162.4500  207.2040  147.2910 N   0  0  0  0  0  2  0  0  0  0  0  0
  161.8120  206.5560  150.8110 C   0  0  0  0  0  0  0  0  0  0  0  0
  161.3560  207.9750  152.7560 N   0  0  0  0  0  2  0  0  0  0  0  0
  161.2060  204.4930  153.8860 O   0  0  0  0  0  1  0  0  0  0  0  0
  160.4300  204.0880  149.9170 C   0  0  1  0  0  3  0  0  0  0  0  0
  161.0160  205.5660  153.0100 C   0  0  1  0  0  3  0  0  0  0  0  0
  161.0470  204.3360  148.6010 N   0  0  2  0  0  0  0  0  0  0  0  0
  162.6190  205.7570  147.2140 C   0  0  2  0  0  3  0  0  0  0  0  0
  161.4660  206.8570  153.6850 C   0  0  2  0  0  3  0  0  0  0  0  0
  161.8350  205.3450  151.7320 C   0  0  1  0  0  3  0  0  0  0  0  0
  161.5760  211.4170  150.0950 C   0  0  0  0  0  3  0  0  0  0  0  0
  161.3990  203.0080  148.1160 C   0  0  0  0  0  2  0  0  0  0  0  0
  159.6990  202.7630  149.8070 C   0  0  0  0  0  2  0  0  0  0  0  0
  161.2000  210.6840  152.4050 C   0  0  0  0  0  1  0  0  0  0  0  0
  162.1410  207.5360  148.6290 C   0  0  0  0  0  0  0  0  0  0  0  0
  161.8470  211.2140  148.7440 C   0  0  0  0  0  3  0  0  0  0  0  0
  161.6830  209.0090  150.5110 C   0  0  0  0  0  0  0  0  0  0  0  0
  162.0550  206.4370  149.4320 C   0  0  0  0  0  0  0  0  0  0  0  0
  161.7990  205.2130  146.0530 C   0  0  0  0  0  1  0  0  0  0  0  0
  162.2610  205.1850  148.6260 C   0  0  1  0  0  3  0  0  0  0  0  0
  160.3490  202.0490  148.6410 C   0  0  0  0  0  2  0  0  0  0  0  0
  161.9820  203.0210  151.3800 O   0  0  0  0  0  0  0  0  0  0  0  0
  162.0370  209.9240  148.2610 C   0  0  0  0  0  3  0  0  0  0  0  0
  161.9560  208.8260  149.1240 C   0  0  0  0  0  0  0  0  0  0  0  0
  161.4360  204.0640  151.0510 C   0  0  0  0  0  0  0  0  0  0  0  0
  160.6210  207.1390  154.9180 C   0  0  0  0  0  2  0  0  0  0  0  0
  161.6960  208.4530  156.5120 C   0  0  0  0  0  1  0  0  0  0  0  0
  160.8230  208.5090  155.3540 N   0  0  0  0  0  2  0  0  0  0  0  0
  1  5  1  0  0  0  0
  2 16  1  0  0  0  0
  3 17  1  0  0  0  0
  4  1  1  0  0  0  0
  5 11  1  0  0  0  0
  7 15  1  6  0  0  0
  7 27  1  0  0  0  0
  8 11  1  0  0  0  0
  8  6  1  1  0  0  0
  9 14  1  1  0  0  0
  9 22  1  0  0  0  0
  9  7  1  0  0  0  0
 10 21  1  6  0  0  0
 10  3  1  0  0  0  0
 10 22  1  0  0  0  0
 11 28  1  1  0  0  0
 12  4  1  6  0  0  0
 12  8  1  0  0  0  0
 13  2  2  0  0  0  0
 14 23  1  0  0  0  0
 17 26  2  0  0  0  0
 17 20  1  0  0  0  0
 18 13  1  0  0  0  0
 19  2  1  0  0  0  0
 19  1  2  0  0  0  0
 20  4  2  0  0  0  0
 22 20  1  1  0  0  0
 23 15  1  0  0  0  0
 25 18  2  0  0  0  0
 25 26  1  0  0  0  0
 26 19  1  0  0  0  0
 27 24  2  0  0  0  0
 27 12  1  0  0  0  0
 28 30  1  0  0  0  0
 30 29  1  0  0  0  0
M  END
>  <MODEL>
2

>  <REMARK>
 VINA RESULT:      -6.6      2.250      7.208
  Name = 
  2 active torsions:
  status: ('A' for Active; 'I' for Inactive)
    1  A    between atoms: C_11  and  C_28
    2  A    between atoms: C_28  and  N_30
                            x       y       z     vdW  Elec       q    Type
                         _______ _______ _______ _____ _____    ______ ____

>  <TORSDO>
F 2

$$$$
=
 OpenBabel11122412413D

 30 35  0  0  1  0  0  0  0  0999 V2000
  161.4130  208.0560  150.7880 C   0  0  0  0  0  0  0  0  0  0  0  0
  161.4350  205.8760  149.5270 C   0  0  0  0  0  0  0  0  0  0  0  0
  160.8160  206.0470  154.4230 N   0  0  0  0  0  2  0  0  0  0  0  0
  161.2690  208.7390  152.0220 C   0  0  0  0  0  0  0  0  0  0  0  0
  161.6150  208.8290  149.5980 N   0  0  0  0  0  2  0  0  0  0  0  0
  161.4560  212.2840  150.8070 O   0  0  0  0  0  1  0  0  0  0  0  0
  159.4140  210.3150  153.7180 C   0  0  1  0  0  3  0  0  0  0  0  0
  161.1140  210.9300  150.7470 C   0  0  1  0  0  3  0  0  0  0  0  0
  159.6020  209.2620  154.7320 N   0  0  2  0  0  0  0  0  0  0  0  0
  160.7940  207.1290  155.4000 C   0  0  2  0  0  3  0  0  0  0  0  0
  161.8940  210.2600  149.6200 C   0  0  2  0  0  3  0  0  0  0  0  0
  161.4520  210.2490  152.0790 C   0  0  1  0  0  3  0  0  0  0  0  0
  161.3490  204.4810  149.5600 C   0  0  0  0  0  3  0  0  0  0  0  0
  159.6330  209.9850  155.9960 C   0  0  0  0  0  2  0  0  0  0  0  0
  158.5460  211.3820  154.3600 C   0  0  0  0  0  2  0  0  0  0  0  0
  161.6510  206.4880  148.1830 C   0  0  0  0  0  1  0  0  0  0  0  0
  160.9890  206.6190  153.1420 C   0  0  0  0  0  0  0  0  0  0  0  0
  161.1500  203.8040  150.7600 C   0  0  0  0  0  3  0  0  0  0  0  0
  161.3190  206.6280  150.7310 C   0  0  0  0  0  0  0  0  0  0  0  0
  161.0440  207.9810  153.1830 C   0  0  0  0  0  0  0  0  0  0  0  0
  159.5910  206.9560  156.3180 C   0  0  0  0  0  1  0  0  0  0  0  0
  160.8440  208.4680  154.5920 C   0  0  1  0  0  3  0  0  0  0  0  0
  158.7070  211.1770  155.8510 C   0  0  0  0  0  2  0  0  0  0  0  0
  161.2250  211.8650  153.7770 O   0  0  0  0  0  0  0  0  0  0  0  0
  161.0330  204.5160  151.9490 C   0  0  0  0  0  3  0  0  0  0  0  0
  161.1130  205.9120  151.9470 C   0  0  0  0  0  0  0  0  0  0  0  0
  160.7200  210.9010  153.2200 C   0  0  0  0  0  0  0  0  0  0  0  0
  161.5230  210.8680  148.2770 C   0  0  0  0  0  2  0  0  0  0  0  0
  161.7730  212.9310  147.2260 C   0  0  0  0  0  1  0  0  0  0  0  0
  162.5010  211.8730  147.9020 N   0  0  0  0  0  2  0  0  0  0  0  0
  1  4  1  0  0  0  0
  2 13  2  0  0  0  0
  2 19  1  0  0  0  0
  3 10  1  0  0  0  0
  4 20  2  0  0  0  0
  5 11  1  0  0  0  0
  5  1  1  0  0  0  0
  7 15  1  1  0  0  0
  7  9  1  0  0  0  0
  8  6  1  1  0  0  0
  8 12  1  0  0  0  0
  9 14  1  1  0  0  0
 10 21  1  6  0  0  0
 11 28  1  6  0  0  0
 11  8  1  0  0  0  0
 12  4  1  6  0  0  0
 12 27  1  0  0  0  0
 13 18  1  0  0  0  0
 15 23  1  0  0  0  0
 16  2  1  0  0  0  0
 17 20  1  0  0  0  0
 17  3  1  0  0  0  0
 18 25  2  0  0  0  0
 19  1  2  0  0  0  0
 19 26  1  0  0  0  0
 22 20  1  6  0  0  0
 22  9  1  0  0  0  0
 22 10  1  0  0  0  0
 23 14  1  0  0  0  0
 26 25  1  0  0  0  0
 26 17  2  0  0  0  0
 27  7  1  0  0  0  0
 27 24  2  0  0  0  0
 29 30  1  0  0  0  0
 30 28  1  0  0  0  0
M  END
>  <MODEL>
3

>  <REMARK>
 VINA RESULT:      -6.6      2.051      2.890
  Name = 
  2 active torsions:
  status: ('A' for Active; 'I' for Inactive)
    1  A    between atoms: C_11  and  C_28
    2  A    between atoms: C_28  and  N_30
                            x       y       z     vdW  Elec       q    Type
                         _______ _______ _______ _____ _____    ______ ____

>  <TORSDO>
F 2

$$$$
=
 OpenBabel11122412413D

 30 35  0  0  1  0  0  0  0  0999 V2000
  160.2730  209.9660  153.5610 C   0  0  0  0  0  0  0  0  0  0  0  0
  158.9160  211.9070  154.4150 C   0  0  0  0  0  0  0  0  0  0  0  0
  161.2690  212.0840  150.0780 N   0  0  0  0  0  2  0  0  0  0  0  0
  161.0690  209.4060  152.5290 C   0  0  0  0  0  0  0  0  0  0  0  0
  159.9870  209.1650  154.7140 N   0  0  0  0  0  2  0  0  0  0  0  0
  161.5960  205.9670  153.9330 O   0  0  0  0  0  1  0  0  0  0  0  0
  161.0860  207.5420  150.2210 C   0  0  1  0  0  3  0  0  0  0  0  0
  160.8900  207.1440  153.6710 C   0  0  1  0  0  3  0  0  0  0  0  0
  161.4870  208.7060  149.4100 N   0  0  2  0  0  0  0  0  0  0  0  0
  162.1340  211.1540  149.3600 C   0  0  2  0  0  3  0  0  0  0  0  0
  160.6460  207.8910  154.9780 C   0  0  2  0  0  3  0  0  0  0  0  0
  161.6990  208.0330  152.7170 C   0  0  1  0  0  3  0  0  0  0  0  0
  158.4460  213.2090  154.2190 C   0  0  0  0  0  3  0  0  0  0  0  0
  162.4460  208.1630  148.4570 C   0  0  0  0  0  2  0  0  0  0  0  0
  161.1080  206.3410  149.2940 C   0  0  0  0  0  2  0  0  0  0  0  0
  158.5040  211.2470  155.6890 C   0  0  0  0  0  1  0  0  0  0  0  0
  160.8490  211.4550  151.2720 C   0  0  0  0  0  0  0  0  0  0  0  0
  158.7700  213.9210  153.0670 C   0  0  0  0  0  3  0  0  0  0  0  0
  159.7380  211.2870  153.4300 C   0  0  0  0  0  0  0  0  0  0  0  0
  161.3260  210.1830  151.3870 C   0  0  0  0  0  0  0  0  0  0  0  0
  161.6800  211.0600  147.9100 C   0  0  0  0  0  1  0  0  0  0  0  0
  162.1190  209.8120  150.1640 C   0  0  1  0  0  3  0  0  0  0  0  0
  162.0150  206.7420  148.1500 C   0  0  0  0  0  2  0  0  0  0  0  0
  162.9770  206.6130  151.3400 O   0  0  0  0  0  0  0  0  0  0  0  0
  159.5700  213.3370  152.0910 C   0  0  0  0  0  3  0  0  0  0  0  0
  160.0530  212.0350  152.2580 C   0  0  0  0  0  0  0  0  0  0  0  0
  161.9820  207.3190  151.4240 C   0  0  0  0  0  0  0  0  0  0  0  0
  159.7850  207.0610  155.9160 C   0  0  0  0  0  2  0  0  0  0  0  0
  161.4070  208.0520  157.2610 C   0  0  0  0  0  1  0  0  0  0  0  0
  160.3840  207.0230  157.2370 N   0  0  0  0  0  2  0  0  0  0  0  0
  1  5  1  0  0  0  0
  2 16  1  0  0  0  0
  3 17  1  0  0  0  0
  4 12  1  0  0  0  0
  4  1  2  0  0  0  0
  5 11  1  0  0  0  0
  7 15  1  6  0  0  0
  7 27  1  0  0  0  0
  8  6  1  1  0  0  0
  8 11  1  0  0  0  0
  9 14  1  6  0  0  0
  9 22  1  0  0  0  0
  9  7  1  0  0  0  0
 10 21  1  6  0  0  0
 10  3  1  0  0  0  0
 10 22  1  0  0  0  0
 11 28  1  1  0  0  0
 12 27  1  6  0  0  0
 12  8  1  0  0  0  0
 13  2  1  0  0  0  0
 17 20  2  0  0  0  0
 17 26  1  0  0  0  0
 18 13  2  0  0  0  0
 19  1  1  0  0  0  0
 19  2  2  0  0  0  0
 20  4  1  0  0  0  0
 22 20  1  1  0  0  0
 23 14  1  0  0  0  0
 23 15  1  0  0  0  0
 24 27  2  0  0  0  0
 25 26  2  0  0  0  0
 25 18  1  0  0  0  0
 26 19  1  0  0  0  0
 28 30  1  0  0  0  0
 30 29  1  0  0  0  0
M  END
>  <MODEL>
4

>  <REMARK>
 VINA RESULT:      -6.5      2.562      7.582
  Name = 
  2 active torsions:
  status: ('A' for Active; 'I' for Inactive)
    1  A    between atoms: C_11  and  C_28
    2  A    between atoms: C_28  and  N_30
                            x       y       z     vdW  Elec       q    Type
                         _______ _______ _______ _____ _____    ______ ____

>  <TORSDO>
F 2

$$$$
=
 OpenBabel11122412413D

 30 35  0  0  1  0  0  0  0  0999 V2000
  161.1850  209.3580  152.2360 C   0  0  0  0  0  0  0  0  0  0  0  0
  161.5020  207.0490  153.1890 C   0  0  0  0  0  0  0  0  0  0  0  0
  159.2370  210.6260  155.7290 N   0  0  0  0  0  2  0  0  0  0  0  0
  160.6660  210.6690  152.3860 C   0  0  0  0  0  0  0  0  0  0  0  0
  161.8360  209.0180  151.0050 N   0  0  0  0  0  2  0  0  0  0  0  0
  161.4900  212.0670  149.0030 O   0  0  0  0  0  1  0  0  0  0  0  0
  158.4430  212.4950  151.6600 C   0  0  1  0  0  3  0  0  0  0  0  0
  161.1040  211.0850  149.9190 C   0  0  1  0  0  3  0  0  0  0  0  0
  158.2000  212.6170  153.1080 N   0  0  2  0  0  0  0  0  0  0  0  0
  158.9470  212.0300  155.4560 C   0  0  2  0  0  3  0  0  0  0  0  0
  162.1810  210.0070  149.9910 C   0  0  2  0  0  3  0  0  0  0  0  0
  160.9150  211.7120  151.3060 C   0  0  1  0  0  3  0  0  0  0  0  0
  161.3200  206.1680  154.2590 C   0  0  0  0  0  3  0  0  0  0  0  0
  157.8370  214.0160  153.2920 C   0  0  0  0  0  2  0  0  0  0  0  0
  157.4770  213.4470  150.9780 C   0  0  0  0  0  2  0  0  0  0  0  0
  162.2100  206.4960  151.9970 C   0  0  0  0  0  1  0  0  0  0  0  0
  159.8790  210.0850  154.5930 C   0  0  0  0  0  0  0  0  0  0  0  0
  160.6750  206.5770  155.4230 C   0  0  0  0  0  3  0  0  0  0  0  0
  161.0250  208.3890  153.2770 C   0  0  0  0  0  0  0  0  0  0  0  0
  160.0040  210.9930  153.5830 C   0  0  0  0  0  0  0  0  0  0  0  0
  157.4920  212.3200  155.7990 C   0  0  0  0  0  1  0  0  0  0  0  0
  159.3600  212.2960  153.9700 C   0  0  1  0  0  3  0  0  0  0  0  0
  157.0980  214.4530  152.0430 C   0  0  0  0  0  2  0  0  0  0  0  0
  160.2180  213.9390  150.9850 O   0  0  0  0  0  0  0  0  0  0  0  0
  160.1990  207.8790  155.5320 C   0  0  0  0  0  3  0  0  0  0  0  0
  160.3650  208.7830  154.4770 C   0  0  0  0  0  0  0  0  0  0  0  0
  159.8760  212.8000  151.2690 C   0  0  0  0  0  0  0  0  0  0  0  0
  162.3390  209.3180  148.6450 C   0  0  0  0  0  2  0  0  0  0  0  0
  162.3280  207.1150  147.8890 C   0  0  0  0  0  1  0  0  0  0  0  0
  161.5500  208.1000  148.6170 N   0  0  0  0  0  2  0  0  0  0  0  0
  1  4  2  0  0  0  0
  1 19  1  0  0  0  0
  2 19  2  0  0  0  0
  2 13  1  0  0  0  0
  4 20  1  0  0  0  0
  5  1  1  0  0  0  0
  7 15  1  6  0  0  0
  7  9  1  0  0  0  0
  8  6  1  6  0  0  0
  8 11  1  0  0  0  0
  8 12  1  0  0  0  0
  9 14  1  6  0  0  0
  9 22  1  0  0  0  0
 10  3  1  0  0  0  0
 10 21  1  6  0  0  0
 11 28  1  6  0  0  0
 11  5  1  0  0  0  0
 12 27  1  6  0  0  0
 12  4  1  0  0  0  0
 13 18  2  0  0  0  0
 15 23  1  0  0  0  0
 16  2  1  0  0  0  0
 17  3  1  0  0  0  0
 18 25  1  0  0  0  0
 19 26  1  0  0  0  0
 20 17  2  0  0  0  0
 22 20  1  6  0  0  0
 22 10  1  0  0  0  0
 23 14  1  0  0  0  0
 24 27  2  0  0  0  0
 26 17  1  0  0  0  0
 26 25  2  0  0  0  0
 27  7  1  0  0  0  0
 29 30  1  0  0  0  0
 30 28  1  0  0  0  0
M  END
>  <MODEL>
5

>  <REMARK>
 VINA RESULT:      -6.0      2.558      4.547
  Name = 
  2 active torsions:
  status: ('A' for Active; 'I' for Inactive)
    1  A    between atoms: C_11  and  C_28
    2  A    between atoms: C_28  and  N_30
                            x       y       z     vdW  Elec       q    Type
                         _______ _______ _______ _____ _____    ______ ____

>  <TORSDO>
F 2

$$$$
=
 OpenBabel11122412413D

 30 35  0  0  1  0  0  0  0  0999 V2000
  161.2750  208.9750  152.1300 C   0  0  0  0  0  0  0  0  0  0  0  0
  160.8450  211.4380  151.8350 C   0  0  0  0  0  0  0  0  0  0  0  0
  162.3300  208.5860  148.0870 N   0  0  0  0  0  2  0  0  0  0  0  0
  161.6370  207.7320  151.5520 C   0  0  0  0  0  0  0  0  0  0  0  0
  160.9320  209.0090  153.5210 N   0  0  0  0  0  2  0  0  0  0  0  0
  161.1700  205.4930  154.5270 O   0  0  0  0  0  1  0  0  0  0  0  0
  160.6090  205.1490  150.5160 C   0  0  1  0  0  3  0  0  0  0  0  0
  160.8830  206.5670  153.6800 C   0  0  1  0  0  3  0  0  0  0  0  0
  161.2420  205.5210  149.2390 N   0  0  2  0  0  0  0  0  0  0  0  0
  162.6810  207.1760  147.9700 C   0  0  2  0  0  3  0  0  0  0  0  0
  161.1430  207.8780  154.4170 C   0  0  2  0  0  3  0  0  0  0  0  0
  161.7730  206.4980  152.4320 C   0  0  1  0  0  3  0  0  0  0  0  0
  160.8310  212.5510  150.9880 C   0  0  0  0  0  3  0  0  0  0  0  0
  161.7750  204.2650  148.7250 C   0  0  0  0  0  2  0  0  0  0  0  0
  160.0530  203.7490  150.3300 C   0  0  0  0  0  2  0  0  0  0  0  0
  160.4560  211.6890  153.2530 C   0  0  0  0  0  1  0  0  0  0  0  0
  161.9300  208.8270  149.4210 C   0  0  0  0  0  0  0  0  0  0  0  0
  161.1780  212.4340  149.6450 C   0  0  0  0  0  3  0  0  0  0  0  0
  161.2180  210.1600  151.3280 C   0  0  0  0  0  0  0  0  0  0  0  0
  161.9480  207.6960  150.1830 C   0  0  0  0  0  0  0  0  0  0  0  0
  161.9810  206.5800  146.7560 C   0  0  0  0  0  1  0  0  0  0  0  0
  162.3400  206.5100  149.3450 C   0  0  1  0  0  3  0  0  0  0  0  0
  160.8310  203.1660  149.1710 C   0  0  0  0  0  2  0  0  0  0  0  0
  162.2210  204.2240  152.0110 O   0  0  0  0  0  0  0  0  0  0  0  0
  161.5450  211.1970  149.1270 C   0  0  0  0  0  3  0  0  0  0  0  0
  161.5670  210.0650  149.9490 C   0  0  0  0  0  0  0  0  0  0  0  0
  161.5640  205.2050  151.6920 C   0  0  0  0  0  0  0  0  0  0  0  0
  160.2210  208.0070  155.6190 C   0  0  0  0  0  2  0  0  0  0  0  0
  160.1180  209.8370  157.0560 C   0  0  0  0  0  1  0  0  0  0  0  0
  159.7440  209.3730  155.7330 N   0  0  0  0  0  2  0  0  0  0  0  0
  1  5  1  0  0  0  0
  2 16  1  0  0  0  0
  3 17  1  0  0  0  0
  4  1  1  0  0  0  0
  5 11  1  0  0  0  0
  7 15  1  6  0  0  0
  7 27  1  0  0  0  0
  8 11  1  0  0  0  0
  8  6  1  1  0  0  0
  9 14  1  1  0  0  0
  9 22  1  0  0  0  0
  9  7  1  0  0  0  0
 10 21  1  6  0  0  0
 10  3  1  0  0  0  0
 10 22  1  0  0  0  0
 11 28  1  1  0  0  0
 12  4  1  6  0  0  0
 12  8  1  0  0  0  0
 13  2  2  0  0  0  0
 14 23  1  0  0  0  0
 17 26  2  0  0  0  0
 17 20  1  0  0  0  0
 18 13  1  0  0  0  0
 19  2  1  0  0  0  0
 19  1  2  0  0  0  0
 20  4  2  0  0  0  0
 22 20  1  1  0  0  0
 23 15  1  0  0  0  0
 25 18  2  0  0  0  0
 25 26  1  0  0  0  0
 26 19  1  0  0  0  0
 27 24  2  0  0  0  0
 27 12  1  0  0  0  0
 28 30  1  0  0  0  0
 30 29  1  0  0  0  0
M  END
>  <MODEL>
6

>  <REMARK>
 VINA RESULT:      -6.0      2.173      7.266
  Name = 
  2 active torsions:
  status: ('A' for Active; 'I' for Inactive)
    1  A    between atoms: C_11  and  C_28
    2  A    between atoms: C_28  and  N_30
                            x       y       z     vdW  Elec       q    Type
                         _______ _______ _______ _____ _____    ______ ____

>  <TORSDO>
F 2

$$$$
=
 OpenBabel11122412413D

 30 35  0  0  1  0  0  0  0  0999 V2000
  161.0240  210.4810  151.4680 C   0  0  0  0  0  0  0  0  0  0  0  0
  161.9360  208.6130  150.0470 C   0  0  0  0  0  0  0  0  0  0  0  0
  161.1520  208.0570  154.8900 N   0  0  0  0  0  2  0  0  0  0  0  0
  160.5860  210.9320  152.7390 C   0  0  0  0  0  0  0  0  0  0  0  0
  160.9420  211.3830  150.3570 N   0  0  0  0  0  2  0  0  0  0  0  0
  159.4060  214.3720  151.8160 O   0  0  0  0  0  1  0  0  0  0  0  0
  158.2120  211.4950  154.4270 C   0  0  1  0  0  3  0  0  0  0  0  0
  159.6240  213.0040  151.6290 C   0  0  1  0  0  3  0  0  0  0  0  0
  158.7670  210.5050  155.3660 N   0  0  2  0  0  0  0  0  0  0  0  0
  160.6780  208.9470  155.9450 C   0  0  2  0  0  3  0  0  0  0  0  0
  160.6370  212.8010  150.5080 C   0  0  2  0  0  3  0  0  0  0  0  0
  160.1620  212.3820  152.9240 C   0  0  1  0  0  3  0  0  0  0  0  0
  162.4010  207.2970  149.9670 C   0  0  0  0  0  3  0  0  0  0  0  0
  158.4740  211.0580  156.6820 C   0  0  0  0  0  2  0  0  0  0  0  0
  156.9770  212.0750  155.0910 C   0  0  0  0  0  2  0  0  0  0  0  0
  161.9350  209.3870  148.7720 C   0  0  0  0  0  1  0  0  0  0  0  0
  161.1260  208.7720  153.6720 C   0  0  0  0  0  0  0  0  0  0  0  0
  162.4480  206.4830  151.0960 C   0  0  0  0  0  3  0  0  0  0  0  0
  161.4980  209.1420  151.2960 C   0  0  0  0  0  0  0  0  0  0  0  0
  160.6420  210.0390  153.8210 C   0  0  0  0  0  0  0  0  0  0  0  0
  159.6130  208.2340  156.7660 C   0  0  0  0  0  1  0  0  0  0  0  0
  160.2250  210.2720  155.2480 C   0  0  1  0  0  3  0  0  0  0  0  0
  157.1610  211.8060  156.5690 C   0  0  0  0  0  2  0  0  0  0  0  0
  159.2690  213.6120  154.7230 O   0  0  0  0  0  0  0  0  0  0  0  0
  162.0260  206.9760  152.3250 C   0  0  0  0  0  3  0  0  0  0  0  0
  161.5530  208.2880  152.4370 C   0  0  0  0  0  0  0  0  0  0  0  0
  159.1990  212.5870  154.0610 C   0  0  0  0  0  0  0  0  0  0  0  0
  160.0980  213.3440  149.1940 C   0  0  0  0  0  2  0  0  0  0  0  0
  160.1310  212.5490  147.0060 C   0  0  0  0  0  1  0  0  0  0  0  0
  160.9810  212.9700  148.1040 N   0  0  0  0  0  2  0  0  0  0  0  0
  1  4  1  0  0  0  0
  2 19  1  0  0  0  0
  3 10  1  0  0  0  0
  4 20  2  0  0  0  0
  5 11  1  0  0  0  0
  5  1  1  0  0  0  0
  7 15  1  1  0  0  0
  7  9  1  0  0  0  0
  8  6  1  1  0  0  0
  8 12  1  0  0  0  0
  9 14  1  1  0  0  0
 10 21  1  6  0  0  0
 11 28  1  6  0  0  0
 11  8  1  0  0  0  0
 12  4  1  6  0  0  0
 12 27  1  0  0  0  0
 13  2  2  0  0  0  0
 13 18  1  0  0  0  0
 15 23  1  0  0  0  0
 16  2  1  0  0  0  0
 17 20  1  0  0  0  0
 17  3  1  0  0  0  0
 18 25  2  0  0  0  0
 19  1  2  0  0  0  0
 19 26  1  0  0  0  0
 22 20  1  6  0  0  0
 22  9  1  0  0  0  0
 22 10  1  0  0  0  0
 23 14  1  0  0  0  0
 25 26  1  0  0  0  0
 26 17  2  0  0  0  0
 27  7  1  0  0  0  0
 27 24  2  0  0  0  0
 29 30  1  0  0  0  0
 30 28  1  0  0  0  0
M  END
>  <MODEL>
7

>  <REMARK>
 VINA RESULT:      -5.8      3.268      4.869
  Name = 
  2 active torsions:
  status: ('A' for Active; 'I' for Inactive)
    1  A    between atoms: C_11  and  C_28
    2  A    between atoms: C_28  and  N_30
                            x       y       z     vdW  Elec       q    Type
                         _______ _______ _______ _____ _____    ______ ____

>  <TORSDO>
F 2

$$$$
=
 OpenBabel11122412413D

 30 35  0  0  1  0  0  0  0  0999 V2000
  161.0910  210.3550  150.9130 C   0  0  0  0  0  0  0  0  0  0  0  0
  161.3580  212.2710  149.3000 C   0  0  0  0  0  0  0  0  0  0  0  0
  159.0820  212.8230  153.6470 N   0  0  0  0  0  2  0  0  0  0  0  0
  160.6360  209.8870  152.1720 C   0  0  0  0  0  0  0  0  0  0  0  0
  161.7670  209.4370  150.0450 N   0  0  0  0  0  2  0  0  0  0  0  0
  161.8950  206.3550  152.0230 O   0  0  0  0  0  1  0  0  0  0  0  0
  161.4570  209.1630  154.9290 C   0  0  1  0  0  3  0  0  0  0  0  0
  161.9290  207.7340  151.7940 C   0  0  1  0  0  3  0  0  0  0  0  0
  160.5160  210.2050  155.3780 N   0  0  2  0  0  0  0  0  0  0  0  0
  158.7570  211.9130  154.7390 C   0  0  2  0  0  3  0  0  0  0  0  0
  161.8200  208.0010  150.2960 C   0  0  2  0  0  3  0  0  0  0  0  0
  160.7610  208.4110  152.5220 C   0  0  1  0  0  3  0  0  0  0  0  0
  161.1280  213.6180  149.0040 C   0  0  0  0  0  3  0  0  0  0  0  0
  159.9120  209.6470  156.5810 C   0  0  0  0  0  2  0  0  0  0  0  0
  161.9930  208.4980  156.1830 C   0  0  0  0  0  2  0  0  0  0  0  0
  162.0780  211.4840  148.2570 C   0  0  0  0  0  1  0  0  0  0  0  0
  159.7920  212.0940  152.6670 C   0  0  0  0  0  0  0  0  0  0  0  0
  160.4630  214.4470  149.9040 C   0  0  0  0  0  3  0  0  0  0  0  0
  160.9120  211.7250  150.5390 C   0  0  0  0  0  0  0  0  0  0  0  0
  159.9980  210.7960  153.0320 C   0  0  0  0  0  0  0  0  0  0  0  0
  159.1540  212.5510  156.0640 C   0  0  0  0  0  1  0  0  0  0  0  0
  159.4480  210.5480  154.4100 C   0  0  1  0  0  3  0  0  0  0  0  0
  160.9700  208.7980  157.2580 C   0  0  0  0  0  2  0  0  0  0  0  0
  160.2940  207.1380  154.4470 O   0  0  0  0  0  0  0  0  0  0  0  0
  160.0180  213.9370  151.1180 C   0  0  0  0  0  3  0  0  0  0  0  0
  160.2360  212.5950  151.4450 C   0  0  0  0  0  0  0  0  0  0  0  0
  160.8210  208.1470  154.0010 C   0  0  0  0  0  0  0  0  0  0  0  0
  163.0050  207.4020  149.5580 C   0  0  0  0  0  2  0  0  0  0  0  0
  161.5970  206.3740  148.0140 C   0  0  0  0  0  1  0  0  0  0  0  0
  162.7060  207.3000  148.1410 N   0  0  0  0  0  2  0  0  0  0  0  0
  1  4  1  0  0  0  0
  2 19  1  0  0  0  0
  3 10  1  0  0  0  0
  4 20  2  0  0  0  0
  5 11  1  0  0  0  0
  5  1  1  0  0  0  0
  7  9  1  0  0  0  0
  7 15  1  1  0  0  0
  8  6  1  6  0  0  0
  8 12  1  0  0  0  0
  9 14  1  1  0  0  0
 10 21  1  1  0  0  0
 11 28  1  6  0  0  0
 11  8  1  0  0  0  0
 12  4  1  1  0  0  0
 12 27  1  0  0  0  0
 13  2  2  0  0  0  0
 13 18  1  0  0  0  0
 14 23  1  0  0  0  0
 15 23  1  0  0  0  0
 16  2  1  0  0  0  0
 17 20  1  0  0  0  0
 17  3  1  0  0  0  0
 18 25  2  0  0  0  0
 19  1  2  0  0  0  0
 19 26  1  0  0  0  0
 22 20  1  6  0  0  0
 22 10  1  0  0  0  0
 22  9  1  0  0  0  0
 25 26  1  0  0  0  0
 26 17  2  0  0  0  0
 27 24  2  0  0  0  0
 27  7  1  0  0  0  0
 29 30  1  0  0  0  0
 30 28  1  0  0  0  0
M  END
>  <MODEL>
8

>  <REMARK>
 VINA RESULT:      -5.6      2.871      6.034
  Name = 
  2 active torsions:
  status: ('A' for Active; 'I' for Inactive)
    1  A    between atoms: C_11  and  C_28
    2  A    between atoms: C_28  and  N_30
                            x       y       z     vdW  Elec       q    Type
                         _______ _______ _______ _____ _____    ______ ____

>  <TORSDO>
F 2

$$$$
=
 OpenBabel11122412413D

 30 35  0  0  1  0  0  0  0  0999 V2000
  161.3190  208.1300  151.2590 C   0  0  0  0  0  0  0  0  0  0  0  0
  161.5320  208.5290  153.7360 C   0  0  0  0  0  0  0  0  0  0  0  0
  160.4760  204.0700  151.8980 N   0  0  0  0  0  2  0  0  0  0  0  0
  161.0990  207.2200  150.1940 C   0  0  0  0  0  0  0  0  0  0  0  0
  161.5990  209.4990  150.9420 N   0  0  0  0  0  2  0  0  0  0  0  0
  161.6460  209.5170  147.2780 O   0  0  0  0  0  1  0  0  0  0  0  0
  162.4050  205.6040  148.0770 C   0  0  1  0  0  3  0  0  0  0  0  0
  161.8670  209.0060  148.5600 C   0  0  1  0  0  3  0  0  0  0  0  0
  161.7940  204.4330  148.7300 N   0  0  2  0  0  0  0  0  0  0  0  0
  160.2630  203.5590  150.5490 C   0  0  2  0  0  3  0  0  0  0  0  0
  161.4570  210.0460  149.5980 C   0  0  2  0  0  3  0  0  0  0  0  0
  161.0410  207.7290  148.7610 C   0  0  1  0  0  3  0  0  0  0  0  0
  161.4790  208.0110  155.0340 C   0  0  0  0  0  3  0  0  0  0  0  0
  161.4020  203.5700  147.6220 C   0  0  0  0  0  2  0  0  0  0  0  0
  163.0950  205.0900  146.8270 C   0  0  0  0  0  2  0  0  0  0  0  0
  161.8360  209.9850  153.6230 C   0  0  0  0  0  1  0  0  0  0  0  0
  160.7960  205.4420  151.7990 C   0  0  0  0  0  0  0  0  0  0  0  0
  161.2000  206.6660  155.2580 C   0  0  0  0  0  3  0  0  0  0  0  0
  161.3000  207.6780  152.6170 C   0  0  0  0  0  0  0  0  0  0  0  0
  160.8510  205.8730  150.5060 C   0  0  0  0  0  0  0  0  0  0  0  0
  161.0650  202.2790  150.3600 C   0  0  0  0  0  1  0  0  0  0  0  0
  160.6060  204.7260  149.5640 C   0  0  1  0  0  3  0  0  0  0  0  0
  162.4230  203.7690  146.5200 C   0  0  0  0  0  2  0  0  0  0  0  0
  160.8230  206.6900  146.6590 O   0  0  0  0  0  0  0  0  0  0  0  0
  160.9710  205.8150  154.1820 C   0  0  0  0  0  3  0  0  0  0  0  0
  161.0200  206.3030  152.8720 C   0  0  0  0  0  0  0  0  0  0  0  0
  161.4000  206.6880  147.7370 C   0  0  0  0  0  0  0  0  0  0  0  0
  162.3110  211.2970  149.4680 C   0  0  0  0  0  2  0  0  0  0  0  0
  162.2670  213.0000  147.8800 C   0  0  0  0  0  1  0  0  0  0  0  0
  161.5090  212.3950  148.9590 N   0  0  0  0  0  2  0  0  0  0  0  0
  1 19  1  0  0  0  0
  2 13  1  0  0  0  0
  4 20  1  0  0  0  0
  4  1  2  0  0  0  0
  5  1  1  0  0  0  0
  7 15  1  6  0  0  0
  7  9  1  0  0  0  0
  8  6  1  6  0  0  0
  8 12  1  0  0  0  0
  8 11  1  0  0  0  0
  9 14  1  6  0  0  0
  9 22  1  0  0  0  0
 10 21  1  6  0  0  0
 10  3  1  0  0  0  0
 11 28  1  1  0  0  0
 11  5  1  0  0  0  0
 12 27  1  6  0  0  0
 12  4  1  0  0  0  0
 13 18  2  0  0  0  0
 16  2  1  0  0  0  0
 17  3  1  0  0  0  0
 17 26  1  0  0  0  0
 19 26  1  0  0  0  0
 19  2  2  0  0  0  0
 20 17  2  0  0  0  0
 22 20  1  1  0  0  0
 22 10  1  0  0  0  0
 23 15  1  0  0  0  0
 23 14  1  0  0  0  0
 24 27  2  0  0  0  0
 25 18  1  0  0  0  0
 26 25  2  0  0  0  0
 27  7  1  0  0  0  0
 29 30  1  0  0  0  0
 30 28  1  0  0  0  0
M  END
>  <MODEL>
9

>  <REMARK>
 VINA RESULT:      -5.5      2.105      5.564
  Name = 
  2 active torsions:
  status: ('A' for Active; 'I' for Inactive)
    1  A    between atoms: C_11  and  C_28
    2  A    between atoms: C_28  and  N_30
                            x       y       z     vdW  Elec       q    Type
                         _______ _______ _______ _____ _____    ______ ____

>  <TORSDO>
F 2

$$$$
