=
 OpenBabel11122413343D

 37 43  0  0  1  0  0  0  0  0999 V2000
  160.7690  208.9600  152.0880 C   0  0  0  0  0  2  0  0  0  0  0  0
  159.3970  212.0230  155.8890 C   0  0  0  0  0  0  0  0  0  0  0  0
  158.8060  212.5700  151.7710 C   0  0  0  0  0  0  0  0  0  0  0  0
  161.6260  207.7340  151.7710 C   0  0  2  0  0  3  0  0  0  0  0  0
  161.8780  212.3990  149.9850 O   0  0  0  0  0  0  0  0  0  0  0  0
  158.1140  213.1640  153.9950 C   0  0  0  0  0  0  0  0  0  0  0  0
  159.8570  211.6890  151.1520 C   0  0  1  0  0  3  0  0  0  0  0  0
  162.0030  209.0190  149.5250 C   0  0  2  0  0  3  0  0  0  0  0  0
  158.9270  212.4590  153.1240 C   0  0  0  0  0  0  0  0  0  0  0  0
  160.5170  212.1070  149.8270 C   0  0  1  0  0  3  0  0  0  0  0  0
  157.1480  213.9700  153.4720 N   0  0  0  0  0  0  0  0  0  0  0  0
  162.1870  207.7260  150.3380 C   0  0  0  0  0  2  0  0  0  0  0  0
  160.0470  211.7110  153.5320 N   0  0  0  0  0  0  0  0  0  0  0  0
  158.6310  210.7160  156.0130 C   0  0  0  0  0  1  0  0  0  0  0  0
  157.7250  213.7300  149.7550 C   0  0  0  0  0  2  0  0  0  0  0  0
  156.9820  214.0980  152.1180 C   0  0  0  0  0  3  0  0  0  0  0  0
  160.5620  211.8490  154.8910 C   0  0  0  0  0  2  0  0  0  0  0  0
  162.7760  210.1650  150.0380 N   0  0  1  0  0  0  0  0  0  0  0  0
  162.5590  211.4020  149.2650 C   0  0  0  0  0  2  0  0  0  0  0  0
  157.8120  213.3990  151.2190 C   0  0  0  0  0  0  0  0  0  0  0  0
  160.8470  211.5120  152.3300 C   0  0  1  0  0  3  0  0  0  0  0  0
  158.4270  213.1540  155.4680 C   0  0  0  0  0  2  0  0  0  0  0  0
  159.7600  213.1720  149.0320 C   0  0  2  0  0  3  0  0  0  0  0  0
  159.9730  212.3650  157.2460 C   0  0  0  0  0  1  0  0  0  0  0  0
  162.9220  210.3220  151.4980 C   0  0  0  0  0  2  0  0  0  0  0  0
  160.6630  209.3150  149.3350 F   0  0  0  0  0  0  0  0  0  0  0  0
  161.6290  210.2040  152.3290 C   0  0  2  0  0  3  0  0  0  0  0  0
  158.4090  212.8080  148.9540 O   0  0  0  0  0  0  0  0  0  0  0  0
  161.2950  214.3090  147.3810 C   0  0  0  0  0  3  0  0  0  0  0  0
  160.3290  213.3290  147.6560 C   0  0  0  0  0  0  0  0  0  0  0  0
  159.8690  212.5020  146.6260 C   0  0  0  0  0  3  0  0  0  0  0  0
  159.9270  211.8420  144.3360 F   0  0  0  0  0  0  0  0  0  0  0  0
  161.3390  213.6210  145.0600 C   0  0  0  0  0  3  0  0  0  0  0  0
  160.3740  212.6460  145.3300 C   0  0  0  0  0  0  0  0  0  0  0  0
  161.7980  214.4530  146.0850 C   0  0  0  0  0  3  0  0  0  0  0  0
  161.1480  205.8920  153.2890 N   0  0  0  0  0  1  0  0  0  0  0  0
  160.8250  206.4650  151.9950 C   0  0  0  0  0  2  0  0  0  0  0  0
  1 27  1  0  0  0  0
  2 14  1  0  0  0  0
  2 24  1  0  0  0  0
  3  9  1  0  0  0  0
  4 37  1  6  0  0  0
  4  1  1  0  0  0  0
  6 22  1  0  0  0  0
  7  3  1  1  0  0  0
  7 21  1  0  0  0  0
  8 26  1  1  0  0  0
  8 18  1  0  0  0  0
  8 12  1  0  0  0  0
  9 13  1  0  0  0  0
  9  6  2  0  0  0  0
 10  5  1  1  0  0  0
 10  7  1  0  0  0  0
 11  6  1  0  0  0  0
 12  4  1  0  0  0  0
 13 17  1  0  0  0  0
 15 20  1  0  0  0  0
 16 11  2  0  0  0  0
 17  2  1  0  0  0  0
 18 19  1  1  0  0  0
 18 25  1  0  0  0  0
 19  5  1  0  0  0  0
 20  3  2  0  0  0  0
 20 16  1  0  0  0  0
 21 13  1  1  0  0  0
 22  2  1  0  0  0  0
 23 30  1  6  0  0  0
 23 10  1  0  0  0  0
 27 25  1  6  0  0  0
 27 21  1  0  0  0  0
 28 23  1  0  0  0  0
 28 15  1  0  0  0  0
 29 30  1  0  0  0  0
 31 30  2  0  0  0  0
 32 34  1  0  0  0  0
 33 34  2  0  0  0  0
 33 35  1  0  0  0  0
 34 31  1  0  0  0  0
 35 29  2  0  0  0  0
 37 36  1  0  0  0  0
M  END
>  <MODEL>
1

>  <REMARK>
 VINA RESULT:      -2.3      0.000      0.000
  Name = 
  2 active torsions:
  status: ('A' for Active; 'I' for Inactive)
    1  A    between atoms: C_4  and  C_37
    2  A    between atoms: C_23  and  C_30
                            x       y       z     vdW  Elec       q    Type
                         _______ _______ _______ _____ _____    ______ ____

>  <TORSDO>
F 2

$$$$
=
 OpenBabel11122413343D

 37 43  0  0  1  0  0  0  0  0999 V2000
  160.7260  207.0020  151.1800 C   0  0  0  0  0  2  0  0  0  0  0  0
  160.7810  208.4540  156.0380 C   0  0  0  0  0  0  0  0  0  0  0  0
  159.9220  210.7690  152.6450 C   0  0  0  0  0  0  0  0  0  0  0  0
  161.1310  205.8530  150.2550 C   0  0  2  0  0  3  0  0  0  0  0  0
  162.5760  210.6410  150.2800 O   0  0  0  0  0  0  0  0  0  0  0  0
  159.6970  210.5370  155.0280 C   0  0  0  0  0  0  0  0  0  0  0  0
  160.5800  210.0040  151.5300 C   0  0  1  0  0  3  0  0  0  0  0  0
  161.6210  207.8220  148.6080 C   0  0  2  0  0  3  0  0  0  0  0  0
  160.1550  210.0860  153.8020 C   0  0  0  0  0  0  0  0  0  0  0  0
  161.1820  210.7640  150.3360 C   0  0  1  0  0  3  0  0  0  0  0  0
  158.9660  211.6870  155.0630 N   0  0  0  0  0  0  0  0  0  0  0  0
  161.4980  206.3050  148.8310 C   0  0  0  0  0  2  0  0  0  0  0  0
  161.0360  208.9990  153.6470 N   0  0  0  0  0  0  0  0  0  0  0  0
  159.6760  207.4290  155.8460 C   0  0  0  0  0  1  0  0  0  0  0  0
  159.0200  212.8720  151.4860 C   0  0  0  0  0  2  0  0  0  0  0  0
  158.6950  212.3960  153.9230 C   0  0  0  0  0  3  0  0  0  0  0  0
  161.7180  208.4410  154.8110 C   0  0  0  0  0  2  0  0  0  0  0  0
  162.7570  208.4420  149.3150 N   0  0  1  0  0  0  0  0  0  0  0  0
  162.8380  209.9000  149.1140 C   0  0  0  0  0  2  0  0  0  0  0  0
  159.1680  211.9570  152.6700 C   0  0  0  0  0  0  0  0  0  0  0  0
  161.5970  209.1330  152.3090 C   0  0  1  0  0  3  0  0  0  0  0  0
  160.1560  209.8490  156.2850 C   0  0  0  0  0  2  0  0  0  0  0  0
  160.6970  212.2060  150.1730 C   0  0  2  0  0  3  0  0  0  0  0  0
  161.5830  208.0640  157.2600 C   0  0  0  0  0  1  0  0  0  0  0  0
  163.1080  207.9460  150.6600 C   0  0  0  0  0  2  0  0  0  0  0  0
  160.4210  208.4720  148.8430 F   0  0  0  0  0  0  0  0  0  0  0  0
  161.9420  207.7990  151.6580 C   0  0  2  0  0  3  0  0  0  0  0  0
  159.2990  212.2300  150.2730 O   0  0  0  0  0  0  0  0  0  0  0  0
  162.0140  213.8640  148.7990 C   0  0  0  0  0  3  0  0  0  0  0  0
  161.1270  212.7790  148.8590 C   0  0  0  0  0  0  0  0  0  0  0  0
  160.6140  212.2380  147.6750 C   0  0  0  0  0  3  0  0  0  0  0  0
  160.4910  212.2440  145.2950 F   0  0  0  0  0  0  0  0  0  0  0  0
  161.8760  213.8510  146.3820 C   0  0  0  0  0  3  0  0  0  0  0  0
  160.9880  212.7720  146.4380 C   0  0  0  0  0  0  0  0  0  0  0  0
  162.3880  214.3970  147.5630 C   0  0  0  0  0  3  0  0  0  0  0  0
  160.4260  203.5910  150.8170 N   0  0  0  0  0  1  0  0  0  0  0  0
  160.0140  204.8280  150.1760 C   0  0  0  0  0  2  0  0  0  0  0  0
  1 27  1  0  0  0  0
  2 22  1  0  0  0  0
  2 24  1  0  0  0  0
  3 20  2  0  0  0  0
  3  9  1  0  0  0  0
  4 37  1  6  0  0  0
  4  1  1  0  0  0  0
  6 11  1  0  0  0  0
  6 22  1  0  0  0  0
  7 21  1  0  0  0  0
  7  3  1  1  0  0  0
  8 12  1  0  0  0  0
  8 26  1  1  0  0  0
  8 18  1  0  0  0  0
  9  6  2  0  0  0  0
 10  5  1  1  0  0  0
 10  7  1  0  0  0  0
 12  4  1  0  0  0  0
 13  9  1  0  0  0  0
 13 17  1  0  0  0  0
 14  2  1  0  0  0  0
 15 20  1  0  0  0  0
 16 11  2  0  0  0  0
 17  2  1  0  0  0  0
 18 19  1  1  0  0  0
 18 25  1  0  0  0  0
 19  5  1  0  0  0  0
 20 16  1  0  0  0  0
 21 13  1  1  0  0  0
 23 30  1  6  0  0  0
 23 28  1  0  0  0  0
 23 10  1  0  0  0  0
 27 25  1  6  0  0  0
 27 21  1  0  0  0  0
 28 15  1  0  0  0  0
 29 30  1  0  0  0  0
 31 30  2  0  0  0  0
 32 34  1  0  0  0  0
 33 34  2  0  0  0  0
 33 35  1  0  0  0  0
 34 31  1  0  0  0  0
 35 29  2  0  0  0  0
 37 36  1  0  0  0  0
M  END
>  <MODEL>
2

>  <REMARK>
 VINA RESULT:      -2.2      1.882      2.498
  Name = 
  2 active torsions:
  status: ('A' for Active; 'I' for Inactive)
    1  A    between atoms: C_4  and  C_37
    2  A    between atoms: C_23  and  C_30
                            x       y       z     vdW  Elec       q    Type
                         _______ _______ _______ _____ _____    ______ ____

>  <TORSDO>
F 2

$$$$
=
 OpenBabel11122413343D

 37 43  0  0  1  0  0  0  0  0999 V2000
  161.0400  207.7570  151.6920 C   0  0  0  0  0  2  0  0  0  0  0  0
  161.6100  210.1340  156.1350 C   0  0  0  0  0  0  0  0  0  0  0  0
  160.0050  211.6490  152.5660 C   0  0  0  0  0  0  0  0  0  0  0  0
  161.4450  206.4910  150.9370 C   0  0  2  0  0  3  0  0  0  0  0  0
  162.2920  211.3010  149.8640 O   0  0  0  0  0  0  0  0  0  0  0  0
  160.1510  211.8710  154.9560 C   0  0  0  0  0  0  0  0  0  0  0  0
  160.5860  210.7430  151.5160 C   0  0  1  0  0  3  0  0  0  0  0  0
  161.4560  208.1340  148.9040 C   0  0  2  0  0  3  0  0  0  0  0  0
  160.4820  211.2310  153.7730 C   0  0  0  0  0  0  0  0  0  0  0  0
  160.9160  211.3060  150.1220 C   0  0  1  0  0  3  0  0  0  0  0  0
  159.3000  212.9330  154.9020 N   0  0  0  0  0  0  0  0  0  0  0  0
  161.5480  206.6860  149.4140 C   0  0  0  0  0  2  0  0  0  0  0  0
  161.4560  210.2190  153.6770 N   0  0  0  0  0  0  0  0  0  0  0  0
  160.6200  208.9950  156.3130 C   0  0  0  0  0  1  0  0  0  0  0  0
  158.7020  213.3920  151.2090 C   0  0  0  0  0  2  0  0  0  0  0  0
  158.7860  213.3770  153.7120 C   0  0  0  0  0  3  0  0  0  0  0  0
  162.3590  209.9660  154.7950 C   0  0  0  0  0  2  0  0  0  0  0  0
  162.5980  208.9820  149.2940 N   0  0  1  0  0  0  0  0  0  0  0  0
  162.4740  210.3730  148.8230 C   0  0  0  0  0  2  0  0  0  0  0  0
  159.1250  212.7450  152.4990 C   0  0  0  0  0  0  0  0  0  0  0  0
  161.8000  210.1380  152.2630 C   0  0  1  0  0  3  0  0  0  0  0  0
  160.8640  211.4880  156.2250 C   0  0  0  0  0  2  0  0  0  0  0  0
  160.2430  212.6370  149.7840 C   0  0  2  0  0  3  0  0  0  0  0  0
  162.6190  210.0660  157.2610 C   0  0  0  0  0  1  0  0  0  0  0  0
  163.1930  208.7930  150.6310 C   0  0  0  0  0  2  0  0  0  0  0  0
  160.2320  208.7050  149.2100 F   0  0  0  0  0  0  0  0  0  0  0  0
  162.2070  208.7400  151.8150 C   0  0  2  0  0  3  0  0  0  0  0  0
  158.8810  212.5530  150.1030 O   0  0  0  0  0  0  0  0  0  0  0  0
  159.4010  212.6900  147.4040 C   0  0  0  0  0  3  0  0  0  0  0  0
  160.4100  212.9770  148.3350 C   0  0  0  0  0  0  0  0  0  0  0  0
  161.6040  213.5670  147.9030 C   0  0  0  0  0  3  0  0  0  0  0  0
  162.9420  214.4460  146.1380 F   0  0  0  0  0  0  0  0  0  0  0  0
  160.7780  213.5890  145.6270 C   0  0  0  0  0  3  0  0  0  0  0  0
  161.7870  213.8740  146.5520 C   0  0  0  0  0  0  0  0  0  0  0  0
  159.5850  212.9970  146.0530 C   0  0  0  0  0  3  0  0  0  0  0  0
  160.9950  204.4870  152.2450 N   0  0  0  0  0  1  0  0  0  0  0  0
  160.4600  205.3730  151.2260 C   0  0  0  0  0  2  0  0  0  0  0  0
  1 27  1  0  0  0  0
  2 22  1  0  0  0  0
  2 14  1  0  0  0  0
  2 24  1  0  0  0  0
  3  9  1  0  0  0  0
  4 37  1  6  0  0  0
  4  1  1  0  0  0  0
  6 22  1  0  0  0  0
  7 21  1  0  0  0  0
  7  3  1  1  0  0  0
  8 26  1  1  0  0  0
  8 18  1  0  0  0  0
  8 12  1  0  0  0  0
  9  6  2  0  0  0  0
 10  5  1  1  0  0  0
 10  7  1  0  0  0  0
 11  6  1  0  0  0  0
 12  4  1  0  0  0  0
 13  9  1  0  0  0  0
 13 17  1  0  0  0  0
 15 20  1  0  0  0  0
 16 11  2  0  0  0  0
 17  2  1  0  0  0  0
 18 19  1  1  0  0  0
 18 25  1  0  0  0  0
 19  5  1  0  0  0  0
 20  3  2  0  0  0  0
 20 16  1  0  0  0  0
 21 13  1  1  0  0  0
 23 30  1  6  0  0  0
 23 28  1  0  0  0  0
 23 10  1  0  0  0  0
 27 25  1  6  0  0  0
 27 21  1  0  0  0  0
 28 15  1  0  0  0  0
 29 30  1  0  0  0  0
 31 30  2  0  0  0  0
 32 34  1  0  0  0  0
 33 35  1  0  0  0  0
 33 34  2  0  0  0  0
 34 31  1  0  0  0  0
 35 29  2  0  0  0  0
 37 36  1  0  0  0  0
M  END
>  <MODEL>
3

>  <REMARK>
 VINA RESULT:      -0.7      1.587      2.075
  Name = 
  2 active torsions:
  status: ('A' for Active; 'I' for Inactive)
    1  A    between atoms: C_4  and  C_37
    2  A    between atoms: C_23  and  C_30
                            x       y       z     vdW  Elec       q    Type
                         _______ _______ _______ _____ _____    ______ ____

>  <TORSDO>
F 2

$$$$
