=
 OpenBabel11122413413D

 37 43  0  0  1  0  0  0  0  0999 V2000
  158.7110  212.1640  155.4010 C   0  0  0  0  0  2  0  0  0  0  0  0
  161.1060  207.9440  154.2450 C   0  0  1  0  0  0  0  0  0  0  0  0
  160.1350  211.3790  151.9860 C   0  0  1  0  0  3  0  0  0  0  0  0
  158.3870  212.4350  156.8720 C   0  0  2  0  0  3  0  0  0  0  0  0
  156.8240  213.2660  152.7070 C   0  0  0  0  0  2  0  0  0  0  0  0
  161.7460  209.4190  152.2690 C   0  0  1  0  0  3  0  0  0  0  0  0
  158.6480  211.5480  152.2310 C   0  0  2  0  0  3  0  0  0  0  0  0
  155.8850  212.9710  156.3930 C   0  0  2  0  0  3  0  0  0  0  0  0
  160.3130  209.9570  152.3540 C   0  0  1  0  0  3  0  0  0  0  0  0
  158.3110  213.0390  152.4570 C   0  0  1  0  0  3  0  0  0  0  0  0
  162.7090  210.3800  151.5940 C   0  0  0  0  0  3  0  0  0  0  0  0
  156.9180  212.2300  157.2610 C   0  0  0  0  0  2  0  0  0  0  0  0
  159.7370  209.9020  153.6700 N   0  0  2  0  0  0  0  0  0  0  0  0
  161.3800  207.8300  155.7300 C   0  0  0  0  0  1  0  0  0  0  0  0
  160.4840  213.0110  150.0770 C   0  0  0  0  0  2  0  0  0  0  0  0
  162.2540  211.3890  150.8120 C   0  0  0  0  0  3  0  0  0  0  0  0
  159.6690  208.4970  154.0480 C   0  0  0  0  0  2  0  0  0  0  0  0
  155.9100  212.6770  154.9390 N   0  0  1  0  0  0  0  0  0  0  0  0
  156.6240  213.6950  154.1500 C   0  0  0  0  0  2  0  0  0  0  0  0
  160.7660  211.6170  150.6280 C   0  0  1  0  0  3  0  0  0  0  0  0
  158.4370  210.5370  153.4310 C   0  0  1  0  0  3  0  0  0  0  0  0
  162.2040  208.8460  153.6130 C   0  0  0  0  0  2  0  0  0  0  0  0
  158.7920  213.9740  151.3210 C   0  0  1  0  0  3  0  0  0  0  0  0
  161.1780  206.6740  153.6770 O   0  0  0  0  0  1  0  0  0  0  0  0
  156.3460  211.2940  154.6630 C   0  0  0  0  0  2  0  0  0  0  0  0
  155.7660  214.4530  156.7410 C   0  0  0  0  0  1  0  0  0  0  0  0
  157.8660  211.0530  154.7590 C   0  0  2  0  0  3  0  0  0  0  0  0
  160.1920  213.9490  151.0890 O   0  0  0  0  0  0  0  0  0  0  0  0
  158.5060  214.0930  148.8260 C   0  0  0  0  0  3  0  0  0  0  0  0
  157.9130  214.1030  150.0930 C   0  0  0  0  0  0  0  0  0  0  0  0
  156.5180  214.2070  150.2060 C   0  0  0  0  0  3  0  0  0  0  0  0
  154.3810  214.4110  149.1720 F   0  0  0  0  0  0  0  0  0  0  0  0
  156.3240  214.3040  147.7950 C   0  0  0  0  0  3  0  0  0  0  0  0
  155.7260  214.3090  149.0590 C   0  0  0  0  0  0  0  0  0  0  0  0
  157.7130  214.1960  147.6780 C   0  0  0  0  0  3  0  0  0  0  0  0
  159.6650  214.1080  156.1880 C   0  0  0  0  0  1  0  0  0  0  0  0
  158.8080  213.7200  157.2200 O   0  0  0  0  0  0  0  0  0  0  0  0
  1  4  1  0  0  0  0
  2 14  1  1  0  0  0
  3  7  1  0  0  0  0
  3  9  1  0  0  0  0
  4 37  1  0  0  0  0
  4 12  1  0  0  0  0
  5 19  1  0  0  0  0
  6  9  1  0  0  0  0
  6 22  1  0  0  0  0
  7 10  1  0  0  0  0
  7 21  1  0  0  0  0
  8 26  1  0  0  0  0
  8 12  1  0  0  0  0
  9 13  1  0  0  0  0
 10  5  1  0  0  0  0
 11  6  1  0  0  0  0
 13 17  1  0  0  0  0
 15 20  1  0  0  0  0
 15 28  1  0  0  0  0
 16 11  2  0  0  0  0
 17  2  1  0  0  0  0
 18  8  1  0  0  0  0
 19 18  1  0  0  0  0
 20 16  1  0  0  0  0
 20  3  1  0  0  0  0
 21 13  1  0  0  0  0
 21 27  1  0  0  0  0
 22  2  1  0  0  0  0
 23 10  1  0  0  0  0
 24  2  1  0  0  0  0
 25 27  1  0  0  0  0
 25 18  1  0  0  0  0
 27  1  1  0  0  0  0
 28 23  1  0  0  0  0
 29 30  1  0  0  0  0
 30 31  2  0  0  0  0
 30 23  1  0  0  0  0
 33 34  2  0  0  0  0
 34 32  1  0  0  0  0
 34 31  1  0  0  0  0
 35 33  1  0  0  0  0
 35 29  2  0  0  0  0
 36 37  1  0  0  0  0
M  END
>  <MODEL>
1

>  <REMARK>
 VINA RESULT:      -1.5      0.000      0.000
  Name = 
  2 active torsions:
  status: ('A' for Active; 'I' for Inactive)
    1  A    between atoms: C_4  and  O_37
    2  A    between atoms: C_23  and  C_30
                            x       y       z     vdW  Elec       q    Type
                         _______ _______ _______ _____ _____    ______ ____

>  <TORSDO>
F 2

$$$$
=
 OpenBabel11122413413D

 37 43  0  0  1  0  0  0  0  0999 V2000
  161.8550  210.2120  154.4220 C   0  0  0  0  0  2  0  0  0  0  0  0
  161.9430  205.8540  151.9980 C   0  0  1  0  0  0  0  0  0  0  0  0
  161.2280  209.8140  150.7140 C   0  0  1  0  0  3  0  0  0  0  0  0
  162.3430  210.2460  155.8730 C   0  0  2  0  0  3  0  0  0  0  0  0
  159.4230  212.2950  153.0870 C   0  0  0  0  0  2  0  0  0  0  0  0
  162.0550  207.4920  150.0500 C   0  0  1  0  0  3  0  0  0  0  0  0
  160.1610  210.3030  151.6740 C   0  0  2  0  0  3  0  0  0  0  0  0
  160.2250  211.4920  156.7300 C   0  0  2  0  0  3  0  0  0  0  0  0
  161.0800  208.3500  150.8660 C   0  0  1  0  0  3  0  0  0  0  0  0
  160.4680  211.7510  152.1200 C   0  0  1  0  0  3  0  0  0  0  0  0
  162.8580  208.2930  149.0400 C   0  0  0  0  0  3  0  0  0  0  0  0
  161.2350  210.3480  156.9280 C   0  0  0  0  0  2  0  0  0  0  0  0
  161.1830  208.1720  152.2890 N   0  0  2  0  0  0  0  0  0  0  0  0
  162.8090  205.3680  153.1410 C   0  0  0  0  0  1  0  0  0  0  0  0
  161.1790  211.6620  148.9780 C   0  0  0  0  0  2  0  0  0  0  0  0
  162.4540  209.5240  148.6450 C   0  0  0  0  0  3  0  0  0  0  0  0
  160.8420  206.7850  152.5720 C   0  0  0  0  0  2  0  0  0  0  0  0
  159.4890  211.5100  155.4430 N   0  0  1  0  0  0  0  0  0  0  0  0
  160.0530  212.4510  154.4610 C   0  0  0  0  0  2  0  0  0  0  0  0
  161.2100  210.1580  149.2370 C   0  0  1  0  0  3  0  0  0  0  0  0
  160.2030  209.1550  152.7620 C   0  0  1  0  0  3  0  0  0  0  0  0
  162.8600  206.5550  150.9550 C   0  0  0  0  0  2  0  0  0  0  0  0
  160.6550  212.7460  150.9490 C   0  0  1  0  0  3  0  0  0  0  0  0
  161.3320  204.7540  151.3990 O   0  0  0  0  0  1  0  0  0  0  0  0
  159.2750  210.1500  154.9100 C   0  0  0  0  0  2  0  0  0  0  0  0
  160.7660  212.8490  157.1740 C   0  0  0  0  0  1  0  0  0  0  0  0
  160.5010  209.5120  154.2250 C   0  0  2  0  0  3  0  0  0  0  0  0
  161.7020  212.4120  150.0510 O   0  0  0  0  0  0  0  0  0  0  0  0
  159.4860  213.9060  149.0480 C   0  0  0  0  0  3  0  0  0  0  0  0
  159.4100  213.3480  150.3290 C   0  0  0  0  0  0  0  0  0  0  0  0
  158.1810  213.3320  151.0060 C   0  0  0  0  0  3  0  0  0  0  0  0
  155.8590  213.8640  151.0670 F   0  0  0  0  0  0  0  0  0  0  0  0
  157.1250  214.4410  149.1310 C   0  0  0  0  0  3  0  0  0  0  0  0
  157.0420  213.8790  150.4090 C   0  0  0  0  0  0  0  0  0  0  0  0
  158.3460  214.4530  148.4510 C   0  0  0  0  0  3  0  0  0  0  0  0
  163.8900  211.0130  157.2580 C   0  0  0  0  0  1  0  0  0  0  0  0
  163.2690  211.2780  156.0360 O   0  0  0  0  0  0  0  0  0  0  0  0
  1  4  1  0  0  0  0
  2 17  1  0  0  0  0
  2 14  1  1  0  0  0
  3  9  1  0  0  0  0
  3  7  1  0  0  0  0
  4 37  1  0  0  0  0
  4 12  1  0  0  0  0
  5 19  1  0  0  0  0
  6  9  1  0  0  0  0
  6 22  1  0  0  0  0
  7 10  1  0  0  0  0
  7 21  1  0  0  0  0
  8 12  1  0  0  0  0
  8 26  1  0  0  0  0
  9 13  1  0  0  0  0
 10  5  1  0  0  0  0
 11  6  1  0  0  0  0
 13 17  1  0  0  0  0
 13 21  1  0  0  0  0
 15 20  1  0  0  0  0
 15 28  1  0  0  0  0
 16 11  2  0  0  0  0
 16 20  1  0  0  0  0
 18  8  1  0  0  0  0
 19 18  1  0  0  0  0
 20  3  1  0  0  0  0
 21 27  1  0  0  0  0
 22  2  1  0  0  0  0
 23 10  1  0  0  0  0
 24  2  1  0  0  0  0
 25 18  1  0  0  0  0
 27  1  1  0  0  0  0
 27 25  1  0  0  0  0
 28 23  1  0  0  0  0
 29 30  1  0  0  0  0
 30 23  1  0  0  0  0
 30 31  2  0  0  0  0
 33 34  2  0  0  0  0
 34 31  1  0  0  0  0
 34 32  1  0  0  0  0
 35 29  2  0  0  0  0
 35 33  1  0  0  0  0
 37 36  1  0  0  0  0
M  END
>  <MODEL>
2

>  <REMARK>
 VINA RESULT:      -1.3      2.375      3.175
  Name = 
  2 active torsions:
  status: ('A' for Active; 'I' for Inactive)
    1  A    between atoms: C_4  and  O_37
    2  A    between atoms: C_23  and  C_30
                            x       y       z     vdW  Elec       q    Type
                         _______ _______ _______ _____ _____    ______ ____

>  <TORSDO>
F 2

$$$$
=
 OpenBabel11122413413D

 37 43  0  0  1  0  0  0  0  0999 V2000
  161.9330  210.1790  154.4110 C   0  0  0  0  0  2  0  0  0  0  0  0
  162.0980  205.8960  151.8610 C   0  0  1  0  0  0  0  0  0  0  0  0
  161.2290  209.8650  150.7080 C   0  0  1  0  0  3  0  0  0  0  0  0
  162.4550  210.1880  155.8500 C   0  0  2  0  0  3  0  0  0  0  0  0
  159.4070  212.2200  153.1930 C   0  0  0  0  0  2  0  0  0  0  0  0
  162.1120  207.5890  149.9590 C   0  0  1  0  0  3  0  0  0  0  0  0
  160.1710  210.2930  151.7070 C   0  0  2  0  0  3  0  0  0  0  0  0
  160.3210  211.3430  156.7920 C   0  0  2  0  0  3  0  0  0  0  0  0
  161.1310  208.3930  150.8210 C   0  0  1  0  0  3  0  0  0  0  0  0
  160.4450  211.7370  152.1860 C   0  0  1  0  0  3  0  0  0  0  0  0
  162.8660  208.4430  148.9540 C   0  0  0  0  0  3  0  0  0  0  0  0
  161.3710  210.2260  156.9330 C   0  0  0  0  0  2  0  0  0  0  0  0
  161.2740  208.1790  152.2360 N   0  0  2  0  0  0  0  0  0  0  0  0
  163.0060  205.4050  152.9700 C   0  0  0  0  0  1  0  0  0  0  0  0
  161.0810  211.7580  149.0270 C   0  0  0  0  0  2  0  0  0  0  0  0
  162.4130  209.6710  148.6040 C   0  0  0  0  0  3  0  0  0  0  0  0
  160.9830  206.7750  152.4870 C   0  0  0  0  0  2  0  0  0  0  0  0
  159.5540  211.3720  155.5230 N   0  0  1  0  0  0  0  0  0  0  0  0
  160.0650  212.3580  154.5550 C   0  0  0  0  0  2  0  0  0  0  0  0
  161.1650  210.2490  149.2430 C   0  0  1  0  0  3  0  0  0  0  0  0
  160.2750  209.1170  152.7600 C   0  0  1  0  0  3  0  0  0  0  0  0
  162.9670  206.6530  150.8180 C   0  0  0  0  0  2  0  0  0  0  0  0
  160.5710  212.7700  151.0400 C   0  0  1  0  0  3  0  0  0  0  0  0
  161.5070  204.7930  151.2460 O   0  0  0  0  0  1  0  0  0  0  0  0
  159.3700  210.0220  154.9570 C   0  0  0  0  0  2  0  0  0  0  0  0
  160.8310  212.7030  157.2610 C   0  0  0  0  0  1  0  0  0  0  0  0
  160.5980  209.4430  154.2250 C   0  0  2  0  0  3  0  0  0  0  0  0
  161.6060  212.4940  150.1090 O   0  0  0  0  0  0  0  0  0  0  0  0
  158.2270  213.6300  151.3280 C   0  0  0  0  0  3  0  0  0  0  0  0
  159.2940  213.3490  150.4670 C   0  0  0  0  0  0  0  0  0  0  0  0
  159.1730  213.6300  149.0980 C   0  0  0  0  0  3  0  0  0  0  0  0
  157.8770  214.4460  147.2720 F   0  0  0  0  0  0  0  0  0  0  0  0
  156.9250  214.4530  149.4580 C   0  0  0  0  0  3  0  0  0  0  0  0
  157.9900  214.1790  148.5950 C   0  0  0  0  0  0  0  0  0  0  0  0
  157.0430  214.1800  150.8240 C   0  0  0  0  0  3  0  0  0  0  0  0
  163.9890  210.9810  157.2350 C   0  0  0  0  0  1  0  0  0  0  0  0
  163.3520  211.2440  156.0210 O   0  0  0  0  0  0  0  0  0  0  0  0
  1  4  1  0  0  0  0
  2 17  1  0  0  0  0
  2 14  1  1  0  0  0
  3  9  1  0  0  0  0
  3  7  1  0  0  0  0
  4 37  1  0  0  0  0
  4 12  1  0  0  0  0
  5 19  1  0  0  0  0
  6 22  1  0  0  0  0
  6  9  1  0  0  0  0
  7 10  1  0  0  0  0
  7 21  1  0  0  0  0
  8 12  1  0  0  0  0
  8 26  1  0  0  0  0
  9 13  1  0  0  0  0
 10  5  1  0  0  0  0
 11  6  1  0  0  0  0
 13 17  1  0  0  0  0
 13 21  1  0  0  0  0
 15 20  1  0  0  0  0
 15 28  1  0  0  0  0
 16 11  2  0  0  0  0
 16 20  1  0  0  0  0
 18  8  1  0  0  0  0
 19 18  1  0  0  0  0
 20  3  1  0  0  0  0
 21 27  1  0  0  0  0
 22  2  1  0  0  0  0
 23 10  1  0  0  0  0
 24  2  1  0  0  0  0
 25 18  1  0  0  0  0
 27  1  1  0  0  0  0
 27 25  1  0  0  0  0
 28 23  1  0  0  0  0
 30 23  1  0  0  0  0
 30 29  2  0  0  0  0
 31 30  1  0  0  0  0
 32 34  1  0  0  0  0
 33 35  2  0  0  0  0
 34 31  2  0  0  0  0
 34 33  1  0  0  0  0
 35 29  1  0  0  0  0
 37 36  1  0  0  0  0
M  END
>  <MODEL>
3

>  <REMARK>
 VINA RESULT:      -1.0      2.450      3.358
  Name = 
  2 active torsions:
  status: ('A' for Active; 'I' for Inactive)
    1  A    between atoms: C_4  and  O_37
    2  A    between atoms: C_23  and  C_30
                            x       y       z     vdW  Elec       q    Type
                         _______ _______ _______ _____ _____    ______ ____

>  <TORSDO>
F 2

$$$$
=
 OpenBabel11122413413D

 37 43  0  0  1  0  0  0  0  0999 V2000
  160.7600  207.9180  150.9030 C   0  0  0  0  0  2  0  0  0  0  0  0
  160.8310  210.0720  155.4010 C   0  0  1  0  0  0  0  0  0  0  0  0
  160.3530  211.6300  151.5040 C   0  0  1  0  0  3  0  0  0  0  0  0
  160.7150  206.3900  150.8310 C   0  0  2  0  0  3  0  0  0  0  0  0
  162.2430  209.9840  148.5440 C   0  0  0  0  0  2  0  0  0  0  0  0
  159.8420  211.9450  153.9860 C   0  0  1  0  0  3  0  0  0  0  0  0
  161.5340  211.0500  150.7500 C   0  0  2  0  0  3  0  0  0  0  0  0
  162.7030  206.2460  149.1560 C   0  0  2  0  0  3  0  0  0  0  0  0
  160.8230  211.4850  152.8990 C   0  0  1  0  0  3  0  0  0  0  0  0
  161.0910  210.5760  149.3470 C   0  0  1  0  0  3  0  0  0  0  0  0
  158.6410  212.6900  153.4320 C   0  0  0  0  0  3  0  0  0  0  0  0
  162.0380  205.7200  150.4410 C   0  0  0  0  0  2  0  0  0  0  0  0
  161.1730  210.0930  152.9680 N   0  0  2  0  0  0  0  0  0  0  0  0
  160.4460  208.7080  155.9320 C   0  0  0  0  0  1  0  0  0  0  0  0
  159.5350  213.3550  149.8360 C   0  0  0  0  0  2  0  0  0  0  0  0
  158.6640  213.2250  152.1870 C   0  0  0  0  0  3  0  0  0  0  0  0
  161.8470  209.8840  154.2420 C   0  0  0  0  0  2  0  0  0  0  0  0
  163.0160  207.6950  149.1200 N   0  0  1  0  0  0  0  0  0  0  0  0
  162.0190  208.4900  148.3830 C   0  0  0  0  0  2  0  0  0  0  0  0
  159.8750  213.0530  151.2920 C   0  0  1  0  0  3  0  0  0  0  0  0
  162.0350  209.9650  151.7890 C   0  0  1  0  0  3  0  0  0  0  0  0
  159.5340  210.8120  154.9690 C   0  0  0  0  0  2  0  0  0  0  0  0
  160.3830  211.6660  148.5080 C   0  0  1  0  0  3  0  0  0  0  0  0
  161.4470  210.7930  156.4220 O   0  0  0  0  0  1  0  0  0  0  0  0
  163.3300  208.2260  150.4610 C   0  0  0  0  0  2  0  0  0  0  0  0
  162.0570  205.7010  147.8840 C   0  0  0  0  0  1  0  0  0  0  0  0
  162.1080  208.4920  151.3640 C   0  0  2  0  0  3  0  0  0  0  0  0
  159.2080  212.1970  149.1010 O   0  0  0  0  0  0  0  0  0  0  0  0
  162.1660  213.4380  148.4570 C   0  0  0  0  0  3  0  0  0  0  0  0
  161.2520  212.6490  147.7490 C   0  0  0  0  0  0  0  0  0  0  0  0
  161.1740  212.7610  146.3530 C   0  0  0  0  0  3  0  0  0  0  0  0
  161.9170  213.7690  144.3260 F   0  0  0  0  0  0  0  0  0  0  0  0
  162.9050  214.4530  146.3850 C   0  0  0  0  0  3  0  0  0  0  0  0
  161.9970  213.6630  145.6730 C   0  0  0  0  0  0  0  0  0  0  0  0
  162.9900  214.3400  147.7760 C   0  0  0  0  0  3  0  0  0  0  0  0
  159.7050  204.5920  150.0260 C   0  0  0  0  0  1  0  0  0  0  0  0
  159.6920  205.9870  149.9700 O   0  0  0  0  0  0  0  0  0  0  0  0
  1 27  1  0  0  0  0
  2 14  1  1  0  0  0
  2 24  1  0  0  0  0
  3  9  1  0  0  0  0
  4  1  1  0  0  0  0
  5 10  1  0  0  0  0
  6 22  1  0  0  0  0
  7  3  1  0  0  0  0
  7 21  1  0  0  0  0
  8 12  1  0  0  0  0
  9 13  1  0  0  0  0
  9  6  1  0  0  0  0
 10  7  1  0  0  0  0
 11  6  1  0  0  0  0
 12  4  1  0  0  0  0
 13 17  1  0  0  0  0
 15 20  1  0  0  0  0
 16 11  2  0  0  0  0
 17  2  1  0  0  0  0
 18  8  1  0  0  0  0
 18 25  1  0  0  0  0
 19  5  1  0  0  0  0
 19 18  1  0  0  0  0
 20  3  1  0  0  0  0
 20 16  1  0  0  0  0
 21 13  1  0  0  0  0
 22  2  1  0  0  0  0
 23 28  1  0  0  0  0
 23 10  1  0  0  0  0
 25 27  1  0  0  0  0
 26  8  1  0  0  0  0
 27 21  1  0  0  0  0
 28 15  1  0  0  0  0
 30 29  2  0  0  0  0
 30 23  1  0  0  0  0
 31 30  1  0  0  0  0
 32 34  1  0  0  0  0
 33 35  2  0  0  0  0
 34 31  2  0  0  0  0
 34 33  1  0  0  0  0
 35 29  1  0  0  0  0
 37 36  1  0  0  0  0
 37  4  1  0  0  0  0
M  END
>  <MODEL>
4

>  <REMARK>
 VINA RESULT:       1.3      3.375      6.684
  Name = 
  2 active torsions:
  status: ('A' for Active; 'I' for Inactive)
    1  A    between atoms: C_4  and  O_37
    2  A    between atoms: C_23  and  C_30
                            x       y       z     vdW  Elec       q    Type
                         _______ _______ _______ _____ _____    ______ ____

>  <TORSDO>
F 2

$$$$
