=
 OpenBabel11122414123D

 28 32  0  0  1  0  0  0  0  0999 V2000
  160.4100  208.6690  153.9250 N   0  0  2  0  0  0  0  0  0  0  0  0
  158.8180  211.4620  157.2610 O   0  0  0  0  0  0  0  0  0  0  0  0
  160.3190  213.4630  149.7570 O   0  0  0  0  0  0  0  0  0  0  0  0
  161.9540  208.8750  156.3970 C   0  0  0  0  0  2  0  0  0  0  0  0
  158.5720  212.8800  151.2350 N   0  0  0  0  0  0  0  0  0  0  0  0
  160.4440  208.5100  152.4560 C   0  0  0  0  0  2  0  0  0  0  0  0
  159.8940  213.3130  156.0460 O   0  0  0  0  0  0  0  0  0  0  0  0
  158.7270  212.3650  156.0630 S   0  0  0  0  0  0  0  0  0  0  0  0
  156.4750  213.5360  154.9590 C   0  0  0  0  0  0  0  0  0  0  0  0
  158.6790  211.3860  154.5770 C   0  0  1  0  0  3  0  0  0  0  0  0
  163.4370  210.3440  151.9520 O   0  0  0  0  0  0  0  0  0  0  0  0
  159.7710  211.2190  152.4660 C   0  0  1  0  0  3  0  0  0  0  0  0
  156.8070  213.0650  153.7540 C   0  0  0  0  0  3  0  0  0  0  0  0
  157.2510  213.2610  156.1310 N   0  0  0  0  0  2  0  0  0  0  0  0
  162.3120  209.9740  151.5280 C   0  0  0  0  0  0  0  0  0  0  0  0
  160.9380  209.9890  154.3690 C   0  0  2  0  0  3  0  0  0  0  0  0
  159.9070  212.7970  150.7440 C   0  0  0  0  0  0  0  0  0  0  0  0
  155.2870  214.4210  155.0760 C   0  0  0  0  0  1  0  0  0  0  0  0
  161.4800  210.9020  150.8230 N   0  0  0  0  0  2  0  0  0  0  0  0
  161.1480  210.0550  155.8870 C   0  0  0  0  0  2  0  0  0  0  0  0
  161.1960  207.5550  154.4720 C   0  0  0  0  0  2  0  0  0  0  0  0
  161.2530  207.5980  155.9880 C   0  0  0  0  0  2  0  0  0  0  0  0
  161.8450  208.5740  151.8110 C   0  0  0  0  0  2  0  0  0  0  0  0
  158.5480  211.9980  152.3480 C   0  0  1  0  0  3  0  0  0  0  0  0
  160.7890  211.9250  151.5920 C   0  0  2  0  0  3  0  0  0  0  0  0
  157.9360  212.1480  153.5130 C   0  0  1  0  0  3  0  0  0  0  0  0
  157.6330  213.9500  150.9370 C   0  0  0  0  0  1  0  0  0  0  0  0
  160.0740  211.2090  153.9420 C   0  0  2  0  0  3  0  0  0  0  0  0
  1  6  1  6  0  0  0
  1 16  1  0  0  0  0
  1 21  1  0  0  0  0
  3 17  2  0  0  0  0
  5 24  1  0  0  0  0
  7  8  2  0  0  0  0
  8 14  1  0  0  0  0
  8  2  2  0  0  0  0
  9 18  1  0  0  0  0
  9 14  1  0  0  0  0
 10  8  1  1  0  0  0
 12 28  1  0  0  0  0
 13  9  2  0  0  0  0
 15 23  1  0  0  0  0
 15 11  2  0  0  0  0
 16 20  1  0  0  0  0
 17  5  1  0  0  0  0
 17 25  1  0  0  0  0
 19 15  1  0  0  0  0
 19 25  1  0  0  0  0
 20  4  1  0  0  0  0
 21 22  1  0  0  0  0
 22  4  1  0  0  0  0
 23  6  1  0  0  0  0
 24 12  1  0  0  0  0
 24 26  1  0  0  0  0
 25 12  1  0  0  0  0
 26 13  1  0  0  0  0
 26 10  1  0  0  0  0
 27  5  1  0  0  0  0
 28 16  1  0  0  0  0
 28 10  1  0  0  0  0
M  END
>  <MODEL>
1

>  <REMARK>
 VINA RESULT:      -4.8      0.000      0.000
  Name = 
  0 active torsions:
  status: ('A' for Active; 'I' for Inactive)
                            x       y       z     vdW  Elec       q    Type
                         _______ _______ _______ _____ _____    ______ ____

>  <TORSDO>
F 0

$$$$
=
 OpenBabel11122414123D

 28 32  0  0  1  0  0  0  0  0999 V2000
  158.2850  212.4700  151.8500 N   0  0  2  0  0  0  0  0  0  0  0  0
  161.6970  210.4950  149.4170 O   0  0  0  0  0  0  0  0  0  0  0  0
  160.7170  210.1940  157.2610 O   0  0  0  0  0  0  0  0  0  0  0  0
  159.8860  214.1730  150.0990 C   0  0  0  0  0  2  0  0  0  0  0  0
  160.3720  208.9670  155.2740 N   0  0  0  0  0  0  0  0  0  0  0  0
  157.5460  212.3550  153.1250 C   0  0  0  0  0  2  0  0  0  0  0  0
  163.0850  210.7050  151.4390 O   0  0  0  0  0  0  0  0  0  0  0  0
  161.9660  209.9420  150.7880 S   0  0  0  0  0  0  0  0  0  0  0  0
  161.9510  207.2980  151.6100 C   0  0  0  0  0  0  0  0  0  0  0  0
  160.4820  210.0260  151.7690 C   0  0  1  0  0  3  0  0  0  0  0  0
  159.7070  214.4530  154.9970 O   0  0  0  0  0  0  0  0  0  0  0  0
  159.7410  210.8130  153.8930 C   0  0  1  0  0  3  0  0  0  0  0  0
  161.1250  207.6030  152.6150 C   0  0  0  0  0  2  0  0  0  0  0  0
  162.3960  208.2730  150.6600 N   0  0  0  0  0  0  0  0  0  0  0  0
  158.9190  213.4730  154.9580 C   0  0  0  0  0  0  0  0  0  0  0  0
  159.7570  212.5740  152.0510 C   0  0  2  0  0  3  0  0  0  0  0  0
  160.4400  210.1710  156.0320 C   0  0  0  0  0  0  0  0  0  0  0  0
  162.4670  205.9080  151.5070 C   0  0  0  0  0  1  0  0  0  0  0  0
  159.2220  212.2880  155.7030 N   0  0  0  0  0  2  0  0  0  0  0  0
  160.4990  212.9540  150.7630 C   0  0  0  0  0  2  0  0  0  0  0  0
  157.7410  213.6530  151.1710 C   0  0  0  0  0  2  0  0  0  0  0  0
  158.4230  213.8980  149.8360 C   0  0  0  0  0  2  0  0  0  0  0  0
  157.6940  213.5510  154.0910 C   0  0  0  0  0  2  0  0  0  0  0  0
  160.0580  209.3940  153.9560 C   0  0  1  0  0  3  0  0  0  0  0  0
  160.2570  211.4030  155.1910 C   0  0  2  0  0  3  0  0  0  0  0  0
  160.5140  208.9320  152.8020 C   0  0  1  0  0  3  0  0  0  0  0  0
  160.9420  207.6900  155.6740 C   0  0  0  0  0  1  0  0  0  0  0  0
  160.4230  211.2990  152.6400 C   0  0  2  0  0  3  0  0  0  0  0  0
  1 21  1  1  0  0  0
  1 16  1  0  0  0  0
  1  6  1  0  0  0  0
  2  8  2  0  0  0  0
  4 20  1  0  0  0  0
  5 27  1  0  0  0  0
  5 17  1  0  0  0  0
  6 23  1  0  0  0  0
  8  7  2  0  0  0  0
  9 13  1  0  0  0  0
 10  8  1  1  0  0  0
 10 28  1  0  0  0  0
 10 26  1  0  0  0  0
 12 24  1  0  0  0  0
 12 25  1  0  0  0  0
 13 26  1  0  0  0  0
 14  8  1  0  0  0  0
 14  9  2  0  0  0  0
 15 11  2  0  0  0  0
 15 19  1  0  0  0  0
 16 28  1  0  0  0  0
 17  3  2  0  0  0  0
 18  9  1  0  0  0  0
 20 16  1  0  0  0  0
 22  4  1  0  0  0  0
 22 21  1  0  0  0  0
 23 15  1  0  0  0  0
 24  5  1  0  0  0  0
 25 19  1  0  0  0  0
 25 17  1  0  0  0  0
 26 24  1  0  0  0  0
 28 12  1  0  0  0  0
M  END
>  <MODEL>
2

>  <REMARK>
 VINA RESULT:      -4.7      1.966      6.647
  Name = 
  0 active torsions:
  status: ('A' for Active; 'I' for Inactive)
                            x       y       z     vdW  Elec       q    Type
                         _______ _______ _______ _____ _____    ______ ____

>  <TORSDO>
F 0

$$$$
=
 OpenBabel11122414123D

 28 32  0  0  1  0  0  0  0  0999 V2000
  158.4360  211.8990  152.9840 N   0  0  2  0  0  0  0  0  0  0  0  0
  161.4110  210.6880  149.6450 O   0  0  0  0  0  0  0  0  0  0  0  0
  161.5400  208.2710  157.1760 O   0  0  0  0  0  0  0  0  0  0  0  0
  159.8230  214.0270  151.5420 C   0  0  0  0  0  2  0  0  0  0  0  0
  160.8820  207.6220  155.0030 N   0  0  0  0  0  0  0  0  0  0  0  0
  157.8810  211.4370  154.2730 C   0  0  0  0  0  2  0  0  0  0  0  0
  163.0770  210.3580  151.4280 O   0  0  0  0  0  0  0  0  0  0  0  0
  161.8540  209.7880  150.7640 S   0  0  0  0  0  0  0  0  0  0  0  0
  161.8790  207.0210  150.8380 C   0  0  0  0  0  0  0  0  0  0  0  0
  160.5270  209.5900  151.9340 C   0  0  1  0  0  3  0  0  0  0  0  0
  160.3450  212.9730  156.3090 O   0  0  0  0  0  0  0  0  0  0  0  0
  160.1170  209.7660  154.2750 C   0  0  1  0  0  3  0  0  0  0  0  0
  161.2120  207.0350  151.9960 C   0  0  0  0  0  2  0  0  0  0  0  0
  162.2140  208.2210  150.1320 N   0  0  0  0  0  0  0  0  0  0  0  0
  159.5310  212.0320  156.1220 C   0  0  0  0  0  0  0  0  0  0  0  0
  159.9240  211.9590  152.9920 C   0  0  2  0  0  3  0  0  0  0  0  0
  161.0910  208.5780  156.0390 C   0  0  0  0  0  0  0  0  0  0  0  0
  162.3340  205.7160  150.2940 C   0  0  0  0  0  1  0  0  0  0  0  0
  159.9020  210.6930  156.4700 N   0  0  0  0  0  2  0  0  0  0  0  0
  160.4870  212.6800  151.7600 C   0  0  0  0  0  2  0  0  0  0  0  0
  157.8360  213.2160  152.7320 C   0  0  0  0  0  2  0  0  0  0  0  0
  158.3300  213.8190  151.4290 C   0  0  0  0  0  2  0  0  0  0  0  0
  158.1990  212.3280  155.4930 C   0  0  0  0  0  2  0  0  0  0  0  0
  160.3980  208.3860  153.9080 C   0  0  1  0  0  3  0  0  0  0  0  0
  160.8280  209.9890  155.5960 C   0  0  2  0  0  3  0  0  0  0  0  0
  160.6730  208.2570  152.6190 C   0  0  1  0  0  3  0  0  0  0  0  0
  161.4650  206.2900  154.9600 C   0  0  0  0  0  1  0  0  0  0  0  0
  160.6290  210.5800  153.1140 C   0  0  2  0  0  3  0  0  0  0  0  0
  1 21  1  1  0  0  0
  1 16  1  0  0  0  0
  1  6  1  0  0  0  0
  2  8  2  0  0  0  0
  4 20  1  0  0  0  0
  5 17  1  0  0  0  0
  6 23  1  0  0  0  0
  8  7  2  0  0  0  0
  9 13  1  0  0  0  0
 10  8  1  6  0  0  0
 10 26  1  0  0  0  0
 10 28  1  0  0  0  0
 12 25  1  0  0  0  0
 13 26  1  0  0  0  0
 14  8  1  0  0  0  0
 14  9  2  0  0  0  0
 15 11  2  0  0  0  0
 15 19  1  0  0  0  0
 16 28  1  0  0  0  0
 17  3  2  0  0  0  0
 18  9  1  0  0  0  0
 20 16  1  0  0  0  0
 22  4  1  0  0  0  0
 22 21  1  0  0  0  0
 23 15  1  0  0  0  0
 24 12  1  0  0  0  0
 24  5  1  0  0  0  0
 25 17  1  0  0  0  0
 25 19  1  0  0  0  0
 26 24  1  0  0  0  0
 27  5  1  0  0  0  0
 28 12  1  0  0  0  0
M  END
>  <MODEL>
3

>  <REMARK>
 VINA RESULT:      -4.1      2.196      6.707
  Name = 
  0 active torsions:
  status: ('A' for Active; 'I' for Inactive)
                            x       y       z     vdW  Elec       q    Type
                         _______ _______ _______ _____ _____    ______ ____

>  <TORSDO>
F 0

$$$$
=
 OpenBabel11122414123D

 28 32  0  0  1  0  0  0  0  0999 V2000
  161.0770  210.9440  155.9370 N   0  0  2  0  0  0  0  0  0  0  0  0
  162.3630  208.1000  152.5130 O   0  0  0  0  0  0  0  0  0  0  0  0
  156.7910  213.7030  152.1440 O   0  0  0  0  0  0  0  0  0  0  0  0
  160.9900  208.0670  156.4360 C   0  0  0  0  0  2  0  0  0  0  0  0
  159.0410  213.2480  151.5900 N   0  0  0  0  0  0  0  0  0  0  0  0
  160.4550  212.2610  156.1860 C   0  0  0  0  0  2  0  0  0  0  0  0
  160.0810  208.3490  151.6240 O   0  0  0  0  0  0  0  0  0  0  0  0
  161.4180  209.0150  151.7860 S   0  0  0  0  0  0  0  0  0  0  0  0
  161.9560  210.7040  149.6590 C   0  0  0  0  0  0  0  0  0  0  0  0
  161.2630  210.5480  152.6790 C   0  0  1  0  0  3  0  0  0  0  0  0
  157.1130  211.0770  156.3010 O   0  0  0  0  0  0  0  0  0  0  0  0
  159.5770  211.9890  153.5500 C   0  0  1  0  0  3  0  0  0  0  0  0
  161.3960  211.7250  150.3140 C   0  0  0  0  0  2  0  0  0  0  0  0
  162.0710  209.3960  150.2320 N   0  0  0  0  0  0  0  0  0  0  0  0
  157.9240  212.0000  156.0300 C   0  0  0  0  0  0  0  0  0  0  0  0
  160.2290  210.0630  155.0860 C   0  0  2  0  0  3  0  0  0  0  0  0
  157.8840  213.1370  152.4140 C   0  0  0  0  0  0  0  0  0  0  0  0
  162.4270  210.9210  148.2670 C   0  0  0  0  0  1  0  0  0  0  0  0
  157.7340  212.7880  154.8490 N   0  0  0  0  0  2  0  0  0  0  0  0
  160.7430  208.6180  155.0440 C   0  0  0  0  0  2  0  0  0  0  0  0
  161.3210  210.3540  157.2600 C   0  0  0  0  0  2  0  0  0  0  0  0
  161.9580  208.9800  157.1540 C   0  0  0  0  0  2  0  0  0  0  0  0
  159.1030  212.2290  156.9330 C   0  0  0  0  0  2  0  0  0  0  0  0
  160.0190  212.4520  152.2420 C   0  0  1  0  0  3  0  0  0  0  0  0
  158.0750  212.1910  153.5660 C   0  0  2  0  0  3  0  0  0  0  0  0
  160.9270  211.6490  151.7090 C   0  0  1  0  0  3  0  0  0  0  0  0
  159.0450  213.6910  150.2050 C   0  0  0  0  0  1  0  0  0  0  0  0
  160.0430  210.5580  153.6240 C   0  0  2  0  0  3  0  0  0  0  0  0
  1  6  1  1  0  0  0
  1 21  1  0  0  0  0
  3 17  2  0  0  0  0
  4 22  1  0  0  0  0
  5 24  1  0  0  0  0
  5 17  1  0  0  0  0
  6 23  1  0  0  0  0
  7  8  2  0  0  0  0
  8  2  2  0  0  0  0
  9 14  2  0  0  0  0
  9 13  1  0  0  0  0
 10  8  1  6  0  0  0
 10 28  1  0  0  0  0
 12 25  1  0  0  0  0
 12 28  1  0  0  0  0
 13 26  1  0  0  0  0
 14  8  1  0  0  0  0
 15 11  2  0  0  0  0
 15 23  1  0  0  0  0
 16  1  1  0  0  0  0
 17 25  1  0  0  0  0
 18  9  1  0  0  0  0
 19 15  1  0  0  0  0
 20 16  1  0  0  0  0
 20  4  1  0  0  0  0
 22 21  1  0  0  0  0
 24 12  1  0  0  0  0
 25 19  1  0  0  0  0
 26 24  1  0  0  0  0
 26 10  1  0  0  0  0
 27  5  1  0  0  0  0
 28 16  1  0  0  0  0
M  END
>  <MODEL>
4

>  <REMARK>
 VINA RESULT:      -3.9      2.265      5.089
  Name = 
  0 active torsions:
  status: ('A' for Active; 'I' for Inactive)
                            x       y       z     vdW  Elec       q    Type
                         _______ _______ _______ _____ _____    ______ ____

>  <TORSDO>
F 0

$$$$
=
 OpenBabel11122414123D

 28 32  0  0  1  0  0  0  0  0999 V2000
  161.7170  209.6010  155.6880 N   0  0  2  0  0  0  0  0  0  0  0  0
  161.7200  205.9330  152.8580 O   0  0  0  0  0  0  0  0  0  0  0  0
  158.9480  213.1560  151.2090 O   0  0  0  0  0  0  0  0  0  0  0  0
  160.4530  207.1400  156.6280 C   0  0  0  0  0  2  0  0  0  0  0  0
  160.8120  211.7400  150.8970 N   0  0  0  0  0  0  0  0  0  0  0  0
  161.6920  211.0780  155.6810 C   0  0  0  0  0  2  0  0  0  0  0  0
  159.7430  206.9270  151.7790 O   0  0  0  0  0  0  0  0  0  0  0  0
  161.2370  207.0110  151.9300 S   0  0  0  0  0  0  0  0  0  0  0  0
  162.4220  207.9390  149.6060 C   0  0  0  0  0  0  0  0  0  0  0  0
  161.7250  208.6050  152.5560 C   0  0  1  0  0  3  0  0  0  0  0  0
  158.1600  211.3900  155.7410 O   0  0  0  0  0  0  0  0  0  0  0  0
  160.7820  210.7330  153.0650 C   0  0  1  0  0  3  0  0  0  0  0  0
  162.3320  209.1970  150.0500 C   0  0  0  0  0  3  0  0  0  0  0  0
  161.9880  206.8180  150.3860 N   0  0  0  0  0  2  0  0  0  0  0  0
  159.2790  211.8430  155.3870 C   0  0  0  0  0  0  0  0  0  0  0  0
  160.5820  209.0060  154.9280 C   0  0  2  0  0  3  0  0  0  0  0  0
  159.7110  212.2520  151.6430 C   0  0  0  0  0  0  0  0  0  0  0  0
  162.9410  207.7020  148.2350 C   0  0  0  0  0  1  0  0  0  0  0  0
  159.4300  212.4220  154.0860 N   0  0  0  0  0  2  0  0  0  0  0  0
  160.4560  207.4940  155.1520 C   0  0  0  0  0  2  0  0  0  0  0  0
  161.6970  209.2020  157.1020 C   0  0  0  0  0  2  0  0  0  0  0  0
  161.7110  207.6920  157.2610 C   0  0  0  0  0  2  0  0  0  0  0  0
  160.4470  211.7270  156.3240 C   0  0  0  0  0  2  0  0  0  0  0  0
  161.3750  210.7420  151.7360 C   0  0  1  0  0  3  0  0  0  0  0  0
  159.4960  211.5260  152.9410 C   0  0  2  0  0  3  0  0  0  0  0  0
  161.8730  209.5600  151.4030 C   0  0  1  0  0  3  0  0  0  0  0  0
  160.9990  211.8950  149.4630 C   0  0  0  0  0  1  0  0  0  0  0  0
  160.6170  209.2720  153.3980 C   0  0  2  0  0  3  0  0  0  0  0  0
  1  6  1  1  0  0  0
  1 21  1  0  0  0  0
  3 17  2  0  0  0  0
  4 22  1  0  0  0  0
  5 17  1  0  0  0  0
  5 24  1  0  0  0  0
  6 23  1  0  0  0  0
  7  8  2  0  0  0  0
  8  2  2  0  0  0  0
  9 13  2  0  0  0  0
  9 14  1  0  0  0  0
 10  8  1  6  0  0  0
 10 28  1  0  0  0  0
 12 28  1  0  0  0  0
 13 26  1  0  0  0  0
 14  8  1  0  0  0  0
 15 11  2  0  0  0  0
 15 23  1  0  0  0  0
 16 20  1  0  0  0  0
 16  1  1  0  0  0  0
 17 25  1  0  0  0  0
 18  9  1  0  0  0  0
 19 15  1  0  0  0  0
 20  4  1  0  0  0  0
 21 22  1  0  0  0  0
 24 12  1  0  0  0  0
 25 12  1  0  0  0  0
 25 19  1  0  0  0  0
 26 24  1  0  0  0  0
 26 10  1  0  0  0  0
 27  5  1  0  0  0  0
 28 16  1  0  0  0  0
M  END
>  <MODEL>
5

>  <REMARK>
 VINA RESULT:      -3.3      2.581      5.473
  Name = 
  0 active torsions:
  status: ('A' for Active; 'I' for Inactive)
                            x       y       z     vdW  Elec       q    Type
                         _______ _______ _______ _____ _____    ______ ____

>  <TORSDO>
F 0

$$$$
=
 OpenBabel11122414123D

 28 32  0  0  1  0  0  0  0  0999 V2000
  160.8620  207.3870  149.6730 N   0  0  2  0  0  0  0  0  0  0  0  0
  162.2310  205.9080  145.5010 O   0  0  0  0  0  0  0  0  0  0  0  0
  161.8170  201.6040  152.1250 O   0  0  0  0  0  0  0  0  0  0  0  0
  163.0380  208.8220  148.3530 C   0  0  0  0  0  2  0  0  0  0  0  0
  160.6680  202.0850  150.1190 N   0  0  0  0  0  0  0  0  0  0  0  0
  160.2930  206.9080  150.9490 C   0  0  0  0  0  2  0  0  0  0  0  0
  163.6060  204.2440  146.6850 O   0  0  0  0  0  0  0  0  0  0  0  0
  162.2100  204.6170  146.2700 S   0  0  0  0  0  0  0  0  0  0  0  0
  160.6720  202.3630  145.8030 C   0  0  0  0  0  0  0  0  0  0  0  0
  161.1460  204.7820  147.6880 C   0  0  1  0  0  3  0  0  0  0  0  0
  163.4040  206.2520  152.5210 O   0  0  0  0  0  0  0  0  0  0  0  0
  161.1740  204.4200  150.0420 C   0  0  1  0  0  3  0  0  0  0  0  0
  160.2660  202.3630  147.0770 C   0  0  0  0  0  2  0  0  0  0  0  0
  161.5450  203.3690  145.2770 N   0  0  0  0  0  0  0  0  0  0  0  0
  162.1860  205.9730  152.3770 C   0  0  0  0  0  0  0  0  0  0  0  0
  162.1130  206.6690  149.3000 C   0  0  2  0  0  3  0  0  0  0  0  0
  161.4960  202.4270  151.2270 C   0  0  0  0  0  0  0  0  0  0  0  0
  160.2440  201.2490  144.9180 C   0  0  0  0  0  1  0  0  0  0  0  0
  161.7700  204.6030  152.3520 N   0  0  0  0  0  2  0  0  0  0  0  0
  162.8420  207.3350  148.1260 C   0  0  0  0  0  2  0  0  0  0  0  0
  161.0900  208.8280  149.8450 C   0  0  0  0  0  2  0  0  0  0  0  0
  161.6870  209.4560  148.5990 C   0  0  0  0  0  2  0  0  0  0  0  0
  161.1950  207.0870  152.1900 C   0  0  0  0  0  2  0  0  0  0  0  0
  160.5810  203.2810  149.3570 C   0  0  1  0  0  3  0  0  0  0  0  0
  162.0290  203.8300  151.1470 C   0  0  2  0  0  3  0  0  0  0  0  0
  160.5880  203.4300  148.0420 C   0  0  1  0  0  3  0  0  0  0  0  0
  160.3850  200.7310  149.6690 C   0  0  0  0  0  1  0  0  0  0  0  0
  161.9220  205.1640  148.9660 C   0  0  2  0  0  3  0  0  0  0  0  0
  1 21  1  1  0  0  0
  1  6  1  0  0  0  0
  2  8  2  0  0  0  0
  4 22  1  0  0  0  0
  5 17  1  0  0  0  0
  6 23  1  0  0  0  0
  8  7  2  0  0  0  0
  9 13  1  0  0  0  0
 10  8  1  6  0  0  0
 10 26  1  0  0  0  0
 10 28  1  0  0  0  0
 12 25  1  0  0  0  0
 13 26  1  0  0  0  0
 14  9  2  0  0  0  0
 14  8  1  0  0  0  0
 15 11  2  0  0  0  0
 16  1  1  0  0  0  0
 17  3  2  0  0  0  0
 18  9  1  0  0  0  0
 19 15  1  0  0  0  0
 20  4  1  0  0  0  0
 20 16  1  0  0  0  0
 22 21  1  0  0  0  0
 23 15  1  0  0  0  0
 24 12  1  0  0  0  0
 24  5  1  0  0  0  0
 25 17  1  0  0  0  0
 25 19  1  0  0  0  0
 26 24  1  0  0  0  0
 27  5  1  0  0  0  0
 28 16  1  0  0  0  0
 28 12  1  0  0  0  0
M  END
>  <MODEL>
6

>  <REMARK>
 VINA RESULT:      -3.1      6.438     10.132
  Name = 
  0 active torsions:
  status: ('A' for Active; 'I' for Inactive)
                            x       y       z     vdW  Elec       q    Type
                         _______ _______ _______ _____ _____    ______ ____

>  <TORSDO>
F 0

$$$$
=
 OpenBabel11122414123D

 28 32  0  0  1  0  0  0  0  0999 V2000
  160.2830  204.1040  149.0780 N   0  0  2  0  0  0  0  0  0  0  0  0
  161.1160  204.5590  153.6130 O   0  0  0  0  0  0  0  0  0  0  0  0
  163.3630  209.5320  147.8860 O   0  0  0  0  0  0  0  0  0  0  0  0
  161.6230  201.9040  150.4560 C   0  0  0  0  0  2  0  0  0  0  0  0
  161.7310  209.2050  149.5600 N   0  0  0  0  0  0  0  0  0  0  0  0
  160.1570  204.8890  147.8330 C   0  0  0  0  0  2  0  0  0  0  0  0
  163.1300  205.8280  152.9840 O   0  0  0  0  0  0  0  0  0  0  0  0
  161.6310  205.8720  153.0940 S   0  0  0  0  0  0  0  0  0  0  0  0
  160.7500  208.4260  153.7000 C   0  0  0  0  0  0  0  0  0  0  0  0
  160.8860  206.2260  151.5160 C   0  0  1  0  0  3  0  0  0  0  0  0
  163.5820  204.7030  146.9290 O   0  0  0  0  0  0  0  0  0  0  0  0
  161.5110  206.8400  149.3000 C   0  0  1  0  0  3  0  0  0  0  0  0
  160.6380  208.7070  152.3980 C   0  0  0  0  0  3  0  0  0  0  0  0
  161.1640  207.1380  154.1730 N   0  0  0  0  0  2  0  0  0  0  0  0
  162.4950  205.3360  146.9210 C   0  0  0  0  0  0  0  0  0  0  0  0
  161.5810  204.3360  149.7710 C   0  0  2  0  0  3  0  0  0  0  0  0
  162.6370  208.7520  148.5590 C   0  0  0  0  0  0  0  0  0  0  0  0
  160.4880  209.5030  154.6880 C   0  0  0  0  0  1  0  0  0  0  0  0
  162.4980  206.7540  147.1220 N   0  0  0  0  0  2  0  0  0  0  0  0
  161.8240  203.3380  150.9100 C   0  0  0  0  0  2  0  0  0  0  0  0
  160.1140  202.6970  148.6900 C   0  0  0  0  0  2  0  0  0  0  0  0
  160.2290  201.7670  149.8850 C   0  0  0  0  0  2  0  0  0  0  0  0
  161.2080  204.5820  146.7430 C   0  0  0  0  0  2  0  0  0  0  0  0
  161.1440  208.0170  150.0720 C   0  0  1  0  0  3  0  0  0  0  0  0
  162.7120  207.2540  148.4720 C   0  0  2  0  0  3  0  0  0  0  0  0
  160.8310  207.7170  151.3230 C   0  0  1  0  0  3  0  0  0  0  0  0
  161.7640  210.5150  150.1930 C   0  0  0  0  0  1  0  0  0  0  0  0
  161.7680  205.7730  150.3330 C   0  0  2  0  0  3  0  0  0  0  0  0
  1  6  1  6  0  0  0
  1 16  1  0  0  0  0
  3 17  2  0  0  0  0
  4 20  1  0  0  0  0
  5 24  1  0  0  0  0
  5 27  1  0  0  0  0
  7  8  2  0  0  0  0
  8  2  2  0  0  0  0
  8 14  1  0  0  0  0
  9 14  1  0  0  0  0
  9 18  1  0  0  0  0
 10  8  1  1  0  0  0
 12 24  1  0  0  0  0
 12 28  1  0  0  0  0
 13  9  2  0  0  0  0
 15 11  2  0  0  0  0
 15 19  1  0  0  0  0
 16 28  1  0  0  0  0
 16 20  1  0  0  0  0
 17  5  1  0  0  0  0
 19 25  1  0  0  0  0
 21  1  1  0  0  0  0
 21 22  1  0  0  0  0
 22  4  1  0  0  0  0
 23 15  1  0  0  0  0
 23  6  1  0  0  0  0
 24 26  1  0  0  0  0
 25 17  1  0  0  0  0
 25 12  1  0  0  0  0
 26 10  1  0  0  0  0
 26 13  1  0  0  0  0
 28 10  1  0  0  0  0
M  END
>  <MODEL>
7

>  <REMARK>
 VINA RESULT:      -2.8      4.804      6.837
  Name = 
  0 active torsions:
  status: ('A' for Active; 'I' for Inactive)
                            x       y       z     vdW  Elec       q    Type
                         _______ _______ _______ _____ _____    ______ ____

>  <TORSDO>
F 0

$$$$
=
 OpenBabel11122414123D

 28 32  0  0  1  0  0  0  0  0999 V2000
  160.3630  205.6000  150.3130 N   0  0  2  0  0  0  0  0  0  0  0  0
  160.8310  205.8290  154.9160 O   0  0  0  0  0  0  0  0  0  0  0  0
  162.5850  211.5210  149.7110 O   0  0  0  0  0  0  0  0  0  0  0  0
  161.9560  203.5390  151.6360 C   0  0  0  0  0  2  0  0  0  0  0  0
  160.9280  210.8130  151.2360 N   0  0  0  0  0  0  0  0  0  0  0  0
  160.1880  206.4480  149.1160 C   0  0  0  0  0  2  0  0  0  0  0  0
  162.6460  207.4450  154.5210 O   0  0  0  0  0  0  0  0  0  0  0  0
  161.1560  207.2430  154.5240 S   0  0  0  0  0  0  0  0  0  0  0  0
  159.8360  209.5710  155.2320 C   0  0  0  0  0  0  0  0  0  0  0  0
  160.4620  207.5950  152.9230 C   0  0  1  0  0  3  0  0  0  0  0  0
  163.6460  206.8760  148.4550 O   0  0  0  0  0  0  0  0  0  0  0  0
  161.1130  208.4690  150.8040 C   0  0  1  0  0  3  0  0  0  0  0  0
  159.7590  209.9310  153.9480 C   0  0  0  0  0  3  0  0  0  0  0  0
  160.4240  208.3330  155.6480 N   0  0  0  0  0  2  0  0  0  0  0  0
  162.4730  207.3280  148.4090 C   0  0  0  0  0  0  0  0  0  0  0  0
  161.5610  205.9800  151.1120 C   0  0  2  0  0  3  0  0  0  0  0  0
  161.9560  210.5870  150.2760 C   0  0  0  0  0  0  0  0  0  0  0  0
  159.3410  210.5140  156.2680 C   0  0  0  0  0  1  0  0  0  0  0  0
  162.2330  208.7090  148.7040 N   0  0  0  0  0  2  0  0  0  0  0  0
  161.8920  204.9470  152.1980 C   0  0  0  0  0  2  0  0  0  0  0  0
  160.4490  204.2180  149.8210 C   0  0  0  0  0  2  0  0  0  0  0  0
  160.6410  203.2280  150.9570 C   0  0  0  0  0  2  0  0  0  0  0  0
  161.3390  206.3960  148.0880 C   0  0  0  0  0  2  0  0  0  0  0  0
  160.5120  209.5110  151.6240 C   0  0  1  0  0  3  0  0  0  0  0  0
  162.2790  209.1310  150.0960 C   0  0  2  0  0  3  0  0  0  0  0  0
  160.1760  209.0700  152.8260 C   0  0  1  0  0  3  0  0  0  0  0  0
  160.7090  212.0580  151.9550 C   0  0  0  0  0  1  0  0  0  0  0  0
  161.4770  207.3800  151.7810 C   0  0  2  0  0  3  0  0  0  0  0  0
  1  6  1  6  0  0  0
  1 16  1  0  0  0  0
  3 17  2  0  0  0  0
  4 20  1  0  0  0  0
  5 24  1  0  0  0  0
  5 27  1  0  0  0  0
  7  8  2  0  0  0  0
  8  2  2  0  0  0  0
  8 14  1  0  0  0  0
  9 14  1  0  0  0  0
  9 18  1  0  0  0  0
 10  8  1  1  0  0  0
 12 24  1  0  0  0  0
 12 28  1  0  0  0  0
 13  9  2  0  0  0  0
 15 11  2  0  0  0  0
 15 19  1  0  0  0  0
 16 28  1  0  0  0  0
 16 20  1  0  0  0  0
 17  5  1  0  0  0  0
 19 25  1  0  0  0  0
 21  1  1  0  0  0  0
 21 22  1  0  0  0  0
 22  4  1  0  0  0  0
 23 15  1  0  0  0  0
 23  6  1  0  0  0  0
 24 26  1  0  0  0  0
 25 17  1  0  0  0  0
 25 12  1  0  0  0  0
 26 10  1  0  0  0  0
 26 13  1  0  0  0  0
 28 10  1  0  0  0  0
M  END
>  <MODEL>
8

>  <REMARK>
 VINA RESULT:      -2.5      3.373      4.897
  Name = 
  0 active torsions:
  status: ('A' for Active; 'I' for Inactive)
                            x       y       z     vdW  Elec       q    Type
                         _______ _______ _______ _____ _____    ______ ____

>  <TORSDO>
F 0

$$$$
=
 OpenBabel11122414123D

 28 32  0  0  1  0  0  0  0  0999 V2000
  160.3690  208.6930  152.3840 N   0  0  2  0  0  0  0  0  0  0  0  0
  162.2610  209.3660  148.2100 O   0  0  0  0  0  0  0  0  0  0  0  0
  161.5610  202.4640  152.0090 O   0  0  0  0  0  0  0  0  0  0  0  0
  162.5350  210.6400  152.1560 C   0  0  0  0  0  2  0  0  0  0  0  0
  160.5780  203.7890  150.3210 N   0  0  0  0  0  0  0  0  0  0  0  0
  159.7190  207.6590  153.2150 C   0  0  0  0  0  2  0  0  0  0  0  0
  163.6480  207.3820  148.6610 O   0  0  0  0  0  0  0  0  0  0  0  0
  162.2730  207.8660  148.2910 S   0  0  0  0  0  0  0  0  0  0  0  0
  160.9840  206.0440  146.6530 C   0  0  0  0  0  0  0  0  0  0  0  0
  161.0640  207.3210  149.4790 C   0  0  1  0  0  3  0  0  0  0  0  0
  162.7040  206.4370  154.6900 O   0  0  0  0  0  0  0  0  0  0  0  0
  160.8910  205.9050  151.3880 C   0  0  1  0  0  3  0  0  0  0  0  0
  160.4560  205.4400  147.7210 C   0  0  0  0  0  2  0  0  0  0  0  0
  161.8170  207.2040  146.7610 N   0  0  0  0  0  0  0  0  0  0  0  0
  161.5340  206.2220  154.2820 C   0  0  0  0  0  0  0  0  0  0  0  0
  161.7060  208.2680  151.8850 C   0  0  2  0  0  3  0  0  0  0  0  0
  161.2620  203.6010  151.5570 C   0  0  0  0  0  0  0  0  0  0  0  0
  160.7400  205.4580  145.3090 C   0  0  0  0  0  1  0  0  0  0  0  0
  161.2390  205.0100  153.5790 N   0  0  0  0  0  2  0  0  0  0  0  0
  162.4890  209.4240  151.2490 C   0  0  0  0  0  2  0  0  0  0  0  0
  160.4560  209.8940  153.2250 C   0  0  0  0  0  2  0  0  0  0  0  0
  161.1180  211.0470  152.4920 C   0  0  0  0  0  2  0  0  0  0  0  0
  160.4760  207.2660  154.5030 C   0  0  0  0  0  2  0  0  0  0  0  0
  160.4670  205.1990  150.1880 C   0  0  1  0  0  3  0  0  0  0  0  0
  161.6800  204.8940  152.1970 C   0  0  2  0  0  3  0  0  0  0  0  0
  160.5900  205.9440  149.1000 C   0  0  1  0  0  3  0  0  0  0  0  0
  160.4560  202.7930  149.2680 C   0  0  0  0  0  1  0  0  0  0  0  0
  161.6760  207.0860  150.8770 C   0  0  2  0  0  3  0  0  0  0  0  0
  1  6  1  1  0  0  0
  1 21  1  0  0  0  0
  2  8  2  0  0  0  0
  4 22  1  0  0  0  0
  5 17  1  0  0  0  0
  6 23  1  0  0  0  0
  8  7  2  0  0  0  0
  9 14  2  0  0  0  0
  9 13  1  0  0  0  0
 10  8  1  6  0  0  0
 10 28  1  0  0  0  0
 12 25  1  0  0  0  0
 13 26  1  0  0  0  0
 14  8  1  0  0  0  0
 15 23  1  0  0  0  0
 15 11  2  0  0  0  0
 16  1  1  0  0  0  0
 17  3  2  0  0  0  0
 17 25  1  0  0  0  0
 18  9  1  0  0  0  0
 19 15  1  0  0  0  0
 20 16  1  0  0  0  0
 20  4  1  0  0  0  0
 22 21  1  0  0  0  0
 24  5  1  0  0  0  0
 24 12  1  0  0  0  0
 25 19  1  0  0  0  0
 26 10  1  0  0  0  0
 26 24  1  0  0  0  0
 27  5  1  0  0  0  0
 28 12  1  0  0  0  0
 28 16  1  0  0  0  0
M  END
>  <MODEL>
9

>  <REMARK>
 VINA RESULT:      -2.2      4.453      8.027
  Name = 
  0 active torsions:
  status: ('A' for Active; 'I' for Inactive)
                            x       y       z     vdW  Elec       q    Type
                         _______ _______ _______ _____ _____    ______ ____

>  <TORSDO>
F 0

$$$$
