=
 OpenBabel11122412513D

 32 37  0  0  1  0  0  0  0  0999 V2000
  159.3490  213.5010  147.2450 C   0  0  0  0  0  2  0  0  0  0  0  0
  161.5940  210.9440  151.8120 C   0  0  1  0  0  3  0  0  0  0  0  0
  161.2030  207.6490  148.3290 C   0  0  0  0  0  2  0  0  0  0  0  0
  160.9660  206.5100  149.3190 C   0  0  0  0  0  2  0  0  0  0  0  0
  161.0540  210.3530  154.2230 C   0  0  0  0  0  0  0  0  0  0  0  0
  160.7170  209.3670  155.1500 C   0  0  0  0  0  0  0  0  0  0  0  0
  160.6170  212.6530  150.2740 C   0  0  1  0  0  3  0  0  0  0  0  0
  162.6200  211.3080  149.6680 C   0  0  0  0  0  2  0  0  0  0  0  0
  160.2710  207.2060  155.9410 C   0  0  1  0  0  3  0  0  0  0  0  0
  161.6870  212.9230  147.9970 C   0  0  0  0  0  2  0  0  0  0  0  0
  162.1300  208.6850  148.9590 C   0  0  0  0  0  2  0  0  0  0  0  0
  162.3160  210.2890  150.6960 N   0  0  2  0  0  0  0  0  0  0  0  0
  161.5070  209.2390  150.1710 N   0  0  2  0  0  0  0  0  0  0  0  0
  161.1320  208.5860  152.5400 C   0  0  0  0  0  0  0  0  0  0  0  0
  160.1930  208.2250  157.1000 C   0  0  0  0  0  3  0  0  0  0  0  0
  158.4210  212.5910  148.5230 S   0  0  0  0  0  0  0  0  0  0  0  0
  161.3510  211.9620  149.1250 C   0  0  2  0  0  3  0  0  0  0  0  0
  160.4790  209.5440  156.5310 N   0  0  0  0  0  0  0  0  0  0  0  0
  159.3510  213.4100  149.8620 C   0  0  0  0  0  2  0  0  0  0  0  0
  160.6530  212.7910  146.8850 C   0  0  2  0  0  3  0  0  0  0  0  0
  160.4930  207.0580  150.6630 C   0  0  0  0  0  2  0  0  0  0  0  0
  161.4740  208.1290  151.1460 C   0  0  1  0  0  3  0  0  0  0  0  0
  160.8250  207.6650  153.5010 N   0  0  0  0  0  0  0  0  0  0  0  0
  160.2970  211.6260  151.3470 C   0  0  0  0  0  2  0  0  0  0  0  0
  161.1830  211.7780  154.6490 C   0  0  0  0  0  1  0  0  0  0  0  0
  158.9110  206.5640  155.7400 C   0  0  0  0  0  1  0  0  0  0  0  0
  161.2730  209.9500  152.8860 C   0  0  0  0  0  0  0  0  0  0  0  0
  160.6050  208.0650  154.7790 C   0  0  0  0  0  0  0  0  0  0  0  0
  161.1970  213.3630  145.6630 N   0  0  0  0  0  2  0  0  0  0  0  0
  160.8350  212.8910  144.3640 C   0  0  0  0  0  0  0  0  0  0  0  0
  160.0340  211.9290  144.2290 O   0  0  0  0  0  0  0  0  0  0  0  0
  161.4130  213.5400  143.1590 C   0  0  0  0  0  1  0  0  0  0  0  0
  1 16  1  0  0  0  0
  2 24  1  6  0  0  0
  2 27  1  0  0  0  0
  3 11  1  0  0  0  0
  3  4  1  0  0  0  0
  4 21  1  0  0  0  0
  5 25  1  0  0  0  0
  5  6  1  0  0  0  0
  6 18  1  0  0  0  0
  7 19  1  6  0  0  0
  7 24  1  0  0  0  0
  9 26  1  6  0  0  0
  9 15  1  0  0  0  0
 12  8  1  6  0  0  0
 12  2  1  0  0  0  0
 13 11  1  6  0  0  0
 13 12  1  0  0  0  0
 13 22  1  0  0  0  0
 14 27  1  0  0  0  0
 14 23  2  0  0  0  0
 16 19  1  0  0  0  0
 17 10  1  6  0  0  0
 17  8  1  0  0  0  0
 17  7  1  0  0  0  0
 18 15  2  0  0  0  0
 20 29  1  6  0  0  0
 20  1  1  0  0  0  0
 20 10  1  0  0  0  0
 22 21  1  6  0  0  0
 22 14  1  0  0  0  0
 23 28  1  0  0  0  0
 27  5  2  0  0  0  0
 28  6  2  0  0  0  0
 28  9  1  0  0  0  0
 30 29  1  0  0  0  0
 31 30  2  0  0  0  0
 32 30  1  0  0  0  0
M  END
>  <MODEL>
1

>  <REMARK>
 VINA RESULT:      -3.9      0.000      0.000
  Name = 
  1 active torsions:
  status: ('A' for Active; 'I' for Inactive)
    1  A    between atoms: C_20  and  N_29
                            x       y       z     vdW  Elec       q    Type
                         _______ _______ _______ _____ _____    ______ ____

>  <TORSDO>
F 1

$$$$
=
 OpenBabel11122412513D

 32 37  0  0  1  0  0  0  0  0999 V2000
  159.2780  210.7310  154.1620 C   0  0  0  0  0  2  0  0  0  0  0  0
  160.8310  213.6020  149.4950 C   0  0  1  0  0  3  0  0  0  0  0  0
  156.0280  213.7030  149.7490 C   0  0  0  0  0  2  0  0  0  0  0  0
  155.8660  213.7270  148.2310 C   0  0  0  0  0  2  0  0  0  0  0  0
  162.0050  213.2810  147.2650 C   0  0  0  0  0  0  0  0  0  0  0  0
  161.8980  213.1760  145.8790 C   0  0  0  0  0  0  0  0  0  0  0  0
  160.8920  212.2580  151.5990 C   0  0  1  0  0  3  0  0  0  0  0  0
  159.7310  214.4530  151.4570 C   0  0  0  0  0  2  0  0  0  0  0  0
  160.8410  213.1790  143.7860 C   0  0  1  0  0  3  0  0  0  0  0  0
  159.6380  213.1640  153.6020 C   0  0  0  0  0  2  0  0  0  0  0  0
  157.3070  214.4410  150.1350 C   0  0  0  0  0  2  0  0  0  0  0  0
  159.6730  214.3890  149.9800 N   0  0  2  0  0  0  0  0  0  0  0  0
  158.4690  213.7740  149.5290 N   0  0  2  0  0  0  0  0  0  0  0  0
  159.5880  213.6260  147.3140 C   0  0  0  0  0  0  0  0  0  0  0  0
  162.3610  212.9560  143.6160 C   0  0  0  0  0  3  0  0  0  0  0  0
  159.4010  210.0450  152.4770 S   0  0  0  0  0  0  0  0  0  0  0  0
  159.6870  213.0630  152.0870 C   0  0  2  0  0  3  0  0  0  0  0  0
  162.9480  212.9640  144.9580 N   0  0  0  0  0  0  0  0  0  0  0  0
  161.0120  210.8560  152.2050 C   0  0  0  0  0  2  0  0  0  0  0  0
  158.6650  212.1310  154.1550 C   0  0  2  0  0  3  0  0  0  0  0  0
  157.1300  213.2130  147.5490 C   0  0  0  0  0  2  0  0  0  0  0  0
  158.3400  213.9910  148.0730 C   0  0  1  0  0  3  0  0  0  0  0  0
  159.5540  213.5380  145.9500 N   0  0  0  0  0  0  0  0  0  0  0  0
  160.8570  212.1820  150.0830 C   0  0  0  0  0  2  0  0  0  0  0  0
  163.3350  213.1550  147.9320 C   0  0  0  0  0  1  0  0  0  0  0  0
  160.0920  211.9590  143.2860 C   0  0  0  0  0  1  0  0  0  0  0  0
  160.8210  213.5190  147.9990 C   0  0  0  0  0  0  0  0  0  0  0  0
  160.6950  213.2970  145.2570 C   0  0  0  0  0  0  0  0  0  0  0  0
  158.2950  212.5060  155.5110 N   0  0  0  0  0  2  0  0  0  0  0  0
  157.0890  213.2110  155.8130 C   0  0  0  0  0  0  0  0  0  0  0  0
  156.3000  213.5580  154.8960 O   0  0  0  0  0  0  0  0  0  0  0  0
  156.7650  213.5400  157.2250 C   0  0  0  0  0  1  0  0  0  0  0  0
  2 12  1  0  0  0  0
  2 24  1  1  0  0  0
  3 11  1  0  0  0  0
  4  3  1  0  0  0  0
  5 25  1  0  0  0  0
  5 27  1  0  0  0  0
  6  5  2  0  0  0  0
  7 24  1  6  0  0  0
  7 17  1  0  0  0  0
  7 19  1  0  0  0  0
  9 26  1  1  0  0  0
  9 28  1  0  0  0  0
 10 20  1  0  0  0  0
 12  8  1  1  0  0  0
 13 12  1  0  0  0  0
 13 11  1  1  0  0  0
 14 27  2  0  0  0  0
 14 22  1  0  0  0  0
 15  9  1  0  0  0  0
 15 18  2  0  0  0  0
 16  1  1  0  0  0  0
 17  8  1  6  0  0  0
 17 10  1  0  0  0  0
 18  6  1  0  0  0  0
 19 16  1  0  0  0  0
 20  1  1  0  0  0  0
 20 29  1  1  0  0  0
 21  4  1  0  0  0  0
 22 21  1  6  0  0  0
 22 13  1  0  0  0  0
 23 14  1  0  0  0  0
 27  2  1  0  0  0  0
 28  6  1  0  0  0  0
 28 23  2  0  0  0  0
 29 30  1  0  0  0  0
 30 32  1  0  0  0  0
 31 30  2  0  0  0  0
M  END
>  <MODEL>
2

>  <REMARK>
 VINA RESULT:      -2.8      3.731      8.755
  Name = 
  1 active torsions:
  status: ('A' for Active; 'I' for Inactive)
    1  A    between atoms: C_20  and  N_29
                            x       y       z     vdW  Elec       q    Type
                         _______ _______ _______ _____ _____    ______ ____

>  <TORSDO>
F 1

$$$$
=
 OpenBabel11122412513D

 32 37  0  0  1  0  0  0  0  0999 V2000
  161.8680  210.2640  150.7860 C   0  0  0  0  0  2  0  0  0  0  0  0
  161.6290  213.9430  146.4460 C   0  0  1  0  0  3  0  0  0  0  0  0
  157.1290  212.5800  147.4620 C   0  0  0  0  0  2  0  0  0  0  0  0
  156.6730  212.7140  146.0110 C   0  0  0  0  0  2  0  0  0  0  0  0
  162.3860  214.2250  144.0360 C   0  0  0  0  0  0  0  0  0  0  0  0
  162.0420  214.2390  142.6850 C   0  0  0  0  0  0  0  0  0  0  0  0
  162.4670  212.4640  148.2750 C   0  0  1  0  0  3  0  0  0  0  0  0
  160.7430  214.2160  148.6650 C   0  0  0  0  0  2  0  0  0  0  0  0
  160.6370  214.1480  140.8110 C   0  0  1  0  0  3  0  0  0  0  0  0
  161.4300  212.7390  150.5670 C   0  0  0  0  0  2  0  0  0  0  0  0
  158.2060  213.6210  147.7540 C   0  0  0  0  0  2  0  0  0  0  0  0
  160.4180  214.2940  147.2230 N   0  0  2  0  0  0  0  0  0  0  0  0
  159.3650  213.3980  146.8750 N   0  0  2  0  0  0  0  0  0  0  0  0
  160.0250  213.8250  144.5170 C   0  0  0  0  0  0  0  0  0  0  0  0
  162.0960  214.4080  140.3720 C   0  0  0  0  0  3  0  0  0  0  0  0
  161.8420  209.8280  149.0160 S   0  0  0  0  0  0  0  0  0  0  0  0
  161.2070  212.8170  149.0670 C   0  0  2  0  0  3  0  0  0  0  0  0
  162.9100  214.4490  141.5900 N   0  0  0  0  0  0  0  0  0  0  0  0
  163.0830  211.1070  148.6260 C   0  0  0  0  0  2  0  0  0  0  0  0
  160.9060  211.4100  151.0960 C   0  0  2  0  0  3  0  0  0  0  0  0
  157.8710  212.6750  145.0660 C   0  0  0  0  0  2  0  0  0  0  0  0
  158.8980  213.7190  145.5100 C   0  0  1  0  0  3  0  0  0  0  0  0
  159.7510  213.8750  143.1790 N   0  0  0  0  0  0  0  0  0  0  0  0
  162.1580  212.5420  146.7900 C   0  0  0  0  0  2  0  0  0  0  0  0
  163.8030  214.4310  144.4590 C   0  0  0  0  0  1  0  0  0  0  0  0
  160.1690  212.8200  140.2480 C   0  0  0  0  0  1  0  0  0  0  0  0
  161.3500  214.0190  144.9750 C   0  0  0  0  0  0  0  0  0  0  0  0
  160.7560  214.0610  142.2870 C   0  0  0  0  0  0  0  0  0  0  0  0
  160.7190  211.5130  152.5350 N   0  0  0  0  0  2  0  0  0  0  0  0
  159.4290  211.6250  153.1390 C   0  0  0  0  0  0  0  0  0  0  0  0
  158.3880  211.6620  152.4310 O   0  0  0  0  0  0  0  0  0  0  0  0
  159.3150  211.7020  154.6180 C   0  0  0  0  0  1  0  0  0  0  0  0
  1 20  1  0  0  0  0
  2 24  1  1  0  0  0
  2 12  1  0  0  0  0
  3 11  1  0  0  0  0
  4  3  1  0  0  0  0
  5 25  1  0  0  0  0
  5 27  1  0  0  0  0
  6  5  2  0  0  0  0
  7 24  1  6  0  0  0
  7 19  1  0  0  0  0
  7 17  1  0  0  0  0
  9 26  1  6  0  0  0
  9 28  1  0  0  0  0
 10 20  1  0  0  0  0
 12  8  1  1  0  0  0
 13 12  1  0  0  0  0
 13 11  1  1  0  0  0
 14 27  2  0  0  0  0
 14 22  1  0  0  0  0
 15  9  1  0  0  0  0
 15 18  2  0  0  0  0
 16  1  1  0  0  0  0
 17  8  1  1  0  0  0
 17 10  1  0  0  0  0
 18  6  1  0  0  0  0
 19 16  1  0  0  0  0
 20 29  1  1  0  0  0
 21  4  1  0  0  0  0
 22 21  1  6  0  0  0
 22 13  1  0  0  0  0
 23 14  1  0  0  0  0
 27  2  1  0  0  0  0
 28  6  1  0  0  0  0
 28 23  2  0  0  0  0
 29 30  1  0  0  0  0
 30 32  1  0  0  0  0
 31 30  2  0  0  0  0
M  END
>  <MODEL>
3

>  <REMARK>
 VINA RESULT:      -2.6      3.209      9.582
  Name = 
  1 active torsions:
  status: ('A' for Active; 'I' for Inactive)
    1  A    between atoms: C_20  and  N_29
                            x       y       z     vdW  Elec       q    Type
                         _______ _______ _______ _____ _____    ______ ____

>  <TORSDO>
F 1

$$$$
=
 OpenBabel11122412513D

 32 37  0  0  1  0  0  0  0  0999 V2000
  160.8740  209.3110  152.3530 C   0  0  0  0  0  2  0  0  0  0  0  0
  161.5380  213.0470  148.1060 C   0  0  1  0  0  3  0  0  0  0  0  0
  156.8210  212.5860  148.9310 C   0  0  0  0  0  2  0  0  0  0  0  0
  156.4570  212.8360  147.4690 C   0  0  0  0  0  2  0  0  0  0  0  0
  162.4280  213.2180  145.7320 C   0  0  0  0  0  0  0  0  0  0  0  0
  162.1470  213.3260  144.3710 C   0  0  0  0  0  0  0  0  0  0  0  0
  161.9940  211.3960  149.9230 C   0  0  1  0  0  3  0  0  0  0  0  0
  160.6380  213.4470  150.3000 C   0  0  0  0  0  2  0  0  0  0  0  0
  160.8250  213.5520  142.4480 C   0  0  1  0  0  3  0  0  0  0  0  0
  160.9440  211.8270  152.1850 C   0  0  0  0  0  2  0  0  0  0  0  0
  158.0710  213.3860  149.2880 C   0  0  0  0  0  2  0  0  0  0  0  0
  160.3910  213.6160  148.8510 N   0  0  2  0  0  0  0  0  0  0  0  0
  159.1950  212.9550  148.4430 N   0  0  2  0  0  0  0  0  0  0  0  0
  160.0190  213.2870  146.1210 C   0  0  0  0  0  0  0  0  0  0  0  0
  162.3230  213.5250  142.0660 C   0  0  0  0  0  3  0  0  0  0  0  0
  160.8310  208.9230  150.5720 S   0  0  0  0  0  0  0  0  0  0  0  0
  160.8000  211.9770  150.6800 C   0  0  2  0  0  3  0  0  0  0  0  0
  163.0800  213.3800  143.3120 N   0  0  0  0  0  0  0  0  0  0  0  0
  162.3150  209.9360  150.2580 C   0  0  0  0  0  2  0  0  0  0  0  0
  160.1470  210.6190  152.6600 C   0  0  2  0  0  3  0  0  0  0  0  0
  157.6590  212.5780  146.5650 C   0  0  0  0  0  2  0  0  0  0  0  0
  158.8550  213.3880  147.0720 C   0  0  1  0  0  3  0  0  0  0  0  0
  159.8120  213.4160  144.7770 N   0  0  0  0  0  0  0  0  0  0  0  0
  161.7650  211.5620  148.4310 C   0  0  0  0  0  2  0  0  0  0  0  0
  163.8410  213.1300  146.2080 C   0  0  0  0  0  1  0  0  0  0  0  0
  160.1260  212.3550  141.8340 C   0  0  0  0  0  1  0  0  0  0  0  0
  161.3360  213.2050  146.6290 C   0  0  0  0  0  0  0  0  0  0  0  0
  160.8670  213.4150  143.9240 C   0  0  0  0  0  0  0  0  0  0  0  0
  159.9290  210.7290  154.0940 N   0  0  0  0  0  2  0  0  0  0  0  0
  158.7090  211.2210  154.6530 C   0  0  0  0  0  0  0  0  0  0  0  0
  157.7690  211.6060  153.9080 O   0  0  0  0  0  0  0  0  0  0  0  0
  158.5490  211.2830  156.1280 C   0  0  0  0  0  1  0  0  0  0  0  0
  1 20  1  0  0  0  0
  2 24  1  6  0  0  0
  2 12  1  0  0  0  0
  3 11  1  0  0  0  0
  4  3  1  0  0  0  0
  5 25  1  0  0  0  0
  5 27  1  0  0  0  0
  6  5  2  0  0  0  0
  7 24  1  6  0  0  0
  7 19  1  0  0  0  0
  7 17  1  0  0  0  0
  9 26  1  6  0  0  0
  9 28  1  0  0  0  0
 10 20  1  0  0  0  0
 12  8  1  1  0  0  0
 13 12  1  0  0  0  0
 13 11  1  1  0  0  0
 14 27  2  0  0  0  0
 14 22  1  0  0  0  0
 15  9  1  0  0  0  0
 15 18  2  0  0  0  0
 16  1  1  0  0  0  0
 17  8  1  1  0  0  0
 17 10  1  0  0  0  0
 18  6  1  0  0  0  0
 19 16  1  0  0  0  0
 20 29  1  1  0  0  0
 21  4  1  0  0  0  0
 22 21  1  6  0  0  0
 22 13  1  0  0  0  0
 23 14  1  0  0  0  0
 27  2  1  0  0  0  0
 28  6  1  0  0  0  0
 28 23  2  0  0  0  0
 29 30  1  0  0  0  0
 30 32  1  0  0  0  0
 31 30  2  0  0  0  0
M  END
>  <MODEL>
4

>  <REMARK>
 VINA RESULT:      -1.4      3.101      8.894
  Name = 
  1 active torsions:
  status: ('A' for Active; 'I' for Inactive)
    1  A    between atoms: C_20  and  N_29
                            x       y       z     vdW  Elec       q    Type
                         _______ _______ _______ _____ _____    ______ ____

>  <TORSDO>
F 1

$$$$
=
 OpenBabel11122412513D

 32 37  0  0  1  0  0  0  0  0999 V2000
  157.9430  213.1440  145.6070 C   0  0  0  0  0  2  0  0  0  0  0  0
  159.9900  213.3260  150.9180 C   0  0  1  0  0  3  0  0  0  0  0  0
  162.0710  209.6170  148.6700 C   0  0  0  0  0  2  0  0  0  0  0  0
  162.1860  208.7970  149.9530 C   0  0  0  0  0  2  0  0  0  0  0  0
  159.2490  213.1240  153.3400 C   0  0  0  0  0  0  0  0  0  0  0  0
  159.2220  212.3610  154.5060 C   0  0  0  0  0  0  0  0  0  0  0  0
  158.7050  213.8380  148.8380 C   0  0  1  0  0  3  0  0  0  0  0  0
  161.1870  213.6630  148.8600 C   0  0  0  0  0  2  0  0  0  0  0  0
  159.7000  210.5500  155.9160 C   0  0  1  0  0  3  0  0  0  0  0  0
  160.0160  214.0910  146.6880 C   0  0  0  0  0  2  0  0  0  0  0  0
  162.2050  211.1010  149.0010 C   0  0  0  0  0  2  0  0  0  0  0  0
  161.1780  212.9140  150.1360 N   0  0  2  0  0  0  0  0  0  0  0  0
  161.1260  211.5060  149.9150 N   0  0  2  0  0  0  0  0  0  0  0  0
  160.5650  211.3320  152.3310 C   0  0  0  0  0  0  0  0  0  0  0  0
  158.8690  211.6100  156.6730 C   0  0  0  0  0  3  0  0  0  0  0  0
  157.2960  212.2110  147.0330 S   0  0  0  0  0  0  0  0  0  0  0  0
  159.9300  213.3950  148.0360 C   0  0  2  0  0  3  0  0  0  0  0  0
  158.6090  212.7030  155.7330 N   0  0  0  0  0  0  0  0  0  0  0  0
  157.3700  213.6860  148.1040 C   0  0  0  0  0  2  0  0  0  0  0  0
  159.4700  213.1740  145.6010 C   0  0  2  0  0  3  0  0  0  0  0  0
  161.2050  209.3070  151.0050 C   0  0  0  0  0  2  0  0  0  0  0  0
  161.4020  210.8140  151.1910 C   0  0  1  0  0  3  0  0  0  0  0  0
  160.5220  210.6450  153.5110 N   0  0  0  0  0  0  0  0  0  0  0  0
  158.6770  213.0840  150.1560 C   0  0  0  0  0  2  0  0  0  0  0  0
  158.5710  214.4530  153.2910 C   0  0  0  0  0  1  0  0  0  0  0  0
  158.9090  209.2590  155.8260 C   0  0  0  0  0  1  0  0  0  0  0  0
  159.9440  212.5990  152.2280 C   0  0  0  0  0  0  0  0  0  0  0  0
  159.8420  211.1530  154.5690 C   0  0  0  0  0  0  0  0  0  0  0  0
  159.9420  213.6410  144.3060 N   0  0  0  0  0  2  0  0  0  0  0  0
  160.2250  212.7540  143.2230 C   0  0  0  0  0  0  0  0  0  0  0  0
  160.0950  211.5080  143.3610 O   0  0  0  0  0  0  0  0  0  0  0  0
  160.6810  213.3050  141.9210 C   0  0  0  0  0  1  0  0  0  0  0  0
  1 16  1  0  0  0  0
  2 24  1  6  0  0  0
  2 27  1  0  0  0  0
  3 11  1  0  0  0  0
  3  4  1  0  0  0  0
  4 21  1  0  0  0  0
  5  6  1  0  0  0  0
  6 28  2  0  0  0  0
  6 18  1  0  0  0  0
  7 19  1  6  0  0  0
  7 24  1  0  0  0  0
  9 26  1  6  0  0  0
  9 15  1  0  0  0  0
 12  8  1  6  0  0  0
 12  2  1  0  0  0  0
 13 11  1  6  0  0  0
 13 12  1  0  0  0  0
 13 22  1  0  0  0  0
 14 23  2  0  0  0  0
 16 19  1  0  0  0  0
 17 10  1  6  0  0  0
 17  7  1  0  0  0  0
 17  8  1  0  0  0  0
 18 15  2  0  0  0  0
 20 29  1  6  0  0  0
 20  1  1  0  0  0  0
 20 10  1  0  0  0  0
 22 21  1  6  0  0  0
 22 14  1  0  0  0  0
 23 28  1  0  0  0  0
 25  5  1  0  0  0  0
 27 14  1  0  0  0  0
 27  5  2  0  0  0  0
 28  9  1  0  0  0  0
 30 31  2  0  0  0  0
 30 29  1  0  0  0  0
 32 30  1  0  0  0  0
M  END
>  <MODEL>
5

>  <REMARK>
 VINA RESULT:      -1.3      1.915      2.709
  Name = 
  1 active torsions:
  status: ('A' for Active; 'I' for Inactive)
    1  A    between atoms: C_20  and  N_29
                            x       y       z     vdW  Elec       q    Type
                         _______ _______ _______ _____ _____    ______ ____

>  <TORSDO>
F 1

$$$$
