=
 OpenBabel11122412483D

 32 37  0  0  1  0  0  0  0  0999 V2000
  161.0910  210.6970  153.7260 O   0  0  0  0  0  0  0  0  0  0  0  0
  161.5610  206.2610  150.1300 C   0  0  0  0  0  0  0  0  0  0  0  0
  161.1100  201.7220  152.0040 C   0  0  0  0  0  3  0  0  0  0  0  0
  160.9260  201.1930  150.7260 C   0  0  0  0  0  3  0  0  0  0  0  0
  161.5930  206.6330  147.5870 C   0  0  2  0  0  3  0  0  0  0  0  0
  161.3360  205.9400  146.2760 C   0  0  0  0  0  0  0  0  0  0  0  0
  161.5710  208.2160  151.5940 C   0  0  0  0  0  0  0  0  0  0  0  0
  161.2350  206.0010  152.5240 C   0  0  0  0  0  3  0  0  0  0  0  0
  160.8820  204.3530  144.7030 C   0  0  2  0  0  3  0  0  0  0  0  0
  161.1570  207.9070  154.0220 N   0  0  0  0  0  2  0  0  0  0  0  0
  161.2510  203.1010  152.1740 C   0  0  0  0  0  3  0  0  0  0  0  0
  161.3490  205.4290  151.2480 C   0  0  0  0  0  0  0  0  0  0  0  0
  161.2190  203.9640  151.0670 C   0  0  0  0  0  0  0  0  0  0  0  0
  160.9220  204.3610  148.5890 C   0  0  2  0  0  3  0  0  0  0  0  0
  160.9040  205.6570  144.0170 N   0  0  0  0  0  0  0  0  0  0  0  0
  160.7130  210.4380  152.3980 C   0  0  0  0  0  2  0  0  0  0  0  0
  161.3350  207.3810  152.7080 C   0  0  0  0  0  0  0  0  0  0  0  0
  161.1870  206.5880  145.0320 N   0  0  0  0  0  0  0  0  0  0  0  0
  161.8390  209.6860  151.7110 C   0  0  0  0  0  2  0  0  0  0  0  0
  159.9220  208.5930  154.3670 C   0  0  0  0  0  2  0  0  0  0  0  0
  160.8870  202.0420  149.6180 C   0  0  0  0  0  3  0  0  0  0  0  0
  161.0560  203.4290  149.7720 C   0  0  0  0  0  0  0  0  0  0  0  0
  161.2600  203.6750  147.2580 C   0  0  0  0  0  2  0  0  0  0  0  0
  161.6970  207.6440  150.3260 C   0  0  0  0  0  3  0  0  0  0  0  0
  162.8310  207.5040  147.4450 C   0  0  0  0  0  1  0  0  0  0  0  0
  159.5190  203.7110  144.5290 C   0  0  0  0  0  1  0  0  0  0  0  0
  161.7820  205.6380  148.7620 C   0  0  2  0  0  3  0  0  0  0  0  0
  161.1310  204.6560  146.1390 C   0  0  0  0  0  0  0  0  0  0  0  0
  160.1730  210.0850  154.6120 C   0  0  2  0  0  3  0  0  0  0  0  0
  158.9010  210.8630  154.7400 C   0  0  0  0  0  0  0  0  0  0  0  0
  158.7900  212.1320  154.1840 O   0  0  0  0  0  0  0  0  0  0  0  0
  157.9330  210.3750  155.3780 O   0  0  0  0  0  1  0  0  0  0  0  0
  1 29  1  0  0  0  0
  2 24  2  0  0  0  0
  2 12  1  0  0  0  0
  3 11  1  0  0  0  0
  4  3  2  0  0  0  0
  5 25  1  6  0  0  0
  5 27  1  0  0  0  0
  6  5  1  0  0  0  0
  7 19  1  0  0  0  0
  7 17  2  0  0  0  0
  8 17  1  0  0  0  0
  9 26  1  1  0  0  0
  9 28  1  0  0  0  0
 10 20  1  0  0  0  0
 12  8  2  0  0  0  0
 13 12  1  0  0  0  0
 13 11  2  0  0  0  0
 14 23  1  6  0  0  0
 14 27  1  0  0  0  0
 14 22  1  0  0  0  0
 15  9  1  0  0  0  0
 15 18  2  0  0  0  0
 16  1  1  0  0  0  0
 17 10  1  0  0  0  0
 18  6  1  0  0  0  0
 19 16  1  0  0  0  0
 20 29  1  0  0  0  0
 21 22  2  0  0  0  0
 21  4  1  0  0  0  0
 22 13  1  0  0  0  0
 24  7  1  0  0  0  0
 27  2  1  1  0  0  0
 28  6  2  0  0  0  0
 28 23  1  0  0  0  0
 29 30  1  6  0  0  0
 30 32  1  0  0  0  0
 31 30  2  0  0  0  0
M  END
>  <MODEL>
1

>  <REMARK>
 VINA RESULT:      -8.7      0.000      0.000
  Name = 
  1 active torsions:
  status: ('A' for Active; 'I' for Inactive)
    1  A    between atoms: C_29  and  C_30
                            x       y       z     vdW  Elec       q    Type
                         _______ _______ _______ _____ _____    ______ ____

>  <TORSDO>
F 1

$$$$
=
 OpenBabel11122412483D

 32 37  0  0  1  0  0  0  0  0999 V2000
  162.0240  205.4320  153.0800 O   0  0  0  0  0  0  0  0  0  0  0  0
  159.9620  210.7760  152.9140 C   0  0  0  0  0  0  0  0  0  0  0  0
  161.0780  213.5500  148.9930 C   0  0  0  0  0  3  0  0  0  0  0  0
  160.0650  214.4530  149.3220 C   0  0  0  0  0  3  0  0  0  0  0  0
  158.1950  211.5520  154.6120 C   0  0  2  0  0  3  0  0  0  0  0  0
  157.1130  212.5770  154.8230 C   0  0  0  0  0  0  0  0  0  0  0  0
  160.9410  208.5540  153.1850 C   0  0  0  0  0  0  0  0  0  0  0  0
  161.4130  209.8580  151.1950 C   0  0  0  0  0  3  0  0  0  0  0  0
  155.7310  214.3720  154.5630 C   0  0  2  0  0  3  0  0  0  0  0  0
  162.3540  207.6290  151.3660 N   0  0  0  0  0  2  0  0  0  0  0  0
  161.2590  212.3980  149.7610 C   0  0  0  0  0  3  0  0  0  0  0  0
  160.6170  210.9090  151.6730 C   0  0  0  0  0  0  0  0  0  0  0  0
  160.4370  212.1410  150.8700 C   0  0  0  0  0  0  0  0  0  0  0  0
  158.4800  212.7450  152.3500 C   0  0  2  0  0  3  0  0  0  0  0  0
  155.2310  213.5960  155.7110 N   0  0  0  0  0  0  0  0  0  0  0  0
  160.8320  206.0600  153.4780 C   0  0  0  0  0  2  0  0  0  0  0  0
  161.5760  208.6830  151.9300 C   0  0  0  0  0  0  0  0  0  0  0  0
  156.1180  212.5090  155.8210 N   0  0  0  0  0  0  0  0  0  0  0  0
  161.1740  207.3980  154.1100 C   0  0  0  0  0  2  0  0  0  0  0  0
  161.6950  206.4480  150.8300 C   0  0  0  0  0  2  0  0  0  0  0  0
  159.2390  214.2060  150.4200 C   0  0  0  0  0  3  0  0  0  0  0  0
  159.4290  213.0650  151.2170 C   0  0  0  0  0  0  0  0  0  0  0  0
  157.8090  213.9990  152.9270 C   0  0  0  0  0  2  0  0  0  0  0  0
  160.1600  209.6070  153.6660 C   0  0  0  0  0  3  0  0  0  0  0  0
  158.9550  211.3670  155.9150 C   0  0  0  0  0  1  0  0  0  0  0  0
  154.6540  214.4530  153.4980 C   0  0  0  0  0  1  0  0  0  0  0  0
  159.1800  211.9490  153.4790 C   0  0  2  0  0  3  0  0  0  0  0  0
  156.9060  213.6120  154.0530 C   0  0  0  0  0  0  0  0  0  0  0  0
  162.0050  205.2120  151.6830 C   0  0  2  0  0  3  0  0  0  0  0  0
  161.1660  204.0330  151.3030 C   0  0  0  0  0  0  0  0  0  0  0  0
  161.2490  202.8470  152.0210 O   0  0  0  0  0  1  0  0  0  0  0  0
  160.3970  204.1090  150.3100 O   0  0  0  0  0  0  0  0  0  0  0  0
  1 16  1  0  0  0  0
  2 24  1  0  0  0  0
  3  4  2  0  0  0  0
  3 11  1  0  0  0  0
  4 21  1  0  0  0  0
  5  6  1  0  0  0  0
  5 25  1  1  0  0  0
  6 18  1  0  0  0  0
  7 24  2  0  0  0  0
  7 19  1  0  0  0  0
  8 12  1  0  0  0  0
  8 17  2  0  0  0  0
  9 26  1  6  0  0  0
  9 15  1  0  0  0  0
 10 17  1  0  0  0  0
 11 13  2  0  0  0  0
 12  2  2  0  0  0  0
 13 22  1  0  0  0  0
 13 12  1  0  0  0  0
 14 23  1  1  0  0  0
 14 27  1  0  0  0  0
 15 18  2  0  0  0  0
 16 19  1  0  0  0  0
 17  7  1  0  0  0  0
 20 10  1  0  0  0  0
 20 29  1  0  0  0  0
 21 22  2  0  0  0  0
 22 14  1  0  0  0  0
 23 28  1  0  0  0  0
 27  2  1  6  0  0  0
 27  5  1  0  0  0  0
 28  9  1  0  0  0  0
 28  6  2  0  0  0  0
 29 30  1  1  0  0  0
 29  1  1  0  0  0  0
 30 31  1  0  0  0  0
 32 30  2  0  0  0  0
M  END
>  <MODEL>
2

>  <REMARK>
 VINA RESULT:      -7.4      3.888      9.419
  Name = 
  1 active torsions:
  status: ('A' for Active; 'I' for Inactive)
    1  A    between atoms: C_29  and  C_30
                            x       y       z     vdW  Elec       q    Type
                         _______ _______ _______ _____ _____    ______ ____

>  <TORSDO>
F 1

$$$$
=
 OpenBabel11122412483D

 32 37  0  0  1  0  0  0  0  0999 V2000
  161.7250  212.8600  148.9760 O   0  0  0  0  0  0  0  0  0  0  0  0
  161.7840  207.1330  149.1270 C   0  0  0  0  0  0  0  0  0  0  0  0
  161.1010  204.9400  153.4910 C   0  0  0  0  0  3  0  0  0  0  0  0
  160.8400  203.7240  152.8600 C   0  0  0  0  0  3  0  0  0  0  0  0
  161.7550  205.7630  146.9520 C   0  0  2  0  0  3  0  0  0  0  0  0
  161.4100  204.4060  146.4010 C   0  0  0  0  0  0  0  0  0  0  0  0
  161.9710  209.5640  148.9720 C   0  0  0  0  0  0  0  0  0  0  0  0
  161.5230  208.5110  151.1110 C   0  0  0  0  0  3  0  0  0  0  0  0
  160.8010  202.2160  146.2270 C   0  0  2  0  0  3  0  0  0  0  0  0
  161.6190  210.9330  151.0120 N   0  0  0  0  0  2  0  0  0  0  0  0
  161.3370  206.0860  152.7280 C   0  0  0  0  0  3  0  0  0  0  0  0
  161.5560  207.2420  150.5140 C   0  0  0  0  0  0  0  0  0  0  0  0
  161.3240  206.0240  151.3250 C   0  0  0  0  0  0  0  0  0  0  0  0
  160.9710  204.7390  149.1780 C   0  0  2  0  0  3  0  0  0  0  0  0
  160.8850  202.7580  144.8600 N   0  0  0  0  0  0  0  0  0  0  0  0
  161.2870  211.8300  148.1270 C   0  0  0  0  0  2  0  0  0  0  0  0
  161.7180  209.6690  150.3580 C   0  0  0  0  0  0  0  0  0  0  0  0
  161.2620  204.1020  145.0320 N   0  0  0  0  0  0  0  0  0  0  0  0
  162.3380  210.7340  148.1110 C   0  0  0  0  0  2  0  0  0  0  0  0
  160.4430  211.7650  150.8080 C   0  0  0  0  0  2  0  0  0  0  0  0
  160.8190  203.6520  151.4650 C   0  0  0  0  0  3  0  0  0  0  0  0
  161.0830  204.7900  150.6850 C   0  0  0  0  0  0  0  0  0  0  0  0
  161.2190  203.3320  148.6170 C   0  0  0  0  0  2  0  0  0  0  0  0
  162.0170  208.2980  148.3820 C   0  0  0  0  0  3  0  0  0  0  0  0
  163.0420  206.2440  146.3000 C   0  0  0  0  0  1  0  0  0  0  0  0
  159.3930  201.7140  146.4890 C   0  0  0  0  0  1  0  0  0  0  0  0
  161.9180  205.7580  148.4960 C   0  0  2  0  0  3  0  0  0  0  0  0
  161.1170  203.3590  147.1270 C   0  0  0  0  0  0  0  0  0  0  0  0
  160.7990  213.0370  150.0300 C   0  0  2  0  0  3  0  0  0  0  0  0
  159.5860  213.8000  149.6010 C   0  0  0  0  0  0  0  0  0  0  0  0
  159.4700  214.2650  148.2970 O   0  0  0  0  0  0  0  0  0  0  0  0
  158.6760  214.0440  150.4340 O   0  0  0  0  0  1  0  0  0  0  0  0
  1 29  1  0  0  0  0
  2 12  1  0  0  0  0
  4  3  1  0  0  0  0
  5 25  1  6  0  0  0
  5 27  1  0  0  0  0
  6  5  1  0  0  0  0
  6 28  2  0  0  0  0
  7 17  2  0  0  0  0
  9 26  1  1  0  0  0
  9 28  1  0  0  0  0
 11  3  2  0  0  0  0
 12  8  2  0  0  0  0
 12 13  1  0  0  0  0
 13 11  1  0  0  0  0
 14 23  1  6  0  0  0
 14 22  1  0  0  0  0
 15 18  2  0  0  0  0
 15  9  1  0  0  0  0
 16  1  1  0  0  0  0
 17 10  1  0  0  0  0
 17  8  1  0  0  0  0
 18  6  1  0  0  0  0
 19 16  1  0  0  0  0
 19  7  1  0  0  0  0
 20 10  1  0  0  0  0
 21  4  2  0  0  0  0
 22 13  2  0  0  0  0
 22 21  1  0  0  0  0
 24  7  1  0  0  0  0
 24  2  2  0  0  0  0
 27  2  1  1  0  0  0
 27 14  1  0  0  0  0
 28 23  1  0  0  0  0
 29 30  1  6  0  0  0
 29 20  1  0  0  0  0
 30 32  1  0  0  0  0
 31 30  2  0  0  0  0
M  END
>  <MODEL>
3

>  <REMARK>
 VINA RESULT:      -7.4      2.596      3.415
  Name = 
  1 active torsions:
  status: ('A' for Active; 'I' for Inactive)
    1  A    between atoms: C_29  and  C_30
                            x       y       z     vdW  Elec       q    Type
                         _______ _______ _______ _____ _____    ______ ____

>  <TORSDO>
F 1

$$$$
=
 OpenBabel11122412483D

 32 37  0  0  1  0  0  0  0  0999 V2000
  161.5140  202.7210  146.1230 O   0  0  0  0  0  0  0  0  0  0  0  0
  161.7860  206.9460  149.9840 C   0  0  0  0  0  0  0  0  0  0  0  0
  162.2680  211.5600  148.3140 C   0  0  0  0  0  3  0  0  0  0  0  0
  161.8960  212.0690  149.5590 C   0  0  0  0  0  3  0  0  0  0  0  0
  161.2640  206.4940  152.4600 C   0  0  2  0  0  3  0  0  0  0  0  0
  160.8360  207.1740  153.7330 C   0  0  0  0  0  0  0  0  0  0  0  0
  161.8530  205.0520  148.4430 C   0  0  0  0  0  0  0  0  0  0  0  0
  161.9790  207.3200  147.5910 C   0  0  0  0  0  3  0  0  0  0  0  0
  160.2710  208.7570  155.2730 C   0  0  2  0  0  3  0  0  0  0  0  0
  161.9730  205.4870  146.0020 N   0  0  0  0  0  2  0  0  0  0  0  0
  162.2730  210.1810  148.0980 C   0  0  0  0  0  3  0  0  0  0  0  0
  161.9030  207.8320  148.8940 C   0  0  0  0  0  0  0  0  0  0  0  0
  161.9160  209.2950  149.1280 C   0  0  0  0  0  0  0  0  0  0  0  0
  161.0850  208.8640  151.4750 C   0  0  2  0  0  3  0  0  0  0  0  0
  159.9980  207.4410  155.8770 N   0  0  0  0  0  0  0  0  0  0  0  0
  160.9130  202.9850  147.3650 C   0  0  0  0  0  2  0  0  0  0  0  0
  161.9470  205.9450  147.3530 C   0  0  0  0  0  0  0  0  0  0  0  0
  160.3640  206.5120  154.8850 N   0  0  0  0  0  0  0  0  0  0  0  0
  161.9610  203.5640  148.2990 C   0  0  0  0  0  2  0  0  0  0  0  0
  160.7580  204.9760  145.3860 C   0  0  0  0  0  2  0  0  0  0  0  0
  161.5350  211.1990  150.5890 C   0  0  0  0  0  3  0  0  0  0  0  0
  161.5640  209.8070  150.3940 C   0  0  0  0  0  0  0  0  0  0  0  0
  161.2310  209.4600  152.8820 C   0  0  0  0  0  2  0  0  0  0  0  0
  161.7910  205.5640  149.7410 C   0  0  0  0  0  3  0  0  0  0  0  0
  162.3350  205.4670  152.7900 C   0  0  0  0  0  1  0  0  0  0  0  0
  158.9870  209.5640  155.2140 C   0  0  0  0  0  1  0  0  0  0  0  0
  161.8020  207.4930  151.4010 C   0  0  2  0  0  3  0  0  0  0  0  0
  160.7630  208.4690  153.8980 C   0  0  0  0  0  0  0  0  0  0  0  0
  160.8720  203.4720  145.1110 C   0  0  2  0  0  3  0  0  0  0  0  0
  159.5670  202.8690  144.6960 C   0  0  0  0  0  0  0  0  0  0  0  0
  159.3250  201.5140  144.8810 O   0  0  0  0  0  1  0  0  0  0  0  0
  158.6920  203.5910  144.1510 O   0  0  0  0  0  0  0  0  0  0  0  0
  1 16  1  0  0  0  0
  3  4  1  0  0  0  0
  4 21  2  0  0  0  0
  5 25  1  1  0  0  0
  5  6  1  0  0  0  0
  6 28  2  0  0  0  0
  6 18  1  0  0  0  0
  7 24  2  0  0  0  0
  8 12  1  0  0  0  0
  9 26  1  6  0  0  0
  9 15  1  0  0  0  0
 10 17  1  0  0  0  0
 11  3  2  0  0  0  0
 11 13  1  0  0  0  0
 12 13  1  0  0  0  0
 12  2  2  0  0  0  0
 13 22  2  0  0  0  0
 14 23  1  1  0  0  0
 16 19  1  0  0  0  0
 17  8  2  0  0  0  0
 17  7  1  0  0  0  0
 18 15  2  0  0  0  0
 19  7  1  0  0  0  0
 20 10  1  0  0  0  0
 22 21  1  0  0  0  0
 22 14  1  0  0  0  0
 23 28  1  0  0  0  0
 24  2  1  0  0  0  0
 27  2  1  6  0  0  0
 27 14  1  0  0  0  0
 27  5  1  0  0  0  0
 28  9  1  0  0  0  0
 29 30  1  1  0  0  0
 29 20  1  0  0  0  0
 29  1  1  0  0  0  0
 30 31  1  0  0  0  0
 32 30  2  0  0  0  0
M  END
>  <MODEL>
4

>  <REMARK>
 VINA RESULT:      -7.2      4.032      8.765
  Name = 
  1 active torsions:
  status: ('A' for Active; 'I' for Inactive)
    1  A    between atoms: C_29  and  C_30
                            x       y       z     vdW  Elec       q    Type
                         _______ _______ _______ _____ _____    ______ ____

>  <TORSDO>
F 1

$$$$
=
 OpenBabel11122412483D

 32 37  0  0  1  0  0  0  0  0999 V2000
  162.0350  204.0220  151.9480 O   0  0  0  0  0  0  0  0  0  0  0  0
  160.7360  209.5580  152.6470 C   0  0  0  0  0  0  0  0  0  0  0  0
  161.6700  212.6300  148.9040 C   0  0  0  0  0  3  0  0  0  0  0  0
  160.8490  213.6030  149.4740 C   0  0  0  0  0  3  0  0  0  0  0  0
  159.3470  210.3340  154.6660 C   0  0  2  0  0  3  0  0  0  0  0  0
  158.4580  211.4500  155.1450 C   0  0  0  0  0  0  0  0  0  0  0  0
  161.4240  207.2170  152.5360 C   0  0  0  0  0  0  0  0  0  0  0  0
  161.7910  208.6850  150.6400 C   0  0  0  0  0  3  0  0  0  0  0  0
  157.3170  213.4190  155.2850 C   0  0  2  0  0  3  0  0  0  0  0  0
  162.4270  206.3530  150.4360 N   0  0  0  0  0  2  0  0  0  0  0  0
  161.7940  211.3790  149.5130 C   0  0  0  0  0  3  0  0  0  0  0  0
  161.2230  209.7600  151.3400 C   0  0  0  0  0  0  0  0  0  0  0  0
  161.1070  211.0930  150.7030 C   0  0  0  0  0  0  0  0  0  0  0  0
  159.4780  211.7480  152.5210 C   0  0  2  0  0  3  0  0  0  0  0  0
  156.8790  212.5770  156.4110 N   0  0  0  0  0  0  0  0  0  0  0  0
  161.0100  204.7380  152.5860 C   0  0  0  0  0  2  0  0  0  0  0  0
  161.8890  207.4180  151.2180 C   0  0  0  0  0  0  0  0  0  0  0  0
  157.6120  211.3850  156.2710 N   0  0  0  0  0  0  0  0  0  0  0  0
  161.6200  205.9370  153.2910 C   0  0  0  0  0  2  0  0  0  0  0  0
  161.5420  205.3350  149.8910 C   0  0  0  0  0  2  0  0  0  0  0  0
  160.1570  213.3290  150.6560 C   0  0  0  0  0  3  0  0  0  0  0  0
  160.2950  212.0840  151.2940 C   0  0  0  0  0  0  0  0  0  0  0  0
  159.0750  212.9960  153.3190 C   0  0  0  0  0  2  0  0  0  0  0  0
  160.8710  208.2920  153.2360 C   0  0  0  0  0  3  0  0  0  0  0  0
  160.2480  209.9000  155.8110 C   0  0  0  0  0  1  0  0  0  0  0  0
  156.1250  213.7610  154.4120 C   0  0  0  0  0  1  0  0  0  0  0  0
  160.2100  210.7410  153.4420 C   0  0  2  0  0  3  0  0  0  0  0  0
  158.2930  212.5890  154.5250 C   0  0  0  0  0  0  0  0  0  0  0  0
  161.7920  203.9770  150.5560 C   0  0  2  0  0  3  0  0  0  0  0  0
  160.7520  202.9640  150.1910 C   0  0  0  0  0  0  0  0  0  0  0  0
  160.6410  201.7780  150.9060 O   0  0  0  0  0  1  0  0  0  0  0  0
  159.9900  203.1780  149.2140 O   0  0  0  0  0  0  0  0  0  0  0  0
  1 16  1  0  0  0  0
  2 24  1  0  0  0  0
  3  4  2  0  0  0  0
  3 11  1  0  0  0  0
  4 21  1  0  0  0  0
  5  6  1  0  0  0  0
  5 25  1  1  0  0  0
  6 18  1  0  0  0  0
  7 24  2  0  0  0  0
  7 19  1  0  0  0  0
  8 17  2  0  0  0  0
  8 12  1  0  0  0  0
  9 26  1  6  0  0  0
  9 15  1  0  0  0  0
 10 17  1  0  0  0  0
 11 13  2  0  0  0  0
 12  2  2  0  0  0  0
 13 22  1  0  0  0  0
 13 12  1  0  0  0  0
 14 23  1  1  0  0  0
 14 27  1  0  0  0  0
 16 19  1  0  0  0  0
 17  7  1  0  0  0  0
 18 15  2  0  0  0  0
 20 10  1  0  0  0  0
 20 29  1  0  0  0  0
 21 22  2  0  0  0  0
 22 14  1  0  0  0  0
 23 28  1  0  0  0  0
 27  2  1  6  0  0  0
 27  5  1  0  0  0  0
 28  6  2  0  0  0  0
 28  9  1  0  0  0  0
 29 30  1  1  0  0  0
 29  1  1  0  0  0  0
 30 31  1  0  0  0  0
 32 30  2  0  0  0  0
M  END
>  <MODEL>
5

>  <REMARK>
 VINA RESULT:      -7.0      3.700      9.089
  Name = 
  1 active torsions:
  status: ('A' for Active; 'I' for Inactive)
    1  A    between atoms: C_29  and  C_30
                            x       y       z     vdW  Elec       q    Type
                         _______ _______ _______ _____ _____    ______ ____

>  <TORSDO>
F 1

$$$$
=
 OpenBabel11122412483D

 32 37  0  0  1  0  0  0  0  0999 V2000
  161.6330  213.1480  147.4990 O   0  0  0  0  0  0  0  0  0  0  0  0
  161.6390  207.9340  149.8770 C   0  0  0  0  0  0  0  0  0  0  0  0
  160.6610  207.6040  154.6980 C   0  0  0  0  0  3  0  0  0  0  0  0
  160.4310  206.2330  154.5760 C   0  0  0  0  0  3  0  0  0  0  0  0
  161.7410  205.8250  148.4110 C   0  0  2  0  0  3  0  0  0  0  0  0
  161.4210  204.3540  148.4120 C   0  0  0  0  0  0  0  0  0  0  0  0
  161.8540  210.1150  148.7970 C   0  0  0  0  0  0  0  0  0  0  0  0
  161.2610  209.9720  151.1450 C   0  0  0  0  0  3  0  0  0  0  0  0
  160.8090  202.2590  149.0690 C   0  0  2  0  0  3  0  0  0  0  0  0
  161.3820  212.1650  150.1160 N   0  0  0  0  0  2  0  0  0  0  0  0
  160.9540  208.3650  153.5650 C   0  0  0  0  0  3  0  0  0  0  0  0
  161.3230  208.5710  151.0940 C   0  0  0  0  0  0  0  0  0  0  0  0
  161.0310  207.7620  152.2990 C   0  0  0  0  0  0  0  0  0  0  0  0
  160.8080  205.7350  150.8060 C   0  0  2  0  0  3  0  0  0  0  0  0
  160.9840  202.2260  147.6070 N   0  0  0  0  0  0  0  0  0  0  0  0
  161.2430  211.8600  147.0940 C   0  0  0  0  0  2  0  0  0  0  0  0
  161.5130  210.7480  150.0130 C   0  0  0  0  0  0  0  0  0  0  0  0
  161.3600  203.5380  147.2640 N   0  0  0  0  0  0  0  0  0  0  0  0
  162.2850  210.8640  147.5730 C   0  0  0  0  0  2  0  0  0  0  0  0
  160.2280  212.8300  149.5300 C   0  0  0  0  0  2  0  0  0  0  0  0
  160.5000  205.6220  153.3220 C   0  0  0  0  0  3  0  0  0  0  0  0
  160.8230  206.3720  152.1780 C   0  0  0  0  0  0  0  0  0  0  0  0
  161.0810  204.2250  150.8560 C   0  0  0  0  0  2  0  0  0  0  0  0
  161.9290  208.7210  148.7510 C   0  0  0  0  0  3  0  0  0  0  0  0
  163.0700  206.0370  147.7050 C   0  0  0  0  0  1  0  0  0  0  0  0
  159.3840  201.8730  149.4180 C   0  0  0  0  0  1  0  0  0  0  0  0
  161.8030  206.4240  149.8410 C   0  0  2  0  0  3  0  0  0  0  0  0
  161.0750  203.6680  149.4690 C   0  0  0  0  0  0  0  0  0  0  0  0
  160.6430  213.7040  148.3420 C   0  0  2  0  0  3  0  0  0  0  0  0
  159.4650  214.2170  147.5740 C   0  0  0  0  0  0  0  0  0  0  0  0
  158.2430  214.4150  148.2050 O   0  0  0  0  0  1  0  0  0  0  0  0
  159.5760  214.4460  146.3420 O   0  0  0  0  0  0  0  0  0  0  0  0
  1 29  1  0  0  0  0
  2 12  1  0  0  0  0
  4  3  1  0  0  0  0
  5 25  1  1  0  0  0
  5  6  1  0  0  0  0
  5 27  1  0  0  0  0
  6 28  2  0  0  0  0
  7 17  2  0  0  0  0
  9 26  1  6  0  0  0
  9 28  1  0  0  0  0
 11  3  2  0  0  0  0
 12  8  2  0  0  0  0
 12 13  1  0  0  0  0
 13 11  1  0  0  0  0
 14 23  1  1  0  0  0
 14 22  1  0  0  0  0
 15  9  1  0  0  0  0
 16  1  1  0  0  0  0
 16 19  1  0  0  0  0
 17 10  1  0  0  0  0
 17  8  1  0  0  0  0
 18 15  2  0  0  0  0
 18  6  1  0  0  0  0
 19  7  1  0  0  0  0
 20 10  1  0  0  0  0
 21  4  2  0  0  0  0
 22 13  2  0  0  0  0
 22 21  1  0  0  0  0
 24  7  1  0  0  0  0
 24  2  2  0  0  0  0
 27  2  1  6  0  0  0
 27 14  1  0  0  0  0
 28 23  1  0  0  0  0
 29 30  1  6  0  0  0
 29 20  1  0  0  0  0
 30 31  1  0  0  0  0
 32 30  2  0  0  0  0
M  END
>  <MODEL>
6

>  <REMARK>
 VINA RESULT:      -6.8      3.421      4.984
  Name = 
  1 active torsions:
  status: ('A' for Active; 'I' for Inactive)
    1  A    between atoms: C_29  and  C_30
                            x       y       z     vdW  Elec       q    Type
                         _______ _______ _______ _____ _____    ______ ____

>  <TORSDO>
F 1

$$$$
=
 OpenBabel11122412483D

 32 37  0  0  1  0  0  0  0  0999 V2000
  161.5960  202.5130  150.1060 O   0  0  0  0  0  0  0  0  0  0  0  0
  161.4030  208.0120  151.7070 C   0  0  0  0  0  0  0  0  0  0  0  0
  162.2650  211.4400  148.2690 C   0  0  0  0  0  3  0  0  0  0  0  0
  161.7240  212.4280  149.0930 C   0  0  0  0  0  3  0  0  0  0  0  0
  160.5010  208.6720  154.0220 C   0  0  2  0  0  3  0  0  0  0  0  0
  159.9050  209.8240  154.7860 C   0  0  0  0  0  0  0  0  0  0  0  0
  161.6480  205.6380  151.1850 C   0  0  0  0  0  0  0  0  0  0  0  0
  161.9660  207.3040  149.4520 C   0  0  0  0  0  3  0  0  0  0  0  0
  159.1590  211.8980  155.3700 C   0  0  2  0  0  3  0  0  0  0  0  0
  162.1480  204.9610  148.8500 N   0  0  0  0  0  2  0  0  0  0  0  0
  162.2620  210.1070  148.6860 C   0  0  0  0  0  3  0  0  0  0  0  0
  161.7090  208.3340  150.3690 C   0  0  0  0  0  0  0  0  0  0  0  0
  161.7290  209.7500  149.9340 C   0  0  0  0  0  0  0  0  0  0  0  0
  160.5410  210.3590  152.0800 C   0  0  2  0  0  3  0  0  0  0  0  0
  158.7610  210.9700  156.4430 N   0  0  0  0  0  0  0  0  0  0  0  0
  160.8220  203.2710  151.0010 C   0  0  0  0  0  2  0  0  0  0  0  0
  161.9310  205.9640  149.8410 C   0  0  0  0  0  0  0  0  0  0  0  0
  159.2460  209.7160  156.0280 N   0  0  0  0  0  0  0  0  0  0  0  0
  161.7330  204.2440  151.7290 C   0  0  0  0  0  2  0  0  0  0  0  0
  161.0250  204.1830  148.3490 C   0  0  0  0  0  2  0  0  0  0  0  0
  161.1860  212.0840  150.3350 C   0  0  0  0  0  3  0  0  0  0  0  0
  161.2040  210.7510  150.7780 C   0  0  0  0  0  0  0  0  0  0  0  0
  160.4890  211.5180  153.0850 C   0  0  0  0  0  2  0  0  0  0  0  0
  161.4060  206.6650  152.1010 C   0  0  0  0  0  3  0  0  0  0  0  0
  161.4790  207.9390  154.9250 C   0  0  0  0  0  1  0  0  0  0  0  0
  157.9230  212.5430  154.7730 C   0  0  0  0  0  1  0  0  0  0  0  0
  161.2210  209.1260  152.7240 C   0  0  2  0  0  3  0  0  0  0  0  0
  159.8460  211.0550  154.3520 C   0  0  0  0  0  0  0  0  0  0  0  0
  161.1360  202.7170  148.7850 C   0  0  2  0  0  3  0  0  0  0  0  0
  159.8920  201.9400  148.4880 C   0  0  0  0  0  0  0  0  0  0  0  0
  159.0460  201.5440  149.5170 O   0  0  0  0  0  1  0  0  0  0  0  0
  159.6240  201.6210  147.3010 O   0  0  0  0  0  0  0  0  0  0  0  0
  1 16  1  0  0  0  0
  2 24  1  0  0  0  0
  3 11  2  0  0  0  0
  3  4  1  0  0  0  0
  4 21  2  0  0  0  0
  5  6  1  0  0  0  0
  5 25  1  1  0  0  0
  6 18  1  0  0  0  0
  7 19  1  0  0  0  0
  7 24  2  0  0  0  0
  8 17  2  0  0  0  0
  8 12  1  0  0  0  0
  9 26  1  6  0  0  0
  9 15  1  0  0  0  0
 10 17  1  0  0  0  0
 11 13  1  0  0  0  0
 12  2  2  0  0  0  0
 13 12  1  0  0  0  0
 13 22  2  0  0  0  0
 14 27  1  0  0  0  0
 14 23  1  1  0  0  0
 16 19  1  0  0  0  0
 17  7  1  0  0  0  0
 18 15  2  0  0  0  0
 20 29  1  0  0  0  0
 20 10  1  0  0  0  0
 21 22  1  0  0  0  0
 22 14  1  0  0  0  0
 23 28  1  0  0  0  0
 27  2  1  6  0  0  0
 27  5  1  0  0  0  0
 28  6  2  0  0  0  0
 28  9  1  0  0  0  0
 29 30  1  1  0  0  0
 29  1  1  0  0  0  0
 30 31  1  0  0  0  0
 32 30  2  0  0  0  0
M  END
>  <MODEL>
7

>  <REMARK>
 VINA RESULT:      -6.4      3.683      8.737
  Name = 
  1 active torsions:
  status: ('A' for Active; 'I' for Inactive)
    1  A    between atoms: C_29  and  C_30
                            x       y       z     vdW  Elec       q    Type
                         _______ _______ _______ _____ _____    ______ ____

>  <TORSDO>
F 1

$$$$
=
 OpenBabel11122412483D

 32 37  0  0  1  0  0  0  0  0999 V2000
  162.1480  204.5110  149.1490 O   0  0  0  0  0  0  0  0  0  0  0  0
  161.1720  209.9160  150.7810 C   0  0  0  0  0  0  0  0  0  0  0  0
  162.7130  213.5320  147.8040 C   0  0  0  0  0  3  0  0  0  0  0  0
  161.9060  214.4520  148.4740 C   0  0  0  0  0  3  0  0  0  0  0  0
  159.6330  210.4250  152.7770 C   0  0  2  0  0  3  0  0  0  0  0  0
  158.7790  211.5080  153.3790 C   0  0  0  0  0  0  0  0  0  0  0  0
  161.7020  207.5840  150.2840 C   0  0  0  0  0  0  0  0  0  0  0  0
  162.3720  209.3390  148.7490 C   0  0  0  0  0  3  0  0  0  0  0  0
  157.7700  213.5110  153.7910 C   0  0  2  0  0  3  0  0  0  0  0  0
  162.8610  207.0380  148.1580 N   0  0  0  0  0  2  0  0  0  0  0  0
  162.6840  212.1840  148.1680 C   0  0  0  0  0  3  0  0  0  0  0  0
  161.8090  210.3120  149.5880 C   0  0  0  0  0  0  0  0  0  0  0  0
  161.8550  211.7450  149.2130 C   0  0  0  0  0  0  0  0  0  0  0  0
  160.0910  212.1950  150.9660 C   0  0  2  0  0  3  0  0  0  0  0  0
  157.1560  212.5170  154.6890 N   0  0  0  0  0  0  0  0  0  0  0  0
  161.1130  205.1860  149.8170 C   0  0  0  0  0  2  0  0  0  0  0  0
  162.3190  207.9840  149.0780 C   0  0  0  0  0  0  0  0  0  0  0  0
  157.8150  211.3110  154.3890 N   0  0  0  0  0  0  0  0  0  0  0  0
  161.7260  206.1750  150.7930 C   0  0  0  0  0  2  0  0  0  0  0  0
  161.9700  206.2220  147.3480 C   0  0  0  0  0  2  0  0  0  0  0  0
  161.0740  214.0260  149.5110 C   0  0  0  0  0  3  0  0  0  0  0  0
  161.0570  212.6780  149.9070 C   0  0  0  0  0  0  0  0  0  0  0  0
  159.6930  213.3040  151.9490 C   0  0  0  0  0  2  0  0  0  0  0  0
  161.1550  208.5560  151.1250 C   0  0  0  0  0  3  0  0  0  0  0  0
  160.3750  209.7090  153.8940 C   0  0  0  0  0  1  0  0  0  0  0  0
  156.7050  214.1130  152.8950 C   0  0  0  0  0  1  0  0  0  0  0  0
  160.6490  210.9740  151.7390 C   0  0  2  0  0  3  0  0  0  0  0  0
  158.7610  212.7530  152.9780 C   0  0  0  0  0  0  0  0  0  0  0  0
  162.0530  204.7470  147.7580 C   0  0  2  0  0  3  0  0  0  0  0  0
  160.9890  203.9160  147.1110 C   0  0  0  0  0  0  0  0  0  0  0  0
  160.5890  202.7140  147.6810 O   0  0  0  0  0  1  0  0  0  0  0  0
  160.4720  204.2970  146.0300 O   0  0  0  0  0  0  0  0  0  0  0  0
  1 16  1  0  0  0  0
  2 24  1  0  0  0  0
  3 11  2  0  0  0  0
  3  4  1  0  0  0  0
  4 21  2  0  0  0  0
  5  6  1  0  0  0  0
  5 25  1  1  0  0  0
  6 18  1  0  0  0  0
  7 19  1  0  0  0  0
  7 24  2  0  0  0  0
  8 17  2  0  0  0  0
  8 12  1  0  0  0  0
  9 26  1  6  0  0  0
  9 15  1  0  0  0  0
 10 17  1  0  0  0  0
 11 13  1  0  0  0  0
 12  2  2  0  0  0  0
 13 12  1  0  0  0  0
 13 22  2  0  0  0  0
 14 27  1  0  0  0  0
 14 23  1  1  0  0  0
 16 19  1  0  0  0  0
 17  7  1  0  0  0  0
 18 15  2  0  0  0  0
 20 29  1  0  0  0  0
 20 10  1  0  0  0  0
 21 22  1  0  0  0  0
 22 14  1  0  0  0  0
 23 28  1  0  0  0  0
 27  2  1  6  0  0  0
 27  5  1  0  0  0  0
 28  6  2  0  0  0  0
 28  9  1  0  0  0  0
 29 30  1  1  0  0  0
 29  1  1  0  0  0  0
 30 31  1  0  0  0  0
 32 30  2  0  0  0  0
M  END
>  <MODEL>
8

>  <REMARK>
 VINA RESULT:      -5.8      4.086      9.129
  Name = 
  1 active torsions:
  status: ('A' for Active; 'I' for Inactive)
    1  A    between atoms: C_29  and  C_30
                            x       y       z     vdW  Elec       q    Type
                         _______ _______ _______ _____ _____    ______ ____

>  <TORSDO>
F 1

$$$$
=
 OpenBabel11122412483D

 32 37  0  0  1  0  0  0  0  0999 V2000
  160.3340  214.4440  146.7850 O   0  0  0  0  0  0  0  0  0  0  0  0
  159.7610  212.9820  141.2750 C   0  0  0  0  0  0  0  0  0  0  0  0
  163.8450  211.8290  138.7640 C   0  0  0  0  0  3  0  0  0  0  0  0
  163.0800  211.2410  137.7550 C   0  0  0  0  0  3  0  0  0  0  0  0
  157.4350  212.5480  140.2690 C   0  0  2  0  0  3  0  0  0  0  0  0
  156.7380  211.8440  139.1360 C   0  0  0  0  0  0  0  0  0  0  0  0
  159.9030  213.8050  143.5700 C   0  0  0  0  0  0  0  0  0  0  0  0
  161.9140  213.1360  142.3900 C   0  0  0  0  0  3  0  0  0  0  0  0
  156.3230  210.6720  137.2250 C   0  0  2  0  0  3  0  0  0  0  0  0
  162.1150  213.8710  144.6930 N   0  0  0  0  0  2  0  0  0  0  0  0
  163.2200  212.3450  139.9000 C   0  0  0  0  0  3  0  0  0  0  0  0
  161.1610  212.8190  141.2500 C   0  0  0  0  0  0  0  0  0  0  0  0
  161.8230  212.2880  140.0360 C   0  0  0  0  0  0  0  0  0  0  0  0
  159.5540  211.5650  139.1910 C   0  0  2  0  0  3  0  0  0  0  0  0
  155.0320  210.8690  137.9070 N   0  0  0  0  0  0  0  0  0  0  0  0
  159.3880  213.7320  146.0300 C   0  0  0  0  0  2  0  0  0  0  0  0
  161.3020  213.6170  143.5490 C   0  0  0  0  0  0  0  0  0  0  0  0
  155.3510  211.5930  139.0710 N   0  0  0  0  0  0  0  0  0  0  0  0
  159.1770  214.4530  144.7100 C   0  0  0  0  0  2  0  0  0  0  0  0
  162.0820  212.9540  145.8230 C   0  0  0  0  0  2  0  0  0  0  0  0
  161.6910  211.1740  137.8810 C   0  0  0  0  0  3  0  0  0  0  0  0
  161.0470  211.7160  139.0060 C   0  0  0  0  0  0  0  0  0  0  0  0
  158.8080  211.4190  137.8580 C   0  0  0  0  0  2  0  0  0  0  0  0
  159.1560  213.5020  142.4290 C   0  0  0  0  0  3  0  0  0  0  0  0
  156.7790  213.9030  140.4810 C   0  0  0  0  0  1  0  0  0  0  0  0
  156.5960  209.1870  137.0770 C   0  0  0  0  0  1  0  0  0  0  0  0
  158.9550  212.7340  140.0110 C   0  0  2  0  0  3  0  0  0  0  0  0
  157.3410  211.2980  138.1130 C   0  0  0  0  0  0  0  0  0  0  0  0
  161.4520  213.6200  147.0520 C   0  0  2  0  0  3  0  0  0  0  0  0
  161.1900  212.6440  148.1560 C   0  0  0  0  0  0  0  0  0  0  0  0
  160.6030  213.0630  149.3430 O   0  0  0  0  0  1  0  0  0  0  0  0
  161.5280  211.4400  148.0170 O   0  0  0  0  0  0  0  0  0  0  0  0
  1 29  1  0  0  0  0
  2 24  1  0  0  0  0
  3 11  1  0  0  0  0
  4 21  1  0  0  0  0
  4  3  2  0  0  0  0
  5 25  1  6  0  0  0
  6  5  1  0  0  0  0
  7 19  1  0  0  0  0
  8 17  2  0  0  0  0
  9 26  1  1  0  0  0
  9 15  1  0  0  0  0
  9 28  1  0  0  0  0
 10 20  1  0  0  0  0
 11 13  2  0  0  0  0
 12  2  2  0  0  0  0
 12  8  1  0  0  0  0
 13 12  1  0  0  0  0
 14 23  1  6  0  0  0
 14 27  1  0  0  0  0
 15 18  2  0  0  0  0
 16  1  1  0  0  0  0
 17  7  1  0  0  0  0
 17 10  1  0  0  0  0
 18  6  1  0  0  0  0
 19 16  1  0  0  0  0
 20 29  1  0  0  0  0
 21 22  2  0  0  0  0
 22 14  1  0  0  0  0
 22 13  1  0  0  0  0
 23 28  1  0  0  0  0
 24  7  2  0  0  0  0
 27  5  1  0  0  0  0
 27  2  1  1  0  0  0
 28  6  2  0  0  0  0
 29 30  1  1  0  0  0
 30 31  1  0  0  0  0
 32 30  2  0  0  0  0
M  END
>  <MODEL>
9

>  <REMARK>
 VINA RESULT:      -5.7      8.682     11.302
  Name = 
  1 active torsions:
  status: ('A' for Active; 'I' for Inactive)
    1  A    between atoms: C_29  and  C_30
                            x       y       z     vdW  Elec       q    Type
                         _______ _______ _______ _____ _____    ______ ____

>  <TORSDO>
F 1

$$$$
