=
 OpenBabel11122413413D

 37 43  0  0  1  0  0  0  0  0999 V2000
  161.8280  210.3440  154.3730 C   0  0  0  0  0  2  0  0  0  0  0  0
  161.4370  205.7720  152.2110 C   0  0  1  0  0  0  0  0  0  0  0  0
  161.2750  209.7530  150.7570 C   0  0  1  0  0  3  0  0  0  0  0  0
  162.3500  210.3120  155.8150 C   0  0  2  0  0  3  0  0  0  0  0  0
  159.3960  212.4370  152.8420 C   0  0  0  0  0  2  0  0  0  0  0  0
  161.9930  207.3510  150.2790 C   0  0  1  0  0  3  0  0  0  0  0  0
  160.1780  210.3480  151.6190 C   0  0  2  0  0  3  0  0  0  0  0  0
  160.5550  211.9870  156.4510 C   0  0  0  0  0  0  0  0  0  0  0  0
  161.0180  208.3090  150.9720 C   0  0  1  0  0  3  0  0  0  0  0  0
  160.4940  211.8130  151.9880 C   0  0  1  0  0  3  0  0  0  0  0  0
  163.0770  208.1090  149.5000 C   0  0  0  0  0  2  0  0  0  0  0  0
  161.3390  210.7760  156.8740 C   0  0  0  0  0  2  0  0  0  0  0  0
  160.9890  208.1850  152.4050 N   0  0  2  0  0  0  0  0  0  0  0  0
  162.0980  205.1370  153.4160 C   0  0  0  0  0  1  0  0  0  0  0  0
  161.3610  211.4930  148.9040 C   0  0  0  0  0  2  0  0  0  0  0  0
  162.4750  209.2340  148.6140 C   0  0  0  0  0  2  0  0  0  0  0  0
  160.4520  206.8640  152.7050 C   0  0  0  0  0  2  0  0  0  0  0  0
  159.5570  211.9160  155.3230 C   0  0  1  0  0  3  0  0  0  0  0  0
  159.9830  212.8450  154.1800 C   0  0  0  0  0  2  0  0  0  0  0  0
  161.3010  210.0100  149.2620 C   0  0  1  0  0  3  0  0  0  0  0  0
  160.0950  209.2850  152.7830 C   0  0  1  0  0  3  0  0  0  0  0  0
  162.5470  206.3280  151.2800 C   0  0  0  0  0  2  0  0  0  0  0  0
  160.7880  212.7250  150.7720 C   0  0  1  0  0  3  0  0  0  0  0  0
  160.7150  204.7940  151.5280 O   0  0  0  0  0  1  0  0  0  0  0  0
  159.2640  210.4670  154.8850 C   0  0  0  0  0  2  0  0  0  0  0  0
  160.7280  213.0430  157.0400 O   0  0  0  0  0  0  0  0  0  0  0  0
  160.4320  209.7240  154.2150 C   0  0  2  0  0  3  0  0  0  0  0  0
  161.8630  212.2870  149.9560 O   0  0  0  0  0  0  0  0  0  0  0  0
  159.7980  213.8950  148.7780 C   0  0  0  0  0  3  0  0  0  0  0  0
  159.6070  213.3390  150.0480 C   0  0  0  0  0  0  0  0  0  0  0  0
  158.3260  213.3340  150.6170 C   0  0  0  0  0  3  0  0  0  0  0  0
  155.6520  213.8890  150.6440 Cl  0  0  0  0  0  0  0  0  0  0  0  0
  157.4440  214.4530  148.6600 C   0  0  0  0  0  3  0  0  0  0  0  0
  157.2480  213.8930  149.9260 C   0  0  0  0  0  0  0  0  0  0  0  0
  158.7190  214.4530  148.0860 C   0  0  0  0  0  3  0  0  0  0  0  0
  163.8450  211.0690  157.2610 C   0  0  0  0  0  1  0  0  0  0  0  0
  163.5140  211.0770  155.9040 O   0  0  0  0  0  0  0  0  0  0  0  0
  1  4  1  0  0  0  0
  2 17  1  0  0  0  0
  2 14  1  1  0  0  0
  3  9  1  0  0  0  0
  3  7  1  0  0  0  0
  4 37  1  0  0  0  0
  4 12  1  0  0  0  0
  5 19  1  0  0  0  0
  6  9  1  0  0  0  0
  6 22  1  0  0  0  0
  7 10  1  0  0  0  0
  7 21  1  0  0  0  0
  8 12  1  0  0  0  0
  8 26  2  0  0  0  0
  9 13  1  0  0  0  0
 10  5  1  0  0  0  0
 11  6  1  0  0  0  0
 13 17  1  0  0  0  0
 13 21  1  0  0  0  0
 15 20  1  0  0  0  0
 15 28  1  0  0  0  0
 16 20  1  0  0  0  0
 16 11  1  0  0  0  0
 18  8  1  0  0  0  0
 19 18  1  0  0  0  0
 20  3  1  0  0  0  0
 21 27  1  0  0  0  0
 22  2  1  0  0  0  0
 23 10  1  0  0  0  0
 24  2  1  0  0  0  0
 25 18  1  0  0  0  0
 27  1  1  0  0  0  0
 27 25  1  0  0  0  0
 28 23  1  0  0  0  0
 29 30  1  0  0  0  0
 30 31  2  0  0  0  0
 30 23  1  0  0  0  0
 33 34  2  0  0  0  0
 34 31  1  0  0  0  0
 34 32  1  0  0  0  0
 35 33  1  0  0  0  0
 35 29  2  0  0  0  0
 37 36  1  0  0  0  0
M  END
>  <MODEL>
1

>  <REMARK>
 VINA RESULT:      -0.1      0.000      0.000
  Name = 
  2 active torsions:
  status: ('A' for Active; 'I' for Inactive)
    1  A    between atoms: C_4  and  O_37
    2  A    between atoms: C_23  and  C_30
                            x       y       z     vdW  Elec       q    Type
                         _______ _______ _______ _____ _____    ______ ____

>  <TORSDO>
F 2

$$$$
=
 OpenBabel11122413413D

 37 43  0  0  1  0  0  0  0  0999 V2000
  161.7700  210.2290  154.5980 C   0  0  0  0  0  2  0  0  0  0  0  0
  161.5190  205.6360  152.4600 C   0  0  1  0  0  0  0  0  0  0  0  0
  161.2110  209.6020  150.9890 C   0  0  1  0  0  3  0  0  0  0  0  0
  162.3030  210.2210  156.0370 C   0  0  2  0  0  3  0  0  0  0  0  0
  159.2570  212.2310  153.0750 C   0  0  0  0  0  2  0  0  0  0  0  0
  162.0070  207.2240  150.5170 C   0  0  1  0  0  3  0  0  0  0  0  0
  160.1020  210.1650  151.8560 C   0  0  2  0  0  3  0  0  0  0  0  0
  160.4570  211.8380  156.6780 C   0  0  0  0  0  0  0  0  0  0  0  0
  161.0060  208.1520  151.2120 C   0  0  1  0  0  3  0  0  0  0  0  0
  160.3700  211.6400  152.2160 C   0  0  1  0  0  3  0  0  0  0  0  0
  163.0600  208.0150  149.7260 C   0  0  0  0  0  2  0  0  0  0  0  0
  161.2850  210.6560  157.1000 C   0  0  0  0  0  2  0  0  0  0  0  0
  160.9900  208.0330  152.6460 N   0  0  2  0  0  0  0  0  0  0  0  0
  162.2100  205.0300  153.6630 C   0  0  0  0  0  1  0  0  0  0  0  0
  161.2260  211.3350  149.1280 C   0  0  0  0  0  2  0  0  0  0  0  0
  162.4130  209.1150  148.8390 C   0  0  0  0  0  2  0  0  0  0  0  0
  160.5010  206.6970  152.9560 C   0  0  0  0  0  2  0  0  0  0  0  0
  159.4540  211.7280  155.5570 C   0  0  1  0  0  3  0  0  0  0  0  0
  159.8400  212.6650  154.4070 C   0  0  0  0  0  2  0  0  0  0  0  0
  161.2190  209.8540  149.4920 C   0  0  1  0  0  3  0  0  0  0  0  0
  160.0620  209.1040  153.0250 C   0  0  1  0  0  3  0  0  0  0  0  0
  162.6020  206.2250  151.5180 C   0  0  0  0  0  2  0  0  0  0  0  0
  160.6250  212.5560  150.9940 C   0  0  1  0  0  3  0  0  0  0  0  0
  160.8260  204.6310  151.7870 O   0  0  0  0  0  1  0  0  0  0  0  0
  159.2070  210.2680  155.1280 C   0  0  0  0  0  2  0  0  0  0  0  0
  160.5980  212.9010  157.2610 O   0  0  0  0  0  0  0  0  0  0  0  0
  160.3950  209.5610  154.4530 C   0  0  2  0  0  3  0  0  0  0  0  0
  161.7080  212.1510  150.1720 O   0  0  0  0  0  0  0  0  0  0  0  0
  158.2310  213.3280  150.9880 C   0  0  0  0  0  3  0  0  0  0  0  0
  159.4180  213.1260  150.2760 C   0  0  0  0  0  0  0  0  0  0  0  0
  159.4820  213.4780  148.9200 C   0  0  0  0  0  3  0  0  0  0  0  0
  158.4460  214.4490  146.5870 Cl  0  0  0  0  0  0  0  0  0  0  0  0
  157.1750  214.2100  148.9950 C   0  0  0  0  0  3  0  0  0  0  0  0
  158.3620  214.0160  148.2810 C   0  0  0  0  0  0  0  0  0  0  0  0
  157.1100  213.8660  150.3480 C   0  0  0  0  0  3  0  0  0  0  0  0
  164.0600  210.8900  154.8690 C   0  0  0  0  0  1  0  0  0  0  0  0
  163.4400  211.0260  156.1140 O   0  0  0  0  0  0  0  0  0  0  0  0
  1  4  1  0  0  0  0
  2 17  1  0  0  0  0
  2 14  1  1  0  0  0
  3  9  1  0  0  0  0
  3  7  1  0  0  0  0
  4 37  1  0  0  0  0
  4 12  1  0  0  0  0
  5 19  1  0  0  0  0
  6  9  1  0  0  0  0
  6 22  1  0  0  0  0
  7 10  1  0  0  0  0
  7 21  1  0  0  0  0
  8 12  1  0  0  0  0
  8 26  2  0  0  0  0
  9 13  1  0  0  0  0
 10  5  1  0  0  0  0
 11  6  1  0  0  0  0
 13 17  1  0  0  0  0
 13 21  1  0  0  0  0
 15 20  1  0  0  0  0
 15 28  1  0  0  0  0
 16 20  1  0  0  0  0
 16 11  1  0  0  0  0
 18  8  1  0  0  0  0
 19 18  1  0  0  0  0
 20  3  1  0  0  0  0
 21 27  1  0  0  0  0
 22  2  1  0  0  0  0
 23 10  1  0  0  0  0
 24  2  1  0  0  0  0
 25 18  1  0  0  0  0
 27  1  1  0  0  0  0
 27 25  1  0  0  0  0
 28 23  1  0  0  0  0
 30 29  2  0  0  0  0
 30 23  1  0  0  0  0
 31 30  1  0  0  0  0
 32 34  1  0  0  0  0
 33 35  2  0  0  0  0
 34 31  2  0  0  0  0
 34 33  1  0  0  0  0
 35 29  1  0  0  0  0
 36 37  1  0  0  0  0
M  END
>  <MODEL>
2

>  <REMARK>
 VINA RESULT:       1.6      0.945      1.243
  Name = 
  2 active torsions:
  status: ('A' for Active; 'I' for Inactive)
    1  A    between atoms: C_4  and  O_37
    2  A    between atoms: C_23  and  C_30
                            x       y       z     vdW  Elec       q    Type
                         _______ _______ _______ _____ _____    ______ ____

>  <TORSDO>
F 2

$$$$
