=
 OpenBabel11122412503D

 32 37  0  0  1  0  0  0  0  0999 V2000
  159.5740  213.5350  146.1830 C   0  0  0  0  0  2  0  0  0  0  0  0
  161.4270  211.5400  151.1000 C   0  0  1  0  0  3  0  0  0  0  0  0
  161.5230  207.4630  148.2460 C   0  0  0  0  0  2  0  0  0  0  0  0
  161.4250  206.5510  149.4760 C   0  0  0  0  0  2  0  0  0  0  0  0
  160.5750  211.2690  153.4830 C   0  0  0  0  0  0  0  0  0  0  0  0
  160.3600  210.4580  154.7350 C   0  0  1  0  0  3  0  0  0  0  0  0
  160.8150  213.1070  149.2210 C   0  0  1  0  0  3  0  0  0  0  0  0
  162.6540  211.6690  148.8630 C   0  0  0  0  0  2  0  0  0  0  0  0
  160.2270  208.4210  155.8190 C   0  0  1  0  0  3  0  0  0  0  0  0
  161.8530  212.9190  147.0640 C   0  0  0  0  0  2  0  0  0  0  0  0
  162.3410  208.7200  148.5520 C   0  0  0  0  0  2  0  0  0  0  0  0
  162.3290  210.7950  150.0820 C   0  0  2  0  0  3  0  0  0  0  0  0
  161.7010  209.4450  149.7320 C   0  0  2  0  0  3  0  0  0  0  0  0
  161.5310  209.2610  152.2970 C   0  0  2  0  0  3  0  0  0  0  0  0
  158.8660  209.0760  155.7120 C   0  0  0  0  0  2  0  0  0  0  0  0
  158.9030  213.2370  147.5190 C   0  0  0  0  0  2  0  0  0  0  0  0
  161.4360  212.1890  148.2530 N   0  0  2  0  0  0  0  0  0  0  0  0
  158.9890  210.2910  155.0040 O   0  0  0  0  0  0  0  0  0  0  0  0
  159.6600  213.9380  148.6390 C   0  0  0  0  0  2  0  0  0  0  0  0
  160.8320  212.6950  145.9580 C   0  0  2  0  0  3  0  0  0  0  0  0
  160.8720  207.3070  150.6870 C   0  0  0  0  0  2  0  0  0  0  0  0
  161.7570  208.5240  150.9540 C   0  0  1  0  0  3  0  0  0  0  0  0
  160.9030  208.3980  153.3820 C   0  0  0  0  0  2  0  0  0  0  0  0
  160.2940  212.3030  150.4060 C   0  0  0  0  0  2  0  0  0  0  0  0
  160.4820  212.4860  153.5540 O   0  0  0  0  0  0  0  0  0  0  0  0
  160.1360  206.9050  155.7140 C   0  0  0  0  0  1  0  0  0  0  0  0
  160.7830  210.5960  152.1450 C   0  0  2  0  0  3  0  0  0  0  0  0
  161.0370  209.0950  154.7430 C   0  0  1  0  0  3  0  0  0  0  0  0
  161.4300  213.0440  144.6770 N   0  0  0  0  0  2  0  0  0  0  0  0
  160.9380  212.5570  143.4260 C   0  0  0  0  0  0  0  0  0  0  0  0
  159.8060  211.5890  143.3630 C   0  0  0  0  0  1  0  0  0  0  0  0
  161.5070  212.9340  142.3300 N   0  0  0  0  0  2  0  0  0  0  0  0
  1 16  1  0  0  0  0
  2 24  1  6  0  0  0
  2 27  1  0  0  0  0
  3 11  1  0  0  0  0
  3  4  1  0  0  0  0
  4 21  1  0  0  0  0
  5 25  2  0  0  0  0
  6  5  1  6  0  0  0
  6 28  1  0  0  0  0
  6 18  1  0  0  0  0
  7 19  1  6  0  0  0
  7 24  1  0  0  0  0
  9 26  1  6  0  0  0
 12  8  1  6  0  0  0
 12  2  1  0  0  0  0
 13 11  1  6  0  0  0
 13 12  1  0  0  0  0
 13 22  1  0  0  0  0
 14 23  1  1  0  0  0
 15  9  1  0  0  0  0
 16 19  1  0  0  0  0
 17 10  1  6  0  0  0
 17  8  1  0  0  0  0
 17  7  1  0  0  0  0
 18 15  1  0  0  0  0
 20 29  1  6  0  0  0
 20  1  1  0  0  0  0
 20 10  1  0  0  0  0
 22 21  1  6  0  0  0
 22 14  1  0  0  0  0
 27 14  1  0  0  0  0
 27  5  1  1  0  0  0
 28 23  1  6  0  0  0
 28  9  1  0  0  0  0
 30 29  1  0  0  0  0
 31 30  1  0  0  0  0
 32 30  2  0  0  0  0
M  END
>  <MODEL>
1

>  <REMARK>
 VINA RESULT:      -6.0      0.000      0.000
  Name = 
  1 active torsions:
  status: ('A' for Active; 'I' for Inactive)
    1  A    between atoms: C_20  and  N_29
                            x       y       z     vdW  Elec       q    Type
                         _______ _______ _______ _____ _____    ______ ____

>  <TORSDO>
F 1

$$$$
=
 OpenBabel11122412503D

 32 37  0  0  1  0  0  0  0  0999 V2000
  158.1830  212.7000  145.2600 C   0  0  0  0  0  2  0  0  0  0  0  0
  158.9910  213.6600  150.7390 C   0  0  1  0  0  3  0  0  0  0  0  0
  162.1460  209.9050  149.8880 C   0  0  0  0  0  2  0  0  0  0  0  0
  162.1210  209.4960  151.3660 C   0  0  0  0  0  2  0  0  0  0  0  0
  157.6490  213.5810  152.9000 C   0  0  0  0  0  0  0  0  0  0  0  0
  157.4710  213.1820  154.3420 C   0  0  1  0  0  3  0  0  0  0  0  0
  158.3420  213.9530  148.3190 C   0  0  1  0  0  3  0  0  0  0  0  0
  160.6520  213.9000  148.8130 C   0  0  0  0  0  2  0  0  0  0  0  0
  158.0490  211.8710  156.1570 C   0  0  1  0  0  3  0  0  0  0  0  0
  159.9910  213.8630  146.5750 C   0  0  0  0  0  2  0  0  0  0  0  0
  162.0350  211.4240  149.7320 C   0  0  0  0  0  2  0  0  0  0  0  0
  160.4320  213.3780  150.2390 C   0  0  2  0  0  3  0  0  0  0  0  0
  160.7550  211.8940  150.4170 C   0  0  2  0  0  3  0  0  0  0  0  0
  159.8410  212.3440  152.7830 C   0  0  2  0  0  3  0  0  0  0  0  0
  156.6780  211.5040  155.6280 C   0  0  0  0  0  2  0  0  0  0  0  0
  157.3550  212.4280  146.5100 C   0  0  0  0  0  2  0  0  0  0  0  0
  159.6340  213.3840  147.9040 N   0  0  2  0  0  0  0  0  0  0  0  0
  156.3900  212.2960  154.4960 O   0  0  0  0  0  0  0  0  0  0  0  0
  157.2050  213.7140  147.3140 C   0  0  0  0  0  2  0  0  0  0  0  0
  159.6820  212.7770  145.5550 C   0  0  2  0  0  3  0  0  0  0  0  0
  160.8830  210.0510  152.0760 C   0  0  0  0  0  2  0  0  0  0  0  0
  160.8580  211.5690  151.9090 C   0  0  1  0  0  3  0  0  0  0  0  0
  159.4230  211.6090  154.0500 C   0  0  0  0  0  2  0  0  0  0  0  0
  157.9440  213.3550  149.6630 C   0  0  0  0  0  2  0  0  0  0  0  0
  156.9230  214.4520  152.4430 O   0  0  0  0  0  0  0  0  0  0  0  0
  158.7960  210.6560  156.6860 C   0  0  0  0  0  1  0  0  0  0  0  0
  158.6160  212.8440  152.0010 C   0  0  2  0  0  3  0  0  0  0  0  0
  158.7040  212.5780  154.9990 C   0  0  1  0  0  3  0  0  0  0  0  0
  160.4090  213.0560  144.3250 N   0  0  0  0  0  2  0  0  0  0  0  0
  161.8290  213.2100  144.2730 C   0  0  0  0  0  0  0  0  0  0  0  0
  162.6590  213.1620  145.5110 C   0  0  0  0  0  1  0  0  0  0  0  0
  162.4030  213.4290  143.1380 N   0  0  0  0  0  2  0  0  0  0  0  0
  1 20  1  0  0  0  0
  1 16  1  0  0  0  0
  2 24  1  6  0  0  0
  2 27  1  0  0  0  0
  3  4  1  0  0  0  0
  4 21  1  0  0  0  0
  6  5  1  6  0  0  0
  6 18  1  0  0  0  0
  6 28  1  0  0  0  0
  7 19  1  6  0  0  0
  7 24  1  0  0  0  0
  9 26  1  6  0  0  0
 11  3  1  0  0  0  0
 12  8  1  6  0  0  0
 12 13  1  0  0  0  0
 12  2  1  0  0  0  0
 13 11  1  6  0  0  0
 13 22  1  0  0  0  0
 14 23  1  1  0  0  0
 15  9  1  0  0  0  0
 16 19  1  0  0  0  0
 17 10  1  6  0  0  0
 17  7  1  0  0  0  0
 17  8  1  0  0  0  0
 18 15  1  0  0  0  0
 20 29  1  6  0  0  0
 20 10  1  0  0  0  0
 22 21  1  6  0  0  0
 22 14  1  0  0  0  0
 25  5  2  0  0  0  0
 27 14  1  0  0  0  0
 27  5  1  1  0  0  0
 28 23  1  6  0  0  0
 28  9  1  0  0  0  0
 30 29  1  0  0  0  0
 30 31  1  0  0  0  0
 32 30  2  0  0  0  0
M  END
>  <MODEL>
2

>  <REMARK>
 VINA RESULT:      -5.4      2.070      3.090
  Name = 
  1 active torsions:
  status: ('A' for Active; 'I' for Inactive)
    1  A    between atoms: C_20  and  N_29
                            x       y       z     vdW  Elec       q    Type
                         _______ _______ _______ _____ _____    ______ ____

>  <TORSDO>
F 1

$$$$
=
 OpenBabel11122412503D

 32 37  0  0  1  0  0  0  0  0999 V2000
  158.2620  213.6480  145.2620 C   0  0  0  0  0  2  0  0  0  0  0  0
  159.9350  213.3340  150.6190 C   0  0  1  0  0  3  0  0  0  0  0  0
  162.1070  209.3170  148.6370 C   0  0  0  0  0  2  0  0  0  0  0  0
  162.1830  208.6330  150.0080 C   0  0  0  0  0  2  0  0  0  0  0  0
  158.8890  213.0700  152.9240 C   0  0  0  0  0  0  0  0  0  0  0  0
  158.8150  212.4300  154.2860 C   0  0  1  0  0  3  0  0  0  0  0  0
  159.0620  214.2160  148.4220 C   0  0  1  0  0  3  0  0  0  0  0  0
  161.3540  213.6490  148.5170 C   0  0  0  0  0  2  0  0  0  0  0  0
  159.3310  210.7010  155.7320 C   0  0  1  0  0  3  0  0  0  0  0  0
  160.4230  214.1790  146.4440 C   0  0  0  0  0  2  0  0  0  0  0  0
  162.2960  210.8310  148.7630 C   0  0  0  0  0  2  0  0  0  0  0  0
  161.2110  212.9020  149.8500 C   0  0  2  0  0  3  0  0  0  0  0  0
  161.2370  211.3790  149.7170 C   0  0  2  0  0  3  0  0  0  0  0  0
  160.7430  211.5050  152.2420 C   0  0  2  0  0  3  0  0  0  0  0  0
  157.8590  210.7010  155.3790 C   0  0  0  0  0  2  0  0  0  0  0  0
  157.5590  213.2860  146.5650 C   0  0  0  0  0  2  0  0  0  0  0  0
  160.1450  213.5170  147.7120 N   0  0  2  0  0  0  0  0  0  0  0  0
  157.6010  211.7410  154.4600 O   0  0  0  0  0  0  0  0  0  0  0  0
  157.7820  214.3910  147.5900 C   0  0  0  0  0  2  0  0  0  0  0  0
  159.7690  213.3920  145.3180 C   0  0  2  0  0  3  0  0  0  0  0  0
  161.1870  209.2490  150.9940 C   0  0  0  0  0  2  0  0  0  0  0  0
  161.4580  210.7490  151.0950 C   0  0  1  0  0  3  0  0  0  0  0  0
  160.3440  210.6210  153.4160 C   0  0  0  0  0  2  0  0  0  0  0  0
  158.7200  213.4440  149.6920 C   0  0  0  0  0  2  0  0  0  0  0  0
  158.3090  214.1310  152.7470 O   0  0  0  0  0  0  0  0  0  0  0  0
  159.8690  209.2900  155.9170 C   0  0  0  0  0  1  0  0  0  0  0  0
  159.5610  212.3650  151.7670 C   0  0  2  0  0  3  0  0  0  0  0  0
  159.9680  211.4940  154.6200 C   0  0  1  0  0  3  0  0  0  0  0  0
  160.3770  213.7750  144.0520 N   0  0  0  0  0  2  0  0  0  0  0  0
  160.5060  212.8810  142.9440 C   0  0  0  0  0  0  0  0  0  0  0  0
  160.0810  211.4550  143.0470 C   0  0  0  0  0  1  0  0  0  0  0  0
  161.0330  213.3040  141.8440 N   0  0  0  0  0  2  0  0  0  0  0  0
  1 20  1  0  0  0  0
  1 16  1  0  0  0  0
  2 24  1  6  0  0  0
  2 27  1  0  0  0  0
  3 11  1  0  0  0  0
  3  4  1  0  0  0  0
  4 21  1  0  0  0  0
  6  5  1  6  0  0  0
  6 18  1  0  0  0  0
  6 28  1  0  0  0  0
  7 19  1  6  0  0  0
  7 24  1  0  0  0  0
  9 26  1  6  0  0  0
 12  8  1  6  0  0  0
 12  2  1  0  0  0  0
 13 11  1  6  0  0  0
 13 12  1  0  0  0  0
 13 22  1  0  0  0  0
 14 23  1  1  0  0  0
 15  9  1  0  0  0  0
 16 19  1  0  0  0  0
 17 10  1  6  0  0  0
 17  7  1  0  0  0  0
 17  8  1  0  0  0  0
 18 15  1  0  0  0  0
 20 29  1  6  0  0  0
 20 10  1  0  0  0  0
 22 21  1  6  0  0  0
 22 14  1  0  0  0  0
 25  5  2  0  0  0  0
 27 14  1  0  0  0  0
 27  5  1  1  0  0  0
 28 23  1  6  0  0  0
 28  9  1  0  0  0  0
 30 31  1  0  0  0  0
 30 29  1  0  0  0  0
 32 30  2  0  0  0  0
M  END
>  <MODEL>
3

>  <REMARK>
 VINA RESULT:      -5.1      1.457      2.089
  Name = 
  1 active torsions:
  status: ('A' for Active; 'I' for Inactive)
    1  A    between atoms: C_20  and  N_29
                            x       y       z     vdW  Elec       q    Type
                         _______ _______ _______ _____ _____    ______ ____

>  <TORSDO>
F 1

$$$$
=
 OpenBabel11122412503D

 32 37  0  0  1  0  0  0  0  0999 V2000
  160.4720  209.2690  152.8120 C   0  0  0  0  0  2  0  0  0  0  0  0
  161.3460  212.9880  148.6890 C   0  0  1  0  0  3  0  0  0  0  0  0
  156.4200  213.3130  149.3260 C   0  0  0  0  0  2  0  0  0  0  0  0
  156.2300  213.8420  147.8980 C   0  0  0  0  0  2  0  0  0  0  0  0
  162.2110  213.0030  146.2950 C   0  0  0  0  0  0  0  0  0  0  0  0
  162.1080  213.4040  144.8470 C   0  0  1  0  0  3  0  0  0  0  0  0
  161.7170  211.4370  150.6440 C   0  0  1  0  0  3  0  0  0  0  0  0
  160.4650  213.3990  151.0520 C   0  0  0  0  0  2  0  0  0  0  0  0
  160.8700  214.1600  143.0460 C   0  0  1  0  0  3  0  0  0  0  0  0
  160.5840  211.7850  152.7330 C   0  0  0  0  0  2  0  0  0  0  0  0
  157.7330  213.8140  149.9320 C   0  0  0  0  0  2  0  0  0  0  0  0
  160.2820  213.7060  149.5590 C   0  0  2  0  0  3  0  0  0  0  0  0
  158.8840  213.3900  149.0250 C   0  0  2  0  0  3  0  0  0  0  0  0
  159.9760  214.0600  146.7890 C   0  0  2  0  0  3  0  0  0  0  0  0
  161.2580  212.7060  142.8740 C   0  0  0  0  0  2  0  0  0  0  0  0
  160.8120  209.1390  151.3320 C   0  0  0  0  0  2  0  0  0  0  0  0
  160.5020  211.9600  151.2890 N   0  0  2  0  0  0  0  0  0  0  0  0
  161.9700  212.2770  144.0150 O   0  0  0  0  0  0  0  0  0  0  0  0
  162.0410  209.9810  151.0140 C   0  0  0  0  0  2  0  0  0  0  0  0
  159.7500  210.5770  153.1360 C   0  0  2  0  0  3  0  0  0  0  0  0
  157.4310  213.4980  147.0130 C   0  0  0  0  0  2  0  0  0  0  0  0
  158.6960  214.0590  147.6600 C   0  0  1  0  0  3  0  0  0  0  0  0
  159.7080  214.0470  145.2910 C   0  0  0  0  0  2  0  0  0  0  0  0
  161.5590  211.5370  149.1310 C   0  0  0  0  0  2  0  0  0  0  0  0
  163.2890  212.6110  146.7170 O   0  0  0  0  0  0  0  0  0  0  0  0
  159.4990  214.4530  142.4540 C   0  0  0  0  0  1  0  0  0  0  0  0
  160.9860  212.9700  147.1830 C   0  0  2  0  0  3  0  0  0  0  0  0
  160.9960  214.3930  144.5290 C   0  0  1  0  0  3  0  0  0  0  0  0
  159.4740  210.6430  154.5640 N   0  0  0  0  0  2  0  0  0  0  0  0
  158.3430  211.3240  155.1120 C   0  0  0  0  0  0  0  0  0  0  0  0
  157.4000  212.0830  154.2400 C   0  0  0  0  0  1  0  0  0  0  0  0
  158.1510  211.3140  156.3880 N   0  0  0  0  0  2  0  0  0  0  0  0
  1 20  1  0  0  0  0
  2 24  1  1  0  0  0
  2 12  1  0  0  0  0
  3 11  1  0  0  0  0
  4  3  1  0  0  0  0
  5 25  2  0  0  0  0
  6 18  1  6  0  0  0
  6  5  1  0  0  0  0
  7 24  1  6  0  0  0
  7 19  1  0  0  0  0
  7 17  1  0  0  0  0
  9 26  1  1  0  0  0
  9 28  1  0  0  0  0
 10 20  1  0  0  0  0
 12  8  1  1  0  0  0
 13 12  1  0  0  0  0
 13 11  1  1  0  0  0
 14 23  1  6  0  0  0
 14 27  1  0  0  0  0
 14 22  1  0  0  0  0
 15  9  1  0  0  0  0
 15 18  1  0  0  0  0
 16  1  1  0  0  0  0
 17  8  1  1  0  0  0
 17 10  1  0  0  0  0
 19 16  1  0  0  0  0
 20 29  1  1  0  0  0
 21  4  1  0  0  0  0
 22 21  1  6  0  0  0
 22 13  1  0  0  0  0
 27  5  1  6  0  0  0
 27  2  1  0  0  0  0
 28  6  1  0  0  0  0
 28 23  1  1  0  0  0
 29 30  1  0  0  0  0
 30 32  2  0  0  0  0
 31 30  1  0  0  0  0
M  END
>  <MODEL>
4

>  <REMARK>
 VINA RESULT:      -4.7      3.443      8.795
  Name = 
  1 active torsions:
  status: ('A' for Active; 'I' for Inactive)
    1  A    between atoms: C_20  and  N_29
                            x       y       z     vdW  Elec       q    Type
                         _______ _______ _______ _____ _____    ______ ____

>  <TORSDO>
F 1

$$$$
=
 OpenBabel11122412503D

 32 37  0  0  1  0  0  0  0  0999 V2000
  159.2130  209.2100  156.1360 C   0  0  0  0  0  2  0  0  0  0  0  0
  161.5630  205.3970  152.7410 C   0  0  1  0  0  3  0  0  0  0  0  0
  161.5380  209.4520  149.8540 C   0  0  0  0  0  2  0  0  0  0  0  0
  161.5810  208.5950  148.5820 C   0  0  0  0  0  2  0  0  0  0  0  0
  160.9370  203.1870  151.6440 C   0  0  0  0  0  0  0  0  0  0  0  0
  160.8620  202.2670  150.4530 C   0  0  1  0  0  3  0  0  0  0  0  0
  160.7340  206.5920  154.8020 C   0  0  1  0  0  3  0  0  0  0  0  0
  162.5810  207.5450  153.6780 C   0  0  0  0  0  2  0  0  0  0  0  0
  160.8930  201.9220  148.1670 C   0  0  1  0  0  3  0  0  0  0  0  0
  161.5810  208.7570  155.4030 C   0  0  0  0  0  2  0  0  0  0  0  0
  162.3390  208.8030  150.9860 C   0  0  0  0  0  2  0  0  0  0  0  0
  162.3950  206.6690  152.4310 C   0  0  2  0  0  3  0  0  0  0  0  0
  161.7820  207.4040  151.2390 C   0  0  2  0  0  3  0  0  0  0  0  0
  161.8490  205.0440  150.2060 C   0  0  2  0  0  3  0  0  0  0  0  0
  159.5070  201.7030  148.7370 C   0  0  0  0  0  2  0  0  0  0  0  0
  158.6740  208.0070  155.3710 C   0  0  0  0  0  2  0  0  0  0  0  0
  161.2960  207.8540  154.2960 N   0  0  2  0  0  0  0  0  0  0  0  0
  159.5270  201.9700  150.1220 O   0  0  0  0  0  0  0  0  0  0  0  0
  159.5040  206.7750  155.7060 C   0  0  0  0  0  2  0  0  0  0  0  0
  160.4730  209.7960  155.4960 C   0  0  2  0  0  3  0  0  0  0  0  0
  161.1140  207.1630  148.8590 C   0  0  0  0  0  2  0  0  0  0  0  0
  161.9780  206.5690  149.9700 C   0  0  1  0  0  3  0  0  0  0  0  0
  161.3490  204.2690  148.9950 C   0  0  0  0  0  2  0  0  0  0  0  0
  160.3480  205.7090  153.6200 C   0  0  0  0  0  2  0  0  0  0  0  0
  160.8100  202.7060  152.7610 O   0  0  0  0  0  0  0  0  0  0  0  0
  160.8430  202.5230  146.7700 C   0  0  0  0  0  1  0  0  0  0  0  0
  161.0460  204.6850  151.4660 C   0  0  2  0  0  3  0  0  0  0  0  0
  161.5810  202.7660  149.2080 C   0  0  1  0  0  3  0  0  0  0  0  0
  160.9420  210.9260  156.2850 N   0  0  0  0  0  2  0  0  0  0  0  0
  160.3780  212.2360  156.1890 C   0  0  0  0  0  0  0  0  0  0  0  0
  159.3010  212.5440  155.2030 C   0  0  0  0  0  1  0  0  0  0  0  0
  160.8310  213.1800  156.9430 N   0  0  0  0  0  2  0  0  0  0  0  0
  2 24  1  1  0  0  0
  3 11  1  0  0  0  0
  4 21  1  0  0  0  0
  4  3  1  0  0  0  0
  5 25  2  0  0  0  0
  6 18  1  6  0  0  0
  6  5  1  0  0  0  0
  7 24  1  6  0  0  0
  7 19  1  0  0  0  0
  9 26  1  6  0  0  0
  9 15  1  0  0  0  0
  9 28  1  0  0  0  0
 10 20  1  0  0  0  0
 12  2  1  0  0  0  0
 12  8  1  1  0  0  0
 13 11  1  6  0  0  0
 13 12  1  0  0  0  0
 14 23  1  6  0  0  0
 14 27  1  0  0  0  0
 15 18  1  0  0  0  0
 16 19  1  0  0  0  0
 16  1  1  0  0  0  0
 17  8  1  1  0  0  0
 17  7  1  0  0  0  0
 17 10  1  0  0  0  0
 20  1  1  0  0  0  0
 20 29  1  1  0  0  0
 22 21  1  6  0  0  0
 22 14  1  0  0  0  0
 22 13  1  0  0  0  0
 27  5  1  1  0  0  0
 27  2  1  0  0  0  0
 28 23  1  6  0  0  0
 28  6  1  0  0  0  0
 30 29  1  0  0  0  0
 30 32  2  0  0  0  0
 31 30  1  0  0  0  0
M  END
>  <MODEL>
5

>  <REMARK>
 VINA RESULT:      -3.8      4.953      8.450
  Name = 
  1 active torsions:
  status: ('A' for Active; 'I' for Inactive)
    1  A    between atoms: C_20  and  N_29
                            x       y       z     vdW  Elec       q    Type
                         _______ _______ _______ _____ _____    ______ ____

>  <TORSDO>
F 1

$$$$
=
 OpenBabel11122412503D

 32 37  0  0  1  0  0  0  0  0999 V2000
  159.3500  203.8150  144.7080 C   0  0  0  0  0  2  0  0  0  0  0  0
  162.1270  206.9050  148.4930 C   0  0  1  0  0  3  0  0  0  0  0  0
  160.3440  203.2070  151.3080 C   0  0  0  0  0  2  0  0  0  0  0  0
  160.4250  204.0760  152.5710 C   0  0  0  0  0  2  0  0  0  0  0  0
  162.0310  209.2550  149.4660 C   0  0  0  0  0  0  0  0  0  0  0  0
  162.0350  210.2150  150.6270 C   0  0  1  0  0  3  0  0  0  0  0  0
  161.3450  205.9130  146.3090 C   0  0  1  0  0  3  0  0  0  0  0  0
  162.5800  204.5040  147.7480 C   0  0  0  0  0  2  0  0  0  0  0  0
  161.7690  210.6540  152.8820 C   0  0  1  0  0  3  0  0  0  0  0  0
  161.5750  203.5640  145.8640 C   0  0  0  0  0  2  0  0  0  0  0  0
  161.4920  203.5220  150.3450 C   0  0  0  0  0  2  0  0  0  0  0  0
  162.4570  205.4590  148.9440 C   0  0  2  0  0  3  0  0  0  0  0  0
  161.4480  205.0080  150.0010 C   0  0  2  0  0  3  0  0  0  0  0  0
  162.0570  207.2860  151.0390 C   0  0  2  0  0  3  0  0  0  0  0  0
  160.6410  211.2530  152.0690 C   0  0  0  0  0  2  0  0  0  0  0  0
  159.0830  205.1640  145.3660 C   0  0  0  0  0  2  0  0  0  0  0  0
  161.3920  204.5680  146.9040 N   0  0  2  0  0  0  0  0  0  0  0  0
  160.8200  210.9210  150.7090 O   0  0  0  0  0  0  0  0  0  0  0  0
  160.2980  206.0660  145.1950 C   0  0  0  0  0  2  0  0  0  0  0  0
  160.2340  202.9080  145.5650 C   0  0  2  0  0  3  0  0  0  0  0  0
  160.4790  205.5650  152.2190 C   0  0  0  0  0  2  0  0  0  0  0  0
  161.6660  205.8090  151.2880 C   0  0  1  0  0  3  0  0  0  0  0  0
  161.6160  208.2400  152.1410 C   0  0  0  0  0  2  0  0  0  0  0  0
  161.0490  206.9310  147.4040 C   0  0  0  0  0  2  0  0  0  0  0  0
  162.2570  209.6930  148.3480 O   0  0  0  0  0  0  0  0  0  0  0  0
  161.2910  210.1710  154.2440 C   0  0  0  0  0  1  0  0  0  0  0  0
  161.6390  207.8060  149.6540 C   0  0  2  0  0  3  0  0  0  0  0  0
  162.3350  209.5870  151.9810 C   0  0  1  0  0  3  0  0  0  0  0  0
  160.4630  201.6500  144.8700 N   0  0  0  0  0  2  0  0  0  0  0  0
  160.8070  200.4360  145.5430 C   0  0  0  0  0  0  0  0  0  0  0  0
  161.0250  200.4040  147.0180 C   0  0  0  0  0  1  0  0  0  0  0  0
  160.9660  199.3530  144.8580 N   0  0  0  0  0  2  0  0  0  0  0  0
  1 16  1  0  0  0  0
  1 20  1  0  0  0  0
  2 24  1  6  0  0  0
  2 12  1  0  0  0  0
  2 27  1  0  0  0  0
  3  4  1  0  0  0  0
  6  5  1  6  0  0  0
  6 18  1  0  0  0  0
  6 28  1  0  0  0  0
  7 19  1  6  0  0  0
  7 17  1  0  0  0  0
  7 24  1  0  0  0  0
  9 26  1  1  0  0  0
 11  3  1  0  0  0  0
 12  8  1  6  0  0  0
 12 13  1  0  0  0  0
 13 11  1  1  0  0  0
 13 22  1  0  0  0  0
 14 22  1  0  0  0  0
 14 23  1  1  0  0  0
 15  9  1  0  0  0  0
 17 10  1  6  0  0  0
 17  8  1  0  0  0  0
 18 15  1  0  0  0  0
 19 16  1  0  0  0  0
 20 29  1  6  0  0  0
 20 10  1  0  0  0  0
 21  4  1  0  0  0  0
 22 21  1  1  0  0  0
 25  5  2  0  0  0  0
 27  5  1  6  0  0  0
 27 14  1  0  0  0  0
 28 23  1  6  0  0  0
 28  9  1  0  0  0  0
 29 30  1  0  0  0  0
 30 31  1  0  0  0  0
 32 30  2  0  0  0  0
M  END
>  <MODEL>
6

>  <REMARK>
 VINA RESULT:      -3.6      4.673      7.081
  Name = 
  1 active torsions:
  status: ('A' for Active; 'I' for Inactive)
    1  A    between atoms: C_20  and  N_29
                            x       y       z     vdW  Elec       q    Type
                         _______ _______ _______ _____ _____    ______ ____

>  <TORSDO>
F 1

$$$$
