=
 OpenBabel11122412433D

 30 35  0  0  1  0  0  0  0  0999 V2000
  160.4700  211.9740  151.4270 C   0  0  2  0  0  3  0  0  0  0  0  0
  160.8740  213.4350  149.3810 C   0  0  0  0  0  0  0  0  0  0  0  0
  161.8980  208.8290  149.4920 O   0  0  0  0  0  0  0  0  0  0  0  0
  160.3980  210.4760  151.7890 C   0  0  2  0  0  3  0  0  0  0  0  0
  159.1720  212.5090  151.4870 O   0  0  0  0  0  0  0  0  0  0  0  0
  157.9780  211.2690  154.4830 O   0  0  0  0  0  0  0  0  0  0  0  0
  160.8800  208.3150  154.0880 C   0  0  0  0  0  0  0  0  0  0  0  0
  158.7610  211.4090  153.5560 C   0  0  0  0  0  0  0  0  0  0  0  0
  160.7980  207.6320  152.7650 C   0  0  2  0  0  3  0  0  0  0  0  0
  161.6310  207.8150  150.3850 C   0  0  0  0  0  0  0  0  0  0  0  0
  158.8980  212.7320  152.8450 C   0  0  2  0  0  3  0  0  0  0  0  0
  159.6550  210.2640  153.1490 C   0  0  2  0  0  3  0  0  0  0  0  0
  161.4570  213.6520  148.1300 C   0  0  0  0  0  3  0  0  0  0  0  0
  161.2210  206.2790  153.0940 N   0  0  0  0  0  0  0  0  0  0  0  0
  161.2750  207.4730  155.0280 C   0  0  0  0  0  3  0  0  0  0  0  0
  160.1060  214.4510  149.9370 O   0  0  0  0  0  1  0  0  0  0  0  0
  162.3140  209.9850  150.1990 C   0  0  2  0  0  3  0  0  0  0  0  0
  162.2710  212.6790  147.5540 C   0  0  0  0  0  3  0  0  0  0  0  0
  161.0750  212.2110  150.0600 C   0  0  0  0  0  0  0  0  0  0  0  0
  161.7900  209.8060  151.6420 C   0  0  2  0  0  3  0  0  0  0  0  0
  161.3420  206.6430  150.0280 O   0  0  0  0  0  0  0  0  0  0  0  0
  161.7930  208.2620  151.7880 C   0  0  1  0  0  3  0  0  0  0  0  0
  161.4870  206.1990  154.3570 C   0  0  0  0  0  3  0  0  0  0  0  0
  161.6700  210.6140  154.6660 C   0  0  0  0  0  1  0  0  0  0  0  0
  162.5190  211.4900  148.2360 C   0  0  0  0  0  3  0  0  0  0  0  0
  161.9390  211.2510  149.4870 C   0  0  0  0  0  0  0  0  0  0  0  0
  160.4740  209.7320  154.3330 C   0  0  2  0  0  3  0  0  0  0  0  0
  157.6350  213.5730  152.9750 C   0  0  0  0  0  2  0  0  0  0  0  0
  155.8240  214.2630  151.6000 O   0  0  0  0  0  1  0  0  0  0  0  0
  157.2060  214.0880  151.6160 C   0  0  0  0  0  2  0  0  0  0  0  0
  1 19  1  6  0  0  0
  1  5  1  0  0  0  0
  1  4  1  0  0  0  0
  2 16  1  0  0  0  0
  2 19  1  0  0  0  0
  3 17  1  0  0  0  0
  3 10  1  0  0  0  0
  4 12  1  0  0  0  0
  5 11  1  0  0  0  0
  7 27  1  0  0  0  0
  7 15  2  0  0  0  0
  8  6  2  0  0  0  0
  9 14  1  0  0  0  0
  9  7  1  0  0  0  0
 10 22  1  0  0  0  0
 11 28  1  0  0  0  0
 11  8  1  0  0  0  0
 12  8  1  0  0  0  0
 12 27  1  0  0  0  0
 13  2  2  0  0  0  0
 14 23  2  0  0  0  0
 17 20  1  0  0  0  0
 18 13  1  0  0  0  0
 18 25  2  0  0  0  0
 20 22  1  0  0  0  0
 20  4  1  0  0  0  0
 21 10  2  0  0  0  0
 22  9  1  0  0  0  0
 23 15  1  0  0  0  0
 25 26  1  0  0  0  0
 26 19  2  0  0  0  0
 26 17  1  0  0  0  0
 27 24  1  0  0  0  0
 29 30  1  0  0  0  0
 30 28  1  0  0  0  0
M  END
>  <MODEL>
1

>  <REMARK>
 VINA RESULT:      -6.6      0.000      0.000
  Name = 
  2 active torsions:
  status: ('A' for Active; 'I' for Inactive)
    1  A    between atoms: C_11  and  C_28
    2  A    between atoms: C_28  and  C_30
                            x       y       z     vdW  Elec       q    Type
                         _______ _______ _______ _____ _____    ______ ____

>  <TORSDO>
F 2

$$$$
=
 OpenBabel11122412433D

 30 35  0  0  1  0  0  0  0  0999 V2000
  159.9620  212.2460  152.0290 C   0  0  2  0  0  3  0  0  0  0  0  0
  160.5480  213.2050  149.7430 C   0  0  0  0  0  0  0  0  0  0  0  0
  161.4830  208.7460  150.9770 O   0  0  0  0  0  0  0  0  0  0  0  0
  159.8370  210.8700  152.7140 C   0  0  2  0  0  3  0  0  0  0  0  0
  158.6720  212.7790  151.8620 O   0  0  0  0  0  0  0  0  0  0  0  0
  157.2280  212.2510  154.9570 O   0  0  0  0  0  0  0  0  0  0  0  0
  160.1020  209.2890  155.4750 C   0  0  0  0  0  0  0  0  0  0  0  0
  158.0830  212.1780  154.0870 C   0  0  0  0  0  0  0  0  0  0  0  0
  160.1130  208.3230  154.3380 C   0  0  2  0  0  3  0  0  0  0  0  0
  161.1310  207.9610  152.0520 C   0  0  0  0  0  0  0  0  0  0  0  0
  158.2970  213.3050  153.1080 C   0  0  2  0  0  3  0  0  0  0  0  0
  158.9870  210.9720  154.0230 C   0  0  2  0  0  3  0  0  0  0  0  0
  161.2300  213.1330  148.5260 C   0  0  0  0  0  3  0  0  0  0  0  0
  160.4860  207.0810  154.9980 N   0  0  0  0  0  0  0  0  0  0  0  0
  160.4090  208.6840  156.6090 C   0  0  0  0  0  3  0  0  0  0  0  0
  159.7560  214.3200  149.9920 O   0  0  0  0  0  1  0  0  0  0  0  0
  161.8620  210.0330  151.4350 C   0  0  2  0  0  3  0  0  0  0  0  0
  162.0700  212.0550  148.2530 C   0  0  0  0  0  3  0  0  0  0  0  0
  160.6750  212.1670  150.6960 C   0  0  0  0  0  0  0  0  0  0  0  0
  161.2240  210.1860  152.8330 C   0  0  2  0  0  3  0  0  0  0  0  0
  160.8520  206.7380  151.9490 O   0  0  0  0  0  0  0  0  0  0  0  0
  161.1910  208.7160  153.3260 C   0  0  1  0  0  3  0  0  0  0  0  0
  160.6520  207.2910  156.2640 C   0  0  0  0  0  3  0  0  0  0  0  0
  160.8830  211.6610  155.5760 C   0  0  0  0  0  1  0  0  0  0  0  0
  162.2450  211.0520  149.2040 C   0  0  0  0  0  3  0  0  0  0  0  0
  161.5650  211.1030  150.4260 C   0  0  0  0  0  0  0  0  0  0  0  0
  159.7030  210.7250  155.3580 C   0  0  2  0  0  3  0  0  0  0  0  0
  157.0420  214.1520  152.9430 C   0  0  0  0  0  2  0  0  0  0  0  0
  155.2580  214.2290  151.3740 O   0  0  0  0  0  1  0  0  0  0  0  0
  156.6470  214.2250  151.4810 C   0  0  0  0  0  2  0  0  0  0  0  0
  1 19  1  6  0  0  0
  1  4  1  0  0  0  0
  2 16  1  0  0  0  0
  2 19  1  0  0  0  0
  3 17  1  0  0  0  0
  3 10  1  0  0  0  0
  4 20  1  0  0  0  0
  4 12  1  0  0  0  0
  5  1  1  0  0  0  0
  5 11  1  0  0  0  0
  7 15  2  0  0  0  0
  8  6  2  0  0  0  0
  9 14  1  0  0  0  0
  9  7  1  0  0  0  0
 10 22  1  0  0  0  0
 11  8  1  0  0  0  0
 12  8  1  0  0  0  0
 12 27  1  0  0  0  0
 13  2  2  0  0  0  0
 14 23  2  0  0  0  0
 17 20  1  0  0  0  0
 18 13  1  0  0  0  0
 18 25  2  0  0  0  0
 20 22  1  0  0  0  0
 21 10  2  0  0  0  0
 22  9  1  0  0  0  0
 23 15  1  0  0  0  0
 25 26  1  0  0  0  0
 26 19  2  0  0  0  0
 26 17  1  0  0  0  0
 27  7  1  0  0  0  0
 27 24  1  0  0  0  0
 28 11  1  0  0  0  0
 29 30  1  0  0  0  0
 30 28  1  0  0  0  0
M  END
>  <MODEL>
2

>  <REMARK>
 VINA RESULT:      -6.2      1.155      1.380
  Name = 
  2 active torsions:
  status: ('A' for Active; 'I' for Inactive)
    1  A    between atoms: C_11  and  C_28
    2  A    between atoms: C_28  and  C_30
                            x       y       z     vdW  Elec       q    Type
                         _______ _______ _______ _____ _____    ______ ____

>  <TORSDO>
F 2

$$$$
=
 OpenBabel11122412433D

 30 35  0  0  1  0  0  0  0  0999 V2000
  161.3510  204.8220  148.8090 C   0  0  2  0  0  3  0  0  0  0  0  0
  161.0460  202.2980  148.6460 C   0  0  0  0  0  0  0  0  0  0  0  0
  160.7600  204.6640  152.7210 O   0  0  0  0  0  0  0  0  0  0  0  0
  161.0850  205.9610  149.8140 C   0  0  2  0  0  3  0  0  0  0  0  0
  160.4430  204.9460  147.7430 O   0  0  0  0  0  0  0  0  0  0  0  0
  160.6230  208.3130  146.9850 O   0  0  0  0  0  0  0  0  0  0  0  0
  162.0680  208.8150  150.8540 C   0  0  0  0  0  0  0  0  0  0  0  0
  160.8470  207.2870  147.6100 C   0  0  0  0  0  0  0  0  0  0  0  0
  161.1670  208.1930  151.8660 C   0  0  2  0  0  3  0  0  0  0  0  0
  160.7210  206.0010  153.0450 C   0  0  0  0  0  0  0  0  0  0  0  0
  160.9490  205.9550  146.9090 C   0  0  2  0  0  3  0  0  0  0  0  0
  161.0900  207.3520  149.0970 C   0  0  2  0  0  3  0  0  0  0  0  0
  160.9640  201.0360  149.2400 C   0  0  0  0  0  3  0  0  0  0  0  0
  161.3320  209.0820  153.0060 N   0  0  0  0  0  0  0  0  0  0  0  0
  162.6450  209.8990  151.3400 C   0  0  0  0  0  3  0  0  0  0  0  0
  160.9490  202.3850  147.2620 O   0  0  0  0  0  1  0  0  0  0  0  0
  161.7550  204.4450  151.7350 C   0  0  2  0  0  3  0  0  0  0  0  0
  161.1010  200.8970  150.6190 C   0  0  0  0  0  3  0  0  0  0  0  0
  161.2340  203.4520  149.4430 C   0  0  0  0  0  0  0  0  0  0  0  0
  161.9910  205.8160  151.0640 C   0  0  2  0  0  3  0  0  0  0  0  0
  160.0020  206.4640  153.9690 O   0  0  0  0  0  0  0  0  0  0  0  0
  161.6680  206.7930  152.2250 C   0  0  1  0  0  3  0  0  0  0  0  0
  162.1590  210.0300  152.7060 C   0  0  0  0  0  3  0  0  0  0  0  0
  163.6040  207.7460  149.1960 C   0  0  0  0  0  1  0  0  0  0  0  0
  161.3380  202.0190  151.4100 C   0  0  0  0  0  3  0  0  0  0  0  0
  161.4170  203.2930  150.8350 C   0  0  0  0  0  0  0  0  0  0  0  0
  162.2200  208.3290  149.4480 C   0  0  2  0  0  3  0  0  0  0  0  0
  160.1850  205.9530  145.5920 C   0  0  0  0  0  2  0  0  0  0  0  0
  162.1260  204.6970  145.0430 O   0  0  0  0  0  1  0  0  0  0  0  0
  160.8380  205.0030  144.6080 C   0  0  0  0  0  2  0  0  0  0  0  0
  1  5  1  6  0  0  0
  1 19  1  0  0  0  0
  1  4  1  0  0  0  0
  2 13  2  0  0  0  0
  2 19  1  0  0  0  0
  3 10  1  0  0  0  0
  4 20  1  0  0  0  0
  6  8  2  0  0  0  0
  7 15  2  0  0  0  0
  7  9  1  0  0  0  0
  8 12  1  0  0  0  0
  9 22  1  0  0  0  0
  9 14  1  0  0  0  0
 10 21  2  0  0  0  0
 11  8  1  0  0  0  0
 11  5  1  0  0  0  0
 12 27  1  0  0  0  0
 12  4  1  0  0  0  0
 13 18  1  0  0  0  0
 15 23  1  0  0  0  0
 16  2  1  0  0  0  0
 17  3  1  0  0  0  0
 18 25  2  0  0  0  0
 19 26  2  0  0  0  0
 20 17  1  0  0  0  0
 20 22  1  0  0  0  0
 22 10  1  0  0  0  0
 23 14  2  0  0  0  0
 24 27  1  0  0  0  0
 26 25  1  0  0  0  0
 26 17  1  0  0  0  0
 27  7  1  0  0  0  0
 28 11  1  0  0  0  0
 30 29  1  0  0  0  0
 30 28  1  0  0  0  0
M  END
>  <MODEL>
3

>  <REMARK>
 VINA RESULT:      -6.0      3.952      7.976
  Name = 
  2 active torsions:
  status: ('A' for Active; 'I' for Inactive)
    1  A    between atoms: C_11  and  C_28
    2  A    between atoms: C_28  and  C_30
                            x       y       z     vdW  Elec       q    Type
                         _______ _______ _______ _____ _____    ______ ____

>  <TORSDO>
F 2

$$$$
=
 OpenBabel11122412433D

 30 35  0  0  1  0  0  0  0  0999 V2000
  161.5420  208.7630  151.6200 C   0  0  2  0  0  3  0  0  0  0  0  0
  161.7460  211.1270  150.6940 C   0  0  0  0  0  0  0  0  0  0  0  0
  161.0220  207.3480  147.9590 O   0  0  0  0  0  0  0  0  0  0  0  0
  161.0600  207.3720  151.1580 C   0  0  2  0  0  3  0  0  0  0  0  0
  160.6200  209.2660  152.5540 O   0  0  0  0  0  0  0  0  0  0  0  0
  160.1180  206.5670  154.6530 O   0  0  0  0  0  0  0  0  0  0  0  0
  161.4620  204.2220  151.4900 C   0  0  0  0  0  0  0  0  0  0  0  0
  160.5470  207.1730  153.6820 C   0  0  0  0  0  0  0  0  0  0  0  0
  160.7100  204.5050  150.2330 C   0  0  2  0  0  3  0  0  0  0  0  0
  160.7190  206.0300  148.2160 C   0  0  0  0  0  0  0  0  0  0  0  0
  160.9080  208.6340  153.7740 C   0  0  2  0  0  3  0  0  0  0  0  0
  160.7830  206.4410  152.3840 C   0  0  2  0  0  3  0  0  0  0  0  0
  161.9210  212.0100  149.6260 C   0  0  0  0  0  3  0  0  0  0  0  0
  160.7020  203.2020  149.5850 N   0  0  0  0  0  0  0  0  0  0  0  0
  161.8140  202.9500  151.5510 C   0  0  0  0  0  3  0  0  0  0  0  0
  161.6230  211.6540  151.9740 O   0  0  0  0  0  1  0  0  0  0  0  0
  162.0340  207.7840  148.8520 C   0  0  2  0  0  3  0  0  0  0  0  0
  162.0930  211.5230  148.3310 C   0  0  0  0  0  3  0  0  0  0  0  0
  161.7050  209.7310  150.4680 C   0  0  0  0  0  0  0  0  0  0  0  0
  161.9860  206.8090  150.0490 C   0  0  2  0  0  3  0  0  0  0  0  0
  159.9290  205.3550  147.5060 O   0  0  0  0  0  0  0  0  0  0  0  0
  161.4830  205.5070  149.3730 C   0  0  1  0  0  3  0  0  0  0  0  0
  161.3210  202.3410  150.3250 C   0  0  0  0  0  3  0  0  0  0  0  0
  163.1680  205.6010  152.6870 C   0  0  0  0  0  1  0  0  0  0  0  0
  162.1070  210.1490  148.1020 C   0  0  0  0  0  3  0  0  0  0  0  0
  161.9260  209.2490  149.1580 C   0  0  0  0  0  0  0  0  0  0  0  0
  161.6970  205.2230  152.5750 C   0  0  2  0  0  3  0  0  0  0  0  0
  160.1500  209.3310  154.8960 C   0  0  0  0  0  2  0  0  0  0  0  0
  162.2070  210.4950  155.1420 O   0  0  0  0  0  1  0  0  0  0  0  0
  160.8260  210.6400  155.2510 C   0  0  0  0  0  2  0  0  0  0  0  0
  1 19  1  6  0  0  0
  1  5  1  0  0  0  0
  2 16  1  0  0  0  0
  3 10  1  0  0  0  0
  3 17  1  0  0  0  0
  4  1  1  0  0  0  0
  4 12  1  0  0  0  0
  5 11  1  0  0  0  0
  7 15  2  0  0  0  0
  7 27  1  0  0  0  0
  8 11  1  0  0  0  0
  8  6  2  0  0  0  0
  9  7  1  0  0  0  0
 10 22  1  0  0  0  0
 11 28  1  0  0  0  0
 12 27  1  0  0  0  0
 12  8  1  0  0  0  0
 13  2  2  0  0  0  0
 14  9  1  0  0  0  0
 14 23  2  0  0  0  0
 17 26  1  0  0  0  0
 17 20  1  0  0  0  0
 18 13  1  0  0  0  0
 19  2  1  0  0  0  0
 20  4  1  0  0  0  0
 21 10  2  0  0  0  0
 22 20  1  0  0  0  0
 22  9  1  0  0  0  0
 23 15  1  0  0  0  0
 25 18  2  0  0  0  0
 25 26  1  0  0  0  0
 26 19  2  0  0  0  0
 27 24  1  0  0  0  0
 28 30  1  0  0  0  0
 29 30  1  0  0  0  0
M  END
>  <MODEL>
4

>  <REMARK>
 VINA RESULT:      -5.1      2.694      4.226
  Name = 
  2 active torsions:
  status: ('A' for Active; 'I' for Inactive)
    1  A    between atoms: C_11  and  C_28
    2  A    between atoms: C_28  and  C_30
                            x       y       z     vdW  Elec       q    Type
                         _______ _______ _______ _____ _____    ______ ____

>  <TORSDO>
F 2

$$$$
=
 OpenBabel11122412433D

 30 35  0  0  1  0  0  0  0  0999 V2000
  161.2000  207.9480  151.1830 C   0  0  2  0  0  3  0  0  0  0  0  0
  160.9930  208.9620  153.5110 C   0  0  0  0  0  0  0  0  0  0  0  0
  161.4700  204.3260  152.7610 O   0  0  0  0  0  0  0  0  0  0  0  0
  161.6240  206.6160  150.5310 C   0  0  2  0  0  3  0  0  0  0  0  0
  162.1870  208.9110  150.9110 O   0  0  0  0  0  0  0  0  0  0  0  0
  162.7550  208.4760  147.5300 O   0  0  0  0  0  0  0  0  0  0  0  0
  161.1750  204.6620  148.0460 C   0  0  0  0  0  0  0  0  0  0  0  0
  162.2820  208.2370  148.6310 C   0  0  0  0  0  0  0  0  0  0  0  0
  161.8570  203.9250  149.1500 C   0  0  2  0  0  3  0  0  0  0  0  0
  161.7600  203.5660  151.6510 C   0  0  0  0  0  0  0  0  0  0  0  0
  161.9590  209.3490  149.5970 C   0  0  2  0  0  3  0  0  0  0  0  0
  161.9540  206.8160  149.0150 C   0  0  2  0  0  3  0  0  0  0  0  0
  160.7720  208.8350  154.8840 C   0  0  0  0  0  3  0  0  0  0  0  0
  161.7980  202.5500  148.6780 N   0  0  0  0  0  0  0  0  0  0  0  0
  160.8000  203.8320  147.0880 C   0  0  0  0  0  3  0  0  0  0  0  0
  161.2030  210.2340  152.9900 O   0  0  0  0  0  1  0  0  0  0  0  0
  160.5230  205.3240  152.4170 C   0  0  2  0  0  3  0  0  0  0  0  0
  160.5130  207.5840  155.4420 C   0  0  0  0  0  3  0  0  0  0  0  0
  160.9900  207.8190  152.6770 C   0  0  0  0  0  0  0  0  0  0  0  0
  160.6210  205.4860  150.8840 C   0  0  2  0  0  3  0  0  0  0  0  0
  162.4920  202.5430  151.6900 O   0  0  0  0  0  0  0  0  0  0  0  0
  161.0550  204.0630  150.4460 C   0  0  1  0  0  3  0  0  0  0  0  0
  161.2060  202.5060  147.5290 C   0  0  0  0  0  3  0  0  0  0  0  0
  159.5740  206.5780  148.1410 C   0  0  0  0  0  1  0  0  0  0  0  0
  160.4560  206.4580  154.6250 C   0  0  0  0  0  3  0  0  0  0  0  0
  160.6810  206.5640  153.2480 C   0  0  0  0  0  0  0  0  0  0  0  0
  161.0270  206.1480  147.9900 C   0  0  2  0  0  3  0  0  0  0  0  0
  162.7970  210.5910  149.3250 C   0  0  0  0  0  2  0  0  0  0  0  0
  162.7810  212.4950  147.9030 O   0  0  0  0  0  1  0  0  0  0  0  0
  161.9560  211.6530  148.6450 C   0  0  0  0  0  2  0  0  0  0  0  0
  1  5  1  1  0  0  0
  1 19  1  0  0  0  0
  2 13  1  0  0  0  0
  4 20  1  0  0  0  0
  4  1  1  0  0  0  0
  6  8  2  0  0  0  0
  7  9  1  0  0  0  0
  8 12  1  0  0  0  0
  8 11  1  0  0  0  0
  9 22  1  0  0  0  0
 10 21  2  0  0  0  0
 10  3  1  0  0  0  0
 11  5  1  0  0  0  0
 12  4  1  0  0  0  0
 13 18  2  0  0  0  0
 14  9  1  0  0  0  0
 15 23  1  0  0  0  0
 15  7  2  0  0  0  0
 16  2  1  0  0  0  0
 17  3  1  0  0  0  0
 17 26  1  0  0  0  0
 19 26  1  0  0  0  0
 19  2  2  0  0  0  0
 20 17  1  0  0  0  0
 22 20  1  0  0  0  0
 22 10  1  0  0  0  0
 23 14  2  0  0  0  0
 25 18  1  0  0  0  0
 26 25  2  0  0  0  0
 27  7  1  0  0  0  0
 27 24  1  0  0  0  0
 27 12  1  0  0  0  0
 28 11  1  0  0  0  0
 29 30  1  0  0  0  0
 30 28  1  0  0  0  0
M  END
>  <MODEL>
5

>  <REMARK>
 VINA RESULT:      -5.1      3.056      6.499
  Name = 
  2 active torsions:
  status: ('A' for Active; 'I' for Inactive)
    1  A    between atoms: C_11  and  C_28
    2  A    between atoms: C_28  and  C_30
                            x       y       z     vdW  Elec       q    Type
                         _______ _______ _______ _____ _____    ______ ____

>  <TORSDO>
F 2

$$$$
=
 OpenBabel11122412433D

 30 35  0  0  1  0  0  0  0  0999 V2000
  160.8160  203.6170  147.9100 C   0  0  2  0  0  3  0  0  0  0  0  0
  160.7780  203.9780  145.3890 C   0  0  0  0  0  0  0  0  0  0  0  0
  161.9340  207.3760  148.4540 O   0  0  0  0  0  0  0  0  0  0  0  0
  161.3630  204.3120  149.1740 C   0  0  2  0  0  3  0  0  0  0  0  0
  161.5710  202.4550  147.6780 O   0  0  0  0  0  0  0  0  0  0  0  0
  161.7050  201.0030  150.8120 O   0  0  0  0  0  0  0  0  0  0  0  0
  160.9000  204.8050  152.2940 C   0  0  0  0  0  0  0  0  0  0  0  0
  161.4470  201.8580  149.9780 C   0  0  0  0  0  0  0  0  0  0  0  0
  161.8520  205.8210  151.7590 C   0  0  2  0  0  3  0  0  0  0  0  0
  162.1850  207.3930  149.8080 C   0  0  0  0  0  0  0  0  0  0  0  0
  161.0810  201.4820  148.5640 C   0  0  2  0  0  3  0  0  0  0  0  0
  161.4280  203.3130  150.3770 C   0  0  2  0  0  3  0  0  0  0  0  0
  160.7870  204.8200  144.2740 C   0  0  0  0  0  3  0  0  0  0  0  0
  161.9630  206.7490  152.8740 N   0  0  0  0  0  0  0  0  0  0  0  0
  160.5380  205.1050  153.5290 C   0  0  0  0  0  3  0  0  0  0  0  0
  160.6870  202.6060  145.1800 O   0  0  0  0  0  1  0  0  0  0  0  0
  160.7890  206.5810  148.1950 C   0  0  2  0  0  3  0  0  0  0  0  0
  160.8310  206.2030  144.4380 C   0  0  0  0  0  3  0  0  0  0  0  0
  160.8510  204.5180  146.6940 C   0  0  0  0  0  0  0  0  0  0  0  0
  160.6330  205.6570  149.4230 C   0  0  2  0  0  3  0  0  0  0  0  0
  163.0810  208.1060  150.3320 O   0  0  0  0  0  0  0  0  0  0  0  0
  161.2370  206.5330  150.5520 C   0  0  1  0  0  3  0  0  0  0  0  0
  161.2260  206.3440  153.8570 C   0  0  0  0  0  3  0  0  0  0  0  0
  159.0230  203.6070  151.1600 C   0  0  0  0  0  1  0  0  0  0  0  0
  160.8510  206.7510  145.7190 C   0  0  0  0  0  3  0  0  0  0  0  0
  160.8500  205.9230  146.8480 C   0  0  0  0  0  0  0  0  0  0  0  0
  160.4900  203.5670  151.5650 C   0  0  2  0  0  3  0  0  0  0  0  0
  161.6430  200.1200  148.1810 C   0  0  0  0  0  2  0  0  0  0  0  0
  161.5810  198.5690  146.3820 O   0  0  0  0  0  1  0  0  0  0  0  0
  161.5800  199.9300  146.6790 C   0  0  0  0  0  2  0  0  0  0  0  0
  1 19  1  6  0  0  0
  1  4  1  0  0  0  0
  2 19  1  0  0  0  0
  3 10  1  0  0  0  0
  4 20  1  0  0  0  0
  4 12  1  0  0  0  0
  5  1  1  0  0  0  0
  5 11  1  0  0  0  0
  7 15  2  0  0  0  0
  8 12  1  0  0  0  0
  8  6  2  0  0  0  0
  9  7  1  0  0  0  0
  9 14  1  0  0  0  0
 10 21  2  0  0  0  0
 10 22  1  0  0  0  0
 11  8  1  0  0  0  0
 12 27  1  0  0  0  0
 13 18  1  0  0  0  0
 13  2  2  0  0  0  0
 14 23  2  0  0  0  0
 15 23  1  0  0  0  0
 16  2  1  0  0  0  0
 17  3  1  0  0  0  0
 17 20  1  0  0  0  0
 18 25  2  0  0  0  0
 19 26  2  0  0  0  0
 20 22  1  0  0  0  0
 22  9  1  0  0  0  0
 24 27  1  0  0  0  0
 25 26  1  0  0  0  0
 26 17  1  0  0  0  0
 27  7  1  0  0  0  0
 28 11  1  0  0  0  0
 29 30  1  0  0  0  0
 30 28  1  0  0  0  0
M  END
>  <MODEL>
6

>  <REMARK>
 VINA RESULT:      -4.7      5.010      8.617
  Name = 
  2 active torsions:
  status: ('A' for Active; 'I' for Inactive)
    1  A    between atoms: C_11  and  C_28
    2  A    between atoms: C_28  and  C_30
                            x       y       z     vdW  Elec       q    Type
                         _______ _______ _______ _____ _____    ______ ____

>  <TORSDO>
F 2

$$$$
=
 OpenBabel11122412433D

 30 35  0  0  1  0  0  0  0  0999 V2000
  161.1000  207.5720  152.8520 C   0  0  2  0  0  3  0  0  0  0  0  0
  161.1620  205.0250  152.8910 C   0  0  0  0  0  0  0  0  0  0  0  0
  162.1510  207.5620  149.0350 O   0  0  0  0  0  0  0  0  0  0  0  0
  161.5860  208.7310  151.9580 C   0  0  2  0  0  3  0  0  0  0  0  0
  161.8770  207.5550  154.0230 O   0  0  0  0  0  0  0  0  0  0  0  0
  161.8990  210.8800  154.9640 O   0  0  0  0  0  0  0  0  0  0  0  0
  160.9900  211.7150  150.9910 C   0  0  0  0  0  0  0  0  0  0  0  0
  161.6650  209.9130  154.2540 C   0  0  0  0  0  0  0  0  0  0  0  0
  161.9510  211.0640  150.0550 C   0  0  2  0  0  3  0  0  0  0  0  0
  162.3460  208.9040  148.8020 C   0  0  0  0  0  0  0  0  0  0  0  0
  161.3620  208.5630  154.8530 C   0  0  2  0  0  3  0  0  0  0  0  0
  161.6130  210.0770  152.7550 C   0  0  2  0  0  3  0  0  0  0  0  0
  161.2060  203.7940  152.2330 C   0  0  0  0  0  3  0  0  0  0  0  0
  162.0060  212.0230  148.9620 N   0  0  0  0  0  0  0  0  0  0  0  0
  160.5740  212.8730  150.5090 C   0  0  0  0  0  3  0  0  0  0  0  0
  161.0950  205.0310  154.2800 O   0  0  0  0  0  1  0  0  0  0  0  0
  161.0280  207.3860  149.8810 C   0  0  2  0  0  3  0  0  0  0  0  0
  161.2280  203.7400  150.8410 C   0  0  0  0  0  3  0  0  0  0  0  0
  161.1750  206.2310  152.1520 C   0  0  0  0  0  0  0  0  0  0  0  0
  160.8310  208.7370  150.6040 C   0  0  2  0  0  3  0  0  0  0  0  0
  163.2110  209.3450  148.0000 O   0  0  0  0  0  0  0  0  0  0  0  0
  161.3780  209.7380  149.5520 C   0  0  1  0  0  3  0  0  0  0  0  0
  161.2340  213.0280  149.2210 C   0  0  0  0  0  3  0  0  0  0  0  0
  159.1750  210.7110  152.3860 C   0  0  0  0  0  1  0  0  0  0  0  0
  161.1890  204.9190  150.1000 C   0  0  0  0  0  3  0  0  0  0  0  0
  161.1510  206.1630  150.7410 C   0  0  0  0  0  0  0  0  0  0  0  0
  160.6250  211.1740  152.3360 C   0  0  2  0  0  3  0  0  0  0  0  0
  161.9560  208.4210  156.2480 C   0  0  0  0  0  2  0  0  0  0  0  0
  160.0810  207.0480  156.7480 O   0  0  0  0  0  1  0  0  0  0  0  0
  160.8680  208.0830  157.2490 C   0  0  0  0  0  2  0  0  0  0  0  0
  1 19  1  6  0  0  0
  1  5  1  0  0  0  0
  2 16  1  0  0  0  0
  3 17  1  0  0  0  0
  4 12  1  0  0  0  0
  4  1  1  0  0  0  0
  5 11  1  0  0  0  0
  7 27  1  0  0  0  0
  8 11  1  0  0  0  0
  8  6  2  0  0  0  0
  9  7  1  0  0  0  0
 10  3  1  0  0  0  0
 10 22  1  0  0  0  0
 11 28  1  0  0  0  0
 12  8  1  0  0  0  0
 13  2  1  0  0  0  0
 14 23  2  0  0  0  0
 14  9  1  0  0  0  0
 15  7  2  0  0  0  0
 17 20  1  0  0  0  0
 17 26  1  0  0  0  0
 18 13  2  0  0  0  0
 19  2  2  0  0  0  0
 20  4  1  0  0  0  0
 21 10  2  0  0  0  0
 22  9  1  0  0  0  0
 22 20  1  0  0  0  0
 23 15  1  0  0  0  0
 25 26  2  0  0  0  0
 25 18  1  0  0  0  0
 26 19  1  0  0  0  0
 27 24  1  0  0  0  0
 27 12  1  0  0  0  0
 28 30  1  0  0  0  0
 29 30  1  0  0  0  0
M  END
>  <MODEL>
7

>  <REMARK>
 VINA RESULT:      -4.6      2.878      6.175
  Name = 
  2 active torsions:
  status: ('A' for Active; 'I' for Inactive)
    1  A    between atoms: C_11  and  C_28
    2  A    between atoms: C_28  and  C_30
                            x       y       z     vdW  Elec       q    Type
                         _______ _______ _______ _____ _____    ______ ____

>  <TORSDO>
F 2

$$$$
=
 OpenBabel11122412433D

 30 35  0  0  1  0  0  0  0  0999 V2000
  160.9580  211.9050  151.0660 C   0  0  2  0  0  3  0  0  0  0  0  0
  160.0400  212.1780  153.4270 C   0  0  0  0  0  0  0  0  0  0  0  0
  158.2310  214.4230  149.6890 O   0  0  0  0  0  0  0  0  0  0  0  0
  160.5340  212.2040  149.6140 C   0  0  2  0  0  3  0  0  0  0  0  0
  160.9120  210.5150  151.2670 O   0  0  0  0  0  0  0  0  0  0  0  0
  162.5190  209.2920  148.4630 O   0  0  0  0  0  0  0  0  0  0  0  0
  161.5710  212.9300  146.6830 C   0  0  0  0  0  0  0  0  0  0  0  0
  162.0180  210.1310  149.1960 C   0  0  0  0  0  0  0  0  0  0  0  0
  160.1160  213.2370  146.7930 C   0  0  2  0  0  3  0  0  0  0  0  0
  158.4290  214.3240  148.3310 C   0  0  0  0  0  0  0  0  0  0  0  0
  162.0840  209.9940  150.6960 C   0  0  2  0  0  3  0  0  0  0  0  0
  161.3750  211.3590  148.6010 C   0  0  2  0  0  3  0  0  0  0  0  0
  159.2500  212.8530  154.3600 C   0  0  0  0  0  3  0  0  0  0  0  0
  159.8670  213.9690  145.5600 N   0  0  0  0  0  0  0  0  0  0  0  0
  162.0680  213.4030  145.5540 C   0  0  0  0  0  3  0  0  0  0  0  0
  160.7810  211.0830  153.8570 O   0  0  0  0  0  1  0  0  0  0  0  0
  159.4830  214.3910  150.3540 C   0  0  2  0  0  3  0  0  0  0  0  0
  158.5250  213.9820  153.9830 C   0  0  0  0  0  3  0  0  0  0  0  0
  160.0850  212.6120  152.0810 C   0  0  0  0  0  0  0  0  0  0  0  0
  160.4680  213.7330  149.3620 C   0  0  2  0  0  3  0  0  0  0  0  0
  157.4970  214.4300  147.4900 O   0  0  0  0  0  0  0  0  0  0  0  0
  159.8610  214.1470  147.9960 C   0  0  1  0  0  3  0  0  0  0  0  0
  160.9600  214.0590  144.8760 C   0  0  0  0  0  3  0  0  0  0  0  0
  163.3550  212.9510  148.4330 C   0  0  0  0  0  1  0  0  0  0  0  0
  158.6020  214.4510  152.6740 C   0  0  0  0  0  3  0  0  0  0  0  0
  159.3820  213.7840  151.7230 C   0  0  0  0  0  0  0  0  0  0  0  0
  162.3380  212.1130  147.6730 C   0  0  2  0  0  3  0  0  0  0  0  0
  162.2510  208.5410  151.1210 C   0  0  0  0  0  2  0  0  0  0  0  0
  161.1300  207.5730  152.9800 O   0  0  0  0  0  1  0  0  0  0  0  0
  160.9440  208.0010  151.6670 C   0  0  0  0  0  2  0  0  0  0  0  0
  1  5  1  1  0  0  0
  1 19  1  0  0  0  0
  2 16  1  0  0  0  0
  2 13  1  0  0  0  0
  3 17  1  0  0  0  0
  4  1  1  0  0  0  0
  6  8  2  0  0  0  0
  7  9  1  0  0  0  0
  7 27  1  0  0  0  0
  8 11  1  0  0  0  0
  9 22  1  0  0  0  0
 10  3  1  0  0  0  0
 11 28  1  0  0  0  0
 11  5  1  0  0  0  0
 12  8  1  0  0  0  0
 12  4  1  0  0  0  0
 14  9  1  0  0  0  0
 15  7  2  0  0  0  0
 17 26  1  0  0  0  0
 18 13  2  0  0  0  0
 19  2  2  0  0  0  0
 20  4  1  0  0  0  0
 20 17  1  0  0  0  0
 21 10  2  0  0  0  0
 22 10  1  0  0  0  0
 22 20  1  0  0  0  0
 23 15  1  0  0  0  0
 23 14  2  0  0  0  0
 25 18  1  0  0  0  0
 26 19  1  0  0  0  0
 26 25  2  0  0  0  0
 27 24  1  0  0  0  0
 27 12  1  0  0  0  0
 28 30  1  0  0  0  0
 30 29  1  0  0  0  0
M  END
>  <MODEL>
8

>  <REMARK>
 VINA RESULT:      -4.4      2.745      7.001
  Name = 
  2 active torsions:
  status: ('A' for Active; 'I' for Inactive)
    1  A    between atoms: C_11  and  C_28
    2  A    between atoms: C_28  and  C_30
                            x       y       z     vdW  Elec       q    Type
                         _______ _______ _______ _____ _____    ______ ____

>  <TORSDO>
F 2

$$$$
=
 OpenBabel11122412433D

 30 35  0  0  1  0  0  0  0  0999 V2000
  161.6340  207.9530  151.4320 C   0  0  2  0  0  3  0  0  0  0  0  0
  161.6710  205.7850  150.0960 C   0  0  0  0  0  0  0  0  0  0  0  0
  160.0000  206.0610  154.5020 O   0  0  0  0  0  0  0  0  0  0  0  0
  160.9710  208.5220  152.7040 C   0  0  2  0  0  3  0  0  0  0  0  0
  161.0500  208.5700  150.3120 O   0  0  0  0  0  0  0  0  0  0  0  0
  161.0530  211.9100  151.2000 O   0  0  0  0  0  0  0  0  0  0  0  0
  161.3000  210.5710  155.1300 C   0  0  0  0  0  0  0  0  0  0  0  0
  161.2090  210.7070  151.3460 C   0  0  0  0  0  0  0  0  0  0  0  0
  160.2280  209.5830  155.4470 C   0  0  2  0  0  3  0  0  0  0  0  0
  159.7220  207.1080  155.3520 C   0  0  0  0  0  0  0  0  0  0  0  0
  161.6510  209.8330  150.1990 C   0  0  2  0  0  3  0  0  0  0  0  0
  161.0200  210.0860  152.7080 C   0  0  2  0  0  3  0  0  0  0  0  0
  161.5700  204.3940  150.0220 C   0  0  0  0  0  3  0  0  0  0  0  0
  159.9690  209.8560  156.8520 N   0  0  0  0  0  0  0  0  0  0  0  0
  161.5930  211.3030  156.1910 C   0  0  0  0  0  3  0  0  0  0  0  0
  161.9540  206.4910  148.9320 O   0  0  0  0  0  1  0  0  0  0  0  0
  161.2470  206.2840  153.8680 C   0  0  2  0  0  3  0  0  0  0  0  0
  161.3330  203.6420  151.1710 C   0  0  0  0  0  3  0  0  0  0  0  0
  161.4990  206.4480  151.3340 C   0  0  0  0  0  0  0  0  0  0  0  0
  161.5050  207.8040  153.9710 C   0  0  2  0  0  3  0  0  0  0  0  0
  158.7270  207.1220  156.1230 O   0  0  0  0  0  0  0  0  0  0  0  0
  160.7640  208.1590  155.2870 C   0  0  1  0  0  3  0  0  0  0  0  0
  160.7340  210.8150  157.2610 C   0  0  0  0  0  3  0  0  0  0  0  0
  163.3450  210.3260  153.7160 C   0  0  0  0  0  1  0  0  0  0  0  0
  161.2130  204.2790  152.4040 C   0  0  0  0  0  3  0  0  0  0  0  0
  161.3050  205.6730  152.4980 C   0  0  0  0  0  0  0  0  0  0  0  0
  161.8900  210.7690  153.7720 C   0  0  2  0  0  3  0  0  0  0  0  0
  161.2880  210.4470  148.8530 C   0  0  0  0  0  2  0  0  0  0  0  0
  161.7780  212.4860  147.7350 O   0  0  0  0  0  1  0  0  0  0  0  0
  162.3640  211.4200  148.4130 C   0  0  0  0  0  2  0  0  0  0  0  0
  1  5  1  6  0  0  0
  1  4  1  0  0  0  0
  2 19  1  0  0  0  0
  3 10  1  0  0  0  0
  4 12  1  0  0  0  0
  4 20  1  0  0  0  0
  6  8  2  0  0  0  0
  7  9  1  0  0  0  0
  7 15  2  0  0  0  0
  8 12  1  0  0  0  0
  9 14  1  0  0  0  0
 10 21  2  0  0  0  0
 11  5  1  0  0  0  0
 11  8  1  0  0  0  0
 12 27  1  0  0  0  0
 13  2  2  0  0  0  0
 13 18  1  0  0  0  0
 14 23  2  0  0  0  0
 15 23  1  0  0  0  0
 16  2  1  0  0  0  0
 17 20  1  0  0  0  0
 17  3  1  0  0  0  0
 18 25  2  0  0  0  0
 19  1  1  0  0  0  0
 19 26  2  0  0  0  0
 20 22  1  0  0  0  0
 22 10  1  0  0  0  0
 22  9  1  0  0  0  0
 24 27  1  0  0  0  0
 25 26  1  0  0  0  0
 26 17  1  0  0  0  0
 27  7  1  0  0  0  0
 28 11  1  0  0  0  0
 29 30  1  0  0  0  0
 30 28  1  0  0  0  0
M  END
>  <MODEL>
9

>  <REMARK>
 VINA RESULT:      -4.2      2.592      5.648
  Name = 
  2 active torsions:
  status: ('A' for Active; 'I' for Inactive)
    1  A    between atoms: C_11  and  C_28
    2  A    between atoms: C_28  and  C_30
                            x       y       z     vdW  Elec       q    Type
                         _______ _______ _______ _____ _____    ______ ____

>  <TORSDO>
F 2

$$$$
