=
 OpenBabel11122412313D

 30 35  0  0  1  0  0  0  0  0999 V2000
  161.2420  210.9530  150.8370 C   0  0  0  0  0  0  0  0  0  0  0  0
  161.7560  212.2580  148.6880 C   0  0  0  0  0  0  0  0  0  0  0  0
  158.8240  214.1100  152.3860 C   0  0  0  0  0  2  0  0  0  0  0  0
  160.5610  210.8750  152.0770 C   0  0  0  0  0  0  0  0  0  0  0  0
  162.1950  209.8490  150.4680 C   0  0  0  0  0  2  0  0  0  0  0  0
  160.7020  207.2670  152.5820 O   0  0  0  0  0  0  0  0  0  0  0  0
  161.1020  211.1520  154.9350 C   0  0  1  0  0  3  0  0  0  0  0  0
  161.0150  208.4100  152.1530 C   0  0  0  0  0  0  0  0  0  0  0  0
  159.6210  211.4420  154.9760 C   0  0  1  0  0  3  0  0  0  0  0  0
  158.5610  213.4920  153.7720 C   0  0  1  0  0  3  0  0  0  0  0  0
  161.7040  208.5480  150.9010 N   0  0  0  0  0  0  0  0  0  0  0  0
  160.6230  209.6320  152.9410 C   0  0  1  0  0  3  0  0  0  0  0  0
  161.2700  213.2920  147.7130 C   0  0  0  0  0  2  0  0  0  0  0  0
  159.4260  212.2440  156.2530 C   0  0  0  0  0  2  0  0  0  0  0  0
  161.5660  211.2690  156.3670 C   0  0  0  0  0  2  0  0  0  0  0  0
  162.7140  211.5160  148.3490 O   0  0  0  0  0  0  0  0  0  0  0  0
  159.6210  213.0660  151.6820 C   0  0  0  0  0  0  0  0  0  0  0  0
  160.5900  214.4530  148.3840 C   0  0  0  0  0  3  0  0  0  0  0  0
  161.0750  212.0980  150.0030 C   0  0  0  0  0  0  0  0  0  0  0  0
  159.7840  211.9720  152.4820 C   0  0  0  0  0  0  0  0  0  0  0  0
  157.0670  213.3240  153.9740 C   0  0  0  0  0  1  0  0  0  0  0  0
  159.2140  212.1800  153.7690 N   0  0  0  0  0  0  0  0  0  0  0  0
  160.6530  212.1790  157.0470 N   0  0  0  0  0  2  0  0  0  0  0  0
  161.1580  208.6350  155.1840 C   0  0  0  0  0  1  0  0  0  0  0  0
  160.0880  214.3740  149.6170 C   0  0  0  0  0  3  0  0  0  0  0  0
  160.2370  213.1540  150.4340 C   0  0  0  0  0  0  0  0  0  0  0  0
  161.4280  209.8110  154.2470 C   0  0  2  0  0  3  0  0  0  0  0  0
  162.0920  207.3770  150.1290 C   0  0  0  0  0  2  0  0  0  0  0  0
  160.5320  206.4100  148.9060 C   0  0  0  0  0  1  0  0  0  0  0  0
  161.4900  207.4220  148.8710 O   0  0  0  0  0  0  0  0  0  0  0  0
  1  4  1  0  0  0  0
  2 19  1  0  0  0  0
  3 10  1  0  0  0  0
  4 20  2  0  0  0  0
  5  1  1  0  0  0  0
  5 11  1  0  0  0  0
  7  9  1  0  0  0  0
  7 15  1  1  0  0  0
  8  6  2  0  0  0  0
  8 12  1  0  0  0  0
  9 14  1  1  0  0  0
 10 21  1  6  0  0  0
 11  8  1  0  0  0  0
 12  4  1  6  0  0  0
 12 27  1  0  0  0  0
 13 18  1  0  0  0  0
 13  2  1  0  0  0  0
 14 23  1  0  0  0  0
 15 23  1  0  0  0  0
 16  2  2  0  0  0  0
 17  3  1  0  0  0  0
 17 20  1  0  0  0  0
 18 25  2  0  0  0  0
 19 26  1  0  0  0  0
 19  1  2  0  0  0  0
 20 22  1  0  0  0  0
 22 10  1  0  0  0  0
 22  9  1  0  0  0  0
 25 26  1  0  0  0  0
 26 17  2  0  0  0  0
 27  7  1  0  0  0  0
 27 24  1  1  0  0  0
 28 11  1  0  0  0  0
 30 29  1  0  0  0  0
 30 28  1  0  0  0  0
M  END
>  <MODEL>
1

>  <REMARK>
 VINA RESULT:      -6.6      0.000      0.000
  Name = 
  2 active torsions:
  status: ('A' for Active; 'I' for Inactive)
    1  A    between atoms: N_11  and  C_28
    2  A    between atoms: C_28  and  O_30
                            x       y       z     vdW  Elec       q    Type
                         _______ _______ _______ _____ _____    ______ ____

>  <TORSDO>
F 2

$$$$
=
 OpenBabel11122412313D

 30 35  0  0  1  0  0  0  0  0999 V2000
  161.0620  207.8280  151.2540 C   0  0  0  0  0  0  0  0  0  0  0  0
  161.1290  205.4200  150.3670 C   0  0  0  0  0  0  0  0  0  0  0  0
  160.7510  206.5140  155.3020 C   0  0  0  0  0  2  0  0  0  0  0  0
  161.0160  208.7140  152.3580 C   0  0  0  0  0  0  0  0  0  0  0  0
  161.0060  208.4040  149.8650 C   0  0  0  0  0  2  0  0  0  0  0  0
  162.2620  211.7260  150.7270 O   0  0  0  0  0  0  0  0  0  0  0  0
  159.1090  210.4320  153.7550 C   0  0  1  0  0  3  0  0  0  0  0  0
  161.7260  210.5940  150.8590 C   0  0  0  0  0  0  0  0  0  0  0  0
  160.0830  210.2360  154.8920 C   0  0  1  0  0  3  0  0  0  0  0  0
  160.5570  207.9010  155.9430 C   0  0  1  0  0  3  0  0  0  0  0  0
  161.7450  209.6550  149.7720 N   0  0  0  0  0  0  0  0  0  0  0  0
  161.1040  210.2160  152.1760 C   0  0  1  0  0  3  0  0  0  0  0  0
  161.5070  203.9960  150.6570 C   0  0  0  0  0  2  0  0  0  0  0  0
  159.2610  210.4980  156.1450 C   0  0  0  0  0  2  0  0  0  0  0  0
  158.0180  211.3100  154.3190 C   0  0  0  0  0  2  0  0  0  0  0  0
  160.8940  205.7480  149.1740 O   0  0  0  0  0  0  0  0  0  0  0  0
  160.9470  206.8190  153.8570 C   0  0  0  0  0  0  0  0  0  0  0  0
  161.1860  203.5830  152.0670 C   0  0  0  0  0  3  0  0  0  0  0  0
  161.0820  206.4180  151.4720 C   0  0  0  0  0  0  0  0  0  0  0  0
  160.9240  208.1680  153.6480 C   0  0  0  0  0  0  0  0  0  0  0  0
  161.6650  208.1520  156.9480 C   0  0  0  0  0  1  0  0  0  0  0  0
  160.6450  208.8750  154.8520 N   0  0  0  0  0  0  0  0  0  0  0  0
  157.9790  211.0870  155.7580 N   0  0  0  0  0  2  0  0  0  0  0  0
  160.0620  212.4640  152.5870 C   0  0  0  0  0  1  0  0  0  0  0  0
  161.0080  204.4670  153.0490 C   0  0  0  0  0  3  0  0  0  0  0  0
  161.0430  205.9200  152.7960 C   0  0  0  0  0  0  0  0  0  0  0  0
  159.7870  210.9660  152.4770 C   0  0  2  0  0  3  0  0  0  0  0  0
  162.3410  210.0060  148.4920 C   0  0  0  0  0  2  0  0  0  0  0  0
  162.5420  212.0350  147.6520 C   0  0  0  0  0  1  0  0  0  0  0  0
  161.6070  211.0300  147.8940 O   0  0  0  0  0  0  0  0  0  0  0  0
  1 19  2  0  0  0  0
  1  4  1  0  0  0  0
  2 13  1  0  0  0  0
  2 19  1  0  0  0  0
  3 10  1  0  0  0  0
  4 20  2  0  0  0  0
  5  1  1  0  0  0  0
  6  8  2  0  0  0  0
  7 15  1  1  0  0  0
  7  9  1  0  0  0  0
  9 14  1  1  0  0  0
 10 21  1  1  0  0  0
 11  5  1  0  0  0  0
 11  8  1  0  0  0  0
 12  8  1  6  0  0  0
 12  4  1  0  0  0  0
 12 27  1  0  0  0  0
 13 18  1  0  0  0  0
 15 23  1  0  0  0  0
 16  2  2  0  0  0  0
 17  3  1  0  0  0  0
 18 25  2  0  0  0  0
 19 26  1  0  0  0  0
 20 17  1  0  0  0  0
 20 22  1  0  0  0  0
 22  9  1  0  0  0  0
 22 10  1  0  0  0  0
 23 14  1  0  0  0  0
 26 25  1  0  0  0  0
 26 17  2  0  0  0  0
 27 24  1  1  0  0  0
 27  7  1  0  0  0  0
 28 11  1  0  0  0  0
 29 30  1  0  0  0  0
 30 28  1  0  0  0  0
M  END
>  <MODEL>
2

>  <REMARK>
 VINA RESULT:      -6.0      2.090      5.612
  Name = 
  2 active torsions:
  status: ('A' for Active; 'I' for Inactive)
    1  A    between atoms: N_11  and  C_28
    2  A    between atoms: C_28  and  O_30
                            x       y       z     vdW  Elec       q    Type
                         _______ _______ _______ _____ _____    ______ ____

>  <TORSDO>
F 2

$$$$
=
 OpenBabel11122412313D

 30 35  0  0  1  0  0  0  0  0999 V2000
  161.0420  207.3840  151.2900 C   0  0  0  0  0  0  0  0  0  0  0  0
  160.9190  204.8810  150.7360 C   0  0  0  0  0  0  0  0  0  0  0  0
  160.8230  206.6440  155.4870 C   0  0  0  0  0  2  0  0  0  0  0  0
  161.0990  208.4100  152.2650 C   0  0  0  0  0  0  0  0  0  0  0  0
  160.9640  207.7720  149.8390 C   0  0  0  0  0  2  0  0  0  0  0  0
  162.4630  211.0870  150.1990 O   0  0  0  0  0  0  0  0  0  0  0  0
  159.3670  210.4240  153.4800 C   0  0  1  0  0  3  0  0  0  0  0  0
  161.8620  210.0210  150.5010 C   0  0  0  0  0  0  0  0  0  0  0  0
  160.3740  210.3150  154.6000 C   0  0  1  0  0  3  0  0  0  0  0  0
  160.7440  208.1140  155.9400 C   0  0  1  0  0  3  0  0  0  0  0  0
  161.7760  208.9470  149.5520 N   0  0  0  0  0  0  0  0  0  0  0  0
  161.2740  209.8650  151.8780 C   0  0  1  0  0  3  0  0  0  0  0  0
  161.2190  203.4860  151.2030 C   0  0  0  0  0  2  0  0  0  0  0  0
  159.6250  210.7970  155.8330 C   0  0  0  0  0  2  0  0  0  0  0  0
  158.3580  211.4420  153.9560 C   0  0  0  0  0  2  0  0  0  0  0  0
  160.6550  205.0630  149.5180 O   0  0  0  0  0  0  0  0  0  0  0  0
  160.9760  206.7410  154.0080 C   0  0  0  0  0  0  0  0  0  0  0  0
  160.9330  203.2860  152.6650 C   0  0  0  0  0  3  0  0  0  0  0  0
  160.9830  206.0180  151.6960 C   0  0  0  0  0  0  0  0  0  0  0  0
  161.0280  208.0480  153.6200 C   0  0  0  0  0  0  0  0  0  0  0  0
  161.9080  208.4200  156.8640 C   0  0  0  0  0  1  0  0  0  0  0  0
  160.8470  208.9260  154.7250 N   0  0  0  0  0  0  0  0  0  0  0  0
  158.3670  211.4160  155.4130 N   0  0  0  0  0  2  0  0  0  0  0  0
  160.3950  212.2140  152.0160 C   0  0  0  0  0  1  0  0  0  0  0  0
  160.8530  204.3030  153.5250 C   0  0  0  0  0  3  0  0  0  0  0  0
  160.9690  205.7030  153.0760 C   0  0  0  0  0  0  0  0  0  0  0  0
  160.0210  210.7360  152.1190 C   0  0  2  0  0  3  0  0  0  0  0  0
  162.3370  209.0830  148.2170 C   0  0  0  0  0  2  0  0  0  0  0  0
  162.0100  207.1610  147.1860 C   0  0  0  0  0  1  0  0  0  0  0  0
  162.9840  207.9010  147.8540 O   0  0  0  0  0  0  0  0  0  0  0  0
  1 19  2  0  0  0  0
  1  4  1  0  0  0  0
  2 13  1  0  0  0  0
  2 19  1  0  0  0  0
  3 10  1  0  0  0  0
  4 20  2  0  0  0  0
  5  1  1  0  0  0  0
  6  8  2  0  0  0  0
  7 15  1  1  0  0  0
  7  9  1  0  0  0  0
  9 22  1  0  0  0  0
  9 14  1  1  0  0  0
 10 21  1  1  0  0  0
 11  5  1  0  0  0  0
 11  8  1  0  0  0  0
 12  8  1  6  0  0  0
 12 27  1  0  0  0  0
 12  4  1  0  0  0  0
 13 18  1  0  0  0  0
 15 23  1  0  0  0  0
 16  2  2  0  0  0  0
 17  3  1  0  0  0  0
 18 25  2  0  0  0  0
 19 26  1  0  0  0  0
 20 17  1  0  0  0  0
 20 22  1  0  0  0  0
 22 10  1  0  0  0  0
 23 14  1  0  0  0  0
 26 25  1  0  0  0  0
 26 17  2  0  0  0  0
 27 24  1  1  0  0  0
 27  7  1  0  0  0  0
 28 11  1  0  0  0  0
 29 30  1  0  0  0  0
 30 28  1  0  0  0  0
M  END
>  <MODEL>
3

>  <REMARK>
 VINA RESULT:      -6.0      2.248      5.661
  Name = 
  2 active torsions:
  status: ('A' for Active; 'I' for Inactive)
    1  A    between atoms: N_11  and  C_28
    2  A    between atoms: C_28  and  O_30
                            x       y       z     vdW  Elec       q    Type
                         _______ _______ _______ _____ _____    ______ ____

>  <TORSDO>
F 2

$$$$
=
 OpenBabel11122412313D

 30 35  0  0  1  0  0  0  0  0999 V2000
  161.4760  208.4830  152.3750 C   0  0  0  0  0  0  0  0  0  0  0  0
  162.3920  208.4590  149.9780 C   0  0  0  0  0  0  0  0  0  0  0  0
  160.1240  212.5140  152.0050 C   0  0  0  0  0  2  0  0  0  0  0  0
  160.7890  209.1710  153.4060 C   0  0  0  0  0  0  0  0  0  0  0  0
  162.0490  207.1240  152.6740 C   0  0  0  0  0  2  0  0  0  0  0  0
  159.8090  206.3140  155.4470 O   0  0  0  0  0  0  0  0  0  0  0  0
  161.3540  210.5800  155.9020 C   0  0  1  0  0  3  0  0  0  0  0  0
  160.4630  207.0000  154.6160 C   0  0  0  0  0  0  0  0  0  0  0  0
  160.0320  211.2390  155.5870 C   0  0  1  0  0  3  0  0  0  0  0  0
  159.6670  212.7010  153.4640 C   0  0  1  0  0  3  0  0  0  0  0  0
  161.1770  206.3540  153.5500 N   0  0  0  0  0  0  0  0  0  0  0  0
  160.4550  208.5010  154.7230 C   0  0  1  0  0  3  0  0  0  0  0  0
  162.2590  209.0130  148.5880 C   0  0  0  0  0  2  0  0  0  0  0  0
  160.0770  212.5590  156.3410 C   0  0  0  0  0  2  0  0  0  0  0  0
  161.8130  211.2160  157.1920 C   0  0  0  0  0  2  0  0  0  0  0  0
  163.0810  207.4190  150.1460 O   0  0  0  0  0  0  0  0  0  0  0  0
  160.5720  211.0940  151.9570 C   0  0  0  0  0  0  0  0  0  0  0  0
  161.9600  210.4870  148.5750 C   0  0  0  0  0  3  0  0  0  0  0  0
  161.6790  209.1120  151.1110 C   0  0  0  0  0  0  0  0  0  0  0  0
  160.3810  210.4930  153.1680 C   0  0  0  0  0  0  0  0  0  0  0  0
  158.1910  213.0510  153.4900 C   0  0  0  0  0  1  0  0  0  0  0  0
  159.8860  211.4150  154.1330 N   0  0  0  0  0  0  0  0  0  0  0  0
  161.2150  212.5430  157.2600 N   0  0  0  0  0  2  0  0  0  0  0  0
  160.6300  208.5500  157.2280 C   0  0  0  0  0  1  0  0  0  0  0  0
  161.4430  211.1230  149.6260 C   0  0  0  0  0  3  0  0  0  0  0  0
  161.2000  210.4280  150.9050 C   0  0  0  0  0  0  0  0  0  0  0  0
  161.2600  209.0400  155.9260 C   0  0  2  0  0  3  0  0  0  0  0  0
  161.1960  204.9040  153.4340 C   0  0  0  0  0  2  0  0  0  0  0  0
  161.3680  203.4660  151.7710 C   0  0  0  0  0  1  0  0  0  0  0  0
  160.5850  204.5180  152.2410 O   0  0  0  0  0  0  0  0  0  0  0  0
  1  5  1  0  0  0  0
  1  4  1  0  0  0  0
  2 16  2  0  0  0  0
  2 19  1  0  0  0  0
  3 10  1  0  0  0  0
  5 11  1  0  0  0  0
  7 27  1  0  0  0  0
  7 15  1  1  0  0  0
  8 12  1  0  0  0  0
  8  6  2  0  0  0  0
  9  7  1  0  0  0  0
  9 14  1  1  0  0  0
 10 21  1  6  0  0  0
 10 22  1  0  0  0  0
 11  8  1  0  0  0  0
 12  4  1  6  0  0  0
 12 27  1  0  0  0  0
 13  2  1  0  0  0  0
 14 23  1  0  0  0  0
 15 23  1  0  0  0  0
 17  3  1  0  0  0  0
 17 20  1  0  0  0  0
 18 13  1  0  0  0  0
 18 25  2  0  0  0  0
 19  1  2  0  0  0  0
 20  4  2  0  0  0  0
 20 22  1  0  0  0  0
 22  9  1  0  0  0  0
 25 26  1  0  0  0  0
 26 19  1  0  0  0  0
 26 17  2  0  0  0  0
 27 24  1  1  0  0  0
 28 11  1  0  0  0  0
 29 30  1  0  0  0  0
 30 28  1  0  0  0  0
M  END
>  <MODEL>
4

>  <REMARK>
 VINA RESULT:      -5.3      1.888      2.892
  Name = 
  2 active torsions:
  status: ('A' for Active; 'I' for Inactive)
    1  A    between atoms: N_11  and  C_28
    2  A    between atoms: C_28  and  O_30
                            x       y       z     vdW  Elec       q    Type
                         _______ _______ _______ _____ _____    ______ ____

>  <TORSDO>
F 2

$$$$
=
 OpenBabel11122412313D

 30 35  0  0  1  0  0  0  0  0999 V2000
  159.3590  212.7330  153.1750 C   0  0  0  0  0  0  0  0  0  0  0  0
  159.7350  212.3640  155.6870 C   0  0  0  0  0  0  0  0  0  0  0  0
  162.3340  209.8570  152.1290 C   0  0  0  0  0  2  0  0  0  0  0  0
  159.6680  212.3840  151.8370 C   0  0  0  0  0  0  0  0  0  0  0  0
  158.4110  213.8750  153.4220 C   0  0  0  0  0  2  0  0  0  0  0  0
  156.6940  213.7110  150.1990 O   0  0  0  0  0  0  0  0  0  0  0  0
  161.1990  213.4050  149.5680 C   0  0  1  0  0  3  0  0  0  0  0  0
  157.5950  213.5660  151.0680 C   0  0  0  0  0  0  0  0  0  0  0  0
  161.1840  211.9490  149.1690 C   0  0  1  0  0  3  0  0  0  0  0  0
  162.3040  210.0900  150.6080 C   0  0  1  0  0  3  0  0  0  0  0  0
  157.3360  213.9020  152.4400 N   0  0  0  0  0  0  0  0  0  0  0  0
  158.9300  212.9990  150.6660 C   0  0  1  0  0  3  0  0  0  0  0  0
  160.1580  211.3950  156.7540 C   0  0  0  0  0  2  0  0  0  0  0  0
  162.3860  211.7950  148.2500 C   0  0  0  0  0  2  0  0  0  0  0  0
  161.9850  214.1020  148.4830 C   0  0  0  0  0  2  0  0  0  0  0  0
  159.1220  213.4080  156.0330 O   0  0  0  0  0  0  0  0  0  0  0  0
  161.2710  210.7650  152.6440 C   0  0  0  0  0  0  0  0  0  0  0  0
  161.3350  210.5540  156.3440 C   0  0  0  0  0  3  0  0  0  0  0  0
  160.0020  212.0560  154.2550 C   0  0  0  0  0  0  0  0  0  0  0  0
  160.6590  211.4160  151.6120 C   0  0  0  0  0  0  0  0  0  0  0  0
  161.9460  208.7950  149.9050 C   0  0  0  0  0  1  0  0  0  0  0  0
  161.2630  211.0930  150.3640 N   0  0  0  0  0  0  0  0  0  0  0  0
  162.8960  213.1220  147.9070 N   0  0  0  0  0  2  0  0  0  0  0  0
  159.0730  214.2690  148.5030 C   0  0  0  0  0  1  0  0  0  0  0  0
  161.6740  210.3700  155.0680 C   0  0  0  0  0  3  0  0  0  0  0  0
  160.9550  211.0480  153.9730 C   0  0  0  0  0  0  0  0  0  0  0  0
  159.7850  213.9680  149.8200 C   0  0  2  0  0  3  0  0  0  0  0  0
  156.0520  214.4530  152.8450 C   0  0  0  0  0  2  0  0  0  0  0  0
  154.8790  214.4100  154.7110 C   0  0  0  0  0  1  0  0  0  0  0  0
  155.4230  213.5810  153.7330 O   0  0  0  0  0  0  0  0  0  0  0  0
  1  5  1  0  0  0  0
  1 19  1  0  0  0  0
  2 16  2  0  0  0  0
  2 13  1  0  0  0  0
  3 17  1  0  0  0  0
  4  1  2  0  0  0  0
  6  8  2  0  0  0  0
  7 15  1  6  0  0  0
  7 27  1  0  0  0  0
  8 11  1  0  0  0  0
  9 14  1  6  0  0  0
  9  7  1  0  0  0  0
  9 22  1  0  0  0  0
 10 21  1  6  0  0  0
 10  3  1  0  0  0  0
 11 28  1  0  0  0  0
 11  5  1  0  0  0  0
 12  8  1  1  0  0  0
 12  4  1  0  0  0  0
 17 26  1  0  0  0  0
 18 13  1  0  0  0  0
 19  2  1  0  0  0  0
 20  4  1  0  0  0  0
 20 17  2  0  0  0  0
 22 10  1  0  0  0  0
 22 20  1  0  0  0  0
 23 14  1  0  0  0  0
 23 15  1  0  0  0  0
 25 18  2  0  0  0  0
 26 19  2  0  0  0  0
 26 25  1  0  0  0  0
 27 24  1  6  0  0  0
 27 12  1  0  0  0  0
 28 30  1  0  0  0  0
 30 29  1  0  0  0  0
M  END
>  <MODEL>
5

>  <REMARK>
 VINA RESULT:      -4.9      2.879      7.086
  Name = 
  2 active torsions:
  status: ('A' for Active; 'I' for Inactive)
    1  A    between atoms: N_11  and  C_28
    2  A    between atoms: C_28  and  O_30
                            x       y       z     vdW  Elec       q    Type
                         _______ _______ _______ _____ _____    ______ ____

>  <TORSDO>
F 2

$$$$
=
 OpenBabel11122412313D

 30 35  0  0  1  0  0  0  0  0999 V2000
  160.5820  209.2640  153.4960 C   0  0  0  0  0  0  0  0  0  0  0  0
  160.8220  207.0460  154.7640 C   0  0  0  0  0  0  0  0  0  0  0  0
  159.7040  211.4160  157.0760 C   0  0  0  0  0  2  0  0  0  0  0  0
  160.3570  210.6630  153.5290 C   0  0  0  0  0  0  0  0  0  0  0  0
  160.7200  208.5870  152.1600 C   0  0  0  0  0  2  0  0  0  0  0  0
  161.7740  211.5440  150.2870 O   0  0  0  0  0  0  0  0  0  0  0  0
  158.2350  212.5900  152.9650 C   0  0  1  0  0  3  0  0  0  0  0  0
  161.2450  210.8420  151.1910 C   0  0  0  0  0  0  0  0  0  0  0  0
  159.0340  213.4380  153.9250 C   0  0  1  0  0  3  0  0  0  0  0  0
  159.3930  212.7730  156.4170 C   0  0  1  0  0  3  0  0  0  0  0  0
  161.4410  209.4200  151.2080 N   0  0  0  0  0  0  0  0  0  0  0  0
  160.4430  211.5100  152.2750 C   0  0  1  0  0  3  0  0  0  0  0  0
  161.1810  206.3870  156.0650 C   0  0  0  0  0  2  0  0  0  0  0  0
  158.0330  214.4480  154.4640 C   0  0  0  0  0  2  0  0  0  0  0  0
  157.0560  213.4480  152.5700 C   0  0  0  0  0  2  0  0  0  0  0  0
  160.7600  206.3330  153.7280 O   0  0  0  0  0  0  0  0  0  0  0  0
  160.1050  210.5530  155.9300 C   0  0  0  0  0  0  0  0  0  0  0  0
  160.6630  207.1390  157.2610 C   0  0  0  0  0  3  0  0  0  0  0  0
  160.5960  208.5170  154.7120 C   0  0  0  0  0  0  0  0  0  0  0  0
  160.0870  211.2670  154.7670 C   0  0  0  0  0  0  0  0  0  0  0  0
  160.3360  213.8280  156.9620 C   0  0  0  0  0  1  0  0  0  0  0  0
  159.6210  212.5950  154.9800 N   0  0  0  0  0  0  0  0  0  0  0  0
  156.8110  214.3800  153.6630 N   0  0  0  0  0  2  0  0  0  0  0  0
  159.3110  213.1470  150.7440 C   0  0  0  0  0  1  0  0  0  0  0  0
  160.3270  208.4280  157.2060 C   0  0  0  0  0  3  0  0  0  0  0  0
  160.3710  209.1840  155.9400 C   0  0  0  0  0  0  0  0  0  0  0  0
  159.0830  212.0590  151.7910 C   0  0  2  0  0  3  0  0  0  0  0  0
  162.2120  208.7590  150.1660 C   0  0  0  0  0  2  0  0  0  0  0  0
  161.4720  206.9340  149.1720 C   0  0  0  0  0  1  0  0  0  0  0  0
  162.1260  207.3750  150.3210 O   0  0  0  0  0  0  0  0  0  0  0  0
  1  4  2  0  0  0  0
  1 19  1  0  0  0  0
  2 13  1  0  0  0  0
  4 20  1  0  0  0  0
  5  1  1  0  0  0  0
  6  8  2  0  0  0  0
  7 15  1  6  0  0  0
  7  9  1  0  0  0  0
  8 11  1  0  0  0  0
  9 14  1  1  0  0  0
  9 22  1  0  0  0  0
 10 21  1  1  0  0  0
 10  3  1  0  0  0  0
 11  5  1  0  0  0  0
 12  8  1  6  0  0  0
 12  4  1  0  0  0  0
 13 18  1  0  0  0  0
 15 23  1  0  0  0  0
 16  2  2  0  0  0  0
 17 26  1  0  0  0  0
 17  3  1  0  0  0  0
 19  2  1  0  0  0  0
 19 26  2  0  0  0  0
 20 22  1  0  0  0  0
 20 17  2  0  0  0  0
 22 10  1  0  0  0  0
 23 14  1  0  0  0  0
 25 18  2  0  0  0  0
 26 25  1  0  0  0  0
 27 24  1  6  0  0  0
 27 12  1  0  0  0  0
 27  7  1  0  0  0  0
 28 30  1  0  0  0  0
 28 11  1  0  0  0  0
 29 30  1  0  0  0  0
M  END
>  <MODEL>
6

>  <REMARK>
 VINA RESULT:      -4.8      1.571      5.356
  Name = 
  2 active torsions:
  status: ('A' for Active; 'I' for Inactive)
    1  A    between atoms: N_11  and  C_28
    2  A    between atoms: C_28  and  O_30
                            x       y       z     vdW  Elec       q    Type
                         _______ _______ _______ _____ _____    ______ ____

>  <TORSDO>
F 2

$$$$
=
 OpenBabel11122412313D

 30 35  0  0  1  0  0  0  0  0999 V2000
  160.8210  210.1510  151.5610 C   0  0  0  0  0  0  0  0  0  0  0  0
  161.6620  207.7630  151.1410 C   0  0  0  0  0  0  0  0  0  0  0  0
  160.1200  209.3640  155.6960 C   0  0  0  0  0  2  0  0  0  0  0  0
  160.3480  211.1290  152.4700 C   0  0  0  0  0  0  0  0  0  0  0  0
  160.8750  210.4940  150.0970 C   0  0  0  0  0  2  0  0  0  0  0  0
  161.0600  214.1210  150.5120 O   0  0  0  0  0  0  0  0  0  0  0  0
  157.8430  212.4120  153.2540 C   0  0  1  0  0  3  0  0  0  0  0  0
  160.8160  212.9110  150.7700 C   0  0  0  0  0  0  0  0  0  0  0  0
  158.6090  212.6550  154.5330 C   0  0  1  0  0  3  0  0  0  0  0  0
  159.4640  210.7130  156.0430 C   0  0  1  0  0  3  0  0  0  0  0  0
  161.2740  211.8780  149.8840 N   0  0  0  0  0  0  0  0  0  0  0  0
  160.0810  212.5550  152.0340 C   0  0  1  0  0  3  0  0  0  0  0  0
  162.3330  206.5560  151.7330 C   0  0  0  0  0  2  0  0  0  0  0  0
  157.5320  212.8430  155.5910 C   0  0  0  0  0  2  0  0  0  0  0  0
  156.4790  213.0150  153.4920 C   0  0  0  0  0  2  0  0  0  0  0  0
  161.5750  207.8460  149.8880 O   0  0  0  0  0  0  0  0  0  0  0  0
  160.4930  209.5140  154.2620 C   0  0  0  0  0  0  0  0  0  0  0  0
  161.8750  206.2640  153.1350 C   0  0  0  0  0  3  0  0  0  0  0  0
  161.1610  208.8470  152.0300 C   0  0  0  0  0  0  0  0  0  0  0  0
  160.1640  210.7590  153.8120 C   0  0  0  0  0  0  0  0  0  0  0  0
  160.2670  211.4010  157.1310 C   0  0  0  0  0  1  0  0  0  0  0  0
  159.4980  211.5160  154.8170 N   0  0  0  0  0  0  0  0  0  0  0  0
  156.2360  212.9880  154.9290 N   0  0  0  0  0  2  0  0  0  0  0  0
  158.4420  214.4530  151.8830 C   0  0  0  0  0  1  0  0  0  0  0  0
  161.3000  207.1870  153.9080 C   0  0  0  0  0  3  0  0  0  0  0  0
  161.0080  208.5420  153.4040 C   0  0  0  0  0  0  0  0  0  0  0  0
  158.5840  212.9370  152.0080 C   0  0  2  0  0  3  0  0  0  0  0  0
  161.9850  212.2050  148.6570 C   0  0  0  0  0  2  0  0  0  0  0  0
  160.8320  213.0410  146.9730 C   0  0  0  0  0  1  0  0  0  0  0  0
  161.2170  211.8340  147.5530 O   0  0  0  0  0  0  0  0  0  0  0  0
  1 19  2  0  0  0  0
  1  4  1  0  0  0  0
  2 13  1  0  0  0  0
  2 19  1  0  0  0  0
  3 10  1  0  0  0  0
  4 20  2  0  0  0  0
  5  1  1  0  0  0  0
  6  8  2  0  0  0  0
  7 15  1  1  0  0  0
  7  9  1  0  0  0  0
  9 22  1  0  0  0  0
  9 14  1  1  0  0  0
 10 21  1  1  0  0  0
 11  5  1  0  0  0  0
 11  8  1  0  0  0  0
 12  8  1  6  0  0  0
 12  4  1  0  0  0  0
 13 18  1  0  0  0  0
 15 23  1  0  0  0  0
 16  2  2  0  0  0  0
 17  3  1  0  0  0  0
 18 25  2  0  0  0  0
 19 26  1  0  0  0  0
 20 17  1  0  0  0  0
 20 22  1  0  0  0  0
 22 10  1  0  0  0  0
 23 14  1  0  0  0  0
 26 25  1  0  0  0  0
 26 17  2  0  0  0  0
 27 24  1  1  0  0  0
 27 12  1  0  0  0  0
 27  7  1  0  0  0  0
 28 11  1  0  0  0  0
 29 30  1  0  0  0  0
 30 28  1  0  0  0  0
M  END
>  <MODEL>
7

>  <REMARK>
 VINA RESULT:      -4.4      1.645      5.050
  Name = 
  2 active torsions:
  status: ('A' for Active; 'I' for Inactive)
    1  A    between atoms: N_11  and  C_28
    2  A    between atoms: C_28  and  O_30
                            x       y       z     vdW  Elec       q    Type
                         _______ _______ _______ _____ _____    ______ ____

>  <TORSDO>
F 2

$$$$
=
 OpenBabel11122412313D

 30 35  0  0  1  0  0  0  0  0999 V2000
  160.0780  209.9640  153.2350 C   0  0  0  0  0  0  0  0  0  0  0  0
  158.7130  211.9640  154.0840 C   0  0  0  0  0  0  0  0  0  0  0  0
  161.2180  212.0280  149.6780 C   0  0  0  0  0  2  0  0  0  0  0  0
  160.9330  209.4070  152.2520 C   0  0  0  0  0  0  0  0  0  0  0  0
  159.6120  209.0870  154.3660 C   0  0  0  0  0  2  0  0  0  0  0  0
  162.3710  206.6930  154.2170 O   0  0  0  0  0  0  0  0  0  0  0  0
  160.8270  207.5370  150.0110 C   0  0  1  0  0  3  0  0  0  0  0  0
  161.5490  207.5750  153.8500 C   0  0  0  0  0  0  0  0  0  0  0  0
  162.0420  208.3170  149.5710 C   0  0  1  0  0  3  0  0  0  0  0  0
  161.9450  210.8540  148.9960 C   0  0  1  0  0  3  0  0  0  0  0  0
  160.6600  208.1750  154.8040 N   0  0  0  0  0  0  0  0  0  0  0  0
  161.5350  208.0260  152.4140 C   0  0  1  0  0  3  0  0  0  0  0  0
  158.5560  213.4580  154.0780 C   0  0  0  0  0  2  0  0  0  0  0  0
  162.1080  208.1010  148.0670 C   0  0  0  0  0  2  0  0  0  0  0  0
  160.6100  206.5040  148.9300 C   0  0  0  0  0  2  0  0  0  0  0  0
  158.1000  211.3000  154.9610 O   0  0  0  0  0  0  0  0  0  0  0  0
  160.8100  211.4690  150.9970 C   0  0  0  0  0  0  0  0  0  0  0  0
  158.8060  214.0640  152.7250 C   0  0  0  0  0  3  0  0  0  0  0  0
  159.6150  211.3060  153.0990 C   0  0  0  0  0  0  0  0  0  0  0  0
  161.2490  210.1830  151.1260 C   0  0  0  0  0  0  0  0  0  0  0  0
  163.3870  211.2410  148.7280 C   0  0  0  0  0  1  0  0  0  0  0  0
  161.8970  209.7350  149.9410 N   0  0  0  0  0  0  0  0  0  0  0  0
  161.1720  207.0400  147.6970 N   0  0  0  0  0  2  0  0  0  0  0  0
  161.8510  205.7270  151.4520 C   0  0  0  0  0  1  0  0  0  0  0  0
  159.5000  213.4370  151.7760 C   0  0  0  0  0  3  0  0  0  0  0  0
  160.0070  212.0650  151.9700 C   0  0  0  0  0  0  0  0  0  0  0  0
  160.9660  206.9710  151.4390 C   0  0  2  0  0  3  0  0  0  0  0  0
  160.6590  207.7490  156.1960 C   0  0  0  0  0  2  0  0  0  0  0  0
  162.1460  209.0710  157.1460 C   0  0  0  0  0  1  0  0  0  0  0  0
  160.7730  208.8610  157.0300 O   0  0  0  0  0  0  0  0  0  0  0  0
  1  5  1  0  0  0  0
  2 16  2  0  0  0  0
  3 17  1  0  0  0  0
  4  1  2  0  0  0  0
  5 11  1  0  0  0  0
  7 15  1  6  0  0  0
  7 27  1  0  0  0  0
  8  6  2  0  0  0  0
  8 11  1  0  0  0  0
  9 14  1  6  0  0  0
  9 22  1  0  0  0  0
  9  7  1  0  0  0  0
 10 21  1  1  0  0  0
 10  3  1  0  0  0  0
 10 22  1  0  0  0  0
 11 28  1  0  0  0  0
 12  4  1  1  0  0  0
 12  8  1  0  0  0  0
 13  2  1  0  0  0  0
 17 20  2  0  0  0  0
 17 26  1  0  0  0  0
 18 13  1  0  0  0  0
 19  1  1  0  0  0  0
 19  2  1  0  0  0  0
 20  4  1  0  0  0  0
 22 20  1  0  0  0  0
 23 14  1  0  0  0  0
 23 15  1  0  0  0  0
 25 26  1  0  0  0  0
 25 18  2  0  0  0  0
 26 19  2  0  0  0  0
 27 24  1  6  0  0  0
 27 12  1  0  0  0  0
 28 30  1  0  0  0  0
 30 29  1  0  0  0  0
M  END
>  <MODEL>
8

>  <REMARK>
 VINA RESULT:      -4.2      2.524      5.829
  Name = 
  2 active torsions:
  status: ('A' for Active; 'I' for Inactive)
    1  A    between atoms: N_11  and  C_28
    2  A    between atoms: C_28  and  O_30
                            x       y       z     vdW  Elec       q    Type
                         _______ _______ _______ _____ _____    ______ ____

>  <TORSDO>
F 2

$$$$
