=
 OpenBabel11122413153D

 31 35  0  0  1  0  0  0  0  0999 V2000
  161.1240  204.6120  144.8040 C   0  0  0  0  0  0  0  0  0  0  0  0
  160.3420  205.1020  148.4970 C   0  0  2  0  0  3  0  0  0  0  0  0
  160.7410  203.8060  149.1900 C   0  0  0  0  0  0  0  0  0  0  0  0
  161.2650  201.4310  149.1180 C   0  0  0  0  0  0  0  0  0  0  0  0
  160.9860  205.2550  147.1410 C   0  0  0  0  0  0  0  0  0  0  0  0
  162.2280  205.4520  144.6350 C   0  0  0  0  0  3  0  0  0  0  0  0
  160.9250  202.6180  148.4650 C   0  0  0  0  0  3  0  0  0  0  0  0
  162.1160  206.5640  149.3920 N   0  0  0  0  0  0  0  0  0  0  0  0
  160.6570  203.8890  143.7590 F   0  0  0  0  0  0  0  0  0  0  0  0
  160.6350  204.9220  151.3530 O   0  0  0  0  0  0  0  0  0  0  0  0
  161.5080  199.9660  148.1940 Cl  0  0  0  0  0  0  0  0  0  0  0  0
  162.5380  207.0250  148.0660 C   0  0  0  0  0  2  0  0  0  0  0  0
  160.6580  206.3360  149.3710 C   0  0  2  0  0  3  0  0  0  0  0  0
  160.5040  204.5160  146.0520 C   0  0  0  0  0  3  0  0  0  0  0  0
  161.4130  201.4140  150.5060 C   0  0  0  0  0  3  0  0  0  0  0  0
  162.0980  206.1020  146.9670 C   0  0  0  0  0  0  0  0  0  0  0  0
  162.7060  206.2040  145.7120 C   0  0  0  0  0  3  0  0  0  0  0  0
  160.0810  206.1010  150.7750 C   0  0  0  0  0  2  0  0  0  0  0  0
  160.8550  203.7700  150.5960 C   0  0  0  0  0  0  0  0  0  0  0  0
  161.2060  202.5820  151.2440 C   0  0  0  0  0  3  0  0  0  0  0  0
  162.4330  207.6580  150.3040 C   0  0  0  0  0  2  0  0  0  0  0  0
  163.2370  206.0480  151.8510 O   0  0  0  0  0  0  0  0  0  0  0  0
  162.5970  207.1210  151.6890 C   0  0  0  0  0  0  0  0  0  0  0  0
  160.5440  208.9090  155.0320 C   0  0  1  0  0  3  0  0  0  0  0  0
  161.6830  206.9540  154.0060 C   0  0  0  0  0  2  0  0  0  0  0  0
  162.3300  209.9560  152.0800 O   0  0  0  0  0  0  0  0  0  0  0  0
  159.3330  209.3620  155.8200 C   0  0  0  0  0  1  0  0  0  0  0  0
  160.4130  207.4280  154.7050 C   0  0  0  0  0  2  0  0  0  0  0  0
  161.7040  209.1730  152.8420 C   0  0  0  0  0  0  0  0  0  0  0  0
  161.9550  207.7530  152.8100 N   0  0  0  0  0  0  0  0  0  0  0  0
  160.6520  209.7280  153.7520 C   0  0  0  0  0  2  0  0  0  0  0  0
  1 14  1  0  0  0  0
  2  5  1  6  0  0  0
  2  3  1  0  0  0  0
  2 13  1  0  0  0  0
  3 19  1  0  0  0  0
  4 15  2  0  0  0  0
  6  1  2  0  0  0  0
  6 17  1  0  0  0  0
  7  4  1  0  0  0  0
  7  3  2  0  0  0  0
  8 21  1  0  0  0  0
  9  1  1  0  0  0  0
 11  4  1  0  0  0  0
 12  8  1  0  0  0  0
 13  8  1  0  0  0  0
 13 18  1  1  0  0  0
 14  5  2  0  0  0  0
 15 20  1  0  0  0  0
 16  5  1  0  0  0  0
 16 12  1  0  0  0  0
 17 16  2  0  0  0  0
 18 10  1  0  0  0  0
 19 20  2  0  0  0  0
 19 10  1  0  0  0  0
 21 23  1  0  0  0  0
 23 22  2  0  0  0  0
 23 30  1  0  0  0  0
 24 27  1  6  0  0  0
 25 28  1  0  0  0  0
 26 29  2  0  0  0  0
 28 24  1  0  0  0  0
 29 31  1  0  0  0  0
 30 29  1  0  0  0  0
 30 25  1  0  0  0  0
 31 24  1  0  0  0  0
M  END
>  <MODEL>
1

>  <REMARK>
 VINA RESULT:      -6.7      0.000      0.000
  Name = 
  2 active torsions:
  status: ('A' for Active; 'I' for Inactive)
    1  A    between atoms: C_5  and  C_16
    2  A    between atoms: N_10  and  C_16
                            x       y       z     vdW  Elec       q    Type
                         _______ _______ _______ _____ _____    ______ ____

>  <TORSDO>
F 2

$$$$
=
 OpenBabel11122413153D

 31 35  0  0  1  0  0  0  0  0999 V2000
  161.2250  205.3290  145.3810 C   0  0  0  0  0  0  0  0  0  0  0  0
  160.3890  204.7850  149.0550 C   0  0  2  0  0  3  0  0  0  0  0  0
  160.7720  203.3440  149.3680 C   0  0  0  0  0  0  0  0  0  0  0  0
  161.2860  201.0780  148.6480 C   0  0  0  0  0  0  0  0  0  0  0  0
  161.0540  205.3010  147.8020 C   0  0  0  0  0  0  0  0  0  0  0  0
  162.3350  206.1740  145.4660 C   0  0  0  0  0  3  0  0  0  0  0  0
  160.9610  202.4020  148.3450 C   0  0  0  0  0  3  0  0  0  0  0  0
  162.1550  205.9270  150.3420 N   0  0  0  0  0  0  0  0  0  0  0  0
  160.7710  204.9270  144.1700 F   0  0  0  0  0  0  0  0  0  0  0  0
  160.6380  203.8200  151.7530 O   0  0  0  0  0  0  0  0  0  0  0  0
  161.5370  199.9230  147.3580 Cl  0  0  0  0  0  0  0  0  0  0  0  0
  162.6000  206.7330  149.2010 C   0  0  0  0  0  2  0  0  0  0  0  0
  160.6970  205.7260  150.2400 C   0  0  2  0  0  3  0  0  0  0  0  0
  160.5850  204.8970  146.5450 C   0  0  0  0  0  3  0  0  0  0  0  0
  161.4120  200.6770  149.9790 C   0  0  0  0  0  3  0  0  0  0  0  0
  162.1730  206.1540  147.8840 C   0  0  0  0  0  0  0  0  0  0  0  0
  162.8000  206.5940  146.7140 C   0  0  0  0  0  3  0  0  0  0  0  0
  160.0980  205.1170  151.5160 C   0  0  0  0  0  2  0  0  0  0  0  0
  160.8640  202.9200  150.7100 C   0  0  0  0  0  0  0  0  0  0  0  0
  161.2000  201.5960  151.0080 C   0  0  0  0  0  3  0  0  0  0  0  0
  162.4640  206.7240  151.5260 C   0  0  0  0  0  2  0  0  0  0  0  0
  161.2770  208.4640  150.4330 O   0  0  0  0  0  0  0  0  0  0  0  0
  161.6150  207.9540  151.5340 C   0  0  0  0  0  0  0  0  0  0  0  0
  160.7120  210.0160  155.2120 C   0  0  1  0  0  3  0  0  0  0  0  0
  160.9260  210.0310  152.7360 C   0  0  0  0  0  2  0  0  0  0  0  0
  160.9290  206.6300  153.9910 O   0  0  0  0  0  0  0  0  0  0  0  0
  161.0420  210.7640  156.4860 C   0  0  0  0  0  1  0  0  0  0  0  0
  161.3510  210.7260  154.0250 C   0  0  0  0  0  2  0  0  0  0  0  0
  161.1150  207.8750  154.0000 C   0  0  0  0  0  0  0  0  0  0  0  0
  161.2690  208.6080  152.7680 N   0  0  0  0  0  0  0  0  0  0  0  0
  161.2270  208.5850  155.3140 C   0  0  0  0  0  2  0  0  0  0  0  0
  1  6  2  0  0  0  0
  1 14  1  0  0  0  0
  2  5  1  6  0  0  0
  2  3  1  0  0  0  0
  2 13  1  0  0  0  0
  3 19  1  0  0  0  0
  4 15  2  0  0  0  0
  5 16  1  0  0  0  0
  6 17  1  0  0  0  0
  7  4  1  0  0  0  0
  7  3  2  0  0  0  0
  8 21  1  0  0  0  0
  9  1  1  0  0  0  0
 11  4  1  0  0  0  0
 12  8  1  0  0  0  0
 13  8  1  0  0  0  0
 13 18  1  1  0  0  0
 14  5  2  0  0  0  0
 15 20  1  0  0  0  0
 16 12  1  0  0  0  0
 17 16  2  0  0  0  0
 18 10  1  0  0  0  0
 19 20  2  0  0  0  0
 19 10  1  0  0  0  0
 21 23  1  0  0  0  0
 22 23  2  0  0  0  0
 23 30  1  0  0  0  0
 24 31  1  0  0  0  0
 24 27  1  1  0  0  0
 25 30  1  0  0  0  0
 25 28  1  0  0  0  0
 26 29  2  0  0  0  0
 28 24  1  0  0  0  0
 29 31  1  0  0  0  0
 30 29  1  0  0  0  0
M  END
>  <MODEL>
2

>  <REMARK>
 VINA RESULT:      -6.6      1.204      1.693
  Name = 
  2 active torsions:
  status: ('A' for Active; 'I' for Inactive)
    1  A    between atoms: C_5  and  C_16
    2  A    between atoms: N_10  and  C_16
                            x       y       z     vdW  Elec       q    Type
                         _______ _______ _______ _____ _____    ______ ____

>  <TORSDO>
F 2

$$$$
=
 OpenBabel11122413153D

 31 35  0  0  1  0  0  0  0  0999 V2000
  161.0990  213.1830  147.9500 C   0  0  0  0  0  0  0  0  0  0  0  0
  161.8080  211.3370  151.2030 C   0  0  2  0  0  3  0  0  0  0  0  0
  160.5200  211.4000  152.0150 C   0  0  0  0  0  0  0  0  0  0  0  0
  158.3520  212.3970  152.4870 C   0  0  0  0  0  0  0  0  0  0  0  0
  161.5810  211.6110  149.7370 C   0  0  0  0  0  0  0  0  0  0  0  0
  161.0630  212.1310  147.0300 C   0  0  0  0  0  3  0  0  0  0  0  0
  159.5160  212.3340  151.7180 C   0  0  0  0  0  3  0  0  0  0  0  0
  161.7850  208.9330  150.6530 N   0  0  0  0  0  0  0  0  0  0  0  0
  160.8790  214.4530  147.5350 F   0  0  0  0  0  0  0  0  0  0  0  0
  161.3570  209.6500  153.4880 O   0  0  0  0  0  0  0  0  0  0  0  0
  157.1040  213.5560  152.0880 Cl  0  0  0  0  0  0  0  0  0  0  0  0
  161.9350  209.1630  149.2130 C   0  0  0  0  0  2  0  0  0  0  0  0
  162.5270  209.9810  151.3790 C   0  0  2  0  0  3  0  0  0  0  0  0
  161.3600  212.9240  149.2980 C   0  0  0  0  0  3  0  0  0  0  0  0
  158.1850  211.5360  153.5720 C   0  0  0  0  0  3  0  0  0  0  0  0
  161.5450  210.5540  148.8070 C   0  0  0  0  0  0  0  0  0  0  0  0
  161.2970  210.8210  147.4570 C   0  0  0  0  0  3  0  0  0  0  0  0
  162.6460  209.6830  152.8810 C   0  0  0  0  0  2  0  0  0  0  0  0
  160.3590  210.5600  153.1360 C   0  0  0  0  0  0  0  0  0  0  0  0
  159.1880  210.6190  153.8970 C   0  0  0  0  0  3  0  0  0  0  0  0
  162.3930  207.6300  150.9060 C   0  0  0  0  0  2  0  0  0  0  0  0
  160.8160  206.9630  152.5490 O   0  0  0  0  0  0  0  0  0  0  0  0
  161.3600  206.6940  151.4450 C   0  0  0  0  0  0  0  0  0  0  0  0
  160.5680  202.9100  149.5360 C   0  0  1  0  0  3  0  0  0  0  0  0
  160.4840  204.3590  151.5530 C   0  0  0  0  0  2  0  0  0  0  0  0
  161.1940  206.3350  148.5980 O   0  0  0  0  0  0  0  0  0  0  0  0
  160.9170  201.5310  149.0170 C   0  0  0  0  0  1  0  0  0  0  0  0
  160.9370  203.0080  151.0100 C   0  0  0  0  0  2  0  0  0  0  0  0
  161.1720  205.3200  149.3440 C   0  0  0  0  0  0  0  0  0  0  0  0
  161.0580  205.4580  150.7750 N   0  0  0  0  0  0  0  0  0  0  0  0
  161.3200  203.9620  148.7300 C   0  0  0  0  0  2  0  0  0  0  0  0
  1 14  1  0  0  0  0
  2  5  1  6  0  0  0
  2 13  1  0  0  0  0
  2  3  1  0  0  0  0
  3 19  1  0  0  0  0
  4 15  2  0  0  0  0
  6 17  1  0  0  0  0
  6  1  2  0  0  0  0
  7  3  2  0  0  0  0
  7  4  1  0  0  0  0
  8 21  1  0  0  0  0
  8 13  1  0  0  0  0
  9  1  1  0  0  0  0
 11  4  1  0  0  0  0
 12  8  1  0  0  0  0
 13 18  1  1  0  0  0
 14  5  2  0  0  0  0
 15 20  1  0  0  0  0
 16 12  1  0  0  0  0
 16  5  1  0  0  0  0
 17 16  2  0  0  0  0
 18 10  1  0  0  0  0
 19 10  1  0  0  0  0
 19 20  2  0  0  0  0
 21 23  1  0  0  0  0
 23 22  2  0  0  0  0
 24 27  1  6  0  0  0
 24 28  1  0  0  0  0
 26 29  2  0  0  0  0
 28 25  1  0  0  0  0
 29 30  1  0  0  0  0
 30 23  1  0  0  0  0
 30 25  1  0  0  0  0
 31 29  1  0  0  0  0
 31 24  1  0  0  0  0
M  END
>  <MODEL>
3

>  <REMARK>
 VINA RESULT:      -6.5      4.323      7.434
  Name = 
  2 active torsions:
  status: ('A' for Active; 'I' for Inactive)
    1  A    between atoms: C_5  and  C_16
    2  A    between atoms: N_10  and  C_16
                            x       y       z     vdW  Elec       q    Type
                         _______ _______ _______ _____ _____    ______ ____

>  <TORSDO>
F 2

$$$$
=
 OpenBabel11122413153D

 31 35  0  0  1  0  0  0  0  0999 V2000
  161.2410  201.0350  149.0630 C   0  0  0  0  0  0  0  0  0  0  0  0
  162.1070  204.6250  148.1390 C   0  0  2  0  0  3  0  0  0  0  0  0
  161.3400  204.9300  146.8580 C   0  0  0  0  0  0  0  0  0  0  0  0
  160.1410  204.1950  144.8730 C   0  0  0  0  0  0  0  0  0  0  0  0
  161.5450  203.4370  148.8800 C   0  0  0  0  0  0  0  0  0  0  0  0
  160.4330  201.2210  150.1880 C   0  0  0  0  0  3  0  0  0  0  0  0
  160.8200  203.9020  146.0570 C   0  0  0  0  0  3  0  0  0  0  0  0
  160.8350  206.0640  149.6860 N   0  0  0  0  0  0  0  0  0  0  0  0
  161.4820  199.7860  148.6000 F   0  0  0  0  0  0  0  0  0  0  0  0
  161.7540  207.3100  147.1700 O   0  0  0  0  0  0  0  0  0  0  0  0
  159.4850  202.8990  143.8980 Cl  0  0  0  0  0  0  0  0  0  0  0  0
  160.5760  204.9780  150.6360 C   0  0  0  0  0  2  0  0  0  0  0  0
  162.1620  205.8520  149.0760 C   0  0  2  0  0  3  0  0  0  0  0  0
  161.7970  202.1400  148.4120 C   0  0  0  0  0  3  0  0  0  0  0  0
  159.9860  205.5220  144.4670 C   0  0  0  0  0  3  0  0  0  0  0  0
  160.7320  203.6190  150.0160 C   0  0  0  0  0  0  0  0  0  0  0  0
  160.1900  202.5090  150.6700 C   0  0  0  0  0  3  0  0  0  0  0  0
  162.6340  207.0670  148.2640 C   0  0  0  0  0  2  0  0  0  0  0  0
  161.2110  206.2650  146.4210 C   0  0  0  0  0  0  0  0  0  0  0  0
  160.5220  206.5550  145.2400 C   0  0  0  0  0  3  0  0  0  0  0  0
  160.8470  207.2860  150.4850 C   0  0  0  0  0  2  0  0  0  0  0  0
  162.2310  205.9970  151.9200 O   0  0  0  0  0  0  0  0  0  0  0  0
  161.4920  207.0120  151.8060 C   0  0  0  0  0  0  0  0  0  0  0  0
  160.5050  209.3410  155.2960 C   0  0  1  0  0  3  0  0  0  0  0  0
  161.3970  207.2520  154.2880 C   0  0  0  0  0  2  0  0  0  0  0  0
  161.1500  209.8650  151.7870 O   0  0  0  0  0  0  0  0  0  0  0  0
  159.5850  209.9090  156.3560 C   0  0  0  0  0  1  0  0  0  0  0  0
  160.3900  207.8230  155.2810 C   0  0  0  0  0  2  0  0  0  0  0  0
  160.8680  209.2230  152.8330 C   0  0  0  0  0  0  0  0  0  0  0  0
  161.2030  207.8260  152.9550 N   0  0  0  0  0  0  0  0  0  0  0  0
  160.1280  209.9160  153.9360 C   0  0  0  0  0  2  0  0  0  0  0  0
  1  6  1  0  0  0  0
  2  3  1  6  0  0  0
  2  5  1  0  0  0  0
  2 13  1  0  0  0  0
  4  7  1  0  0  0  0
  5 16  2  0  0  0  0
  6 17  2  0  0  0  0
  7  3  2  0  0  0  0
  8 21  1  0  0  0  0
  8 12  1  0  0  0  0
  9  1  1  0  0  0  0
 10 18  1  0  0  0  0
 11  4  1  0  0  0  0
 13 18  1  6  0  0  0
 13  8  1  0  0  0  0
 14  5  1  0  0  0  0
 14  1  2  0  0  0  0
 15  4  2  0  0  0  0
 15 20  1  0  0  0  0
 16 12  1  0  0  0  0
 16 17  1  0  0  0  0
 19  3  1  0  0  0  0
 19 10  1  0  0  0  0
 20 19  2  0  0  0  0
 21 23  1  0  0  0  0
 23 22  2  0  0  0  0
 23 30  1  0  0  0  0
 24 27  1  1  0  0  0
 25 28  1  0  0  0  0
 26 29  2  0  0  0  0
 28 24  1  0  0  0  0
 29 30  1  0  0  0  0
 29 31  1  0  0  0  0
 30 25  1  0  0  0  0
 31 24  1  0  0  0  0
M  END
>  <MODEL>
4

>  <REMARK>
 VINA RESULT:      -6.4      2.039      3.935
  Name = 
  2 active torsions:
  status: ('A' for Active; 'I' for Inactive)
    1  A    between atoms: C_5  and  C_16
    2  A    between atoms: N_10  and  C_16
                            x       y       z     vdW  Elec       q    Type
                         _______ _______ _______ _____ _____    ______ ____

>  <TORSDO>
F 2

$$$$
=
 OpenBabel11122413153D

 31 35  0  0  1  0  0  0  0  0999 V2000
  160.7150  201.5560  148.7360 C   0  0  0  0  0  0  0  0  0  0  0  0
  162.3300  204.8080  149.8810 C   0  0  2  0  0  3  0  0  0  0  0  0
  161.8380  205.8860  148.9240 C   0  0  0  0  0  0  0  0  0  0  0  0
  160.8550  206.5560  146.8010 C   0  0  0  0  0  0  0  0  0  0  0  0
  161.4600  203.5750  149.8600 C   0  0  0  0  0  0  0  0  0  0  0  0
  159.7870  201.3280  149.7550 C   0  0  0  0  0  3  0  0  0  0  0  0
  161.2780  205.5560  147.6800 C   0  0  0  0  0  3  0  0  0  0  0  0
  161.1030  205.5150  151.9010 N   0  0  0  0  0  0  0  0  0  0  0  0
  160.8030  200.6960  147.6940 F   0  0  0  0  0  0  0  0  0  0  0  0
  162.6090  207.6110  150.4610 O   0  0  0  0  0  0  0  0  0  0  0  0
  160.1420  206.1220  145.2640 Cl  0  0  0  0  0  0  0  0  0  0  0  0
  160.5130  204.1920  152.1220 C   0  0  0  0  0  2  0  0  0  0  0  0
  162.4510  205.3420  151.3260 C   0  0  2  0  0  3  0  0  0  0  0  0
  161.5510  202.6750  148.7900 C   0  0  0  0  0  3  0  0  0  0  0  0
  161.0000  207.8990  147.1510 C   0  0  0  0  0  3  0  0  0  0  0  0
  160.5240  203.3400  150.8870 C   0  0  0  0  0  0  0  0  0  0  0  0
  159.7010  202.2120  150.8330 C   0  0  0  0  0  3  0  0  0  0  0  0
  163.2500  206.6530  151.2970 C   0  0  0  0  0  2  0  0  0  0  0  0
  162.0150  207.2460  149.2510 C   0  0  0  0  0  0  0  0  0  0  0  0
  161.5800  208.2440  148.3730 C   0  0  0  0  0  3  0  0  0  0  0  0
  161.2040  206.1240  153.2230 C   0  0  0  0  0  2  0  0  0  0  0  0
  160.3490  208.0070  152.0570 O   0  0  0  0  0  0  0  0  0  0  0  0
  160.8300  207.5690  153.1370 C   0  0  0  0  0  0  0  0  0  0  0  0
  161.7920  210.3160  156.3180 C   0  0  1  0  0  3  0  0  0  0  0  0
  161.2310  209.9010  153.9330 C   0  0  0  0  0  2  0  0  0  0  0  0
  160.5490  206.9530  155.9300 O   0  0  0  0  0  0  0  0  0  0  0  0
  162.7130  211.0610  157.2600 C   0  0  0  0  0  1  0  0  0  0  0  0
  162.2250  210.5640  154.8790 C   0  0  0  0  0  2  0  0  0  0  0  0
  161.1100  208.0300  155.5960 C   0  0  0  0  0  0  0  0  0  0  0  0
  161.1020  208.4710  154.2230 N   0  0  0  0  0  0  0  0  0  0  0  0
  161.8360  208.8260  156.6360 C   0  0  0  0  0  2  0  0  0  0  0  0
  1 14  2  0  0  0  0
  1  6  1  0  0  0  0
  2  3  1  6  0  0  0
  2 13  1  0  0  0  0
  3 19  1  0  0  0  0
  4 15  2  0  0  0  0
  4  7  1  0  0  0  0
  5  2  1  0  0  0  0
  5 16  2  0  0  0  0
  6 17  2  0  0  0  0
  7  3  2  0  0  0  0
  8 12  1  0  0  0  0
  8 21  1  0  0  0  0
  9  1  1  0  0  0  0
 10 18  1  0  0  0  0
 11  4  1  0  0  0  0
 13 18  1  6  0  0  0
 13  8  1  0  0  0  0
 14  5  1  0  0  0  0
 15 20  1  0  0  0  0
 16 12  1  0  0  0  0
 17 16  1  0  0  0  0
 19 10  1  0  0  0  0
 20 19  2  0  0  0  0
 22 23  2  0  0  0  0
 23 21  1  0  0  0  0
 23 30  1  0  0  0  0
 24 31  1  0  0  0  0
 24 27  1  1  0  0  0
 25 30  1  0  0  0  0
 25 28  1  0  0  0  0
 28 24  1  0  0  0  0
 29 26  2  0  0  0  0
 29 31  1  0  0  0  0
 30 29  1  0  0  0  0
M  END
>  <MODEL>
5

>  <REMARK>
 VINA RESULT:      -5.7      2.439      4.401
  Name = 
  2 active torsions:
  status: ('A' for Active; 'I' for Inactive)
    1  A    between atoms: C_5  and  C_16
    2  A    between atoms: N_10  and  C_16
                            x       y       z     vdW  Elec       q    Type
                         _______ _______ _______ _____ _____    ______ ____

>  <TORSDO>
F 2

$$$$
=
 OpenBabel11122413153D

 31 35  0  0  1  0  0  0  0  0999 V2000
  161.5050  203.0880  145.7610 C   0  0  0  0  0  0  0  0  0  0  0  0
  160.4710  205.2550  148.7150 C   0  0  2  0  0  3  0  0  0  0  0  0
  160.7310  204.4220  149.9640 C   0  0  0  0  0  0  0  0  0  0  0  0
  161.1080  202.2750  151.0460 C   0  0  0  0  0  0  0  0  0  0  0  0
  161.2270  204.7460  147.5120 C   0  0  0  0  0  0  0  0  0  0  0  0
  162.6700  203.7310  145.3340 C   0  0  0  0  0  3  0  0  0  0  0  0
  160.8950  203.0300  149.8900 C   0  0  0  0  0  3  0  0  0  0  0  0
  162.2580  206.9290  149.0050 N   0  0  0  0  0  0  0  0  0  0  0  0
  161.0760  201.9710  145.1270 F   0  0  0  0  0  0  0  0  0  0  0  0
  160.5290  206.4180  151.3450 O   0  0  0  0  0  0  0  0  0  0  0  0
  161.3290  200.5440  150.9310 Cl  0  0  0  0  0  0  0  0  0  0  0  0
  162.8110  206.7120  147.6650 C   0  0  0  0  0  2  0  0  0  0  0  0
  160.7950  206.7470  148.9490 C   0  0  2  0  0  3  0  0  0  0  0  0
  160.7850  203.5960  146.8450 C   0  0  0  0  0  3  0  0  0  0  0  0
  161.1450  202.9030  152.2920 C   0  0  0  0  0  3  0  0  0  0  0  0
  162.4010  205.3920  147.0780 C   0  0  0  0  0  0  0  0  0  0  0  0
  163.1090  204.8870  145.9840 C   0  0  0  0  0  3  0  0  0  0  0  0
  160.0970  207.2030  150.2380 C   0  0  0  0  0  2  0  0  0  0  0  0
  160.7330  205.0410  151.2310 C   0  0  0  0  0  0  0  0  0  0  0  0
  160.9570  204.2840  152.3850 C   0  0  0  0  0  3  0  0  0  0  0  0
  162.5730  208.3150  149.3360 C   0  0  0  0  0  2  0  0  0  0  0  0
  163.1810  207.6160  151.5210 O   0  0  0  0  0  0  0  0  0  0  0  0
  162.5890  208.4820  150.8220 C   0  0  0  0  0  0  0  0  0  0  0  0
  160.2820  211.5740  152.7450 C   0  0  1  0  0  3  0  0  0  0  0  0
  161.4570  209.3870  152.8530 C   0  0  0  0  0  2  0  0  0  0  0  0
  162.3680  211.1710  149.8320 O   0  0  0  0  0  0  0  0  0  0  0  0
  159.0150  212.3170  153.1140 C   0  0  0  0  0  1  0  0  0  0  0  0
  160.1400  210.1060  153.1270 C   0  0  0  0  0  2  0  0  0  0  0  0
  161.6510  210.8170  150.8050 C   0  0  0  0  0  0  0  0  0  0  0  0
  161.8630  209.5480  151.4560 N   0  0  0  0  0  0  0  0  0  0  0  0
  160.5340  211.7110  151.2480 C   0  0  0  0  0  2  0  0  0  0  0  0
  1 14  1  0  0  0  0
  2  5  1  6  0  0  0
  2 13  1  0  0  0  0
  2  3  1  0  0  0  0
  3 19  1  0  0  0  0
  4 15  2  0  0  0  0
  6  1  2  0  0  0  0
  6 17  1  0  0  0  0
  7  3  2  0  0  0  0
  7  4  1  0  0  0  0
  8 21  1  0  0  0  0
  9  1  1  0  0  0  0
 11  4  1  0  0  0  0
 12  8  1  0  0  0  0
 13  8  1  0  0  0  0
 13 18  1  1  0  0  0
 14  5  2  0  0  0  0
 15 20  1  0  0  0  0
 16  5  1  0  0  0  0
 16 12  1  0  0  0  0
 17 16  2  0  0  0  0
 18 10  1  0  0  0  0
 19 10  1  0  0  0  0
 19 20  2  0  0  0  0
 21 23  1  0  0  0  0
 23 30  1  0  0  0  0
 23 22  2  0  0  0  0
 24 27  1  6  0  0  0
 24 28  1  0  0  0  0
 25 28  1  0  0  0  0
 26 29  2  0  0  0  0
 29 31  1  0  0  0  0
 29 30  1  0  0  0  0
 30 25  1  0  0  0  0
 31 24  1  0  0  0  0
M  END
>  <MODEL>
6

>  <REMARK>
 VINA RESULT:      -4.9      1.674      2.050
  Name = 
  2 active torsions:
  status: ('A' for Active; 'I' for Inactive)
    1  A    between atoms: C_5  and  C_16
    2  A    between atoms: N_10  and  C_16
                            x       y       z     vdW  Elec       q    Type
                         _______ _______ _______ _____ _____    ______ ____

>  <TORSDO>
F 2

$$$$
=
 OpenBabel11122413153D

 31 35  0  0  1  0  0  0  0  0999 V2000
  161.5500  212.8610  149.0610 C   0  0  0  0  0  0  0  0  0  0  0  0
  162.4330  209.5810  150.7790 C   0  0  2  0  0  3  0  0  0  0  0  0
  161.4210  209.4060  151.9050 C   0  0  0  0  0  0  0  0  0  0  0  0
  159.7590  210.3190  153.4300 C   0  0  0  0  0  0  0  0  0  0  0  0
  161.9710  210.5670  149.7350 C   0  0  0  0  0  0  0  0  0  0  0  0
  161.0300  212.4110  147.8440 C   0  0  0  0  0  3  0  0  0  0  0  0
  160.6650  210.4890  152.3800 C   0  0  0  0  0  3  0  0  0  0  0  0
  161.6440  207.7840  149.2870 N   0  0  0  0  0  0  0  0  0  0  0  0
  161.5930  214.1870  149.3300 F   0  0  0  0  0  0  0  0  0  0  0  0
  162.0590  207.0660  152.1230 O   0  0  0  0  0  0  0  0  0  0  0  0
  158.8130  211.6780  153.9940 Cl  0  0  0  0  0  0  0  0  0  0  0  0
  161.5300  208.6680  148.1240 C   0  0  0  0  0  2  0  0  0  0  0  0
  162.7810  208.2320  150.1130 C   0  0  2  0  0  3  0  0  0  0  0  0
  162.0210  211.9420  150.0020 C   0  0  0  0  0  3  0  0  0  0  0  0
  159.6100  209.0670  154.0270 C   0  0  0  0  0  3  0  0  0  0  0  0
  161.4490  210.1170  148.5060 C   0  0  0  0  0  0  0  0  0  0  0  0
  160.9910  211.0430  147.5630 C   0  0  0  0  0  3  0  0  0  0  0  0
  163.1430  207.2220  151.2120 C   0  0  0  0  0  2  0  0  0  0  0  0
  161.2900  208.1540  152.5400 C   0  0  0  0  0  0  0  0  0  0  0  0
  160.3750  207.9860  153.5840 C   0  0  0  0  0  3  0  0  0  0  0  0
  161.9200  206.4570  148.7430 C   0  0  0  0  0  2  0  0  0  0  0  0
  160.1290  205.8480  150.1760 O   0  0  0  0  0  0  0  0  0  0  0  0
  160.8930  205.4910  149.2390 C   0  0  0  0  0  0  0  0  0  0  0  0
  160.8190  201.4080  147.8580 C   0  0  1  0  0  3  0  0  0  0  0  0
  160.2270  203.1080  149.5700 C   0  0  0  0  0  2  0  0  0  0  0  0
  161.2980  204.7150  146.5020 O   0  0  0  0  0  0  0  0  0  0  0  0
  161.3840  200.0210  147.6350 C   0  0  0  0  0  1  0  0  0  0  0  0
  160.8950  201.7570  149.3380 C   0  0  0  0  0  2  0  0  0  0  0  0
  161.2290  203.8210  147.3860 C   0  0  0  0  0  0  0  0  0  0  0  0
  160.8360  204.1460  148.7350 N   0  0  0  0  0  0  0  0  0  0  0  0
  161.6110  202.4160  147.0340 C   0  0  0  0  0  2  0  0  0  0  0  0
  1  9  1  0  0  0  0
  1 14  1  0  0  0  0
  2  5  1  6  0  0  0
  2  3  1  0  0  0  0
  3  7  2  0  0  0  0
  3 19  1  0  0  0  0
  4 11  1  0  0  0  0
  4 15  2  0  0  0  0
  5 14  2  0  0  0  0
  6  1  2  0  0  0  0
  7  4  1  0  0  0  0
  8 13  1  0  0  0  0
 10 19  1  0  0  0  0
 12 16  1  0  0  0  0
 12  8  1  0  0  0  0
 13  2  1  0  0  0  0
 13 18  1  1  0  0  0
 16  5  1  0  0  0  0
 17  6  1  0  0  0  0
 17 16  2  0  0  0  0
 18 10  1  0  0  0  0
 19 20  2  0  0  0  0
 20 15  1  0  0  0  0
 21 23  1  0  0  0  0
 21  8  1  0  0  0  0
 23 22  2  0  0  0  0
 24 27  1  1  0  0  0
 24 28  1  0  0  0  0
 26 29  2  0  0  0  0
 28 25  1  0  0  0  0
 29 30  1  0  0  0  0
 30 23  1  0  0  0  0
 30 25  1  0  0  0  0
 31 29  1  0  0  0  0
 31 24  1  0  0  0  0
M  END
>  <MODEL>
7

>  <REMARK>
 VINA RESULT:      -4.9      4.011      7.344
  Name = 
  2 active torsions:
  status: ('A' for Active; 'I' for Inactive)
    1  A    between atoms: C_5  and  C_16
    2  A    between atoms: N_10  and  C_16
                            x       y       z     vdW  Elec       q    Type
                         _______ _______ _______ _____ _____    ______ ____

>  <TORSDO>
F 2

$$$$
=
 OpenBabel11122413153D

 31 35  0  0  1  0  0  0  0  0999 V2000
  162.4480  210.9480  149.5560 C   0  0  0  0  0  0  0  0  0  0  0  0
  162.4090  207.6490  151.4540 C   0  0  2  0  0  3  0  0  0  0  0  0
  161.5210  207.8710  152.6720 C   0  0  0  0  0  0  0  0  0  0  0  0
  160.4120  209.3510  154.2520 C   0  0  0  0  0  0  0  0  0  0  0  0
  162.1800  208.6790  150.3760 C   0  0  0  0  0  0  0  0  0  0  0  0
  161.6860  210.6330  148.4280 C   0  0  0  0  0  3  0  0  0  0  0  0
  161.2070  209.1630  153.1200 C   0  0  0  0  0  3  0  0  0  0  0  0
  160.9310  206.1370  150.1850 N   0  0  0  0  0  0  0  0  0  0  0  0
  162.9440  212.1980  149.7120 F   0  0  0  0  0  0  0  0  0  0  0  0
  161.3930  205.4640  153.0240 O   0  0  0  0  0  0  0  0  0  0  0  0
  160.0180  210.9710  154.7830 Cl  0  0  0  0  0  0  0  0  0  0  0  0
  160.9840  206.9520  148.9670 C   0  0  0  0  0  2  0  0  0  0  0  0
  162.2330  206.2290  150.8720 C   0  0  2  0  0  3  0  0  0  0  0  0
  162.6970  209.9730  150.5250 C   0  0  0  0  0  3  0  0  0  0  0  0
  159.9330  208.2480  154.9600 C   0  0  0  0  0  3  0  0  0  0  0  0
  161.4130  208.3650  149.2360 C   0  0  0  0  0  0  0  0  0  0  0  0
  161.1800  209.3420  148.2630 C   0  0  0  0  0  3  0  0  0  0  0  0
  162.3660  205.2120  152.0150 C   0  0  0  0  0  2  0  0  0  0  0  0
  161.0630  206.7630  153.4150 C   0  0  0  0  0  0  0  0  0  0  0  0
  160.2590  206.9550  154.5430 C   0  0  0  0  0  3  0  0  0  0  0  0
  160.7060  204.7690  149.7280 C   0  0  0  0  0  2  0  0  0  0  0  0
  162.0260  205.5200  147.9040 O   0  0  0  0  0  0  0  0  0  0  0  0
  161.4370  204.5450  148.4440 C   0  0  0  0  0  0  0  0  0  0  0  0
  161.1680  200.7860  146.3500 C   0  0  1  0  0  3  0  0  0  0  0  0
  161.6330  203.2270  146.3330 C   0  0  0  0  0  2  0  0  0  0  0  0
  161.5180  201.9790  149.7350 O   0  0  0  0  0  0  0  0  0  0  0  0
  160.4550  199.6570  145.6360 C   0  0  0  0  0  1  0  0  0  0  0  0
  160.8290  202.1090  145.6780 C   0  0  0  0  0  2  0  0  0  0  0  0
  161.2530  202.0360  148.5050 C   0  0  0  0  0  0  0  0  0  0  0  0
  161.3900  203.2730  147.7760 N   0  0  0  0  0  0  0  0  0  0  0  0
  160.7410  200.8100  147.8130 C   0  0  0  0  0  2  0  0  0  0  0  0
  1  9  1  0  0  0  0
  1 14  1  0  0  0  0
  2  5  1  6  0  0  0
  2  3  1  0  0  0  0
  3  7  2  0  0  0  0
  3 19  1  0  0  0  0
  4 11  1  0  0  0  0
  4 15  2  0  0  0  0
  5 14  2  0  0  0  0
  6  1  2  0  0  0  0
  7  4  1  0  0  0  0
  8 13  1  0  0  0  0
 10 19  1  0  0  0  0
 12 16  1  0  0  0  0
 12  8  1  0  0  0  0
 13  2  1  0  0  0  0
 13 18  1  1  0  0  0
 16  5  1  0  0  0  0
 17  6  1  0  0  0  0
 17 16  2  0  0  0  0
 18 10  1  0  0  0  0
 19 20  2  0  0  0  0
 20 15  1  0  0  0  0
 21  8  1  0  0  0  0
 22 23  2  0  0  0  0
 23 21  1  0  0  0  0
 24 27  1  6  0  0  0
 24 31  1  0  0  0  0
 25 30  1  0  0  0  0
 28 25  1  0  0  0  0
 28 24  1  0  0  0  0
 29 26  2  0  0  0  0
 30 23  1  0  0  0  0
 30 29  1  0  0  0  0
 31 29  1  0  0  0  0
M  END
>  <MODEL>
8

>  <REMARK>
 VINA RESULT:      -4.1      3.648      7.411
  Name = 
  2 active torsions:
  status: ('A' for Active; 'I' for Inactive)
    1  A    between atoms: C_5  and  C_16
    2  A    between atoms: N_10  and  C_16
                            x       y       z     vdW  Elec       q    Type
                         _______ _______ _______ _____ _____    ______ ____

>  <TORSDO>
F 2

$$$$
=
 OpenBabel11122413153D

 31 35  0  0  1  0  0  0  0  0999 V2000
  160.9170  201.9300  150.4780 C   0  0  0  0  0  0  0  0  0  0  0  0
  162.2640  204.3730  147.8880 C   0  0  2  0  0  3  0  0  0  0  0  0
  161.4890  204.1010  146.6050 C   0  0  0  0  0  0  0  0  0  0  0  0
  160.0970  202.6550  145.2290 C   0  0  0  0  0  0  0  0  0  0  0  0
  161.5690  203.8280  149.1110 C   0  0  0  0  0  0  0  0  0  0  0  0
  160.2040  202.7820  151.3260 C   0  0  0  0  0  3  0  0  0  0  0  0
  160.7820  202.9020  146.4210 C   0  0  0  0  0  3  0  0  0  0  0  0
  161.3000  206.5740  148.4460 N   0  0  0  0  0  0  0  0  0  0  0  0
  160.9460  200.5990  150.7230 F   0  0  0  0  0  0  0  0  0  0  0  0
  162.2700  206.2130  145.6770 O   0  0  0  0  0  0  0  0  0  0  0  0
  159.2060  201.1630  145.0270 Cl  0  0  0  0  0  0  0  0  0  0  0  0
  160.9290  206.1740  149.8060 C   0  0  0  0  0  2  0  0  0  0  0  0
  162.5480  205.8800  148.0720 C   0  0  2  0  0  3  0  0  0  0  0  0
  161.6000  202.4520  149.3760 C   0  0  0  0  0  3  0  0  0  0  0  0
  160.1220  203.5990  144.2010 C   0  0  0  0  0  3  0  0  0  0  0  0
  160.8500  204.6830  149.9680 C   0  0  0  0  0  0  0  0  0  0  0  0
  160.1800  204.1560  151.0770 C   0  0  0  0  0  3  0  0  0  0  0  0
  163.1560  206.4260  146.7720 C   0  0  0  0  0  2  0  0  0  0  0  0
  161.5400  205.0310  145.5460 C   0  0  0  0  0  0  0  0  0  0  0  0
  160.8440  204.7840  144.3590 C   0  0  0  0  0  3  0  0  0  0  0  0
  161.5340  208.0130  148.5130 C   0  0  0  0  0  2  0  0  0  0  0  0
  162.6350  207.5330  150.5600 O   0  0  0  0  0  0  0  0  0  0  0  0
  161.9870  208.3810  149.8890 C   0  0  0  0  0  0  0  0  0  0  0  0
  160.7260  212.0640  151.7410 C   0  0  1  0  0  3  0  0  0  0  0  0
  161.5940  209.7440  151.9420 C   0  0  0  0  0  2  0  0  0  0  0  0
  161.8440  210.9020  148.5160 O   0  0  0  0  0  0  0  0  0  0  0  0
  159.7200  213.0590  152.2790 C   0  0  0  0  0  1  0  0  0  0  0  0
  160.5110  210.7110  152.4070 C   0  0  0  0  0  2  0  0  0  0  0  0
  161.3890  210.8180  149.6870 C   0  0  0  0  0  0  0  0  0  0  0  0
  161.6110  209.6350  150.4820 N   0  0  0  0  0  0  0  0  0  0  0  0
  160.5640  211.9440  150.2310 C   0  0  0  0  0  2  0  0  0  0  0  0
  1  9  1  0  0  0  0
  1  6  1  0  0  0  0
  2  3  1  6  0  0  0
  2 13  1  0  0  0  0
  2  5  1  0  0  0  0
  4  7  2  0  0  0  0
  5 14  1  0  0  0  0
  5 16  2  0  0  0  0
  7  3  1  0  0  0  0
  8 21  1  0  0  0  0
  8 12  1  0  0  0  0
 10 18  1  0  0  0  0
 11  4  1  0  0  0  0
 12 16  1  0  0  0  0
 13 18  1  6  0  0  0
 13  8  1  0  0  0  0
 14  1  2  0  0  0  0
 15 20  2  0  0  0  0
 15  4  1  0  0  0  0
 16 17  1  0  0  0  0
 17  6  2  0  0  0  0
 19 10  1  0  0  0  0
 19  3  2  0  0  0  0
 20 19  1  0  0  0  0
 21 23  1  0  0  0  0
 23 30  1  0  0  0  0
 23 22  2  0  0  0  0
 24 27  1  1  0  0  0
 24 28  1  0  0  0  0
 25 28  1  0  0  0  0
 26 29  2  0  0  0  0
 29 31  1  0  0  0  0
 29 30  1  0  0  0  0
 30 25  1  0  0  0  0
 31 24  1  0  0  0  0
M  END
>  <MODEL>
9

>  <REMARK>
 VINA RESULT:      -3.8      2.681      4.487
  Name = 
  2 active torsions:
  status: ('A' for Active; 'I' for Inactive)
    1  A    between atoms: C_5  and  C_16
    2  A    between atoms: N_10  and  C_16
                            x       y       z     vdW  Elec       q    Type
                         _______ _______ _______ _____ _____    ______ ____

>  <TORSDO>
F 2

$$$$
