=
 OpenBabel11122414333D

 34 42  0  0  1  0  0  0  0  0999 V2000
  160.9020  207.1210  153.9780 C   0  0  0  0  0  0  0  0  0  0  0  0
  161.5850  204.9610  152.7480 C   0  0  0  0  0  3  0  0  0  0  0  0
  158.7450  213.4970  154.0530 C   0  0  1  0  0  0  0  0  0  0  0  0
  160.0740  209.2090  154.9400 C   0  0  0  0  0  0  0  0  0  0  0  0
  159.6190  211.1670  153.4220 C   0  0  0  0  0  0  0  0  0  0  0  0
  159.2220  213.3960  152.1610 C   0  0  1  0  0  3  0  0  0  0  0  0
  158.8780  214.4530  153.0010 O   0  0  0  0  0  0  0  0  0  0  0  0
  158.1420  212.3210  156.0530 C   0  0  0  0  0  3  0  0  0  0  0  0
  161.3680  206.9330  151.5430 C   0  0  0  0  0  0  0  0  0  0  0  0
  161.6410  207.2220  148.5140 C   0  0  0  0  0  3  0  0  0  0  0  0
  160.1020  210.3760  152.3360 N   0  0  0  0  0  2  0  0  0  0  0  0
  158.7160  211.1210  155.8400 C   0  0  0  0  0  3  0  0  0  0  0  0
  160.9540  208.3470  151.2690 C   0  0  1  0  0  3  0  0  0  0  0  0
  161.6400  204.7090  151.3130 N   0  0  0  0  0  0  0  0  0  0  0  0
  159.7940  210.7000  154.8500 C   0  0  1  0  0  3  0  0  0  0  0  0
  158.3040  213.5130  155.2660 N   0  0  0  0  0  2  0  0  0  0  0  0
  161.3180  206.1010  149.1740 C   0  0  0  0  0  0  0  0  0  0  0  0
  160.5820  208.4860  153.8330 C   0  0  0  0  0  0  0  0  0  0  0  0
  159.2620  212.4160  153.1960 C   0  0  0  0  0  0  0  0  0  0  0  0
  160.9450  209.2090  152.5470 C   0  0  2  0  0  3  0  0  0  0  0  0
  160.2250  207.1900  156.2990 C   0  0  0  0  0  3  0  0  0  0  0  0
  162.1400  208.4950  149.0680 C   0  0  0  0  0  3  0  0  0  0  0  0
  159.9190  208.5430  156.1690 C   0  0  0  0  0  3  0  0  0  0  0  0
  161.8770  208.9830  150.2800 C   0  0  0  0  0  3  0  0  0  0  0  0
  161.4710  205.9620  150.6510 C   0  0  0  0  0  0  0  0  0  0  0  0
  160.7130  206.4790  155.2060 C   0  0  0  0  0  3  0  0  0  0  0  0
  161.4080  206.4020  152.8520 N   0  0  0  0  0  0  0  0  0  0  0  0
  160.8440  205.0460  148.3810 O   0  0  0  0  0  0  0  0  0  0  0  0
  161.5980  203.8900  148.0340 C   0  0  0  0  0  2  0  0  0  0  0  0
  161.0360  205.8010  145.4490 O   0  0  0  0  0  0  0  0  0  0  0  0
  163.0140  204.7570  146.2010 C   0  0  0  0  0  2  0  0  0  0  0  0
  161.8570  203.8620  146.5370 C   0  0  2  0  0  3  0  0  0  0  0  0
  162.4240  205.7720  145.2530 C   0  0  0  0  0  2  0  0  0  0  0  0
  160.6890  204.4910  145.8110 C   0  0  0  0  0  2  0  0  0  0  0  0
  1 26  1  0  0  0  0
  2 27  1  0  0  0  0
  3  7  1  1  0  0  0
  3 16  1  0  0  0  0
  4 23  2  0  0  0  0
  5 15  1  0  0  0  0
  6  7  1  1  0  0  0
  6 19  1  0  0  0  0
  6  3  1  0  0  0  0
  9 27  1  0  0  0  0
 10 22  1  0  0  0  0
 10 17  2  0  0  0  0
 11  5  1  0  0  0  0
 12  8  2  0  0  0  0
 13 24  1  6  0  0  0
 13  9  1  0  0  0  0
 13 20  1  0  0  0  0
 14  2  2  0  0  0  0
 15  4  1  0  0  0  0
 15 12  1  1  0  0  0
 16  8  1  0  0  0  0
 17 25  1  0  0  0  0
 18  1  2  0  0  0  0
 18  4  1  0  0  0  0
 19  5  2  0  0  0  0
 19  3  1  0  0  0  0
 20 11  1  6  0  0  0
 20 18  1  0  0  0  0
 22 24  2  0  0  0  0
 23 21  1  0  0  0  0
 25 14  1  0  0  0  0
 25  9  2  0  0  0  0
 26 21  2  0  0  0  0
 27  1  1  0  0  0  0
 28 17  1  0  0  0  0
 29 28  1  0  0  0  0
 30 34  1  0  0  0  0
 31 32  1  0  0  0  0
 32 29  1  1  0  0  0
 33 30  1  0  0  0  0
 33 31  1  0  0  0  0
 34 32  1  0  0  0  0
M  END
>  <MODEL>
1

>  <REMARK>
 VINA RESULT:      -9.7      0.000      0.000
  Name = 
  3 active torsions:
  status: ('A' for Active; 'I' for Inactive)
    1  A    between atoms: C_17  and  O_28
    2  A    between atoms: O_28  and  C_29
    3  A    between atoms: C_29  and  C_32
                            x       y       z     vdW  Elec       q    Type
                         _______ _______ _______ _____ _____    ______ ____

>  <TORSDO>
F 3

$$$$
=
 OpenBabel11122414333D

 34 42  0  0  1  0  0  0  0  0999 V2000
  160.8580  207.1800  154.2290 C   0  0  0  0  0  0  0  0  0  0  0  0
  161.5870  205.0370  152.9980 C   0  0  0  0  0  3  0  0  0  0  0  0
  158.5260  213.4950  154.3110 C   0  0  1  0  0  0  0  0  0  0  0  0
  159.9820  209.2470  155.1950 C   0  0  0  0  0  0  0  0  0  0  0  0
  159.4570  211.1880  153.6760 C   0  0  0  0  0  0  0  0  0  0  0  0
  158.9860  213.4020  152.4140 C   0  0  1  0  0  3  0  0  0  0  0  0
  158.6210  214.4510  153.2550 O   0  0  0  0  0  0  0  0  0  0  0  0
  157.9770  212.3080  156.3200 C   0  0  0  0  0  3  0  0  0  0  0  0
  161.3030  206.9990  151.7910 C   0  0  0  0  0  0  0  0  0  0  0  0
  161.5370  207.2860  148.7580 C   0  0  0  0  0  3  0  0  0  0  0  0
  159.9500  210.4080  152.5880 N   0  0  0  0  0  2  0  0  0  0  0  0
  158.5810  211.1250  156.1040 C   0  0  0  0  0  3  0  0  0  0  0  0
  160.8480  208.3990  151.5170 C   0  0  1  0  0  3  0  0  0  0  0  0
  161.6340  204.7830  151.5630 N   0  0  0  0  0  0  0  0  0  0  0  0
  159.6600  210.7310  155.1040 C   0  0  1  0  0  3  0  0  0  0  0  0
  158.0980  213.5020  155.5290 N   0  0  0  0  0  2  0  0  0  0  0  0
  161.2510  206.1590  149.4240 C   0  0  0  0  0  0  0  0  0  0  0  0
  160.4980  208.5360  154.0850 C   0  0  0  0  0  0  0  0  0  0  0  0
  159.0640  212.4260  153.4510 C   0  0  0  0  0  0  0  0  0  0  0  0
  160.8280  209.2650  152.7930 C   0  0  2  0  0  3  0  0  0  0  0  0
  160.2030  207.2370  156.5580 C   0  0  0  0  0  3  0  0  0  0  0  0
  162.0060  208.5740  149.3030 C   0  0  0  0  0  3  0  0  0  0  0  0
  159.8580  208.5820  156.4270 C   0  0  0  0  0  3  0  0  0  0  0  0
  161.7420  209.0580  150.5170 C   0  0  0  0  0  3  0  0  0  0  0  0
  161.4240  206.0290  150.8990 C   0  0  0  0  0  0  0  0  0  0  0  0
  160.6990  206.5370  155.4610 C   0  0  0  0  0  3  0  0  0  0  0  0
  161.3710  206.4720  153.1000 N   0  0  0  0  0  0  0  0  0  0  0  0
  160.7990  205.0890  148.6390 O   0  0  0  0  0  0  0  0  0  0  0  0
  161.0060  204.9680  147.2360 C   0  0  0  0  0  2  0  0  0  0  0  0
  160.4770  201.7540  147.4460 O   0  0  0  0  0  0  0  0  0  0  0  0
  161.2360  203.0840  145.6500 C   0  0  0  0  0  2  0  0  0  0  0  0
  161.7540  203.6820  146.9250 C   0  0  2  0  0  3  0  0  0  0  0  0
  160.7290  201.7250  146.0670 C   0  0  0  0  0  2  0  0  0  0  0  0
  161.4270  202.6420  147.9730 C   0  0  0  0  0  2  0  0  0  0  0  0
  1 26  1  0  0  0  0
  2 27  1  0  0  0  0
  3  7  1  1  0  0  0
  3 16  1  0  0  0  0
  4 23  2  0  0  0  0
  5 15  1  0  0  0  0
  6  7  1  1  0  0  0
  6 19  1  0  0  0  0
  6  3  1  0  0  0  0
  9 27  1  0  0  0  0
 10 22  1  0  0  0  0
 10 17  2  0  0  0  0
 11  5  1  0  0  0  0
 12  8  2  0  0  0  0
 13 24  1  6  0  0  0
 13  9  1  0  0  0  0
 13 20  1  0  0  0  0
 14  2  2  0  0  0  0
 15  4  1  0  0  0  0
 15 12  1  1  0  0  0
 16  8  1  0  0  0  0
 17 25  1  0  0  0  0
 18  1  2  0  0  0  0
 18  4  1  0  0  0  0
 19  5  2  0  0  0  0
 19  3  1  0  0  0  0
 20 11  1  6  0  0  0
 20 18  1  0  0  0  0
 22 24  2  0  0  0  0
 23 21  1  0  0  0  0
 25 14  1  0  0  0  0
 25  9  2  0  0  0  0
 26 21  2  0  0  0  0
 27  1  1  0  0  0  0
 28 17  1  0  0  0  0
 29 28  1  0  0  0  0
 30 34  1  0  0  0  0
 31 33  1  0  0  0  0
 31 32  1  0  0  0  0
 32 29  1  1  0  0  0
 32 34  1  0  0  0  0
 33 30  1  0  0  0  0
M  END
>  <MODEL>
2

>  <REMARK>
 VINA RESULT:      -9.7      0.886      1.330
  Name = 
  3 active torsions:
  status: ('A' for Active; 'I' for Inactive)
    1  A    between atoms: C_17  and  O_28
    2  A    between atoms: O_28  and  C_29
    3  A    between atoms: C_29  and  C_32
                            x       y       z     vdW  Elec       q    Type
                         _______ _______ _______ _____ _____    ______ ____

>  <TORSDO>
F 3

$$$$
=
 OpenBabel11122414333D

 34 42  0  0  1  0  0  0  0  0999 V2000
  161.6830  209.1500  150.9820 C   0  0  0  0  0  0  0  0  0  0  0  0
  161.2900  211.1050  152.6130 C   0  0  0  0  0  3  0  0  0  0  0  0
  161.1070  202.6850  149.1930 C   0  0  1  0  0  0  0  0  0  0  0  0
  161.8140  207.1950  149.5220 C   0  0  0  0  0  0  0  0  0  0  0  0
  161.1180  204.9440  150.4140 C   0  0  0  0  0  0  0  0  0  0  0  0
  160.6430  202.4850  151.0810 C   0  0  1  0  0  3  0  0  0  0  0  0
  160.9340  201.5710  150.0700 O   0  0  0  0  0  0  0  0  0  0  0  0
  161.2570  204.1340  147.2900 C   0  0  0  0  0  3  0  0  0  0  0  0
  160.9460  208.9300  153.3450 C   0  0  0  0  0  0  0  0  0  0  0  0
  159.8660  208.1100  156.0830 C   0  0  0  0  0  3  0  0  0  0  0  0
  160.8880  205.5690  151.6760 N   0  0  0  0  0  2  0  0  0  0  0  0
  161.4210  205.3330  147.8800 C   0  0  0  0  0  3  0  0  0  0  0  0
  160.7420  207.4500  153.2330 C   0  0  1  0  0  3  0  0  0  0  0  0
  160.6370  211.0860  153.9170 N   0  0  0  0  0  0  0  0  0  0  0  0
  161.8260  205.6900  149.3040 C   0  0  1  0  0  3  0  0  0  0  0  0
  161.2780  202.8450  147.9240 N   0  0  0  0  0  2  0  0  0  0  0  0
  159.6620  209.2870  155.4750 C   0  0  0  0  0  0  0  0  0  0  0  0
  161.6100  207.7520  150.8070 C   0  0  0  0  0  0  0  0  0  0  0  0
  160.9530  203.6410  150.3050 C   0  0  0  0  0  0  0  0  0  0  0  0
  161.4850  206.8500  152.0230 C   0  0  2  0  0  3  0  0  0  0  0  0
  162.1620  209.4370  148.6280 C   0  0  0  0  0  3  0  0  0  0  0  0
  160.8030  207.0360  155.7030 C   0  0  0  0  0  3  0  0  0  0  0  0
  162.1050  208.0560  148.4480 C   0  0  0  0  0  3  0  0  0  0  0  0
  161.2210  206.7570  154.4690 C   0  0  0  0  0  3  0  0  0  0  0  0
  160.4380  209.7200  154.2770 C   0  0  0  0  0  0  0  0  0  0  0  0
  161.9490  209.9830  149.8910 C   0  0  0  0  0  3  0  0  0  0  0  0
  161.4690  209.7000  152.2820 N   0  0  0  0  0  0  0  0  0  0  0  0
  158.6820  210.1060  156.0520 O   0  0  0  0  0  0  0  0  0  0  0  0
  158.9490  211.2900  156.7950 C   0  0  0  0  0  2  0  0  0  0  0  0
  157.5450  212.8680  154.3070 O   0  0  0  0  0  0  0  0  0  0  0  0
  156.6060  211.6100  156.0690 C   0  0  0  0  0  2  0  0  0  0  0  0
  157.8320  212.3010  156.5900 C   0  0  2  0  0  3  0  0  0  0  0  0
  156.3480  212.2820  154.7420 C   0  0  0  0  0  2  0  0  0  0  0  0
  158.2120  213.2540  155.4790 C   0  0  0  0  0  2  0  0  0  0  0  0
  1 27  1  0  0  0  0
  2 14  2  0  0  0  0
  3 16  1  6  0  0  0
  3  7  1  0  0  0  0
  3 19  1  0  0  0  0
  3  6  1  0  0  0  0
  4 18  2  0  0  0  0
  5 11  1  0  0  0  0
  6  7  1  1  0  0  0
  8 12  2  0  0  0  0
  8 16  1  0  0  0  0
  9 25  2  0  0  0  0
 11 20  1  0  0  0  0
 13  9  1  0  0  0  0
 13 24  1  1  0  0  0
 14 25  1  0  0  0  0
 15 12  1  6  0  0  0
 15  4  1  0  0  0  0
 15  5  1  0  0  0  0
 17 28  1  0  0  0  0
 17 10  2  0  0  0  0
 18  1  1  0  0  0  0
 19  5  2  0  0  0  0
 19  6  1  0  0  0  0
 20 18  1  6  0  0  0
 20 13  1  0  0  0  0
 21 26  1  0  0  0  0
 22 10  1  0  0  0  0
 23 21  2  0  0  0  0
 23  4  1  0  0  0  0
 24 22  2  0  0  0  0
 25 17  1  0  0  0  0
 26  1  2  0  0  0  0
 27  2  1  0  0  0  0
 27  9  1  0  0  0  0
 28 29  1  0  0  0  0
 30 33  1  0  0  0  0
 30 34  1  0  0  0  0
 31 32  1  0  0  0  0
 32 29  1  6  0  0  0
 33 31  1  0  0  0  0
 34 32  1  0  0  0  0
M  END
>  <MODEL>
3

>  <REMARK>
 VINA RESULT:      -9.4      1.986      9.003
  Name = 
  3 active torsions:
  status: ('A' for Active; 'I' for Inactive)
    1  A    between atoms: C_17  and  O_28
    2  A    between atoms: O_28  and  C_29
    3  A    between atoms: C_29  and  C_32
                            x       y       z     vdW  Elec       q    Type
                         _______ _______ _______ _____ _____    ______ ____

>  <TORSDO>
F 3

$$$$
=
 OpenBabel11122414333D

 34 42  0  0  1  0  0  0  0  0999 V2000
  162.0140  207.9900  149.7080 C   0  0  0  0  0  0  0  0  0  0  0  0
  161.8890  210.0250  151.2840 C   0  0  0  0  0  3  0  0  0  0  0  0
  160.8610  201.5220  148.2390 C   0  0  1  0  0  0  0  0  0  0  0  0
  161.8920  205.9800  148.3240 C   0  0  0  0  0  0  0  0  0  0  0  0
  161.1240  203.8170  149.3610 C   0  0  0  0  0  0  0  0  0  0  0  0
  160.5430  201.4220  150.1650 C   0  0  1  0  0  3  0  0  0  0  0  0
  160.6880  200.4550  149.1720 O   0  0  0  0  0  0  0  0  0  0  0  0
  160.9500  202.8890  146.2720 C   0  0  0  0  0  3  0  0  0  0  0  0
  161.4610  207.9070  152.1300 C   0  0  0  0  0  0  0  0  0  0  0  0
  160.5600  207.2620  154.9770 C   0  0  0  0  0  3  0  0  0  0  0  0
  161.0410  204.5010  150.6110 N   0  0  0  0  0  2  0  0  0  0  0  0
  161.2420  204.0930  146.7970 C   0  0  0  0  0  3  0  0  0  0  0  0
  161.1510  206.4420  152.0960 C   0  0  1  0  0  3  0  0  0  0  0  0
  161.3450  210.0980  152.6360 N   0  0  0  0  0  0  0  0  0  0  0  0
  161.7860  204.4710  148.1680 C   0  0  1  0  0  3  0  0  0  0  0  0
  160.9360  201.6240  146.9550 N   0  0  0  0  0  2  0  0  0  0  0  0
  160.3850  208.4280  154.3390 C   0  0  0  0  0  0  0  0  0  0  0  0
  161.8330  206.5960  149.5970 C   0  0  0  0  0  0  0  0  0  0  0  0
  160.8630  202.5250  149.3190 C   0  0  0  0  0  0  0  0  0  0  0  0
  161.7490  205.7490  150.8550 C   0  0  2  0  0  3  0  0  0  0  0  0
  162.3140  208.1590  147.3140 C   0  0  0  0  0  3  0  0  0  0  0  0
  161.3880  206.1130  154.5680 C   0  0  0  0  0  3  0  0  0  0  0  0
  162.1500  206.7800  147.1960 C   0  0  0  0  0  3  0  0  0  0  0  0
  161.6830  205.7620  153.3160 C   0  0  0  0  0  3  0  0  0  0  0  0
  161.0870  208.7630  153.0670 C   0  0  0  0  0  0  0  0  0  0  0  0
  162.2430  208.7640  148.5660 C   0  0  0  0  0  3  0  0  0  0  0  0
  161.9450  208.6000  150.9980 N   0  0  0  0  0  0  0  0  0  0  0  0
  159.5130  209.3340  154.9590 O   0  0  0  0  0  0  0  0  0  0  0  0
  159.8440  210.1370  156.0860 C   0  0  0  0  0  2  0  0  0  0  0  0
  159.1440  213.0110  154.7080 O   0  0  0  0  0  0  0  0  0  0  0  0
  157.7750  211.1500  155.1870 C   0  0  0  0  0  2  0  0  0  0  0  0
  158.8210  211.2480  156.2580 C   0  0  2  0  0  3  0  0  0  0  0  0
  157.8750  212.4690  154.4610 C   0  0  0  0  0  2  0  0  0  0  0  0
  159.4790  212.5850  156.0010 C   0  0  0  0  0  2  0  0  0  0  0  0
  1 27  1  0  0  0  0
  2 14  2  0  0  0  0
  3 16  1  6  0  0  0
  3  7  1  0  0  0  0
  3 19  1  0  0  0  0
  3  6  1  0  0  0  0
  4 18  2  0  0  0  0
  5 11  1  0  0  0  0
  6  7  1  1  0  0  0
  8 12  2  0  0  0  0
  8 16  1  0  0  0  0
  9 25  2  0  0  0  0
 11 20  1  0  0  0  0
 13  9  1  0  0  0  0
 13 24  1  1  0  0  0
 14 25  1  0  0  0  0
 15 12  1  6  0  0  0
 15  4  1  0  0  0  0
 15  5  1  0  0  0  0
 17 28  1  0  0  0  0
 17 10  2  0  0  0  0
 18  1  1  0  0  0  0
 19  5  2  0  0  0  0
 19  6  1  0  0  0  0
 20 18  1  6  0  0  0
 20 13  1  0  0  0  0
 21 26  1  0  0  0  0
 22 10  1  0  0  0  0
 23 21  2  0  0  0  0
 23  4  1  0  0  0  0
 24 22  2  0  0  0  0
 25 17  1  0  0  0  0
 26  1  2  0  0  0  0
 27  2  1  0  0  0  0
 27  9  1  0  0  0  0
 28 29  1  0  0  0  0
 30 34  1  0  0  0  0
 31 32  1  0  0  0  0
 32 29  1  6  0  0  0
 33 30  1  0  0  0  0
 33 31  1  0  0  0  0
 34 32  1  0  0  0  0
M  END
>  <MODEL>
4

>  <REMARK>
 VINA RESULT:      -8.6      2.152      9.248
  Name = 
  3 active torsions:
  status: ('A' for Active; 'I' for Inactive)
    1  A    between atoms: C_17  and  O_28
    2  A    between atoms: O_28  and  C_29
    3  A    between atoms: C_29  and  C_32
                            x       y       z     vdW  Elec       q    Type
                         _______ _______ _______ _____ _____    ______ ____

>  <TORSDO>
F 3

$$$$
=
 OpenBabel11122414333D

 34 42  0  0  1  0  0  0  0  0999 V2000
  161.0280  206.5890  153.5460 C   0  0  0  0  0  0  0  0  0  0  0  0
  161.4060  204.2500  152.5330 C   0  0  0  0  0  3  0  0  0  0  0  0
  159.5900  213.1440  153.0110 C   0  0  1  0  0  0  0  0  0  0  0  0
  160.4840  208.8470  154.3070 C   0  0  0  0  0  0  0  0  0  0  0  0
  160.1700  210.6760  152.6030 C   0  0  0  0  0  0  0  0  0  0  0  0
  159.9570  212.7940  151.1240 C   0  0  1  0  0  3  0  0  0  0  0  0
  159.7740  213.9650  151.8570 O   0  0  0  0  0  0  0  0  0  0  0  0
  158.9640  212.2580  155.1480 C   0  0  0  0  0  3  0  0  0  0  0  0
  161.3460  206.0980  151.1300 C   0  0  0  0  0  0  0  0  0  0  0  0
  161.4960  206.0380  148.0790 C   0  0  0  0  0  3  0  0  0  0  0  0
  160.5070  209.7270  151.5920 N   0  0  0  0  0  2  0  0  0  0  0  0
  159.3910  210.9860  155.0450 C   0  0  0  0  0  3  0  0  0  0  0  0
  161.0770  207.5140  150.7200 C   0  0  1  0  0  3  0  0  0  0  0  0
  161.3600  203.8460  151.1320 N   0  0  0  0  0  0  0  0  0  0  0  0
  160.3650  210.3430  154.0660 C   0  0  1  0  0  3  0  0  0  0  0  0
  159.2160  213.3360  154.2310 N   0  0  0  0  0  2  0  0  0  0  0  0
  161.0850  205.0370  148.8690 C   0  0  0  0  0  0  0  0  0  0  0  0
  160.8520  207.9600  153.2660 C   0  0  0  0  0  0  0  0  0  0  0  0
  159.9410  211.9280  152.2570 C   0  0  0  0  0  0  0  0  0  0  0  0
  161.2270  208.4990  151.8960 C   0  0  2  0  0  3  0  0  0  0  0  0
  160.4810  206.9760  155.8710 C   0  0  0  0  0  3  0  0  0  0  0  0
  162.1590  207.2960  148.4710 C   0  0  0  0  0  3  0  0  0  0  0  0
  160.3180  208.3350  155.6060 C   0  0  0  0  0  3  0  0  0  0  0  0
  162.0120  207.9340  149.6330 C   0  0  0  0  0  3  0  0  0  0  0  0
  161.2970  205.0350  150.3450 C   0  0  0  0  0  0  0  0  0  0  0  0
  160.8310  206.1040  154.8430 C   0  0  0  0  0  3  0  0  0  0  0  0
  161.3940  205.7040  152.4860 N   0  0  0  0  0  0  0  0  0  0  0  0
  160.4590  203.9660  148.2140 O   0  0  0  0  0  0  0  0  0  0  0  0
  160.8890  202.6110  148.2800 C   0  0  0  0  0  2  0  0  0  0  0  0
  159.8730  201.0010  145.6300 O   0  0  0  0  0  0  0  0  0  0  0  0
  160.9610  203.0830  145.8530 C   0  0  0  0  0  2  0  0  0  0  0  0
  161.4600  202.1760  146.9400 C   0  0  2  0  0  3  0  0  0  0  0  0
  160.2260  202.1550  144.9160 C   0  0  0  0  0  2  0  0  0  0  0  0
  160.8990  200.8220  146.5690 C   0  0  0  0  0  2  0  0  0  0  0  0
  1 26  1  0  0  0  0
  3  7  1  1  0  0  0
  3 16  1  0  0  0  0
  4 23  2  0  0  0  0
  5 15  1  0  0  0  0
  6  7  1  1  0  0  0
  6 19  1  0  0  0  0
  6  3  1  0  0  0  0
  9 27  1  0  0  0  0
 10 22  1  0  0  0  0
 10 17  2  0  0  0  0
 11  5  1  0  0  0  0
 12  8  2  0  0  0  0
 13 24  1  6  0  0  0
 13  9  1  0  0  0  0
 13 20  1  0  0  0  0
 14  2  2  0  0  0  0
 15  4  1  0  0  0  0
 15 12  1  1  0  0  0
 16  8  1  0  0  0  0
 17 25  1  0  0  0  0
 18  1  2  0  0  0  0
 18  4  1  0  0  0  0
 19  5  2  0  0  0  0
 19  3  1  0  0  0  0
 20 11  1  6  0  0  0
 20 18  1  0  0  0  0
 22 24  2  0  0  0  0
 23 21  1  0  0  0  0
 25  9  2  0  0  0  0
 25 14  1  0  0  0  0
 26 21  2  0  0  0  0
 27  2  1  0  0  0  0
 27  1  1  0  0  0  0
 28 29  1  0  0  0  0
 28 17  1  0  0  0  0
 30 34  1  0  0  0  0
 31 32  1  0  0  0  0
 32 29  1  1  0  0  0
 33 30  1  0  0  0  0
 33 31  1  0  0  0  0
 34 32  1  0  0  0  0
M  END
>  <MODEL>
5

>  <REMARK>
 VINA RESULT:      -8.2      1.478      1.726
  Name = 
  3 active torsions:
  status: ('A' for Active; 'I' for Inactive)
    1  A    between atoms: C_17  and  O_28
    2  A    between atoms: O_28  and  C_29
    3  A    between atoms: C_29  and  C_32
                            x       y       z     vdW  Elec       q    Type
                         _______ _______ _______ _____ _____    ______ ____

>  <TORSDO>
F 3

$$$$
=
 OpenBabel11122414333D

 34 42  0  0  1  0  0  0  0  0999 V2000
  160.8130  208.3940  154.8590 C   0  0  0  0  0  0  0  0  0  0  0  0
  162.0320  206.1760  154.3730 C   0  0  0  0  0  3  0  0  0  0  0  0
  157.3820  213.8500  152.9150 C   0  0  1  0  0  0  0  0  0  0  0  0
  159.4900  210.4330  155.1110 C   0  0  0  0  0  0  0  0  0  0  0  0
  158.7710  211.6950  153.0530 C   0  0  0  0  0  0  0  0  0  0  0  0
  158.0310  213.2990  151.1560 C   0  0  1  0  0  3  0  0  0  0  0  0
  157.4040  214.4530  151.6210 O   0  0  0  0  0  0  0  0  0  0  0  0
  156.8660  213.2200  155.1690 C   0  0  0  0  0  3  0  0  0  0  0  0
  161.5150  207.5980  152.6120 C   0  0  0  0  0  0  0  0  0  0  0  0
  161.9830  207.0230  149.6480 C   0  0  0  0  0  3  0  0  0  0  0  0
  159.4990  210.7460  152.2750 N   0  0  0  0  0  2  0  0  0  0  0  0
  157.6920  212.1730  155.3490 C   0  0  0  0  0  3  0  0  0  0  0  0
  160.8430  208.7350  151.9060 C   0  0  1  0  0  3  0  0  0  0  0  0
  162.2610  205.5270  153.0870 N   0  0  0  0  0  0  0  0  0  0  0  0
  158.9160  211.7280  154.5590 C   0  0  1  0  0  3  0  0  0  0  0  0
  156.8450  214.1280  154.0550 N   0  0  0  0  0  2  0  0  0  0  0  0
  161.8430  206.1080  150.6170 C   0  0  0  0  0  0  0  0  0  0  0  0
  160.2300  209.5460  154.2930 C   0  0  0  0  0  0  0  0  0  0  0  0
  158.1840  212.7070  152.4440 C   0  0  0  0  0  0  0  0  0  0  0  0
  160.5450  209.9140  152.8530 C   0  0  2  0  0  3  0  0  0  0  0  0
  159.9390  209.0000  157.0320 C   0  0  0  0  0  3  0  0  0  0  0  0
  162.1580  208.4810  149.7880 C   0  0  0  0  0  3  0  0  0  0  0  0
  159.3700  210.1480  156.4830 C   0  0  0  0  0  3  0  0  0  0  0  0
  161.6960  209.2370  150.7850 C   0  0  0  0  0  3  0  0  0  0  0  0
  161.8940  206.4540  152.0660 C   0  0  0  0  0  0  0  0  0  0  0  0
  160.6560  208.1230  156.2220 C   0  0  0  0  0  3  0  0  0  0  0  0
  161.5520  207.5040  154.0220 N   0  0  0  0  0  0  0  0  0  0  0  0
  161.6690  204.7870  150.1810 O   0  0  0  0  0  0  0  0  0  0  0  0
  160.7710  204.3820  149.1540 C   0  0  0  0  0  2  0  0  0  0  0  0
  161.3420  201.1810  148.8830 O   0  0  0  0  0  0  0  0  0  0  0  0
  160.7460  202.4940  150.7510 C   0  0  0  0  0  2  0  0  0  0  0  0
  160.0860  203.0810  149.5380 C   0  0  2  0  0  3  0  0  0  0  0  0
  161.2360  201.1460  150.2810 C   0  0  0  0  0  2  0  0  0  0  0  0
  160.3240  202.0480  148.4600 C   0  0  0  0  0  2  0  0  0  0  0  0
  1 26  1  0  0  0  0
  3  7  1  1  0  0  0
  3 16  1  0  0  0  0
  4 23  2  0  0  0  0
  5 15  1  0  0  0  0
  6  7  1  1  0  0  0
  6 19  1  0  0  0  0
  6  3  1  0  0  0  0
  8 12  2  0  0  0  0
  9 27  1  0  0  0  0
 10 22  1  0  0  0  0
 10 17  2  0  0  0  0
 11  5  1  0  0  0  0
 13 24  1  6  0  0  0
 13  9  1  0  0  0  0
 13 20  1  0  0  0  0
 14  2  2  0  0  0  0
 15  4  1  0  0  0  0
 15 12  1  1  0  0  0
 16  8  1  0  0  0  0
 17 25  1  0  0  0  0
 18  1  2  0  0  0  0
 18  4  1  0  0  0  0
 19  3  1  0  0  0  0
 19  5  2  0  0  0  0
 20 11  1  6  0  0  0
 20 18  1  0  0  0  0
 22 24  2  0  0  0  0
 23 21  1  0  0  0  0
 25  9  2  0  0  0  0
 25 14  1  0  0  0  0
 26 21  2  0  0  0  0
 27  2  1  0  0  0  0
 27  1  1  0  0  0  0
 28 17  1  0  0  0  0
 29 28  1  0  0  0  0
 30 33  1  0  0  0  0
 32 29  1  6  0  0  0
 32 31  1  0  0  0  0
 33 31  1  0  0  0  0
 34 30  1  0  0  0  0
 34 32  1  0  0  0  0
M  END
>  <MODEL>
6

>  <REMARK>
 VINA RESULT:      -7.1      1.910      2.465
  Name = 
  3 active torsions:
  status: ('A' for Active; 'I' for Inactive)
    1  A    between atoms: C_17  and  O_28
    2  A    between atoms: O_28  and  C_29
    3  A    between atoms: C_29  and  C_32
                            x       y       z     vdW  Elec       q    Type
                         _______ _______ _______ _____ _____    ______ ____

>  <TORSDO>
F 3

$$$$
=
 OpenBabel11122414333D

 34 42  0  0  1  0  0  0  0  0999 V2000
  161.2380  207.2160  152.2320 C   0  0  0  0  0  0  0  0  0  0  0  0
  161.1550  204.6410  152.2520 C   0  0  0  0  0  3  0  0  0  0  0  0
  161.2380  213.1460  149.0460 C   0  0  1  0  0  0  0  0  0  0  0  0
  161.1520  209.6460  151.9930 C   0  0  0  0  0  0  0  0  0  0  0  0
  161.3000  210.6620  149.6930 C   0  0  0  0  0  0  0  0  0  0  0  0
  161.5980  212.0080  147.4980 C   0  0  1  0  0  3  0  0  0  0  0  0
  161.6360  213.3870  147.6960 O   0  0  0  0  0  0  0  0  0  0  0  0
  160.3530  213.3190  151.2670 C   0  0  0  0  0  3  0  0  0  0  0  0
  161.5420  205.7480  150.2500 C   0  0  0  0  0  0  0  0  0  0  0  0
  161.7980  204.4430  147.4990 C   0  0  0  0  0  3  0  0  0  0  0  0
  161.4700  209.3440  149.1740 N   0  0  0  0  0  2  0  0  0  0  0  0
  160.5060  212.0590  151.7140 C   0  0  0  0  0  3  0  0  0  0  0  0
  161.5940  206.9030  149.2970 C   0  0  1  0  0  3  0  0  0  0  0  0
  161.0810  203.7230  151.1200 N   0  0  0  0  0  0  0  0  0  0  0  0
  161.3610  210.9160  151.1830 C   0  0  1  0  0  3  0  0  0  0  0  0
  160.8630  213.8750  150.0430 N   0  0  0  0  0  2  0  0  0  0  0  0
  161.1540  203.9330  148.5580 C   0  0  0  0  0  0  0  0  0  0  0  0
  161.3670  208.3670  151.4280 C   0  0  0  0  0  0  0  0  0  0  0  0
  161.3540  211.6880  148.8660 C   0  0  0  0  0  0  0  0  0  0  0  0
  161.9010  208.2340  150.0120 C   0  0  2  0  0  3  0  0  0  0  0  0
  160.6920  208.5940  154.1450 C   0  0  0  0  0  3  0  0  0  0  0  0
  162.6960  205.6130  147.4540 C   0  0  0  0  0  3  0  0  0  0  0  0
  160.8300  209.7380  153.3600 C   0  0  0  0  0  3  0  0  0  0  0  0
  162.6400  206.6780  148.2530 C   0  0  0  0  0  3  0  0  0  0  0  0
  161.3020  204.4860  149.9350 C   0  0  0  0  0  0  0  0  0  0  0  0
  160.8920  207.3360  153.5820 C   0  0  0  0  0  3  0  0  0  0  0  0
  161.4510  205.9300  151.6480 N   0  0  0  0  0  0  0  0  0  0  0  0
  160.3440  202.8200  148.2950 O   0  0  0  0  0  0  0  0  0  0  0  0
  160.8200  201.4870  148.1420 C   0  0  0  0  0  2  0  0  0  0  0  0
  160.3820  199.4560  145.6260 O   0  0  0  0  0  0  0  0  0  0  0  0
  160.4190  201.8130  145.7240 C   0  0  0  0  0  2  0  0  0  0  0  0
  161.3850  201.2880  146.7450 C   0  0  2  0  0  3  0  0  0  0  0  0
  160.0950  200.6060  144.8770 C   0  0  0  0  0  2  0  0  0  0  0  0
  161.4680  199.8090  146.4400 C   0  0  0  0  0  2  0  0  0  0  0  0
  1 26  1  0  0  0  0
  3  7  1  1  0  0  0
  3 16  1  0  0  0  0
  4 23  2  0  0  0  0
  5 15  1  0  0  0  0
  6  7  1  1  0  0  0
  6 19  1  0  0  0  0
  6  3  1  0  0  0  0
  8 12  2  0  0  0  0
  9 27  1  0  0  0  0
 10 17  2  0  0  0  0
 11  5  1  0  0  0  0
 13 24  1  6  0  0  0
 13 20  1  0  0  0  0
 13  9  1  0  0  0  0
 14  2  2  0  0  0  0
 15 12  1  1  0  0  0
 15  4  1  0  0  0  0
 16  8  1  0  0  0  0
 17 25  1  0  0  0  0
 18  4  1  0  0  0  0
 18  1  2  0  0  0  0
 19  3  1  0  0  0  0
 19  5  2  0  0  0  0
 20 11  1  6  0  0  0
 20 18  1  0  0  0  0
 22 10  1  0  0  0  0
 22 24  2  0  0  0  0
 23 21  1  0  0  0  0
 25  9  2  0  0  0  0
 25 14  1  0  0  0  0
 26 21  2  0  0  0  0
 27  1  1  0  0  0  0
 27  2  1  0  0  0  0
 28 17  1  0  0  0  0
 29 28  1  0  0  0  0
 30 34  1  0  0  0  0
 31 32  1  0  0  0  0
 32 29  1  1  0  0  0
 33 30  1  0  0  0  0
 33 31  1  0  0  0  0
 34 32  1  0  0  0  0
M  END
>  <MODEL>
7

>  <REMARK>
 VINA RESULT:      -6.8      2.618      3.758
  Name = 
  3 active torsions:
  status: ('A' for Active; 'I' for Inactive)
    1  A    between atoms: C_17  and  O_28
    2  A    between atoms: O_28  and  C_29
    3  A    between atoms: C_29  and  C_32
                            x       y       z     vdW  Elec       q    Type
                         _______ _______ _______ _____ _____    ______ ____

>  <TORSDO>
F 3

$$$$
