=
 OpenBabel11122413203D

 31 35  0  0  0  0  0  0  0  0999 V2000
  161.0750  201.7960  150.4430 C   0  0  0  0  0  0  0  0  0  0  0  0
  161.1690  205.4790  149.6650 C   0  0  0  0  0  0  0  0  0  0  0  0
  161.2800  205.6110  148.2500 C   0  0  0  0  0  0  0  0  0  0  0  0
  160.7900  206.9190  154.7100 O   0  0  0  0  0  0  0  0  0  0  0  0
  160.8540  207.9580  154.0020 C   0  0  0  0  0  0  0  0  0  0  0  0
  161.4470  204.6840  145.9960 C   0  0  0  0  0  0  0  0  0  0  0  0
  161.1040  204.2370  150.3650 C   0  0  0  0  0  0  0  0  0  0  0  0
  160.9670  201.8290  151.8320 C   0  0  0  0  0  3  0  0  0  0  0  0
  161.3380  204.5100  147.3770 C   0  0  0  0  0  3  0  0  0  0  0  0
  161.0120  206.6260  151.8230 C   0  0  0  0  0  0  0  0  0  0  0  0
  161.1160  200.5790  149.7770 O   0  0  0  0  0  1  0  0  0  0  0  0
  161.2830  207.9970  148.4860 N   0  0  0  0  0  0  0  0  0  0  0  0
  161.5160  203.2900  144.9420 Cl  0  0  0  0  0  0  0  0  0  0  0  0
  160.9520  205.4250  152.4530 N   0  0  0  0  0  0  0  0  0  0  0  0
  161.1210  206.6760  150.4270 C   0  0  0  0  0  0  0  0  0  0  0  0
  160.9640  207.8470  152.5750 N   0  0  0  0  0  2  0  0  0  0  0  0
  161.1420  202.9880  149.7190 C   0  0  0  0  0  3  0  0  0  0  0  0
  161.5000  205.9700  145.4580 C   0  0  0  0  0  3  0  0  0  0  0  0
  160.9940  204.2510  151.7790 C   0  0  0  0  0  0  0  0  0  0  0  0
  160.9260  203.0530  152.4980 C   0  0  0  0  0  3  0  0  0  0  0  0
  161.1800  207.8840  149.8070 N   0  0  0  0  0  0  0  0  0  0  0  0
  161.3360  206.9070  147.6850 C   0  0  0  0  0  0  0  0  0  0  0  0
  161.4450  207.0800  146.3020 C   0  0  0  0  0  3  0  0  0  0  0  0
  160.6770  211.9190  155.6690 C   0  0  0  0  0  0  0  0  0  0  0  0
  160.2450  210.3540  153.8830 C   0  0  0  0  0  3  0  0  0  0  0  0
  162.0720  208.3890  156.9620 Cl  0  0  0  0  0  0  0  0  0  0  0  0
  160.6080  213.1750  156.1710 F   0  0  0  0  0  0  0  0  0  0  0  0
  160.1740  211.6480  154.3980 C   0  0  0  0  0  3  0  0  0  0  0  0
  161.3280  209.5930  155.9190 C   0  0  0  0  0  0  0  0  0  0  0  0
  160.8170  209.3060  154.6240 C   0  0  0  0  0  0  0  0  0  0  0  0
  161.2500  210.8960  156.4230 C   0  0  0  0  0  3  0  0  0  0  0  0
  1  8  1  0  0  0  0
  2  7  1  0  0  0  0
  2 15  1  0  0  0  0
  3  2  2  0  0  0  0
  5 30  1  0  0  0  0
  5  4  2  0  0  0  0
  6  9  2  0  0  0  0
  7 19  2  0  0  0  0
  8 20  2  0  0  0  0
  9  3  1  0  0  0  0
 10 14  2  0  0  0  0
 10 16  1  0  0  0  0
 11  1  1  0  0  0  0
 12 21  1  0  0  0  0
 13  6  1  0  0  0  0
 15 10  1  0  0  0  0
 16  5  1  0  0  0  0
 17  7  1  0  0  0  0
 17  1  2  0  0  0  0
 18  6  1  0  0  0  0
 18 23  2  0  0  0  0
 19 14  1  0  0  0  0
 19 20  1  0  0  0  0
 21 15  2  0  0  0  0
 22  3  1  0  0  0  0
 22 12  2  0  0  0  0
 23 22  1  0  0  0  0
 24 27  1  0  0  0  0
 24 31  1  0  0  0  0
 25 28  1  0  0  0  0
 25 30  2  0  0  0  0
 28 24  2  0  0  0  0
 29 31  2  0  0  0  0
 29 26  1  0  0  0  0
 30 29  1  0  0  0  0
M  END
>  <MODEL>
1

>  <REMARK>
 VINA RESULT:      -9.4      0.000      0.000
  Name = 
  1 active torsions:
  status: ('A' for Active; 'I' for Inactive)
    1  A    between atoms: C_5  and  C_30
                            x       y       z     vdW  Elec       q    Type
                         _______ _______ _______ _____ _____    ______ ____

>  <TORSDO>
F 1

$$$$
=
 OpenBabel11122413203D

 31 35  0  0  0  0  0  0  0  0999 V2000
  160.9740  201.7480  150.4030 C   0  0  0  0  0  0  0  0  0  0  0  0
  161.1780  205.4480  149.7390 C   0  0  0  0  0  0  0  0  0  0  0  0
  161.2810  205.6200  148.3280 C   0  0  0  0  0  0  0  0  0  0  0  0
  160.8880  206.7410  154.8300 O   0  0  0  0  0  0  0  0  0  0  0  0
  160.9800  207.7990  154.1540 C   0  0  0  0  0  0  0  0  0  0  0  0
  161.4000  204.7600  146.0450 C   0  0  0  0  0  0  0  0  0  0  0  0
  161.0790  204.1880  150.4020 C   0  0  0  0  0  0  0  0  0  0  0  0
  160.8780  201.7400  151.7940 C   0  0  0  0  0  3  0  0  0  0  0  0
  161.2970  204.5460  147.4210 C   0  0  0  0  0  3  0  0  0  0  0  0
  161.0760  206.5310  151.9330 C   0  0  0  0  0  0  0  0  0  0  0  0
  160.9700  200.5510  149.7000 O   0  0  0  0  0  1  0  0  0  0  0  0
  161.3630  207.9970  148.6380 N   0  0  0  0  0  0  0  0  0  0  0  0
  161.4150  203.3980  144.9470 Cl  0  0  0  0  0  0  0  0  0  0  0  0
  160.9830  205.3140  152.5260 N   0  0  0  0  0  0  0  0  0  0  0  0
  161.1750  206.6220  150.5380 C   0  0  0  0  0  0  0  0  0  0  0  0
  161.0730  207.7290  152.7230 N   0  0  0  0  0  2  0  0  0  0  0  0
  161.0730  202.9590  149.7170 C   0  0  0  0  0  3  0  0  0  0  0  0
  161.4890  206.0600  145.5460 C   0  0  0  0  0  3  0  0  0  0  0  0
  160.9820  204.1610  151.8160 C   0  0  0  0  0  0  0  0  0  0  0  0
  160.8820  202.9440  152.4980 C   0  0  0  0  0  3  0  0  0  0  0  0
  161.2670  207.8460  149.9560 N   0  0  0  0  0  0  0  0  0  0  0  0
  161.3740  206.9320  147.8030 C   0  0  0  0  0  0  0  0  0  0  0  0
  161.4770  207.1440  146.4250 C   0  0  0  0  0  3  0  0  0  0  0  0
  161.0750  211.5760  156.2090 C   0  0  0  0  0  0  0  0  0  0  0  0
  161.4970  209.2010  156.1270 C   0  0  0  0  0  3  0  0  0  0  0  0
  159.8590  210.3850  152.5780 Cl  0  0  0  0  0  0  0  0  0  0  0  0
  161.1170  212.7530  156.8780 F   0  0  0  0  0  0  0  0  0  0  0  0
  161.5400  210.4120  156.8180 C   0  0  0  0  0  3  0  0  0  0  0  0
  160.5190  210.3200  154.2070 C   0  0  0  0  0  0  0  0  0  0  0  0
  160.9910  209.1280  154.8180 C   0  0  0  0  0  0  0  0  0  0  0  0
  160.5680  211.5280  154.9110 C   0  0  0  0  0  3  0  0  0  0  0  0
  1  8  1  0  0  0  0
  2  7  1  0  0  0  0
  2 15  1  0  0  0  0
  3  2  2  0  0  0  0
  5 30  1  0  0  0  0
  5  4  2  0  0  0  0
  6  9  2  0  0  0  0
  7 19  2  0  0  0  0
  8 20  2  0  0  0  0
  9  3  1  0  0  0  0
 10 14  2  0  0  0  0
 10 16  1  0  0  0  0
 11  1  1  0  0  0  0
 12 21  1  0  0  0  0
 13  6  1  0  0  0  0
 15 10  1  0  0  0  0
 16  5  1  0  0  0  0
 17  7  1  0  0  0  0
 17  1  2  0  0  0  0
 18  6  1  0  0  0  0
 18 23  2  0  0  0  0
 19 20  1  0  0  0  0
 19 14  1  0  0  0  0
 21 15  2  0  0  0  0
 22  3  1  0  0  0  0
 22 12  2  0  0  0  0
 23 22  1  0  0  0  0
 24 28  1  0  0  0  0
 24 27  1  0  0  0  0
 25 28  2  0  0  0  0
 26 29  1  0  0  0  0
 29 30  2  0  0  0  0
 29 31  1  0  0  0  0
 30 25  1  0  0  0  0
 31 24  2  0  0  0  0
M  END
>  <MODEL>
2

>  <REMARK>
 VINA RESULT:      -9.4      1.008      1.328
  Name = 
  1 active torsions:
  status: ('A' for Active; 'I' for Inactive)
    1  A    between atoms: C_5  and  C_30
                            x       y       z     vdW  Elec       q    Type
                         _______ _______ _______ _____ _____    ______ ____

>  <TORSDO>
F 1

$$$$
=
 OpenBabel11122413203D

 31 35  0  0  0  0  0  0  0  0999 V2000
  161.2050  205.4600  145.6890 C   0  0  0  0  0  0  0  0  0  0  0  0
  161.1600  204.4390  149.3130 C   0  0  0  0  0  0  0  0  0  0  0  0
  161.1590  203.0150  149.3520 C   0  0  0  0  0  0  0  0  0  0  0  0
  161.1430  209.3950  151.0780 O   0  0  0  0  0  0  0  0  0  0  0  0
  161.1300  208.6180  152.0690 C   0  0  0  0  0  0  0  0  0  0  0  0
  161.1690  200.8190  148.2810 C   0  0  0  0  0  0  0  0  0  0  0  0
  161.1750  205.2220  148.1190 C   0  0  0  0  0  0  0  0  0  0  0  0
  161.2050  206.8480  145.8120 C   0  0  0  0  0  3  0  0  0  0  0  0
  161.1720  202.2130  148.1960 C   0  0  0  0  0  3  0  0  0  0  0  0
  161.1460  206.5240  150.5970 C   0  0  0  0  0  0  0  0  0  0  0  0
  161.2190  204.8740  144.4310 O   0  0  0  0  0  1  0  0  0  0  0  0
  161.1290  203.0940  151.7480 N   0  0  0  0  0  0  0  0  0  0  0  0
  161.1870  199.8560  146.8200 Cl  0  0  0  0  0  0  0  0  0  0  0  0
  161.1610  207.2330  149.4410 N   0  0  0  0  0  0  0  0  0  0  0  0
  161.1460  205.1230  150.5570 C   0  0  0  0  0  0  0  0  0  0  0  0
  161.1320  207.1970  151.8650 N   0  0  0  0  0  2  0  0  0  0  0  0
  161.1900  204.6570  146.8310 C   0  0  0  0  0  3  0  0  0  0  0  0
  161.1540  200.1960  149.5280 C   0  0  0  0  0  3  0  0  0  0  0  0
  161.1750  206.6360  148.2250 C   0  0  0  0  0  0  0  0  0  0  0  0
  161.1900  207.4350  147.0770 C   0  0  0  0  0  3  0  0  0  0  0  0
  161.1300  204.4240  151.7210 N   0  0  0  0  0  0  0  0  0  0  0  0
  161.1420  202.3640  150.6090 C   0  0  0  0  0  0  0  0  0  0  0  0
  161.1400  200.9680  150.6910 C   0  0  0  0  0  3  0  0  0  0  0  0
  161.1300  210.3100  156.0240 C   0  0  0  0  0  0  0  0  0  0  0  0
  161.4290  210.5100  153.6370 C   0  0  0  0  0  3  0  0  0  0  0  0
  160.3920  206.6620  154.5300 Cl  0  0  0  0  0  0  0  0  0  0  0  0
  161.1360  210.8670  157.2580 F   0  0  0  0  0  0  0  0  0  0  0  0
  161.4370  211.0850  154.9070 C   0  0  0  0  0  3  0  0  0  0  0  0
  160.8040  208.3700  154.5990 C   0  0  0  0  0  0  0  0  0  0  0  0
  161.1150  209.1520  153.4550 C   0  0  0  0  0  0  0  0  0  0  0  0
  160.8150  208.9600  155.8680 C   0  0  0  0  0  3  0  0  0  0  0  0
  1  8  2  0  0  0  0
  1 17  1  0  0  0  0
  2  3  2  0  0  0  0
  2 15  1  0  0  0  0
  3 22  1  0  0  0  0
  4  5  2  0  0  0  0
  5 30  1  0  0  0  0
  6 18  1  0  0  0  0
  7 19  1  0  0  0  0
  7  2  1  0  0  0  0
  8 20  1  0  0  0  0
  9  6  2  0  0  0  0
  9  3  1  0  0  0  0
 10 16  1  0  0  0  0
 11  1  1  0  0  0  0
 13  6  1  0  0  0  0
 14 10  2  0  0  0  0
 15 10  1  0  0  0  0
 15 21  2  0  0  0  0
 16  5  1  0  0  0  0
 17  7  2  0  0  0  0
 18 23  2  0  0  0  0
 19 14  1  0  0  0  0
 20 19  2  0  0  0  0
 21 12  1  0  0  0  0
 22 23  1  0  0  0  0
 22 12  2  0  0  0  0
 24 27  1  0  0  0  0
 25 28  1  0  0  0  0
 26 29  1  0  0  0  0
 28 24  2  0  0  0  0
 29 31  2  0  0  0  0
 30 25  2  0  0  0  0
 30 29  1  0  0  0  0
 31 24  1  0  0  0  0
M  END
>  <MODEL>
3

>  <REMARK>
 VINA RESULT:      -9.2      2.107      4.178
  Name = 
  1 active torsions:
  status: ('A' for Active; 'I' for Inactive)
    1  A    between atoms: C_5  and  C_30
                            x       y       z     vdW  Elec       q    Type
                         _______ _______ _______ _____ _____    ______ ____

>  <TORSDO>
F 1

$$$$
=
 OpenBabel11122413203D

 31 35  0  0  0  0  0  0  0  0999 V2000
  161.1880  205.3660  145.6680 C   0  0  0  0  0  0  0  0  0  0  0  0
  161.0960  204.5580  149.3450 C   0  0  0  0  0  0  0  0  0  0  0  0
  161.1040  203.1380  149.4670 C   0  0  0  0  0  0  0  0  0  0  0  0
  161.0210  209.6070  150.8180 O   0  0  0  0  0  0  0  0  0  0  0  0
  160.9980  208.8890  151.8520 C   0  0  0  0  0  0  0  0  0  0  0  0
  161.1450  200.8840  148.5260 C   0  0  0  0  0  0  0  0  0  0  0  0
  161.1240  205.2700  148.1080 C   0  0  0  0  0  0  0  0  0  0  0  0
  161.1770  206.7590  145.7100 C   0  0  0  0  0  3  0  0  0  0  0  0
  161.1390  202.2710  148.3600 C   0  0  0  0  0  3  0  0  0  0  0  0
  161.0490  206.7140  150.5050 C   0  0  0  0  0  0  0  0  0  0  0  0
  161.2250  204.7080  144.4470 O   0  0  0  0  0  1  0  0  0  0  0  0
  161.0380  203.3560  151.8540 N   0  0  0  0  0  0  0  0  0  0  0  0
  161.1900  199.8370  147.1240 Cl  0  0  0  0  0  0  0  0  0  0  0  0
  161.0770  207.3540  149.3100 N   0  0  0  0  0  0  0  0  0  0  0  0
  161.0590  205.3130  150.5470 C   0  0  0  0  0  0  0  0  0  0  0  0
  161.0120  207.4590  151.7310 N   0  0  0  0  0  2  0  0  0  0  0  0
  161.1620  204.6310  146.8550 C   0  0  0  0  0  3  0  0  0  0  0  0
  161.1150  200.3350  149.8070 C   0  0  0  0  0  3  0  0  0  0  0  0
  161.1130  206.6870  148.1320 C   0  0  0  0  0  0  0  0  0  0  0  0
  161.1400  207.4180  146.9390 C   0  0  0  0  0  3  0  0  0  0  0  0
  161.0310  204.6820  151.7490 N   0  0  0  0  0  0  0  0  0  0  0  0
  161.0730  202.5620  150.7590 C   0  0  0  0  0  0  0  0  0  0  0  0
  161.0790  201.1720  150.9220 C   0  0  0  0  0  3  0  0  0  0  0  0
  160.9340  210.5250  155.8300 C   0  0  0  0  0  0  0  0  0  0  0  0
  161.3410  208.7050  154.2970 C   0  0  0  0  0  3  0  0  0  0  0  0
  160.0520  211.9580  152.1890 Cl  0  0  0  0  0  0  0  0  0  0  0  0
  160.9230  211.0160  157.0920 F   0  0  0  0  0  0  0  0  0  0  0  0
  161.3290  209.2090  155.5970 C   0  0  0  0  0  3  0  0  0  0  0  0
  160.5560  210.8420  153.4520 C   0  0  0  0  0  0  0  0  0  0  0  0
  160.9590  209.5030  153.2040 C   0  0  0  0  0  0  0  0  0  0  0  0
  160.5500  211.3350  154.7610 C   0  0  0  0  0  3  0  0  0  0  0  0
  1  8  2  0  0  0  0
  1 17  1  0  0  0  0
  2  3  2  0  0  0  0
  2 15  1  0  0  0  0
  3 22  1  0  0  0  0
  4  5  2  0  0  0  0
  5 30  1  0  0  0  0
  6 18  1  0  0  0  0
  7 19  1  0  0  0  0
  7  2  1  0  0  0  0
  8 20  1  0  0  0  0
  9  6  2  0  0  0  0
  9  3  1  0  0  0  0
 10 15  1  0  0  0  0
 10 16  1  0  0  0  0
 11  1  1  0  0  0  0
 13  6  1  0  0  0  0
 14 10  2  0  0  0  0
 15 21  2  0  0  0  0
 16  5  1  0  0  0  0
 17  7  2  0  0  0  0
 18 23  2  0  0  0  0
 19 14  1  0  0  0  0
 20 19  2  0  0  0  0
 21 12  1  0  0  0  0
 22 23  1  0  0  0  0
 22 12  2  0  0  0  0
 24 27  1  0  0  0  0
 25 28  2  0  0  0  0
 26 29  1  0  0  0  0
 28 24  1  0  0  0  0
 29 31  1  0  0  0  0
 30 29  2  0  0  0  0
 30 25  1  0  0  0  0
 31 24  2  0  0  0  0
M  END
>  <MODEL>
4

>  <REMARK>
 VINA RESULT:      -8.8      2.281      4.340
  Name = 
  1 active torsions:
  status: ('A' for Active; 'I' for Inactive)
    1  A    between atoms: C_5  and  C_30
                            x       y       z     vdW  Elec       q    Type
                         _______ _______ _______ _____ _____    ______ ____

>  <TORSDO>
F 1

$$$$
=
 OpenBabel11122413203D

 31 35  0  0  0  0  0  0  0  0999 V2000
  161.8280  210.9920  150.0640 C   0  0  0  0  0  0  0  0  0  0  0  0
  161.3070  207.5320  151.4540 C   0  0  0  0  0  0  0  0  0  0  0  0
  161.1550  207.6610  152.8650 C   0  0  0  0  0  0  0  0  0  0  0  0
  161.6140  205.2060  146.7460 O   0  0  0  0  0  0  0  0  0  0  0  0
  161.4210  204.3180  147.6180 C   0  0  0  0  0  0  0  0  0  0  0  0
  161.0530  208.9770  154.9210 C   0  0  0  0  0  0  0  0  0  0  0  0
  161.5250  208.6190  150.5550 C   0  0  0  0  0  0  0  0  0  0  0  0
  161.9560  210.7080  148.7050 C   0  0  0  0  0  3  0  0  0  0  0  0
  161.2060  208.8960  153.5350 C   0  0  0  0  0  3  0  0  0  0  0  0
  161.3740  206.0180  149.5300 C   0  0  0  0  0  0  0  0  0  0  0  0
  161.9120  212.3040  150.5100 O   0  0  0  0  0  1  0  0  0  0  0  0
  160.8890  205.2850  153.0400 N   0  0  0  0  0  0  0  0  0  0  0  0
  161.1210  210.5330  155.7180 Cl  0  0  0  0  0  0  0  0  0  0  0  0
  161.5800  207.0780  148.7080 N   0  0  0  0  0  0  0  0  0  0  0  0
  161.2350  206.2230  150.9100 C   0  0  0  0  0  0  0  0  0  0  0  0
  161.2970  204.6870  149.0000 N   0  0  0  0  0  2  0  0  0  0  0  0
  161.6140  209.9580  150.9770 C   0  0  0  0  0  3  0  0  0  0  0  0
  160.8450  207.8180  155.6680 C   0  0  0  0  0  3  0  0  0  0  0  0
  161.6580  208.3480  149.1700 C   0  0  0  0  0  0  0  0  0  0  0  0
  161.8710  209.3890  148.2590 C   0  0  0  0  0  3  0  0  0  0  0  0
  161.0300  205.1550  151.7240 N   0  0  0  0  0  0  0  0  0  0  0  0
  160.9450  206.4960  153.6400 C   0  0  0  0  0  0  0  0  0  0  0  0
  160.7920  206.5780  155.0280 C   0  0  0  0  0  3  0  0  0  0  0  0
  161.1700  200.1320  146.6610 C   0  0  0  0  0  0  0  0  0  0  0  0
  161.6530  201.9250  148.2040 C   0  0  0  0  0  3  0  0  0  0  0  0
  160.4470  203.5220  144.6440 Cl  0  0  0  0  0  0  0  0  0  0  0  0
  161.0990  198.8080  146.3860 F   0  0  0  0  0  0  0  0  0  0  0  0
  161.5810  200.5610  147.9220 C   0  0  0  0  0  3  0  0  0  0  0  0
  160.8990  202.4400  145.9540 C   0  0  0  0  0  0  0  0  0  0  0  0
  161.3160  202.8870  147.2360 C   0  0  0  0  0  0  0  0  0  0  0  0
  160.8310  201.0690  145.6850 C   0  0  0  0  0  3  0  0  0  0  0  0
  1 11  1  0  0  0  0
  1 17  1  0  0  0  0
  2  3  1  0  0  0  0
  3  9  2  0  0  0  0
  3 22  1  0  0  0  0
  4  5  2  0  0  0  0
  5 16  1  0  0  0  0
  6 18  2  0  0  0  0
  6 13  1  0  0  0  0
  7 17  2  0  0  0  0
  7  2  1  0  0  0  0
  8  1  2  0  0  0  0
  9  6  1  0  0  0  0
 10 15  1  0  0  0  0
 12 22  1  0  0  0  0
 14 19  1  0  0  0  0
 14 10  2  0  0  0  0
 15  2  2  0  0  0  0
 15 21  1  0  0  0  0
 16 10  1  0  0  0  0
 19  7  1  0  0  0  0
 20  8  1  0  0  0  0
 20 19  2  0  0  0  0
 21 12  2  0  0  0  0
 22 23  2  0  0  0  0
 23 18  1  0  0  0  0
 24 28  1  0  0  0  0
 26 29  1  0  0  0  0
 27 24  1  0  0  0  0
 28 25  2  0  0  0  0
 29 30  2  0  0  0  0
 30  5  1  0  0  0  0
 30 25  1  0  0  0  0
 31 29  1  0  0  0  0
 31 24  2  0  0  0  0
M  END
>  <MODEL>
5

>  <REMARK>
 VINA RESULT:      -8.7      4.114      9.303
  Name = 
  1 active torsions:
  status: ('A' for Active; 'I' for Inactive)
    1  A    between atoms: C_5  and  C_30
                            x       y       z     vdW  Elec       q    Type
                         _______ _______ _______ _____ _____    ______ ____

>  <TORSDO>
F 1

$$$$
=
 OpenBabel11122413203D

 31 35  0  0  0  0  0  0  0  0999 V2000
  161.8350  211.1390  149.9810 C   0  0  0  0  0  0  0  0  0  0  0  0
  161.3250  207.7440  151.5270 C   0  0  0  0  0  0  0  0  0  0  0  0
  161.1810  207.9350  152.9310 C   0  0  0  0  0  0  0  0  0  0  0  0
  161.6070  205.2110  146.9250 O   0  0  0  0  0  0  0  0  0  0  0  0
  161.4190  204.3630  147.8360 C   0  0  0  0  0  0  0  0  0  0  0  0
  161.0900  209.3410  154.9270 C   0  0  0  0  0  0  0  0  0  0  0  0
  161.5370  208.7900  150.5790 C   0  0  0  0  0  0  0  0  0  0  0  0
  161.9560  210.7940  148.6350 C   0  0  0  0  0  3  0  0  0  0  0  0
  161.2350  209.1990  153.5450 C   0  0  0  0  0  3  0  0  0  0  0  0
  161.3820  206.1460  149.6720 C   0  0  0  0  0  0  0  0  0  0  0  0
  161.9210  212.4690  150.3670 O   0  0  0  0  0  1  0  0  0  0  0  0
  160.9180  205.5690  153.2130 N   0  0  0  0  0  0  0  0  0  0  0  0
  161.1610  210.9310  155.6540 Cl  0  0  0  0  0  0  0  0  0  0  0  0
  161.5820  207.1680  148.8020 N   0  0  0  0  0  0  0  0  0  0  0  0
  161.2500  206.4120  151.0410 C   0  0  0  0  0  0  0  0  0  0  0  0
  161.3030  204.7930  149.2010 N   0  0  0  0  0  2  0  0  0  0  0  0
  161.6270  210.1460  150.9400 C   0  0  0  0  0  3  0  0  0  0  0  0
  160.8870  208.2160  155.7260 C   0  0  0  0  0  3  0  0  0  0  0  0
  161.6620  208.4580  149.2060 C   0  0  0  0  0  0  0  0  0  0  0  0
  161.8690  209.4570  148.2490 C   0  0  0  0  0  3  0  0  0  0  0  0
  161.0510  205.3800  151.9030 N   0  0  0  0  0  0  0  0  0  0  0  0
  160.9760  206.8050  153.7590 C   0  0  0  0  0  0  0  0  0  0  0  0
  160.8310  206.9500  155.1430 C   0  0  0  0  0  3  0  0  0  0  0  0
  161.1020  200.2100  146.7610 C   0  0  0  0  0  0  0  0  0  0  0  0
  161.2060  202.5480  146.1670 C   0  0  0  0  0  3  0  0  0  0  0  0
  161.4370  202.1950  150.2300 Cl  0  0  0  0  0  0  0  0  0  0  0  0
  161.0010  198.9100  146.3960 F   0  0  0  0  0  0  0  0  0  0  0  0
  161.1020  201.2090  145.7890 C   0  0  0  0  0  3  0  0  0  0  0  0
  161.3110  201.8900  148.5020 C   0  0  0  0  0  0  0  0  0  0  0  0
  161.3130  202.9150  147.5190 C   0  0  0  0  0  0  0  0  0  0  0  0
  161.2060  200.5510  148.1090 C   0  0  0  0  0  3  0  0  0  0  0  0
  1 11  1  0  0  0  0
  1 17  1  0  0  0  0
  2  3  1  0  0  0  0
  3  9  2  0  0  0  0
  3 22  1  0  0  0  0
  4  5  2  0  0  0  0
  5 16  1  0  0  0  0
  6 13  1  0  0  0  0
  6 18  2  0  0  0  0
  7 17  2  0  0  0  0
  7  2  1  0  0  0  0
  8  1  2  0  0  0  0
  9  6  1  0  0  0  0
 10 15  1  0  0  0  0
 12 22  1  0  0  0  0
 14 19  1  0  0  0  0
 14 10  2  0  0  0  0
 15  2  2  0  0  0  0
 15 21  1  0  0  0  0
 16 10  1  0  0  0  0
 19  7  1  0  0  0  0
 20  8  1  0  0  0  0
 20 19  2  0  0  0  0
 21 12  2  0  0  0  0
 22 23  2  0  0  0  0
 23 18  1  0  0  0  0
 24 31  1  0  0  0  0
 25 30  2  0  0  0  0
 27 24  1  0  0  0  0
 28 25  1  0  0  0  0
 28 24  2  0  0  0  0
 29 26  1  0  0  0  0
 30  5  1  0  0  0  0
 30 29  1  0  0  0  0
 31 29  2  0  0  0  0
M  END
>  <MODEL>
6

>  <REMARK>
 VINA RESULT:      -8.4      4.206      9.092
  Name = 
  1 active torsions:
  status: ('A' for Active; 'I' for Inactive)
    1  A    between atoms: C_5  and  C_30
                            x       y       z     vdW  Elec       q    Type
                         _______ _______ _______ _____ _____    ______ ____

>  <TORSDO>
F 1

$$$$
