=
 OpenBabel11122414093D

 28 32  0  0  1  0  0  0  0  0999 V2000
  159.5670  211.0530  139.5710 C   0  0  0  0  0  0  0  0  0  0  0  0
  159.6300  214.0630  143.7530 O   0  0  0  0  0  1  0  0  0  0  0  0
  162.6630  214.0580  138.0870 O   0  0  0  0  0  0  0  0  0  0  0  0
  161.7740  209.3560  139.8620 C   0  0  0  0  0  3  0  0  0  0  0  0
  162.9350  214.1570  140.4610 C   0  0  0  0  0  0  0  0  0  0  0  0
  158.5020  211.9390  139.4020 O   0  0  0  0  0  0  0  0  0  0  0  0
  159.3260  211.8500  144.5410 C   0  0  0  0  0  1  0  0  0  0  0  0
  160.3240  212.8880  144.0700 C   0  0  1  0  0  0  0  0  0  0  0  0
  162.3550  214.1320  144.7440 C   0  0  1  0  0  3  0  0  0  0  0  0
  161.0870  212.3270  142.8370 C   0  0  2  0  0  3  0  0  0  0  0  0
  160.3200  212.6540  137.0770 F   0  0  0  0  0  0  0  0  0  0  0  0
  160.6390  213.8060  140.9910 C   0  0  1  0  0  3  0  0  0  0  0  0
  163.1640  213.4450  143.6580 C   0  0  0  0  0  2  0  0  0  0  0  0
  161.2790  213.1770  145.2150 C   0  0  0  0  0  2  0  0  0  0  0  0
  159.2820  213.3960  137.6110 C   0  0  2  0  0  3  0  0  0  0  0  0
  160.4610  211.2560  140.6340 C   0  0  0  0  0  0  0  0  0  0  0  0
  162.1840  213.9940  139.2490 C   0  0  0  0  0  0  0  0  0  0  0  0
  163.1920  214.4530  145.8120 O   0  0  0  0  0  1  0  0  0  0  0  0
  159.7810  214.3960  138.6600 C   0  0  0  0  0  2  0  0  0  0  0  0
  161.5730  210.4040  140.7630 C   0  0  0  0  0  3  0  0  0  0  0  0
  159.7740  210.0020  138.6660 C   0  0  0  0  0  3  0  0  0  0  0  0
  160.8730  209.1530  138.8150 C   0  0  0  0  0  3  0  0  0  0  0  0
  158.1670  212.4860  138.1340 C   0  0  0  0  0  2  0  0  0  0  0  0
  162.0120  214.1330  141.6290 C   0  0  1  0  0  3  0  0  0  0  0  0
  160.8050  213.8220  139.5300 N   0  0  0  0  0  0  0  0  0  0  0  0
  162.3460  213.0200  142.5130 N   0  0  2  0  0  0  0  0  0  0  0  0
  164.1800  214.3360  140.5250 O   0  0  0  0  0  0  0  0  0  0  0  0
  160.2420  212.4320  141.5690 C   0  0  1  0  0  3  0  0  0  0  0  0
  1 16  1  0  0  0  0
  2  8  1  0  0  0  0
  3 17  2  0  0  0  0
  4 20  1  0  0  0  0
  5 27  2  0  0  0  0
  5 24  1  0  0  0  0
  6  1  1  0  0  0  0
  8  7  1  1  0  0  0
  8 14  1  0  0  0  0
  9 14  1  0  0  0  0
  9 18  1  1  0  0  0
 10  8  1  0  0  0  0
 11 15  1  0  0  0  0
 12 28  1  0  0  0  0
 12 24  1  0  0  0  0
 13  9  1  0  0  0  0
 15 23  1  0  0  0  0
 15 19  1  0  0  0  0
 16 20  2  0  0  0  0
 16 28  1  0  0  0  0
 17 25  1  0  0  0  0
 17  5  1  0  0  0  0
 19 25  1  0  0  0  0
 21 22  1  0  0  0  0
 21  1  2  0  0  0  0
 22  4  2  0  0  0  0
 23  6  1  0  0  0  0
 24 26  1  0  0  0  0
 25 12  1  0  0  0  0
 26 10  1  0  0  0  0
 26 13  1  0  0  0  0
 28 10  1  0  0  0  0
M  END
>  <MODEL>
1

>  <REMARK>
 VINA RESULT:      -4.7      0.000      0.000
  Name = 
  0 active torsions:
  status: ('A' for Active; 'I' for Inactive)
                            x       y       z     vdW  Elec       q    Type
                         _______ _______ _______ _____ _____    ______ ____

>  <TORSDO>
F 0

$$$$
=
 OpenBabel11122414093D

 28 32  0  0  1  0  0  0  0  0999 V2000
  160.5090  209.7060  156.2610 C   0  0  0  0  0  0  0  0  0  0  0  0
  155.6950  210.6060  154.6600 O   0  0  0  0  0  1  0  0  0  0  0  0
  161.5420  211.0870  152.0370 O   0  0  0  0  0  0  0  0  0  0  0  0
  161.5050  212.2100  157.0160 C   0  0  0  0  0  3  0  0  0  0  0  0
  159.4830  212.2250  152.4700 C   0  0  0  0  0  0  0  0  0  0  0  0
  160.0280  208.4690  155.8300 O   0  0  0  0  0  0  0  0  0  0  0  0
  155.7510  211.2160  156.9480 C   0  0  0  0  0  1  0  0  0  0  0  0
  156.0510  211.6470  155.5260 C   0  0  1  0  0  0  0  0  0  0  0  0
  155.5480  213.3820  153.8330 C   0  0  1  0  0  3  0  0  0  0  0  0
  157.5640  211.9880  155.4150 C   0  0  2  0  0  3  0  0  0  0  0  0
  162.3160  208.9880  153.9010 F   0  0  0  0  0  0  0  0  0  0  0  0
  158.5110  210.4910  153.7840 C   0  0  1  0  0  3  0  0  0  0  0  0
  156.9910  213.8530  153.8550 C   0  0  0  0  0  2  0  0  0  0  0  0
  155.1950  212.8610  155.2110 C   0  0  0  0  0  2  0  0  0  0  0  0
  161.2760  208.0850  153.7720 C   0  0  2  0  0  3  0  0  0  0  0  0
  159.7410  210.8570  156.0240 C   0  0  0  0  0  0  0  0  0  0  0  0
  160.4070  211.1320  152.5800 C   0  0  0  0  0  0  0  0  0  0  0  0
  154.7150  214.4530  153.5140 O   0  0  0  0  0  1  0  0  0  0  0  0
  160.1100  208.6740  152.9710 C   0  0  0  0  0  2  0  0  0  0  0  0
  160.2580  212.1110  156.3960 C   0  0  0  0  0  3  0  0  0  0  0  0
  161.7630  209.8110  156.8800 C   0  0  0  0  0  3  0  0  0  0  0  0
  162.2570  211.0600  157.2610 C   0  0  0  0  0  3  0  0  0  0  0  0
  160.8490  207.5380  155.1370 C   0  0  0  0  0  2  0  0  0  0  0  0
  158.2050  211.8680  153.1450 C   0  0  1  0  0  3  0  0  0  0  0  0
  159.8420  210.0670  153.3240 N   0  0  0  0  0  0  0  0  0  0  0  0
  157.9370  212.7960  154.2400 N   0  0  2  0  0  0  0  0  0  0  0  0
  159.7040  213.3040  151.8600 O   0  0  0  0  0  0  0  0  0  0  0  0
  158.4100  210.7220  155.3060 C   0  0  1  0  0  3  0  0  0  0  0  0
  1 21  1  0  0  0  0
  2  8  1  0  0  0  0
  3 17  2  0  0  0  0
  4 22  1  0  0  0  0
  5 17  1  0  0  0  0
  5 24  1  0  0  0  0
  6  1  1  0  0  0  0
  8  7  1  1  0  0  0
  9 18  1  1  0  0  0
  9 13  1  0  0  0  0
  9 14  1  0  0  0  0
 10  8  1  0  0  0  0
 12 28  1  0  0  0  0
 13 26  1  0  0  0  0
 14  8  1  0  0  0  0
 15 11  1  0  0  0  0
 15 23  1  0  0  0  0
 16  1  2  0  0  0  0
 16 20  1  0  0  0  0
 17 25  1  0  0  0  0
 19 25  1  0  0  0  0
 19 15  1  0  0  0  0
 20  4  2  0  0  0  0
 21 22  2  0  0  0  0
 23  6  1  0  0  0  0
 24 12  1  0  0  0  0
 24 26  1  0  0  0  0
 25 12  1  0  0  0  0
 26 10  1  0  0  0  0
 27  5  2  0  0  0  0
 28 10  1  0  0  0  0
 28 16  1  0  0  0  0
M  END
>  <MODEL>
2

>  <REMARK>
 VINA RESULT:      -3.1     12.059     14.584
  Name = 
  0 active torsions:
  status: ('A' for Active; 'I' for Inactive)
                            x       y       z     vdW  Elec       q    Type
                         _______ _______ _______ _____ _____    ______ ____

>  <TORSDO>
F 0

$$$$
