=
 OpenBabel11122414013D

 37 42  0  0  1  0  0  0  0  0999 V2000
  160.7590  206.2210  149.9910 C   0  0  1  0  0  3  0  0  0  0  0  0
  160.4340  208.8940  151.9950 O   0  0  0  0  0  0  0  0  0  0  0  0
  160.9500  205.3960  147.5200 C   0  0  2  0  0  3  0  0  0  0  0  0
  161.5390  207.4270  150.4810 C   0  0  2  0  0  3  0  0  0  0  0  0
  160.5690  206.5260  148.5010 C   0  0  2  0  0  3  0  0  0  0  0  0
  161.3370  207.8200  151.9420 C   0  0  2  0  0  3  0  0  0  0  0  0
  161.9100  204.3980  148.1530 C   0  0  0  0  0  2  0  0  0  0  0  0
  161.2870  207.8480  148.2830 C   0  0  0  0  0  2  0  0  0  0  0  0
  161.3540  204.4800  151.6990 C   0  0  0  0  0  2  0  0  0  0  0  0
  161.3660  203.9550  149.3650 O   0  0  0  0  0  0  0  0  0  0  0  0
  162.6100  210.2330  152.0220 C   0  0  0  0  0  2  0  0  0  0  0  0
  161.0880  210.1610  152.0060 C   0  0  1  0  0  3  0  0  0  0  0  0
  161.6210  204.9830  150.2830 C   0  0  1  0  0  3  0  0  0  0  0  0
  161.2470  208.5340  149.5790 N   0  0  2  0  0  0  0  0  0  0  0  0
  160.8970  206.6710  152.8660 C   0  0  1  0  0  3  0  0  0  0  0  0
  161.8790  210.5210  150.7170 C   0  0  2  0  0  3  0  0  0  0  0  0
  162.2910  209.4790  149.7530 N   0  0  0  0  0  0  0  0  0  0  0  0
  161.8340  205.4650  152.7620 C   0  0  0  0  0  2  0  0  0  0  0  0
  159.7760  206.6410  155.0990 C   0  0  0  0  0  3  0  0  0  0  0  0
  160.8060  207.1310  154.2880 C   0  0  0  0  0  0  0  0  0  0  0  0
  161.7290  208.0460  154.8180 C   0  0  0  0  0  3  0  0  0  0  0  0
  162.5110  209.3500  156.6530 F   0  0  0  0  0  0  0  0  0  0  0  0
  160.5880  207.9740  156.9520 C   0  0  0  0  0  3  0  0  0  0  0  0
  161.6190  208.4660  156.1460 C   0  0  0  0  0  0  0  0  0  0  0  0
  159.6670  207.0620  156.4280 C   0  0  0  0  0  3  0  0  0  0  0  0
  162.5460  210.2290  148.5150 C   0  0  0  0  0  2  0  0  0  0  0  0
  162.0630  211.6740  148.6360 C   0  0  1  0  0  3  0  0  0  0  0  0
  162.9550  212.9580  146.8930 C   0  0  0  0  0  1  0  0  0  0  0  0
  163.1320  212.6000  148.2900 N   0  0  0  0  0  2  0  0  0  0  0  0
  160.8460  211.9060  147.7480 C   0  0  0  0  0  2  0  0  0  0  0  0
  159.9460  212.9930  148.3170 C   0  0  0  0  0  2  0  0  0  0  0  0
  158.8470  213.3420  147.3320 C   0  0  0  0  0  1  0  0  0  0  0  0
  161.4860  205.8970  146.3200 O   0  0  0  0  0  0  0  0  0  0  0  0
  160.6620  205.4730  145.2600 C   0  0  0  0  0  0  0  0  0  0  0  0
  160.5480  204.0900  145.2450 F   0  0  0  0  0  0  0  0  0  0  0  0
  159.4030  206.0460  145.3530 F   0  0  0  0  0  0  0  0  0  0  0  0
  161.2350  205.8750  144.0690 F   0  0  0  0  0  0  0  0  0  0  0  0
  1 13  1  0  0  0  0
  1  4  1  0  0  0  0
  2 12  1  0  0  0  0
  3  7  1  0  0  0  0
  3  5  1  0  0  0  0
  4  6  1  0  0  0  0
  5  1  1  0  0  0  0
  6  2  1  0  0  0  0
  6 15  1  0  0  0  0
  7 10  1  0  0  0  0
  8  5  1  0  0  0  0
  8 14  1  0  0  0  0
  9 18  1  0  0  0  0
 10 13  1  0  0  0  0
 12 11  1  0  0  0  0
 13  9  1  0  0  0  0
 14 17  1  0  0  0  0
 14  4  1  0  0  0  0
 15 20  1  0  0  0  0
 16 12  1  0  0  0  0
 16 11  1  0  0  0  0
 17 16  1  0  0  0  0
 18 15  1  0  0  0  0
 19 25  1  0  0  0  0
 20 21  1  0  0  0  0
 20 19  2  0  0  0  0
 21 24  2  0  0  0  0
 24 22  1  0  0  0  0
 24 23  1  0  0  0  0
 25 23  2  0  0  0  0
 26 27  1  0  0  0  0
 26 17  1  0  0  0  0
 28 29  1  0  0  0  0
 29 27  1  0  0  0  0
 30 31  1  0  0  0  0
 30 27  1  0  0  0  0
 32 31  1  0  0  0  0
 33  3  1  0  0  0  0
 34 36  1  0  0  0  0
 34 33  1  0  0  0  0
 35 34  1  0  0  0  0
 37 34  1  0  0  0  0
M  END
>  <MODEL>
1

>  <REMARK>
 VINA RESULT:      -8.1      0.000      0.000
  Name = 
  8 active torsions:
  status: ('A' for Active; 'I' for Inactive)
    1  A    between atoms: C_1  and  C_4
    2  A    between atoms: C_1  and  N_27
    3  A    between atoms: C_2  and  O_22
    4  A    between atoms: C_4  and  C_12
    5  A    between atoms: C_4  and  N_37
    6  A    between atoms: C_6  and  O_22
    7  A    between atoms: C_8  and  C_12
    8  A    between atoms: C_23  and  C_30
                            x       y       z     vdW  Elec       q    Type
                         _______ _______ _______ _____ _____    ______ ____

>  <TORSDO>
F 8

$$$$
=
 OpenBabel11122414013D

 37 42  0  0  1  0  0  0  0  0999 V2000
  161.5910  211.1890  150.8360 C   0  0  1  0  0  3  0  0  0  0  0  0
  162.4300  208.3200  152.3640 O   0  0  0  0  0  0  0  0  0  0  0  0
  161.6550  212.5320  148.5960 C   0  0  2  0  0  3  0  0  0  0  0  0
  161.2220  209.7170  150.8610 C   0  0  2  0  0  3  0  0  0  0  0  0
  162.2010  211.3590  149.4400 C   0  0  2  0  0  3  0  0  0  0  0  0
  161.2300  209.0370  152.2280 C   0  0  2  0  0  3  0  0  0  0  0  0
  160.2820  212.9820  149.0750 C   0  0  0  0  0  2  0  0  0  0  0  0
  162.0860  209.9850  148.7990 C   0  0  0  0  0  2  0  0  0  0  0  0
  160.0390  212.1490  152.5590 C   0  0  0  0  0  2  0  0  0  0  0  0
  160.3460  213.2370  150.4510 O   0  0  0  0  0  0  0  0  0  0  0  0
  160.9490  206.4160  151.5180 C   0  0  0  0  0  2  0  0  0  0  0  0
  162.3020  206.9560  151.9660 C   0  0  1  0  0  3  0  0  0  0  0  0
  160.2920  211.9780  151.0640 C   0  0  1  0  0  3  0  0  0  0  0  0
  162.0910  209.0300  149.9120 N   0  0  2  0  0  0  0  0  0  0  0  0
  161.0030  209.9820  153.4210 C   0  0  1  0  0  3  0  0  0  0  0  0
  162.0020  206.7210  150.4590 C   0  0  2  0  0  3  0  0  0  0  0  0
  161.4570  207.7980  149.6060 N   0  0  0  0  0  0  0  0  0  0  0  0
  159.7350  210.8220  153.2500 C   0  0  0  0  0  2  0  0  0  0  0  0
  161.8840  209.4880  155.7070 C   0  0  0  0  0  3  0  0  0  0  0  0
  160.9430  209.2170  154.7070 C   0  0  0  0  0  0  0  0  0  0  0  0
  159.9670  208.2310  154.9230 C   0  0  0  0  0  3  0  0  0  0  0  0
  158.9940  206.5740  156.3330 F   0  0  0  0  0  0  0  0  0  0  0  0
  160.8790  207.8000  157.1240 C   0  0  0  0  0  3  0  0  0  0  0  0
  159.9360  207.5250  156.1290 C   0  0  0  0  0  0  0  0  0  0  0  0
  161.8520  208.7810  156.9130 C   0  0  0  0  0  3  0  0  0  0  0  0
  161.7730  207.3590  148.2410 C   0  0  0  0  0  2  0  0  0  0  0  0
  160.8700  206.2030  147.8110 C   0  0  1  0  0  3  0  0  0  0  0  0
  160.9340  205.7760  145.5090 C   0  0  0  0  0  1  0  0  0  0  0  0
  160.2220  206.5070  146.5420 N   0  0  0  0  0  2  0  0  0  0  0  0
  161.6700  204.9110  147.7040 C   0  0  0  0  0  2  0  0  0  0  0  0
  161.1530  203.8590  148.6740 C   0  0  0  0  0  2  0  0  0  0  0  0
  161.1420  202.4910  148.0190 C   0  0  0  0  0  1  0  0  0  0  0  0
  161.6170  212.2220  147.2250 O   0  0  0  0  0  0  0  0  0  0  0  0
  162.1710  213.3050  146.5150 C   0  0  0  0  0  0  0  0  0  0  0  0
  163.0330  212.8570  145.5240 F   0  0  0  0  0  0  0  0  0  0  0  0
  161.1750  214.0880  145.9500 F   0  0  0  0  0  0  0  0  0  0  0  0
  162.8910  214.0870  147.3970 F   0  0  0  0  0  0  0  0  0  0  0  0
  1  4  1  0  0  0  0
  1 13  1  0  0  0  0
  3  7  1  0  0  0  0
  3  5  1  0  0  0  0
  4  6  1  0  0  0  0
  5  1  1  0  0  0  0
  6  2  1  0  0  0  0
  6 15  1  0  0  0  0
  7 10  1  0  0  0  0
  8  5  1  0  0  0  0
  8 14  1  0  0  0  0
  9 18  1  0  0  0  0
 10 13  1  0  0  0  0
 11 12  1  0  0  0  0
 12  2  1  0  0  0  0
 13  9  1  0  0  0  0
 14  4  1  0  0  0  0
 15 20  1  0  0  0  0
 16 11  1  0  0  0  0
 16 12  1  0  0  0  0
 17 14  1  0  0  0  0
 17 16  1  0  0  0  0
 18 15  1  0  0  0  0
 19 25  1  0  0  0  0
 20 21  1  0  0  0  0
 20 19  2  0  0  0  0
 21 24  2  0  0  0  0
 24 22  1  0  0  0  0
 24 23  1  0  0  0  0
 25 23  2  0  0  0  0
 26 17  1  0  0  0  0
 27 26  1  0  0  0  0
 28 29  1  0  0  0  0
 29 27  1  0  0  0  0
 30 27  1  0  0  0  0
 30 31  1  0  0  0  0
 32 31  1  0  0  0  0
 33  3  1  0  0  0  0
 34 33  1  0  0  0  0
 34 37  1  0  0  0  0
 35 34  1  0  0  0  0
 36 34  1  0  0  0  0
M  END
>  <MODEL>
2

>  <REMARK>
 VINA RESULT:      -7.6      3.076      5.905
  Name = 
  8 active torsions:
  status: ('A' for Active; 'I' for Inactive)
    1  A    between atoms: C_1  and  C_4
    2  A    between atoms: C_1  and  N_27
    3  A    between atoms: C_2  and  O_22
    4  A    between atoms: C_4  and  C_12
    5  A    between atoms: C_4  and  N_37
    6  A    between atoms: C_6  and  O_22
    7  A    between atoms: C_8  and  C_12
    8  A    between atoms: C_23  and  C_30
                            x       y       z     vdW  Elec       q    Type
                         _______ _______ _______ _____ _____    ______ ____

>  <TORSDO>
F 8

$$$$
=
 OpenBabel11122414013D

 37 42  0  0  1  0  0  0  0  0999 V2000
  161.8190  207.2060  152.5820 C   0  0  1  0  0  3  0  0  0  0  0  0
  162.7020  206.8230  149.3670 O   0  0  0  0  0  0  0  0  0  0  0  0
  161.7930  208.8320  154.6270 C   0  0  2  0  0  3  0  0  0  0  0  0
  161.4390  207.6830  151.1920 C   0  0  2  0  0  3  0  0  0  0  0  0
  162.3670  208.4800  153.2370 C   0  0  2  0  0  3  0  0  0  0  0  0
  161.5040  206.6430  150.0760 C   0  0  2  0  0  3  0  0  0  0  0  0
  160.4460  208.1640  154.8690 C   0  0  0  0  0  2  0  0  0  0  0  0
  162.2110  209.5560  152.1750 C   0  0  0  0  0  2  0  0  0  0  0  0
  160.3550  205.1870  152.8640 C   0  0  0  0  0  2  0  0  0  0  0  0
  160.5750  206.7910  154.6250 O   0  0  0  0  0  0  0  0  0  0  0  0
  161.1690  208.2150  147.8690 C   0  0  0  0  0  2  0  0  0  0  0  0
  162.5460  207.6680  148.2280 C   0  0  1  0  0  3  0  0  0  0  0  0
  160.5380  206.6560  153.2300 C   0  0  1  0  0  3  0  0  0  0  0  0
  162.2590  208.8510  150.8900 N   0  0  2  0  0  0  0  0  0  0  0  0
  161.3390  205.1860  150.5400 C   0  0  1  0  0  3  0  0  0  0  0  0
  162.1750  209.1460  148.5350 C   0  0  2  0  0  3  0  0  0  0  0  0
  161.6010  209.5410  149.8390 N   0  0  0  0  0  0  0  0  0  0  0  0
  160.0720  204.9930  151.3770 C   0  0  0  0  0  2  0  0  0  0  0  0
  161.0030  202.9040  149.5770 C   0  0  0  0  0  3  0  0  0  0  0  0
  161.3310  204.2490  149.3710 C   0  0  0  0  0  0  0  0  0  0  0  0
  161.6530  204.6940  148.0790 C   0  0  0  0  0  3  0  0  0  0  0  0
  161.9570  204.2320  145.7610 F   0  0  0  0  0  0  0  0  0  0  0  0
  161.3180  202.4560  147.2170 C   0  0  0  0  0  3  0  0  0  0  0  0
  161.6460  203.7980  147.0060 C   0  0  0  0  0  0  0  0  0  0  0  0
  160.9960  202.0090  148.5030 C   0  0  0  0  0  3  0  0  0  0  0  0
  161.8510  210.9860  149.9090 C   0  0  0  0  0  2  0  0  0  0  0  0
  161.6300  211.6510  148.5510 C   0  0  1  0  0  3  0  0  0  0  0  0
  160.4350  213.0290  150.0200 C   0  0  0  0  0  1  0  0  0  0  0  0
  160.5510  212.6260  148.6300 N   0  0  0  0  0  2  0  0  0  0  0  0
  162.9130  212.3140  148.0650 C   0  0  0  0  0  2  0  0  0  0  0  0
  162.6160  213.5700  147.2610 C   0  0  0  0  0  2  0  0  0  0  0  0
  162.6370  213.2680  145.7740 C   0  0  0  0  0  1  0  0  0  0  0  0
  161.6900  210.2220  154.8180 O   0  0  0  0  0  0  0  0  0  0  0  0
  162.5240  210.5790  155.8950 C   0  0  0  0  0  0  0  0  0  0  0  0
  163.7610  211.0130  155.4390 F   0  0  0  0  0  0  0  0  0  0  0  0
  161.9370  211.5690  156.6690 F   0  0  0  0  0  0  0  0  0  0  0  0
  162.7200  209.4660  156.6890 F   0  0  0  0  0  0  0  0  0  0  0  0
  1 13  1  0  0  0  0
  1  5  1  0  0  0  0
  2  6  1  0  0  0  0
  3 33  1  0  0  0  0
  3  7  1  0  0  0  0
  4  1  1  0  0  0  0
  5  3  1  0  0  0  0
  6 15  1  0  0  0  0
  6  4  1  0  0  0  0
  8  5  1  0  0  0  0
  9 13  1  0  0  0  0
 10  7  1  0  0  0  0
 11 12  1  0  0  0  0
 11 16  1  0  0  0  0
 12 16  1  0  0  0  0
 12  2  1  0  0  0  0
 13 10  1  0  0  0  0
 14  4  1  0  0  0  0
 14  8  1  0  0  0  0
 15 18  1  0  0  0  0
 16 17  1  0  0  0  0
 17 26  1  0  0  0  0
 17 14  1  0  0  0  0
 18  9  1  0  0  0  0
 20 19  1  0  0  0  0
 20 15  1  0  0  0  0
 21 20  2  0  0  0  0
 22 24  1  0  0  0  0
 23 25  1  0  0  0  0
 24 23  2  0  0  0  0
 24 21  1  0  0  0  0
 25 19  2  0  0  0  0
 27 29  1  0  0  0  0
 27 26  1  0  0  0  0
 29 28  1  0  0  0  0
 30 27  1  0  0  0  0
 31 30  1  0  0  0  0
 32 31  1  0  0  0  0
 33 34  1  0  0  0  0
 34 36  1  0  0  0  0
 34 37  1  0  0  0  0
 35 34  1  0  0  0  0
M  END
>  <MODEL>
3

>  <REMARK>
 VINA RESULT:      -5.4      1.754      6.813
  Name = 
  8 active torsions:
  status: ('A' for Active; 'I' for Inactive)
    1  A    between atoms: C_1  and  C_4
    2  A    between atoms: C_1  and  N_27
    3  A    between atoms: C_2  and  O_22
    4  A    between atoms: C_4  and  C_12
    5  A    between atoms: C_4  and  N_37
    6  A    between atoms: C_6  and  O_22
    7  A    between atoms: C_8  and  C_12
    8  A    between atoms: C_23  and  C_30
                            x       y       z     vdW  Elec       q    Type
                         _______ _______ _______ _____ _____    ______ ____

>  <TORSDO>
F 8

$$$$
=
 OpenBabel11122414013D

 37 42  0  0  1  0  0  0  0  0999 V2000
  160.6280  205.3110  151.4280 C   0  0  1  0  0  3  0  0  0  0  0  0
  160.5200  208.5610  150.5980 O   0  0  0  0  0  0  0  0  0  0  0  0
  160.7560  202.8630  150.5260 C   0  0  2  0  0  3  0  0  0  0  0  0
  161.5040  206.4090  150.8540 C   0  0  2  0  0  3  0  0  0  0  0  0
  160.4670  204.3540  150.2420 C   0  0  2  0  0  3  0  0  0  0  0  0
  161.3310  207.8020  151.4560 C   0  0  2  0  0  3  0  0  0  0  0  0
  161.6290  202.6810  151.7600 C   0  0  0  0  0  2  0  0  0  0  0  0
  161.2930  204.9780  149.1280 C   0  0  0  0  0  2  0  0  0  0  0  0
  161.0730  205.5170  153.8900 C   0  0  0  0  0  2  0  0  0  0  0  0
  161.0470  203.3730  152.8290 O   0  0  0  0  0  0  0  0  0  0  0  0
  162.8000  209.3140  149.7210 C   0  0  0  0  0  2  0  0  0  0  0  0
  161.2770  209.3320  149.6660 C   0  0  1  0  0  3  0  0  0  0  0  0
  161.3840  204.7190  152.6280 C   0  0  1  0  0  3  0  0  0  0  0  0
  161.3070  206.4170  149.4090 N   0  0  2  0  0  0  0  0  0  0  0  0
  160.7950  207.8210  152.8980 C   0  0  1  0  0  3  0  0  0  0  0  0
  162.0970  208.5160  148.6290 C   0  0  2  0  0  3  0  0  0  0  0  0
  162.4250  207.0930  148.8560 N   0  0  0  0  0  0  0  0  0  0  0  0
  161.6290  206.9370  153.8280 C   0  0  0  0  0  2  0  0  0  0  0  0
  161.4740  209.5430  154.5760 C   0  0  0  0  0  3  0  0  0  0  0  0
  160.7390  209.2200  153.4310 C   0  0  0  0  0  0  0  0  0  0  0  0
  159.9590  210.2060  152.8060 C   0  0  0  0  0  3  0  0  0  0  0  0
  159.1620  212.4500  152.7220 F   0  0  0  0  0  0  0  0  0  0  0  0
  160.6530  211.8200  154.4720 C   0  0  0  0  0  3  0  0  0  0  0  0
  159.9170  211.5020  153.3270 C   0  0  0  0  0  0  0  0  0  0  0  0
  161.4320  210.8400  155.0960 C   0  0  0  0  0  3  0  0  0  0  0  0
  162.7440  206.5880  147.5140 C   0  0  0  0  0  2  0  0  0  0  0  0
  161.5820  205.7780  146.9390 C   0  0  1  0  0  3  0  0  0  0  0  0
  160.3970  206.2990  144.9870 C   0  0  0  0  0  1  0  0  0  0  0  0
  160.5690  206.6640  146.3820 N   0  0  0  0  0  2  0  0  0  0  0  0
  162.0820  204.8060  145.8770 C   0  0  0  0  0  2  0  0  0  0  0  0
  161.8460  203.3630  146.2940 C   0  0  0  0  0  2  0  0  0  0  0  0
  160.8480  202.6970  145.3670 C   0  0  0  0  0  1  0  0  0  0  0  0
  161.3350  202.2180  149.4180 O   0  0  0  0  0  0  0  0  0  0  0  0
  160.4740  201.1790  149.0150 C   0  0  0  0  0  0  0  0  0  0  0  0
  161.1660  200.2130  148.2990 F   0  0  0  0  0  0  0  0  0  0  0  0
  159.8560  200.5960  150.1110 F   0  0  0  0  0  0  0  0  0  0  0  0
  159.4960  201.7110  148.1970 F   0  0  0  0  0  0  0  0  0  0  0  0
  1 13  1  0  0  0  0
  2  6  1  0  0  0  0
  3  7  1  0  0  0  0
  4  1  1  0  0  0  0
  4  6  1  0  0  0  0
  5  3  1  0  0  0  0
  5  1  1  0  0  0  0
  6 15  1  0  0  0  0
  7 10  1  0  0  0  0
  8 14  1  0  0  0  0
  8  5  1  0  0  0  0
 12 11  1  0  0  0  0
 12  2  1  0  0  0  0
 13 10  1  0  0  0  0
 13  9  1  0  0  0  0
 14  4  1  0  0  0  0
 15 20  1  0  0  0  0
 15 18  1  0  0  0  0
 16 17  1  0  0  0  0
 16 12  1  0  0  0  0
 16 11  1  0  0  0  0
 17 14  1  0  0  0  0
 18  9  1  0  0  0  0
 19 25  1  0  0  0  0
 20 19  2  0  0  0  0
 21 24  2  0  0  0  0
 21 20  1  0  0  0  0
 22 24  1  0  0  0  0
 23 25  2  0  0  0  0
 24 23  1  0  0  0  0
 26 17  1  0  0  0  0
 27 26  1  0  0  0  0
 28 29  1  0  0  0  0
 29 27  1  0  0  0  0
 30 31  1  0  0  0  0
 30 27  1  0  0  0  0
 32 31  1  0  0  0  0
 33  3  1  0  0  0  0
 34 33  1  0  0  0  0
 34 36  1  0  0  0  0
 35 34  1  0  0  0  0
 37 34  1  0  0  0  0
M  END
>  <MODEL>
4

>  <REMARK>
 VINA RESULT:      -5.3      2.979      4.764
  Name = 
  8 active torsions:
  status: ('A' for Active; 'I' for Inactive)
    1  A    between atoms: C_1  and  C_4
    2  A    between atoms: C_1  and  N_27
    3  A    between atoms: C_2  and  O_22
    4  A    between atoms: C_4  and  C_12
    5  A    between atoms: C_4  and  N_37
    6  A    between atoms: C_6  and  O_22
    7  A    between atoms: C_8  and  C_12
    8  A    between atoms: C_23  and  C_30
                            x       y       z     vdW  Elec       q    Type
                         _______ _______ _______ _____ _____    ______ ____

>  <TORSDO>
F 8

$$$$
