=
 OpenBabel11122414353D

 34 40  0  0  1  0  0  0  0  0999 V2000
  161.5480  208.1760  152.9960 C   0  0  1  0  0  3  0  0  0  0  0  0
  161.2150  205.6540  153.3440 C   0  0  0  0  0  3  0  0  0  0  0  0
  161.5750  213.6340  149.0680 C   0  0  1  0  0  3  0  0  0  0  0  0
  161.0630  210.5620  152.2240 C   0  0  0  0  0  0  0  0  0  0  0  0
  161.9730  211.2520  149.9720 C   0  0  2  0  0  3  0  0  0  0  0  0
  163.0450  211.9650  147.8520 C   0  0  0  0  0  1  0  0  0  0  0  0
  161.9270  214.4530  147.9940 O   0  0  0  0  0  1  0  0  0  0  0  0
  159.7230  213.3330  150.7560 C   0  0  0  0  0  2  0  0  0  0  0  0
  161.5570  206.4660  151.1730 C   0  0  0  0  0  0  0  0  0  0  0  0
  161.0400  204.7950  148.5330 C   0  0  0  0  0  2  0  0  0  0  0  0
  161.7660  209.8520  149.6020 N   0  0  0  0  0  2  0  0  0  0  0  0
  159.7890  211.9360  150.7610 O   0  0  0  0  0  0  0  0  0  0  0  0
  161.8060  207.3990  150.2350 C   0  0  0  0  0  0  0  0  0  0  0  0
  161.2750  204.4580  152.3870 C   0  0  0  0  0  3  0  0  0  0  0  0
  161.0910  211.6440  151.1780 C   0  0  1  0  0  3  0  0  0  0  0  0
  160.1020  213.8770  149.3850 C   0  0  0  0  0  2  0  0  0  0  0  0
  160.5530  204.5380  149.9590 C   0  0  2  0  0  3  0  0  0  0  0  0
  161.4360  209.1810  151.8780 C   0  0  0  0  0  0  0  0  0  0  0  0
  161.8140  212.1480  148.7300 C   0  0  2  0  0  3  0  0  0  0  0  0
  161.6890  208.8320  150.6050 C   0  0  0  0  0  0  0  0  0  0  0  0
  160.2760  209.7520  154.3380 C   0  0  0  0  0  3  0  0  0  0  0  0
  161.0040  206.2730  148.1670 C   0  0  0  0  0  2  0  0  0  0  0  0
  160.5200  210.7990  153.3820 N   0  0  0  0  0  0  0  0  0  0  0  0
  162.1530  207.0190  148.8280 C   0  0  0  0  0  2  0  0  0  0  0  0
  161.6030  204.9910  150.9820 C   0  0  1  0  0  3  0  0  0  0  0  0
  160.6990  208.5370  154.1340 N   0  0  0  0  0  0  0  0  0  0  0  0
  161.2510  206.8330  152.5050 N   0  0  0  0  0  0  0  0  0  0  0  0
  160.2980  203.1700  150.0970 O   0  0  0  0  0  0  0  0  0  0  0  0
  161.2820  202.5430  149.3290 C   0  0  0  0  0  2  0  0  0  0  0  0
  160.8760  201.1040  146.0470 C   0  0  0  0  0  2  0  0  0  0  0  0
  161.6220  200.3470  148.2030 C   0  0  0  0  0  2  0  0  0  0  0  0
  160.6520  201.4820  148.4470 C   0  0  0  0  0  3  0  0  0  0  0  0
  161.3280  199.8720  146.8000 C   0  0  0  0  0  2  0  0  0  0  0  0
  160.3250  202.0650  147.0850 C   0  0  0  0  0  2  0  0  0  0  0  0
  1 18  1  6  0  0  0
  1 26  1  0  0  0  0
  3  7  1  6  0  0  0
  3 16  1  0  0  0  0
  4 23  2  0  0  0  0
  5 11  1  6  0  0  0
  5 15  1  0  0  0  0
  8 12  1  0  0  0  0
  9 27  1  0  0  0  0
 10 17  1  0  0  0  0
 11 20  1  0  0  0  0
 13 20  1  0  0  0  0
 13  9  2  0  0  0  0
 14  2  2  0  0  0  0
 15 12  1  6  0  0  0
 15  4  1  0  0  0  0
 16  8  1  0  0  0  0
 17 28  1  6  0  0  0
 17 25  1  0  0  0  0
 18  4  1  0  0  0  0
 19  6  1  6  0  0  0
 19  3  1  0  0  0  0
 19  5  1  0  0  0  0
 20 18  2  0  0  0  0
 22 10  1  0  0  0  0
 22 24  1  0  0  0  0
 23 21  1  0  0  0  0
 24 13  1  0  0  0  0
 25  9  1  0  0  0  0
 25 14  1  1  0  0  0
 26 21  2  0  0  0  0
 27  1  1  0  0  0  0
 27  2  1  0  0  0  0
 29 28  1  0  0  0  0
 30 33  1  0  0  0  0
 30 34  1  0  0  0  0
 31 32  1  0  0  0  0
 32 29  1  0  0  0  0
 33 31  1  0  0  0  0
 34 32  1  0  0  0  0
M  END
>  <MODEL>
1

>  <REMARK>
 VINA RESULT:      -8.9      0.000      0.000
  Name = 
  3 active torsions:
  status: ('A' for Active; 'I' for Inactive)
    1  A    between atoms: C_17  and  O_28
    2  A    between atoms: O_28  and  C_29
    3  A    between atoms: C_29  and  C_32
                            x       y       z     vdW  Elec       q    Type
                         _______ _______ _______ _____ _____    ______ ____

>  <TORSDO>
F 3

$$$$
=
 OpenBabel11122414353D

 34 40  0  0  1  0  0  0  0  0999 V2000
  162.2580  208.8290  151.4210 C   0  0  1  0  0  3  0  0  0  0  0  0
  161.7270  210.8940  152.8520 C   0  0  0  0  0  3  0  0  0  0  0  0
  161.4090  202.3350  149.8950 C   0  0  1  0  0  3  0  0  0  0  0  0
  161.8580  206.7440  150.0000 C   0  0  0  0  0  0  0  0  0  0  0  0
  161.7900  204.5250  151.2020 C   0  0  2  0  0  3  0  0  0  0  0  0
  161.9260  202.3450  152.3770 C   0  0  0  0  0  1  0  0  0  0  0  0
  161.3790  200.9530  150.0920 O   0  0  0  0  0  1  0  0  0  0  0  0
  160.4560  204.1010  148.3640 C   0  0  0  0  0  2  0  0  0  0  0  0
  161.2090  208.7680  153.6900 C   0  0  0  0  0  0  0  0  0  0  0  0
  159.3430  208.2340  156.1910 C   0  0  0  0  0  2  0  0  0  0  0  0
  161.2300  205.2910  152.3150 N   0  0  0  0  0  2  0  0  0  0  0  0
  160.3020  205.0610  149.3690 O   0  0  0  0  0  0  0  0  0  0  0  0
  161.1640  207.4220  153.6840 C   0  0  0  0  0  0  0  0  0  0  0  0
  161.1790  211.0570  154.2740 C   0  0  0  0  0  3  0  0  0  0  0  0
  161.5940  205.2690  149.8620 C   0  0  1  0  0  3  0  0  0  0  0  0
  160.2780  202.7020  148.9380 C   0  0  0  0  0  2  0  0  0  0  0  0
  159.4930  209.4940  155.3410 C   0  0  2  0  0  3  0  0  0  0  0  0
  161.8260  207.3880  151.3230 C   0  0  0  0  0  0  0  0  0  0  0  0
  161.2450  203.0850  151.2330 C   0  0  2  0  0  3  0  0  0  0  0  0
  161.4420  206.7040  152.4140 C   0  0  0  0  0  0  0  0  0  0  0  0
  161.9570  208.9270  149.0120 C   0  0  0  0  0  3  0  0  0  0  0  0
  159.3780  206.9620  155.3540 C   0  0  0  0  0  2  0  0  0  0  0  0
  161.9180  207.4910  148.9360 N   0  0  0  0  0  0  0  0  0  0  0  0
  160.8010  206.6470  154.9140 C   0  0  0  0  0  2  0  0  0  0  0  0
  160.9400  209.6530  154.8540 C   0  0  1  0  0  3  0  0  0  0  0  0
  162.0560  209.5410  150.1570 N   0  0  0  0  0  0  0  0  0  0  0  0
  161.5740  209.4910  152.5290 N   0  0  0  0  0  0  0  0  0  0  0  0
  159.1170  210.5960  156.1160 O   0  0  0  0  0  0  0  0  0  0  0  0
  157.7440  210.7340  155.8970 C   0  0  0  0  0  2  0  0  0  0  0  0
  158.9560  213.9540  154.8140 C   0  0  0  0  0  2  0  0  0  0  0  0
  157.6000  212.2000  153.8870 C   0  0  0  0  0  2  0  0  0  0  0  0
  157.4390  212.1320  155.3900 C   0  0  0  0  0  3  0  0  0  0  0  0
  158.1170  213.5910  153.6090 C   0  0  0  0  0  2  0  0  0  0  0  0
  158.4310  213.1220  155.9710 C   0  0  0  0  0  2  0  0  0  0  0  0
  1 26  1  6  0  0  0
  1 27  1  0  0  0  0
  2 14  2  0  0  0  0
  3  7  1  1  0  0  0
  3 19  1  0  0  0  0
  4 18  1  0  0  0  0
  5 19  1  0  0  0  0
  5 11  1  1  0  0  0
  8 16  1  0  0  0  0
  8 12  1  0  0  0  0
  9 25  1  0  0  0  0
 11 20  1  0  0  0  0
 13  9  2  0  0  0  0
 13 24  1  0  0  0  0
 15 12  1  1  0  0  0
 15  4  1  0  0  0  0
 15  5  1  0  0  0  0
 16  3  1  0  0  0  0
 17 28  1  1  0  0  0
 17 10  1  0  0  0  0
 18  1  1  0  0  0  0
 18 20  2  0  0  0  0
 19  6  1  1  0  0  0
 20 13  1  0  0  0  0
 21 26  2  0  0  0  0
 22 10  1  0  0  0  0
 23 21  1  0  0  0  0
 23  4  2  0  0  0  0
 24 22  1  0  0  0  0
 25 14  1  6  0  0  0
 25 17  1  0  0  0  0
 27  2  1  0  0  0  0
 27  9  1  0  0  0  0
 29 28  1  0  0  0  0
 30 34  1  0  0  0  0
 31 32  1  0  0  0  0
 32 29  1  0  0  0  0
 32 34  1  0  0  0  0
 33 31  1  0  0  0  0
 33 30  1  0  0  0  0
M  END
>  <MODEL>
2

>  <REMARK>
 VINA RESULT:      -6.8      2.857      8.841
  Name = 
  3 active torsions:
  status: ('A' for Active; 'I' for Inactive)
    1  A    between atoms: C_17  and  O_28
    2  A    between atoms: O_28  and  C_29
    3  A    between atoms: C_29  and  C_32
                            x       y       z     vdW  Elec       q    Type
                         _______ _______ _______ _____ _____    ______ ____

>  <TORSDO>
F 3

$$$$
=
 OpenBabel11122414353D

 34 40  0  0  1  0  0  0  0  0999 V2000
  161.2640  206.8060  154.0090 C   0  0  1  0  0  3  0  0  0  0  0  0
  161.6930  204.4590  153.0620 C   0  0  0  0  0  3  0  0  0  0  0  0
  159.1680  213.1570  153.3040 C   0  0  1  0  0  3  0  0  0  0  0  0
  160.0280  208.9820  154.5240 C   0  0  0  0  0  0  0  0  0  0  0  0
  160.3410  210.8960  152.9060 C   0  0  2  0  0  3  0  0  0  0  0  0
  160.8230  212.8170  151.4130 C   0  0  0  0  0  1  0  0  0  0  0  0
  159.1060  214.4480  152.7760 O   0  0  0  0  0  1  0  0  0  0  0  0
  157.7650  211.5300  154.6290 C   0  0  0  0  0  2  0  0  0  0  0  0
  161.4470  206.2550  151.5770 C   0  0  0  0  0  0  0  0  0  0  0  0
  160.9880  205.9510  148.4590 C   0  0  0  0  0  2  0  0  0  0  0  0
  160.4680  209.8490  151.8920 N   0  0  0  0  0  2  0  0  0  0  0  0
  158.2100  210.3980  153.9400 O   0  0  0  0  0  0  0  0  0  0  0  0
  161.2770  207.5430  151.2250 C   0  0  0  0  0  0  0  0  0  0  0  0
  161.9220  203.9410  151.6370 C   0  0  0  0  0  3  0  0  0  0  0  0
  159.5920  210.3740  154.1520 C   0  0  1  0  0  3  0  0  0  0  0  0
  157.7550  212.7420  153.7070 C   0  0  0  0  0  2  0  0  0  0  0  0
  160.8250  204.9170  149.5720 C   0  0  2  0  0  3  0  0  0  0  0  0
  160.7040  208.1240  153.5370 C   0  0  0  0  0  0  0  0  0  0  0  0
  159.7460  212.1660  152.2720 C   0  0  2  0  0  3  0  0  0  0  0  0
  160.8340  208.5130  152.2580 C   0  0  0  0  0  0  0  0  0  0  0  0
  159.8430  207.0730  155.9610 C   0  0  0  0  0  3  0  0  0  0  0  0
  160.4910  207.3300  148.8740 C   0  0  0  0  0  2  0  0  0  0  0  0
  159.6350  208.4620  155.6490 N   0  0  0  0  0  0  0  0  0  0  0  0
  161.4840  208.0000  149.8130 C   0  0  0  0  0  2  0  0  0  0  0  0
  161.8620  205.1430  150.6810 C   0  0  1  0  0  3  0  0  0  0  0  0
  160.5430  206.3010  155.1800 N   0  0  0  0  0  0  0  0  0  0  0  0
  161.2700  205.8350  152.9180 N   0  0  0  0  0  0  0  0  0  0  0  0
  160.9790  203.6430  149.0150 O   0  0  0  0  0  0  0  0  0  0  0  0
  161.6940  203.8540  147.8330 C   0  0  0  0  0  2  0  0  0  0  0  0
  159.9130  200.9710  146.6000 C   0  0  0  0  0  2  0  0  0  0  0  0
  161.0760  202.8440  145.6410 C   0  0  0  0  0  2  0  0  0  0  0  0
  161.6960  202.5880  146.9970 C   0  0  0  0  0  3  0  0  0  0  0  0
  160.3710  201.5580  145.2820 C   0  0  0  0  0  2  0  0  0  0  0  0
  160.8440  201.5240  147.6640 C   0  0  0  0  0  2  0  0  0  0  0  0
  1 18  1  6  0  0  0
  1 26  1  0  0  0  0
  3  7  1  6  0  0  0
  3 16  1  0  0  0  0
  4 23  2  0  0  0  0
  5 11  1  6  0  0  0
  5 15  1  0  0  0  0
  9 27  1  0  0  0  0
 10 22  1  0  0  0  0
 10 17  1  0  0  0  0
 11 20  1  0  0  0  0
 12  8  1  0  0  0  0
 13  9  2  0  0  0  0
 13 20  1  0  0  0  0
 14  2  2  0  0  0  0
 15 12  1  6  0  0  0
 15  4  1  0  0  0  0
 16  8  1  0  0  0  0
 17 28  1  6  0  0  0
 17 25  1  0  0  0  0
 18  4  1  0  0  0  0
 19  6  1  1  0  0  0
 19  5  1  0  0  0  0
 19  3  1  0  0  0  0
 20 18  2  0  0  0  0
 22 24  1  0  0  0  0
 23 21  1  0  0  0  0
 24 13  1  0  0  0  0
 25  9  1  0  0  0  0
 25 14  1  1  0  0  0
 26 21  2  0  0  0  0
 27  2  1  0  0  0  0
 27  1  1  0  0  0  0
 29 28  1  0  0  0  0
 30 34  1  0  0  0  0
 31 32  1  0  0  0  0
 32 34  1  0  0  0  0
 32 29  1  0  0  0  0
 33 31  1  0  0  0  0
 33 30  1  0  0  0  0
M  END
>  <MODEL>
3

>  <REMARK>
 VINA RESULT:      -6.5      1.968      2.841
  Name = 
  3 active torsions:
  status: ('A' for Active; 'I' for Inactive)
    1  A    between atoms: C_17  and  O_28
    2  A    between atoms: O_28  and  C_29
    3  A    between atoms: C_29  and  C_32
                            x       y       z     vdW  Elec       q    Type
                         _______ _______ _______ _____ _____    ______ ____

>  <TORSDO>
F 3

$$$$
=
 OpenBabel11122414353D

 34 40  0  0  1  0  0  0  0  0999 V2000
  161.0580  208.1700  149.4290 C   0  0  1  0  0  3  0  0  0  0  0  0
  161.3260  206.4110  147.5780 C   0  0  0  0  0  3  0  0  0  0  0  0
  161.0480  209.9510  155.9130 C   0  0  1  0  0  3  0  0  0  0  0  0
  161.5850  209.5170  151.5340 C   0  0  0  0  0  0  0  0  0  0  0  0
  160.6120  208.6850  153.7110 C   0  0  2  0  0  3  0  0  0  0  0  0
  159.4820  207.9600  155.7970 C   0  0  0  0  0  1  0  0  0  0  0  0
  160.6800  209.9310  157.2610 O   0  0  0  0  0  1  0  0  0  0  0  0
  162.9520  210.6880  154.4310 C   0  0  0  0  0  2  0  0  0  0  0  0
  160.9270  205.6960  149.7740 C   0  0  0  0  0  0  0  0  0  0  0  0
  161.2930  202.7180  150.7830 C   0  0  0  0  0  2  0  0  0  0  0  0
  160.7620  207.3540  153.1200 N   0  0  0  0  0  2  0  0  0  0  0  0
  162.8440  209.6080  153.5490 O   0  0  0  0  0  0  0  0  0  0  0  0
  160.6710  205.8460  151.0870 C   0  0  0  0  0  0  0  0  0  0  0  0
  161.1940  204.8840  147.5710 C   0  0  0  0  0  3  0  0  0  0  0  0
  161.5500  209.7050  153.0270 C   0  0  1  0  0  3  0  0  0  0  0  0
  162.5380  210.2690  155.8350 C   0  0  0  0  0  2  0  0  0  0  0  0
  161.8250  203.3890  149.5180 C   0  0  2  0  0  3  0  0  0  0  0  0
  161.1570  208.2440  150.9320 C   0  0  0  0  0  0  0  0  0  0  0  0
  160.7510  208.5950  155.2410 C   0  0  2  0  0  3  0  0  0  0  0  0
  160.8460  207.1870  151.7000 C   0  0  0  0  0  0  0  0  0  0  0  0
  162.4270  210.1760  149.3890 C   0  0  0  0  0  3  0  0  0  0  0  0
  161.3600  203.6350  151.9970 C   0  0  0  0  0  2  0  0  0  0  0  0
  162.1780  210.4020  150.7880 N   0  0  0  0  0  0  0  0  0  0  0  0
  160.2600  204.6850  151.9390 C   0  0  0  0  0  2  0  0  0  0  0  0
  160.8290  204.4330  148.9950 C   0  0  1  0  0  3  0  0  0  0  0  0
  161.9600  209.1230  148.7800 N   0  0  0  0  0  0  0  0  0  0  0  0
  161.2950  206.8030  148.9710 N   0  0  0  0  0  0  0  0  0  0  0  0
  162.0440  202.4000  148.5530 O   0  0  0  0  0  0  0  0  0  0  0  0
  161.3270  201.2910  149.0100 C   0  0  0  0  0  2  0  0  0  0  0  0
  160.4720  201.2890  145.5060 C   0  0  0  0  0  2  0  0  0  0  0  0
  161.5770  199.7960  147.0320 C   0  0  0  0  0  2  0  0  0  0  0  0
  160.6110  200.6260  147.8500 C   0  0  0  0  0  3  0  0  0  0  0  0
  161.0860  199.9100  145.6090 C   0  0  0  0  0  2  0  0  0  0  0  0
  160.0510  201.6780  146.9120 C   0  0  0  0  0  2  0  0  0  0  0  0
  1 26  1  6  0  0  0
  1 18  1  0  0  0  0
  2 27  1  0  0  0  0
  3  7  1  1  0  0  0
  5 11  1  6  0  0  0
  5 19  1  0  0  0  0
  8 16  1  0  0  0  0
  9 13  2  0  0  0  0
 10 22  1  0  0  0  0
 12  8  1  0  0  0  0
 13 20  1  0  0  0  0
 13 24  1  0  0  0  0
 14  2  2  0  0  0  0
 15  4  1  6  0  0  0
 15 12  1  0  0  0  0
 15  5  1  0  0  0  0
 16  3  1  0  0  0  0
 17 28  1  6  0  0  0
 17 10  1  0  0  0  0
 18  4  1  0  0  0  0
 18 20  2  0  0  0  0
 19  6  1  1  0  0  0
 19  3  1  0  0  0  0
 20 11  1  0  0  0  0
 21 23  1  0  0  0  0
 23  4  2  0  0  0  0
 24 22  1  0  0  0  0
 25 14  1  6  0  0  0
 25 17  1  0  0  0  0
 25  9  1  0  0  0  0
 26 21  2  0  0  0  0
 27  1  1  0  0  0  0
 27  9  1  0  0  0  0
 28 29  1  0  0  0  0
 30 33  1  0  0  0  0
 30 34  1  0  0  0  0
 31 32  1  0  0  0  0
 32 29  1  0  0  0  0
 33 31  1  0  0  0  0
 34 32  1  0  0  0  0
M  END
>  <MODEL>
4

>  <REMARK>
 VINA RESULT:      -6.4      2.358      4.597
  Name = 
  3 active torsions:
  status: ('A' for Active; 'I' for Inactive)
    1  A    between atoms: C_17  and  O_28
    2  A    between atoms: O_28  and  C_29
    3  A    between atoms: C_29  and  C_32
                            x       y       z     vdW  Elec       q    Type
                         _______ _______ _______ _____ _____    ______ ____

>  <TORSDO>
F 3

$$$$
=
 OpenBabel11122414353D

 34 40  0  0  1  0  0  0  0  0999 V2000
  161.8980  206.1870  147.2240 C   0  0  1  0  0  3  0  0  0  0  0  0
  161.7780  208.1160  148.9140 C   0  0  0  0  0  3  0  0  0  0  0  0
  160.9260  199.7480  145.5470 C   0  0  1  0  0  3  0  0  0  0  0  0
  161.1490  204.1650  145.8540 C   0  0  0  0  0  0  0  0  0  0  0  0
  161.6130  201.8790  146.8240 C   0  0  2  0  0  3  0  0  0  0  0  0
  162.2570  199.6520  147.7030 C   0  0  0  0  0  1  0  0  0  0  0  0
  161.0390  198.3580  145.6290 O   0  0  0  0  0  1  0  0  0  0  0  0
  159.4160  201.5210  144.5750 C   0  0  0  0  0  2  0  0  0  0  0  0
  161.6900  205.9110  149.7000 C   0  0  0  0  0  0  0  0  0  0  0  0
  160.8200  205.0870  152.6310 C   0  0  0  0  0  2  0  0  0  0  0  0
  161.4260  202.5330  148.1200 N   0  0  0  0  0  2  0  0  0  0  0  0
  159.5630  202.4060  145.6480 O   0  0  0  0  0  0  0  0  0  0  0  0
  161.7180  204.5690  149.6000 C   0  0  0  0  0  0  0  0  0  0  0  0
  161.7400  208.1530  150.4460 C   0  0  0  0  0  3  0  0  0  0  0  0
  160.9330  202.6840  145.6940 C   0  0  1  0  0  3  0  0  0  0  0  0
  159.5190  200.0810  145.0590 C   0  0  0  0  0  2  0  0  0  0  0  0
  160.6040  206.4030  151.8850 C   0  0  2  0  0  3  0  0  0  0  0  0
  161.5360  204.7250  147.1600 C   0  0  0  0  0  0  0  0  0  0  0  0
  161.1890  200.4030  146.9190 C   0  0  2  0  0  3  0  0  0  0  0  0
  161.5840  203.9500  148.2560 C   0  0  0  0  0  0  0  0  0  0  0  0
  160.7890  206.4020  145.0730 C   0  0  0  0  0  3  0  0  0  0  0  0
  160.6350  203.8740  151.7290 C   0  0  0  0  0  2  0  0  0  0  0  0
  160.8030  204.9740  144.8970 N   0  0  0  0  0  0  0  0  0  0  0  0
  161.8370  203.6970  150.8130 C   0  0  0  0  0  2  0  0  0  0  0  0
  161.7880  206.7030  150.9560 C   0  0  1  0  0  3  0  0  0  0  0  0
  161.2400  206.9540  146.1640 N   0  0  0  0  0  0  0  0  0  0  0  0
  161.5990  206.7270  148.5470 N   0  0  0  0  0  0  0  0  0  0  0  0
  160.4560  207.4250  152.8290 O   0  0  0  0  0  0  0  0  0  0  0  0
  161.1710  206.9860  153.9460 C   0  0  0  0  0  2  0  0  0  0  0  0
  160.2060  210.3020  154.9850 C   0  0  0  0  0  2  0  0  0  0  0  0
  159.9710  208.0690  155.8420 C   0  0  0  0  0  2  0  0  0  0  0  0
  161.2230  208.0840  154.9920 C   0  0  0  0  0  3  0  0  0  0  0  0
  159.7060  209.5170  156.1770 C   0  0  0  0  0  2  0  0  0  0  0  0
  161.2640  209.4420  154.3170 C   0  0  0  0  0  2  0  0  0  0  0  0
  1 26  1  6  0  0  0
  1 27  1  0  0  0  0
  2 14  2  0  0  0  0
  3  7  1  1  0  0  0
  3 19  1  0  0  0  0
  4 18  1  0  0  0  0
  5 19  1  0  0  0  0
  5 11  1  1  0  0  0
  8 16  1  0  0  0  0
  8 12  1  0  0  0  0
  9 25  1  0  0  0  0
 11 20  1  0  0  0  0
 13  9  2  0  0  0  0
 13 24  1  0  0  0  0
 15 12  1  1  0  0  0
 15  4  1  0  0  0  0
 15  5  1  0  0  0  0
 16  3  1  0  0  0  0
 17 10  1  0  0  0  0
 17 28  1  1  0  0  0
 18  1  1  0  0  0  0
 18 20  2  0  0  0  0
 19  6  1  6  0  0  0
 20 13  1  0  0  0  0
 21 26  2  0  0  0  0
 22 10  1  0  0  0  0
 23 21  1  0  0  0  0
 23  4  2  0  0  0  0
 24 22  1  0  0  0  0
 25 14  1  6  0  0  0
 25 17  1  0  0  0  0
 27  2  1  0  0  0  0
 27  9  1  0  0  0  0
 28 29  1  0  0  0  0
 29 32  1  0  0  0  0
 30 33  1  0  0  0  0
 31 33  1  0  0  0  0
 32 31  1  0  0  0  0
 34 30  1  0  0  0  0
 34 32  1  0  0  0  0
M  END
>  <MODEL>
5

>  <REMARK>
 VINA RESULT:      -5.9      3.468      9.163
  Name = 
  3 active torsions:
  status: ('A' for Active; 'I' for Inactive)
    1  A    between atoms: C_17  and  O_28
    2  A    between atoms: O_28  and  C_29
    3  A    between atoms: C_29  and  C_32
                            x       y       z     vdW  Elec       q    Type
                         _______ _______ _______ _____ _____    ______ ____

>  <TORSDO>
F 3

$$$$
=
 OpenBabel11122414353D

 34 40  0  0  1  0  0  0  0  0999 V2000
  162.2810  208.9540  151.3940 C   0  0  1  0  0  3  0  0  0  0  0  0
  161.7580  210.9530  152.9170 C   0  0  0  0  0  3  0  0  0  0  0  0
  161.4210  202.5340  149.5860 C   0  0  1  0  0  3  0  0  0  0  0  0
  161.8730  206.9340  149.8830 C   0  0  0  0  0  0  0  0  0  0  0  0
  161.8100  204.6630  150.9870 C   0  0  2  0  0  3  0  0  0  0  0  0
  161.9510  202.4340  152.0640 C   0  0  0  0  0  1  0  0  0  0  0  0
  161.3920  201.1440  149.7220 O   0  0  0  0  0  1  0  0  0  0  0  0
  160.4610  204.3660  148.1400 C   0  0  0  0  0  2  0  0  0  0  0  0
  161.2430  208.7920  153.6630 C   0  0  0  0  0  0  0  0  0  0  0  0
  159.3900  208.1480  156.1480 C   0  0  0  0  0  2  0  0  0  0  0  0
  161.2560  205.3800  152.1360 N   0  0  0  0  0  2  0  0  0  0  0  0
  160.3130  205.2810  149.1870 O   0  0  0  0  0  0  0  0  0  0  0  0
  161.1980  207.4490  153.5980 C   0  0  0  0  0  0  0  0  0  0  0  0
  161.2170  211.0540  154.3480 C   0  0  0  0  0  3  0  0  0  0  0  0
  161.6070  205.4670  149.6820 C   0  0  1  0  0  3  0  0  0  0  0  0
  160.2860  202.9420  148.6520 C   0  0  0  0  0  2  0  0  0  0  0  0
  159.5360  209.4450  155.3530 C   0  0  2  0  0  3  0  0  0  0  0  0
  161.8480  207.5180  151.2350 C   0  0  0  0  0  0  0  0  0  0  0  0
  161.2650  203.2240  150.9570 C   0  0  2  0  0  3  0  0  0  0  0  0
  161.4690  206.7870  152.2960 C   0  0  0  0  0  0  0  0  0  0  0  0
  161.9670  209.1580  148.9930 C   0  0  0  0  0  3  0  0  0  0  0  0
  159.4200  206.9150  155.2550 C   0  0  0  0  0  2  0  0  0  0  0  0
  161.9270  207.7270  148.8530 N   0  0  0  0  0  0  0  0  0  0  0  0
  160.8400  206.6200  154.7940 C   0  0  0  0  0  2  0  0  0  0  0  0
  160.9810  209.6250  154.8670 C   0  0  1  0  0  3  0  0  0  0  0  0
  162.0730  209.7210  150.1630 N   0  0  0  0  0  0  0  0  0  0  0  0
  161.6030  209.5660  152.5330 N   0  0  0  0  0  0  0  0  0  0  0  0
  159.1640  210.5110  156.1780 O   0  0  0  0  0  0  0  0  0  0  0  0
  158.7470  211.5140  155.2990 C   0  0  0  0  0  2  0  0  0  0  0  0
  155.3010  210.7030  155.9860 C   0  0  0  0  0  2  0  0  0  0  0  0
  157.1030  211.7840  157.1520 C   0  0  0  0  0  2  0  0  0  0  0  0
  157.3540  211.9840  155.6730 C   0  0  0  0  0  3  0  0  0  0  0  0
  155.6360  211.4460  157.2600 C   0  0  0  0  0  2  0  0  0  0  0  0
  156.3130  211.1520  154.9470 C   0  0  0  0  0  2  0  0  0  0  0  0
  1 26  1  6  0  0  0
  1 27  1  0  0  0  0
  2 14  2  0  0  0  0
  3  7  1  1  0  0  0
  3 19  1  0  0  0  0
  4 18  1  0  0  0  0
  5 11  1  1  0  0  0
  8 16  1  0  0  0  0
  8 12  1  0  0  0  0
  9 25  1  0  0  0  0
 11 20  1  0  0  0  0
 13  9  2  0  0  0  0
 13 24  1  0  0  0  0
 15 12  1  1  0  0  0
 15  4  1  0  0  0  0
 15  5  1  0  0  0  0
 16  3  1  0  0  0  0
 17 10  1  0  0  0  0
 17 28  1  1  0  0  0
 18  1  1  0  0  0  0
 18 20  2  0  0  0  0
 19  5  1  0  0  0  0
 19  6  1  1  0  0  0
 20 13  1  0  0  0  0
 21 26  2  0  0  0  0
 22 10  1  0  0  0  0
 23 21  1  0  0  0  0
 23  4  2  0  0  0  0
 24 22  1  0  0  0  0
 25 14  1  6  0  0  0
 25 17  1  0  0  0  0
 27  2  1  0  0  0  0
 27  9  1  0  0  0  0
 29 32  1  0  0  0  0
 29 28  1  0  0  0  0
 30 33  1  0  0  0  0
 31 33  1  0  0  0  0
 32 31  1  0  0  0  0
 34 32  1  0  0  0  0
 34 30  1  0  0  0  0
M  END
>  <MODEL>
6

>  <REMARK>
 VINA RESULT:      -5.9      2.860      8.778
  Name = 
  3 active torsions:
  status: ('A' for Active; 'I' for Inactive)
    1  A    between atoms: C_17  and  O_28
    2  A    between atoms: O_28  and  C_29
    3  A    between atoms: C_29  and  C_32
                            x       y       z     vdW  Elec       q    Type
                         _______ _______ _______ _____ _____    ______ ____

>  <TORSDO>
F 3

$$$$
