=
 OpenBabel11122413183D

 31 35  0  0  1  0  0  0  0  0999 V2000
  160.9410  204.2540  152.1650 C   0  0  0  0  0  0  0  0  0  0  0  0
  161.8090  205.5170  148.6440 C   0  0  2  0  0  3  0  0  0  0  0  0
  161.2990  204.4050  147.7480 C   0  0  0  0  0  0  0  0  0  0  0  0
  161.9170  210.6510  150.2660 O   0  0  0  0  0  0  0  0  0  0  0  0
  161.9560  210.6090  149.0060 C   0  0  0  0  0  0  0  0  0  0  0  0
  160.8730  202.0070  147.2210 C   0  0  2  0  0  3  0  0  0  0  0  0
  161.3930  205.4790  150.1090 C   0  0  0  0  0  0  0  0  0  0  0  0
  160.8800  205.4540  152.8760 C   0  0  0  0  0  3  0  0  0  0  0  0
  161.3400  203.1220  148.1190 C   0  0  0  0  0  3  0  0  0  0  0  0
  161.6710  208.0740  148.9040 C   0  0  0  0  0  0  0  0  0  0  0  0
  160.7420  203.0480  152.8210 O   0  0  0  0  0  1  0  0  0  0  0  0
  161.0130  205.9420  145.9210 N   0  0  0  0  0  0  0  0  0  0  0  0
  161.7620  200.7940  147.3910 C   0  0  0  0  0  1  0  0  0  0  0  0
  161.5670  207.9480  150.1950 N   0  0  0  0  0  0  0  0  0  0  0  0
  161.5500  206.8840  148.0430 C   0  0  0  0  0  0  0  0  0  0  0  0
  161.8380  209.3660  148.3050 N   0  0  0  0  0  2  0  0  0  0  0  0
  161.2110  204.2670  150.7950 C   0  0  0  0  0  3  0  0  0  0  0  0
  160.8020  202.4040  145.7700 C   0  0  0  0  0  3  0  0  0  0  0  0
  161.3520  206.6870  150.8440 C   0  0  0  0  0  0  0  0  0  0  0  0
  161.0900  206.6660  152.2170 C   0  0  0  0  0  3  0  0  0  0  0  0
  161.2290  207.0280  146.7900 N   0  0  0  0  0  0  0  0  0  0  0  0
  161.0100  204.7130  146.3350 C   0  0  0  0  0  0  0  0  0  0  0  0
  160.8340  203.6470  145.3960 N   0  0  0  0  0  0  0  0  0  0  0  0
  162.5290  213.2790  145.6770 C   0  0  1  0  0  3  0  0  0  0  0  0
  163.4740  211.8370  147.4850 C   0  0  0  0  0  2  0  0  0  0  0  0
  159.7700  212.1930  147.9320 O   0  0  0  0  0  1  0  0  0  0  0  0
  162.7150  214.4520  144.9470 O   0  0  0  0  0  1  0  0  0  0  0  0
  163.6690  213.1160  146.6750 C   0  0  0  0  0  2  0  0  0  0  0  0
  160.9750  212.0790  147.2360 C   0  0  2  0  0  3  0  0  0  0  0  0
  162.1340  211.8690  148.2210 C   0  0  1  0  0  3  0  0  0  0  0  0
  161.1950  213.3460  146.4140 C   0  0  0  0  0  2  0  0  0  0  0  0
  1 11  1  0  0  0  0
  1  8  1  0  0  0  0
  2  3  1  6  0  0  0
  2  7  1  0  0  0  0
  3  9  2  0  0  0  0
  5  4  2  0  0  0  0
  6 13  1  6  0  0  0
  6  9  1  0  0  0  0
  7 17  1  0  0  0  0
  7 19  2  0  0  0  0
 10 14  2  0  0  0  0
 12 22  2  0  0  0  0
 12 21  1  0  0  0  0
 14 19  1  0  0  0  0
 15  2  1  0  0  0  0
 15 10  1  0  0  0  0
 16 10  1  0  0  0  0
 16  5  1  0  0  0  0
 17  1  2  0  0  0  0
 18  6  1  0  0  0  0
 19 20  1  0  0  0  0
 20  8  2  0  0  0  0
 21 15  2  0  0  0  0
 22  3  1  0  0  0  0
 23 18  2  0  0  0  0
 23 22  1  0  0  0  0
 24 27  1  1  0  0  0
 24 31  1  0  0  0  0
 24 28  1  0  0  0  0
 25 30  1  0  0  0  0
 28 25  1  0  0  0  0
 29 26  1  1  0  0  0
 29 30  1  0  0  0  0
 30  5  1  6  0  0  0
 31 29  1  0  0  0  0
M  END
>  <MODEL>
1

>  <REMARK>
 VINA RESULT:      -9.2      0.000      0.000
  Name = 
  1 active torsions:
  status: ('A' for Active; 'I' for Inactive)
    1  A    between atoms: C_5  and  C_30
                            x       y       z     vdW  Elec       q    Type
                         _______ _______ _______ _____ _____    ______ ____

>  <TORSDO>
F 1

$$$$
=
 OpenBabel11122413183D

 31 35  0  0  1  0  0  0  0  0999 V2000
  160.9280  207.7700  154.2420 C   0  0  0  0  0  0  0  0  0  0  0  0
  161.8100  207.3480  150.5290 C   0  0  2  0  0  3  0  0  0  0  0  0
  161.3420  205.9380  150.2250 C   0  0  0  0  0  0  0  0  0  0  0  0
  161.7650  212.6650  149.6800 O   0  0  0  0  0  0  0  0  0  0  0  0
  161.8230  212.0640  148.5720 C   0  0  0  0  0  0  0  0  0  0  0  0
  160.9840  203.5460  150.8280 C   0  0  2  0  0  3  0  0  0  0  0  0
  161.3770  207.9570  151.8560 C   0  0  0  0  0  0  0  0  0  0  0  0
  160.8270  209.1580  154.3410 C   0  0  0  0  0  3  0  0  0  0  0  0
  161.4110  204.9580  151.1320 C   0  0  0  0  0  3  0  0  0  0  0  0
  161.6040  209.7450  149.6170 C   0  0  0  0  0  0  0  0  0  0  0  0
  160.7510  206.9790  155.3690 O   0  0  0  0  0  1  0  0  0  0  0  0
  161.0410  206.4850  147.9040 N   0  0  0  0  0  0  0  0  0  0  0  0
  161.9010  202.5640  151.5240 C   0  0  0  0  0  1  0  0  0  0  0  0
  161.4860  210.2070  150.8270 N   0  0  0  0  0  0  0  0  0  0  0  0
  161.5250  208.2930  149.3790 C   0  0  0  0  0  0  0  0  0  0  0  0
  161.7460  210.6360  148.5020 N   0  0  0  0  0  2  0  0  0  0  0  0
  161.2160  207.1760  153.0120 C   0  0  0  0  0  3  0  0  0  0  0  0
  160.9230  203.2490  149.3530 C   0  0  0  0  0  3  0  0  0  0  0  0
  161.2940  209.3640  151.9720 C   0  0  0  0  0  0  0  0  0  0  0  0
  161.0140  209.9530  153.2080 C   0  0  0  0  0  3  0  0  0  0  0  0
  161.2170  207.8510  148.1940 N   0  0  0  0  0  0  0  0  0  0  0  0
  161.0640  205.5720  148.8240 C   0  0  0  0  0  0  0  0  0  0  0  0
  160.9280  204.1930  148.4620 N   0  0  0  0  0  0  0  0  0  0  0  0
  162.3180  212.9760  144.3930 C   0  0  1  0  0  3  0  0  0  0  0  0
  163.3050  212.4840  146.6350 C   0  0  0  0  0  2  0  0  0  0  0  0
  159.6080  213.0140  146.9490 O   0  0  0  0  0  1  0  0  0  0  0  0
  162.4840  213.7020  143.2150 O   0  0  0  0  0  1  0  0  0  0  0  0
  163.4780  213.2700  145.3380 C   0  0  0  0  0  2  0  0  0  0  0  0
  160.8010  212.5990  146.3530 C   0  0  2  0  0  3  0  0  0  0  0  0
  161.9790  212.8440  147.3060 C   0  0  1  0  0  3  0  0  0  0  0  0
  160.9980  213.3680  145.0500 C   0  0  0  0  0  2  0  0  0  0  0  0
  1  8  1  0  0  0  0
  1 11  1  0  0  0  0
  2 15  1  6  0  0  0
  2  7  1  0  0  0  0
  3  2  1  0  0  0  0
  3  9  2  0  0  0  0
  5  4  2  0  0  0  0
  6  9  1  0  0  0  0
  6 13  1  1  0  0  0
  7 19  2  0  0  0  0
  7 17  1  0  0  0  0
 10 14  2  0  0  0  0
 12 21  1  0  0  0  0
 12 22  2  0  0  0  0
 14 19  1  0  0  0  0
 15 10  1  0  0  0  0
 16  5  1  0  0  0  0
 16 10  1  0  0  0  0
 17  1  2  0  0  0  0
 18  6  1  0  0  0  0
 19 20  1  0  0  0  0
 20  8  2  0  0  0  0
 21 15  2  0  0  0  0
 22  3  1  0  0  0  0
 23 22  1  0  0  0  0
 23 18  2  0  0  0  0
 24 27  1  6  0  0  0
 24 31  1  0  0  0  0
 24 28  1  0  0  0  0
 25 30  1  0  0  0  0
 28 25  1  0  0  0  0
 29 26  1  1  0  0  0
 29 30  1  0  0  0  0
 30  5  1  1  0  0  0
 31 29  1  0  0  0  0
M  END
>  <MODEL>
2

>  <REMARK>
 VINA RESULT:      -8.9      1.894      2.746
  Name = 
  1 active torsions:
  status: ('A' for Active; 'I' for Inactive)
    1  A    between atoms: C_5  and  C_30
                            x       y       z     vdW  Elec       q    Type
                         _______ _______ _______ _____ _____    ______ ____

>  <TORSDO>
F 1

$$$$
=
 OpenBabel11122413183D

 31 35  0  0  1  0  0  0  0  0999 V2000
  160.9440  201.8210  150.4380 C   0  0  0  0  0  0  0  0  0  0  0  0
  161.6650  205.4400  149.3760 C   0  0  2  0  0  3  0  0  0  0  0  0
  161.2940  205.4440  147.9060 C   0  0  0  0  0  0  0  0  0  0  0  0
  161.1580  207.2600  154.4190 O   0  0  0  0  0  0  0  0  0  0  0  0
  161.2060  208.2380  153.6230 C   0  0  0  0  0  0  0  0  0  0  0  0
  161.1570  204.3840  145.6550 C   0  0  2  0  0  3  0  0  0  0  0  0
  161.2540  204.2250  150.1970 C   0  0  0  0  0  0  0  0  0  0  0  0
  160.7400  201.9760  151.8100 C   0  0  0  0  0  3  0  0  0  0  0  0
  161.4860  204.3770  147.1240 C   0  0  0  0  0  3  0  0  0  0  0  0
  161.2240  206.7680  151.5360 C   0  0  0  0  0  0  0  0  0  0  0  0
  160.8890  200.5580  149.8670 O   0  0  0  0  0  1  0  0  0  0  0  0
  160.8310  207.8020  147.9790 N   0  0  0  0  0  0  0  0  0  0  0  0
  162.1830  203.5790  144.8870 C   0  0  0  0  0  1  0  0  0  0  0  0
  161.1330  205.6600  152.2120 N   0  0  0  0  0  0  0  0  0  0  0  0
  161.2480  206.7250  150.0640 C   0  0  0  0  0  0  0  0  0  0  0  0
  161.2370  208.0360  152.2060 N   0  0  0  0  0  2  0  0  0  0  0  0
  161.2150  202.9350  149.6420 C   0  0  0  0  0  3  0  0  0  0  0  0
  161.0430  205.7710  145.0780 C   0  0  0  0  0  3  0  0  0  0  0  0
  161.0670  204.3680  151.5920 C   0  0  0  0  0  0  0  0  0  0  0  0
  160.8060  203.2470  152.3850 C   0  0  0  0  0  3  0  0  0  0  0  0
  160.9150  207.7840  149.3840 N   0  0  0  0  0  0  0  0  0  0  0  0
  160.9740  206.7310  147.2620 C   0  0  0  0  0  0  0  0  0  0  0  0
  160.9280  206.8210  145.8340 N   0  0  0  0  0  0  0  0  0  0  0  0
  159.9860  211.8580  155.6100 C   0  0  1  0  0  3  0  0  0  0  0  0
  160.0840  210.4440  153.5540 C   0  0  0  0  0  2  0  0  0  0  0  0
  162.2720  208.9810  156.2220 O   0  0  0  0  0  1  0  0  0  0  0  0
  160.0030  213.1670  156.0890 O   0  0  0  0  0  1  0  0  0  0  0  0
  160.0970  211.8720  154.0900 C   0  0  0  0  0  2  0  0  0  0  0  0
  161.1670  209.6480  155.6880 C   0  0  2  0  0  3  0  0  0  0  0  0
  161.2340  209.6350  154.1560 C   0  0  1  0  0  3  0  0  0  0  0  0
  161.1540  211.0820  156.2110 C   0  0  0  0  0  2  0  0  0  0  0  0
  1  8  1  0  0  0  0
  2  3  1  6  0  0  0
  2 15  1  0  0  0  0
  2  7  1  0  0  0  0
  5  4  2  0  0  0  0
  6 13  1  6  0  0  0
  6  9  1  0  0  0  0
  7 19  2  0  0  0  0
  8 20  2  0  0  0  0
  9  3  2  0  0  0  0
 10 16  1  0  0  0  0
 10 14  2  0  0  0  0
 11  1  1  0  0  0  0
 12 21  1  0  0  0  0
 15 10  1  0  0  0  0
 16  5  1  0  0  0  0
 17  7  1  0  0  0  0
 17  1  2  0  0  0  0
 18  6  1  0  0  0  0
 18 23  2  0  0  0  0
 19 14  1  0  0  0  0
 19 20  1  0  0  0  0
 21 15  2  0  0  0  0
 22  3  1  0  0  0  0
 22 12  2  0  0  0  0
 23 22  1  0  0  0  0
 24 27  1  1  0  0  0
 24 31  1  0  0  0  0
 25 28  1  0  0  0  0
 25 30  1  0  0  0  0
 28 24  1  0  0  0  0
 29 31  1  0  0  0  0
 29 26  1  1  0  0  0
 30  5  1  6  0  0  0
 30 29  1  0  0  0  0
M  END
>  <MODEL>
3

>  <REMARK>
 VINA RESULT:      -8.1      4.182      5.358
  Name = 
  1 active torsions:
  status: ('A' for Active; 'I' for Inactive)
    1  A    between atoms: C_5  and  C_30
                            x       y       z     vdW  Elec       q    Type
                         _______ _______ _______ _____ _____    ______ ____

>  <TORSDO>
F 1

$$$$
=
 OpenBabel11122413183D

 31 35  0  0  1  0  0  0  0  0999 V2000
  162.1210  206.1280  146.6540 C   0  0  0  0  0  0  0  0  0  0  0  0
  160.6960  205.2350  150.1060 C   0  0  2  0  0  3  0  0  0  0  0  0
  161.0440  203.7650  150.2490 C   0  0  0  0  0  0  0  0  0  0  0  0
  160.8920  210.3540  151.7630 O   0  0  0  0  0  0  0  0  0  0  0  0
  160.6460  209.6050  152.7470 C   0  0  0  0  0  0  0  0  0  0  0  0
  161.3610  201.4680  149.3380 C   0  0  2  0  0  3  0  0  0  0  0  0
  161.3460  205.9980  148.9590 C   0  0  0  0  0  0  0  0  0  0  0  0
  162.3060  207.5050  146.7850 C   0  0  0  0  0  3  0  0  0  0  0  0
  161.0550  202.9360  149.2010 C   0  0  0  0  0  3  0  0  0  0  0  0
  160.8930  207.4520  151.3970 C   0  0  0  0  0  0  0  0  0  0  0  0
  162.4160  205.4990  145.4530 O   0  0  0  0  0  1  0  0  0  0  0  0
  161.0380  203.9460  152.6460 N   0  0  0  0  0  0  0  0  0  0  0  0
  160.5030  200.6650  148.3830 C   0  0  0  0  0  1  0  0  0  0  0  0
  161.2060  208.0760  150.2990 N   0  0  0  0  0  0  0  0  0  0  0  0
  160.8620  205.9790  151.4160 C   0  0  0  0  0  0  0  0  0  0  0  0
  160.6390  208.1800  152.6070 N   0  0  0  0  0  2  0  0  0  0  0  0
  161.6300  205.3830  147.7290 C   0  0  0  0  0  3  0  0  0  0  0  0
  161.1950  200.9550  150.7440 C   0  0  0  0  0  3  0  0  0  0  0  0
  161.5160  207.3970  149.0730 C   0  0  0  0  0  0  0  0  0  0  0  0
  161.9990  208.1380  147.9910 C   0  0  0  0  0  3  0  0  0  0  0  0
  160.9750  205.3490  152.5490 N   0  0  0  0  0  0  0  0  0  0  0  0
  161.0990  203.1800  151.6010 C   0  0  0  0  0  0  0  0  0  0  0  0
  161.1110  201.7580  151.7620 N   0  0  0  0  0  0  0  0  0  0  0  0
  160.5080  212.4160  156.0050 C   0  0  1  0  0  3  0  0  0  0  0  0
  161.6590  210.5590  154.7950 C   0  0  0  0  0  2  0  0  0  0  0  0
  158.2210  211.0700  153.3920 O   0  0  0  0  0  1  0  0  0  0  0  0
  160.2520  212.9650  157.2610 O   0  0  0  0  0  1  0  0  0  0  0  0
  161.3750  211.1720  156.1620 C   0  0  0  0  0  2  0  0  0  0  0  0
  159.4440  211.4320  153.9600 C   0  0  2  0  0  3  0  0  0  0  0  0
  160.3510  210.2010  154.0870 C   0  0  1  0  0  3  0  0  0  0  0  0
  159.1900  212.0520  155.3310 C   0  0  0  0  0  2  0  0  0  0  0  0
  1  8  2  0  0  0  0
  1 17  1  0  0  0  0
  2  7  1  6  0  0  0
  2  3  1  0  0  0  0
  2 15  1  0  0  0  0
  3 22  1  0  0  0  0
  4  5  2  0  0  0  0
  6 13  1  6  0  0  0
  6 18  1  0  0  0  0
  7 19  1  0  0  0  0
  8 20  1  0  0  0  0
  9  6  1  0  0  0  0
  9  3  2  0  0  0  0
 10 15  1  0  0  0  0
 10 16  1  0  0  0  0
 11  1  1  0  0  0  0
 14 10  2  0  0  0  0
 15 21  2  0  0  0  0
 16  5  1  0  0  0  0
 17  7  2  0  0  0  0
 18 23  2  0  0  0  0
 19 14  1  0  0  0  0
 20 19  2  0  0  0  0
 21 12  1  0  0  0  0
 22 23  1  0  0  0  0
 22 12  2  0  0  0  0
 24 28  1  0  0  0  0
 24 27  1  1  0  0  0
 25 28  1  0  0  0  0
 29 26  1  1  0  0  0
 29 30  1  0  0  0  0
 29 31  1  0  0  0  0
 30  5  1  6  0  0  0
 30 25  1  0  0  0  0
 31 24  1  0  0  0  0
M  END
>  <MODEL>
4

>  <REMARK>
 VINA RESULT:      -7.5      3.815      5.907
  Name = 
  1 active torsions:
  status: ('A' for Active; 'I' for Inactive)
    1  A    between atoms: C_5  and  C_30
                            x       y       z     vdW  Elec       q    Type
                         _______ _______ _______ _____ _____    ______ ____

>  <TORSDO>
F 1

$$$$
=
 OpenBabel11122413183D

 31 35  0  0  1  0  0  0  0  0999 V2000
  161.4530  212.3670  149.8060 C   0  0  0  0  0  0  0  0  0  0  0  0
  161.8920  208.8600  151.3060 C   0  0  2  0  0  3  0  0  0  0  0  0
  161.3290  209.0150  152.7060 C   0  0  0  0  0  0  0  0  0  0  0  0
  161.9910  206.5460  146.4450 O   0  0  0  0  0  0  0  0  0  0  0  0
  161.8960  205.6540  147.3320 C   0  0  0  0  0  0  0  0  0  0  0  0
  160.9350  210.3030  154.8020 C   0  0  2  0  0  3  0  0  0  0  0  0
  161.6380  209.9940  150.3220 C   0  0  0  0  0  0  0  0  0  0  0  0
  161.4270  212.0770  148.4410 C   0  0  0  0  0  3  0  0  0  0  0  0
  161.4560  210.1520  153.3980 C   0  0  0  0  0  3  0  0  0  0  0  0
  161.6920  207.3290  149.2480 C   0  0  0  0  0  0  0  0  0  0  0  0
  161.3690  213.6830  150.2370 O   0  0  0  0  0  1  0  0  0  0  0  0
  160.7930  206.6730  152.8030 N   0  0  0  0  0  0  0  0  0  0  0  0
  161.8790  211.1580  155.6190 C   0  0  0  0  0  1  0  0  0  0  0  0
  161.7320  208.3640  148.4600 N   0  0  0  0  0  0  0  0  0  0  0  0
  161.5220  207.5220  150.6980 C   0  0  0  0  0  0  0  0  0  0  0  0
  161.7480  205.9990  148.7130 N   0  0  0  0  0  2  0  0  0  0  0  0
  161.5740  211.3340  150.7370 C   0  0  0  0  0  3  0  0  0  0  0  0
  160.6940  208.9860  155.4920 C   0  0  0  0  0  3  0  0  0  0  0  0
  161.6330  209.7140  148.9360 C   0  0  0  0  0  0  0  0  0  0  0  0
  161.5210  210.7530  148.0080 C   0  0  0  0  0  3  0  0  0  0  0  0
  161.0630  206.5460  151.4270 N   0  0  0  0  0  0  0  0  0  0  0  0
  160.8790  207.8090  153.4240 C   0  0  0  0  0  0  0  0  0  0  0  0
  160.6410  207.8670  154.8340 N   0  0  0  0  0  0  0  0  0  0  0  0
  160.6330  201.6170  146.5270 C   0  0  1  0  0  3  0  0  0  0  0  0
  161.4780  203.3450  148.1210 C   0  0  0  0  0  2  0  0  0  0  0  0
  161.5890  204.6680  144.6160 O   0  0  0  0  0  1  0  0  0  0  0  0
  160.6800  200.2650  146.1890 O   0  0  0  0  0  1  0  0  0  0  0  0
  161.5170  201.8670  147.7430 C   0  0  0  0  0  2  0  0  0  0  0  0
  161.0950  203.9380  145.6990 C   0  0  2  0  0  3  0  0  0  0  0  0
  161.9440  204.2090  146.9480 C   0  0  1  0  0  3  0  0  0  0  0  0
  161.1210  202.4530  145.3470 C   0  0  0  0  0  2  0  0  0  0  0  0
  1 11  1  0  0  0  0
  1 17  1  0  0  0  0
  2  7  1  6  0  0  0
  2  3  1  0  0  0  0
  3  9  2  0  0  0  0
  3 22  1  0  0  0  0
  4  5  2  0  0  0  0
  5 16  1  0  0  0  0
  6 18  1  0  0  0  0
  6 13  1  1  0  0  0
  7 17  2  0  0  0  0
  8  1  2  0  0  0  0
  9  6  1  0  0  0  0
 10 15  1  0  0  0  0
 12 22  2  0  0  0  0
 14 19  1  0  0  0  0
 14 10  2  0  0  0  0
 15  2  1  0  0  0  0
 15 21  2  0  0  0  0
 16 10  1  0  0  0  0
 19  7  1  0  0  0  0
 20  8  1  0  0  0  0
 20 19  2  0  0  0  0
 21 12  1  0  0  0  0
 22 23  1  0  0  0  0
 23 18  2  0  0  0  0
 24 27  1  6  0  0  0
 24 28  1  0  0  0  0
 28 25  1  0  0  0  0
 29 26  1  6  0  0  0
 29 30  1  0  0  0  0
 30  5  1  1  0  0  0
 30 25  1  0  0  0  0
 31 29  1  0  0  0  0
 31 24  1  0  0  0  0
M  END
>  <MODEL>
5

>  <REMARK>
 VINA RESULT:      -6.9      3.196      8.325
  Name = 
  1 active torsions:
  status: ('A' for Active; 'I' for Inactive)
    1  A    between atoms: C_5  and  C_30
                            x       y       z     vdW  Elec       q    Type
                         _______ _______ _______ _____ _____    ______ ____

>  <TORSDO>
F 1

$$$$
=
 OpenBabel11122413183D

 31 35  0  0  1  0  0  0  0  0999 V2000
  160.8090  210.6250  155.0030 C   0  0  0  0  0  0  0  0  0  0  0  0
  160.7290  209.6720  151.2840 C   0  0  2  0  0  3  0  0  0  0  0  0
  161.1510  210.9550  150.5940 C   0  0  0  0  0  0  0  0  0  0  0  0
  161.3370  204.4350  152.3800 O   0  0  0  0  0  0  0  0  0  0  0  0
  161.4800  204.6240  151.1410 C   0  0  0  0  0  0  0  0  0  0  0  0
  161.1970  213.4370  150.3730 C   0  0  2  0  0  3  0  0  0  0  0  0
  160.9060  209.6010  152.7950 C   0  0  0  0  0  0  0  0  0  0  0  0
  160.9850  209.3760  155.5990 C   0  0  0  0  0  3  0  0  0  0  0  0
  160.8160  212.1580  151.0710 C   0  0  0  0  0  3  0  0  0  0  0  0
  161.3000  207.1640  151.3250 C   0  0  0  0  0  0  0  0  0  0  0  0
  160.6790  211.7590  155.7920 O   0  0  0  0  0  1  0  0  0  0  0  0
  161.9890  209.7230  148.7070 N   0  0  0  0  0  0  0  0  0  0  0  0
  160.0820  214.4530  150.5010 C   0  0  0  0  0  1  0  0  0  0  0  0
  161.1840  207.1470  152.6210 N   0  0  0  0  0  0  0  0  0  0  0  0
  161.3250  208.4520  150.6110 C   0  0  0  0  0  0  0  0  0  0  0  0
  161.4690  205.9440  150.5880 N   0  0  0  0  0  2  0  0  0  0  0  0
  160.7540  210.7340  153.6120 C   0  0  0  0  0  3  0  0  0  0  0  0
  161.5570  213.2380  148.9240 C   0  0  0  0  0  3  0  0  0  0  0  0
  161.0610  208.3380  153.4110 C   0  0  0  0  0  0  0  0  0  0  0  0
  161.1060  208.2350  154.8040 C   0  0  0  0  0  3  0  0  0  0  0  0
  161.8510  208.5180  149.4220 N   0  0  0  0  0  0  0  0  0  0  0  0
  161.7000  210.8750  149.2280 C   0  0  0  0  0  0  0  0  0  0  0  0
  161.8130  212.0620  148.4350 N   0  0  0  0  0  0  0  0  0  0  0  0
  160.5650  201.3340  148.5180 C   0  0  1  0  0  3  0  0  0  0  0  0
  160.9810  202.2210  150.8150 C   0  0  0  0  0  2  0  0  0  0  0  0
  161.8040  204.8370  148.2610 O   0  0  0  0  0  1  0  0  0  0  0  0
  160.7310  200.2330  147.6790 O   0  0  0  0  0  1  0  0  0  0  0  0
  161.1530  201.0210  149.8880 C   0  0  0  0  0  2  0  0  0  0  0  0
  161.1130  203.7610  148.8220 C   0  0  2  0  0  3  0  0  0  0  0  0
  161.6600  203.4570  150.2230 C   0  0  1  0  0  3  0  0  0  0  0  0
  161.2660  202.5450  147.9120 C   0  0  0  0  0  2  0  0  0  0  0  0
  1  8  1  0  0  0  0
  1 11  1  0  0  0  0
  2  3  1  6  0  0  0
  2  7  1  0  0  0  0
  3  9  2  0  0  0  0
  5  4  2  0  0  0  0
  6 13  1  6  0  0  0
  6  9  1  0  0  0  0
  7 19  2  0  0  0  0
  7 17  1  0  0  0  0
 10 14  2  0  0  0  0
 12 22  2  0  0  0  0
 12 21  1  0  0  0  0
 14 19  1  0  0  0  0
 15  2  1  0  0  0  0
 15 10  1  0  0  0  0
 16  5  1  0  0  0  0
 16 10  1  0  0  0  0
 17  1  2  0  0  0  0
 18  6  1  0  0  0  0
 19 20  1  0  0  0  0
 20  8  2  0  0  0  0
 21 15  2  0  0  0  0
 22  3  1  0  0  0  0
 23 18  2  0  0  0  0
 23 22  1  0  0  0  0
 24 27  1  6  0  0  0
 24 28  1  0  0  0  0
 28 25  1  0  0  0  0
 29 26  1  6  0  0  0
 29 30  1  0  0  0  0
 30 25  1  0  0  0  0
 30  5  1  1  0  0  0
 31 24  1  0  0  0  0
 31 29  1  0  0  0  0
M  END
>  <MODEL>
6

>  <REMARK>
 VINA RESULT:      -6.5      3.340      8.295
  Name = 
  1 active torsions:
  status: ('A' for Active; 'I' for Inactive)
    1  A    between atoms: C_5  and  C_30
                            x       y       z     vdW  Elec       q    Type
                         _______ _______ _______ _____ _____    ______ ____

>  <TORSDO>
F 1

$$$$
=
 OpenBabel11122413183D

 31 35  0  0  1  0  0  0  0  0999 V2000
  157.1890  211.8730  155.7430 C   0  0  0  0  0  0  0  0  0  0  0  0
  160.1560  210.6890  153.6120 C   0  0  2  0  0  3  0  0  0  0  0  0
  160.3350  209.2480  154.0470 C   0  0  0  0  0  0  0  0  0  0  0  0
  159.2610  214.4530  149.8670 O   0  0  0  0  0  0  0  0  0  0  0  0
  160.1100  213.6260  149.4350 C   0  0  0  0  0  0  0  0  0  0  0  0
  160.3170  207.4340  155.7560 C   0  0  2  0  0  3  0  0  0  0  0  0
  158.8880  211.4030  154.0620 C   0  0  0  0  0  0  0  0  0  0  0  0
  156.6990  212.9240  154.9650 C   0  0  0  0  0  3  0  0  0  0  0  0
  160.1050  208.8540  155.3040 C   0  0  0  0  0  3  0  0  0  0  0  0
  159.9210  212.0980  151.4720 C   0  0  0  0  0  0  0  0  0  0  0  0
  156.5940  211.5740  156.9600 O   0  0  0  0  0  1  0  0  0  0  0  0
  161.3270  208.6800  151.9330 N   0  0  0  0  0  0  0  0  0  0  0  0
  160.8640  207.4110  157.1670 C   0  0  0  0  0  1  0  0  0  0  0  0
  159.0010  212.8240  152.0380 N   0  0  0  0  0  0  0  0  0  0  0  0
  160.3710  210.8550  152.1210 C   0  0  0  0  0  0  0  0  0  0  0  0
  160.4570  212.4610  150.1910 N   0  0  0  0  0  2  0  0  0  0  0  0
  158.2850  211.1290  155.3010 C   0  0  0  0  0  3  0  0  0  0  0  0
  161.2120  206.6450  154.8370 C   0  0  0  0  0  3  0  0  0  0  0  0
  158.3960  212.4830  153.2930 C   0  0  0  0  0  0  0  0  0  0  0  0
  157.3050  213.2300  153.7450 C   0  0  0  0  0  3  0  0  0  0  0  0
  160.9440  209.9280  151.4080 N   0  0  0  0  0  0  0  0  0  0  0  0
  161.0380  208.3180  153.1440 C   0  0  0  0  0  0  0  0  0  0  0  0
  161.4990  207.0560  153.6390 N   0  0  0  0  0  0  0  0  0  0  0  0
  162.6750  213.0700  146.0220 C   0  0  1  0  0  3  0  0  0  0  0  0
  162.2850  213.9910  148.3110 C   0  0  0  0  0  2  0  0  0  0  0  0
  159.0750  212.6770  146.8910 O   0  0  0  0  0  1  0  0  0  0  0  0
  163.3100  213.2940  144.8020 O   0  0  0  0  0  1  0  0  0  0  0  0
  162.9780  214.2230  146.9720 C   0  0  0  0  0  2  0  0  0  0  0  0
  160.4500  212.7280  147.1250 C   0  0  2  0  0  3  0  0  0  0  0  0
  160.7740  213.8560  148.1150 C   0  0  1  0  0  3  0  0  0  0  0  0
  161.1710  212.9580  145.8000 C   0  0  0  0  0  2  0  0  0  0  0  0
  1 11  1  0  0  0  0
  2 15  1  6  0  0  0
  2  3  1  0  0  0  0
  2  7  1  0  0  0  0
  3  9  2  0  0  0  0
  5  4  2  0  0  0  0
  5 16  1  0  0  0  0
  6 13  1  1  0  0  0
  7 17  2  0  0  0  0
  8  1  2  0  0  0  0
  9  6  1  0  0  0  0
 10 14  2  0  0  0  0
 10 15  1  0  0  0  0
 12 22  2  0  0  0  0
 14 19  1  0  0  0  0
 16 10  1  0  0  0  0
 17  1  1  0  0  0  0
 18  6  1  0  0  0  0
 19 20  2  0  0  0  0
 19  7  1  0  0  0  0
 20  8  1  0  0  0  0
 21 12  1  0  0  0  0
 21 15  2  0  0  0  0
 22 23  1  0  0  0  0
 22  3  1  0  0  0  0
 23 18  2  0  0  0  0
 24 27  1  6  0  0  0
 24 28  1  0  0  0  0
 28 25  1  0  0  0  0
 29 26  1  6  0  0  0
 29 30  1  0  0  0  0
 30 25  1  0  0  0  0
 30  5  1  1  0  0  0
 31 24  1  0  0  0  0
 31 29  1  0  0  0  0
M  END
>  <MODEL>
7

>  <REMARK>
 VINA RESULT:      -6.2      5.283      6.799
  Name = 
  1 active torsions:
  status: ('A' for Active; 'I' for Inactive)
    1  A    between atoms: C_5  and  C_30
                            x       y       z     vdW  Elec       q    Type
                         _______ _______ _______ _____ _____    ______ ____

>  <TORSDO>
F 1

$$$$
