=
 OpenBabel11122413023D

 32 37  0  0  1  0  0  0  0  0999 V2000
  162.1720  209.8040  153.7590 C   0  0  0  0  0  2  0  0  0  0  0  0
  161.2180  206.1360  150.1420 C   0  0  0  0  0  0  0  0  0  0  0  0
  161.5010  201.3850  151.6710 C   0  0  0  0  0  2  0  0  0  0  0  0
  160.4070  201.1940  150.8070 O   0  0  0  0  0  0  0  0  0  0  0  0
  161.1870  206.3410  147.6100 C   0  0  0  0  0  0  0  0  0  0  0  0
  160.9520  205.6270  146.3100 C   0  0  1  0  0  3  0  0  0  0  0  0
  160.6690  207.9690  151.7660 C   0  0  1  0  0  3  0  0  0  0  0  0
  161.1300  205.6970  152.6670 C   0  0  0  0  0  2  0  0  0  0  0  0
  161.4420  203.8450  144.9660 C   0  0  2  0  0  3  0  0  0  0  0  0
  161.1960  207.6430  154.2640 C   0  0  0  0  0  2  0  0  0  0  0  0
  161.6970  202.8500  151.9700 C   0  0  0  0  0  3  0  0  0  0  0  0
  161.6450  205.2310  151.3000 C   0  0  1  0  0  3  0  0  0  0  0  0
  161.3440  203.7700  151.0560 C   0  0  0  0  0  0  0  0  0  0  0  0
  161.3920  204.0620  148.6080 C   0  0  1  0  0  3  0  0  0  0  0  0
  161.5280  205.0890  144.0820 C   0  0  0  0  0  2  0  0  0  0  0  0
  162.1300  209.7220  152.2240 C   0  0  0  0  0  2  0  0  0  0  0  0
  161.4540  207.1690  152.8290 C   0  0  2  0  0  3  0  0  0  0  0  0
  161.4070  206.2790  145.0290 C   0  0  0  0  0  2  0  0  0  0  0  0
  160.8380  209.3810  151.7710 O   0  0  0  0  0  0  0  0  0  0  0  0
  161.0380  209.0980  154.3690 N   0  0  0  0  0  0  0  0  0  0  0  0
  160.7560  201.8140  149.5940 C   0  0  0  0  0  2  0  0  0  0  0  0
  160.6910  203.3420  149.7570 C   0  0  1  0  0  3  0  0  0  0  0  0
  160.9390  203.5630  147.3010 N   0  0  0  0  0  2  0  0  0  0  0  0
  160.8320  207.4010  150.3850 C   0  0  0  0  0  3  0  0  0  0  0  0
  161.1740  207.8370  147.6040 C   0  0  0  0  0  1  0  0  0  0  0  0
  160.0990  203.1570  144.7240 C   0  0  0  0  0  1  0  0  0  0  0  0
  161.2390  205.5860  148.7440 C   0  0  0  0  0  0  0  0  0  0  0  0
  161.6060  204.3390  146.3350 N   0  0  2  0  0  0  0  0  0  0  0  0
  161.0470  209.4190  155.7860 C   0  0  0  0  0  2  0  0  0  0  0  0
  161.9550  210.6080  156.0470 C   0  0  2  0  0  3  0  0  0  0  0  0
  162.9190  210.2700  157.1640 C   0  0  0  0  0  1  0  0  0  0  0  0
  161.1900  211.7140  156.4190 O   0  0  0  0  0  1  0  0  0  0  0  0
  1 20  1  0  0  0  0
  2 24  2  0  0  0  0
  2 12  1  0  0  0  0
  3 11  1  0  0  0  0
  4  3  1  0  0  0  0
  5 27  2  0  0  0  0
  6 18  1  6  0  0  0
  6 28  1  0  0  0  0
  6  5  1  0  0  0  0
  7 24  1  6  0  0  0
  7 19  1  0  0  0  0
  7 17  1  0  0  0  0
  9 26  1  1  0  0  0
  9 28  1  0  0  0  0
 10 20  1  0  0  0  0
 12  8  1  1  0  0  0
 13 12  1  0  0  0  0
 13 11  2  0  0  0  0
 14 23  1  6  0  0  0
 14 27  1  0  0  0  0
 14 22  1  0  0  0  0
 15  9  1  0  0  0  0
 15 18  1  0  0  0  0
 16  1  1  0  0  0  0
 17  8  1  1  0  0  0
 17 10  1  0  0  0  0
 19 16  1  0  0  0  0
 20 29  1  0  0  0  0
 21  4  1  0  0  0  0
 22 21  1  6  0  0  0
 22 13  1  0  0  0  0
 25  5  1  0  0  0  0
 27  2  1  0  0  0  0
 28 23  1  1  0  0  0
 29 30  1  0  0  0  0
 30 32  1  0  0  0  0
 30 31  1  1  0  0  0
M  END
>  <MODEL>
1

>  <REMARK>
 VINA RESULT:      -8.7      0.000      0.000
  Name = 
  2 active torsions:
  status: ('A' for Active; 'I' for Inactive)
    1  A    between atoms: N_20  and  C_29
    2  A    between atoms: C_29  and  C_30
                            x       y       z     vdW  Elec       q    Type
                         _______ _______ _______ _____ _____    ______ ____

>  <TORSDO>
F 2

$$$$
=
 OpenBabel11122413023D

 32 37  0  0  1  0  0  0  0  0999 V2000
  159.7560  208.3300  156.5900 C   0  0  0  0  0  2  0  0  0  0  0  0
  161.0690  206.3370  151.9270 C   0  0  0  0  0  0  0  0  0  0  0  0
  161.9440  209.6330  148.2720 C   0  0  0  0  0  2  0  0  0  0  0  0
  162.9570  208.7300  147.8980 O   0  0  0  0  0  0  0  0  0  0  0  0
  160.7920  203.9680  151.0520 C   0  0  0  0  0  0  0  0  0  0  0  0
  161.0330  203.0340  149.9010 C   0  0  1  0  0  3  0  0  0  0  0  0
  161.3910  206.9820  154.3300 C   0  0  1  0  0  3  0  0  0  0  0  0
  161.5100  208.7700  152.6060 C   0  0  0  0  0  2  0  0  0  0  0  0
  160.7880  202.6110  147.6690 C   0  0  2  0  0  3  0  0  0  0  0  0
  161.2080  209.4580  155.0100 C   0  0  0  0  0  2  0  0  0  0  0  0
  161.4790  209.3630  149.6810 C   0  0  0  0  0  3  0  0  0  0  0  0
  160.9640  207.8140  151.5390 C   0  0  1  0  0  3  0  0  0  0  0  0
  161.5350  208.1130  150.1730 C   0  0  0  0  0  0  0  0  0  0  0  0
  161.1720  205.8000  149.4000 C   0  0  1  0  0  3  0  0  0  0  0  0
  160.3530  201.3410  148.4000 C   0  0  0  0  0  2  0  0  0  0  0  0
  159.6530  206.9710  155.8780 C   0  0  0  0  0  2  0  0  0  0  0  0
  160.9060  208.3970  153.9450 C   0  0  2  0  0  3  0  0  0  0  0  0
  160.3210  201.7050  149.8810 C   0  0  0  0  0  2  0  0  0  0  0  0
  160.9330  206.4630  155.5730 O   0  0  0  0  0  0  0  0  0  0  0  0
  161.0690  208.9520  156.3800 N   0  0  0  0  0  0  0  0  0  0  0  0
  162.3620  207.4570  147.8930 C   0  0  0  0  0  2  0  0  0  0  0  0
  162.1240  206.9920  149.3390 C   0  0  1  0  0  3  0  0  0  0  0  0
  161.5800  204.7360  148.4700 N   0  0  0  0  0  2  0  0  0  0  0  0
  161.2070  205.9890  153.2190 C   0  0  0  0  0  3  0  0  0  0  0  0
  160.4920  203.3730  152.3920 C   0  0  0  0  0  1  0  0  0  0  0  0
  162.2120  202.4190  147.1490 C   0  0  0  0  0  1  0  0  0  0  0  0
  161.0170  205.2970  150.8440 C   0  0  0  0  0  0  0  0  0  0  0  0
  160.6690  203.6810  148.6620 N   0  0  2  0  0  0  0  0  0  0  0  0
  161.1420  210.1050  157.2610 C   0  0  0  0  0  2  0  0  0  0  0  0
  162.0540  211.1620  156.6630 C   0  0  2  0  0  3  0  0  0  0  0  0
  163.4600  210.9700  157.1910 C   0  0  0  0  0  1  0  0  0  0  0  0
  161.6000  212.4340  157.0160 O   0  0  0  0  0  1  0  0  0  0  0  0
  2 24  2  0  0  0  0
  3 11  1  0  0  0  0
  4  3  1  0  0  0  0
  5 25  1  0  0  0  0
  6 18  1  1  0  0  0
  6  5  1  0  0  0  0
  7 24  1  6  0  0  0
  7 19  1  0  0  0  0
  9 26  1  1  0  0  0
  9 15  1  0  0  0  0
  9 28  1  0  0  0  0
 10 20  1  0  0  0  0
 11 13  2  0  0  0  0
 12  2  1  0  0  0  0
 12  8  1  1  0  0  0
 13 12  1  0  0  0  0
 14 23  1  6  0  0  0
 14 27  1  0  0  0  0
 15 18  1  0  0  0  0
 16  1  1  0  0  0  0
 17  8  1  6  0  0  0
 17  7  1  0  0  0  0
 17 10  1  0  0  0  0
 19 16  1  0  0  0  0
 20  1  1  0  0  0  0
 20 29  1  0  0  0  0
 21  4  1  0  0  0  0
 22 21  1  6  0  0  0
 22 14  1  0  0  0  0
 22 13  1  0  0  0  0
 27  5  2  0  0  0  0
 27  2  1  0  0  0  0
 28 23  1  6  0  0  0
 28  6  1  0  0  0  0
 30 32  1  0  0  0  0
 30 31  1  1  0  0  0
 30 29  1  0  0  0  0
M  END
>  <MODEL>
2

>  <REMARK>
 VINA RESULT:      -7.8      2.242      4.297
  Name = 
  2 active torsions:
  status: ('A' for Active; 'I' for Inactive)
    1  A    between atoms: N_20  and  C_29
    2  A    between atoms: C_29  and  C_30
                            x       y       z     vdW  Elec       q    Type
                         _______ _______ _______ _____ _____    ______ ____

>  <TORSDO>
F 2

$$$$
=
 OpenBabel11122413023D

 32 37  0  0  1  0  0  0  0  0999 V2000
  161.6900  201.9130  149.7810 C   0  0  0  0  0  2  0  0  0  0  0  0
  161.2730  206.8070  151.6040 C   0  0  0  0  0  0  0  0  0  0  0  0
  162.5380  210.4670  148.4420 C   0  0  0  0  0  2  0  0  0  0  0  0
  161.4580  211.1510  149.0310 O   0  0  0  0  0  0  0  0  0  0  0  0
  161.0730  207.6210  154.0020 C   0  0  0  0  0  0  0  0  0  0  0  0
  160.9140  208.8160  154.8970 C   0  0  1  0  0  3  0  0  0  0  0  0
  160.4670  204.5950  150.7360 C   0  0  1  0  0  3  0  0  0  0  0  0
  161.4000  206.2270  149.1090 C   0  0  0  0  0  2  0  0  0  0  0  0
  161.6660  210.8820  155.5190 C   0  0  2  0  0  3  0  0  0  0  0  0
  161.1730  203.8260  148.3840 C   0  0  0  0  0  2  0  0  0  0  0  0
  162.4650  208.9920  148.7440 C   0  0  0  0  0  3  0  0  0  0  0  0
  161.9240  207.1060  150.2510 C   0  0  1  0  0  3  0  0  0  0  0  0
  161.8960  208.5720  149.8880 C   0  0  0  0  0  0  0  0  0  0  0  0
  161.7610  209.2620  152.2510 C   0  0  1  0  0  3  0  0  0  0  0  0
  161.4670  210.0880  156.8100 C   0  0  0  0  0  2  0  0  0  0  0  0
  161.5870  202.5970  151.1540 C   0  0  0  0  0  2  0  0  0  0  0  0
  161.4430  204.7790  149.5540 C   0  0  2  0  0  3  0  0  0  0  0  0
  161.1690  208.6570  156.3750 C   0  0  0  0  0  2  0  0  0  0  0  0
  160.3620  203.2860  151.2850 O   0  0  0  0  0  0  0  0  0  0  0  0
  160.7450  202.4910  148.8180 N   0  0  0  0  0  0  0  0  0  0  0  0
  161.6190  211.0110  150.4210 C   0  0  0  0  0  2  0  0  0  0  0  0
  161.2710  209.5730  150.8400 C   0  0  1  0  0  3  0  0  0  0  0  0
  161.3470  210.2990  153.2080 N   0  0  0  0  0  2  0  0  0  0  0  0
  160.6640  205.6260  151.8100 C   0  0  0  0  0  3  0  0  0  0  0  0
  160.7740  206.2700  154.5700 C   0  0  0  0  0  1  0  0  0  0  0  0
  160.4680  211.8100  155.3190 C   0  0  0  0  0  1  0  0  0  0  0  0
  161.3270  207.8520  152.6820 C   0  0  0  0  0  0  0  0  0  0  0  0
  161.8020  209.8710  154.4680 N   0  0  2  0  0  0  0  0  0  0  0  0
  160.7650  201.6420  147.6380 C   0  0  0  0  0  2  0  0  0  0  0  0
  160.6580  202.4900  146.3820 C   0  0  2  0  0  3  0  0  0  0  0  0
  160.0460  201.6670  145.2690 C   0  0  0  0  0  1  0  0  0  0  0  0
  161.9270  202.9210  145.9930 O   0  0  0  0  0  1  0  0  0  0  0  0
  1 16  1  0  0  0  0
  2 24  2  0  0  0  0
  2 27  1  0  0  0  0
  3 11  1  0  0  0  0
  3  4  1  0  0  0  0
  4 21  1  0  0  0  0
  5 25  1  0  0  0  0
  5  6  1  0  0  0  0
  6 18  1  1  0  0  0
  7 19  1  0  0  0  0
  7 24  1  1  0  0  0
  8 17  1  0  0  0  0
  9 26  1  6  0  0  0
  9 15  1  0  0  0  0
 10 20  1  0  0  0  0
 11 13  2  0  0  0  0
 12  8  1  6  0  0  0
 12  2  1  0  0  0  0
 13 12  1  0  0  0  0
 13 22  1  0  0  0  0
 14 27  1  1  0  0  0
 14 23  1  0  0  0  0
 16 19  1  0  0  0  0
 17 10  1  6  0  0  0
 17  7  1  0  0  0  0
 18 15  1  0  0  0  0
 20  1  1  0  0  0  0
 22 21  1  6  0  0  0
 22 14  1  0  0  0  0
 27  5  2  0  0  0  0
 28 23  1  6  0  0  0
 28  6  1  0  0  0  0
 28  9  1  0  0  0  0
 29 20  1  0  0  0  0
 30 31  1  6  0  0  0
 30 29  1  0  0  0  0
 32 30  1  0  0  0  0
M  END
>  <MODEL>
3

>  <REMARK>
 VINA RESULT:      -7.4      2.218      8.887
  Name = 
  2 active torsions:
  status: ('A' for Active; 'I' for Inactive)
    1  A    between atoms: N_20  and  C_29
    2  A    between atoms: C_29  and  C_30
                            x       y       z     vdW  Elec       q    Type
                         _______ _______ _______ _____ _____    ______ ____

>  <TORSDO>
F 2

$$$$
=
 OpenBabel11122413023D

 32 37  0  0  1  0  0  0  0  0999 V2000
  161.9560  203.2260  147.4370 C   0  0  0  0  0  2  0  0  0  0  0  0
  161.3420  207.3570  150.6000 C   0  0  0  0  0  0  0  0  0  0  0  0
  162.4000  211.8310  148.6360 C   0  0  0  0  0  2  0  0  0  0  0  0
  161.2990  212.2640  149.3970 O   0  0  0  0  0  0  0  0  0  0  0  0
  161.1370  207.4320  153.1310 C   0  0  0  0  0  0  0  0  0  0  0  0
  160.9360  208.3070  154.3340 C   0  0  1  0  0  3  0  0  0  0  0  0
  160.6260  205.4550  149.1280 C   0  0  1  0  0  3  0  0  0  0  0  0
  161.4630  207.5310  148.0440 C   0  0  0  0  0  2  0  0  0  0  0  0
  161.6020  210.1370  155.5280 C   0  0  2  0  0  3  0  0  0  0  0  0
  161.3360  205.4350  146.6540 C   0  0  0  0  0  2  0  0  0  0  0  0
  162.3980  210.3290  148.4970 C   0  0  0  0  0  3  0  0  0  0  0  0
  161.9620  208.0650  149.3920 C   0  0  1  0  0  3  0  0  0  0  0  0
  161.8630  209.5710  149.4690 C   0  0  0  0  0  0  0  0  0  0  0  0
  161.7280  209.5390  151.9310 C   0  0  1  0  0  3  0  0  0  0  0  0
  161.4550  208.9950  156.5340 C   0  0  0  0  0  2  0  0  0  0  0  0
  161.8390  203.4770  148.9500 C   0  0  0  0  0  2  0  0  0  0  0  0
  161.5770  206.0200  148.0510 C   0  0  2  0  0  3  0  0  0  0  0  0
  161.2170  207.7390  155.7020 C   0  0  0  0  0  2  0  0  0  0  0  0
  160.5870  204.0410  149.2730 O   0  0  0  0  0  0  0  0  0  0  0  0
  160.9730  204.0130  146.6820 N   0  0  0  0  0  0  0  0  0  0  0  0
  161.4840  211.7350  150.6870 C   0  0  0  0  0  2  0  0  0  0  0  0
  161.2060  210.2230  150.6700 C   0  0  1  0  0  3  0  0  0  0  0  0
  161.2790  210.2350  153.1470 N   0  0  0  0  0  2  0  0  0  0  0  0
  160.7900  206.1390  150.4540 C   0  0  0  0  0  3  0  0  0  0  0  0
  160.9060  205.9610  153.2820 C   0  0  0  0  0  1  0  0  0  0  0  0
  160.3620  211.0270  155.6050 C   0  0  0  0  0  1  0  0  0  0  0  0
  161.3640  208.0460  151.9340 C   0  0  0  0  0  0  0  0  0  0  0  0
  161.7700  209.4820  154.2290 N   0  0  2  0  0  0  0  0  0  0  0  0
  161.0160  203.5440  145.3070 C   0  0  0  0  0  2  0  0  0  0  0  0
  159.7540  202.7660  144.9800 C   0  0  2  0  0  3  0  0  0  0  0  0
  160.0810  201.2910  144.8860 C   0  0  0  0  0  1  0  0  0  0  0  0
  159.2330  203.2010  143.7610 O   0  0  0  0  0  1  0  0  0  0  0  0
  1 16  1  0  0  0  0
  2 27  1  0  0  0  0
  3  4  1  0  0  0  0
  4 21  1  0  0  0  0
  5 25  1  0  0  0  0
  5  6  1  0  0  0  0
  6 18  1  1  0  0  0
  7 19  1  0  0  0  0
  7 24  1  1  0  0  0
  8 17  1  0  0  0  0
  9 26  1  6  0  0  0
  9 15  1  0  0  0  0
 10 20  1  0  0  0  0
 11  3  1  0  0  0  0
 11 13  2  0  0  0  0
 12  8  1  6  0  0  0
 12 13  1  0  0  0  0
 12  2  1  0  0  0  0
 13 22  1  0  0  0  0
 14 27  1  1  0  0  0
 14 23  1  0  0  0  0
 16 19  1  0  0  0  0
 17 10  1  6  0  0  0
 17  7  1  0  0  0  0
 18 15  1  0  0  0  0
 20  1  1  0  0  0  0
 22 21  1  1  0  0  0
 22 14  1  0  0  0  0
 24  2  2  0  0  0  0
 27  5  2  0  0  0  0
 28 23  1  6  0  0  0
 28  6  1  0  0  0  0
 28  9  1  0  0  0  0
 29 20  1  0  0  0  0
 30 31  1  6  0  0  0
 30 29  1  0  0  0  0
 32 30  1  0  0  0  0
M  END
>  <MODEL>
4

>  <REMARK>
 VINA RESULT:      -7.4      2.147      9.155
  Name = 
  2 active torsions:
  status: ('A' for Active; 'I' for Inactive)
    1  A    between atoms: N_20  and  C_29
    2  A    between atoms: C_29  and  C_30
                            x       y       z     vdW  Elec       q    Type
                         _______ _______ _______ _____ _____    ______ ____

>  <TORSDO>
F 2

$$$$
=
 OpenBabel11122413023D

 32 37  0  0  1  0  0  0  0  0999 V2000
  159.5520  209.1060  156.3340 C   0  0  0  0  0  2  0  0  0  0  0  0
  161.2350  207.7590  151.5590 C   0  0  0  0  0  0  0  0  0  0  0  0
  161.9640  211.5010  148.3260 C   0  0  0  0  0  2  0  0  0  0  0  0
  163.0690  210.7340  147.9120 O   0  0  0  0  0  0  0  0  0  0  0  0
  161.2090  205.4860  150.4250 C   0  0  0  0  0  0  0  0  0  0  0  0
  161.5810  204.7090  149.1950 C   0  0  1  0  0  3  0  0  0  0  0  0
  161.3960  208.1600  154.0310 C   0  0  1  0  0  3  0  0  0  0  0  0
  161.4270  210.1310  152.5160 C   0  0  0  0  0  2  0  0  0  0  0  0
  161.4690  204.5160  146.9210 C   0  0  2  0  0  3  0  0  0  0  0  0
  160.9620  210.5200  154.9600 C   0  0  0  0  0  2  0  0  0  0  0  0
  161.4660  211.0390  149.6720 C   0  0  0  0  0  3  0  0  0  0  0  0
  161.0140  209.2560  151.3260 C   0  0  1  0  0  3  0  0  0  0  0  0
  161.6130  209.7510  150.0310 C   0  0  0  0  0  0  0  0  0  0  0  0
  161.4920  207.5150  148.9980 C   0  0  1  0  0  3  0  0  0  0  0  0
  161.1190  203.1400  147.4890 C   0  0  0  0  0  2  0  0  0  0  0  0
  159.6020  207.8300  155.4780 C   0  0  0  0  0  2  0  0  0  0  0  0
  160.8020  209.5620  153.7740 C   0  0  2  0  0  3  0  0  0  0  0  0
  160.9930  203.3350  148.9960 C   0  0  0  0  0  2  0  0  0  0  0  0
  160.9340  207.4690  155.1860 O   0  0  0  0  0  0  0  0  0  0  0  0
  160.8120  209.8560  156.2600 N   0  0  0  0  0  0  0  0  0  0  0  0
  162.5910  209.4230  147.7400 C   0  0  0  0  0  2  0  0  0  0  0  0
  162.3350  208.7830  149.1150 C   0  0  1  0  0  3  0  0  0  0  0  0
  162.0330  206.5990  147.9830 N   0  0  0  0  0  2  0  0  0  0  0  0
  161.3480  207.2840  152.8130 C   0  0  0  0  0  3  0  0  0  0  0  0
  160.9070  204.7230  151.6760 C   0  0  0  0  0  1  0  0  0  0  0  0
  162.9260  204.5040  146.4570 C   0  0  0  0  0  1  0  0  0  0  0  0
  161.3220  206.8440  150.3710 C   0  0  0  0  0  0  0  0  0  0  0  0
  161.2130  205.4560  148.0140 N   0  0  2  0  0  0  0  0  0  0  0  0
  160.7440  210.9070  157.2610 C   0  0  0  0  0  2  0  0  0  0  0  0
  159.9130  212.0690  156.7430 C   0  0  2  0  0  3  0  0  0  0  0  0
  160.5400  213.3730  157.1850 C   0  0  0  0  0  1  0  0  0  0  0  0
  158.6160  211.9860  157.2510 O   0  0  0  0  0  1  0  0  0  0  0  0
  2 24  2  0  0  0  0
  3 11  1  0  0  0  0
  4  3  1  0  0  0  0
  5 25  1  0  0  0  0
  6 18  1  1  0  0  0
  6  5  1  0  0  0  0
  7 24  1  6  0  0  0
  7 19  1  0  0  0  0
  9 26  1  1  0  0  0
  9 15  1  0  0  0  0
  9 28  1  0  0  0  0
 10 20  1  0  0  0  0
 11 13  2  0  0  0  0
 12  2  1  0  0  0  0
 12  8  1  1  0  0  0
 13 12  1  0  0  0  0
 14 23  1  6  0  0  0
 14 22  1  0  0  0  0
 14 27  1  0  0  0  0
 15 18  1  0  0  0  0
 16  1  1  0  0  0  0
 17  8  1  6  0  0  0
 17  7  1  0  0  0  0
 17 10  1  0  0  0  0
 19 16  1  0  0  0  0
 20  1  1  0  0  0  0
 20 29  1  0  0  0  0
 21  4  1  0  0  0  0
 22 21  1  6  0  0  0
 22 13  1  0  0  0  0
 27  5  2  0  0  0  0
 27  2  1  0  0  0  0
 28 23  1  6  0  0  0
 28  6  1  0  0  0  0
 30 31  1  1  0  0  0
 30 32  1  0  0  0  0
 30 29  1  0  0  0  0
M  END
>  <MODEL>
5

>  <REMARK>
 VINA RESULT:      -6.5      2.291      4.733
  Name = 
  2 active torsions:
  status: ('A' for Active; 'I' for Inactive)
    1  A    between atoms: N_20  and  C_29
    2  A    between atoms: C_29  and  C_30
                            x       y       z     vdW  Elec       q    Type
                         _______ _______ _______ _____ _____    ______ ____

>  <TORSDO>
F 2

$$$$
