=
 OpenBabel11122413253D

 31 35  0  0  1  0  0  0  0  0999 V2000
  161.2290  201.2030  148.7950 C   0  0  0  0  0  0  0  0  0  0  0  0
  162.2780  204.7240  149.7670 C   0  0  2  0  0  3  0  0  0  0  0  0
  161.7420  205.8040  148.8470 C   0  0  0  0  0  0  0  0  0  0  0  0
  160.7230  206.4860  146.7480 C   0  0  0  0  0  0  0  0  0  0  0  0
  161.5100  203.4370  149.6890 C   0  0  0  0  0  0  0  0  0  0  0  0
  160.0660  201.0440  149.5560 C   0  0  0  0  0  3  0  0  0  0  0  0
  161.1740  205.4790  147.6050 C   0  0  0  0  0  3  0  0  0  0  0  0
  160.9920  205.1630  152.0090 C   0  0  1  0  0  3  0  0  0  0  0  0
  161.6550  200.1990  147.9920 F   0  0  0  0  0  0  0  0  0  0  0  0
  162.4980  207.5250  150.4440 N   0  0  0  0  0  2  0  0  0  0  0  0
  160.1340  206.1440  145.4980 N   0  0  0  0  0  1  0  0  0  0  0  0
  159.8560  204.4040  151.3000 C   0  0  0  0  0  2  0  0  0  0  0  0
  162.3460  205.2010  151.2320 C   0  0  2  0  0  3  0  0  0  0  0  0
  161.9500  202.3990  148.8590 C   0  0  0  0  0  3  0  0  0  0  0  0
  160.8500  207.8270  147.1150 C   0  0  0  0  0  3  0  0  0  0  0  0
  160.3520  203.2710  150.4620 C   0  0  0  0  0  0  0  0  0  0  0  0
  159.6250  202.0790  150.3860 C   0  0  0  0  0  3  0  0  0  0  0  0
  163.1080  206.5290  151.3220 C   0  0  0  0  0  2  0  0  0  0  0  0
  161.9000  207.1620  149.1960 C   0  0  0  0  0  0  0  0  0  0  0  0
  161.4390  208.1650  148.3370 C   0  0  0  0  0  3  0  0  0  0  0  0
  161.6390  206.5880  154.4210 O   0  0  0  0  0  0  0  0  0  0  0  0
  160.8680  207.1460  153.5960 C   0  0  0  0  0  0  0  0  0  0  0  0
  160.5290  206.4990  152.3680 N   0  0  0  0  0  2  0  0  0  0  0  0
  162.0710  210.5250  155.2100 C   0  0  1  0  0  3  0  0  0  0  0  0
  161.0370  209.5950  153.1520 C   0  0  0  0  0  2  0  0  0  0  0  0
  159.4710  208.1290  156.1340 O   0  0  0  0  0  0  0  0  0  0  0  0
  163.3700  210.8260  155.9250 C   0  0  0  0  0  1  0  0  0  0  0  0
  162.3580  209.9600  153.8260 C   0  0  0  0  0  2  0  0  0  0  0  0
  160.2980  208.7340  155.4030 C   0  0  0  0  0  0  0  0  0  0  0  0
  160.2980  208.4910  153.9170 C   0  0  2  0  0  3  0  0  0  0  0  0
  161.2800  209.5870  156.0000 N   0  0  0  0  0  2  0  0  0  0  0  0
  1 14  2  0  0  0  0
  1  6  1  0  0  0  0
  2  3  1  6  0  0  0
  2 13  1  0  0  0  0
  3 19  1  0  0  0  0
  4 15  2  0  0  0  0
  4  7  1  0  0  0  0
  5  2  1  0  0  0  0
  5 16  2  0  0  0  0
  6 17  2  0  0  0  0
  7  3  2  0  0  0  0
  8 23  1  6  0  0  0
  9  1  1  0  0  0  0
 10 18  1  0  0  0  0
 11  4  1  0  0  0  0
 12  8  1  0  0  0  0
 13 18  1  6  0  0  0
 13  8  1  0  0  0  0
 14  5  1  0  0  0  0
 15 20  1  0  0  0  0
 16 12  1  0  0  0  0
 17 16  1  0  0  0  0
 19 10  1  0  0  0  0
 20 19  2  0  0  0  0
 22 21  2  0  0  0  0
 23 22  1  0  0  0  0
 24 27  1  1  0  0  0
 24 31  1  0  0  0  0
 25 28  1  0  0  0  0
 25 30  1  0  0  0  0
 28 24  1  0  0  0  0
 29 31  1  0  0  0  0
 29 26  2  0  0  0  0
 30 22  1  1  0  0  0
 30 29  1  0  0  0  0
M  END
>  <MODEL>
1

>  <REMARK>
 VINA RESULT:      -3.9      0.000      0.000
  Name = 
  2 active torsions:
  status: ('A' for Active; 'I' for Inactive)
    1  A    between atoms: C_5  and  C_30
    2  A    between atoms: C_10  and  N_16
                            x       y       z     vdW  Elec       q    Type
                         _______ _______ _______ _____ _____    ______ ____

>  <TORSDO>
F 2

$$$$
=
 OpenBabel11122413253D

 31 35  0  0  1  0  0  0  0  0999 V2000
  162.7300  213.5440  147.1110 C   0  0  0  0  0  0  0  0  0  0  0  0
  160.1160  214.1630  149.8000 C   0  0  2  0  0  3  0  0  0  0  0  0
  158.6940  213.8870  149.3540 C   0  0  0  0  0  0  0  0  0  0  0  0
  157.0630  213.5010  147.5930 C   0  0  0  0  0  0  0  0  0  0  0  0
  161.1520  213.4890  148.9480 C   0  0  0  0  0  0  0  0  0  0  0  0
  163.0820  212.2160  147.3720 C   0  0  0  0  0  3  0  0  0  0  0  0
  158.3830  213.7130  147.9960 C   0  0  0  0  0  3  0  0  0  0  0  0
  160.5660  212.2690  151.5570 C   0  0  1  0  0  3  0  0  0  0  0  0
  163.3220  214.2150  146.0940 F   0  0  0  0  0  0  0  0  0  0  0  0
  157.9320  214.0960  151.6900 N   0  0  0  0  0  2  0  0  0  0  0  0
  156.7610  213.3110  146.2160 N   0  0  0  0  0  1  0  0  0  0  0  0
  160.8160  211.4110  150.3030 C   0  0  0  0  0  2  0  0  0  0  0  0
  160.3360  213.7890  151.2810 C   0  0  2  0  0  3  0  0  0  0  0  0
  161.7640  214.1810  147.8970 C   0  0  0  0  0  3  0  0  0  0  0  0
  156.0370  213.4780  148.5410 C   0  0  0  0  0  3  0  0  0  0  0  0
  161.5160  212.1610  149.2170 C   0  0  0  0  0  0  0  0  0  0  0  0
  162.4710  211.5230  148.4220 C   0  0  0  0  0  3  0  0  0  0  0  0
  159.2680  214.4530  152.1580 C   0  0  0  0  0  2  0  0  0  0  0  0
  157.6490  213.8960  150.3020 C   0  0  0  0  0  0  0  0  0  0  0  0
  156.3300  213.6760  149.8930 C   0  0  0  0  0  3  0  0  0  0  0  0
  160.5840  211.7810  154.3900 O   0  0  0  0  0  0  0  0  0  0  0  0
  159.5590  211.4440  153.7410 C   0  0  0  0  0  0  0  0  0  0  0  0
  159.4800  211.6830  152.3330 N   0  0  0  0  0  2  0  0  0  0  0  0
  156.8340  212.3760  156.4190 C   0  0  1  0  0  3  0  0  0  0  0  0
  157.0940  211.4640  154.1230 C   0  0  0  0  0  2  0  0  0  0  0  0
  159.5330  209.9140  156.3900 O   0  0  0  0  0  0  0  0  0  0  0  0
  156.7150  213.6310  157.2550 C   0  0  0  0  0  1  0  0  0  0  0  0
  156.9000  212.7380  154.9420 C   0  0  0  0  0  2  0  0  0  0  0  0
  158.6800  210.7200  155.9350 C   0  0  0  0  0  0  0  0  0  0  0  0
  158.4240  210.7780  154.4530 C   0  0  2  0  0  3  0  0  0  0  0  0
  158.0190  211.6260  156.8230 N   0  0  0  0  0  2  0  0  0  0  0  0
  1  6  2  0  0  0  0
  1 14  1  0  0  0  0
  2  5  1  6  0  0  0
  2 13  1  0  0  0  0
  3  2  1  0  0  0  0
  3 19  1  0  0  0  0
  4  7  1  0  0  0  0
  4 15  2  0  0  0  0
  5 16  1  0  0  0  0
  6 17  1  0  0  0  0
  7  3  2  0  0  0  0
  8 23  1  6  0  0  0
  9  1  1  0  0  0  0
 10 18  1  0  0  0  0
 11  4  1  0  0  0  0
 12  8  1  0  0  0  0
 13  8  1  0  0  0  0
 13 18  1  1  0  0  0
 14  5  2  0  0  0  0
 15 20  1  0  0  0  0
 16 12  1  0  0  0  0
 17 16  2  0  0  0  0
 19 10  1  0  0  0  0
 20 19  2  0  0  0  0
 22 21  2  0  0  0  0
 23 22  1  0  0  0  0
 24 31  1  0  0  0  0
 24 27  1  1  0  0  0
 25 30  1  0  0  0  0
 25 28  1  0  0  0  0
 28 24  1  0  0  0  0
 29 26  2  0  0  0  0
 29 31  1  0  0  0  0
 30 22  1  6  0  0  0
 30 29  1  0  0  0  0
M  END
>  <MODEL>
2

>  <REMARK>
 VINA RESULT:      -3.3      6.543      8.141
  Name = 
  2 active torsions:
  status: ('A' for Active; 'I' for Inactive)
    1  A    between atoms: C_5  and  C_30
    2  A    between atoms: C_10  and  N_16
                            x       y       z     vdW  Elec       q    Type
                         _______ _______ _______ _____ _____    ______ ____

>  <TORSDO>
F 2

$$$$
=
 OpenBabel11122413253D

 31 35  0  0  1  0  0  0  0  0999 V2000
  162.2020  206.0910  146.6750 C   0  0  0  0  0  0  0  0  0  0  0  0
  162.6480  208.4220  149.6430 C   0  0  2  0  0  3  0  0  0  0  0  0
  162.0110  209.7850  149.4590 C   0  0  0  0  0  0  0  0  0  0  0  0
  161.0260  211.4880  148.0310 C   0  0  0  0  0  0  0  0  0  0  0  0
  162.0900  207.3720  148.7280 C   0  0  0  0  0  0  0  0  0  0  0  0
  161.0340  205.4110  147.0340 C   0  0  0  0  0  3  0  0  0  0  0  0
  161.5720  210.2130  148.1960 C   0  0  0  0  0  3  0  0  0  0  0  0
  161.1810  207.3300  151.5220 C   0  0  1  0  0  3  0  0  0  0  0  0
  162.8220  205.8010  145.5060 F   0  0  0  0  0  0  0  0  0  0  0  0
  162.4030  210.2790  151.8430 N   0  0  0  0  0  2  0  0  0  0  0  0
  160.5700  211.9060  146.7490 N   0  0  0  0  0  1  0  0  0  0  0  0
  160.2160  207.0450  150.3560 C   0  0  0  0  0  2  0  0  0  0  0  0
  162.5570  207.9400  151.1060 C   0  0  2  0  0  3  0  0  0  0  0  0
  162.7290  207.0720  147.5190 C   0  0  0  0  0  3  0  0  0  0  0  0
  160.9270  212.3540  149.1220 C   0  0  0  0  0  3  0  0  0  0  0  0
  160.9260  206.6790  149.0930 C   0  0  0  0  0  0  0  0  0  0  0  0
  160.3930  205.7080  148.2410 C   0  0  0  0  0  3  0  0  0  0  0  0
  163.1030  209.0150  152.0530 C   0  0  0  0  0  2  0  0  0  0  0  0
  161.9400  210.6780  150.5490 C   0  0  0  0  0  0  0  0  0  0  0  0
  161.3850  211.9500  150.3790 C   0  0  0  0  0  3  0  0  0  0  0  0
  161.4260  207.0640  154.3740 O   0  0  0  0  0  0  0  0  0  0  0  0
  160.6470  207.9480  153.9300 C   0  0  0  0  0  0  0  0  0  0  0  0
  160.5000  208.1450  152.5210 N   0  0  0  0  0  2  0  0  0  0  0  0
  161.3410  210.6730  156.6790 C   0  0  1  0  0  3  0  0  0  0  0  0
  160.0510  210.2780  154.5930 C   0  0  0  0  0  2  0  0  0  0  0  0
  159.8040  207.3600  156.8120 O   0  0  0  0  0  0  0  0  0  0  0  0
  162.6640  211.1200  157.2610 C   0  0  0  0  0  1  0  0  0  0  0  0
  161.3670  210.8020  155.1630 C   0  0  0  0  0  2  0  0  0  0  0  0
  160.2120  208.4420  156.3130 C   0  0  0  0  0  0  0  0  0  0  0  0
  159.8630  208.7860  154.8900 C   0  0  2  0  0  3  0  0  0  0  0  0
  161.0680  209.2960  157.0780 N   0  0  0  0  0  2  0  0  0  0  0  0
  1  6  2  0  0  0  0
  1 14  1  0  0  0  0
  2  5  1  6  0  0  0
  2 13  1  0  0  0  0
  3  2  1  0  0  0  0
  3 19  1  0  0  0  0
  4  7  1  0  0  0  0
  4 15  2  0  0  0  0
  5 16  1  0  0  0  0
  6 17  1  0  0  0  0
  7  3  2  0  0  0  0
  8 23  1  1  0  0  0
  9  1  1  0  0  0  0
 10 18  1  0  0  0  0
 11  4  1  0  0  0  0
 12  8  1  0  0  0  0
 13  8  1  0  0  0  0
 13 18  1  1  0  0  0
 14  5  2  0  0  0  0
 15 20  1  0  0  0  0
 16 12  1  0  0  0  0
 17 16  2  0  0  0  0
 19 10  1  0  0  0  0
 20 19  2  0  0  0  0
 22 21  2  0  0  0  0
 23 22  1  0  0  0  0
 24 31  1  0  0  0  0
 24 27  1  1  0  0  0
 25 30  1  0  0  0  0
 25 28  1  0  0  0  0
 28 24  1  0  0  0  0
 29 26  2  0  0  0  0
 29 31  1  0  0  0  0
 30 22  1  6  0  0  0
 30 29  1  0  0  0  0
M  END
>  <MODEL>
3

>  <REMARK>
 VINA RESULT:      -3.2      2.732      3.579
  Name = 
  2 active torsions:
  status: ('A' for Active; 'I' for Inactive)
    1  A    between atoms: C_5  and  C_30
    2  A    between atoms: C_10  and  N_16
                            x       y       z     vdW  Elec       q    Type
                         _______ _______ _______ _____ _____    ______ ____

>  <TORSDO>
F 2

$$$$
=
 OpenBabel11122413253D

 31 35  0  0  1  0  0  0  0  0999 V2000
  158.5720  212.8660  155.2850 C   0  0  0  0  0  0  0  0  0  0  0  0
  160.4660  212.7350  151.9920 C   0  0  2  0  0  3  0  0  0  0  0  0
  160.8630  211.3360  151.5640 C   0  0  0  0  0  0  0  0  0  0  0  0
  161.1970  208.9810  152.0650 C   0  0  0  0  0  0  0  0  0  0  0  0
  159.3460  212.7600  152.9920 C   0  0  0  0  0  0  0  0  0  0  0  0
  157.2470  212.8050  154.8410 C   0  0  0  0  0  3  0  0  0  0  0  0
  160.7890  210.2580  152.4590 C   0  0  0  0  0  3  0  0  0  0  0  0
  158.6680  213.4150  150.2090 C   0  0  1  0  0  3  0  0  0  0  0  0
  158.8390  212.9460  156.6100 F   0  0  0  0  0  0  0  0  0  0  0  0
  161.5150  212.2110  149.3520 N   0  0  0  0  0  2  0  0  0  0  0  0
  161.1040  207.8920  152.9760 N   0  0  0  0  0  1  0  0  0  0  0  0
  157.7330  212.5650  151.0880 C   0  0  0  0  0  2  0  0  0  0  0  0
  160.1040  213.6240  150.7840 C   0  0  2  0  0  3  0  0  0  0  0  0
  159.6220  212.8410  154.3620 C   0  0  0  0  0  3  0  0  0  0  0  0
  161.7000  208.7730  150.7790 C   0  0  0  0  0  3  0  0  0  0  0  0
  158.0170  212.7120  152.5480 C   0  0  0  0  0  0  0  0  0  0  0  0
  156.9700  212.7220  153.4730 C   0  0  0  0  0  3  0  0  0  0  0  0
  161.2310  213.5880  149.7450 C   0  0  0  0  0  2  0  0  0  0  0  0
  161.4040  211.1250  150.2780 C   0  0  0  0  0  0  0  0  0  0  0  0
  161.8040  209.8440  149.8870 C   0  0  0  0  0  3  0  0  0  0  0  0
  156.9360  214.1680  148.0420 O   0  0  0  0  0  0  0  0  0  0  0  0
  157.7870  213.2640  147.8280 C   0  0  0  0  0  0  0  0  0  0  0  0
  158.6930  212.8630  148.8590 N   0  0  0  0  0  2  0  0  0  0  0  0
  160.0170  213.3750  144.5910 C   0  0  1  0  0  3  0  0  0  0  0  0
  159.1420  211.8160  146.3150 C   0  0  0  0  0  2  0  0  0  0  0  0
  156.4820  214.0850  145.1860 O   0  0  0  0  0  0  0  0  0  0  0  0
  161.1230  214.3430  144.2320 C   0  0  0  0  0  1  0  0  0  0  0  0
  160.3050  212.7320  145.9400 C   0  0  0  0  0  2  0  0  0  0  0  0
  157.6290  213.6050  145.3850 C   0  0  0  0  0  0  0  0  0  0  0  0
  157.8370  212.6020  146.4880 C   0  0  2  0  0  3  0  0  0  0  0  0
  158.7370  214.0770  144.6120 N   0  0  0  0  0  2  0  0  0  0  0  0
  1  9  1  0  0  0  0
  2  3  1  6  0  0  0
  2  5  1  0  0  0  0
  3  7  1  0  0  0  0
  4  7  2  0  0  0  0
  4 11  1  0  0  0  0
  5 14  1  0  0  0  0
  6  1  1  0  0  0  0
  8 23  1  6  0  0  0
  8 13  1  0  0  0  0
  8 12  1  0  0  0  0
 10 18  1  0  0  0  0
 10 19  1  0  0  0  0
 12 16  1  0  0  0  0
 13 18  1  6  0  0  0
 13  2  1  0  0  0  0
 14  1  2  0  0  0  0
 15  4  1  0  0  0  0
 16  5  2  0  0  0  0
 16 17  1  0  0  0  0
 17  6  2  0  0  0  0
 19  3  2  0  0  0  0
 20 19  1  0  0  0  0
 20 15  2  0  0  0  0
 22 21  2  0  0  0  0
 22 23  1  0  0  0  0
 24 27  1  1  0  0  0
 24 31  1  0  0  0  0
 24 28  1  0  0  0  0
 25 30  1  0  0  0  0
 26 29  2  0  0  0  0
 28 25  1  0  0  0  0
 29 30  1  0  0  0  0
 30 22  1  1  0  0  0
 31 29  1  0  0  0  0
M  END
>  <MODEL>
4

>  <REMARK>
 VINA RESULT:      -2.3      6.134      9.621
  Name = 
  2 active torsions:
  status: ('A' for Active; 'I' for Inactive)
    1  A    between atoms: C_5  and  C_30
    2  A    between atoms: C_10  and  N_16
                            x       y       z     vdW  Elec       q    Type
                         _______ _______ _______ _____ _____    ______ ____

>  <TORSDO>
F 2

$$$$
=
 OpenBabel11122413253D

 31 35  0  0  1  0  0  0  0  0999 V2000
  162.2520  206.0910  147.2260 C   0  0  0  0  0  0  0  0  0  0  0  0
  162.5770  208.9480  149.7110 C   0  0  2  0  0  3  0  0  0  0  0  0
  161.8800  210.2240  149.2800 C   0  0  0  0  0  0  0  0  0  0  0  0
  160.8250  211.5870  147.5660 C   0  0  0  0  0  0  0  0  0  0  0  0
  162.0720  207.7230  149.0080 C   0  0  0  0  0  0  0  0  0  0  0  0
  161.1140  205.4370  147.7090 C   0  0  0  0  0  3  0  0  0  0  0  0
  161.4290  210.3910  147.9620 C   0  0  0  0  0  3  0  0  0  0  0  0
  161.1520  208.1570  151.7650 C   0  0  1  0  0  3  0  0  0  0  0  0
  162.8900  205.6200  146.1280 F   0  0  0  0  0  0  0  0  0  0  0  0
  162.2380  211.1670  151.5320 N   0  0  0  0  0  2  0  0  0  0  0  0
  160.3580  211.7400  146.2310 N   0  0  0  0  0  1  0  0  0  0  0  0
  160.2070  207.6180  150.6750 C   0  0  0  0  0  2  0  0  0  0  0  0
  162.5010  208.7410  151.2380 C   0  0  2  0  0  3  0  0  0  0  0  0
  162.7300  207.2350  147.8730 C   0  0  0  0  0  3  0  0  0  0  0  0
  160.6830  212.6340  148.4790 C   0  0  0  0  0  3  0  0  0  0  0  0
  160.9390  207.0570  149.4990 C   0  0  0  0  0  0  0  0  0  0  0  0
  160.4550  205.9220  148.8420 C   0  0  0  0  0  3  0  0  0  0  0  0
  162.9940  209.9960  151.9680 C   0  0  0  0  0  2  0  0  0  0  0  0
  161.7640  211.2980  150.1870 C   0  0  0  0  0  0  0  0  0  0  0  0
  161.1520  212.4910  149.7870 C   0  0  0  0  0  3  0  0  0  0  0  0
  161.2480  208.3050  154.6340 O   0  0  0  0  0  0  0  0  0  0  0  0
  160.5020  209.1190  154.0270 C   0  0  0  0  0  0  0  0  0  0  0  0
  160.4310  209.1110  152.5990 N   0  0  0  0  0  2  0  0  0  0  0  0
  158.9720  212.7110  153.5570 C   0  0  1  0  0  3  0  0  0  0  0  0
  158.3470  210.3710  154.1100 C   0  0  0  0  0  2  0  0  0  0  0  0
  161.3830  211.3400  155.9370 O   0  0  0  0  0  0  0  0  0  0  0  0
  159.2120  213.7070  152.4440 C   0  0  0  0  0  1  0  0  0  0  0  0
  158.5120  211.3810  152.9770 C   0  0  0  0  0  2  0  0  0  0  0  0
  160.4530  211.3510  155.0880 C   0  0  0  0  0  0  0  0  0  0  0  0
  159.6800  210.0890  154.8130 C   0  0  2  0  0  3  0  0  0  0  0  0
  160.1940  212.5410  154.3380 N   0  0  0  0  0  2  0  0  0  0  0  0
  1  6  2  0  0  0  0
  1 14  1  0  0  0  0
  2  5  1  6  0  0  0
  2 13  1  0  0  0  0
  3  2  1  0  0  0  0
  3 19  1  0  0  0  0
  4  7  1  0  0  0  0
  4 15  2  0  0  0  0
  5 16  1  0  0  0  0
  6 17  1  0  0  0  0
  7  3  2  0  0  0  0
  8 23  1  6  0  0  0
  9  1  1  0  0  0  0
 10 18  1  0  0  0  0
 11  4  1  0  0  0  0
 12  8  1  0  0  0  0
 13  8  1  0  0  0  0
 13 18  1  1  0  0  0
 14  5  2  0  0  0  0
 15 20  1  0  0  0  0
 16 12  1  0  0  0  0
 17 16  2  0  0  0  0
 19 10  1  0  0  0  0
 20 19  2  0  0  0  0
 22 21  2  0  0  0  0
 23 22  1  0  0  0  0
 24 27  1  6  0  0  0
 24 31  1  0  0  0  0
 25 30  1  0  0  0  0
 28 24  1  0  0  0  0
 28 25  1  0  0  0  0
 29 26  2  0  0  0  0
 30 22  1  6  0  0  0
 30 29  1  0  0  0  0
 31 29  1  0  0  0  0
M  END
>  <MODEL>
5

>  <REMARK>
 VINA RESULT:      -2.1      3.009      4.173
  Name = 
  2 active torsions:
  status: ('A' for Active; 'I' for Inactive)
    1  A    between atoms: C_5  and  C_30
    2  A    between atoms: C_10  and  N_16
                            x       y       z     vdW  Elec       q    Type
                         _______ _______ _______ _____ _____    ______ ____

>  <TORSDO>
F 2

$$$$
=
 OpenBabel11122413253D

 31 35  0  0  1  0  0  0  0  0999 V2000
  161.3260  204.8210  144.5110 C   0  0  0  0  0  0  0  0  0  0  0  0
  160.3270  205.0530  148.1700 C   0  0  2  0  0  3  0  0  0  0  0  0
  160.7360  203.8510  149.0000 C   0  0  0  0  0  0  0  0  0  0  0  0
  161.5040  201.5500  149.1610 C   0  0  0  0  0  0  0  0  0  0  0  0
  161.1040  205.1920  146.8940 C   0  0  0  0  0  0  0  0  0  0  0  0
  162.5680  205.4620  144.5250 C   0  0  0  0  0  3  0  0  0  0  0  0
  161.1690  202.6650  148.3880 C   0  0  0  0  0  3  0  0  0  0  0  0
  161.8450  206.9710  149.1130 C   0  0  1  0  0  3  0  0  0  0  0  0
  160.8320  204.3280  143.3500 F   0  0  0  0  0  0  0  0  0  0  0  0
  160.1310  205.0760  151.0530 N   0  0  0  0  0  2  0  0  0  0  0  0
  161.9560  200.3570  148.5310 N   0  0  0  0  0  1  0  0  0  0  0  0
  162.9090  206.3360  148.1990 C   0  0  0  0  0  2  0  0  0  0  0  0
  160.4130  206.3640  148.9790 C   0  0  2  0  0  3  0  0  0  0  0  0
  160.5950  204.6830  145.6940 C   0  0  0  0  0  3  0  0  0  0  0  0
  161.3930  201.6050  150.5520 C   0  0  0  0  0  3  0  0  0  0  0  0
  162.3440  205.8480  146.9050 C   0  0  0  0  0  0  0  0  0  0  0  0
  163.0800  205.9710  145.7230 C   0  0  0  0  0  3  0  0  0  0  0  0
  159.6410  206.2250  150.2960 C   0  0  0  0  0  2  0  0  0  0  0  0
  160.5940  203.8880  150.4030 C   0  0  0  0  0  0  0  0  0  0  0  0
  160.9380  202.7720  151.1720 C   0  0  0  0  0  3  0  0  0  0  0  0
  161.0320  208.7640  151.2070 O   0  0  0  0  0  0  0  0  0  0  0  0
  161.8940  207.8890  151.4840 C   0  0  0  0  0  0  0  0  0  0  0  0
  162.3210  206.9520  150.4910 N   0  0  0  0  0  2  0  0  0  0  0  0
  160.6480  207.3800  155.1790 C   0  0  1  0  0  3  0  0  0  0  0  0
  162.2450  206.4730  153.5070 C   0  0  0  0  0  2  0  0  0  0  0  0
  162.3480  210.1450  153.5000 O   0  0  0  0  0  0  0  0  0  0  0  0
  159.2300  207.3280  155.7040 C   0  0  0  0  0  1  0  0  0  0  0  0
  160.8310  206.3520  154.0710 C   0  0  0  0  0  2  0  0  0  0  0  0
  161.9510  208.9680  153.7070 C   0  0  0  0  0  0  0  0  0  0  0  0
  162.4800  207.8420  152.8590 C   0  0  2  0  0  3  0  0  0  0  0  0
  160.9440  208.7250  154.6940 N   0  0  0  0  0  2  0  0  0  0  0  0
  1  6  2  0  0  0  0
  1 14  1  0  0  0  0
  2  5  1  6  0  0  0
  2 13  1  0  0  0  0
  2  3  1  0  0  0  0
  3 19  1  0  0  0  0
  4 15  2  0  0  0  0
  5 16  1  0  0  0  0
  6 17  1  0  0  0  0
  7  3  2  0  0  0  0
  7  4  1  0  0  0  0
  8 23  1  1  0  0  0
  9  1  1  0  0  0  0
 11  4  1  0  0  0  0
 12  8  1  0  0  0  0
 13  8  1  0  0  0  0
 13 18  1  1  0  0  0
 14  5  2  0  0  0  0
 15 20  1  0  0  0  0
 16 12  1  0  0  0  0
 17 16  2  0  0  0  0
 18 10  1  0  0  0  0
 19 10  1  0  0  0  0
 19 20  2  0  0  0  0
 21 22  2  0  0  0  0
 23 22  1  0  0  0  0
 24 27  1  6  0  0  0
 25 28  1  0  0  0  0
 26 29  2  0  0  0  0
 28 24  1  0  0  0  0
 29 31  1  0  0  0  0
 30 22  1  6  0  0  0
 30 25  1  0  0  0  0
 30 29  1  0  0  0  0
 31 24  1  0  0  0  0
M  END
>  <MODEL>
6

>  <REMARK>
 VINA RESULT:      -2.1      2.452      4.477
  Name = 
  2 active torsions:
  status: ('A' for Active; 'I' for Inactive)
    1  A    between atoms: C_5  and  C_30
    2  A    between atoms: C_10  and  N_16
                            x       y       z     vdW  Elec       q    Type
                         _______ _______ _______ _____ _____    ______ ____

>  <TORSDO>
F 2

$$$$
=
 OpenBabel11122413253D

 31 35  0  0  1  0  0  0  0  0999 V2000
  156.2630  211.8990  155.8970 C   0  0  0  0  0  0  0  0  0  0  0  0
  159.8910  210.8000  155.6310 C   0  0  2  0  0  3  0  0  0  0  0  0
  160.0780  209.2960  155.5720 C   0  0  0  0  0  0  0  0  0  0  0  0
  159.2220  207.0420  155.8730 C   0  0  0  0  0  0  0  0  0  0  0  0
  158.5070  211.2460  155.2600 C   0  0  0  0  0  0  0  0  0  0  0  0
  155.9310  212.0760  154.5500 C   0  0  0  0  0  3  0  0  0  0  0  0
  159.0250  208.4250  155.8900 C   0  0  0  0  0  3  0  0  0  0  0  0
  160.6070  211.5810  153.2320 C   0  0  1  0  0  3  0  0  0  0  0  0
  155.3360  212.1280  156.8590 F   0  0  0  0  0  0  0  0  0  0  0  0
  162.4510  209.6250  154.9840 N   0  0  0  0  0  2  0  0  0  0  0  0
  158.1430  206.1660  156.1820 N   0  0  0  0  0  1  0  0  0  0  0  0
  159.1860  211.1250  152.8530 C   0  0  0  0  0  2  0  0  0  0  0  0
  160.9270  211.5410  154.7600 C   0  0  2  0  0  3  0  0  0  0  0  0
  157.5490  211.4820  156.2530 C   0  0  0  0  0  3  0  0  0  0  0  0
  160.4770  206.5170  155.5560 C   0  0  0  0  0  3  0  0  0  0  0  0
  158.1760  211.4370  153.9100 C   0  0  0  0  0  0  0  0  0  0  0  0
  156.8860  211.8400  153.5570 C   0  0  0  0  0  3  0  0  0  0  0  0
  162.3450  211.0760  155.1130 C   0  0  0  0  0  2  0  0  0  0  0  0
  161.3520  208.7600  155.2870 C   0  0  0  0  0  0  0  0  0  0  0  0
  161.5400  207.3750  155.2650 C   0  0  0  0  0  3  0  0  0  0  0  0
  160.2030  208.9730  152.0920 O   0  0  0  0  0  0  0  0  0  0  0  0
  161.3250  209.5210  151.9260 C   0  0  0  0  0  0  0  0  0  0  0  0
  161.5790  210.8270  152.4480 N   0  0  0  0  0  2  0  0  0  0  0  0
  161.6200  207.0680  148.8670 C   0  0  1  0  0  3  0  0  0  0  0  0
  162.4630  209.2410  149.7250 C   0  0  0  0  0  2  0  0  0  0  0  0
  162.4760  206.7270  152.4030 O   0  0  0  0  0  0  0  0  0  0  0  0
  160.5180  206.3760  148.0950 C   0  0  0  0  0  1  0  0  0  0  0  0
  161.3820  208.5710  148.8800 C   0  0  0  0  0  2  0  0  0  0  0  0
  162.2160  207.2990  151.3110 C   0  0  0  0  0  0  0  0  0  0  0  0
  162.3990  208.7870  151.1870 C   0  0  2  0  0  3  0  0  0  0  0  0
  161.6750  206.5390  150.2260 N   0  0  0  0  0  2  0  0  0  0  0  0
  1 14  1  0  0  0  0
  1  9  1  0  0  0  0
  2  5  1  6  0  0  0
  3  2  1  0  0  0  0
  3  7  1  0  0  0  0
  4  7  2  0  0  0  0
  4 11  1  0  0  0  0
  5 14  2  0  0  0  0
  6  1  2  0  0  0  0
  8 23  1  6  0  0  0
  8 13  1  0  0  0  0
 10 18  1  0  0  0  0
 10 19  1  0  0  0  0
 12  8  1  0  0  0  0
 12 16  1  0  0  0  0
 13 18  1  6  0  0  0
 13  2  1  0  0  0  0
 15  4  1  0  0  0  0
 16  5  1  0  0  0  0
 17 16  2  0  0  0  0
 17  6  1  0  0  0  0
 19  3  2  0  0  0  0
 20 19  1  0  0  0  0
 20 15  2  0  0  0  0
 22 21  2  0  0  0  0
 22 23  1  0  0  0  0
 24 27  1  6  0  0  0
 24 28  1  0  0  0  0
 24 31  1  0  0  0  0
 25 30  1  0  0  0  0
 28 25  1  0  0  0  0
 29 26  2  0  0  0  0
 30 29  1  0  0  0  0
 30 22  1  6  0  0  0
 31 29  1  0  0  0  0
M  END
>  <MODEL>
7

>  <REMARK>
 VINA RESULT:      -1.7      4.025      8.396
  Name = 
  2 active torsions:
  status: ('A' for Active; 'I' for Inactive)
    1  A    between atoms: C_5  and  C_30
    2  A    between atoms: C_10  and  N_16
                            x       y       z     vdW  Elec       q    Type
                         _______ _______ _______ _____ _____    ______ ____

>  <TORSDO>
F 2

$$$$
=
 OpenBabel11122413253D

 31 35  0  0  1  0  0  0  0  0999 V2000
  162.2490  206.8440  152.9500 C   0  0  0  0  0  0  0  0  0  0  0  0
  160.1400  209.0270  155.2370 C   0  0  2  0  0  3  0  0  0  0  0  0
  160.9100  210.1550  155.8970 C   0  0  0  0  0  0  0  0  0  0  0  0
  163.0120  211.2000  156.5270 C   0  0  0  0  0  0  0  0  0  0  0  0
  160.8130  208.4800  154.0120 C   0  0  0  0  0  0  0  0  0  0  0  0
  162.0580  207.4750  151.7170 C   0  0  0  0  0  3  0  0  0  0  0  0
  162.3130  210.1790  155.8800 C   0  0  0  0  0  3  0  0  0  0  0  0
  158.5340  210.2880  153.5920 C   0  0  1  0  0  3  0  0  0  0  0  0
  163.0400  205.7470  153.0340 F   0  0  0  0  0  0  0  0  0  0  0  0
  158.7850  211.1350  156.6760 N   0  0  0  0  0  2  0  0  0  0  0  0
  164.4350  211.2230  156.4910 N   0  0  0  0  0  1  0  0  0  0  0  0
  159.7860  210.3480  152.6980 C   0  0  0  0  0  2  0  0  0  0  0  0
  158.6940  209.4430  154.8960 C   0  0  2  0  0  3  0  0  0  0  0  0
  161.6300  207.3470  154.0980 C   0  0  0  0  0  3  0  0  0  0  0  0
  162.3160  212.1990  157.2130 C   0  0  0  0  0  3  0  0  0  0  0  0
  160.6110  209.1040  152.7720 C   0  0  0  0  0  0  0  0  0  0  0  0
  161.2430  208.6080  151.6280 C   0  0  0  0  0  3  0  0  0  0  0  0
  158.0050  210.0260  156.1350 C   0  0  0  0  0  2  0  0  0  0  0  0
  160.2150  211.1470  156.6200 C   0  0  0  0  0  0  0  0  0  0  0  0
  160.9200  212.1720  157.2600 C   0  0  0  0  0  3  0  0  0  0  0  0
  160.0650  212.6950  153.2410 O   0  0  0  0  0  0  0  0  0  0  0  0
  158.8960  212.8030  153.6960 C   0  0  0  0  0  0  0  0  0  0  0  0
  158.0760  211.6440  153.8710 N   0  0  0  0  0  2  0  0  0  0  0  0
  156.1340  214.3270  156.0440 C   0  0  1  0  0  3  0  0  0  0  0  0
  158.5690  214.4230  155.5630 C   0  0  0  0  0  2  0  0  0  0  0  0
  156.6540  214.4530  152.4290 O   0  0  0  0  0  0  0  0  0  0  0  0
  155.0420  213.6150  156.8120 C   0  0  0  0  0  1  0  0  0  0  0  0
  157.4920  213.7410  156.4040 C   0  0  0  0  0  2  0  0  0  0  0  0
  156.9360  214.3070  153.6470 C   0  0  0  0  0  0  0  0  0  0  0  0
  158.3730  214.1540  154.0670 C   0  0  2  0  0  3  0  0  0  0  0  0
  155.8820  214.2110  154.6100 N   0  0  0  0  0  2  0  0  0  0  0  0
  1  9  1  0  0  0  0
  1 14  1  0  0  0  0
  2  5  1  6  0  0  0
  2  3  1  0  0  0  0
  3 19  1  0  0  0  0
  4 15  2  0  0  0  0
  5 14  2  0  0  0  0
  6  1  2  0  0  0  0
  7  3  2  0  0  0  0
  7  4  1  0  0  0  0
  8 23  1  1  0  0  0
  8 13  1  0  0  0  0
 11  4  1  0  0  0  0
 12 16  1  0  0  0  0
 12  8  1  0  0  0  0
 13  2  1  0  0  0  0
 13 18  1  1  0  0  0
 15 20  1  0  0  0  0
 16  5  1  0  0  0  0
 17  6  1  0  0  0  0
 17 16  2  0  0  0  0
 18 10  1  0  0  0  0
 19 10  1  0  0  0  0
 19 20  2  0  0  0  0
 21 22  2  0  0  0  0
 22 23  1  0  0  0  0
 24 28  1  0  0  0  0
 24 27  1  1  0  0  0
 25 28  1  0  0  0  0
 26 29  2  0  0  0  0
 29 30  1  0  0  0  0
 29 31  1  0  0  0  0
 30 22  1  1  0  0  0
 30 25  1  0  0  0  0
 31 24  1  0  0  0  0
M  END
>  <MODEL>
8

>  <REMARK>
 VINA RESULT:      -1.3      4.691      7.820
  Name = 
  2 active torsions:
  status: ('A' for Active; 'I' for Inactive)
    1  A    between atoms: C_5  and  C_30
    2  A    between atoms: C_10  and  N_16
                            x       y       z     vdW  Elec       q    Type
                         _______ _______ _______ _____ _____    ______ ____

>  <TORSDO>
F 2

$$$$
