=
 OpenBabel11122413083D

 31 35  0  0  1  0  0  0  0  0999 V2000
  160.9410  206.6210  146.8820 C   0  0  0  0  0  0  0  0  0  0  0  0
  160.7280  204.7540  150.1370 N   0  0  0  0  0  0  0  0  0  0  0  0
  160.8560  203.3310  149.8910 C   0  0  0  0  0  0  0  0  0  0  0  0
  161.1200  201.4440  148.3770 C   0  0  0  0  0  0  0  0  0  0  0  0
  161.0860  205.7210  149.1310 C   0  0  0  0  0  0  0  0  0  0  0  0
  161.8220  207.6480  147.2350 C   0  0  0  0  0  3  0  0  0  0  0  0
  160.9180  202.8100  148.5880 C   0  0  0  0  0  3  0  0  0  0  0  0
  162.1570  205.8510  151.7790 C   0  0  2  0  0  3  0  0  0  0  0  0
  160.4210  206.5520  145.5600 N   0  0  0  0  0  1  0  0  0  0  0  0
  160.9400  202.9500  152.2780 O   0  0  0  0  0  0  0  0  0  0  0  0
  161.1920  200.8130  146.7470 Cl  0  0  0  0  0  0  0  0  0  0  0  0
  162.4540  206.8480  150.7950 O   0  0  0  0  0  0  0  0  0  0  0  0
  160.7660  205.2650  151.5180 C   0  0  2  0  0  3  0  0  0  0  0  0
  160.5700  205.6600  147.8280 C   0  0  0  0  0  3  0  0  0  0  0  0
  161.2800  200.5850  149.4660 C   0  0  0  0  0  3  0  0  0  0  0  0
  161.9660  206.7630  149.4830 C   0  0  0  0  0  0  0  0  0  0  0  0
  162.3320  207.7210  148.5340 C   0  0  0  0  0  3  0  0  0  0  0  0
  160.3420  204.2120  152.5490 C   0  0  0  0  0  2  0  0  0  0  0  0
  161.0010  202.4540  150.9800 C   0  0  0  0  0  0  0  0  0  0  0  0
  161.2240  201.0900  150.7670 C   0  0  0  0  0  3  0  0  0  0  0  0
  162.2710  206.4530  153.1710 C   0  0  0  0  0  2  0  0  0  0  0  0
  160.4180  206.3850  154.8460 C   0  0  0  0  0  1  0  0  0  0  0  0
  160.9340  207.0530  153.5850 C   0  0  1  0  0  3  0  0  0  0  0  0
  160.8140  211.1320  154.5660 C   0  0  1  0  0  3  0  0  0  0  0  0
  161.3180  209.0150  155.1070 C   0  0  0  0  0  2  0  0  0  0  0  0
  160.6420  209.1020  151.5320 O   0  0  0  0  0  0  0  0  0  0  0  0
  160.1740  212.4160  155.0530 C   0  0  0  0  0  1  0  0  0  0  0  0
  160.4350  210.0670  155.4030 O   0  0  0  0  0  0  0  0  0  0  0  0
  160.7170  209.4540  152.7390 C   0  0  0  0  0  0  0  0  0  0  0  0
  161.0410  208.5010  153.7690 N   0  0  0  0  0  0  0  0  0  0  0  0
  160.3820  210.8630  153.1220 C   0  0  0  0  0  2  0  0  0  0  0  0
  1  6  2  0  0  0  0
  1 14  1  0  0  0  0
  2 13  1  0  0  0  0
  3  2  1  0  0  0  0
  3 19  1  0  0  0  0
  4  7  1  0  0  0  0
  4 15  2  0  0  0  0
  5 16  1  0  0  0  0
  5  2  1  0  0  0  0
  6 17  1  0  0  0  0
  7  3  2  0  0  0  0
  8 21  1  1  0  0  0
  9  1  1  0  0  0  0
 10 18  1  0  0  0  0
 11  4  1  0  0  0  0
 12  8  1  0  0  0  0
 13  8  1  0  0  0  0
 13 18  1  1  0  0  0
 14  5  2  0  0  0  0
 15 20  1  0  0  0  0
 16 12  1  0  0  0  0
 17 16  2  0  0  0  0
 19 10  1  0  0  0  0
 20 19  2  0  0  0  0
 21 23  1  0  0  0  0
 23 30  1  0  0  0  0
 23 22  1  1  0  0  0
 24 27  1  1  0  0  0
 24 28  1  0  0  0  0
 25 28  1  0  0  0  0
 26 29  2  0  0  0  0
 29 31  1  0  0  0  0
 29 30  1  0  0  0  0
 30 25  1  0  0  0  0
 31 24  1  0  0  0  0
M  END
>  <MODEL>
1

>  <REMARK>
 VINA RESULT:      -8.1      0.000      0.000
  Name = 
  3 active torsions:
  status: ('A' for Active; 'I' for Inactive)
    1  A    between atoms: C_5  and  C_16
    2  A    between atoms: C_5  and  N_30
    3  A    between atoms: C_10  and  C_16
                            x       y       z     vdW  Elec       q    Type
                         _______ _______ _______ _____ _____    ______ ____

>  <TORSDO>
F 3

$$$$
=
 OpenBabel11122413083D

 31 35  0  0  1  0  0  0  0  0999 V2000
  162.2400  209.9000  149.3380 C   0  0  0  0  0  0  0  0  0  0  0  0
  161.5640  207.6310  152.2580 N   0  0  0  0  0  0  0  0  0  0  0  0
  161.0090  208.4020  153.3530 C   0  0  0  0  0  0  0  0  0  0  0  0
  160.2860  210.5120  154.3250 C   0  0  0  0  0  0  0  0  0  0  0  0
  161.6230  208.1680  150.9220 C   0  0  0  0  0  0  0  0  0  0  0  0
  161.7080  209.1360  148.2940 C   0  0  0  0  0  3  0  0  0  0  0  0
  160.8960  209.8000  153.2890 C   0  0  0  0  0  3  0  0  0  0  0  0
  160.4260  205.6280  151.4620 C   0  0  2  0  0  3  0  0  0  0  0  0
  162.8230  211.1680  149.0670 N   0  0  0  0  0  1  0  0  0  0  0  0
  160.6020  206.3450  154.5610 O   0  0  0  0  0  0  0  0  0  0  0  0
  160.1560  212.2540  154.2290 Cl  0  0  0  0  0  0  0  0  0  0  0  0
  160.5500  206.1350  150.1290 O   0  0  0  0  0  0  0  0  0  0  0  0
  161.5730  206.1600  152.3270 C   0  0  2  0  0  3  0  0  0  0  0  0
  162.2010  209.4160  150.6500 C   0  0  0  0  0  3  0  0  0  0  0  0
  159.7660  209.8330  155.4280 C   0  0  0  0  0  3  0  0  0  0  0  0
  161.0960  207.4000  149.8650 C   0  0  0  0  0  0  0  0  0  0  0  0
  161.1390  207.8870  148.5560 C   0  0  0  0  0  3  0  0  0  0  0  0
  161.5480  205.6370  153.7680 C   0  0  0  0  0  2  0  0  0  0  0  0
  160.4980  207.7300  154.4770 C   0  0  0  0  0  0  0  0  0  0  0  0
  159.8690  208.4420  155.5030 C   0  0  0  0  0  3  0  0  0  0  0  0
  160.3930  204.1080  151.4330 C   0  0  0  0  0  2  0  0  0  0  0  0
  162.3540  202.5610  151.4380 C   0  0  0  0  0  1  0  0  0  0  0  0
  161.5740  203.5800  150.6290 C   0  0  1  0  0  3  0  0  0  0  0  0
  160.6180  201.4250  147.1580 C   0  0  1  0  0  3  0  0  0  0  0  0
  160.4390  201.7230  149.3740 C   0  0  0  0  0  2  0  0  0  0  0  0
  161.9330  204.7340  147.9770 O   0  0  0  0  0  0  0  0  0  0  0  0
  160.8440  200.4050  146.0610 C   0  0  0  0  0  1  0  0  0  0  0  0
  160.9900  200.8750  148.3980 O   0  0  0  0  0  0  0  0  0  0  0  0
  161.4960  203.5570  148.0760 C   0  0  0  0  0  0  0  0  0  0  0  0
  161.1320  203.0090  149.3560 N   0  0  0  0  0  0  0  0  0  0  0  0
  161.4330  202.6850  146.8600 C   0  0  0  0  0  2  0  0  0  0  0  0
  1 14  1  0  0  0  0
  2 13  1  0  0  0  0
  2  3  1  0  0  0  0
  3 19  1  0  0  0  0
  4 15  2  0  0  0  0
  5  2  1  0  0  0  0
  6 17  1  0  0  0  0
  6  1  2  0  0  0  0
  7  3  2  0  0  0  0
  7  4  1  0  0  0  0
  8 21  1  6  0  0  0
  8 13  1  0  0  0  0
  9  1  1  0  0  0  0
 11  4  1  0  0  0  0
 12  8  1  0  0  0  0
 13 18  1  1  0  0  0
 14  5  2  0  0  0  0
 15 20  1  0  0  0  0
 16 12  1  0  0  0  0
 16  5  1  0  0  0  0
 17 16  2  0  0  0  0
 18 10  1  0  0  0  0
 19 10  1  0  0  0  0
 19 20  2  0  0  0  0
 23 21  1  0  0  0  0
 23 22  1  1  0  0  0
 24 27  1  6  0  0  0
 24 28  1  0  0  0  0
 26 29  2  0  0  0  0
 28 25  1  0  0  0  0
 29 30  1  0  0  0  0
 30 25  1  0  0  0  0
 30 23  1  0  0  0  0
 31 24  1  0  0  0  0
 31 29  1  0  0  0  0
M  END
>  <MODEL>
2

>  <REMARK>
 VINA RESULT:      -7.5      3.268      7.419
  Name = 
  3 active torsions:
  status: ('A' for Active; 'I' for Inactive)
    1  A    between atoms: C_5  and  C_16
    2  A    between atoms: C_5  and  N_30
    3  A    between atoms: C_10  and  C_16
                            x       y       z     vdW  Elec       q    Type
                         _______ _______ _______ _____ _____    ______ ____

>  <TORSDO>
F 3

$$$$
=
 OpenBabel11122413083D

 31 35  0  0  1  0  0  0  0  0999 V2000
  161.9910  211.8420  148.9790 C   0  0  0  0  0  0  0  0  0  0  0  0
  161.0130  210.4420  152.3270 N   0  0  0  0  0  0  0  0  0  0  0  0
  159.9020  211.2020  152.8650 C   0  0  0  0  0  0  0  0  0  0  0  0
  158.2920  213.0200  152.7190 C   0  0  0  0  0  0  0  0  0  0  0  0
  161.3860  210.5470  150.9390 C   0  0  0  0  0  0  0  0  0  0  0  0
  162.1180  210.6630  148.2370 C   0  0  0  0  0  3  0  0  0  0  0  0
  159.4130  212.3510  152.2230 C   0  0  0  0  0  3  0  0  0  0  0  0
  160.8790  208.0140  152.1660 C   0  0  2  0  0  3  0  0  0  0  0  0
  162.2310  213.1010  148.3610 N   0  0  0  0  0  1  0  0  0  0  0  0
  159.7140  209.6010  154.6690 O   0  0  0  0  0  0  0  0  0  0  0  0
  157.6980  214.4510  151.9070 Cl  0  0  0  0  0  0  0  0  0  0  0  0
  161.3180  208.1190  150.8060 O   0  0  0  0  0  0  0  0  0  0  0  0
  161.4290  209.1890  152.9800 C   0  0  2  0  0  3  0  0  0  0  0  0
  161.6280  211.7850  150.3280 C   0  0  0  0  0  3  0  0  0  0  0  0
  157.6350  212.5380  153.8530 C   0  0  0  0  0  3  0  0  0  0  0  0
  161.5230  209.3620  150.1890 C   0  0  0  0  0  0  0  0  0  0  0  0
  161.8880  209.4240  148.8420 C   0  0  0  0  0  3  0  0  0  0  0  0
  161.0440  209.1400  154.4630 C   0  0  0  0  0  2  0  0  0  0  0  0
  159.2440  210.7360  154.0170 C   0  0  0  0  0  0  0  0  0  0  0  0
  158.1090  211.3950  154.5000 C   0  0  0  0  0  3  0  0  0  0  0  0
  161.3080  206.6720  152.7410 C   0  0  0  0  0  2  0  0  0  0  0  0
  163.4370  205.4210  152.3640 C   0  0  0  0  0  1  0  0  0  0  0  0
  162.1560  205.9210  151.7230 C   0  0  1  0  0  3  0  0  0  0  0  0
  160.4500  202.3790  150.2530 C   0  0  1  0  0  3  0  0  0  0  0  0
  161.0250  203.6910  151.9780 C   0  0  0  0  0  2  0  0  0  0  0  0
  161.3100  205.6810  148.9440 O   0  0  0  0  0  0  0  0  0  0  0  0
  160.4590  200.9620  149.7190 C   0  0  0  0  0  1  0  0  0  0  0  0
  161.3410  202.4820  151.3370 O   0  0  0  0  0  0  0  0  0  0  0  0
  161.1730  204.6920  149.7110 C   0  0  0  0  0  0  0  0  0  0  0  0
  161.4050  204.8150  151.1260 N   0  0  0  0  0  0  0  0  0  0  0  0
  160.8470  203.3480  149.1350 C   0  0  0  0  0  2  0  0  0  0  0  0
  1 14  1  0  0  0  0
  2  3  1  0  0  0  0
  2 13  1  0  0  0  0
  3 19  1  0  0  0  0
  4 15  2  0  0  0  0
  5  2  1  0  0  0  0
  6 17  1  0  0  0  0
  6  1  2  0  0  0  0
  7  4  1  0  0  0  0
  7  3  2  0  0  0  0
  8 21  1  1  0  0  0
  8 13  1  0  0  0  0
  9  1  1  0  0  0  0
 11  4  1  0  0  0  0
 12  8  1  0  0  0  0
 13 18  1  1  0  0  0
 14  5  2  0  0  0  0
 15 20  1  0  0  0  0
 16 12  1  0  0  0  0
 16  5  1  0  0  0  0
 17 16  2  0  0  0  0
 18 10  1  0  0  0  0
 19 20  2  0  0  0  0
 19 10  1  0  0  0  0
 23 22  1  1  0  0  0
 23 21  1  0  0  0  0
 24 27  1  6  0  0  0
 24 28  1  0  0  0  0
 26 29  2  0  0  0  0
 28 25  1  0  0  0  0
 29 30  1  0  0  0  0
 30 23  1  0  0  0  0
 30 25  1  0  0  0  0
 31 29  1  0  0  0  0
 31 24  1  0  0  0  0
M  END
>  <MODEL>
3

>  <REMARK>
 VINA RESULT:      -7.2      3.527      7.640
  Name = 
  3 active torsions:
  status: ('A' for Active; 'I' for Inactive)
    1  A    between atoms: C_5  and  C_16
    2  A    between atoms: C_5  and  N_30
    3  A    between atoms: C_10  and  C_16
                            x       y       z     vdW  Elec       q    Type
                         _______ _______ _______ _____ _____    ______ ____

>  <TORSDO>
F 3

$$$$
=
 OpenBabel11122413083D

 31 35  0  0  1  0  0  0  0  0999 V2000
  161.1790  201.9750  150.6020 C   0  0  0  0  0  0  0  0  0  0  0  0
  161.7280  205.0770  148.5520 N   0  0  0  0  0  0  0  0  0  0  0  0
  161.3860  204.8120  147.1680 C   0  0  0  0  0  0  0  0  0  0  0  0
  160.6320  203.3110  145.4080 C   0  0  0  0  0  0  0  0  0  0  0  0
  161.3210  204.1830  149.6060 C   0  0  0  0  0  0  0  0  0  0  0  0
  160.5060  202.5130  151.7030 C   0  0  0  0  0  3  0  0  0  0  0  0
  161.0340  203.5260  146.7280 C   0  0  0  0  0  3  0  0  0  0  0  0
  160.7550  206.9830  149.7160 C   0  0  2  0  0  3  0  0  0  0  0  0
  161.4470  200.5790  150.5440 N   0  0  0  0  0  1  0  0  0  0  0  0
  161.6750  207.1620  146.6720 O   0  0  0  0  0  0  0  0  0  0  0  0
  160.1990  201.7010  144.8770 Cl  0  0  0  0  0  0  0  0  0  0  0  0
  160.4140  206.1020  150.7920 O   0  0  0  0  0  0  0  0  0  0  0  0
  161.9960  206.4570  148.9890 C   0  0  2  0  0  3  0  0  0  0  0  0
  161.5890  202.8070  149.5550 C   0  0  0  0  0  3  0  0  0  0  0  0
  160.5610  204.3830  144.5160 C   0  0  0  0  0  3  0  0  0  0  0  0
  160.6510  204.7210  150.7210 C   0  0  0  0  0  0  0  0  0  0  0  0
  160.2450  203.8850  151.7650 C   0  0  0  0  0  3  0  0  0  0  0  0
  162.4620  207.3610  147.8410 C   0  0  0  0  0  2  0  0  0  0  0  0
  161.3280  205.8810  146.2570 C   0  0  0  0  0  0  0  0  0  0  0  0
  160.9060  205.6680  144.9410 C   0  0  0  0  0  3  0  0  0  0  0  0
  160.9620  208.3920  150.2520 C   0  0  0  0  0  2  0  0  0  0  0  0
  162.9000  209.5030  151.3690 C   0  0  0  0  0  1  0  0  0  0  0  0
  161.9080  208.3570  151.4440 C   0  0  1  0  0  3  0  0  0  0  0  0
  160.0530  209.0160  155.1500 C   0  0  1  0  0  3  0  0  0  0  0  0
  160.3300  209.5530  152.9910 C   0  0  0  0  0  2  0  0  0  0  0  0
  161.9140  206.3210  153.5290 O   0  0  0  0  0  0  0  0  0  0  0  0
  159.9370  209.5640  156.5580 C   0  0  0  0  0  1  0  0  0  0  0  0
  160.5750  210.0050  154.2980 O   0  0  0  0  0  0  0  0  0  0  0  0
  161.3550  207.4260  153.7570 C   0  0  0  0  0  0  0  0  0  0  0  0
  161.1670  208.3910  152.7060 N   0  0  0  0  0  0  0  0  0  0  0  0
  160.9550  207.7780  155.1570 C   0  0  0  0  0  2  0  0  0  0  0  0
  1  6  1  0  0  0  0
  2 13  1  0  0  0  0
  2  5  1  0  0  0  0
  3  2  1  0  0  0  0
  4  7  2  0  0  0  0
  5 16  2  0  0  0  0
  6 17  2  0  0  0  0
  7  3  1  0  0  0  0
  8 21  1  1  0  0  0
  8 12  1  0  0  0  0
  9  1  1  0  0  0  0
 10 18  1  0  0  0  0
 11  4  1  0  0  0  0
 13 18  1  6  0  0  0
 13  8  1  0  0  0  0
 14  5  1  0  0  0  0
 14  1  2  0  0  0  0
 15 20  2  0  0  0  0
 15  4  1  0  0  0  0
 16 12  1  0  0  0  0
 16 17  1  0  0  0  0
 19 10  1  0  0  0  0
 19  3  2  0  0  0  0
 20 19  1  0  0  0  0
 21 23  1  0  0  0  0
 23 22  1  6  0  0  0
 23 30  1  0  0  0  0
 24 31  1  0  0  0  0
 24 27  1  1  0  0  0
 25 28  1  0  0  0  0
 26 29  2  0  0  0  0
 28 24  1  0  0  0  0
 29 31  1  0  0  0  0
 30 25  1  0  0  0  0
 30 29  1  0  0  0  0
M  END
>  <MODEL>
4

>  <REMARK>
 VINA RESULT:      -7.0      1.994      4.305
  Name = 
  3 active torsions:
  status: ('A' for Active; 'I' for Inactive)
    1  A    between atoms: C_5  and  C_16
    2  A    between atoms: C_5  and  N_30
    3  A    between atoms: C_10  and  C_16
                            x       y       z     vdW  Elec       q    Type
                         _______ _______ _______ _____ _____    ______ ____

>  <TORSDO>
F 3

$$$$
=
 OpenBabel11122413083D

 31 35  0  0  1  0  0  0  0  0999 V2000
  161.0250  208.8820  154.6960 C   0  0  0  0  0  0  0  0  0  0  0  0
  161.8120  209.4470  151.0640 N   0  0  0  0  0  0  0  0  0  0  0  0
  161.5640  208.2300  150.3190 C   0  0  0  0  0  0  0  0  0  0  0  0
  160.8960  205.8920  150.2120 C   0  0  0  0  0  0  0  0  0  0  0  0
  161.3040  209.6200  152.4020 C   0  0  0  0  0  0  0  0  0  0  0  0
  160.2910  210.0370  154.9810 C   0  0  0  0  0  3  0  0  0  0  0  0
  161.2070  207.0310  150.9580 C   0  0  0  0  0  3  0  0  0  0  0  0
  160.8120  211.5520  150.3520 C   0  0  2  0  0  3  0  0  0  0  0  0
  161.2570  207.9160  155.7150 N   0  0  0  0  0  1  0  0  0  0  0  0
  161.9560  209.4400  148.2610 O   0  0  0  0  0  0  0  0  0  0  0  0
  160.4560  204.4080  151.0260 Cl  0  0  0  0  0  0  0  0  0  0  0  0
  160.3690  211.7520  151.6990 O   0  0  0  0  0  0  0  0  0  0  0  0
  162.0870  210.7040  150.3470 C   0  0  2  0  0  3  0  0  0  0  0  0
  161.5350  208.6740  153.4100 C   0  0  0  0  0  3  0  0  0  0  0  0
  160.9210  205.9420  148.8170 C   0  0  0  0  0  3  0  0  0  0  0  0
  160.5700  210.7860  152.6960 C   0  0  0  0  0  0  0  0  0  0  0  0
  160.0650  210.9900  153.9830 C   0  0  0  0  0  3  0  0  0  0  0  0
  162.6620  210.4690  148.9440 C   0  0  0  0  0  2  0  0  0  0  0  0
  161.6030  208.2640  148.9140 C   0  0  0  0  0  0  0  0  0  0  0  0
  161.2710  207.1280  148.1680 C   0  0  0  0  0  3  0  0  0  0  0  0
  161.0210  212.8980  149.6750 C   0  0  0  0  0  2  0  0  0  0  0  0
  159.0560  214.3520  149.1580 C   0  0  0  0  0  1  0  0  0  0  0  0
  159.8840  213.1670  148.6980 C   0  0  1  0  0  3  0  0  0  0  0  0
  161.2250  213.1720  144.7220 C   0  0  1  0  0  3  0  0  0  0  0  0
  159.5620  212.9780  146.2130 C   0  0  0  0  0  2  0  0  0  0  0  0
  162.4510  214.3320  147.9620 O   0  0  0  0  0  0  0  0  0  0  0  0
  161.8450  212.5780  143.4730 C   0  0  0  0  0  1  0  0  0  0  0  0
  160.3330  212.2470  145.2930 O   0  0  0  0  0  0  0  0  0  0  0  0
  161.7410  213.8060  147.0660 C   0  0  0  0  0  0  0  0  0  0  0  0
  160.3940  213.3810  147.3430 N   0  0  0  0  0  0  0  0  0  0  0  0
  162.3310  213.5400  145.7150 C   0  0  0  0  0  2  0  0  0  0  0  0
  1  6  1  0  0  0  0
  1  9  1  0  0  0  0
  2  5  1  0  0  0  0
  3  7  1  0  0  0  0
  3  2  1  0  0  0  0
  4  7  2  0  0  0  0
  4 11  1  0  0  0  0
  5 16  2  0  0  0  0
  5 14  1  0  0  0  0
  8 21  1  1  0  0  0
  8 12  1  0  0  0  0
 10 19  1  0  0  0  0
 10 18  1  0  0  0  0
 12 16  1  0  0  0  0
 13 18  1  6  0  0  0
 13  8  1  0  0  0  0
 13  2  1  0  0  0  0
 14  1  2  0  0  0  0
 15  4  1  0  0  0  0
 16 17  1  0  0  0  0
 17  6  2  0  0  0  0
 19  3  2  0  0  0  0
 20 15  2  0  0  0  0
 20 19  1  0  0  0  0
 23 22  1  1  0  0  0
 23 21  1  0  0  0  0
 24 27  1  6  0  0  0
 24 28  1  0  0  0  0
 24 31  1  0  0  0  0
 25 30  1  0  0  0  0
 28 25  1  0  0  0  0
 29 30  1  0  0  0  0
 29 26  2  0  0  0  0
 30 23  1  0  0  0  0
 31 29  1  0  0  0  0
M  END
>  <MODEL>
5

>  <REMARK>
 VINA RESULT:      -6.8      4.030      7.447
  Name = 
  3 active torsions:
  status: ('A' for Active; 'I' for Inactive)
    1  A    between atoms: C_5  and  C_16
    2  A    between atoms: C_5  and  N_30
    3  A    between atoms: C_10  and  C_16
                            x       y       z     vdW  Elec       q    Type
                         _______ _______ _______ _____ _____    ______ ____

>  <TORSDO>
F 3

$$$$
=
 OpenBabel11122413083D

 31 35  0  0  1  0  0  0  0  0999 V2000
  161.5730  213.0750  148.9400 C   0  0  0  0  0  0  0  0  0  0  0  0
  162.1060  209.6910  150.4870 N   0  0  0  0  0  0  0  0  0  0  0  0
  161.4550  209.6410  151.7810 C   0  0  0  0  0  0  0  0  0  0  0  0
  160.1610  210.6820  153.5600 C   0  0  0  0  0  0  0  0  0  0  0  0
  161.8060  210.7360  149.5410 C   0  0  0  0  0  0  0  0  0  0  0  0
  161.2190  212.7070  147.6380 C   0  0  0  0  0  3  0  0  0  0  0  0
  160.8490  210.7750  152.3480 C   0  0  0  0  0  3  0  0  0  0  0  0
  161.6570  207.9740  148.8170 C   0  0  2  0  0  3  0  0  0  0  0  0
  161.6330  214.4500  149.3000 N   0  0  0  0  0  1  0  0  0  0  0  0
  161.9510  207.2770  151.9110 O   0  0  0  0  0  0  0  0  0  0  0  0
  159.4150  212.1050  154.2510 Cl  0  0  0  0  0  0  0  0  0  0  0  0
  161.4290  209.0170  147.8630 O   0  0  0  0  0  0  0  0  0  0  0  0
  162.6410  208.4570  149.8870 C   0  0  2  0  0  3  0  0  0  0  0  0
  161.8690  212.0920  149.8900 C   0  0  0  0  0  3  0  0  0  0  0  0
  160.0540  209.4520  154.2110 C   0  0  0  0  0  3  0  0  0  0  0  0
  161.4570  210.3710  148.2260 C   0  0  0  0  0  0  0  0  0  0  0  0
  161.1630  211.3570  147.2800 C   0  0  0  0  0  3  0  0  0  0  0  0
  162.9800  207.3900  150.9360 C   0  0  0  0  0  2  0  0  0  0  0  0
  161.3560  208.4110  152.4550 C   0  0  0  0  0  0  0  0  0  0  0  0
  160.6490  208.3160  153.6570 C   0  0  0  0  0  3  0  0  0  0  0  0
  162.1580  206.7270  148.1050 C   0  0  0  0  0  2  0  0  0  0  0  0
  160.5880  205.9740  146.3140 C   0  0  0  0  0  1  0  0  0  0  0  0
  160.9840  205.8160  147.7700 C   0  0  1  0  0  3  0  0  0  0  0  0
  161.5210  201.6720  148.1530 C   0  0  1  0  0  3  0  0  0  0  0  0
  161.8410  203.5780  147.0160 C   0  0  0  0  0  2  0  0  0  0  0  0
  160.6240  204.4680  150.3280 O   0  0  0  0  0  0  0  0  0  0  0  0
  161.1290  200.2140  148.0390 C   0  0  0  0  0  1  0  0  0  0  0  0
  161.1520  202.3540  146.9800 O   0  0  0  0  0  0  0  0  0  0  0  0
  160.9320  203.7850  149.3160 C   0  0  0  0  0  0  0  0  0  0  0  0
  161.2960  204.4200  148.0770 N   0  0  0  0  0  0  0  0  0  0  0  0
  160.8370  202.2910  149.3750 C   0  0  0  0  0  2  0  0  0  0  0  0
  1  9  1  0  0  0  0
  1 14  1  0  0  0  0
  2  3  1  0  0  0  0
  3  7  2  0  0  0  0
  3 19  1  0  0  0  0
  4 15  2  0  0  0  0
  4 11  1  0  0  0  0
  5 14  2  0  0  0  0
  5  2  1  0  0  0  0
  6  1  2  0  0  0  0
  7  4  1  0  0  0  0
  8 21  1  6  0  0  0
  8 13  1  0  0  0  0
 10 19  1  0  0  0  0
 12 16  1  0  0  0  0
 12  8  1  0  0  0  0
 13  2  1  0  0  0  0
 13 18  1  1  0  0  0
 16  5  1  0  0  0  0
 17  6  1  0  0  0  0
 17 16  2  0  0  0  0
 18 10  1  0  0  0  0
 19 20  2  0  0  0  0
 20 15  1  0  0  0  0
 23 22  1  6  0  0  0
 23 30  1  0  0  0  0
 23 21  1  0  0  0  0
 24 27  1  6  0  0  0
 24 31  1  0  0  0  0
 25 30  1  0  0  0  0
 28 25  1  0  0  0  0
 28 24  1  0  0  0  0
 29 31  1  0  0  0  0
 29 26  2  0  0  0  0
 30 29  1  0  0  0  0
M  END
>  <MODEL>
6

>  <REMARK>
 VINA RESULT:      -6.7      3.734      7.790
  Name = 
  3 active torsions:
  status: ('A' for Active; 'I' for Inactive)
    1  A    between atoms: C_5  and  C_16
    2  A    between atoms: C_5  and  N_30
    3  A    between atoms: C_10  and  C_16
                            x       y       z     vdW  Elec       q    Type
                         _______ _______ _______ _____ _____    ______ ____

>  <TORSDO>
F 3

$$$$
=
 OpenBabel11122413083D

 31 35  0  0  1  0  0  0  0  0999 V2000
  160.9270  201.6950  149.1010 C   0  0  0  0  0  0  0  0  0  0  0  0
  161.9770  205.1060  150.2790 N   0  0  0  0  0  0  0  0  0  0  0  0
  161.7490  206.0750  149.2260 C   0  0  0  0  0  0  0  0  0  0  0  0
  161.0300  206.6470  146.9730 C   0  0  0  0  0  0  0  0  0  0  0  0
  161.3820  203.7940  150.2280 C   0  0  0  0  0  0  0  0  0  0  0  0
  160.2040  201.2520  150.2130 C   0  0  0  0  0  3  0  0  0  0  0  0
  161.3180  205.6880  147.9470 C   0  0  0  0  0  3  0  0  0  0  0  0
  161.0840  205.4850  152.5150 C   0  0  2  0  0  3  0  0  0  0  0  0
  161.0620  200.8560  147.9600 N   0  0  0  0  0  1  0  0  0  0  0  0
  162.3140  207.8490  150.7710 O   0  0  0  0  0  0  0  0  0  0  0  0
  160.4960  206.1460  145.3840 Cl  0  0  0  0  0  0  0  0  0  0  0  0
  160.5540  204.1550  152.4860 O   0  0  0  0  0  0  0  0  0  0  0  0
  162.3340  205.5640  151.6330 C   0  0  2  0  0  3  0  0  0  0  0  0
  161.5180  202.9620  149.1080 C   0  0  0  0  0  3  0  0  0  0  0  0
  161.1520  208.0050  147.2720 C   0  0  0  0  0  3  0  0  0  0  0  0
  160.6600  203.3400  151.3490 C   0  0  0  0  0  0  0  0  0  0  0  0
  160.0730  202.0720  151.3380 C   0  0  0  0  0  3  0  0  0  0  0  0
  162.9970  206.9470  151.6330 C   0  0  0  0  0  2  0  0  0  0  0  0
  161.8860  207.4450  149.5110 C   0  0  0  0  0  0  0  0  0  0  0  0
  161.5770  208.4040  148.5410 C   0  0  0  0  0  3  0  0  0  0  0  0
  161.3730  205.8920  153.9520 C   0  0  0  0  0  2  0  0  0  0  0  0
  159.4420  206.5750  155.3810 C   0  0  0  0  0  1  0  0  0  0  0  0
  160.4600  207.0410  154.3580 C   0  0  1  0  0  3  0  0  0  0  0  0
  162.2950  210.2630  156.3230 C   0  0  1  0  0  3  0  0  0  0  0  0
  161.8000  208.0790  156.2130 C   0  0  0  0  0  2  0  0  0  0  0  0
  161.0180  209.5450  152.9750 O   0  0  0  0  0  0  0  0  0  0  0  0
  162.3510  211.4760  157.2290 C   0  0  0  0  0  1  0  0  0  0  0  0
  161.5220  209.2560  156.9280 O   0  0  0  0  0  0  0  0  0  0  0  0
  161.3220  209.4400  154.1920 C   0  0  0  0  0  0  0  0  0  0  0  0
  161.2350  208.1730  154.8700 N   0  0  0  0  0  0  0  0  0  0  0  0
  161.6980  210.6630  154.9710 C   0  0  0  0  0  2  0  0  0  0  0  0
  1 14  2  0  0  0  0
  1  6  1  0  0  0  0
  2 13  1  0  0  0  0
  3 19  1  0  0  0  0
  3  2  1  0  0  0  0
  4 15  2  0  0  0  0
  4  7  1  0  0  0  0
  5  2  1  0  0  0  0
  5 16  2  0  0  0  0
  6 17  2  0  0  0  0
  7  3  2  0  0  0  0
  8 21  1  1  0  0  0
  9  1  1  0  0  0  0
 10 18  1  0  0  0  0
 11  4  1  0  0  0  0
 12  8  1  0  0  0  0
 13 18  1  6  0  0  0
 13  8  1  0  0  0  0
 14  5  1  0  0  0  0
 15 20  1  0  0  0  0
 16 12  1  0  0  0  0
 17 16  1  0  0  0  0
 19 10  1  0  0  0  0
 20 19  2  0  0  0  0
 21 23  1  0  0  0  0
 23 30  1  0  0  0  0
 23 22  1  1  0  0  0
 24 28  1  0  0  0  0
 24 27  1  1  0  0  0
 25 28  1  0  0  0  0
 26 29  2  0  0  0  0
 29 30  1  0  0  0  0
 29 31  1  0  0  0  0
 30 25  1  0  0  0  0
 31 24  1  0  0  0  0
M  END
>  <MODEL>
7

>  <REMARK>
 VINA RESULT:      -6.3      1.793      4.104
  Name = 
  3 active torsions:
  status: ('A' for Active; 'I' for Inactive)
    1  A    between atoms: C_5  and  C_16
    2  A    between atoms: C_5  and  N_30
    3  A    between atoms: C_10  and  C_16
                            x       y       z     vdW  Elec       q    Type
                         _______ _______ _______ _____ _____    ______ ____

>  <TORSDO>
F 3

$$$$
=
 OpenBabel11122413083D

 31 35  0  0  1  0  0  0  0  0999 V2000
  162.1560  209.4910  148.9600 C   0  0  0  0  0  0  0  0  0  0  0  0
  161.6790  206.6290  151.3500 N   0  0  0  0  0  0  0  0  0  0  0  0
  161.3300  207.1430  152.6600 C   0  0  0  0  0  0  0  0  0  0  0  0
  160.9040  208.9950  154.1800 C   0  0  0  0  0  0  0  0  0  0  0  0
  161.6100  207.4640  150.1780 C   0  0  0  0  0  0  0  0  0  0  0  0
  161.4370  209.0220  147.8550 C   0  0  0  0  0  3  0  0  0  0  0  0
  161.3190  208.5200  152.9340 C   0  0  0  0  0  3  0  0  0  0  0  0
  160.2960  204.9270  150.2880 C   0  0  2  0  0  3  0  0  0  0  0  0
  162.7970  210.7590  148.9070 N   0  0  0  0  0  1  0  0  0  0  0  0
  160.9190  204.8800  153.4110 O   0  0  0  0  0  0  0  0  0  0  0  0
  160.9000  210.7140  154.5040 Cl  0  0  0  0  0  0  0  0  0  0  0  0
  160.2890  205.7290  149.1020 O   0  0  0  0  0  0  0  0  0  0  0  0
  161.5820  205.1850  151.0790 C   0  0  2  0  0  3  0  0  0  0  0  0
  162.2450  208.7120  150.1190 C   0  0  0  0  0  3  0  0  0  0  0  0
  160.4760  208.0980  155.1620 C   0  0  0  0  0  3  0  0  0  0  0  0
  160.8950  206.9940  149.0600 C   0  0  0  0  0  0  0  0  0  0  0  0
  160.8100  207.7740  147.9040 C   0  0  0  0  0  3  0  0  0  0  0  0
  161.6980  204.3360  152.3520 C   0  0  0  0  0  2  0  0  0  0  0  0
  160.9140  206.2490  153.6610 C   0  0  0  0  0  0  0  0  0  0  0  0
  160.4780  206.7260  154.9020 C   0  0  0  0  0  3  0  0  0  0  0  0
  160.1400  203.4600  149.9160 C   0  0  0  0  0  2  0  0  0  0  0  0
  161.6080  201.4410  149.8200 C   0  0  0  0  0  1  0  0  0  0  0  0
  161.4730  202.9030  149.4370 C   0  0  1  0  0  3  0  0  0  0  0  0
  161.7070  203.9960  145.3920 C   0  0  1  0  0  3  0  0  0  0  0  0
  162.4110  204.2150  147.5090 C   0  0  0  0  0  2  0  0  0  0  0  0
  160.3620  201.2130  147.3400 O   0  0  0  0  0  0  0  0  0  0  0  0
  161.3010  204.7430  144.1380 C   0  0  0  0  0  1  0  0  0  0  0  0
  161.7080  204.8760  146.4880 O   0  0  0  0  0  0  0  0  0  0  0  0
  160.9090  202.3000  147.0200 C   0  0  0  0  0  0  0  0  0  0  0  0
  161.6290  203.0800  147.9920 N   0  0  0  0  0  0  0  0  0  0  0  0
  160.7380  202.8350  145.6310 C   0  0  0  0  0  2  0  0  0  0  0  0
  1 14  1  0  0  0  0
  2  3  1  0  0  0  0
  3  7  2  0  0  0  0
  3 19  1  0  0  0  0
  4 11  1  0  0  0  0
  4 15  2  0  0  0  0
  5  2  1  0  0  0  0
  6 17  1  0  0  0  0
  6  1  2  0  0  0  0
  7  4  1  0  0  0  0
  8 21  1  6  0  0  0
  8 13  1  0  0  0  0
  9  1  1  0  0  0  0
 10 19  1  0  0  0  0
 12  8  1  0  0  0  0
 13  2  1  0  0  0  0
 13 18  1  1  0  0  0
 14  5  2  0  0  0  0
 16 12  1  0  0  0  0
 16  5  1  0  0  0  0
 17 16  2  0  0  0  0
 18 10  1  0  0  0  0
 19 20  2  0  0  0  0
 20 15  1  0  0  0  0
 23 22  1  6  0  0  0
 23 21  1  0  0  0  0
 24 27  1  6  0  0  0
 24 31  1  0  0  0  0
 24 28  1  0  0  0  0
 25 30  1  0  0  0  0
 28 25  1  0  0  0  0
 29 26  2  0  0  0  0
 29 30  1  0  0  0  0
 30 23  1  0  0  0  0
 31 29  1  0  0  0  0
M  END
>  <MODEL>
8

>  <REMARK>
 VINA RESULT:      -6.2      3.273      7.076
  Name = 
  3 active torsions:
  status: ('A' for Active; 'I' for Inactive)
    1  A    between atoms: C_5  and  C_16
    2  A    between atoms: C_5  and  N_30
    3  A    between atoms: C_10  and  C_16
                            x       y       z     vdW  Elec       q    Type
                         _______ _______ _______ _____ _____    ______ ____

>  <TORSDO>
F 3

$$$$
=
 OpenBabel11122413083D

 31 35  0  0  1  0  0  0  0  0999 V2000
  161.0320  206.2990  146.2890 C   0  0  0  0  0  0  0  0  0  0  0  0
  160.7070  204.7950  149.7180 N   0  0  0  0  0  0  0  0  0  0  0  0
  160.8320  203.3530  149.6290 C   0  0  0  0  0  0  0  0  0  0  0  0
  161.1280  201.3130  148.3360 C   0  0  0  0  0  0  0  0  0  0  0  0
  161.1020  205.6460  148.6240 C   0  0  0  0  0  0  0  0  0  0  0  0
  161.9090  207.3560  146.5560 C   0  0  0  0  0  3  0  0  0  0  0  0
  160.9290  202.6950  148.3930 C   0  0  0  0  0  3  0  0  0  0  0  0
  162.0940  206.0560  151.2750 C   0  0  2  0  0  3  0  0  0  0  0  0
  160.5510  206.0910  144.9660 N   0  0  0  0  0  1  0  0  0  0  0  0
  160.8420  203.2310  152.0450 O   0  0  0  0  0  0  0  0  0  0  0  0
  161.2440  200.5100  146.7860 Cl  0  0  0  0  0  0  0  0  0  0  0  0
  162.4280  206.9410  150.1990 O   0  0  0  0  0  0  0  0  0  0  0  0
  160.7080  205.4510  151.0360 C   0  0  2  0  0  3  0  0  0  0  0  0
  160.6260  205.4480  147.3210 C   0  0  0  0  0  3  0  0  0  0  0  0
  161.2490  200.5760  149.5150 C   0  0  0  0  0  3  0  0  0  0  0  0
  161.9790  206.7170  148.8890 C   0  0  0  0  0  0  0  0  0  0  0  0
  162.3800  207.5660  147.8550 C   0  0  0  0  0  3  0  0  0  0  0  0
  160.2450  204.5170  152.1610 C   0  0  0  0  0  2  0  0  0  0  0  0
  160.9380  202.5980  150.8100 C   0  0  0  0  0  0  0  0  0  0  0  0
  161.1570  201.2180  150.7520 C   0  0  0  0  0  3  0  0  0  0  0  0
  162.1700  206.8040  152.5970 C   0  0  0  0  0  2  0  0  0  0  0  0
  160.4690  208.3190  151.5700 C   0  0  0  0  0  1  0  0  0  0  0  0
  161.7390  208.2510  152.3980 C   0  0  1  0  0  3  0  0  0  0  0  0
  161.8240  210.3800  156.0130 C   0  0  1  0  0  3  0  0  0  0  0  0
  161.8840  210.3500  153.7710 C   0  0  0  0  0  2  0  0  0  0  0  0
  160.7950  207.0610  154.8840 O   0  0  0  0  0  0  0  0  0  0  0  0
  162.4610  210.9560  157.2610 C   0  0  0  0  0  1  0  0  0  0  0  0
  162.6720  210.5870  154.9100 O   0  0  0  0  0  0  0  0  0  0  0  0
  161.2520  208.2340  154.9050 C   0  0  0  0  0  0  0  0  0  0  0  0
  161.5610  208.9290  153.6830 N   0  0  0  0  0  0  0  0  0  0  0  0
  161.5590  208.8860  156.2180 C   0  0  0  0  0  2  0  0  0  0  0  0
  1  6  2  0  0  0  0
  1 14  1  0  0  0  0
  2 13  1  0  0  0  0
  3  2  1  0  0  0  0
  3 19  1  0  0  0  0
  4  7  1  0  0  0  0
  4 15  2  0  0  0  0
  5 16  1  0  0  0  0
  5  2  1  0  0  0  0
  6 17  1  0  0  0  0
  7  3  2  0  0  0  0
  8 21  1  1  0  0  0
  9  1  1  0  0  0  0
 10 18  1  0  0  0  0
 11  4  1  0  0  0  0
 12  8  1  0  0  0  0
 13  8  1  0  0  0  0
 13 18  1  1  0  0  0
 14  5  2  0  0  0  0
 15 20  1  0  0  0  0
 16 12  1  0  0  0  0
 17 16  2  0  0  0  0
 19 10  1  0  0  0  0
 20 19  2  0  0  0  0
 23 22  1  1  0  0  0
 23 21  1  0  0  0  0
 23 30  1  0  0  0  0
 24 31  1  0  0  0  0
 24 27  1  1  0  0  0
 25 28  1  0  0  0  0
 26 29  2  0  0  0  0
 28 24  1  0  0  0  0
 29 31  1  0  0  0  0
 30 25  1  0  0  0  0
 30 29  1  0  0  0  0
M  END
>  <MODEL>
9

>  <REMARK>
 VINA RESULT:      -6.1      1.191      1.664
  Name = 
  3 active torsions:
  status: ('A' for Active; 'I' for Inactive)
    1  A    between atoms: C_5  and  C_16
    2  A    between atoms: C_5  and  N_30
    3  A    between atoms: C_10  and  C_16
                            x       y       z     vdW  Elec       q    Type
                         _______ _______ _______ _____ _____    ______ ____

>  <TORSDO>
F 3

$$$$
