=
 OpenBabel11122414273D

 34 41  0  0  1  0  0  0  0  0999 V2000
  160.7790  206.9270  153.6100 C   0  0  0  0  0  0  0  0  0  0  0  0
  161.2450  204.5950  152.6350 C   0  0  0  0  0  3  0  0  0  0  0  0
  158.7310  213.0710  152.9920 C   0  0  2  0  0  3  0  0  0  0  0  0
  160.3440  209.1980  154.4130 C   0  0  0  0  0  0  0  0  0  0  0  0
  159.9630  211.0030  152.6960 C   0  0  1  0  0  3  0  0  0  0  0  0
  159.7160  213.0700  151.1080 C   0  0  0  0  0  2  0  0  0  0  0  0
  158.5630  213.8620  151.7150 C   0  0  0  0  0  2  0  0  0  0  0  0
  159.6280  212.8940  155.3430 C   0  0  0  0  0  2  0  0  0  0  0  0
  161.3540  206.5470  151.2960 C   0  0  0  0  0  0  0  0  0  0  0  0
  160.3980  206.5470  148.5590 C   0  0  0  0  0  2  0  0  0  0  0  0
  160.9830  210.3010  151.8100 C   0  0  0  0  0  2  0  0  0  0  0  0
  159.3060  211.3960  155.1680 C   0  0  0  0  0  2  0  0  0  0  0  0
  161.3060  207.9250  151.0100 C   0  0  0  0  0  0  0  0  0  0  0  0
  161.7160  204.1890  151.2370 C   0  0  0  0  0  3  0  0  0  0  0  0
  160.2740  210.6950  154.1830 C   0  0  1  0  0  3  0  0  0  0  0  0
  158.9810  213.8210  154.2880 C   0  0  0  0  0  2  0  0  0  0  0  0
  160.6810  205.2960  149.2870 N   0  0  0  0  0  0  0  0  0  0  0  0
  160.7030  208.3200  153.3600 C   0  0  0  0  0  0  0  0  0  0  0  0
  160.0280  212.5040  152.4820 C   0  0  1  0  0  3  0  0  0  0  0  0
  160.9730  208.8160  152.0570 C   0  0  0  0  0  0  0  0  0  0  0  0
  160.2310  207.3030  155.9390 C   0  0  0  0  0  3  0  0  0  0  0  0
  161.6040  207.4830  148.4750 C   0  0  0  0  0  2  0  0  0  0  0  0
  160.1390  208.6750  155.7000 C   0  0  0  0  0  3  0  0  0  0  0  0
  161.6120  208.4830  149.6330 C   0  0  0  0  0  2  0  0  0  0  0  0
  161.6940  205.4440  150.3480 C   0  0  1  0  0  3  0  0  0  0  0  0
  160.5440  206.4310  154.8980 C   0  0  0  0  0  3  0  0  0  0  0  0
  161.1060  206.0670  152.5580 C   0  0  0  0  0  0  0  0  0  0  0  0
  161.1980  204.3520  148.3040 C   0  0  0  0  0  2  0  0  0  0  0  0
  162.4710  204.9010  147.6840 C   0  0  0  0  0  2  0  0  0  0  0  0
  160.7200  204.1530  144.8240 N   0  0  0  0  0  0  0  0  0  0  0  0
  162.3910  205.6640  145.3060 C   0  0  0  0  0  2  0  0  0  0  0  0
  162.5810  204.4680  146.2330 C   0  0  2  0  0  3  0  0  0  0  0  0
  161.2070  205.2840  144.4960 C   0  0  0  0  0  3  0  0  0  0  0  0
  161.4350  203.5220  145.8950 C   0  0  0  0  0  2  0  0  0  0  0  0
  1 26  2  0  0  0  0
  3  7  1  6  0  0  0
  3 16  1  0  0  0  0
  4 23  1  0  0  0  0
  5 11  1  6  0  0  0
  5 15  1  0  0  0  0
  6  7  1  0  0  0  0
  9 27  2  0  0  0  0
 10 17  1  0  0  0  0
 11 20  1  0  0  0  0
 12  8  1  0  0  0  0
 13  9  1  0  0  0  0
 13 20  2  0  0  0  0
 14  2  2  0  0  0  0
 15  4  1  0  0  0  0
 15 12  1  1  0  0  0
 16  8  1  0  0  0  0
 17 25  1  0  0  0  0
 18  1  1  0  0  0  0
 18  4  2  0  0  0  0
 19  6  1  6  0  0  0
 19  5  1  0  0  0  0
 19  3  1  0  0  0  0
 20 18  1  0  0  0  0
 22 10  1  0  0  0  0
 22 24  1  0  0  0  0
 23 21  2  0  0  0  0
 24 13  1  0  0  0  0
 25 14  1  1  0  0  0
 25  9  1  0  0  0  0
 26 21  1  0  0  0  0
 27  2  1  0  0  0  0
 27  1  1  0  0  0  0
 28 17  1  0  0  0  0
 29 28  1  0  0  0  0
 30 34  1  0  0  0  0
 31 32  1  0  0  0  0
 32 29  1  1  0  0  0
 33 30  2  0  0  0  0
 33 31  1  0  0  0  0
 34 32  1  0  0  0  0
M  END
>  <MODEL>
1

>  <REMARK>
 VINA RESULT:     -11.3      0.000      0.000
  Name = 
  3 active torsions:
  status: ('A' for Active; 'I' for Inactive)
    1  A    between atoms: N_17  and  C_28
    2  A    between atoms: C_28  and  C_29
    3  A    between atoms: C_29  and  C_32
                            x       y       z     vdW  Elec       q    Type
                         _______ _______ _______ _____ _____    ______ ____

>  <TORSDO>
F 3

$$$$
=
 OpenBabel11122414273D

 34 41  0  0  1  0  0  0  0  0999 V2000
  161.5800  209.0990  151.0050 C   0  0  0  0  0  0  0  0  0  0  0  0
  161.3010  211.0280  152.6800 C   0  0  0  0  0  3  0  0  0  0  0  0
  160.4400  202.9860  149.0910 C   0  0  2  0  0  3  0  0  0  0  0  0
  161.8170  207.1760  149.5090 C   0  0  0  0  0  0  0  0  0  0  0  0
  161.1480  204.9090  150.3880 C   0  0  1  0  0  3  0  0  0  0  0  0
  160.6890  202.4420  151.1310 C   0  0  0  0  0  2  0  0  0  0  0  0
  159.9620  201.8290  149.9390 C   0  0  0  0  0  2  0  0  0  0  0  0
  162.0650  203.9270  147.4060 C   0  0  0  0  0  2  0  0  0  0  0  0
  161.2400  208.7630  153.3710 C   0  0  0  0  0  0  0  0  0  0  0  0
  159.3980  207.8670  155.4230 C   0  0  0  0  0  2  0  0  0  0  0  0
  161.6690  205.3430  151.7510 C   0  0  0  0  0  2  0  0  0  0  0  0
  161.4700  205.2800  147.8470 C   0  0  0  0  0  2  0  0  0  0  0  0
  161.3120  207.3630  153.2300 C   0  0  0  0  0  0  0  0  0  0  0  0
  161.1820  210.9970  154.2050 C   0  0  0  0  0  3  0  0  0  0  0  0
  161.9080  205.6800  149.2780 C   0  0  1  0  0  3  0  0  0  0  0  0
  161.2430  202.6900  147.8380 C   0  0  0  0  0  2  0  0  0  0  0  0
  159.7170  209.2930  155.2300 N   0  0  0  0  0  0  0  0  0  0  0  0
  161.6410  207.6950  150.8160 C   0  0  0  0  0  0  0  0  0  0  0  0
  161.3690  203.4210  150.1920 C   0  0  1  0  0  3  0  0  0  0  0  0
  161.5120  206.8300  151.9340 C   0  0  0  0  0  0  0  0  0  0  0  0
  161.9500  209.4460  148.6370 C   0  0  0  0  0  3  0  0  0  0  0  0
  160.6290  207.0040  155.7020 C   0  0  0  0  0  2  0  0  0  0  0  0
  161.9970  208.0650  148.4380 C   0  0  0  0  0  3  0  0  0  0  0  0
  161.2000  206.4170  154.4090 C   0  0  0  0  0  2  0  0  0  0  0  0
  161.0480  209.5270  154.6400 C   0  0  1  0  0  3  0  0  0  0  0  0
  161.7360  209.9610  149.9140 C   0  0  0  0  0  3  0  0  0  0  0  0
  161.3780  209.6010  152.2930 C   0  0  0  0  0  0  0  0  0  0  0  0
  159.7020  209.9050  156.5530 C   0  0  0  0  0  2  0  0  0  0  0  0
  158.7620  211.0980  156.5580 C   0  0  0  0  0  2  0  0  0  0  0  0
  155.8090  212.2110  155.1980 N   0  0  0  0  0  0  0  0  0  0  0  0
  158.0100  212.3570  154.5340 C   0  0  0  0  0  2  0  0  0  0  0  0
  157.8630  211.0670  155.3350 C   0  0  2  0  0  3  0  0  0  0  0  0
  156.6370  212.9210  154.5390 C   0  0  0  0  0  3  0  0  0  0  0  0
  156.4050  211.0400  155.7740 C   0  0  0  0  0  2  0  0  0  0  0  0
  1 27  1  0  0  0  0
  2 14  2  0  0  0  0
  3 16  1  6  0  0  0
  3  7  1  0  0  0  0
  3 19  1  0  0  0  0
  4 18  1  0  0  0  0
  5 11  1  1  0  0  0
  7  6  1  0  0  0  0
  8 16  1  0  0  0  0
  8 12  1  0  0  0  0
  9 25  1  0  0  0  0
 10 22  1  0  0  0  0
 11 20  1  0  0  0  0
 13  9  1  0  0  0  0
 13 24  1  0  0  0  0
 15 12  1  6  0  0  0
 15  4  1  0  0  0  0
 15  5  1  0  0  0  0
 17 10  1  0  0  0  0
 17 28  1  0  0  0  0
 18  1  2  0  0  0  0
 18 20  1  0  0  0  0
 19  5  1  0  0  0  0
 19  6  1  1  0  0  0
 20 13  2  0  0  0  0
 21 26  2  0  0  0  0
 23 21  1  0  0  0  0
 23  4  2  0  0  0  0
 24 22  1  0  0  0  0
 25 14  1  6  0  0  0
 25 17  1  0  0  0  0
 26  1  1  0  0  0  0
 27  2  1  0  0  0  0
 27  9  2  0  0  0  0
 28 29  1  0  0  0  0
 30 34  1  0  0  0  0
 31 33  1  0  0  0  0
 31 32  1  0  0  0  0
 32 34  1  0  0  0  0
 32 29  1  1  0  0  0
 33 30  2  0  0  0  0
M  END
>  <MODEL>
2

>  <REMARK>
 VINA RESULT:     -10.5      2.812      8.826
  Name = 
  3 active torsions:
  status: ('A' for Active; 'I' for Inactive)
    1  A    between atoms: N_17  and  C_28
    2  A    between atoms: C_28  and  C_29
    3  A    between atoms: C_29  and  C_32
                            x       y       z     vdW  Elec       q    Type
                         _______ _______ _______ _____ _____    ______ ____

>  <TORSDO>
F 3

$$$$
=
 OpenBabel11122414273D

 34 41  0  0  1  0  0  0  0  0999 V2000
  160.9430  205.1820  152.4100 C   0  0  0  0  0  0  0  0  0  0  0  0
  161.0270  206.5590  154.5790 C   0  0  0  0  0  3  0  0  0  0  0  0
  162.3300  204.3650  146.1060 C   0  0  2  0  0  3  0  0  0  0  0  0
  160.8820  203.9850  150.2760 C   0  0  0  0  0  0  0  0  0  0  0  0
  161.4730  205.2680  148.1870 C   0  0  1  0  0  3  0  0  0  0  0  0
  161.8700  206.4270  145.8750 C   0  0  0  0  0  2  0  0  0  0  0  0
  162.7240  205.4260  145.1050 C   0  0  0  0  0  2  0  0  0  0  0  0
  160.8860  202.3950  146.7380 C   0  0  0  0  0  2  0  0  0  0  0  0
  161.0330  207.5940  152.4480 C   0  0  0  0  0  0  0  0  0  0  0  0
  162.6540  209.9400  151.9210 C   0  0  0  0  0  2  0  0  0  0  0  0
  160.8060  206.4860  148.8120 C   0  0  0  0  0  2  0  0  0  0  0  0
  161.4190  202.6810  148.1570 C   0  0  0  0  0  2  0  0  0  0  0  0
  160.9880  207.6640  151.0420 C   0  0  0  0  0  0  0  0  0  0  0  0
  160.9840  208.0740  154.7840 C   0  0  0  0  0  3  0  0  0  0  0  0
  160.8280  203.9800  148.7600 C   0  0  1  0  0  3  0  0  0  0  0  0
  161.6670  203.0960  145.6030 C   0  0  0  0  0  2  0  0  0  0  0  0
  162.3450  209.4970  153.2940 N   0  0  0  0  0  0  0  0  0  0  0  0
  160.9140  205.2070  150.9930 C   0  0  0  0  0  0  0  0  0  0  0  0
  161.2860  205.2830  146.6820 C   0  0  1  0  0  3  0  0  0  0  0  0
  160.9310  206.4530  150.3120 C   0  0  0  0  0  0  0  0  0  0  0  0
  160.8240  202.7630  152.3820 C   0  0  0  0  0  3  0  0  0  0  0  0
  161.4070  210.2200  151.0810 C   0  0  0  0  0  2  0  0  0  0  0  0
  160.8100  202.7760  150.9860 C   0  0  0  0  0  3  0  0  0  0  0  0
  160.9820  208.9810  150.2900 C   0  0  0  0  0  2  0  0  0  0  0  0
  161.0830  208.7420  153.4020 C   0  0  1  0  0  3  0  0  0  0  0  0
  160.8970  203.9600  153.0910 C   0  0  0  0  0  3  0  0  0  0  0  0
  161.0040  206.3910  153.1080 C   0  0  0  0  0  0  0  0  0  0  0  0
  162.2150  210.7030  154.1000 C   0  0  0  0  0  2  0  0  0  0  0  0
  160.8310  211.3000  153.9140 C   0  0  0  0  0  2  0  0  0  0  0  0
  159.0340  210.7130  156.7830 N   0  0  0  0  0  0  0  0  0  0  0  0
  161.1910  211.4180  156.3830 C   0  0  0  0  0  2  0  0  0  0  0  0
  160.3340  211.8990  155.2170 C   0  0  2  0  0  3  0  0  0  0  0  0
  160.2170  210.7220  157.2600 C   0  0  0  0  0  3  0  0  0  0  0  0
  158.9340  211.3770  155.5160 C   0  0  0  0  0  2  0  0  0  0  0  0
  1 26  1  0  0  0  0
  1 27  1  0  0  0  0
  2 14  2  0  0  0  0
  3  7  1  6  0  0  0
  3 19  1  0  0  0  0
  4 23  2  0  0  0  0
  4 18  1  0  0  0  0
  5 15  1  0  0  0  0
  5 11  1  1  0  0  0
  7  6  1  0  0  0  0
  8 12  1  0  0  0  0
  9 27  2  0  0  0  0
  9 25  1  0  0  0  0
 10 17  1  0  0  0  0
 11 20  1  0  0  0  0
 13  9  1  0  0  0  0
 15 12  1  6  0  0  0
 15  4  1  0  0  0  0
 16  3  1  0  0  0  0
 16  8  1  0  0  0  0
 17 25  1  0  0  0  0
 17 28  1  0  0  0  0
 18  1  2  0  0  0  0
 19  6  1  6  0  0  0
 19  5  1  0  0  0  0
 20 18  1  0  0  0  0
 20 13  2  0  0  0  0
 21 26  2  0  0  0  0
 22 10  1  0  0  0  0
 23 21  1  0  0  0  0
 24 13  1  0  0  0  0
 24 22  1  0  0  0  0
 25 14  1  1  0  0  0
 27  2  1  0  0  0  0
 29 28  1  0  0  0  0
 30 33  2  0  0  0  0
 31 33  1  0  0  0  0
 32 29  1  6  0  0  0
 32 34  1  0  0  0  0
 32 31  1  0  0  0  0
 34 30  1  0  0  0  0
M  END
>  <MODEL>
3

>  <REMARK>
 VINA RESULT:      -9.8      2.507      8.420
  Name = 
  3 active torsions:
  status: ('A' for Active; 'I' for Inactive)
    1  A    between atoms: N_17  and  C_28
    2  A    between atoms: C_28  and  C_29
    3  A    between atoms: C_29  and  C_32
                            x       y       z     vdW  Elec       q    Type
                         _______ _______ _______ _____ _____    ______ ____

>  <TORSDO>
F 3

$$$$
=
 OpenBabel11122414273D

 34 41  0  0  1  0  0  0  0  0999 V2000
  161.6980  208.2880  150.2100 C   0  0  0  0  0  0  0  0  0  0  0  0
  161.6720  210.3390  151.7600 C   0  0  0  0  0  3  0  0  0  0  0  0
  160.0820  202.1340  148.8540 C   0  0  2  0  0  3  0  0  0  0  0  0
  161.6980  206.2580  148.8430 C   0  0  0  0  0  0  0  0  0  0  0  0
  161.0020  204.0970  149.9390 C   0  0  1  0  0  3  0  0  0  0  0  0
  160.4920  201.7160  150.8980 C   0  0  0  0  0  2  0  0  0  0  0  0
  159.6280  201.0660  149.8230 C   0  0  0  0  0  2  0  0  0  0  0  0
  161.5860  202.8660  146.9660 C   0  0  0  0  0  2  0  0  0  0  0  0
  161.5630  208.1320  152.6160 C   0  0  0  0  0  0  0  0  0  0  0  0
  159.8790  207.4820  154.8840 C   0  0  0  0  0  2  0  0  0  0  0  0
  161.6690  204.5930  151.2150 C   0  0  0  0  0  2  0  0  0  0  0  0
  161.1040  204.2770  147.3590 C   0  0  0  0  0  2  0  0  0  0  0  0
  161.5520  206.7240  152.5700 C   0  0  0  0  0  0  0  0  0  0  0  0
  161.6950  210.4170  153.2870 C   0  0  0  0  0  3  0  0  0  0  0  0
  161.6930  204.7470  148.7130 C   0  0  1  0  0  3  0  0  0  0  0  0
  160.7480  201.7090  147.5590 C   0  0  0  0  0  2  0  0  0  0  0  0
  160.2490  208.8720  154.5600 N   0  0  0  0  0  0  0  0  0  0  0  0
  161.6710  206.8740  150.1190 C   0  0  0  0  0  0  0  0  0  0  0  0
  161.1300  202.5900  149.8330 C   0  0  1  0  0  3  0  0  0  0  0  0
  161.6040  206.0940  151.3040 C   0  0  0  0  0  0  0  0  0  0  0  0
  161.8620  208.4530  147.8000 C   0  0  0  0  0  3  0  0  0  0  0  0
  161.0870  206.5720  155.1130 C   0  0  0  0  0  2  0  0  0  0  0  0
  161.8210  207.0610  147.6980 C   0  0  0  0  0  3  0  0  0  0  0  0
  161.5040  205.8680  153.8200 C   0  0  0  0  0  2  0  0  0  0  0  0
  161.5290  208.9910  153.8370 C   0  0  1  0  0  3  0  0  0  0  0  0
  161.7940  209.0650  149.0500 C   0  0  0  0  0  3  0  0  0  0  0  0
  161.6420  208.8870  151.4720 C   0  0  0  0  0  0  0  0  0  0  0  0
  160.3880  209.5710  155.8310 C   0  0  0  0  0  2  0  0  0  0  0  0
  159.0150  209.8530  156.4160 C   0  0  0  0  0  2  0  0  0  0  0  0
  159.6930  212.8750  154.9280 N   0  0  0  0  0  0  0  0  0  0  0  0
  157.7420  211.7390  155.3840 C   0  0  0  0  0  2  0  0  0  0  0  0
  158.7540  211.3470  156.4560 C   0  0  2  0  0  3  0  0  0  0  0  0
  158.4920  212.7010  154.5400 C   0  0  0  0  0  3  0  0  0  0  0  0
  160.0280  212.0970  156.0860 C   0  0  0  0  0  2  0  0  0  0  0  0
  1 27  1  0  0  0  0
  2 14  2  0  0  0  0
  3 16  1  6  0  0  0
  3  7  1  0  0  0  0
  3 19  1  0  0  0  0
  4 18  1  0  0  0  0
  5 11  1  1  0  0  0
  7  6  1  0  0  0  0
  8 12  1  0  0  0  0
  8 16  1  0  0  0  0
  9 25  1  0  0  0  0
 10 22  1  0  0  0  0
 11 20  1  0  0  0  0
 13  9  1  0  0  0  0
 13 24  1  0  0  0  0
 15 12  1  6  0  0  0
 15  4  1  0  0  0  0
 15  5  1  0  0  0  0
 17 10  1  0  0  0  0
 17 28  1  0  0  0  0
 18  1  2  0  0  0  0
 18 20  1  0  0  0  0
 19  5  1  0  0  0  0
 19  6  1  1  0  0  0
 20 13  2  0  0  0  0
 21 26  2  0  0  0  0
 23 21  1  0  0  0  0
 23  4  2  0  0  0  0
 24 22  1  0  0  0  0
 25 14  1  6  0  0  0
 25 17  1  0  0  0  0
 26  1  1  0  0  0  0
 27  2  1  0  0  0  0
 27  9  2  0  0  0  0
 28 29  1  0  0  0  0
 30 34  1  0  0  0  0
 31 32  1  0  0  0  0
 32 29  1  6  0  0  0
 33 30  2  0  0  0  0
 33 31  1  0  0  0  0
 34 32  1  0  0  0  0
M  END
>  <MODEL>
4

>  <REMARK>
 VINA RESULT:      -9.6      2.664      9.012
  Name = 
  3 active torsions:
  status: ('A' for Active; 'I' for Inactive)
    1  A    between atoms: N_17  and  C_28
    2  A    between atoms: C_28  and  C_29
    3  A    between atoms: C_29  and  C_32
                            x       y       z     vdW  Elec       q    Type
                         _______ _______ _______ _____ _____    ______ ____

>  <TORSDO>
F 3

$$$$
