=
 OpenBabel11122412553D

 32 37  0  0  1  0  0  0  0  0999 V2000
  160.7730  201.3280  150.1710 C   0  0  0  0  0  2  0  0  0  0  0  0
  161.1760  206.5570  152.0950 C   0  0  0  0  0  0  0  0  0  0  0  0
  162.0940  209.8560  148.6430 C   0  0  0  0  0  3  0  0  0  0  0  0
  162.0300  210.8380  149.5760 N   0  0  0  0  0  0  0  0  0  0  0  0
  160.7440  207.3560  154.4670 C   0  0  0  0  0  0  0  0  0  0  0  0
  160.6260  208.4820  155.3820 C   0  0  0  0  0  0  0  0  0  0  0  0
  161.1150  204.1850  151.3970 C   0  0  0  0  0  0  0  0  0  0  0  0
  161.5260  205.8640  149.7210 N   0  0  0  0  0  2  0  0  0  0  0  0
  160.6780  210.5870  156.0300 N   0  0  0  0  0  0  0  0  0  0  0  0
  161.4950  203.4600  149.0100 C   0  0  0  0  0  2  0  0  0  0  0  0
  161.8970  208.5290  149.0140 C   0  0  0  0  0  3  0  0  0  0  0  0
  161.4510  206.9150  150.6950 C   0  0  0  0  0  0  0  0  0  0  0  0
  161.6300  208.2020  150.3520 C   0  0  0  0  0  0  0  0  0  0  0  0
  161.3060  208.9850  152.6290 C   0  0  0  0  0  0  0  0  0  0  0  0
  160.3290  209.8330  157.0940 C   0  0  0  0  0  3  0  0  0  0  0  0
  161.6080  201.8510  151.1760 O   0  0  0  0  0  0  0  0  0  0  0  0
  161.3360  204.4940  150.0940 C   0  0  0  0  0  0  0  0  0  0  0  0
  160.2850  208.4900  156.7230 C   0  0  0  0  0  3  0  0  0  0  0  0
  160.8390  202.7860  151.8790 C   0  0  0  0  0  2  0  0  0  0  0  0
  160.4350  202.3630  149.0870 C   0  0  1  0  0  3  0  0  0  0  0  0
  161.7740  210.5620  150.8810 C   0  0  0  0  0  3  0  0  0  0  0  0
  161.5640  209.2410  151.3190 C   0  0  0  0  0  0  0  0  0  0  0  0
  161.2860  210.1510  153.6130 C   0  0  0  0  0  2  0  0  0  0  0  0
  161.0190  205.2620  152.4040 C   0  0  0  0  0  3  0  0  0  0  0  0
  160.5440  206.1880  154.8980 O   0  0  0  0  0  0  0  0  0  0  0  0
  160.8370  212.0300  156.0340 C   0  0  0  0  0  1  0  0  0  0  0  0
  161.0820  207.6140  153.0800 N   0  0  0  0  0  0  0  0  0  0  0  0
  160.8550  209.7610  154.9880 C   0  0  0  0  0  0  0  0  0  0  0  0
  160.3150  201.6900  147.8020 N   0  0  0  0  0  2  0  0  0  0  0  0
  160.7300  202.2940  146.5760 C   0  0  0  0  0  0  0  0  0  0  0  0
  161.2010  203.4620  146.5610 O   0  0  0  0  0  0  0  0  0  0  0  0
  160.5990  201.5380  145.3040 C   0  0  0  0  0  1  0  0  0  0  0  0
  1 16  1  0  0  0  0
  2 24  2  0  0  0  0
  2 27  1  0  0  0  0
  3 11  2  0  0  0  0
  3  4  1  0  0  0  0
  4 21  2  0  0  0  0
  5 25  2  0  0  0  0
  5  6  1  0  0  0  0
  6 18  1  0  0  0  0
  7 19  1  0  0  0  0
  7 24  1  0  0  0  0
  8 17  1  0  0  0  0
  8 12  1  0  0  0  0
  9 26  1  0  0  0  0
  9 15  1  0  0  0  0
 10 20  1  0  0  0  0
 10 17  1  0  0  0  0
 11 13  1  0  0  0  0
 12  2  1  0  0  0  0
 13 12  2  0  0  0  0
 13 22  1  0  0  0  0
 14 27  1  0  0  0  0
 14 23  1  0  0  0  0
 16 19  1  0  0  0  0
 17  7  2  0  0  0  0
 18 15  2  0  0  0  0
 20 29  1  6  0  0  0
 20  1  1  0  0  0  0
 21 22  1  0  0  0  0
 22 14  2  0  0  0  0
 23 28  1  0  0  0  0
 27  5  1  0  0  0  0
 28  6  2  0  0  0  0
 28  9  1  0  0  0  0
 30 29  1  0  0  0  0
 31 30  2  0  0  0  0
 32 30  1  0  0  0  0
M  END
>  <MODEL>
1

>  <REMARK>
 VINA RESULT:     -10.5      0.000      0.000
  Name = 
  1 active torsions:
  status: ('A' for Active; 'I' for Inactive)
    1  A    between atoms: C_20  and  N_29
                            x       y       z     vdW  Elec       q    Type
                         _______ _______ _______ _____ _____    ______ ____

>  <TORSDO>
F 1

$$$$
=
 OpenBabel11122412553D

 32 37  0  0  1  0  0  0  0  0999 V2000
  160.9710  208.0430  157.1980 C   0  0  0  0  0  2  0  0  0  0  0  0
  161.0400  206.1170  151.9560 C   0  0  2  0  0  3  0  0  0  0  0  0
  162.1150  209.5010  148.6330 C   0  0  0  0  0  3  0  0  0  0  0  0
  162.0540  208.5550  147.6630 N   0  0  0  0  0  0  0  0  0  0  0  0
  160.7710  203.7060  151.2030 C   0  0  0  0  0  0  0  0  0  0  0  0
  160.7960  202.7520  150.1050 C   0  0  0  0  0  0  0  0  0  0  0  0
  160.8350  206.8700  154.3030 C   0  0  0  0  0  0  0  0  0  0  0  0
  161.4050  208.4960  152.6210 N   0  0  0  0  0  0  0  0  0  0  0  0
  160.9690  202.0560  148.0220 N   0  0  0  0  0  0  0  0  0  0  0  0
  161.1730  209.2730  154.9940 C   0  0  0  0  0  2  0  0  0  0  0  0
  161.8830  209.1520  149.9600 C   0  0  0  0  0  3  0  0  0  0  0  0
  161.3560  207.5060  151.5850 C   0  0  0  0  0  0  0  0  0  0  0  0
  161.5860  207.8240  150.3000 C   0  0  0  0  0  0  0  0  0  0  0  0
  161.2490  205.5390  149.5430 C   0  0  0  0  0  0  0  0  0  0  0  0
  160.7540  200.9770  148.8040 C   0  0  0  0  0  3  0  0  0  0  0  0
  159.9670  207.3670  156.4800 O   0  0  0  0  0  0  0  0  0  0  0  0
  161.1570  208.1500  153.9890 C   0  0  0  0  0  0  0  0  0  0  0  0
  160.6390  201.3770  150.1340 C   0  0  0  0  0  3  0  0  0  0  0  0
  160.6210  206.3930  155.7140 C   0  0  0  0  0  2  0  0  0  0  0  0
  161.8790  208.8880  156.2920 C   0  0  1  0  0  3  0  0  0  0  0  0
  161.7710  207.2580  147.9510 C   0  0  0  0  0  3  0  0  0  0  0  0
  161.5280  206.8420  149.2740 C   0  0  0  0  0  0  0  0  0  0  0  0
  161.1700  204.5530  148.3820 C   0  0  0  0  0  2  0  0  0  0  0  0
  160.7990  205.8390  153.2450 C   0  0  0  0  0  3  0  0  0  0  0  0
  160.5530  203.2920  152.3750 O   0  0  0  0  0  0  0  0  0  0  0  0
  161.1290  202.0340  146.5790 C   0  0  0  0  0  1  0  0  0  0  0  0
  161.0040  205.1090  150.9170 N   0  0  0  0  0  0  0  0  0  0  0  0
  160.9980  203.1350  148.8180 C   0  0  0  0  0  0  0  0  0  0  0  0
  162.2960  210.0830  157.0100 N   0  0  0  0  0  2  0  0  0  0  0  0
  163.2510  211.0040  156.4810 C   0  0  0  0  0  0  0  0  0  0  0  0
  163.7930  210.7980  155.3620 O   0  0  0  0  0  0  0  0  0  0  0  0
  163.6120  212.2170  157.2600 C   0  0  0  0  0  1  0  0  0  0  0  0
  2 24  1  1  0  0  0
  3 11  2  0  0  0  0
  4 21  2  0  0  0  0
  4  3  1  0  0  0  0
  5 25  2  0  0  0  0
  6 18  1  0  0  0  0
  6  5  1  0  0  0  0
  7 19  1  0  0  0  0
  8 17  2  0  0  0  0
  9 15  1  0  0  0  0
  9 28  1  0  0  0  0
 10 20  1  0  0  0  0
 11 13  1  0  0  0  0
 12  2  1  0  0  0  0
 12  8  1  0  0  0  0
 13 12  2  0  0  0  0
 14 27  1  0  0  0  0
 15 18  2  0  0  0  0
 16  1  1  0  0  0  0
 17  7  1  0  0  0  0
 17 10  1  0  0  0  0
 19 16  1  0  0  0  0
 20 29  1  1  0  0  0
 20  1  1  0  0  0  0
 21 22  1  0  0  0  0
 22 14  2  0  0  0  0
 22 13  1  0  0  0  0
 23 28  1  0  0  0  0
 23 14  1  0  0  0  0
 24  7  2  0  0  0  0
 26  9  1  0  0  0  0
 27  5  1  0  0  0  0
 27  2  1  0  0  0  0
 28  6  2  0  0  0  0
 30 29  1  0  0  0  0
 30 32  1  0  0  0  0
 31 30  2  0  0  0  0
M  END
>  <MODEL>
2

>  <REMARK>
 VINA RESULT:     -10.3      1.746      7.976
  Name = 
  1 active torsions:
  status: ('A' for Active; 'I' for Inactive)
    1  A    between atoms: C_20  and  N_29
                            x       y       z     vdW  Elec       q    Type
                         _______ _______ _______ _____ _____    ______ ____

>  <TORSDO>
F 1

$$$$
=
 OpenBabel11122412553D

 32 37  0  0  1  0  0  0  0  0999 V2000
  161.5220  212.7440  149.0280 C   0  0  0  0  0  2  0  0  0  0  0  0
  161.4600  207.1590  149.0940 C   0  0  2  0  0  3  0  0  0  0  0  0
  161.0690  205.2500  153.5480 C   0  0  0  0  0  3  0  0  0  0  0  0
  161.0440  204.0080  153.0040 N   0  0  0  0  0  0  0  0  0  0  0  0
  161.4180  205.6020  147.0870 C   0  0  0  0  0  0  0  0  0  0  0  0
  161.3140  204.2360  146.5940 C   0  0  0  0  0  0  0  0  0  0  0  0
  161.6430  209.6210  148.9370 C   0  0  0  0  0  0  0  0  0  0  0  0
  161.4070  208.6240  151.1160 N   0  0  0  0  0  0  0  0  0  0  0  0
  161.1570  202.0420  146.7060 N   0  0  0  0  0  0  0  0  0  0  0  0
  161.6200  211.1180  150.9680 C   0  0  0  0  0  2  0  0  0  0  0  0
  161.1750  206.3680  152.7270 C   0  0  0  0  0  3  0  0  0  0  0  0
  161.3690  207.3040  150.5550 C   0  0  0  0  0  0  0  0  0  0  0  0
  161.2570  206.2150  151.3340 C   0  0  0  0  0  0  0  0  0  0  0  0
  161.3010  204.6990  149.4360 C   0  0  0  0  0  0  0  0  0  0  0  0
  161.1710  202.3920  145.4030 C   0  0  0  0  0  3  0  0  0  0  0  0
  162.4540  211.8320  148.5000 O   0  0  0  0  0  0  0  0  0  0  0  0
  161.5270  209.7810  150.2790 C   0  0  0  0  0  0  0  0  0  0  0  0
  161.2700  203.7770  145.2890 C   0  0  0  0  0  3  0  0  0  0  0  0
  161.7090  210.7720  147.9700 C   0  0  0  0  0  2  0  0  0  0  0  0
  160.7950  212.1960  150.2660 C   0  0  1  0  0  3  0  0  0  0  0  0
  161.1210  203.8180  151.6620 C   0  0  0  0  0  3  0  0  0  0  0  0
  161.2290  204.9080  150.7770 C   0  0  0  0  0  0  0  0  0  0  0  0
  161.3000  203.2630  148.9180 C   0  0  0  0  0  2  0  0  0  0  0  0
  161.5880  208.2660  148.3480 C   0  0  0  0  0  3  0  0  0  0  0  0
  161.5090  206.5510  146.2620 O   0  0  0  0  0  0  0  0  0  0  0  0
  161.0740  200.6850  147.2160 C   0  0  0  0  0  1  0  0  0  0  0  0
  161.4070  205.8310  148.5200 N   0  0  0  0  0  0  0  0  0  0  0  0
  161.2400  203.1690  147.4290 C   0  0  0  0  0  0  0  0  0  0  0  0
  160.5170  213.2900  151.1840 N   0  0  0  0  0  2  0  0  0  0  0  0
  159.3640  213.3130  152.0280 C   0  0  0  0  0  0  0  0  0  0  0  0
  158.5200  212.3790  151.9890 O   0  0  0  0  0  0  0  0  0  0  0  0
  159.1570  214.4530  152.9570 C   0  0  0  0  0  1  0  0  0  0  0  0
  1 20  1  0  0  0  0
  2 24  1  6  0  0  0
  2 12  1  0  0  0  0
  4  3  1  0  0  0  0
  5 27  1  0  0  0  0
  6  5  1  0  0  0  0
  6 28  2  0  0  0  0
  7 17  1  0  0  0  0
  9 26  1  0  0  0  0
  9 28  1  0  0  0  0
 11  3  2  0  0  0  0
 12  8  1  0  0  0  0
 12 13  2  0  0  0  0
 13 11  1  0  0  0  0
 14 22  2  0  0  0  0
 15  9  1  0  0  0  0
 16  1  1  0  0  0  0
 17 10  1  0  0  0  0
 17  8  2  0  0  0  0
 18 15  2  0  0  0  0
 18  6  1  0  0  0  0
 19 16  1  0  0  0  0
 19  7  1  0  0  0  0
 20 10  1  0  0  0  0
 20 29  1  1  0  0  0
 21  4  2  0  0  0  0
 22 13  1  0  0  0  0
 22 21  1  0  0  0  0
 23 14  1  0  0  0  0
 24  7  2  0  0  0  0
 25  5  2  0  0  0  0
 27  2  1  0  0  0  0
 27 14  1  0  0  0  0
 28 23  1  0  0  0  0
 29 30  1  0  0  0  0
 30 32  1  0  0  0  0
 31 30  2  0  0  0  0
M  END
>  <MODEL>
3

>  <REMARK>
 VINA RESULT:      -8.9      2.995      9.001
  Name = 
  1 active torsions:
  status: ('A' for Active; 'I' for Inactive)
    1  A    between atoms: C_20  and  N_29
                            x       y       z     vdW  Elec       q    Type
                         _______ _______ _______ _____ _____    ______ ____

>  <TORSDO>
F 1

$$$$
=
 OpenBabel11122412553D

 32 37  0  0  1  0  0  0  0  0999 V2000
  160.9030  211.2910  153.4920 C   0  0  0  0  0  2  0  0  0  0  0  0
  161.1470  206.7410  150.2600 C   0  0  2  0  0  3  0  0  0  0  0  0
  160.7670  202.5620  152.7170 C   0  0  0  0  0  3  0  0  0  0  0  0
  160.8230  201.8790  151.5470 N   0  0  0  0  0  0  0  0  0  0  0  0
  161.2330  206.6640  147.7230 C   0  0  0  0  0  0  0  0  0  0  0  0
  161.2150  205.8490  146.5170 C   0  0  0  0  0  0  0  0  0  0  0  0
  161.1980  208.8270  151.5890 C   0  0  0  0  0  0  0  0  0  0  0  0
  160.9710  206.7310  152.7510 N   0  0  0  0  0  0  0  0  0  0  0  0
  161.1760  204.0060  145.3110 N   0  0  0  0  0  0  0  0  0  0  0  0
  161.0490  208.8380  154.1070 C   0  0  0  0  0  2  0  0  0  0  0  0
  160.8290  203.9520  152.7160 C   0  0  0  0  0  3  0  0  0  0  0  0
  161.0170  205.9940  151.5220 C   0  0  0  0  0  0  0  0  0  0  0  0
  160.9490  204.6520  151.5060 C   0  0  0  0  0  0  0  0  0  0  0  0
  161.1160  204.5480  149.0830 C   0  0  0  0  0  0  0  0  0  0  0  0
  161.1980  205.0570  144.4640 C   0  0  0  0  0  3  0  0  0  0  0  0
  161.8950  210.8950  152.5750 O   0  0  0  0  0  0  0  0  0  0  0  0
  161.0450  208.1610  152.7610 C   0  0  0  0  0  0  0  0  0  0  0  0
  161.2240  206.2450  145.1910 C   0  0  0  0  0  3  0  0  0  0  0  0
  161.2210  210.3280  151.4870 C   0  0  0  0  0  2  0  0  0  0  0  0
  160.1820  210.0960  154.1340 C   0  0  1  0  0  3  0  0  0  0  0  0
  160.9380  202.5200  150.3550 C   0  0  0  0  0  3  0  0  0  0  0  0
  161.0040  203.9240  150.2860 C   0  0  0  0  0  0  0  0  0  0  0  0
  161.2050  203.6930  147.8220 C   0  0  0  0  0  2  0  0  0  0  0  0
  161.2290  208.0780  150.3150 C   0  0  0  0  0  3  0  0  0  0  0  0
  161.2890  207.9200  147.6180 O   0  0  0  0  0  0  0  0  0  0  0  0
  161.1570  202.6080  144.9210 C   0  0  0  0  0  1  0  0  0  0  0  0
  161.1790  206.0050  149.0140 N   0  0  0  0  0  0  0  0  0  0  0  0
  161.1820  204.4930  146.5610 C   0  0  0  0  0  0  0  0  0  0  0  0
  159.8240  210.4300  155.5040 N   0  0  0  0  0  2  0  0  0  0  0  0
  158.6270  211.1350  155.8360 C   0  0  0  0  0  0  0  0  0  0  0  0
  157.8360  211.5200  154.9360 O   0  0  0  0  0  0  0  0  0  0  0  0
  158.3150  211.4210  157.2610 C   0  0  0  0  0  1  0  0  0  0  0  0
  1 20  1  0  0  0  0
  2 24  1  6  0  0  0
  2 12  1  0  0  0  0
  4  3  1  0  0  0  0
  5 27  1  0  0  0  0
  6 28  2  0  0  0  0
  6  5  1  0  0  0  0
  7 17  1  0  0  0  0
  8 17  2  0  0  0  0
  9 28  1  0  0  0  0
 10 20  1  0  0  0  0
 11  3  2  0  0  0  0
 12  8  1  0  0  0  0
 13 12  2  0  0  0  0
 13 11  1  0  0  0  0
 14 22  2  0  0  0  0
 15 18  2  0  0  0  0
 15  9  1  0  0  0  0
 16  1  1  0  0  0  0
 17 10  1  0  0  0  0
 18  6  1  0  0  0  0
 19  7  1  0  0  0  0
 19 16  1  0  0  0  0
 20 29  1  1  0  0  0
 21  4  2  0  0  0  0
 22 21  1  0  0  0  0
 22 13  1  0  0  0  0
 23 14  1  0  0  0  0
 24  7  2  0  0  0  0
 25  5  2  0  0  0  0
 26  9  1  0  0  0  0
 27 14  1  0  0  0  0
 27  2  1  0  0  0  0
 28 23  1  0  0  0  0
 29 30  1  0  0  0  0
 30 32  1  0  0  0  0
 31 30  2  0  0  0  0
M  END
>  <MODEL>
4

>  <REMARK>
 VINA RESULT:      -8.6      2.480      8.958
  Name = 
  1 active torsions:
  status: ('A' for Active; 'I' for Inactive)
    1  A    between atoms: C_20  and  N_29
                            x       y       z     vdW  Elec       q    Type
                         _______ _______ _______ _____ _____    ______ ____

>  <TORSDO>
F 1

$$$$
