=
 OpenBabel11122413543D

 37 44  0  0  1  0  0  0  0  0999 V2000
  160.9150  207.5730  154.7050 C   0  0  2  0  0  3  0  0  0  0  0  0
  160.9660  203.8940  151.6580 C   0  0  0  0  0  0  0  0  0  0  0  0
  161.4090  207.6650  149.9040 C   0  0  0  0  0  0  0  0  0  0  0  0
  160.0290  208.0910  155.8170 C   0  0  2  0  0  3  0  0  0  0  0  0
  162.7910  210.5860  152.0880 C   0  0  0  0  0  2  0  0  0  0  0  0
  160.8340  205.3370  149.6400 C   0  0  0  0  0  0  0  0  0  0  0  0
  161.7720  208.5250  151.0330 C   0  0  0  0  0  0  0  0  0  0  0  0
  161.4690  210.0640  155.4050 C   0  0  2  0  0  3  0  0  0  0  0  0
  161.1290  206.4350  150.4150 C   0  0  0  0  0  0  0  0  0  0  0  0
  162.1320  209.8270  150.9420 C   0  0  0  0  0  0  0  0  0  0  0  0
  160.8360  205.4870  148.2480 C   0  0  0  0  0  3  0  0  0  0  0  0
  161.4770  208.5630  155.7450 C   0  0  2  0  0  3  0  0  0  0  0  0
  161.2990  206.3480  151.8010 N   0  0  0  0  0  0  0  0  0  0  0  0
  162.4030  203.4080  151.6990 C   0  0  0  0  0  1  0  0  0  0  0  0
  162.1110  209.0200  147.8960 C   0  0  0  0  0  3  0  0  0  0  0  0
  161.2060  206.7310  147.6900 C   0  0  0  0  0  3  0  0  0  0  0  0
  160.8440  205.1660  152.5340 C   0  0  0  0  0  2  0  0  0  0  0  0
  161.4810  210.3770  153.9130 C   0  0  1  0  0  3  0  0  0  0  0  0
  162.6920  209.9530  153.3350 O   0  0  0  0  0  0  0  0  0  0  0  0
  161.5260  207.8320  148.5180 C   0  0  0  0  0  0  0  0  0  0  0  0
  161.6540  207.6730  152.3120 C   0  0  2  0  0  3  0  0  0  0  0  0
  160.5830  204.1200  150.2850 O   0  0  0  0  0  0  0  0  0  0  0  0
  161.8110  210.6000  149.7620 N   0  0  0  0  0  0  0  0  0  0  0  0
  160.0810  202.8140  152.2430 C   0  0  0  0  0  1  0  0  0  0  0  0
  160.2990  209.6440  153.2950 C   0  0  0  0  0  2  0  0  0  0  0  0
  162.5370  210.7000  156.0390 O   0  0  0  0  0  1  0  0  0  0  0  0
  160.5630  208.1360  153.3110 C   0  0  2  0  0  3  0  0  0  0  0  0
  162.2470  210.2260  148.4450 C   0  0  0  0  0  3  0  0  0  0  0  0
  161.5080  212.9450  149.0110 C   0  0  0  0  0  3  0  0  0  0  0  0
  161.2140  211.9070  149.9140 C   0  0  0  0  0  0  0  0  0  0  0  0
  160.3000  212.1570  150.9530 C   0  0  0  0  0  3  0  0  0  0  0  0
  158.8340  213.6400  152.1060 F   0  0  0  0  0  0  0  0  0  0  0  0
  160.0150  214.4370  150.1960 C   0  0  0  0  0  3  0  0  0  0  0  0
  159.7090  213.4150  151.0950 C   0  0  0  0  0  0  0  0  0  0  0  0
  160.9140  214.2020  149.1530 C   0  0  0  0  0  3  0  0  0  0  0  0
  161.1730  206.5890  157.2610 O   0  0  0  0  0  1  0  0  0  0  0  0
  159.9030  207.0300  156.8900 C   0  0  0  0  0  2  0  0  0  0  0  0
  1 12  1  0  0  0  0
  1  4  1  0  0  0  0
  2 14  1  0  0  0  0
  2 24  1  0  0  0  0
  2 17  1  0  0  0  0
  3  9  1  0  0  0  0
  3  7  1  0  0  0  0
  4 37  1  0  0  0  0
  5 19  1  0  0  0  0
  6 22  1  0  0  0  0
  6  9  2  0  0  0  0
  7 21  1  0  0  0  0
  8 12  1  0  0  0  0
  8 26  1  0  0  0  0
  9 13  1  0  0  0  0
 10  7  2  0  0  0  0
 10  5  1  0  0  0  0
 11  6  1  0  0  0  0
 12  4  1  0  0  0  0
 13 21  1  0  0  0  0
 13 17  1  0  0  0  0
 15 28  2  0  0  0  0
 15 20  1  0  0  0  0
 16 11  2  0  0  0  0
 16 20  1  0  0  0  0
 18  8  1  0  0  0  0
 19 18  1  0  0  0  0
 20  3  2  0  0  0  0
 21 27  1  0  0  0  0
 22  2  1  0  0  0  0
 23 30  1  0  0  0  0
 23 10  1  0  0  0  0
 25 27  1  0  0  0  0
 25 18  1  0  0  0  0
 27  1  1  0  0  0  0
 28 23  1  0  0  0  0
 29 35  2  0  0  0  0
 29 30  1  0  0  0  0
 30 31  2  0  0  0  0
 31 34  1  0  0  0  0
 33 34  2  0  0  0  0
 34 32  1  0  0  0  0
 35 33  1  0  0  0  0
 37 36  1  0  0  0  0
M  END
>  <MODEL>
1

>  <REMARK>
 VINA RESULT:      -6.7      0.000      0.000
  Name = 
  2 active torsions:
  status: ('A' for Active; 'I' for Inactive)
    1  A    between atoms: C_4  and  C_37
    2  A    between atoms: N_23  and  C_30
                            x       y       z     vdW  Elec       q    Type
                         _______ _______ _______ _____ _____    ______ ____

>  <TORSDO>
F 2

$$$$
=
 OpenBabel11122413543D

 37 44  0  0  1  0  0  0  0  0999 V2000
  161.5620  210.8830  148.9470 C   0  0  2  0  0  3  0  0  0  0  0  0
  161.6610  206.2190  147.9140 C   0  0  0  0  0  0  0  0  0  0  0  0
  161.1820  207.1360  151.9670 C   0  0  0  0  0  0  0  0  0  0  0  0
  162.4110  212.1060  148.6740 C   0  0  2  0  0  3  0  0  0  0  0  0
  159.6890  210.6080  152.9290 C   0  0  0  0  0  2  0  0  0  0  0  0
  161.8110  205.5170  150.2920 C   0  0  0  0  0  0  0  0  0  0  0  0
  160.7750  208.5430  151.9520 C   0  0  0  0  0  0  0  0  0  0  0  0
  160.9410  212.9460  150.4830 C   0  0  2  0  0  3  0  0  0  0  0  0
  161.4750  206.7930  150.6830 C   0  0  0  0  0  0  0  0  0  0  0  0
  160.3900  209.2590  153.0350 C   0  0  0  0  0  0  0  0  0  0  0  0
  161.8400  204.5110  151.2660 C   0  0  0  0  0  3  0  0  0  0  0  0
  160.9550  212.2930  149.0890 C   0  0  2  0  0  3  0  0  0  0  0  0
  161.2740  207.8280  149.7630 N   0  0  0  0  0  0  0  0  0  0  0  0
  160.2330  205.9070  147.5040 C   0  0  0  0  0  1  0  0  0  0  0  0
  160.5010  206.3620  154.2690 C   0  0  0  0  0  3  0  0  0  0  0  0
  161.4580  204.8230  152.5900 C   0  0  0  0  0  3  0  0  0  0  0  0
  161.7350  207.6950  148.3800 C   0  0  0  0  0  2  0  0  0  0  0  0
  160.9580  211.9610  151.6450 C   0  0  1  0  0  3  0  0  0  0  0  0
  159.7700  211.2070  151.6640 O   0  0  0  0  0  0  0  0  0  0  0  0
  161.0950  206.1410  152.9500 C   0  0  0  0  0  0  0  0  0  0  0  0
  160.8790  209.0330  150.4940 C   0  0  2  0  0  3  0  0  0  0  0  0
  162.0710  205.2870  148.9360 O   0  0  0  0  0  0  0  0  0  0  0  0
  160.7240  208.8120  154.3700 N   0  0  0  0  0  0  0  0  0  0  0  0
  162.5530  206.0460  146.7050 C   0  0  0  0  0  1  0  0  0  0  0  0
  162.1690  211.0610  151.4490 C   0  0  0  0  0  2  0  0  0  0  0  0
  159.8450  213.8020  150.5930 O   0  0  0  0  0  1  0  0  0  0  0  0
  161.9360  210.1390  150.2480 C   0  0  2  0  0  3  0  0  0  0  0  0
  160.3270  207.5300  154.8830 C   0  0  0  0  0  3  0  0  0  0  0  0
  160.5090  210.3000  156.3440 C   0  0  0  0  0  3  0  0  0  0  0  0
  161.2890  209.7540  155.3090 C   0  0  0  0  0  0  0  0  0  0  0  0
  162.6450  210.1170  155.2260 C   0  0  0  0  0  3  0  0  0  0  0  0
  164.5080  211.3580  156.0420 F   0  0  0  0  0  0  0  0  0  0  0  0
  162.4120  211.5540  157.1580 C   0  0  0  0  0  3  0  0  0  0  0  0
  163.2010  211.0150  156.1410 C   0  0  0  0  0  0  0  0  0  0  0  0
  161.0660  211.1960  157.2610 C   0  0  0  0  0  3  0  0  0  0  0  0
  161.2760  212.5800  146.6410 O   0  0  0  0  0  1  0  0  0  0  0  0
  162.5330  212.3050  147.1780 C   0  0  0  0  0  2  0  0  0  0  0  0
  1 12  1  0  0  0  0
  1 27  1  0  0  0  0
  2 17  1  0  0  0  0
  2 22  1  0  0  0  0
  3 20  1  0  0  0  0
  4  1  1  0  0  0  0
  4 12  1  0  0  0  0
  5 10  1  0  0  0  0
  6  9  1  0  0  0  0
  6 11  2  0  0  0  0
  7  3  1  0  0  0  0
  7 10  2  0  0  0  0
  8 26  1  0  0  0  0
  8 18  1  0  0  0  0
  9  3  2  0  0  0  0
 10 23  1  0  0  0  0
 11 16  1  0  0  0  0
 12  8  1  0  0  0  0
 13 21  1  0  0  0  0
 13  9  1  0  0  0  0
 14  2  1  0  0  0  0
 15 28  2  0  0  0  0
 16 20  2  0  0  0  0
 17 13  1  0  0  0  0
 18 19  1  0  0  0  0
 19  5  1  0  0  0  0
 20 15  1  0  0  0  0
 21  7  1  0  0  0  0
 22  6  1  0  0  0  0
 23 28  1  0  0  0  0
 23 30  1  0  0  0  0
 24  2  1  0  0  0  0
 25 18  1  0  0  0  0
 27 21  1  0  0  0  0
 27 25  1  0  0  0  0
 29 35  1  0  0  0  0
 30 29  2  0  0  0  0
 31 30  1  0  0  0  0
 31 34  2  0  0  0  0
 32 34  1  0  0  0  0
 33 35  2  0  0  0  0
 34 33  1  0  0  0  0
 36 37  1  0  0  0  0
 37  4  1  0  0  0  0
M  END
>  <MODEL>
2

>  <REMARK>
 VINA RESULT:      -5.2      2.454      5.902
  Name = 
  2 active torsions:
  status: ('A' for Active; 'I' for Inactive)
    1  A    between atoms: C_4  and  C_37
    2  A    between atoms: N_23  and  C_30
                            x       y       z     vdW  Elec       q    Type
                         _______ _______ _______ _____ _____    ______ ____

>  <TORSDO>
F 2

$$$$
