=
 OpenBabel11122414023D

 28 32  0  0  1  0  0  0  0  0999 V2000
  160.8680  208.6660  155.1320 C   0  0  0  0  0  0  0  0  0  0  0  0
  158.1000  211.9830  152.2800 O   0  0  0  0  0  0  0  0  0  0  0  0
  160.4550  206.5780  149.2730 C   0  0  0  0  0  1  0  0  0  0  0  0
  162.8890  210.5630  155.5470 C   0  0  0  0  0  3  0  0  0  0  0  0
  161.9670  208.5340  149.5690 C   0  0  1  0  0  3  0  0  0  0  0  0
  159.8360  207.6010  154.9250 C   0  0  0  0  0  2  0  0  0  0  0  0
  159.8810  212.6230  153.8610 O   0  0  0  0  0  0  0  0  0  0  0  0
  159.5750  212.2120  152.4500 S   0  0  0  0  0  0  0  0  0  0  0  0
  160.2810  212.8740  149.9150 C   0  0  1  0  0  3  0  0  0  0  0  0
  160.4690  210.7750  152.0110 C   0  0  2  0  0  3  0  0  0  0  0  0
  162.5400  206.6150  153.6870 O   0  0  0  0  0  1  0  0  0  0  0  0
  161.3600  208.6770  151.7980 C   0  0  2  0  0  3  0  0  0  0  0  0
  161.2060  211.7380  149.8960 N   0  0  0  0  0  0  0  0  0  0  0  0
  160.1390  213.4690  151.3160 C   0  0  0  0  0  2  0  0  0  0  0  0
  161.3050  205.9670  153.5870 C   0  0  2  0  0  3  0  0  0  0  0  0
  161.2060  209.5630  154.0980 C   0  0  0  0  0  0  0  0  0  0  0  0
  161.6230  207.1190  150.0810 C   0  0  1  0  0  3  0  0  0  0  0  0
  160.7640  213.9380  148.9530 C   0  0  0  0  0  1  0  0  0  0  0  0
  160.5480  206.3090  152.2980 C   0  0  0  0  0  2  0  0  0  0  0  0
  162.2380  210.4940  154.3130 C   0  0  0  0  0  3  0  0  0  0  0  0
  161.5230  208.7460  156.3670 C   0  0  0  0  0  3  0  0  0  0  0  0
  162.5270  209.6930  156.5760 C   0  0  0  0  0  3  0  0  0  0  0  0
  160.4560  206.2030  154.8380 C   0  0  0  0  0  2  0  0  0  0  0  0
  161.7450  209.3830  150.7720 C   0  0  2  0  0  3  0  0  0  0  0  0
  161.2380  207.3050  151.4810 N   0  0  2  0  0  0  0  0  0  0  0  0
  161.1530  210.6990  150.8800 C   0  0  0  0  0  0  0  0  0  0  0  0
  163.3120  208.5850  149.2030 O   0  0  0  0  0  1  0  0  0  0  0  0
  160.5190  209.4670  152.7550 C   0  0  1  0  0  3  0  0  0  0  0  0
  1 21  1  0  0  0  0
  2  8  2  0  0  0  0
  3 17  1  0  0  0  0
  4 22  1  0  0  0  0
  5 27  1  1  0  0  0
  5 17  1  0  0  0  0
  5 24  1  0  0  0  0
  6  1  1  0  0  0  0
  8  7  2  0  0  0  0
  9 18  1  6  0  0  0
  9 14  1  0  0  0  0
 10 26  1  6  0  0  0
 10  8  1  0  0  0  0
 10 28  1  0  0  0  0
 12 28  1  0  0  0  0
 13  9  1  0  0  0  0
 13 26  2  0  0  0  0
 14  8  1  0  0  0  0
 15 11  1  0  0  0  0
 15 23  1  0  0  0  0
 16 20  1  0  0  0  0
 16  1  2  0  0  0  0
 17 25  1  0  0  0  0
 19 15  1  0  0  0  0
 20  4  2  0  0  0  0
 21 22  2  0  0  0  0
 23  6  1  0  0  0  0
 24 26  1  0  0  0  0
 24 12  1  0  0  0  0
 25 12  1  0  0  0  0
 25 19  1  0  0  0  0
 28 16  1  0  0  0  0
M  END
>  <MODEL>
1

>  <REMARK>
 VINA RESULT:      -3.6      0.000      0.000
  Name = 
  0 active torsions:
  status: ('A' for Active; 'I' for Inactive)
                            x       y       z     vdW  Elec       q    Type
                         _______ _______ _______ _____ _____    ______ ____

>  <TORSDO>
F 0

$$$$
=
 OpenBabel11122414023D

 28 32  0  0  1  0  0  0  0  0999 V2000
  158.2250  213.5130  153.1780 C   0  0  0  0  0  0  0  0  0  0  0  0
  161.5020  211.8380  156.8180 O   0  0  0  0  0  0  0  0  0  0  0  0
  162.8570  210.2910  150.5280 C   0  0  0  0  0  1  0  0  0  0  0  0
  156.1440  211.9320  154.1900 C   0  0  0  0  0  3  0  0  0  0  0  0
  161.2090  208.8990  151.7710 C   0  0  1  0  0  3  0  0  0  0  0  0
  159.3030  214.3600  152.5740 C   0  0  0  0  0  2  0  0  0  0  0  0
  159.0440  211.7050  156.9600 O   0  0  0  0  0  0  0  0  0  0  0  0
  160.2900  211.0160  156.4850 S   0  0  0  0  0  0  0  0  0  0  0  0
  161.3680  208.5260  156.4220 C   0  0  1  0  0  3  0  0  0  0  0  0
  160.2160  210.7080  154.7660 C   0  0  0  0  0  0  0  0  0  0  0  0
  158.3870  212.2530  150.4440 O   0  0  0  0  0  1  0  0  0  0  0  0
  160.1150  210.8120  152.4810 C   0  0  2  0  0  3  0  0  0  0  0  0
  160.9310  208.3930  155.0300 N   0  0  0  0  0  2  0  0  0  0  0  0
  160.4130  209.4010  157.2350 C   0  0  0  0  0  2  0  0  0  0  0  0
  159.4590  213.1400  150.3150 C   0  0  2  0  0  3  0  0  0  0  0  0
  158.5110  212.2360  153.7030 C   0  0  0  0  0  0  0  0  0  0  0  0
  161.3760  209.9940  150.6960 C   0  0  1  0  0  3  0  0  0  0  0  0
  161.4700  207.1550  157.0550 C   0  0  0  0  0  1  0  0  0  0  0  0
  160.8050  212.5230  150.7170 C   0  0  0  0  0  2  0  0  0  0  0  0
  157.4530  211.4450  154.1860 C   0  0  0  0  0  3  0  0  0  0  0  0
  156.9100  213.9950  153.1900 C   0  0  0  0  0  3  0  0  0  0  0  0
  155.8740  213.2090  153.6970 C   0  0  0  0  0  3  0  0  0  0  0  0
  159.1790  214.4530  151.0500 C   0  0  0  0  0  2  0  0  0  0  0  0
  160.3980  209.5840  152.8160 C   0  0  2  0  0  3  0  0  0  0  0  0
  160.6740  211.1620  151.2300 N   0  0  2  0  0  0  0  0  0  0  0  0
  160.5020  209.5200  154.2580 C   0  0  0  0  0  0  0  0  0  0  0  0
  160.4840  207.8310  151.2430 O   0  0  0  0  0  1  0  0  0  0  0  0
  159.9240  211.7010  153.6720 C   0  0  1  0  0  3  0  0  0  0  0  0
  1 21  2  0  0  0  0
  1 16  1  0  0  0  0
  3 17  1  0  0  0  0
  5 27  1  6  0  0  0
  5 24  1  0  0  0  0
  6  1  1  0  0  0  0
  8  2  2  0  0  0  0
  8  7  2  0  0  0  0
  8 14  1  0  0  0  0
  9 18  1  1  0  0  0
  9 14  1  0  0  0  0
 10  8  1  0  0  0  0
 12 24  1  0  0  0  0
 12 28  1  0  0  0  0
 13  9  1  0  0  0  0
 15 11  1  0  0  0  0
 15 19  1  0  0  0  0
 15 23  1  0  0  0  0
 16 20  2  0  0  0  0
 17 25  1  0  0  0  0
 17  5  1  0  0  0  0
 19 25  1  0  0  0  0
 20  4  1  0  0  0  0
 21 22  1  0  0  0  0
 22  4  2  0  0  0  0
 23  6  1  0  0  0  0
 24 26  1  0  0  0  0
 25 12  1  0  0  0  0
 26 10  2  0  0  0  0
 26 13  1  0  0  0  0
 28 16  1  0  0  0  0
 28 10  1  0  0  0  0
M  END
>  <MODEL>
2

>  <REMARK>
 VINA RESULT:      -1.8      2.597      5.904
  Name = 
  0 active torsions:
  status: ('A' for Active; 'I' for Inactive)
                            x       y       z     vdW  Elec       q    Type
                         _______ _______ _______ _____ _____    ______ ____

>  <TORSDO>
F 0

$$$$
=
 OpenBabel11122414023D

 28 32  0  0  1  0  0  0  0  0999 V2000
  161.1870  212.4960  148.1290 C   0  0  0  0  0  0  0  0  0  0  0  0
  160.4550  207.4210  148.8370 O   0  0  0  0  0  0  0  0  0  0  0  0
  158.2080  211.5250  153.5180 C   0  0  0  0  0  1  0  0  0  0  0  0
  163.9710  212.2110  148.2760 C   0  0  0  0  0  3  0  0  0  0  0  0
  160.6160  210.8940  153.5400 C   0  0  1  0  0  3  0  0  0  0  0  0
  159.7070  212.7180  148.0680 C   0  0  0  0  0  2  0  0  0  0  0  0
  162.5650  208.4530  148.0870 O   0  0  0  0  0  0  0  0  0  0  0  0
  161.7480  208.0460  149.2790 S   0  0  0  0  0  0  0  0  0  0  0  0
  162.0840  206.8630  151.6970 C   0  0  1  0  0  3  0  0  0  0  0  0
  161.4380  209.4160  150.3200 C   0  0  0  0  0  0  0  0  0  0  0  0
  160.8490  214.3180  150.5080 O   0  0  0  0  0  1  0  0  0  0  0  0
  160.7740  211.3840  151.2830 C   0  0  2  0  0  3  0  0  0  0  0  0
  162.0820  208.1870  152.3240 N   0  0  0  0  0  2  0  0  0  0  0  0
  162.6750  206.9030  150.2880 C   0  0  0  0  0  2  0  0  0  0  0  0
  159.4970  214.1610  150.1870 C   0  0  2  0  0  3  0  0  0  0  0  0
  161.7460  211.5570  149.0200 C   0  0  0  0  0  0  0  0  0  0  0  0
  159.6110  212.0160  153.2050 C   0  0  1  0  0  3  0  0  0  0  0  0
  162.8720  205.8970  152.5550 C   0  0  0  0  0  1  0  0  0  0  0  0
  158.8290  213.0010  150.9360 C   0  0  0  0  0  2  0  0  0  0  0  0
  163.1450  211.4420  149.0990 C   0  0  0  0  0  3  0  0  0  0  0  0
  162.0220  213.2600  147.3050 C   0  0  0  0  0  3  0  0  0  0  0  0
  163.4080  213.1160  147.3740 C   0  0  0  0  0  3  0  0  0  0  0  0
  159.2980  214.0640  148.6720 C   0  0  0  0  0  2  0  0  0  0  0  0
  161.2540  210.6180  152.2230 C   0  0  2  0  0  3  0  0  0  0  0  0
  159.7660  212.2490  151.7680 N   0  0  2  0  0  0  0  0  0  0  0  0
  161.6390  209.3570  151.6270 C   0  0  0  0  0  0  0  0  0  0  0  0
  161.5750  211.3740  154.4320 O   0  0  0  0  0  1  0  0  0  0  0  0
  160.8510  210.7460  149.9290 C   0  0  1  0  0  3  0  0  0  0  0  0
  1 16  1  0  0  0  0
  2  8  2  0  0  0  0
  4 20  1  0  0  0  0
  5 27  1  1  0  0  0
  6  1  1  0  0  0  0
  6 23  1  0  0  0  0
  7  8  2  0  0  0  0
  8 14  1  0  0  0  0
  8 10  1  0  0  0  0
  9 13  1  0  0  0  0
  9 18  1  1  0  0  0
 10 26  2  0  0  0  0
 12 25  1  0  0  0  0
 12 24  1  0  0  0  0
 14  9  1  0  0  0  0
 15 11  1  0  0  0  0
 15 19  1  0  0  0  0
 16 20  2  0  0  0  0
 16 28  1  0  0  0  0
 17  3  1  0  0  0  0
 17  5  1  0  0  0  0
 19 25  1  0  0  0  0
 21 22  1  0  0  0  0
 21  1  2  0  0  0  0
 22  4  2  0  0  0  0
 23 15  1  0  0  0  0
 24  5  1  0  0  0  0
 25 17  1  0  0  0  0
 26 24  1  0  0  0  0
 26 13  1  0  0  0  0
 28 10  1  0  0  0  0
 28 12  1  0  0  0  0
M  END
>  <MODEL>
3

>  <REMARK>
 VINA RESULT:      -0.9      2.595      6.771
  Name = 
  0 active torsions:
  status: ('A' for Active; 'I' for Inactive)
                            x       y       z     vdW  Elec       q    Type
                         _______ _______ _______ _____ _____    ______ ____

>  <TORSDO>
F 0

$$$$
