=
 OpenBabel11122413563D

 37 42  0  0  1  0  0  0  0  0999 V2000
  161.6700  209.8710  156.4530 C   0  0  1  0  0  0  0  0  0  0  0  0
  159.1310  211.5500  154.3700 C   0  0  1  0  0  3  0  0  0  0  0  0
  160.1430  211.1010  151.4830 O   0  0  0  0  0  0  0  0  0  0  0  0
  159.4520  210.4790  156.6830 C   0  0  2  0  0  3  0  0  0  0  0  0
  160.4260  212.0030  153.6970 C   0  0  0  0  0  2  0  0  0  0  0  0
  159.2020  210.2390  155.1950 C   0  0  2  0  0  3  0  0  0  0  0  0
  160.1630  212.3040  152.2130 C   0  0  2  0  0  3  0  0  0  0  0  0
  158.4770  211.5140  157.2300 C   0  0  0  0  0  2  0  0  0  0  0  0
  160.2700  209.2490  154.7090 C   0  0  2  0  0  3  0  0  0  0  0  0
  161.4480  208.6500  157.1080 O   0  0  0  0  0  1  0  0  0  0  0  0
  158.7040  214.0740  154.3790 C   0  0  0  0  0  2  0  0  0  0  0  0
  158.6490  212.8420  156.5040 C   0  0  0  0  0  2  0  0  0  0  0  0
  161.5660  209.7240  155.0470 O   0  0  0  0  0  0  0  0  0  0  0  0
  162.0080  211.1360  149.9970 C   0  0  0  0  0  1  0  0  0  0  0  0
  161.4660  210.6610  151.3320 C   0  0  2  0  0  3  0  0  0  0  0  0
  158.3460  212.7190  155.0110 C   0  0  2  0  0  3  0  0  0  0  0  0
  160.1050  209.0170  153.3210 O   0  0  0  0  0  0  0  0  0  0  0  0
  160.7850  210.8740  156.9250 O   0  0  0  0  0  0  0  0  0  0  0  0
  158.8080  213.0180  151.9770 C   0  0  1  0  0  3  0  0  0  0  0  0
  163.0830  210.3150  156.7670 C   0  0  0  0  0  1  0  0  0  0  0  0
  161.4860  209.1360  151.3520 C   0  0  0  0  0  2  0  0  0  0  0  0
  161.3130  208.5630  152.7580 C   0  0  2  0  0  3  0  0  0  0  0  0
  158.4520  214.2190  152.8720 C   0  0  0  0  0  2  0  0  0  0  0  0
  157.3470  213.3050  149.9690 C   0  0  0  0  0  3  0  0  0  0  0  0
  158.6240  213.3730  150.5350 C   0  0  0  0  0  0  0  0  0  0  0  0
  159.7160  213.7580  149.7430 C   0  0  0  0  0  3  0  0  0  0  0  0
  160.5820  214.4470  147.6310 F   0  0  0  0  0  0  0  0  0  0  0  0
  158.2480  214.0070  147.8330 C   0  0  0  0  0  3  0  0  0  0  0  0
  159.5260  214.0760  148.3950 C   0  0  0  0  0  0  0  0  0  0  0  0
  157.1580  213.6230  148.6200 C   0  0  0  0  0  3  0  0  0  0  0  0
  161.3160  207.0330  152.6830 C   0  0  1  0  0  3  0  0  0  0  0  0
  160.9720  206.4640  151.3510 N   0  0  0  0  0  0  0  0  0  0  0  0
  162.3730  206.5680  151.7900 C   0  0  2  0  0  3  0  0  0  0  0  0
  162.9500  204.9410  152.3370 S   0  0  0  0  0  0  0  0  0  0  0  0
  161.4740  204.1220  151.6620 C   0  0  0  0  0  1  0  0  0  0  0  0
  160.7700  206.8260  149.0950 C   0  0  0  0  0  1  0  0  0  0  0  0
  160.7820  207.4750  150.3940 N   0  0  0  0  0  2  0  0  0  0  0  0
  1 20  1  1  0  0  0
  1 18  1  0  0  0  0
  1 10  1  0  0  0  0
  2  5  1  1  0  0  0
  2 16  1  0  0  0  0
  2  6  1  0  0  0  0
  3  7  1  0  0  0  0
  4 18  1  0  0  0  0
  4  8  1  6  0  0  0
  6  4  1  0  0  0  0
  7  5  1  0  0  0  0
  9 13  1  0  0  0  0
  9  6  1  0  0  0  0
 11 16  1  0  0  0  0
 12  8  1  0  0  0  0
 13  1  1  0  0  0  0
 14 15  1  0  0  0  0
 15 21  1  0  0  0  0
 15  3  1  0  0  0  0
 16 12  1  0  0  0  0
 17  9  1  0  0  0  0
 19  7  1  0  0  0  0
 19 23  1  0  0  0  0
 21 22  1  0  0  0  0
 22 17  1  0  0  0  0
 23 11  1  0  0  0  0
 24 25  1  0  0  0  0
 25 19  1  0  0  0  0
 26 25  2  0  0  0  0
 27 29  1  0  0  0  0
 28 29  2  0  0  0  0
 28 30  1  0  0  0  0
 29 26  1  0  0  0  0
 30 24  2  0  0  0  0
 31 22  1  0  0  0  0
 32 33  1  0  0  0  0
 32 31  1  0  0  0  0
 33 34  1  0  0  0  0
 33 31  1  0  0  0  0
 35 34  1  0  0  0  0
 36 37  1  0  0  0  0
 37 32  1  0  0  0  0
M  END
>  <MODEL>
1

>  <REMARK>
 VINA RESULT:      -5.3      0.000      0.000
  Name = 
  4 active torsions:
  status: ('A' for Active; 'I' for Inactive)
    1  A    between atoms: C_1  and  C_27
    2  A    between atoms: N_4  and  N_37
    3  A    between atoms: S_8  and  C_12
    4  A    between atoms: C_23  and  C_30
                            x       y       z     vdW  Elec       q    Type
                         _______ _______ _______ _____ _____    ______ ____

>  <TORSDO>
F 4

$$$$
=
 OpenBabel11122413563D

 37 42  0  0  1  0  0  0  0  0999 V2000
  160.3110  210.7230  152.4310 C   0  0  1  0  0  0  0  0  0  0  0  0
  161.5900  207.2650  152.3850 C   0  0  1  0  0  3  0  0  0  0  0  0
  161.3200  206.4260  149.4210 O   0  0  0  0  0  0  0  0  0  0  0  0
  161.7250  209.4440  153.7370 C   0  0  2  0  0  3  0  0  0  0  0  0
  160.3480  207.1420  151.5040 C   0  0  0  0  0  2  0  0  0  0  0  0
  162.2140  208.6780  152.5090 C   0  0  2  0  0  3  0  0  0  0  0  0
  160.5320  205.9910  150.5030 C   0  0  2  0  0  3  0  0  0  0  0  0
  161.8550  208.5880  154.9900 C   0  0  0  0  0  2  0  0  0  0  0  0
  161.9750  209.5790  151.2890 C   0  0  2  0  0  3  0  0  0  0  0  0
  161.1360  211.8510  152.5650 O   0  0  0  0  0  1  0  0  0  0  0  0
  160.4650  205.3000  153.5800 C   0  0  0  0  0  2  0  0  0  0  0  0
  161.0160  207.3240  154.8600 C   0  0  0  0  0  2  0  0  0  0  0  0
  160.6190  210.0010  151.2500 O   0  0  0  0  0  0  0  0  0  0  0  0
  159.9420  206.3980  147.4750 C   0  0  0  0  0  1  0  0  0  0  0  0
  160.5230  207.2360  148.5990 C   0  0  2  0  0  3  0  0  0  0  0  0
  161.4800  206.4490  153.6950 C   0  0  2  0  0  3  0  0  0  0  0  0
  162.3820  208.9000  150.1120 O   0  0  0  0  0  0  0  0  0  0  0  0
  160.3950  209.8880  153.5730 O   0  0  0  0  0  0  0  0  0  0  0  0
  161.2340  204.7590  151.1280 C   0  0  1  0  0  3  0  0  0  0  0  0
  158.8810  211.2070  152.3140 C   0  0  0  0  0  1  0  0  0  0  0  0
  161.3930  208.3320  147.9910 C   0  0  0  0  0  2  0  0  0  0  0  0
  161.7250  209.4400  148.9900 C   0  0  2  0  0  3  0  0  0  0  0  0
  160.7340  204.2510  152.4930 C   0  0  0  0  0  2  0  0  0  0  0  0
  161.2900  202.3110  150.6230 C   0  0  0  0  0  3  0  0  0  0  0  0
  161.3190  203.6270  150.1520 C   0  0  0  0  0  0  0  0  0  0  0  0
  161.4380  203.8710  148.7760 C   0  0  0  0  0  3  0  0  0  0  0  0
  161.6440  203.0390  146.5510 F   0  0  0  0  0  0  0  0  0  0  0  0
  161.4980  201.4870  148.3550 C   0  0  0  0  0  3  0  0  0  0  0  0
  161.5270  202.8020  147.8800 C   0  0  0  0  0  0  0  0  0  0  0  0
  161.3790  201.2420  149.7260 C   0  0  0  0  0  3  0  0  0  0  0  0
  162.6220  210.4800  148.3080 C   0  0  1  0  0  3  0  0  0  0  0  0
  161.9050  211.4790  147.4680 N   0  0  0  0  0  0  0  0  0  0  0  0
  162.3430  211.8140  148.8320 C   0  0  2  0  0  3  0  0  0  0  0  0
  163.8470  212.8200  148.7480 S   0  0  0  0  0  0  0  0  0  0  0  0
  162.9650  214.1800  147.9250 C   0  0  0  0  0  1  0  0  0  0  0  0
  159.9170  212.3760  146.7590 C   0  0  0  0  0  1  0  0  0  0  0  0
  160.5130  211.3020  147.5320 N   0  0  0  0  0  2  0  0  0  0  0  0
  1 20  1  6  0  0  0
  1 10  1  0  0  0  0
  1 18  1  0  0  0  0
  2  5  1  1  0  0  0
  2  6  1  0  0  0  0
  2 16  1  0  0  0  0
  3  7  1  0  0  0  0
  4  8  1  1  0  0  0
  6  4  1  0  0  0  0
  7 19  1  0  0  0  0
  7  5  1  0  0  0  0
  9  6  1  0  0  0  0
 11 16  1  0  0  0  0
 12  8  1  0  0  0  0
 13  9  1  0  0  0  0
 13  1  1  0  0  0  0
 14 15  1  0  0  0  0
 15  3  1  0  0  0  0
 16 12  1  0  0  0  0
 17  9  1  0  0  0  0
 18  4  1  0  0  0  0
 19 23  1  0  0  0  0
 21 15  1  0  0  0  0
 21 22  1  0  0  0  0
 22 17  1  0  0  0  0
 23 11  1  0  0  0  0
 25 24  1  0  0  0  0
 25 19  1  0  0  0  0
 26 25  2  0  0  0  0
 27 29  1  0  0  0  0
 28 30  1  0  0  0  0
 29 28  2  0  0  0  0
 29 26  1  0  0  0  0
 30 24  2  0  0  0  0
 31 33  1  0  0  0  0
 31 22  1  0  0  0  0
 32 37  1  0  0  0  0
 32 31  1  0  0  0  0
 32 33  1  0  0  0  0
 34 33  1  0  0  0  0
 35 34  1  0  0  0  0
 36 37  1  0  0  0  0
M  END
>  <MODEL>
2

>  <REMARK>
 VINA RESULT:      -4.7      3.648      7.479
  Name = 
  4 active torsions:
  status: ('A' for Active; 'I' for Inactive)
    1  A    between atoms: C_1  and  C_27
    2  A    between atoms: N_4  and  N_37
    3  A    between atoms: S_8  and  C_12
    4  A    between atoms: C_23  and  C_30
                            x       y       z     vdW  Elec       q    Type
                         _______ _______ _______ _____ _____    ______ ____

>  <TORSDO>
F 4

$$$$
=
 OpenBabel11122413563D

 37 42  0  0  1  0  0  0  0  0999 V2000
  162.1090  210.3110  155.8960 C   0  0  1  0  0  0  0  0  0  0  0  0
  159.2550  211.5760  153.9320 C   0  0  1  0  0  3  0  0  0  0  0  0
  160.2150  211.3270  151.0040 O   0  0  0  0  0  0  0  0  0  0  0  0
  159.8320  210.5480  156.2150 C   0  0  2  0  0  3  0  0  0  0  0  0
  160.4320  212.2400  153.2210 C   0  0  0  0  0  2  0  0  0  0  0  0
  159.5680  210.2850  154.7330 C   0  0  2  0  0  3  0  0  0  0  0  0
  160.0680  212.5100  151.7530 C   0  0  2  0  0  3  0  0  0  0  0  0
  158.7250  211.4050  156.8140 C   0  0  0  0  0  2  0  0  0  0  0  0
  160.7630  209.4870  154.1940 C   0  0  2  0  0  3  0  0  0  0  0  0
  162.1140  209.0630  156.5380 O   0  0  0  0  0  1  0  0  0  0  0  0
  158.4250  213.9970  153.9980 C   0  0  0  0  0  2  0  0  0  0  0  0
  158.6510  212.7500  156.1040 C   0  0  0  0  0  2  0  0  0  0  0  0
  161.9770  210.1630  154.4920 O   0  0  0  0  0  0  0  0  0  0  0  0
  161.9920  211.6800  149.4530 C   0  0  0  0  0  1  0  0  0  0  0  0
  161.5850  211.1090  150.7990 C   0  0  2  0  0  3  0  0  0  0  0  0
  158.3160  212.5950  154.6210 C   0  0  2  0  0  3  0  0  0  0  0  0
  160.5850  209.2450  152.8080 O   0  0  0  0  0  0  0  0  0  0  0  0
  161.0920  211.1510  156.4160 O   0  0  0  0  0  0  0  0  0  0  0  0
  158.6070  212.9960  151.5770 C   0  0  1  0  0  3  0  0  0  0  0  0
  163.4430  210.9750  156.1660 C   0  0  0  0  0  1  0  0  0  0  0  0
  161.8530  209.6070  150.7930 C   0  0  0  0  0  2  0  0  0  0  0  0
  161.8290  209.0000  152.1950 C   0  0  2  0  0  3  0  0  0  0  0  0
  158.0960  214.1140  152.5040 C   0  0  0  0  0  2  0  0  0  0  0  0
  156.9980  213.2460  149.6800 C   0  0  0  0  0  3  0  0  0  0  0  0
  158.3140  213.3310  150.1480 C   0  0  0  0  0  0  0  0  0  0  0  0
  159.3400  213.7150  149.2730 C   0  0  0  0  0  3  0  0  0  0  0  0
  160.0410  214.3840  147.0950 F   0  0  0  0  0  0  0  0  0  0  0  0
  157.7320  213.9280  147.4750 C   0  0  0  0  0  3  0  0  0  0  0  0
  159.0480  214.0140  147.9390 C   0  0  0  0  0  0  0  0  0  0  0  0
  156.7080  213.5450  148.3450 C   0  0  0  0  0  3  0  0  0  0  0  0
  162.0770  207.4910  152.0960 C   0  0  1  0  0  3  0  0  0  0  0  0
  161.4120  206.6700  153.1450 N   0  0  0  0  0  0  0  0  0  0  0  0
  160.8310  206.7890  151.7980 C   0  0  2  0  0  3  0  0  0  0  0  0
  161.1980  205.2870  150.8540 S   0  0  0  0  0  0  0  0  0  0  0  0
  160.8300  206.1150  149.2780 C   0  0  0  0  0  1  0  0  0  0  0  0
  160.2540  206.6310  155.1240 C   0  0  0  0  0  1  0  0  0  0  0  0
  160.6160  207.4620  153.9900 N   0  0  0  0  0  2  0  0  0  0  0  0
  1 20  1  1  0  0  0
  1 18  1  0  0  0  0
  1 10  1  0  0  0  0
  2  5  1  1  0  0  0
  2 16  1  0  0  0  0
  2  6  1  0  0  0  0
  3  7  1  0  0  0  0
  4 18  1  0  0  0  0
  4  8  1  6  0  0  0
  6  4  1  0  0  0  0
  7  5  1  0  0  0  0
  9 13  1  0  0  0  0
  9  6  1  0  0  0  0
 11 16  1  0  0  0  0
 12  8  1  0  0  0  0
 13  1  1  0  0  0  0
 14 15  1  0  0  0  0
 15  3  1  0  0  0  0
 16 12  1  0  0  0  0
 17  9  1  0  0  0  0
 19  7  1  0  0  0  0
 19 23  1  0  0  0  0
 21 15  1  0  0  0  0
 21 22  1  0  0  0  0
 22 17  1  0  0  0  0
 23 11  1  0  0  0  0
 24 25  1  0  0  0  0
 25 19  1  0  0  0  0
 26 25  2  0  0  0  0
 27 29  1  0  0  0  0
 28 29  2  0  0  0  0
 28 30  1  0  0  0  0
 29 26  1  0  0  0  0
 30 24  2  0  0  0  0
 31 22  1  0  0  0  0
 31 32  1  0  0  0  0
 32 37  1  0  0  0  0
 33 31  1  0  0  0  0
 33 32  1  0  0  0  0
 34 33  1  0  0  0  0
 35 34  1  0  0  0  0
 37 36  1  0  0  0  0
M  END
>  <MODEL>
3

>  <REMARK>
 VINA RESULT:      -4.1      1.047      1.515
  Name = 
  4 active torsions:
  status: ('A' for Active; 'I' for Inactive)
    1  A    between atoms: C_1  and  C_27
    2  A    between atoms: N_4  and  N_37
    3  A    between atoms: S_8  and  C_12
    4  A    between atoms: C_23  and  C_30
                            x       y       z     vdW  Elec       q    Type
                         _______ _______ _______ _____ _____    ______ ____

>  <TORSDO>
F 4

$$$$
=
 OpenBabel11122413563D

 37 42  0  0  1  0  0  0  0  0999 V2000
  162.7850  210.3390  152.8400 C   0  0  1  0  0  0  0  0  0  0  0  0
  161.3370  208.2830  150.1430 C   0  0  1  0  0  3  0  0  0  0  0  0
  161.0480  205.4870  151.4300 O   0  0  0  0  0  0  0  0  0  0  0  0
  161.5510  210.7210  150.9230 C   0  0  2  0  0  3  0  0  0  0  0  0
  162.4010  207.3420  150.7050 C   0  0  0  0  0  2  0  0  0  0  0  0
  160.8190  209.3910  151.0950 C   0  0  2  0  0  3  0  0  0  0  0  0
  161.9870  205.8830  150.4590 C   0  0  2  0  0  3  0  0  0  0  0  0
  161.5940  211.1240  149.4550 C   0  0  0  0  0  2  0  0  0  0  0  0
  160.8910  209.0230  152.5840 C   0  0  2  0  0  3  0  0  0  0  0  0
  162.0560  211.3030  153.5540 O   0  0  0  0  0  1  0  0  0  0  0  0
  162.5460  207.7210  147.9570 C   0  0  0  0  0  2  0  0  0  0  0  0
  162.3300  210.0730  148.6360 C   0  0  0  0  0  2  0  0  0  0  0  0
  162.2400  209.0440  153.0280 O   0  0  0  0  0  0  0  0  0  0  0  0
  162.0690  203.7910  152.7610 C   0  0  0  0  0  1  0  0  0  0  0  0
  161.7340  205.2650  152.6340 C   0  0  2  0  0  3  0  0  0  0  0  0
  161.6280  208.7160  148.6860 C   0  0  2  0  0  3  0  0  0  0  0  0
  160.2530  207.7740  152.7940 O   0  0  0  0  0  0  0  0  0  0  0  0
  162.8550  210.6660  151.4620 O   0  0  0  0  0  0  0  0  0  0  0  0
  161.3400  205.6700  149.0680 C   0  0  1  0  0  3  0  0  0  0  0  0
  164.1970  210.3290  153.3860 C   0  0  0  0  0  1  0  0  0  0  0  0
  160.8310  205.6630  153.7980 C   0  0  0  0  0  2  0  0  0  0  0  0
  160.7340  207.1780  153.9760 C   0  0  2  0  0  3  0  0  0  0  0  0
  162.0390  206.2770  147.8380 C   0  0  0  0  0  2  0  0  0  0  0  0
  160.5070  203.4530  149.8710 C   0  0  0  0  0  3  0  0  0  0  0  0
  161.0290  204.2250  148.8280 C   0  0  0  0  0  0  0  0  0  0  0  0
  161.2640  203.6360  147.5770 C   0  0  0  0  0  3  0  0  0  0  0  0
  161.2060  201.7150  146.1660 F   0  0  0  0  0  0  0  0  0  0  0  0
  160.4570  201.5150  148.4200 C   0  0  0  0  0  3  0  0  0  0  0  0
  160.9770  202.2830  147.3750 C   0  0  0  0  0  0  0  0  0  0  0  0
  160.2210  202.1000  149.6680 C   0  0  0  0  0  3  0  0  0  0  0  0
  159.7900  207.4890  155.1420 C   0  0  1  0  0  3  0  0  0  0  0  0
  160.4620  207.8280  156.4270 N   0  0  0  0  0  0  0  0  0  0  0  0
  159.9290  208.8830  155.5520 C   0  0  2  0  0  3  0  0  0  0  0  0
  158.3520  209.4740  156.2200 S   0  0  0  0  0  0  0  0  0  0  0  0
  158.5280  211.0780  155.3830 C   0  0  0  0  0  1  0  0  0  0  0  0
  162.3110  209.1050  156.8850 C   0  0  0  0  0  1  0  0  0  0  0  0
  161.8590  207.8640  156.2830 N   0  0  0  0  0  2  0  0  0  0  0  0
  1 13  1  0  0  0  0
  1 20  1  1  0  0  0
  1 10  1  0  0  0  0
  2  5  1  1  0  0  0
  2  6  1  0  0  0  0
  3 15  1  0  0  0  0
  4  8  1  6  0  0  0
  4  6  1  0  0  0  0
  4 18  1  0  0  0  0
  6  9  1  0  0  0  0
  7  5  1  0  0  0  0
  7  3  1  0  0  0  0
  9 17  1  0  0  0  0
  9 13  1  0  0  0  0
 11 16  1  0  0  0  0
 12 16  1  0  0  0  0
 12  8  1  0  0  0  0
 15 14  1  0  0  0  0
 15 21  1  0  0  0  0
 16  2  1  0  0  0  0
 17 22  1  0  0  0  0
 18  1  1  0  0  0  0
 19  7  1  0  0  0  0
 21 22  1  0  0  0  0
 22 31  1  0  0  0  0
 23 11  1  0  0  0  0
 23 19  1  0  0  0  0
 25 19  1  0  0  0  0
 25 24  2  0  0  0  0
 26 25  1  0  0  0  0
 27 29  1  0  0  0  0
 28 30  2  0  0  0  0
 29 26  2  0  0  0  0
 29 28  1  0  0  0  0
 30 24  1  0  0  0  0
 31 33  1  0  0  0  0
 31 32  1  0  0  0  0
 33 34  1  0  0  0  0
 33 32  1  0  0  0  0
 35 34  1  0  0  0  0
 37 32  1  0  0  0  0
 37 36  1  0  0  0  0
M  END
>  <MODEL>
4

>  <REMARK>
 VINA RESULT:      -3.3      3.763      7.560
  Name = 
  4 active torsions:
  status: ('A' for Active; 'I' for Inactive)
    1  A    between atoms: C_1  and  C_27
    2  A    between atoms: N_4  and  N_37
    3  A    between atoms: S_8  and  C_12
    4  A    between atoms: C_23  and  C_30
                            x       y       z     vdW  Elec       q    Type
                         _______ _______ _______ _____ _____    ______ ____

>  <TORSDO>
F 4

$$$$
=
 OpenBabel11122413563D

 37 42  0  0  1  0  0  0  0  0999 V2000
  162.8330  206.1630  147.6530 C   0  0  1  0  0  0  0  0  0  0  0  0
  160.8180  206.2040  150.7410 C   0  0  1  0  0  3  0  0  0  0  0  0
  161.5590  208.9010  152.0600 O   0  0  0  0  0  0  0  0  0  0  0  0
  160.8940  205.1510  148.4000 C   0  0  2  0  0  3  0  0  0  0  0  0
  162.1650  206.7170  151.2490 C   0  0  0  0  0  2  0  0  0  0  0  0
  160.5350  206.3840  149.2270 C   0  0  2  0  0  3  0  0  0  0  0  0
  161.9490  207.6150  152.4770 C   0  0  2  0  0  3  0  0  0  0  0  0
  160.2790  203.8970  149.0090 C   0  0  0  0  0  2  0  0  0  0  0  0
  161.2550  207.5810  148.5920 C   0  0  2  0  0  3  0  0  0  0  0  0
  162.2910  206.3570  146.3720 O   0  0  0  0  0  1  0  0  0  0  0  0
  161.1380  204.5740  152.6890 C   0  0  0  0  0  2  0  0  0  0  0  0
  160.8010  203.6830  150.4230 C   0  0  0  0  0  2  0  0  0  0  0  0
  162.6440  207.3070  148.4680 O   0  0  0  0  0  0  0  0  0  0  0  0
  163.3030  210.4100  152.6660 C   0  0  0  0  0  1  0  0  0  0  0  0
  162.6920  209.5620  151.5660 C   0  0  2  0  0  3  0  0  0  0  0  0
  160.4260  204.8380  151.3510 C   0  0  2  0  0  3  0  0  0  0  0  0
  160.9830  208.7520  149.3450 O   0  0  0  0  0  0  0  0  0  0  0  0
  162.2920  205.0060  148.2680 O   0  0  0  0  0  0  0  0  0  0  0  0
  160.8510  207.0770  153.4290 C   0  0  1  0  0  3  0  0  0  0  0  0
  164.3240  205.9500  147.4970 C   0  0  0  0  0  1  0  0  0  0  0  0
  162.2720  210.4780  150.4200 C   0  0  0  0  0  2  0  0  0  0  0  0
  161.9890  209.7120  149.1280 C   0  0  2  0  0  3  0  0  0  0  0  0
  160.8880  205.5870  153.8140 C   0  0  0  0  0  2  0  0  0  0  0  0
  160.8690  207.3380  155.9150 C   0  0  0  0  0  3  0  0  0  0  0  0
  160.7290  207.9280  154.6540 C   0  0  0  0  0  0  0  0  0  0  0  0
  160.4640  209.3010  154.5540 C   0  0  0  0  0  3  0  0  0  0  0  0
  160.0860  211.4040  155.6110 F   0  0  0  0  0  0  0  0  0  0  0  0
  160.4830  209.4850  156.9680 C   0  0  0  0  0  3  0  0  0  0  0  0
  160.3420  210.0780  155.7090 C   0  0  0  0  0  0  0  0  0  0  0  0
  160.7470  208.1160  157.0710 C   0  0  0  0  0  3  0  0  0  0  0  0
  161.5470  210.7000  148.0430 C   0  0  1  0  0  3  0  0  0  0  0  0
  160.8460  211.9150  148.5420 N   0  0  0  0  0  0  0  0  0  0  0  0
  162.2700  211.9610  148.1770 C   0  0  2  0  0  3  0  0  0  0  0  0
  162.4460  212.7300  146.5470 S   0  0  0  0  0  0  0  0  0  0  0  0
  160.6450  212.7630  146.3000 C   0  0  0  0  0  1  0  0  0  0  0  0
  160.1290  213.1750  150.3190 C   0  0  0  0  0  1  0  0  0  0  0  0
  160.7960  211.9410  149.9460 N   0  0  0  0  0  2  0  0  0  0  0  0
  1 20  1  6  0  0  0
  1 18  1  0  0  0  0
  1 13  1  0  0  0  0
  2  5  1  6  0  0  0
  2 16  1  0  0  0  0
  3  7  1  0  0  0  0
  4  8  1  1  0  0  0
  4  6  1  0  0  0  0
  5  7  1  0  0  0  0
  6  2  1  0  0  0  0
  7 19  1  0  0  0  0
  8 12  1  0  0  0  0
  9  6  1  0  0  0  0
  9 17  1  0  0  0  0
 10  1  1  0  0  0  0
 11 23  1  0  0  0  0
 12 16  1  0  0  0  0
 13  9  1  0  0  0  0
 15  3  1  0  0  0  0
 15 14  1  0  0  0  0
 16 11  1  0  0  0  0
 18  4  1  0  0  0  0
 19 23  1  0  0  0  0
 19 25  1  0  0  0  0
 21 15  1  0  0  0  0
 22 17  1  0  0  0  0
 22 21  1  0  0  0  0
 24 30  1  0  0  0  0
 25 24  2  0  0  0  0
 26 25  1  0  0  0  0
 26 29  2  0  0  0  0
 27 29  1  0  0  0  0
 28 30  2  0  0  0  0
 29 28  1  0  0  0  0
 31 33  1  0  0  0  0
 31 32  1  0  0  0  0
 31 22  1  0  0  0  0
 32 37  1  0  0  0  0
 33 32  1  0  0  0  0
 34 33  1  0  0  0  0
 35 34  1  0  0  0  0
 37 36  1  0  0  0  0
M  END
>  <MODEL>
5

>  <REMARK>
 VINA RESULT:      -2.6      3.474      7.905
  Name = 
  4 active torsions:
  status: ('A' for Active; 'I' for Inactive)
    1  A    between atoms: C_1  and  C_27
    2  A    between atoms: N_4  and  N_37
    3  A    between atoms: S_8  and  C_12
    4  A    between atoms: C_23  and  C_30
                            x       y       z     vdW  Elec       q    Type
                         _______ _______ _______ _____ _____    ______ ____

>  <TORSDO>
F 4

$$$$
