=
 OpenBabel11122414093D

 28 32  0  0  1  0  0  0  0  0999 V2000
  160.4890  209.7290  156.2090 C   0  0  0  0  0  0  0  0  0  0  0  0
  155.7720  210.6410  154.6280 F   0  0  0  0  0  0  0  0  0  0  0  0
  161.6650  211.1020  152.0230 O   0  0  0  0  0  0  0  0  0  0  0  0
  161.5320  212.2040  157.0000 C   0  0  0  0  0  3  0  0  0  0  0  0
  159.6110  212.2740  152.3770 C   0  0  0  0  0  0  0  0  0  0  0  0
  159.9870  208.5080  155.7580 O   0  0  0  0  0  0  0  0  0  0  0  0
  155.7180  211.3990  156.8610 C   0  0  0  0  0  1  0  0  0  0  0  0
  156.0860  211.7300  155.4270 C   0  0  1  0  0  0  0  0  0  0  0  0
  155.7710  213.3880  153.6240 C   0  0  1  0  0  3  0  0  0  0  0  0
  157.5920  212.0670  155.3570 C   0  0  2  0  0  3  0  0  0  0  0  0
  162.3590  208.9330  153.8680 O   0  0  0  0  0  1  0  0  0  0  0  0
  158.5740  210.5700  153.6820 C   0  0  1  0  0  3  0  0  0  0  0  0
  157.0630  213.9250  153.7740 O   0  0  0  0  0  0  0  0  0  0  0  0
  155.2500  212.9160  154.9740 C   0  0  0  0  0  2  0  0  0  0  0  0
  161.2670  208.0750  153.7270 C   0  0  2  0  0  3  0  0  0  0  0  0
  159.7580  210.9000  155.9600 C   0  0  0  0  0  0  0  0  0  0  0  0
  160.5130  211.1680  152.5280 C   0  0  0  0  0  0  0  0  0  0  0  0
  154.8470  214.4530  153.0740 C   0  0  0  0  0  1  0  0  0  0  0  0
  160.1450  208.7160  152.9000 C   0  0  0  0  0  2  0  0  0  0  0  0
  160.2980  212.1390  156.3490 C   0  0  0  0  0  3  0  0  0  0  0  0
  161.7300  209.7990  156.8580 C   0  0  0  0  0  3  0  0  0  0  0  0
  162.2460  211.0320  157.2570 C   0  0  0  0  0  3  0  0  0  0  0  0
  160.8000  207.5540  155.0880 C   0  0  0  0  0  2  0  0  0  0  0  0
  158.3040  211.9320  152.9970 C   0  0  1  0  0  3  0  0  0  0  0  0
  159.9060  210.1140  153.2580 N   0  0  0  0  0  0  0  0  0  0  0  0
  157.9730  212.8980  154.1250 C   0  0  2  0  0  3  0  0  0  0  0  0
  159.8700  213.3450  151.7680 O   0  0  0  0  0  0  0  0  0  0  0  0
  158.4420  210.8040  155.2090 C   0  0  1  0  0  3  0  0  0  0  0  0
  1 21  1  0  0  0  0
  2  8  1  0  0  0  0
  3 17  2  0  0  0  0
  4 22  1  0  0  0  0
  5 17  1  0  0  0  0
  5 24  1  0  0  0  0
  6  1  1  0  0  0  0
  8  7  1  1  0  0  0
  9 18  1  1  0  0  0
  9 13  1  0  0  0  0
  9 14  1  0  0  0  0
 10  8  1  0  0  0  0
 12 28  1  0  0  0  0
 13 26  1  0  0  0  0
 14  8  1  0  0  0  0
 15 11  1  0  0  0  0
 15 23  1  0  0  0  0
 16  1  2  0  0  0  0
 16 20  1  0  0  0  0
 17 25  1  0  0  0  0
 19 25  1  0  0  0  0
 19 15  1  0  0  0  0
 20  4  2  0  0  0  0
 21 22  2  0  0  0  0
 23  6  1  0  0  0  0
 24 12  1  0  0  0  0
 24 26  1  0  0  0  0
 25 12  1  0  0  0  0
 26 10  1  0  0  0  0
 27  5  2  0  0  0  0
 28 10  1  0  0  0  0
 28 16  1  0  0  0  0
M  END
>  <MODEL>
1

>  <REMARK>
 VINA RESULT:      -3.2      0.000      0.000
  Name = 
  0 active torsions:
  status: ('A' for Active; 'I' for Inactive)
                            x       y       z     vdW  Elec       q    Type
                         _______ _______ _______ _____ _____    ______ ____

>  <TORSDO>
F 0

$$$$
=
 OpenBabel11122414093D

 28 32  0  0  1  0  0  0  0  0999 V2000
  160.8710  209.2760  156.5130 C   0  0  0  0  0  0  0  0  0  0  0  0
  157.0680  211.5470  154.0730 F   0  0  0  0  0  0  0  0  0  0  0  0
  162.3450  208.2580  152.3200 O   0  0  0  0  0  0  0  0  0  0  0  0
  162.9950  211.1000  156.5050 C   0  0  0  0  0  3  0  0  0  0  0  0
  161.1060  210.2690  151.9430 C   0  0  0  0  0  0  0  0  0  0  0  0
  159.8310  208.3470  156.4630 O   0  0  0  0  0  0  0  0  0  0  0  0
  157.4890  213.0320  155.8560 C   0  0  0  0  0  1  0  0  0  0  0  0
  157.8970  212.5870  154.4650 C   0  0  1  0  0  0  0  0  0  0  0  0
  158.3110  213.3810  152.1640 C   0  0  1  0  0  3  0  0  0  0  0  0
  159.3790  212.1500  154.4890 C   0  0  2  0  0  3  0  0  0  0  0  0
  162.0260  206.8970  154.8950 O   0  0  0  0  0  1  0  0  0  0  0  0
  159.4550  209.8610  153.6130 C   0  0  1  0  0  3  0  0  0  0  0  0
  159.7100  213.2850  152.2890 O   0  0  0  0  0  0  0  0  0  0  0  0
  157.6980  213.7490  153.5060 C   0  0  0  0  0  2  0  0  0  0  0  0
  160.6530  206.6460  154.9210 C   0  0  2  0  0  3  0  0  0  0  0  0
  160.7670  210.4570  155.7630 C   0  0  0  0  0  0  0  0  0  0  0  0
  161.3870  209.0260  152.6030 C   0  0  0  0  0  0  0  0  0  0  0  0
  157.9720  214.4500  151.1470 C   0  0  0  0  0  1  0  0  0  0  0  0
  159.9260  207.3570  153.7720 C   0  0  0  0  0  2  0  0  0  0  0  0
  161.8460  211.3590  155.7560 C   0  0  0  0  0  3  0  0  0  0  0  0
  162.0300  209.0170  157.2610 C   0  0  0  0  0  3  0  0  0  0  0  0
  163.0850  209.9290  157.2600 C   0  0  0  0  0  3  0  0  0  0  0  0
  160.0640  206.9540  156.2990 C   0  0  0  0  0  2  0  0  0  0  0  0
  159.8250  210.8210  152.4560 C   0  0  1  0  0  3  0  0  0  0  0  0
  160.3930  208.7290  153.5700 N   0  0  0  0  0  0  0  0  0  0  0  0
  160.0450  212.1780  153.1070 C   0  0  2  0  0  3  0  0  0  0  0  0
  161.8090  210.7830  151.0340 O   0  0  0  0  0  0  0  0  0  0  0  0
  159.5250  210.6900  154.9220 C   0  0  1  0  0  3  0  0  0  0  0  0
  1 21  1  0  0  0  0
  2  8  1  0  0  0  0
  3 17  2  0  0  0  0
  4 22  1  0  0  0  0
  5 24  1  0  0  0  0
  5 17  1  0  0  0  0
  6  1  1  0  0  0  0
  8 10  1  0  0  0  0
  8  7  1  1  0  0  0
  9 18  1  6  0  0  0
  9 13  1  0  0  0  0
  9 14  1  0  0  0  0
 10 28  1  0  0  0  0
 11 15  1  0  0  0  0
 12 28  1  0  0  0  0
 13 26  1  0  0  0  0
 14  8  1  0  0  0  0
 15 23  1  0  0  0  0
 16  1  2  0  0  0  0
 17 25  1  0  0  0  0
 19 15  1  0  0  0  0
 20 16  1  0  0  0  0
 20  4  2  0  0  0  0
 22 21  2  0  0  0  0
 23  6  1  0  0  0  0
 24 26  1  0  0  0  0
 24 12  1  0  0  0  0
 25 12  1  0  0  0  0
 25 19  1  0  0  0  0
 26 10  1  0  0  0  0
 27  5  2  0  0  0  0
 28 16  1  0  0  0  0
M  END
>  <MODEL>
2

>  <REMARK>
 VINA RESULT:      -2.9      1.589      2.163
  Name = 
  0 active torsions:
  status: ('A' for Active; 'I' for Inactive)
                            x       y       z     vdW  Elec       q    Type
                         _______ _______ _______ _____ _____    ______ ____

>  <TORSDO>
F 0

$$$$
=
 OpenBabel11122414093D

 28 32  0  0  1  0  0  0  0  0999 V2000
  161.7150  210.0330  154.3390 C   0  0  0  0  0  0  0  0  0  0  0  0
  160.4570  214.2120  151.7830 F   0  0  0  0  0  0  0  0  0  0  0  0
  157.9130  210.8900  156.7060 O   0  0  0  0  0  0  0  0  0  0  0  0
  160.2060  207.9570  153.2190 C   0  0  0  0  0  3  0  0  0  0  0  0
  157.4230  211.8880  154.5880 C   0  0  0  0  0  0  0  0  0  0  0  0
  162.4200  211.0790  154.9330 O   0  0  0  0  0  0  0  0  0  0  0  0
  161.2810  212.8020  150.0820 C   0  0  0  0  0  1  0  0  0  0  0  0
  160.0900  213.1700  150.9450 C   0  0  1  0  0  0  0  0  0  0  0  0
  157.7050  213.8100  150.8770 C   0  0  1  0  0  3  0  0  0  0  0  0
  159.6450  211.9280  151.7490 C   0  0  2  0  0  3  0  0  0  0  0  0
  160.6830  210.1090  157.2610 O   0  0  0  0  0  1  0  0  0  0  0  0
  159.6550  212.5750  154.1140 C   0  0  1  0  0  3  0  0  0  0  0  0
  157.2650  212.5470  151.3160 O   0  0  0  0  0  0  0  0  0  0  0  0
  158.9670  213.6520  150.0410 C   0  0  0  0  0  2  0  0  0  0  0  0
  161.3590  211.3230  157.1150 C   0  0  2  0  0  3  0  0  0  0  0  0
  160.7230  210.3300  153.3930 C   0  0  0  0  0  0  0  0  0  0  0  0
  158.2870  211.4880  155.6620 C   0  0  0  0  0  0  0  0  0  0  0  0
  156.6230  214.4530  150.0370 C   0  0  0  0  0  1  0  0  0  0  0  0
  160.4480  212.4120  156.5350 C   0  0  0  0  0  2  0  0  0  0  0  0
  159.9610  209.2810  152.8470 C   0  0  0  0  0  3  0  0  0  0  0  0
  161.9540  208.7020  154.7130 C   0  0  0  0  0  3  0  0  0  0  0  0
  161.2050  207.6680  154.1510 C   0  0  0  0  0  3  0  0  0  0  0  0
  162.6600  211.1350  156.3330 C   0  0  0  0  0  2  0  0  0  0  0  0
  158.1980  212.6840  153.6010 C   0  0  1  0  0  3  0  0  0  0  0  0
  159.6160  211.9270  155.4330 N   0  0  0  0  0  0  0  0  0  0  0  0
  158.1930  212.0070  152.2390 C   0  0  2  0  0  3  0  0  0  0  0  0
  156.1890  211.6470  154.5210 O   0  0  0  0  0  0  0  0  0  0  0  0
  160.4470  211.7810  153.0430 C   0  0  1  0  0  3  0  0  0  0  0  0
  1 21  1  0  0  0  0
  1  6  1  0  0  0  0
  4 22  1  0  0  0  0
  5 17  1  0  0  0  0
  6 23  1  0  0  0  0
  8  7  1  6  0  0  0
  8 10  1  0  0  0  0
  8  2  1  0  0  0  0
  9 18  1  6  0  0  0
  9 13  1  0  0  0  0
 10 26  1  0  0  0  0
 10 28  1  0  0  0  0
 12 25  1  0  0  0  0
 13 26  1  0  0  0  0
 14  9  1  0  0  0  0
 14  8  1  0  0  0  0
 15 11  1  0  0  0  0
 16  1  2  0  0  0  0
 17  3  2  0  0  0  0
 19 15  1  0  0  0  0
 20  4  2  0  0  0  0
 20 16  1  0  0  0  0
 22 21  2  0  0  0  0
 23 15  1  0  0  0  0
 24 12  1  0  0  0  0
 24  5  1  0  0  0  0
 25 17  1  0  0  0  0
 25 19  1  0  0  0  0
 26 24  1  0  0  0  0
 27  5  2  0  0  0  0
 28 16  1  0  0  0  0
 28 12  1  0  0  0  0
M  END
>  <MODEL>
3

>  <REMARK>
 VINA RESULT:      -1.6      2.270      4.441
  Name = 
  0 active torsions:
  status: ('A' for Active; 'I' for Inactive)
                            x       y       z     vdW  Elec       q    Type
                         _______ _______ _______ _____ _____    ______ ____

>  <TORSDO>
F 0

$$$$
