=
 OpenBabel11122414103D

 28 32  0  0  1  0  0  0  0  0999 V2000
  160.8770  208.6520  155.9890 C   0  0  0  0  0  0  0  0  0  0  0  0
  157.5480  211.1540  153.2670 F   0  0  0  0  0  0  0  0  0  0  0  0
  161.7800  207.3780  150.6980 O   0  0  0  0  0  1  0  0  0  0  0  0
  163.0120  210.4380  156.3150 C   0  0  0  0  0  3  0  0  0  0  0  0
  162.0610  209.6600  151.2600 C   0  0  1  0  0  3  0  0  0  0  0  0
  159.7740  207.6560  155.7970 C   0  0  0  0  0  2  0  0  0  0  0  0
  158.2910  212.2540  155.2230 C   0  0  0  0  0  1  0  0  0  0  0  0
  158.5250  212.0150  153.7440 C   0  0  1  0  0  0  0  0  0  0  0  0
  158.8730  213.3700  151.7380 C   0  0  0  0  0  0  0  0  0  0  0  0
  159.9250  211.4080  153.5270 C   0  0  2  0  0  3  0  0  0  0  0  0
  162.5260  206.4220  154.6330 O   0  0  0  0  0  1  0  0  0  0  0  0
  160.2350  209.0900  152.7420 C   0  0  1  0  0  3  0  0  0  0  0  0
  159.5110  212.1910  151.0820 C   0  0  0  0  0  2  0  0  0  0  0  0
  158.4290  213.2590  153.0550 O   0  0  0  0  0  0  0  0  0  0  0  0
  161.2100  206.0770  154.3150 C   0  0  2  0  0  3  0  0  0  0  0  0
  161.0100  209.7500  155.1130 C   0  0  0  0  0  0  0  0  0  0  0  0
  162.1820  208.2310  151.7360 C   0  0  1  0  0  3  0  0  0  0  0  0
  158.7200  214.4470  151.1060 O   0  0  0  0  0  0  0  0  0  0  0  0
  160.7230  206.7770  153.0440 C   0  0  0  0  0  2  0  0  0  0  0  0
  162.0990  210.6250  155.2760 C   0  0  0  0  0  3  0  0  0  0  0  0
  161.7890  208.4810  157.0380 C   0  0  0  0  0  3  0  0  0  0  0  0
  162.8520  209.3720  157.2020 C   0  0  0  0  0  3  0  0  0  0  0  0
  160.2850  206.2360  155.5270 C   0  0  0  0  0  2  0  0  0  0  0  0
  160.6230  210.0200  151.6090 C   0  0  1  0  0  3  0  0  0  0  0  0
  161.3100  208.1120  152.9160 N   0  0  2  0  0  0  0  0  0  0  0  0
  160.4260  211.4570  152.0690 C   0  0  2  0  0  3  0  0  0  0  0  0
  162.9740  210.4490  151.9680 O   0  0  0  0  0  1  0  0  0  0  0  0
  160.0110  209.9560  153.9900 C   0  0  1  0  0  3  0  0  0  0  0  0
  1 21  1  0  0  0  0
  2  8  1  0  0  0  0
  3 17  1  0  0  0  0
  4 22  1  0  0  0  0
  5 24  1  0  0  0  0
  5 17  1  0  0  0  0
  5 27  1  1  0  0  0
  6  1  1  0  0  0  0
  8  7  1  1  0  0  0
  9 14  1  0  0  0  0
 10  8  1  0  0  0  0
 10 28  1  0  0  0  0
 12 25  1  0  0  0  0
 12 28  1  0  0  0  0
 13  9  1  0  0  0  0
 13 26  1  0  0  0  0
 14  8  1  0  0  0  0
 15 11  1  0  0  0  0
 15 23  1  0  0  0  0
 16 20  1  0  0  0  0
 16  1  2  0  0  0  0
 17 25  1  0  0  0  0
 18  9  2  0  0  0  0
 19 15  1  0  0  0  0
 20  4  2  0  0  0  0
 21 22  2  0  0  0  0
 23  6  1  0  0  0  0
 24 26  1  0  0  0  0
 24 12  1  0  0  0  0
 25 19  1  0  0  0  0
 26 10  1  0  0  0  0
 28 16  1  0  0  0  0
M  END
>  <MODEL>
1

>  <REMARK>
 VINA RESULT:      -3.0      0.000      0.000
  Name = 
  0 active torsions:
  status: ('A' for Active; 'I' for Inactive)
                            x       y       z     vdW  Elec       q    Type
                         _______ _______ _______ _____ _____    ______ ____

>  <TORSDO>
F 0

$$$$
=
 OpenBabel11122414103D

 28 32  0  0  1  0  0  0  0  0999 V2000
  160.4410  209.9750  155.7180 C   0  0  0  0  0  0  0  0  0  0  0  0
  155.5660  210.6810  155.0160 F   0  0  0  0  0  0  0  0  0  0  0  0
  159.8120  212.3360  150.7720 O   0  0  0  0  0  1  0  0  0  0  0  0
  161.2920  212.2500  157.1150 C   0  0  0  0  0  3  0  0  0  0  0  0
  159.0650  213.6180  152.6160 C   0  0  1  0  0  3  0  0  0  0  0  0
  160.0290  208.7660  154.9330 C   0  0  0  0  0  2  0  0  0  0  0  0
  156.3070  210.8720  157.2520 C   0  0  0  0  0  1  0  0  0  0  0  0
  156.0570  211.5900  155.9400 C   0  0  1  0  0  0  0  0  0  0  0  0
  154.8780  213.5960  155.1880 C   0  0  0  0  0  0  0  0  0  0  0  0
  157.3680  212.2190  155.4310 C   0  0  2  0  0  3  0  0  0  0  0  0
  162.3520  210.3340  153.3200 O   0  0  0  0  0  1  0  0  0  0  0  0
  158.5050  211.3980  153.4000 C   0  0  1  0  0  3  0  0  0  0  0  0
  155.7300  213.6080  153.9630 C   0  0  0  0  0  2  0  0  0  0  0  0
  155.0860  212.6110  156.1530 O   0  0  0  0  0  0  0  0  0  0  0  0
  161.3950  209.4430  152.8270 C   0  0  2  0  0  3  0  0  0  0  0  0
  159.6510  211.1440  155.6980 C   0  0  0  0  0  0  0  0  0  0  0  0
  160.0720  212.6040  152.1230 C   0  0  1  0  0  3  0  0  0  0  0  0
  153.9700  214.4530  155.3420 O   0  0  0  0  0  0  0  0  0  0  0  0
  160.1830  210.1690  152.2380 C   0  0  0  0  0  2  0  0  0  0  0  0
  160.1030  212.2840  156.3860 C   0  0  0  0  0  3  0  0  0  0  0  0
  161.6250  209.9450  156.4650 C   0  0  0  0  0  3  0  0  0  0  0  0
  162.0490  211.0780  157.1620 C   0  0  0  0  0  3  0  0  0  0  0  0
  161.0520  208.3660  153.8640 C   0  0  0  0  0  2  0  0  0  0  0  0
  157.9020  212.7520  153.0800 C   0  0  1  0  0  3  0  0  0  0  0  0
  159.9020  211.4080  152.9650 N   0  0  2  0  0  0  0  0  0  0  0  0
  157.1830  213.2710  154.3170 C   0  0  2  0  0  3  0  0  0  0  0  0
  159.6300  214.3310  153.6790 O   0  0  0  0  0  1  0  0  0  0  0  0
  158.3540  211.1750  154.9120 C   0  0  1  0  0  3  0  0  0  0  0  0
  1 21  1  0  0  0  0
  2  8  1  0  0  0  0
  3 17  1  0  0  0  0
  4 22  1  0  0  0  0
  5 24  1  0  0  0  0
  5 27  1  1  0  0  0
  6  1  1  0  0  0  0
  8 14  1  0  0  0  0
  8  7  1  1  0  0  0
  9 18  2  0  0  0  0
  9 14  1  0  0  0  0
 10  8  1  0  0  0  0
 12 28  1  0  0  0  0
 13 26  1  0  0  0  0
 13  9  1  0  0  0  0
 15 11  1  0  0  0  0
 15 23  1  0  0  0  0
 16  1  2  0  0  0  0
 16 20  1  0  0  0  0
 17  5  1  0  0  0  0
 17 25  1  0  0  0  0
 19 15  1  0  0  0  0
 19 25  1  0  0  0  0
 20  4  2  0  0  0  0
 21 22  2  0  0  0  0
 23  6  1  0  0  0  0
 24 12  1  0  0  0  0
 24 26  1  0  0  0  0
 25 12  1  0  0  0  0
 26 10  1  0  0  0  0
 28 10  1  0  0  0  0
 28 16  1  0  0  0  0
M  END
>  <MODEL>
2

>  <REMARK>
 VINA RESULT:      -3.0      2.341      3.797
  Name = 
  0 active torsions:
  status: ('A' for Active; 'I' for Inactive)
                            x       y       z     vdW  Elec       q    Type
                         _______ _______ _______ _____ _____    ______ ____

>  <TORSDO>
F 0

$$$$
