=
 OpenBabel11122414043D

 28 31  0  0  1  0  0  0  0  0999 V2000
  161.0820  208.0870  155.2610 C   0  0  0  0  0  0  0  0  0  0  0  0
  158.2520  211.4910  155.4600 O   0  0  0  0  0  0  0  0  0  0  0  0
  162.4790  209.9460  156.8160 C   0  0  0  0  0  3  0  0  0  0  0  0
  160.4480  207.1440  154.4520 O   0  0  0  0  0  0  0  0  0  0  0  0
  160.3930  212.6610  155.1020 O   0  0  0  0  0  0  0  0  0  0  0  0
  159.1860  212.0670  154.4340 S   0  0  0  0  0  0  0  0  0  0  0  0
  157.9240  212.8170  152.1060 C   0  0  1  0  0  3  0  0  0  0  0  0
  159.6180  210.8430  153.2190 C   0  0  1  0  0  3  0  0  0  0  0  0
  161.6400  205.2570  151.4370 C   0  0  0  0  0  1  0  0  0  0  0  0
  161.6340  209.8230  152.3190 C   0  0  2  0  0  3  0  0  0  0  0  0
  159.0630  212.2480  151.2260 C   0  0  0  0  0  2  0  0  0  0  0  0
  158.3710  213.3500  153.4790 C   0  0  0  0  0  2  0  0  0  0  0  0
  160.7510  206.1880  152.2380 C   0  0  2  0  0  3  0  0  0  0  0  0
  161.1880  209.4200  154.8320 C   0  0  0  0  0  0  0  0  0  0  0  0
  157.1860  213.8990  151.3470 C   0  0  0  0  0  1  0  0  0  0  0  0
  160.6840  207.5700  151.5740 C   0  0  0  0  0  2  0  0  0  0  0  0
  161.9180  210.3360  155.5970 C   0  0  0  0  0  3  0  0  0  0  0  0
  161.6470  207.6980  156.4820 C   0  0  0  0  0  3  0  0  0  0  0  0
  162.3380  208.6290  157.2610 C   0  0  0  0  0  3  0  0  0  0  0  0
  161.2200  206.2250  153.6930 C   0  0  0  0  0  2  0  0  0  0  0  0
  161.0220  210.6670  151.2860 N   0  0  0  0  0  0  0  0  0  0  0  0
  161.9470  208.4050  151.8080 C   0  0  1  0  0  3  0  0  0  0  0  0
  160.1810  211.5900  152.0450 C   0  0  2  0  0  3  0  0  0  0  0  0
  160.6510  209.7740  153.4790 C   0  0  1  0  0  3  0  0  0  0  0  0
  161.8850  207.9640  149.6400 C   0  0  0  0  0  1  0  0  0  0  0  0
  162.7230  208.4460  150.6460 O   0  0  0  0  0  0  0  0  0  0  0  0
  162.0930  211.4570  150.6970 C   0  0  0  0  0  2  0  0  0  0  0  0
  161.9420  211.4820  149.1890 C   0  0  0  0  0  1  0  0  0  0  0  0
  1 18  1  0  0  0  0
  3 19  1  0  0  0  0
  4  1  1  0  0  0  0
  6  5  2  0  0  0  0
  6  2  2  0  0  0  0
  7 15  1  6  0  0  0
  7 12  1  0  0  0  0
  8 24  1  0  0  0  0
  8  6  1  1  0  0  0
 10 21  1  6  0  0  0
 10 24  1  0  0  0  0
 11  7  1  0  0  0  0
 12  6  1  0  0  0  0
 13  9  1  6  0  0  0
 13 20  1  0  0  0  0
 14  1  2  0  0  0  0
 14 17  1  0  0  0  0
 16 22  1  0  0  0  0
 16 13  1  0  0  0  0
 17  3  2  0  0  0  0
 18 19  2  0  0  0  0
 20  4  1  0  0  0  0
 21 23  1  0  0  0  0
 22 26  1  6  0  0  0
 22 10  1  0  0  0  0
 23 11  1  6  0  0  0
 23  8  1  0  0  0  0
 24 14  1  1  0  0  0
 25 26  1  0  0  0  0
 27 21  1  0  0  0  0
 28 27  1  0  0  0  0
M  END
>  <MODEL>
1

>  <REMARK>
 VINA RESULT:      -5.1      0.000      0.000
  Name = 
  2 active torsions:
  status: ('A' for Active; 'I' for Inactive)
    1  A    between atoms: C_5  and  N_24
    2  A    between atoms: O_17  and  C_25
                            x       y       z     vdW  Elec       q    Type
                         _______ _______ _______ _____ _____    ______ ____

>  <TORSDO>
F 2

$$$$
=
 OpenBabel11122414043D

 28 31  0  0  1  0  0  0  0  0999 V2000
  161.3480  209.1470  155.5350 C   0  0  0  0  0  0  0  0  0  0  0  0
  157.8720  211.4250  157.0710 O   0  0  0  0  0  0  0  0  0  0  0  0
  162.5640  211.1410  157.0750 C   0  0  0  0  0  3  0  0  0  0  0  0
  160.7940  208.1620  154.7170 O   0  0  0  0  0  0  0  0  0  0  0  0
  159.4230  213.2490  156.4790 O   0  0  0  0  0  0  0  0  0  0  0  0
  158.2870  212.3930  155.9990 S   0  0  0  0  0  0  0  0  0  0  0  0
  156.2680  212.9920  154.2270 C   0  0  1  0  0  3  0  0  0  0  0  0
  158.6770  211.5320  154.4930 C   0  0  1  0  0  3  0  0  0  0  0  0
  161.5590  207.1460  151.1880 C   0  0  0  0  0  1  0  0  0  0  0  0
  160.5580  211.3250  152.9650 C   0  0  2  0  0  3  0  0  0  0  0  0
  157.2250  212.9300  153.0120 C   0  0  0  0  0  2  0  0  0  0  0  0
  156.9200  213.4610  155.5400 C   0  0  0  0  0  2  0  0  0  0  0  0
  160.7120  207.6390  152.3450 C   0  0  2  0  0  3  0  0  0  0  0  0
  160.9620  210.4870  155.3760 C   0  0  0  0  0  0  0  0  0  0  0  0
  155.0820  213.8710  153.8970 C   0  0  0  0  0  1  0  0  0  0  0  0
  160.0880  209.0000  152.0120 C   0  0  0  0  0  2  0  0  0  0  0  0
  161.5990  211.4830  156.1240 C   0  0  0  0  0  3  0  0  0  0  0  0
  162.3170  208.8060  156.4870 C   0  0  0  0  0  3  0  0  0  0  0  0
  162.9170  209.8020  157.2610 C   0  0  0  0  0  3  0  0  0  0  0  0
  161.5420  207.6380  153.6290 C   0  0  0  0  0  2  0  0  0  0  0  0
  159.4750  212.0550  152.2950 N   0  0  0  0  0  0  0  0  0  0  0  0
  161.0890  210.1560  152.1160 C   0  0  1  0  0  3  0  0  0  0  0  0
  158.6620  212.5610  153.4000 C   0  0  2  0  0  3  0  0  0  0  0  0
  159.9920  210.8220  154.2840 C   0  0  1  0  0  3  0  0  0  0  0  0
  162.8370  210.3400  150.7710 C   0  0  0  0  0  1  0  0  0  0  0  0
  161.4660  210.5870  150.8410 O   0  0  0  0  0  0  0  0  0  0  0  0
  160.0810  213.2120  151.6520 C   0  0  0  0  0  2  0  0  0  0  0  0
  159.5500  213.3470  150.2380 C   0  0  0  0  0  1  0  0  0  0  0  0
  1 18  1  0  0  0  0
  3 19  1  0  0  0  0
  4  1  1  0  0  0  0
  6  5  2  0  0  0  0
  6  2  2  0  0  0  0
  7 15  1  6  0  0  0
  7 12  1  0  0  0  0
  8  6  1  1  0  0  0
 10 21  1  6  0  0  0
 10 24  1  0  0  0  0
 11  7  1  0  0  0  0
 12  6  1  0  0  0  0
 13  9  1  6  0  0  0
 13 20  1  0  0  0  0
 14  1  2  0  0  0  0
 14 17  1  0  0  0  0
 16 22  1  0  0  0  0
 16 13  1  0  0  0  0
 17  3  2  0  0  0  0
 18 19  2  0  0  0  0
 20  4  1  0  0  0  0
 21 23  1  0  0  0  0
 22 26  1  6  0  0  0
 22 10  1  0  0  0  0
 23 11  1  6  0  0  0
 23  8  1  0  0  0  0
 24  8  1  0  0  0  0
 24 14  1  1  0  0  0
 25 26  1  0  0  0  0
 27 21  1  0  0  0  0
 28 27  1  0  0  0  0
M  END
>  <MODEL>
2

>  <REMARK>
 VINA RESULT:      -4.1      1.591      2.049
  Name = 
  2 active torsions:
  status: ('A' for Active; 'I' for Inactive)
    1  A    between atoms: C_5  and  N_24
    2  A    between atoms: O_17  and  C_25
                            x       y       z     vdW  Elec       q    Type
                         _______ _______ _______ _____ _____    ______ ____

>  <TORSDO>
F 2

$$$$
=
 OpenBabel11122414043D

 28 31  0  0  1  0  0  0  0  0999 V2000
  161.0130  210.1730  155.2630 C   0  0  0  0  0  0  0  0  0  0  0  0
  163.2380  210.3070  151.4330 O   0  0  0  0  0  0  0  0  0  0  0  0
  160.4400  207.6750  154.1430 C   0  0  0  0  0  3  0  0  0  0  0  0
  161.2300  211.4230  155.8440 O   0  0  0  0  0  0  0  0  0  0  0  0
  161.1180  209.2650  150.7260 O   0  0  0  0  0  0  0  0  0  0  0  0
  161.8660  210.5580  150.8760 S   0  0  0  0  0  0  0  0  0  0  0  0
  161.6990  212.8640  149.3810 C   0  0  1  0  0  3  0  0  0  0  0  0
  160.9870  211.7360  151.8770 C   0  0  1  0  0  3  0  0  0  0  0  0
  158.8450  213.9490  157.2610 C   0  0  0  0  0  1  0  0  0  0  0  0
  158.8930  211.8560  153.1080 C   0  0  2  0  0  3  0  0  0  0  0  0
  160.3270  213.2390  149.9900 C   0  0  0  0  0  2  0  0  0  0  0  0
  161.9650  211.3520  149.2690 C   0  0  0  0  0  2  0  0  0  0  0  0
  159.9310  213.4150  156.3470 C   0  0  2  0  0  3  0  0  0  0  0  0
  160.5870  210.0860  153.9280 C   0  0  0  0  0  0  0  0  0  0  0  0
  161.8510  213.5160  148.0250 C   0  0  0  0  0  1  0  0  0  0  0  0
  159.5290  213.5890  154.8760 C   0  0  0  0  0  2  0  0  0  0  0  0
  160.2680  208.8360  153.3850 C   0  0  0  0  0  3  0  0  0  0  0  0
  161.1830  209.0080  156.0210 C   0  0  0  0  0  3  0  0  0  0  0  0
  160.9040  207.7610  155.4580 C   0  0  0  0  0  3  0  0  0  0  0  0
  160.2640  211.9720  156.7290 C   0  0  0  0  0  2  0  0  0  0  0  0
  158.8190  212.7520  151.9470 N   0  0  0  0  0  0  0  0  0  0  0  0
  158.4910  212.5600  154.4170 C   0  0  1  0  0  3  0  0  0  0  0  0
  159.8430  212.2340  151.0420 C   0  0  2  0  0  3  0  0  0  0  0  0
  160.3280  211.3590  153.1810 C   0  0  1  0  0  3  0  0  0  0  0  0
  156.3470  212.2360  154.8640 C   0  0  0  0  0  1  0  0  0  0  0  0
  157.2330  213.1580  154.3030 O   0  0  0  0  0  0  0  0  0  0  0  0
  157.5320  212.5110  151.3110 C   0  0  0  0  0  2  0  0  0  0  0  0
  156.9070  213.8320  150.9040 C   0  0  0  0  0  1  0  0  0  0  0  0
  1  4  1  0  0  0  0
  1 18  1  0  0  0  0
  3 19  1  0  0  0  0
  4 20  1  0  0  0  0
  5  6  2  0  0  0  0
  6  2  2  0  0  0  0
  7 15  1  6  0  0  0
  7 11  1  0  0  0  0
  8  6  1  6  0  0  0
  8 24  1  0  0  0  0
 10 21  1  6  0  0  0
 10 24  1  0  0  0  0
 10 22  1  0  0  0  0
 12  7  1  0  0  0  0
 12  6  1  0  0  0  0
 13 20  1  0  0  0  0
 13  9  1  1  0  0  0
 14  1  2  0  0  0  0
 16 13  1  0  0  0  0
 17 14  1  0  0  0  0
 17  3  2  0  0  0  0
 19 18  2  0  0  0  0
 22 26  1  6  0  0  0
 22 16  1  0  0  0  0
 23 11  1  6  0  0  0
 23  8  1  0  0  0  0
 23 21  1  0  0  0  0
 24 14  1  6  0  0  0
 26 25  1  0  0  0  0
 27 21  1  0  0  0  0
 28 27  1  0  0  0  0
M  END
>  <MODEL>
3

>  <REMARK>
 VINA RESULT:      -2.9      2.139      5.325
  Name = 
  2 active torsions:
  status: ('A' for Active; 'I' for Inactive)
    1  A    between atoms: C_5  and  N_24
    2  A    between atoms: O_17  and  C_25
                            x       y       z     vdW  Elec       q    Type
                         _______ _______ _______ _____ _____    ______ ____

>  <TORSDO>
F 2

$$$$
=
 OpenBabel11122414043D

 28 31  0  0  1  0  0  0  0  0999 V2000
  159.6620  212.2630  150.6520 C   0  0  0  0  0  0  0  0  0  0  0  0
  160.5160  207.9980  149.8020 O   0  0  0  0  0  0  0  0  0  0  0  0
  162.1570  212.3840  149.3920 C   0  0  0  0  0  3  0  0  0  0  0  0
  158.4410  212.2530  151.3260 O   0  0  0  0  0  0  0  0  0  0  0  0
  162.7180  208.7870  150.5810 O   0  0  0  0  0  0  0  0  0  0  0  0
  161.4220  208.1500  150.9900 S   0  0  0  0  0  0  0  0  0  0  0  0
  160.9200  206.3240  152.9880 C   0  0  1  0  0  3  0  0  0  0  0  0
  160.6080  209.0480  152.2900 C   0  0  1  0  0  3  0  0  0  0  0  0
  157.3790  213.8340  154.5580 C   0  0  0  0  0  1  0  0  0  0  0  0
  160.9850  211.0550  153.6120 C   0  0  2  0  0  3  0  0  0  0  0  0
  161.0950  207.3890  154.0970 C   0  0  0  0  0  2  0  0  0  0  0  0
  161.7770  206.5540  151.7300 C   0  0  0  0  0  2  0  0  0  0  0  0
  157.6300  212.7110  153.5710 C   0  0  2  0  0  3  0  0  0  0  0  0
  160.6990  211.4130  151.0700 C   0  0  0  0  0  0  0  0  0  0  0  0
  161.1940  204.9480  153.5540 C   0  0  0  0  0  1  0  0  0  0  0  0
  158.5680  211.6600  154.1820 C   0  0  0  0  0  2  0  0  0  0  0  0
  161.9550  211.5040  150.4580 C   0  0  0  0  0  3  0  0  0  0  0  0
  159.8680  213.1450  149.5840 C   0  0  0  0  0  3  0  0  0  0  0  0
  161.1120  213.1990  148.9510 C   0  0  0  0  0  3  0  0  0  0  0  0
  158.1310  213.2890  152.2470 C   0  0  0  0  0  2  0  0  0  0  0  0
  161.1220  209.8770  154.4790 N   0  0  0  0  0  0  0  0  0  0  0  0
  160.0320  212.1100  154.2040 C   0  0  1  0  0  3  0  0  0  0  0  0
  161.3920  208.7880  153.5440 C   0  0  2  0  0  3  0  0  0  0  0  0
  160.4700  210.5510  152.2730 C   0  0  1  0  0  3  0  0  0  0  0  0
  159.4370  211.8980  156.3250 C   0  0  0  0  0  1  0  0  0  0  0  0
  160.4120  212.4630  155.5010 O   0  0  0  0  0  0  0  0  0  0  0  0
  162.3320  210.0710  155.2650 C   0  0  0  0  0  2  0  0  0  0  0  0
  162.0830  209.6460  156.6990 C   0  0  0  0  0  1  0  0  0  0  0  0
  1 14  1  0  0  0  0
  1  4  1  0  0  0  0
  2  6  2  0  0  0  0
  3 17  1  0  0  0  0
  4 20  1  0  0  0  0
  5  6  2  0  0  0  0
  6 12  1  0  0  0  0
  7 15  1  1  0  0  0
  7 11  1  0  0  0  0
  8  6  1  6  0  0  0
  8 23  1  0  0  0  0
 10 22  1  0  0  0  0
 10 21  1  1  0  0  0
 12  7  1  0  0  0  0
 13 16  1  0  0  0  0
 13  9  1  1  0  0  0
 16 22  1  0  0  0  0
 17 14  2  0  0  0  0
 18  1  2  0  0  0  0
 19  3  2  0  0  0  0
 19 18  1  0  0  0  0
 20 13  1  0  0  0  0
 21 27  1  0  0  0  0
 22 26  1  1  0  0  0
 23 11  1  1  0  0  0
 23 21  1  0  0  0  0
 24 14  1  6  0  0  0
 24  8  1  0  0  0  0
 24 10  1  0  0  0  0
 26 25  1  0  0  0  0
 27 28  1  0  0  0  0
M  END
>  <MODEL>
4

>  <REMARK>
 VINA RESULT:      -2.8      1.962      6.620
  Name = 
  2 active torsions:
  status: ('A' for Active; 'I' for Inactive)
    1  A    between atoms: C_5  and  N_24
    2  A    between atoms: O_17  and  C_25
                            x       y       z     vdW  Elec       q    Type
                         _______ _______ _______ _____ _____    ______ ____

>  <TORSDO>
F 2

$$$$
=
 OpenBabel11122414043D

 28 31  0  0  1  0  0  0  0  0999 V2000
  158.8130  212.5860  151.3050 C   0  0  0  0  0  0  0  0  0  0  0  0
  160.4560  208.6630  150.0590 O   0  0  0  0  0  0  0  0  0  0  0  0
  161.2200  213.3020  150.0720 C   0  0  0  0  0  3  0  0  0  0  0  0
  157.6260  212.2790  151.9700 O   0  0  0  0  0  0  0  0  0  0  0  0
  162.4780  209.7850  150.9180 O   0  0  0  0  0  0  0  0  0  0  0  0
  161.3330  208.8750  151.2610 S   0  0  0  0  0  0  0  0  0  0  0  0
  161.2200  206.8080  153.0750 C   0  0  1  0  0  3  0  0  0  0  0  0
  160.3810  209.4750  152.6370 C   0  0  1  0  0  3  0  0  0  0  0  0
  156.3270  213.3180  155.3320 C   0  0  0  0  0  1  0  0  0  0  0  0
  160.3850  211.3840  154.1430 C   0  0  2  0  0  3  0  0  0  0  0  0
  161.2030  207.7790  154.2810 C   0  0  0  0  0  2  0  0  0  0  0  0
  161.9990  207.3150  151.8480 C   0  0  0  0  0  2  0  0  0  0  0  0
  156.7750  212.3610  154.2450 C   0  0  2  0  0  3  0  0  0  0  0  0
  160.0000  211.9160  151.6440 C   0  0  0  0  0  0  0  0  0  0  0  0
  161.7600  205.4640  153.5110 C   0  0  0  0  0  1  0  0  0  0  0  0
  157.9050  211.4580  154.7570 C   0  0  0  0  0  2  0  0  0  0  0  0
  161.2060  212.3040  151.0490 C   0  0  0  0  0  3  0  0  0  0  0  0
  158.8300  213.5870  150.3260 C   0  0  0  0  0  3  0  0  0  0  0  0
  160.0320  213.9380  149.7050 C   0  0  0  0  0  3  0  0  0  0  0  0
  157.1360  213.1460  152.9840 C   0  0  0  0  0  2  0  0  0  0  0  0
  160.7570  210.1800  154.8950 N   0  0  0  0  0  0  0  0  0  0  0  0
  159.2560  212.1770  154.8270 C   0  0  1  0  0  3  0  0  0  0  0  0
  161.2190  209.2540  153.8630 C   0  0  2  0  0  3  0  0  0  0  0  0
  159.9570  210.9180  152.7610 C   0  0  1  0  0  3  0  0  0  0  0  0
  159.7090  213.8630  156.1890 C   0  0  0  0  0  1  0  0  0  0  0  0
  159.5800  212.4740  156.1540 O   0  0  0  0  0  0  0  0  0  0  0  0
  161.9190  210.5280  155.7010 C   0  0  0  0  0  2  0  0  0  0  0  0
  161.7570  209.9680  157.1010 C   0  0  0  0  0  1  0  0  0  0  0  0
  1 14  1  0  0  0  0
  1  4  1  0  0  0  0
  2  6  2  0  0  0  0
  3 17  1  0  0  0  0
  4 20  1  0  0  0  0
  5  6  2  0  0  0  0
  6 12  1  0  0  0  0
  7 15  1  1  0  0  0
  7 11  1  0  0  0  0
  8  6  1  6  0  0  0
  8 24  1  0  0  0  0
  8 23  1  0  0  0  0
 10 22  1  0  0  0  0
 10 21  1  1  0  0  0
 12  7  1  0  0  0  0
 13 16  1  0  0  0  0
 13  9  1  1  0  0  0
 16 22  1  0  0  0  0
 17 14  2  0  0  0  0
 18  1  2  0  0  0  0
 19  3  2  0  0  0  0
 19 18  1  0  0  0  0
 20 13  1  0  0  0  0
 21 27  1  0  0  0  0
 22 26  1  1  0  0  0
 23 11  1  1  0  0  0
 23 21  1  0  0  0  0
 24 14  1  6  0  0  0
 24 10  1  0  0  0  0
 26 25  1  0  0  0  0
 27 28  1  0  0  0  0
M  END
>  <MODEL>
5

>  <REMARK>
 VINA RESULT:      -2.8      2.038      6.660
  Name = 
  2 active torsions:
  status: ('A' for Active; 'I' for Inactive)
    1  A    between atoms: C_5  and  N_24
    2  A    between atoms: O_17  and  C_25
                            x       y       z     vdW  Elec       q    Type
                         _______ _______ _______ _____ _____    ______ ____

>  <TORSDO>
F 2

$$$$
=
 OpenBabel11122414043D

 28 31  0  0  1  0  0  0  0  0999 V2000
  157.8990  212.9650  151.7880 C   0  0  0  0  0  0  0  0  0  0  0  0
  160.0600  209.1200  152.2110 O   0  0  0  0  0  0  0  0  0  0  0  0
  160.4870  213.6310  150.9600 C   0  0  0  0  0  3  0  0  0  0  0  0
  156.6050  212.6970  152.2350 O   0  0  0  0  0  0  0  0  0  0  0  0
  161.7190  210.7090  153.1060 O   0  0  0  0  0  0  0  0  0  0  0  0
  160.5880  209.7830  153.4510 S   0  0  0  0  0  0  0  0  0  0  0  0
  160.1560  208.3200  155.7420 C   0  0  1  0  0  3  0  0  0  0  0  0
  159.2810  210.6090  154.3270 C   0  0  1  0  0  3  0  0  0  0  0  0
  154.4300  214.4530  154.7370 C   0  0  0  0  0  1  0  0  0  0  0  0
  158.7770  212.8480  155.1330 C   0  0  2  0  0  3  0  0  0  0  0  0
  159.7700  209.5800  156.5540 C   0  0  0  0  0  2  0  0  0  0  0  0
  161.1850  208.5620  154.6230 C   0  0  0  0  0  2  0  0  0  0  0  0
  155.2010  213.3000  154.1260 C   0  0  2  0  0  3  0  0  0  0  0  0
  159.0020  212.5920  152.5720 C   0  0  0  0  0  0  0  0  0  0  0  0
  160.6570  207.2440  156.6800 C   0  0  0  0  0  1  0  0  0  0  0  0
  156.2230  212.7460  155.1290 C   0  0  0  0  0  2  0  0  0  0  0  0
  160.2910  212.9590  152.1690 C   0  0  0  0  0  3  0  0  0  0  0  0
  158.0970  213.6400  150.5770 C   0  0  0  0  0  3  0  0  0  0  0  0
  159.3900  213.9650  150.1610 C   0  0  0  0  0  3  0  0  0  0  0  0
  155.8180  213.7380  152.7970 C   0  0  0  0  0  2  0  0  0  0  0  0
  159.0260  211.9700  156.2820 N   0  0  0  0  0  0  0  0  0  0  0  0
  157.4610  213.6370  155.2710 C   0  0  1  0  0  3  0  0  0  0  0  0
  159.7930  210.8640  155.7150 C   0  0  2  0  0  3  0  0  0  0  0  0
  158.7450  211.9540  153.9030 C   0  0  1  0  0  3  0  0  0  0  0  0
  156.4900  213.6490  157.2600 C   0  0  0  0  0  1  0  0  0  0  0  0
  157.4180  214.3390  156.4780 O   0  0  0  0  0  0  0  0  0  0  0  0
  159.9190  212.6910  157.1780 C   0  0  0  0  0  2  0  0  0  0  0  0
  161.3460  212.2270  156.9580 C   0  0  0  0  0  1  0  0  0  0  0  0
  1  4  1  0  0  0  0
  1 14  1  0  0  0  0
  2  6  2  0  0  0  0
  3 17  1  0  0  0  0
  4 20  1  0  0  0  0
  5  6  2  0  0  0  0
  6 12  1  0  0  0  0
  7 11  1  0  0  0  0
  7 15  1  1  0  0  0
  8  6  1  6  0  0  0
  8 23  1  0  0  0  0
 10 22  1  0  0  0  0
 10 21  1  1  0  0  0
 12  7  1  0  0  0  0
 13  9  1  1  0  0  0
 13 16  1  0  0  0  0
 16 22  1  0  0  0  0
 17 14  2  0  0  0  0
 18  1  2  0  0  0  0
 19 18  1  0  0  0  0
 19  3  2  0  0  0  0
 20 13  1  0  0  0  0
 21 27  1  0  0  0  0
 22 26  1  1  0  0  0
 23 21  1  0  0  0  0
 23 11  1  1  0  0  0
 24 14  1  6  0  0  0
 24  8  1  0  0  0  0
 24 10  1  0  0  0  0
 26 25  1  0  0  0  0
 28 27  1  0  0  0  0
M  END
>  <MODEL>
6

>  <REMARK>
 VINA RESULT:      -2.2      2.778      7.151
  Name = 
  2 active torsions:
  status: ('A' for Active; 'I' for Inactive)
    1  A    between atoms: C_5  and  N_24
    2  A    between atoms: O_17  and  C_25
                            x       y       z     vdW  Elec       q    Type
                         _______ _______ _______ _____ _____    ______ ____

>  <TORSDO>
F 2

$$$$
