=
 OpenBabel11122413143D

 31 36  0  0  1  0  0  0  0  0999 V2000
  162.3100  212.5870  143.3770 C   0  0  0  0  0  0  0  0  0  0  0  0
  161.2610  212.2450  139.7440 C   0  0  2  0  0  3  0  0  0  0  0  0
  161.6370  210.7970  139.3050 C   0  0  1  0  0  3  0  0  0  0  0  0
  162.1070  208.4060  139.8740 C   0  0  1  0  0  3  0  0  0  0  0  0
  161.1810  212.4350  141.2360 C   0  0  0  0  0  0  0  0  0  0  0  0
  161.0750  212.6400  144.0270 C   0  0  0  0  0  3  0  0  0  0  0  0
  161.5090  209.7170  140.3850 C   0  0  0  0  0  2  0  0  0  0  0  0
  158.7560  212.1470  139.6550 C   0  0  2  0  0  3  0  0  0  0  0  0
  163.4560  212.6310  144.0970 F   0  0  0  0  0  0  0  0  0  0  0  0
  160.8820  211.4340  137.0110 C   0  0  0  0  0  2  0  0  0  0  0  0
  161.9580  207.4180  140.8440 O   0  0  0  0  0  1  0  0  0  0  0  0
  158.6350  212.5420  141.1320 C   0  0  0  0  0  2  0  0  0  0  0  0
  160.0060  212.8000  139.0400 C   0  0  2  0  0  3  0  0  0  0  0  0
  162.3630  212.4830  141.9850 C   0  0  0  0  0  3  0  0  0  0  0  0
  161.4200  207.9610  138.5810 C   0  0  0  0  0  2  0  0  0  0  0  0
  159.9320  212.4810  141.8940 C   0  0  0  0  0  0  0  0  0  0  0  0
  159.8910  212.5930  143.2870 C   0  0  0  0  0  3  0  0  0  0  0  0
  160.0920  212.6520  137.5070 C   0  0  0  0  0  2  0  0  0  0  0  0
  160.8810  210.3340  138.0540 C   0  0  1  0  0  3  0  0  0  0  0  0
  161.5090  209.0550  137.5170 C   0  0  0  0  0  2  0  0  0  0  0  0
  156.5030  212.8570  139.9240 O   0  0  0  0  0  0  0  0  0  0  0  0
  156.3680  211.6110  139.2870 C   0  0  2  0  0  3  0  0  0  0  0  0
  157.4660  212.5460  138.9460 C   0  0  2  0  0  3  0  0  0  0  0  0
  153.1250  210.1600  139.3590 C   0  0  1  0  0  3  0  0  0  0  0  0
  153.9600  212.2460  139.0090 C   0  0  0  0  0  2  0  0  0  0  0  0
  155.9740  209.8580  137.1390 O   0  0  0  0  0  1  0  0  0  0  0  0
  152.5420  209.2060  140.3800 C   0  0  0  0  0  1  0  0  0  0  0  0
  153.5400  211.3410  140.0060 O   0  0  0  0  0  0  0  0  0  0  0  0
  154.8590  210.4170  137.6670 N   0  0  0  0  0  0  0  0  0  0  0  0
  155.2040  211.7060  138.2910 C   0  0  2  0  0  3  0  0  0  0  0  0
  154.3160  209.4950  138.6650 C   0  0  0  0  0  2  0  0  0  0  0  0
  1  6  1  0  0  0  0
  1  9  1  0  0  0  0
  2  5  1  1  0  0  0
  3  2  1  0  0  0  0
  3  7  1  1  0  0  0
  4  7  1  0  0  0  0
  4 11  1  1  0  0  0
  5 16  2  0  0  0  0
  5 14  1  0  0  0  0
  8 12  1  1  0  0  0
 10 18  1  0  0  0  0
 12 16  1  0  0  0  0
 13 18  1  6  0  0  0
 13  8  1  0  0  0  0
 13  2  1  0  0  0  0
 14  1  2  0  0  0  0
 15  4  1  0  0  0  0
 16 17  1  0  0  0  0
 17  6  2  0  0  0  0
 19 10  1  6  0  0  0
 19  3  1  0  0  0  0
 20 19  1  0  0  0  0
 20 15  1  0  0  0  0
 22 21  1  1  0  0  0
 23 22  1  0  0  0  0
 23  8  1  0  0  0  0
 23 21  1  1  0  0  0
 24 28  1  0  0  0  0
 24 27  1  1  0  0  0
 25 28  1  0  0  0  0
 26 29  1  0  0  0  0
 29 30  1  0  0  0  0
 29 31  1  0  0  0  0
 30 25  1  1  0  0  0
 30 22  1  0  0  0  0
 31 24  1  0  0  0  0
M  END
>  <MODEL>
1

>  <REMARK>
 VINA RESULT:      -5.6      0.000      0.000
  Name = 
  2 active torsions:
  status: ('A' for Active; 'I' for Inactive)
    1  A    between atoms: C_5  and  C_30
    2  A    between atoms: C_10  and  C_16
                            x       y       z     vdW  Elec       q    Type
                         _______ _______ _______ _____ _____    ______ ____

>  <TORSDO>
F 2

$$$$
=
 OpenBabel11122413143D

 31 36  0  0  1  0  0  0  0  0999 V2000
  161.6680  207.0410  152.5170 C   0  0  0  0  0  0  0  0  0  0  0  0
  159.6050  209.9600  153.7970 C   0  0  2  0  0  3  0  0  0  0  0  0
  160.2180  210.3720  155.1700 C   0  0  1  0  0  3  0  0  0  0  0  0
  162.1580  210.4560  156.7470 C   0  0  1  0  0  3  0  0  0  0  0  0
  160.5260  209.1400  152.9320 C   0  0  0  0  0  0  0  0  0  0  0  0
  162.3450  207.6190  151.4400 C   0  0  0  0  0  3  0  0  0  0  0  0
  161.7380  210.2190  155.2970 C   0  0  0  0  0  2  0  0  0  0  0  0
  160.1420  211.9740  152.4000 C   0  0  2  0  0  3  0  0  0  0  0  0
  161.8940  205.7460  152.8420 F   0  0  0  0  0  0  0  0  0  0  0  0
  158.3470  212.0160  155.3650 C   0  0  0  0  0  2  0  0  0  0  0  0
  163.5430  210.3500  156.8530 O   0  0  0  0  0  1  0  0  0  0  0  0
  160.9200  211.1280  151.3840 C   0  0  0  0  0  2  0  0  0  0  0  0
  159.0010  211.1400  153.0090 C   0  0  2  0  0  3  0  0  0  0  0  0
  160.7630  207.8000  153.2620 C   0  0  0  0  0  3  0  0  0  0  0  0
  161.7130  211.8390  157.2250 C   0  0  0  0  0  2  0  0  0  0  0  0
  161.2170  209.7270  151.8490 C   0  0  0  0  0  0  0  0  0  0  0  0
  162.1140  208.9550  151.1040 C   0  0  0  0  0  3  0  0  0  0  0  0
  158.0210  211.9660  153.8670 C   0  0  0  0  0  2  0  0  0  0  0  0
  159.8290  211.7920  155.5990 C   0  0  1  0  0  3  0  0  0  0  0  0
  160.2030  212.0100  157.0590 C   0  0  0  0  0  2  0  0  0  0  0  0
  158.3870  212.9610  151.1360 O   0  0  0  0  0  0  0  0  0  0  0  0
  159.4740  212.9900  150.2440 C   0  0  2  0  0  3  0  0  0  0  0  0
  159.6490  213.2340  151.6950 C   0  0  2  0  0  3  0  0  0  0  0  0
  158.6720  213.5960  146.8360 C   0  0  1  0  0  3  0  0  0  0  0  0
  158.0060  214.4530  148.8350 C   0  0  0  0  0  2  0  0  0  0  0  0
  161.6320  214.1190  148.8620 O   0  0  0  0  0  1  0  0  0  0  0  0
  158.3650  212.5910  145.7460 C   0  0  0  0  0  1  0  0  0  0  0  0
  157.7670  213.4220  147.9020 O   0  0  0  0  0  0  0  0  0  0  0  0
  160.3990  214.3820  148.3630 N   0  0  0  0  0  0  0  0  0  0  0  0
  159.4040  214.3000  149.4470 C   0  0  2  0  0  3  0  0  0  0  0  0
  160.1070  213.3910  147.3260 C   0  0  0  0  0  2  0  0  0  0  0  0
  1  9  1  0  0  0  0
  1 14  1  0  0  0  0
  2  5  1  6  0  0  0
  2  3  1  0  0  0  0
  3  7  1  6  0  0  0
  3 19  1  0  0  0  0
  4 11  1  6  0  0  0
  4 15  1  0  0  0  0
  5 14  2  0  0  0  0
  6  1  2  0  0  0  0
  7  4  1  0  0  0  0
  8 12  1  6  0  0  0
  8 13  1  0  0  0  0
 12 16  1  0  0  0  0
 13  2  1  0  0  0  0
 13 18  1  1  0  0  0
 16  5  1  0  0  0  0
 17  6  1  0  0  0  0
 17 16  2  0  0  0  0
 18 10  1  0  0  0  0
 19 10  1  1  0  0  0
 19 20  1  0  0  0  0
 20 15  1  0  0  0  0
 22 21  1  1  0  0  0
 22 23  1  0  0  0  0
 23 21  1  1  0  0  0
 23  8  1  0  0  0  0
 24 27  1  6  0  0  0
 24 31  1  0  0  0  0
 24 28  1  0  0  0  0
 28 25  1  0  0  0  0
 29 26  1  0  0  0  0
 29 30  1  0  0  0  0
 30 25  1  6  0  0  0
 30 22  1  0  0  0  0
 31 29  1  0  0  0  0
M  END
>  <MODEL>
2

>  <REMARK>
 VINA RESULT:      -5.4      9.939     13.477
  Name = 
  2 active torsions:
  status: ('A' for Active; 'I' for Inactive)
    1  A    between atoms: C_5  and  C_30
    2  A    between atoms: C_10  and  C_16
                            x       y       z     vdW  Elec       q    Type
                         _______ _______ _______ _____ _____    ______ ____

>  <TORSDO>
F 2

$$$$
