=
 OpenBabel11122412483D

 32 38  0  0  1  0  0  0  0  0999 V2000
  161.5710  208.1110  150.1880 C   0  0  0  0  0  0  0  0  0  0  0  0
  160.8120  209.5010  154.9290 C   0  0  0  0  0  3  0  0  0  0  0  0
  160.6050  208.2230  155.2720 C   0  0  0  0  0  3  0  0  0  0  0  0
  161.0840  205.7100  149.6060 C   0  0  0  0  0  0  0  0  0  0  0  0
  160.5100  204.4200  150.1210 C   0  0  1  0  0  3  0  0  0  0  0  0
  161.5170  209.9160  148.4600 C   0  0  0  0  0  2  0  0  0  0  0  0
  161.5250  210.5630  150.7100 C   0  0  0  0  0  2  0  0  0  0  0  0
  161.1030  202.7440  151.8470 C   0  0  1  0  0  3  0  0  0  0  0  0
  161.5530  209.8240  153.6640 C   0  0  0  0  0  2  0  0  0  0  0  0
  161.8600  209.1680  151.2440 C   0  0  1  0  0  3  0  0  0  0  0  0
  161.0620  208.9200  152.5270 C   0  0  1  0  0  3  0  0  0  0  0  0
  161.1210  206.5030  152.0050 C   0  0  0  0  0  0  0  0  0  0  0  0
  161.1630  202.0810  150.4740 C   0  0  1  0  0  3  0  0  0  0  0  0
  162.1780  210.7890  149.4250 N   0  0  2  0  0  0  0  0  0  0  0  0
  161.0390  203.1850  149.4140 C   0  0  0  0  0  2  0  0  0  0  0  0
  161.1180  207.0990  154.4110 C   0  0  0  0  0  2  0  0  0  0  0  0
  161.1000  207.4620  152.9430 C   0  0  0  0  0  0  0  0  0  0  0  0
  161.1150  205.1190  152.3910 N   0  0  0  0  0  0  0  0  0  0  0  0
  161.8710  208.4630  148.7520 C   0  0  0  0  0  2  0  0  0  0  0  0
  161.3260  205.8320  148.3750 O   0  0  0  0  0  0  0  0  0  0  0  0
  162.4300  202.2820  151.2800 C   0  0  0  0  0  2  0  0  0  0  0  0
  161.2570  206.8450  150.5590 C   0  0  0  0  0  0  0  0  0  0  0  0
  160.8740  204.1710  151.5370 C   0  0  0  0  0  0  0  0  0  0  0  0
  163.0570  212.8190  148.2920 C   0  0  2  0  0  3  0  0  0  0  0  0
  161.8850  212.1650  149.0320 C   0  0  1  0  0  3  0  0  0  0  0  0
  161.8710  212.2810  147.5190 C   0  0  1  0  0  3  0  0  0  0  0  0
  161.0130  213.3760  147.1350 N   0  0  0  0  0  0  0  0  0  0  0  0
  160.0890  213.2660  146.2440 C   0  0  0  0  0  0  0  0  0  0  0  0
  159.8240  211.9800  145.5240 C   0  0  0  0  0  1  0  0  0  0  0  0
  159.2530  214.4530  145.9160 C   0  0  0  0  0  1  0  0  0  0  0  0
  164.1400  211.9500  148.1410 O   0  0  0  0  0  0  0  0  0  0  0  0
  164.3620  211.8990  146.7650 C   0  0  0  0  0  1  0  0  0  0  0  0
  1 22  2  0  0  0  0
  1 10  1  0  0  0  0
  2  3  2  0  0  0  0
  4  5  1  0  0  0  0
  4 22  1  0  0  0  0
  5 15  1  6  0  0  0
  5 23  1  0  0  0  0
  6 19  1  0  0  0  0
  8 21  1  6  0  0  0
  9  2  1  0  0  0  0
 10  7  1  6  0  0  0
 10 11  1  0  0  0  0
 11 17  1  0  0  0  0
 11  9  1  1  0  0  0
 12 18  1  0  0  0  0
 12 17  2  0  0  0  0
 13 15  1  6  0  0  0
 13 21  1  0  0  0  0
 13  8  1  0  0  0  0
 14  6  1  6  0  0  0
 14  7  1  0  0  0  0
 16  3  1  0  0  0  0
 17 16  1  0  0  0  0
 19  1  1  0  0  0  0
 20  4  2  0  0  0  0
 22 12  1  0  0  0  0
 23  8  1  0  0  0  0
 23 18  2  0  0  0  0
 24 31  1  6  0  0  0
 24 25  1  0  0  0  0
 25 14  1  6  0  0  0
 26 27  1  1  0  0  0
 26 24  1  0  0  0  0
 26 25  1  0  0  0  0
 28 27  2  0  0  0  0
 29 28  1  0  0  0  0
 30 28  1  0  0  0  0
 32 31  1  0  0  0  0
M  END
>  <MODEL>
1

>  <REMARK>
 VINA RESULT:      -7.4      0.000      0.000
  Name = 
  3 active torsions:
  status: ('A' for Active; 'I' for Inactive)
    1  A    between atoms: C_1  and  O_16
    2  A    between atoms: C_10  and  N_17
    3  A    between atoms: C_20  and  N_29
                            x       y       z     vdW  Elec       q    Type
                         _______ _______ _______ _____ _____    ______ ____

>  <TORSDO>
F 3

$$$$
=
 OpenBabel11122412483D

 32 38  0  0  1  0  0  0  0  0999 V2000
  161.2770  207.3390  150.5370 C   0  0  0  0  0  0  0  0  0  0  0  0
  160.4450  203.1740  153.1740 C   0  0  0  0  0  3  0  0  0  0  0  0
  160.5230  202.4460  152.0520 C   0  0  0  0  0  3  0  0  0  0  0  0
  161.2750  207.1250  148.0280 C   0  0  0  0  0  0  0  0  0  0  0  0
  161.0040  206.1920  146.8810 C   0  0  1  0  0  3  0  0  0  0  0  0
  160.7770  209.5100  151.6690 C   0  0  0  0  0  2  0  0  0  0  0  0
  160.7440  207.5690  152.9760 C   0  0  0  0  0  2  0  0  0  0  0  0
  162.0040  204.1170  145.9680 C   0  0  1  0  0  3  0  0  0  0  0  0
  161.0490  204.5480  153.2160 C   0  0  0  0  0  2  0  0  0  0  0  0
  161.3840  206.6810  151.9050 C   0  0  1  0  0  3  0  0  0  0  0  0
  160.7100  205.3060  151.9280 C   0  0  1  0  0  3  0  0  0  0  0  0
  161.2470  205.0880  149.5240 C   0  0  0  0  0  0  0  0  0  0  0  0
  162.1420  205.2290  144.9320 C   0  0  1  0  0  3  0  0  0  0  0  0
  161.2820  208.9230  152.9060 N   0  0  2  0  0  0  0  0  0  0  0  0
  161.7470  206.5500  145.6070 C   0  0  0  0  0  2  0  0  0  0  0  0
  161.2210  202.9820  150.8300 C   0  0  0  0  0  2  0  0  0  0  0  0
  161.0660  204.4820  150.7060 C   0  0  0  0  0  0  0  0  0  0  0  0
  161.5450  204.3100  148.3530 N   0  0  0  0  0  0  0  0  0  0  0  0
  161.4370  208.8370  150.4720 C   0  0  0  0  0  2  0  0  0  0  0  0
  161.4350  208.3540  147.8010 O   0  0  0  0  0  0  0  0  0  0  0  0
  163.3730  204.6550  145.6060 C   0  0  0  0  0  2  0  0  0  0  0  0
  161.2490  206.5760  149.4150 C   0  0  0  0  0  0  0  0  0  0  0  0
  161.4700  204.8120  147.1590 C   0  0  0  0  0  0  0  0  0  0  0  0
  161.7380  210.4950  154.7760 C   0  0  2  0  0  3  0  0  0  0  0  0
  160.6940  209.6750  154.0110 C   0  0  1  0  0  3  0  0  0  0  0  0
  160.8370  211.1650  153.7590 C   0  0  1  0  0  3  0  0  0  0  0  0
  159.7800  211.8660  154.4460 N   0  0  0  0  0  0  0  0  0  0  0  0
  158.7810  212.4050  153.8360 C   0  0  0  0  0  0  0  0  0  0  0  0
  158.6340  212.3510  152.3460 C   0  0  0  0  0  1  0  0  0  0  0  0
  157.7370  213.1080  154.6310 C   0  0  0  0  0  1  0  0  0  0  0  0
  163.0200  210.3560  154.2370 O   0  0  0  0  0  0  0  0  0  0  0  0
  163.8660  210.9220  155.1900 C   0  0  0  0  0  1  0  0  0  0  0  0
  1 10  1  0  0  0  0
  2  9  1  0  0  0  0
  3  2  2  0  0  0  0
  4 22  1  0  0  0  0
  5 15  1  6  0  0  0
  5 23  1  0  0  0  0
  5  4  1  0  0  0  0
  8 21  1  1  0  0  0
  8 23  1  0  0  0  0
 10 11  1  0  0  0  0
 10  7  1  1  0  0  0
 11  9  1  1  0  0  0
 12 17  2  0  0  0  0
 13 21  1  1  0  0  0
 13 15  1  0  0  0  0
 13  8  1  0  0  0  0
 14  6  1  6  0  0  0
 14  7  1  0  0  0  0
 16  3  1  0  0  0  0
 17 16  1  0  0  0  0
 17 11  1  0  0  0  0
 18 12  1  0  0  0  0
 19  1  1  0  0  0  0
 19  6  1  0  0  0  0
 20  4  2  0  0  0  0
 22 12  1  0  0  0  0
 22  1  2  0  0  0  0
 23 18  2  0  0  0  0
 24 31  1  6  0  0  0
 25 14  1  6  0  0  0
 25 24  1  0  0  0  0
 26 25  1  0  0  0  0
 26 27  1  1  0  0  0
 26 24  1  0  0  0  0
 28 27  2  0  0  0  0
 28 30  1  0  0  0  0
 29 28  1  0  0  0  0
 31 32  1  0  0  0  0
M  END
>  <MODEL>
2

>  <REMARK>
 VINA RESULT:      -6.1      3.293      5.370
  Name = 
  3 active torsions:
  status: ('A' for Active; 'I' for Inactive)
    1  A    between atoms: C_1  and  O_16
    2  A    between atoms: C_10  and  N_17
    3  A    between atoms: C_20  and  N_29
                            x       y       z     vdW  Elec       q    Type
                         _______ _______ _______ _____ _____    ______ ____

>  <TORSDO>
F 3

$$$$
=
 OpenBabel11122412483D

 32 38  0  0  1  0  0  0  0  0999 V2000
  161.1600  206.5070  151.0540 C   0  0  0  0  0  0  0  0  0  0  0  0
  161.8850  210.8750  148.7330 C   0  0  0  0  0  3  0  0  0  0  0  0
  161.8330  211.5110  149.9100 C   0  0  0  0  0  3  0  0  0  0  0  0
  160.5860  206.5940  153.5050 C   0  0  0  0  0  0  0  0  0  0  0  0
  160.2410  207.5070  154.6480 C   0  0  1  0  0  3  0  0  0  0  0  0
  160.5140  204.5620  149.6240 C   0  0  0  0  0  2  0  0  0  0  0  0
  161.2070  206.5220  148.5480 C   0  0  0  0  0  2  0  0  0  0  0  0
  161.3950  209.2560  155.9700 C   0  0  1  0  0  3  0  0  0  0  0  0
  162.1820  209.4040  148.6910 C   0  0  0  0  0  2  0  0  0  0  0  0
  161.7340  207.1890  149.8210 C   0  0  1  0  0  3  0  0  0  0  0  0
  161.3870  208.6800  149.7840 C   0  0  1  0  0  3  0  0  0  0  0  0
  161.3500  208.6540  152.2570 C   0  0  0  0  0  0  0  0  0  0  0  0
  161.0410  208.0930  156.8930 C   0  0  1  0  0  3  0  0  0  0  0  0
  161.4180  205.0790  148.6020 N   0  0  2  0  0  0  0  0  0  0  0  0
  160.5580  206.9290  156.0160 C   0  0  0  0  0  2  0  0  0  0  0  0
  162.0830  210.7720  151.1990 C   0  0  0  0  0  2  0  0  0  0  0  0
  161.5950  209.3420  151.1320 C   0  0  0  0  0  0  0  0  0  0  0  0
  161.5070  209.2880  153.5370 N   0  0  0  0  0  0  0  0  0  0  0  0
  160.9850  205.0100  151.0030 C   0  0  0  0  0  2  0  0  0  0  0  0
  160.4270  205.3510  153.6360 O   0  0  0  0  0  0  0  0  0  0  0  0
  162.4910  208.4060  156.5800 C   0  0  0  0  0  2  0  0  0  0  0  0
  161.0160  207.2010  152.2110 C   0  0  0  0  0  0  0  0  0  0  0  0
  161.0380  208.7580  154.6250 C   0  0  0  0  0  0  0  0  0  0  0  0
  162.0930  204.5430  146.2710 C   0  0  2  0  0  3  0  0  0  0  0  0
  160.9770  204.5340  147.3210 C   0  0  1  0  0  3  0  0  0  0  0  0
  161.7450  203.2640  147.0050 C   0  0  1  0  0  3  0  0  0  0  0  0
  160.9430  202.4240  146.1490 N   0  0  0  0  0  0  0  0  0  0  0  0
  160.8090  201.1560  146.3340 C   0  0  0  0  0  0  0  0  0  0  0  0
  161.4820  200.4390  147.4630 C   0  0  0  0  0  1  0  0  0  0  0  0
  159.9580  200.3720  145.3970 C   0  0  0  0  0  1  0  0  0  0  0  0
  163.2910  205.0540  146.7750 O   0  0  0  0  0  0  0  0  0  0  0  0
  164.2870  204.3360  146.1150 C   0  0  0  0  0  1  0  0  0  0  0  0
  1 22  2  0  0  0  0
  2  3  2  0  0  0  0
  3 16  1  0  0  0  0
  4 20  2  0  0  0  0
  4  5  1  0  0  0  0
  5 15  1  1  0  0  0
  6 19  1  0  0  0  0
  8 21  1  6  0  0  0
  8 13  1  0  0  0  0
  9  2  1  0  0  0  0
 10  7  1  6  0  0  0
 10  1  1  0  0  0  0
 11  9  1  6  0  0  0
 11 10  1  0  0  0  0
 11 17  1  0  0  0  0
 12 18  1  0  0  0  0
 13 15  1  6  0  0  0
 14  7  1  6  0  0  0
 14  6  1  0  0  0  0
 17 16  1  0  0  0  0
 17 12  2  0  0  0  0
 18 23  2  0  0  0  0
 19  1  1  0  0  0  0
 21 13  1  0  0  0  0
 22 12  1  0  0  0  0
 22  4  1  0  0  0  0
 23  5  1  0  0  0  0
 23  8  1  0  0  0  0
 24 31  1  1  0  0  0
 24 26  1  0  0  0  0
 24 25  1  0  0  0  0
 25 14  1  1  0  0  0
 26 27  1  6  0  0  0
 26 25  1  0  0  0  0
 27 28  2  0  0  0  0
 28 29  1  0  0  0  0
 30 28  1  0  0  0  0
 32 31  1  0  0  0  0
M  END
>  <MODEL>
3

>  <REMARK>
 VINA RESULT:      -5.9      2.885      7.037
  Name = 
  3 active torsions:
  status: ('A' for Active; 'I' for Inactive)
    1  A    between atoms: C_1  and  O_16
    2  A    between atoms: C_10  and  N_17
    3  A    between atoms: C_20  and  N_29
                            x       y       z     vdW  Elec       q    Type
                         _______ _______ _______ _____ _____    ______ ____

>  <TORSDO>
F 3

$$$$
=
 OpenBabel11122412483D

 32 38  0  0  1  0  0  0  0  0999 V2000
  161.0710  206.5300  152.2340 C   0  0  0  0  0  0  0  0  0  0  0  0
  162.2290  209.4090  148.3140 C   0  0  0  0  0  3  0  0  0  0  0  0
  162.2720  208.3250  147.5290 C   0  0  0  0  0  3  0  0  0  0  0  0
  161.1940  204.0380  151.9000 C   0  0  0  0  0  0  0  0  0  0  0  0
  161.6060  202.9500  150.9460 C   0  0  1  0  0  3  0  0  0  0  0  0
  161.2970  207.5630  154.4990 C   0  0  0  0  0  2  0  0  0  0  0  0
  161.4810  208.9710  152.6370 C   0  0  0  0  0  2  0  0  0  0  0  0
  160.8640  202.1150  148.7350 C   0  0  1  0  0  3  0  0  0  0  0  0
  161.4840  209.3580  149.6160 C   0  0  0  0  0  2  0  0  0  0  0  0
  160.9800  207.9260  151.6360 C   0  0  1  0  0  3  0  0  0  0  0  0
  161.7930  208.0440  150.3430 C   0  0  1  0  0  3  0  0  0  0  0  0
  161.3760  205.6380  149.9530 C   0  0  0  0  0  0  0  0  0  0  0  0
  160.6520  201.0180  149.7750 C   0  0  1  0  0  3  0  0  0  0  0  0
  160.8080  208.8110  153.9220 N   0  0  2  0  0  0  0  0  0  0  0  0
  160.8800  201.6350  151.1610 C   0  0  0  0  0  2  0  0  0  0  0  0
  161.5700  207.0530  147.9270 C   0  0  0  0  0  2  0  0  0  0  0  0
  161.5720  206.8560  149.4270 C   0  0  0  0  0  0  0  0  0  0  0  0
  161.2060  204.5000  149.0910 N   0  0  0  0  0  0  0  0  0  0  0  0
  160.7590  206.3810  153.7010 C   0  0  0  0  0  2  0  0  0  0  0  0
  160.9150  203.7410  153.0930 O   0  0  0  0  0  0  0  0  0  0  0  0
  159.4620  201.6780  149.1060 C   0  0  0  0  0  2  0  0  0  0  0  0
  161.2230  205.4510  151.4250 C   0  0  0  0  0  0  0  0  0  0  0  0
  161.2760  203.2850  149.5400 C   0  0  0  0  0  0  0  0  0  0  0  0
  160.1770  210.3840  155.7400 C   0  0  2  0  0  3  0  0  0  0  0  0
  161.2710  209.8950  154.7840 C   0  0  1  0  0  3  0  0  0  0  0  0
  161.2590  209.4450  156.2340 C   0  0  1  0  0  3  0  0  0  0  0  0
  162.2430  210.1970  156.9730 N   0  0  0  0  0  0  0  0  0  0  0  0
  163.2450  210.7830  156.4140 C   0  0  0  0  0  0  0  0  0  0  0  0
  163.4760  210.7310  154.9350 C   0  0  0  0  0  1  0  0  0  0  0  0
  164.2100  211.5380  157.2600 C   0  0  0  0  0  1  0  0  0  0  0  0
  158.9830  209.6730  155.5870 O   0  0  0  0  0  0  0  0  0  0  0  0
  157.9810  210.6290  155.7500 C   0  0  0  0  0  1  0  0  0  0  0  0
  1 19  1  0  0  0  0
  2  9  1  0  0  0  0
  3 16  1  0  0  0  0
  3  2  2  0  0  0  0
  4 20  2  0  0  0  0
  5 15  1  1  0  0  0
  5  4  1  0  0  0  0
  8 21  1  1  0  0  0
  8 23  1  0  0  0  0
  8 13  1  0  0  0  0
 10  1  1  0  0  0  0
 10  7  1  1  0  0  0
 11  9  1  6  0  0  0
 11 10  1  0  0  0  0
 12 22  1  0  0  0  0
 13 21  1  1  0  0  0
 13 15  1  0  0  0  0
 14  7  1  6  0  0  0
 14  6  1  0  0  0  0
 16 17  1  0  0  0  0
 17 12  2  0  0  0  0
 17 11  1  0  0  0  0
 18 23  2  0  0  0  0
 18 12  1  0  0  0  0
 19  6  1  0  0  0  0
 22  4  1  0  0  0  0
 22  1  2  0  0  0  0
 23  5  1  0  0  0  0
 24 31  1  6  0  0  0
 24 26  1  0  0  0  0
 25 14  1  6  0  0  0
 25 24  1  0  0  0  0
 25 26  1  0  0  0  0
 26 27  1  1  0  0  0
 28 27  2  0  0  0  0
 28 30  1  0  0  0  0
 29 28  1  0  0  0  0
 31 32  1  0  0  0  0
M  END
>  <MODEL>
4

>  <REMARK>
 VINA RESULT:      -5.6      3.373      6.351
  Name = 
  3 active torsions:
  status: ('A' for Active; 'I' for Inactive)
    1  A    between atoms: C_1  and  O_16
    2  A    between atoms: C_10  and  N_17
    3  A    between atoms: C_20  and  N_29
                            x       y       z     vdW  Elec       q    Type
                         _______ _______ _______ _____ _____    ______ ____

>  <TORSDO>
F 3

$$$$
=
 OpenBabel11122412483D

 32 38  0  0  1  0  0  0  0  0999 V2000
  161.3110  206.4200  149.4900 C   0  0  0  0  0  0  0  0  0  0  0  0
  161.2420  205.8020  154.4500 C   0  0  0  0  0  3  0  0  0  0  0  0
  161.3750  207.1240  154.6180 C   0  0  0  0  0  3  0  0  0  0  0  0
  161.8730  208.7190  148.6300 C   0  0  0  0  0  0  0  0  0  0  0  0
  162.3370  210.0930  149.0270 C   0  0  1  0  0  3  0  0  0  0  0  0
  161.6800  204.3750  148.1020 C   0  0  0  0  0  2  0  0  0  0  0  0
  161.2850  204.0810  150.3910 C   0  0  0  0  0  2  0  0  0  0  0  0
  161.4380  211.9920  150.3400 C   0  0  1  0  0  3  0  0  0  0  0  0
  160.7360  205.2630  153.1440 C   0  0  0  0  0  2  0  0  0  0  0  0
  160.8510  205.5290  150.6340 C   0  0  1  0  0  3  0  0  0  0  0  0
  161.4100  205.9990  151.9800 C   0  0  1  0  0  3  0  0  0  0  0  0
  161.4240  208.3030  151.0820 C   0  0  0  0  0  0  0  0  0  0  0  0
  161.6140  212.4340  148.8900 C   0  0  1  0  0  3  0  0  0  0  0  0
  160.8680  203.6370  149.0650 N   0  0  2  0  0  0  0  0  0  0  0  0
  161.9300  211.1860  148.0550 C   0  0  0  0  0  2  0  0  0  0  0  0
  161.0120  208.0840  153.5160 C   0  0  0  0  0  2  0  0  0  0  0  0
  161.2890  207.5010  152.1480 C   0  0  0  0  0  0  0  0  0  0  0  0
  161.3510  209.7290  151.2400 N   0  0  0  0  0  0  0  0  0  0  0  0
  161.2690  205.8420  148.0980 C   0  0  0  0  0  2  0  0  0  0  0  0
  161.8490  208.4020  147.4110 O   0  0  0  0  0  0  0  0  0  0  0  0
  160.2270  212.3140  149.4900 C   0  0  0  0  0  2  0  0  0  0  0  0
  161.5450  207.7390  149.7060 C   0  0  0  0  0  0  0  0  0  0  0  0
  161.7300  210.5430  150.3030 C   0  0  0  0  0  0  0  0  0  0  0  0
  160.0640  201.2950  149.2710 C   0  0  2  0  0  3  0  0  0  0  0  0
  161.2360  202.2290  148.9500 C   0  0  1  0  0  3  0  0  0  0  0  0
  160.4440  201.5760  147.8310 C   0  0  1  0  0  3  0  0  0  0  0  0
  161.1930  200.4600  147.3080 N   0  0  0  0  0  0  0  0  0  0  0  0
  161.0370  200.0060  146.1130 C   0  0  0  0  0  0  0  0  0  0  0  0
  160.0510  200.6030  145.1560 C   0  0  0  0  0  1  0  0  0  0  0  0
  161.8580  198.8490  145.6620 C   0  0  0  0  0  1  0  0  0  0  0  0
  158.8970  201.9970  149.5860 O   0  0  0  0  0  0  0  0  0  0  0  0
  157.8630  201.2020  149.0930 C   0  0  0  0  0  1  0  0  0  0  0  0
  1 22  2  0  0  0  0
  1 10  1  0  0  0  0
  2  3  2  0  0  0  0
  4  5  1  0  0  0  0
  4 22  1  0  0  0  0
  5 15  1  6  0  0  0
  5 23  1  0  0  0  0
  8 21  1  6  0  0  0
  9  2  1  0  0  0  0
 10  7  1  6  0  0  0
 10 11  1  0  0  0  0
 11 17  1  0  0  0  0
 11  9  1  1  0  0  0
 12 18  1  0  0  0  0
 12 17  2  0  0  0  0
 13 15  1  6  0  0  0
 13 21  1  0  0  0  0
 13  8  1  0  0  0  0
 14  6  1  6  0  0  0
 14  7  1  0  0  0  0
 16  3  1  0  0  0  0
 17 16  1  0  0  0  0
 19  6  1  0  0  0  0
 19  1  1  0  0  0  0
 20  4  2  0  0  0  0
 22 12  1  0  0  0  0
 23  8  1  0  0  0  0
 23 18  2  0  0  0  0
 24 31  1  6  0  0  0
 25 14  1  6  0  0  0
 25 24  1  0  0  0  0
 26 27  1  1  0  0  0
 26 25  1  0  0  0  0
 26 24  1  0  0  0  0
 28 27  2  0  0  0  0
 29 28  1  0  0  0  0
 30 28  1  0  0  0  0
 32 31  1  0  0  0  0
M  END
>  <MODEL>
5

>  <REMARK>
 VINA RESULT:      -5.0      2.644      8.050
  Name = 
  3 active torsions:
  status: ('A' for Active; 'I' for Inactive)
    1  A    between atoms: C_1  and  O_16
    2  A    between atoms: C_10  and  N_17
    3  A    between atoms: C_20  and  N_29
                            x       y       z     vdW  Elec       q    Type
                         _______ _______ _______ _____ _____    ______ ____

>  <TORSDO>
F 3

$$$$
=
 OpenBabel11122412483D

 32 38  0  0  1  0  0  0  0  0999 V2000
  161.0300  206.4640  151.9800 C   0  0  0  0  0  0  0  0  0  0  0  0
  162.4880  208.8600  147.8420 C   0  0  0  0  0  3  0  0  0  0  0  0
  162.5260  207.6960  147.1800 C   0  0  0  0  0  3  0  0  0  0  0  0
  161.0690  203.9470  151.9200 C   0  0  0  0  0  0  0  0  0  0  0  0
  161.4820  202.7490  151.1100 C   0  0  1  0  0  3  0  0  0  0  0  0
  161.1880  207.7270  154.1310 C   0  0  0  0  0  2  0  0  0  0  0  0
  161.5170  208.9180  152.1420 C   0  0  0  0  0  2  0  0  0  0  0  0
  160.8140  201.7060  148.9650 C   0  0  1  0  0  3  0  0  0  0  0  0
  161.6800  208.9760  149.1020 C   0  0  0  0  0  2  0  0  0  0  0  0
  161.0230  207.7890  151.2330 C   0  0  1  0  0  3  0  0  0  0  0  0
  161.9010  207.7390  149.9790 C   0  0  1  0  0  3  0  0  0  0  0  0
  161.4070  205.3200  149.8260 C   0  0  0  0  0  0  0  0  0  0  0  0
  160.5080  200.7360  150.1030 C   0  0  1  0  0  3  0  0  0  0  0  0
  160.7770  208.9220  153.4000 N   0  0  2  0  0  0  0  0  0  0  0  0
  160.6940  201.4910  151.4260 C   0  0  0  0  0  2  0  0  0  0  0  0
  161.7550  206.5000  147.6740 C   0  0  0  0  0  2  0  0  0  0  0  0
  161.6770  206.4660  149.1840 C   0  0  0  0  0  0  0  0  0  0  0  0
  161.2340  204.1030  149.0820 N   0  0  0  0  0  0  0  0  0  0  0  0
  160.6420  206.4850  153.4370 C   0  0  0  0  0  2  0  0  0  0  0  0
  160.7210  203.7910  153.1220 O   0  0  0  0  0  0  0  0  0  0  0  0
  159.3790  201.3610  149.3070 C   0  0  0  0  0  2  0  0  0  0  0  0
  161.1770  205.2990  151.3000 C   0  0  0  0  0  0  0  0  0  0  0  0
  161.2330  202.9410  149.6610 C   0  0  0  0  0  0  0  0  0  0  0  0
  161.0280  211.3950  153.4140 C   0  0  2  0  0  3  0  0  0  0  0  0
  161.2410  210.0760  154.1650 C   0  0  1  0  0  3  0  0  0  0  0  0
  160.0690  210.9760  154.5100 C   0  0  1  0  0  3  0  0  0  0  0  0
  160.3700  211.7090  155.7150 N   0  0  0  0  0  0  0  0  0  0  0  0
  159.8490  212.8540  155.9900 C   0  0  0  0  0  0  0  0  0  0  0  0
  158.8780  213.5300  155.0710 C   0  0  0  0  0  1  0  0  0  0  0  0
  160.2210  213.5350  157.2610 C   0  0  0  0  0  1  0  0  0  0  0  0
  160.4200  211.2030  152.1700 O   0  0  0  0  0  0  0  0  0  0  0  0
  159.8210  212.4280  151.8790 C   0  0  0  0  0  1  0  0  0  0  0  0
  1 19  1  0  0  0  0
  2  9  1  0  0  0  0
  3 16  1  0  0  0  0
  3  2  2  0  0  0  0
  4 20  2  0  0  0  0
  5 15  1  1  0  0  0
  5  4  1  0  0  0  0
  8 21  1  1  0  0  0
  8 23  1  0  0  0  0
  8 13  1  0  0  0  0
 10  1  1  0  0  0  0
 10  7  1  1  0  0  0
 11  9  1  6  0  0  0
 11 10  1  0  0  0  0
 12 22  1  0  0  0  0
 13 21  1  6  0  0  0
 13 15  1  0  0  0  0
 14  7  1  6  0  0  0
 14  6  1  0  0  0  0
 16 17  1  0  0  0  0
 17 12  2  0  0  0  0
 17 11  1  0  0  0  0
 18 23  2  0  0  0  0
 18 12  1  0  0  0  0
 19  6  1  0  0  0  0
 22  4  1  0  0  0  0
 22  1  2  0  0  0  0
 23  5  1  0  0  0  0
 24 31  1  6  0  0  0
 24 25  1  0  0  0  0
 24 26  1  0  0  0  0
 25 14  1  6  0  0  0
 25 26  1  0  0  0  0
 26 27  1  1  0  0  0
 27 28  2  0  0  0  0
 28 30  1  0  0  0  0
 29 28  1  0  0  0  0
 32 31  1  0  0  0  0
M  END
>  <MODEL>
6

>  <REMARK>
 VINA RESULT:      -4.9      3.125      5.605
  Name = 
  3 active torsions:
  status: ('A' for Active; 'I' for Inactive)
    1  A    between atoms: C_1  and  O_16
    2  A    between atoms: C_10  and  N_17
    3  A    between atoms: C_20  and  N_29
                            x       y       z     vdW  Elec       q    Type
                         _______ _______ _______ _____ _____    ______ ____

>  <TORSDO>
F 3

$$$$
=
 OpenBabel11122412483D

 32 38  0  0  1  0  0  0  0  0999 V2000
  161.2440  207.1470  150.4850 C   0  0  0  0  0  0  0  0  0  0  0  0
  160.2460  202.9750  153.0530 C   0  0  0  0  0  3  0  0  0  0  0  0
  160.3900  202.2510  151.9350 C   0  0  0  0  0  3  0  0  0  0  0  0
  161.3930  206.9420  147.9800 C   0  0  0  0  0  0  0  0  0  0  0  0
  161.1890  206.0130  146.8150 C   0  0  1  0  0  3  0  0  0  0  0  0
  160.6820  209.3160  151.5920 C   0  0  0  0  0  2  0  0  0  0  0  0
  160.5660  207.3700  152.8890 C   0  0  0  0  0  2  0  0  0  0  0  0
  162.2380  203.9390  145.9570 C   0  0  1  0  0  3  0  0  0  0  0  0
  160.8490  204.3480  153.1360 C   0  0  0  0  0  2  0  0  0  0  0  0
  161.2670  206.4850  151.8550 C   0  0  1  0  0  3  0  0  0  0  0  0
  160.5900  205.1110  151.8320 C   0  0  1  0  0  3  0  0  0  0  0  0
  161.2710  204.9000  149.4640 C   0  0  0  0  0  0  0  0  0  0  0  0
  162.4410  205.0540  144.9350 C   0  0  1  0  0  3  0  0  0  0  0  0
  161.1100  208.7240  152.8550 N   0  0  2  0  0  0  0  0  0  0  0  0
  162.0090  206.3740  145.5890 C   0  0  0  0  0  2  0  0  0  0  0  0
  161.1620  202.7900  150.7590 C   0  0  0  0  0  2  0  0  0  0  0  0
  161.0180  204.2900  150.6310 C   0  0  0  0  0  0  0  0  0  0  0  0
  161.6370  204.1250  148.3110 N   0  0  0  0  0  0  0  0  0  0  0  0
  161.4110  208.6450  150.4350 C   0  0  0  0  0  2  0  0  0  0  0  0
  161.5690  208.1710  147.7670 O   0  0  0  0  0  0  0  0  0  0  0  0
  163.6280  204.4750  145.6800 C   0  0  0  0  0  2  0  0  0  0  0  0
  161.2820  206.3880  149.3610 C   0  0  0  0  0  0  0  0  0  0  0  0
  161.6350  204.6320  147.1160 C   0  0  0  0  0  0  0  0  0  0  0  0
  160.9400  209.0390  155.3150 C   0  0  2  0  0  3  0  0  0  0  0  0
  160.4580  209.4730  153.9260 C   0  0  1  0  0  3  0  0  0  0  0  0
  161.4830  210.3020  154.6780 C   0  0  1  0  0  3  0  0  0  0  0  0
  160.8310  211.4500  155.2600 N   0  0  0  0  0  0  0  0  0  0  0  0
  161.1450  211.9260  156.4150 C   0  0  0  0  0  0  0  0  0  0  0  0
  162.2220  211.3210  157.2610 C   0  0  0  0  0  1  0  0  0  0  0  0
  160.4150  213.1160  156.9320 C   0  0  0  0  0  1  0  0  0  0  0  0
  161.9090  208.0350  155.2490 O   0  0  0  0  0  0  0  0  0  0  0  0
  161.8540  207.4100  156.4950 C   0  0  0  0  0  1  0  0  0  0  0  0
  1 10  1  0  0  0  0
  2  9  1  0  0  0  0
  3  2  2  0  0  0  0
  4 22  1  0  0  0  0
  5 15  1  6  0  0  0
  5 23  1  0  0  0  0
  5  4  1  0  0  0  0
  8 21  1  1  0  0  0
  8 23  1  0  0  0  0
 10  7  1  1  0  0  0
 11 10  1  0  0  0  0
 11  9  1  1  0  0  0
 12 17  2  0  0  0  0
 13 15  1  1  0  0  0
 13 21  1  0  0  0  0
 13  8  1  0  0  0  0
 14  6  1  6  0  0  0
 14  7  1  0  0  0  0
 16  3  1  0  0  0  0
 17 16  1  0  0  0  0
 17 11  1  0  0  0  0
 18 12  1  0  0  0  0
 19  1  1  0  0  0  0
 19  6  1  0  0  0  0
 20  4  2  0  0  0  0
 22 12  1  0  0  0  0
 22  1  2  0  0  0  0
 23 18  2  0  0  0  0
 24 31  1  6  0  0  0
 25 14  1  6  0  0  0
 25 26  1  0  0  0  0
 25 24  1  0  0  0  0
 26 27  1  1  0  0  0
 26 24  1  0  0  0  0
 27 28  2  0  0  0  0
 28 30  1  0  0  0  0
 28 29  1  0  0  0  0
 31 32  1  0  0  0  0
M  END
>  <MODEL>
7

>  <REMARK>
 VINA RESULT:      -4.8      3.383      6.252
  Name = 
  3 active torsions:
  status: ('A' for Active; 'I' for Inactive)
    1  A    between atoms: C_1  and  O_16
    2  A    between atoms: C_10  and  N_17
    3  A    between atoms: C_20  and  N_29
                            x       y       z     vdW  Elec       q    Type
                         _______ _______ _______ _____ _____    ______ ____

>  <TORSDO>
F 3

$$$$
=
 OpenBabel11122412483D

 32 38  0  0  1  0  0  0  0  0999 V2000
  160.4420  209.5900  152.5950 C   0  0  0  0  0  0  0  0  0  0  0  0
  161.1150  206.4250  156.4060 C   0  0  0  0  0  3  0  0  0  0  0  0
  160.6790  207.3600  157.2610 C   0  0  0  0  0  3  0  0  0  0  0  0
  159.8700  211.9740  153.1740 C   0  0  0  0  0  0  0  0  0  0  0  0
  159.7300  212.9590  154.3010 C   0  0  1  0  0  3  0  0  0  0  0  0
  161.5260  208.9920  150.4250 C   0  0  0  0  0  2  0  0  0  0  0  0
  161.5150  207.3760  152.1190 C   0  0  0  0  0  2  0  0  0  0  0  0
  158.2270  213.2720  156.2450 C   0  0  1  0  0  3  0  0  0  0  0  0
  160.7710  206.5290  154.9480 C   0  0  0  0  0  2  0  0  0  0  0  0
  160.5230  208.1290  153.0090 C   0  0  1  0  0  3  0  0  0  0  0  0
  160.9480  207.9750  154.4720 C   0  0  1  0  0  3  0  0  0  0  0  0
  159.8790  210.1580  154.9310 C   0  0  0  0  0  0  0  0  0  0  0  0
  158.0570  214.4530  155.2940 C   0  0  1  0  0  3  0  0  0  0  0  0
  161.2080  207.5960  150.7090 N   0  0  2  0  0  0  0  0  0  0  0  0
  158.8010  214.1190  153.9940 C   0  0  0  0  0  2  0  0  0  0  0  0
  159.8340  208.5110  156.7820 C   0  0  0  0  0  2  0  0  0  0  0  0
  160.2060  208.9370  155.3800 C   0  0  0  0  0  0  0  0  0  0  0  0
  159.2120  211.0890  155.7980 N   0  0  0  0  0  0  0  0  0  0  0  0
  160.5230  209.9020  151.1220 C   0  0  0  0  0  2  0  0  0  0  0  0
  159.8720  212.3910  151.9840 O   0  0  0  0  0  0  0  0  0  0  0  0
  156.9210  213.4710  155.5040 C   0  0  0  0  0  2  0  0  0  0  0  0
  160.1020  210.5380  153.5050 C   0  0  0  0  0  0  0  0  0  0  0  0
  159.1120  212.3490  155.5030 C   0  0  0  0  0  0  0  0  0  0  0  0
  161.7100  205.3040  149.8900 C   0  0  2  0  0  3  0  0  0  0  0  0
  162.1360  206.7760  149.9360 C   0  0  1  0  0  3  0  0  0  0  0  0
  161.4360  206.2150  148.7110 C   0  0  1  0  0  3  0  0  0  0  0  0
  162.4120  205.9680  147.6790 N   0  0  0  0  0  0  0  0  0  0  0  0
  162.4250  204.8940  146.9670 C   0  0  0  0  0  0  0  0  0  0  0  0
  161.4190  203.8000  147.1540 C   0  0  0  0  0  1  0  0  0  0  0  0
  163.4730  204.7280  145.9220 C   0  0  0  0  0  1  0  0  0  0  0  0
  160.5190  205.0750  150.5840 O   0  0  0  0  0  0  0  0  0  0  0  0
  160.5980  203.7430  150.9900 C   0  0  0  0  0  1  0  0  0  0  0  0
  1 10  1  0  0  0  0
  1 22  2  0  0  0  0
  2  3  2  0  0  0  0
  4 22  1  0  0  0  0
  4  5  1  0  0  0  0
  5 15  1  6  0  0  0
  5 23  1  0  0  0  0
  6 19  1  0  0  0  0
  8 21  1  6  0  0  0
  9  2  1  0  0  0  0
 10  7  1  6  0  0  0
 10 11  1  0  0  0  0
 11  9  1  1  0  0  0
 11 17  1  0  0  0  0
 12 17  2  0  0  0  0
 12 18  1  0  0  0  0
 13 15  1  6  0  0  0
 13 21  1  0  0  0  0
 13  8  1  0  0  0  0
 14  6  1  6  0  0  0
 14  7  1  0  0  0  0
 16  3  1  0  0  0  0
 17 16  1  0  0  0  0
 19  1  1  0  0  0  0
 20  4  2  0  0  0  0
 22 12  1  0  0  0  0
 23 18  2  0  0  0  0
 23  8  1  0  0  0  0
 24 25  1  0  0  0  0
 24 31  1  1  0  0  0
 25 14  1  1  0  0  0
 26 27  1  6  0  0  0
 26 24  1  0  0  0  0
 26 25  1  0  0  0  0
 28 29  1  0  0  0  0
 28 27  2  0  0  0  0
 30 28  1  0  0  0  0
 31 32  1  0  0  0  0
M  END
>  <MODEL>
8

>  <REMARK>
 VINA RESULT:      -4.7      3.288      7.391
  Name = 
  3 active torsions:
  status: ('A' for Active; 'I' for Inactive)
    1  A    between atoms: C_1  and  O_16
    2  A    between atoms: C_10  and  N_17
    3  A    between atoms: C_20  and  N_29
                            x       y       z     vdW  Elec       q    Type
                         _______ _______ _______ _____ _____    ______ ____

>  <TORSDO>
F 3

$$$$
