=
 OpenBabel11122413133D

 31 35  0  0  1  0  0  0  0  0999 V2000
  161.2380  205.3050  145.4000 C   0  0  0  0  0  0  0  0  0  0  0  0
  160.3930  204.7730  149.0730 C   0  0  2  0  0  3  0  0  0  0  0  0
  160.7730  203.3320  149.3920 C   0  0  0  0  0  0  0  0  0  0  0  0
  161.2800  201.0610  148.6810 C   0  0  0  0  0  0  0  0  0  0  0  0
  161.0630  205.2840  147.8210 C   0  0  0  0  0  0  0  0  0  0  0  0
  162.3480  206.1480  145.4840 C   0  0  0  0  0  3  0  0  0  0  0  0
  160.9590  202.3850  148.3720 C   0  0  0  0  0  3  0  0  0  0  0  0
  162.1570  205.9190  150.3620 N   0  0  0  0  0  0  0  0  0  0  0  0
  160.7740  204.8900  144.1600 O   0  0  0  0  0  1  0  0  0  0  0  0
  160.6420  203.8170  151.7760 O   0  0  0  0  0  0  0  0  0  0  0  0
  161.4800  200.1160  147.6370 N   0  0  0  0  0  1  0  0  0  0  0  0
  162.6060  206.7200  149.2190 C   0  0  0  0  0  2  0  0  0  0  0  0
  160.7000  205.7180  150.2570 C   0  0  2  0  0  3  0  0  0  0  0  0
  160.5960  204.8760  146.5650 C   0  0  0  0  0  3  0  0  0  0  0  0
  161.4060  200.6640  150.0140 C   0  0  0  0  0  3  0  0  0  0  0  0
  162.1800  206.1370  147.9020 C   0  0  0  0  0  0  0  0  0  0  0  0
  162.8100  206.5720  146.7330 C   0  0  0  0  0  3  0  0  0  0  0  0
  160.0990  205.1120  151.5330 C   0  0  0  0  0  2  0  0  0  0  0  0
  160.8660  202.9130  150.7360 C   0  0  0  0  0  0  0  0  0  0  0  0
  161.1980  201.5890  151.0400 C   0  0  0  0  0  3  0  0  0  0  0  0
  162.4620  206.7240  151.5410 C   0  0  0  0  0  2  0  0  0  0  0  0
  161.3050  208.4610  150.4100 O   0  0  0  0  0  0  0  0  0  0  0  0
  161.6340  207.9690  151.5240 C   0  0  0  0  0  0  0  0  0  0  0  0
  160.5380  210.0520  155.0790 N   0  0  0  0  0  0  0  0  0  0  0  0
  160.9920  210.0850  152.6840 C   0  0  0  0  0  2  0  0  0  0  0  0
  161.0020  206.7060  154.0310 O   0  0  0  0  0  0  0  0  0  0  0  0
  160.7560  210.7950  156.3080 C   0  0  0  0  0  1  0  0  0  0  0  0
  161.2690  210.7530  154.0290 C   0  0  0  0  0  2  0  0  0  0  0  0
  161.1300  207.9580  153.9930 C   0  0  0  0  0  0  0  0  0  0  0  0
  161.2960  208.6540  152.7420 N   0  0  0  0  0  0  0  0  0  0  0  0
  161.1460  208.7370  155.2720 C   0  0  0  0  0  2  0  0  0  0  0  0
  1  6  2  0  0  0  0
  1 14  1  0  0  0  0
  2  5  1  6  0  0  0
  2  3  1  0  0  0  0
  2 13  1  0  0  0  0
  3 19  1  0  0  0  0
  4 15  2  0  0  0  0
  5 16  1  0  0  0  0
  6 17  1  0  0  0  0
  7  4  1  0  0  0  0
  7  3  2  0  0  0  0
  8 21  1  0  0  0  0
  9  1  1  0  0  0  0
 11  4  1  0  0  0  0
 12  8  1  0  0  0  0
 13  8  1  0  0  0  0
 13 18  1  1  0  0  0
 14  5  2  0  0  0  0
 15 20  1  0  0  0  0
 16 12  1  0  0  0  0
 17 16  2  0  0  0  0
 18 10  1  0  0  0  0
 19 20  2  0  0  0  0
 19 10  1  0  0  0  0
 22 23  2  0  0  0  0
 23 21  1  0  0  0  0
 23 30  1  0  0  0  0
 24 31  1  0  0  0  0
 24 27  1  0  0  0  0
 25 30  1  0  0  0  0
 25 28  1  0  0  0  0
 28 24  1  0  0  0  0
 29 26  2  0  0  0  0
 29 31  1  0  0  0  0
 30 29  1  0  0  0  0
M  END
>  <MODEL>
1

>  <REMARK>
 VINA RESULT:      -7.1      0.000      0.000
  Name = 
  2 active torsions:
  status: ('A' for Active; 'I' for Inactive)
    1  A    between atoms: C_5  and  C_16
    2  A    between atoms: N_10  and  C_16
                            x       y       z     vdW  Elec       q    Type
                         _______ _______ _______ _____ _____    ______ ____

>  <TORSDO>
F 2

$$$$
=
 OpenBabel11122413133D

 31 35  0  0  1  0  0  0  0  0999 V2000
  161.1080  204.6470  144.8660 C   0  0  0  0  0  0  0  0  0  0  0  0
  160.3300  205.0780  148.5670 C   0  0  2  0  0  3  0  0  0  0  0  0
  160.7140  203.7650  149.2380 C   0  0  0  0  0  0  0  0  0  0  0  0
  161.2060  201.3850  149.1230 C   0  0  0  0  0  0  0  0  0  0  0  0
  160.9770  205.2480  147.2140 C   0  0  0  0  0  0  0  0  0  0  0  0
  162.2200  205.4780  144.7110 C   0  0  0  0  0  3  0  0  0  0  0  0
  160.8810  202.5880  148.4910 C   0  0  0  0  0  3  0  0  0  0  0  0
  162.1180  206.5070  149.4880 N   0  0  0  0  0  0  0  0  0  0  0  0
  160.6210  203.9310  143.7810 O   0  0  0  0  0  1  0  0  0  0  0  0
  160.6270  204.8450  151.4190 O   0  0  0  0  0  0  0  0  0  0  0  0
  161.3860  200.2030  148.3520 N   0  0  0  0  0  1  0  0  0  0  0  0
  162.5460  206.9850  148.1700 C   0  0  0  0  0  2  0  0  0  0  0  0
  160.6590  206.2930  149.4640 C   0  0  2  0  0  3  0  0  0  0  0  0
  160.4870  204.5340  146.1130 C   0  0  0  0  0  3  0  0  0  0  0  0
  161.3570  201.3420  150.5110 C   0  0  0  0  0  3  0  0  0  0  0  0
  162.0970  206.0870  147.0540 C   0  0  0  0  0  0  0  0  0  0  0  0
  162.7050  206.2050  145.8020 C   0  0  0  0  0  3  0  0  0  0  0  0
  160.0810  206.0380  150.8620 C   0  0  0  0  0  2  0  0  0  0  0  0
  160.8310  203.7030  150.6430 C   0  0  0  0  0  0  0  0  0  0  0  0
  161.1680  202.5000  151.2690 C   0  0  0  0  0  3  0  0  0  0  0  0
  162.4460  207.5850  150.4160 C   0  0  0  0  0  2  0  0  0  0  0  0
  163.2110  205.9460  151.9520 O   0  0  0  0  0  0  0  0  0  0  0  0
  162.5850  207.0290  151.7970 C   0  0  0  0  0  0  0  0  0  0  0  0
  160.7490  208.8310  155.1980 N   0  0  0  0  0  0  0  0  0  0  0  0
  161.6270  206.8410  154.0960 C   0  0  0  0  0  2  0  0  0  0  0  0
  162.2760  209.8640  152.1790 O   0  0  0  0  0  0  0  0  0  0  0  0
  159.6530  209.3070  156.0230 C   0  0  0  0  0  1  0  0  0  0  0  0
  160.4560  207.4380  154.8730 C   0  0  0  0  0  2  0  0  0  0  0  0
  161.6980  209.0740  152.9710 C   0  0  0  0  0  0  0  0  0  0  0  0
  161.9390  207.6540  152.9180 N   0  0  0  0  0  0  0  0  0  0  0  0
  160.7140  209.6140  153.9640 C   0  0  0  0  0  2  0  0  0  0  0  0
  1 14  1  0  0  0  0
  2  5  1  6  0  0  0
  2  3  1  0  0  0  0
  2 13  1  0  0  0  0
  3 19  1  0  0  0  0
  4 15  2  0  0  0  0
  6  1  2  0  0  0  0
  6 17  1  0  0  0  0
  7  4  1  0  0  0  0
  7  3  2  0  0  0  0
  8 21  1  0  0  0  0
  9  1  1  0  0  0  0
 11  4  1  0  0  0  0
 12  8  1  0  0  0  0
 13  8  1  0  0  0  0
 13 18  1  1  0  0  0
 14  5  2  0  0  0  0
 15 20  1  0  0  0  0
 16  5  1  0  0  0  0
 16 12  1  0  0  0  0
 17 16  2  0  0  0  0
 18 10  1  0  0  0  0
 19 20  2  0  0  0  0
 19 10  1  0  0  0  0
 21 23  1  0  0  0  0
 23 22  2  0  0  0  0
 23 30  1  0  0  0  0
 24 27  1  0  0  0  0
 25 28  1  0  0  0  0
 26 29  2  0  0  0  0
 28 24  1  0  0  0  0
 29 31  1  0  0  0  0
 30 29  1  0  0  0  0
 30 25  1  0  0  0  0
 31 24  1  0  0  0  0
M  END
>  <MODEL>
2

>  <REMARK>
 VINA RESULT:      -6.6      1.197      1.637
  Name = 
  2 active torsions:
  status: ('A' for Active; 'I' for Inactive)
    1  A    between atoms: C_5  and  C_16
    2  A    between atoms: N_10  and  C_16
                            x       y       z     vdW  Elec       q    Type
                         _______ _______ _______ _____ _____    ______ ____

>  <TORSDO>
F 2

$$$$
=
 OpenBabel11122413133D

 31 35  0  0  1  0  0  0  0  0999 V2000
  161.2080  203.2520  145.5090 C   0  0  0  0  0  0  0  0  0  0  0  0
  160.3320  205.1790  148.6730 C   0  0  2  0  0  3  0  0  0  0  0  0
  160.6970  204.2690  149.8390 C   0  0  0  0  0  0  0  0  0  0  0  0
  161.1920  202.0640  150.7400 C   0  0  0  0  0  0  0  0  0  0  0  0
  161.0140  204.7760  147.3890 C   0  0  0  0  0  0  0  0  0  0  0  0
  162.3240  203.9550  145.0490 C   0  0  0  0  0  3  0  0  0  0  0  0
  160.8840  202.8900  149.6570 C   0  0  0  0  0  3  0  0  0  0  0  0
  162.0940  206.8810  148.9570 N   0  0  0  0  0  0  0  0  0  0  0  0
  160.7500  202.1440  144.8110 O   0  0  0  0  0  1  0  0  0  0  0  0
  160.5520  206.1590  151.3690 O   0  0  0  0  0  0  0  0  0  0  0  0
  161.3920  200.6710  150.5370 N   0  0  0  0  0  1  0  0  0  0  0  0
  162.5580  206.7710  147.5710 C   0  0  0  0  0  2  0  0  0  0  0  0
  160.6370  206.6610  148.9890 C   0  0  2  0  0  3  0  0  0  0  0  0
  160.5540  203.6630  146.6740 C   0  0  0  0  0  3  0  0  0  0  0  0
  161.3050  202.6050  152.0220 C   0  0  0  0  0  3  0  0  0  0  0  0
  162.1380  205.4850  146.9210 C   0  0  0  0  0  0  0  0  0  0  0  0
  162.7800  205.0760  145.7480 C   0  0  0  0  0  3  0  0  0  0  0  0
  160.0210  207.0050  150.3520 C   0  0  0  0  0  2  0  0  0  0  0  0
  160.7770  204.8000  151.1440 C   0  0  0  0  0  0  0  0  0  0  0  0
  161.0960  203.9720  152.2240 C   0  0  0  0  0  3  0  0  0  0  0  0
  162.3970  208.2510  149.3590 C   0  0  0  0  0  2  0  0  0  0  0  0
  163.2040  207.3990  151.4210 O   0  0  0  0  0  0  0  0  0  0  0  0
  162.5550  208.3120  150.8440 C   0  0  0  0  0  0  0  0  0  0  0  0
  160.7010  211.3190  153.2330 N   0  0  0  0  0  0  0  0  0  0  0  0
  161.6130  209.0670  153.0310 C   0  0  0  0  0  2  0  0  0  0  0  0
  162.1900  211.0500  150.0360 O   0  0  0  0  0  0  0  0  0  0  0  0
  159.6000  212.0730  153.8060 C   0  0  0  0  0  1  0  0  0  0  0  0
  160.4350  209.9110  153.5110 C   0  0  0  0  0  2  0  0  0  0  0  0
  161.6320  210.6440  151.0900 C   0  0  0  0  0  0  0  0  0  0  0  0
  161.9030  209.3320  151.6200 N   0  0  0  0  0  0  0  0  0  0  0  0
  160.6440  211.5270  151.7870 C   0  0  0  0  0  2  0  0  0  0  0  0
  1 14  1  0  0  0  0
  2  5  1  6  0  0  0
  2 13  1  0  0  0  0
  2  3  1  0  0  0  0
  3 19  1  0  0  0  0
  4 15  2  0  0  0  0
  6  1  2  0  0  0  0
  6 17  1  0  0  0  0
  7  3  2  0  0  0  0
  7  4  1  0  0  0  0
  8 13  1  0  0  0  0
  8 21  1  0  0  0  0
  9  1  1  0  0  0  0
 11  4  1  0  0  0  0
 12  8  1  0  0  0  0
 13 18  1  1  0  0  0
 14  5  2  0  0  0  0
 15 20  1  0  0  0  0
 16  5  1  0  0  0  0
 16 12  1  0  0  0  0
 17 16  2  0  0  0  0
 18 10  1  0  0  0  0
 19 10  1  0  0  0  0
 19 20  2  0  0  0  0
 21 23  1  0  0  0  0
 23 22  2  0  0  0  0
 23 30  1  0  0  0  0
 24 28  1  0  0  0  0
 24 27  1  0  0  0  0
 25 28  1  0  0  0  0
 26 29  2  0  0  0  0
 29 30  1  0  0  0  0
 29 31  1  0  0  0  0
 30 25  1  0  0  0  0
 31 24  1  0  0  0  0
M  END
>  <MODEL>
3

>  <REMARK>
 VINA RESULT:      -6.5      1.714      2.440
  Name = 
  2 active torsions:
  status: ('A' for Active; 'I' for Inactive)
    1  A    between atoms: C_5  and  C_16
    2  A    between atoms: N_10  and  C_16
                            x       y       z     vdW  Elec       q    Type
                         _______ _______ _______ _____ _____    ______ ____

>  <TORSDO>
F 2

$$$$
=
 OpenBabel11122413133D

 31 35  0  0  1  0  0  0  0  0999 V2000
  161.0880  213.1550  147.9560 C   0  0  0  0  0  0  0  0  0  0  0  0
  161.7910  211.3360  151.2240 C   0  0  2  0  0  3  0  0  0  0  0  0
  160.5040  211.4100  152.0370 C   0  0  0  0  0  0  0  0  0  0  0  0
  158.3420  212.4230  152.5050 C   0  0  0  0  0  0  0  0  0  0  0  0
  161.5640  211.5970  149.7560 C   0  0  0  0  0  0  0  0  0  0  0  0
  161.0490  212.0960  147.0450 C   0  0  0  0  0  3  0  0  0  0  0  0
  159.5040  212.3480  151.7340 C   0  0  0  0  0  3  0  0  0  0  0  0
  161.7630  208.9270  150.6960 N   0  0  0  0  0  0  0  0  0  0  0  0
  160.8670  214.4530  147.5190 O   0  0  0  0  0  1  0  0  0  0  0  0
  161.3320  209.6650  153.5220 O   0  0  0  0  0  0  0  0  0  0  0  0
  157.3310  213.3680  152.1770 N   0  0  0  0  0  1  0  0  0  0  0  0
  161.9120  209.1430  149.2540 C   0  0  0  0  0  2  0  0  0  0  0  0
  162.5060  209.9790  151.4130 C   0  0  2  0  0  3  0  0  0  0  0  0
  161.3470  212.9060  149.3060 C   0  0  0  0  0  3  0  0  0  0  0  0
  158.1700  211.5680  153.5960 C   0  0  0  0  0  3  0  0  0  0  0  0
  161.5260  210.5320  148.8350 C   0  0  0  0  0  0  0  0  0  0  0  0
  161.2790  210.7890  147.4830 C   0  0  0  0  0  3  0  0  0  0  0  0
  162.6220  209.6930  152.9170 C   0  0  0  0  0  2  0  0  0  0  0  0
  160.3380  210.5770  153.1640 C   0  0  0  0  0  0  0  0  0  0  0  0
  159.1680  210.6480  153.9260 C   0  0  0  0  0  3  0  0  0  0  0  0
  162.3710  207.6250  150.9560 C   0  0  0  0  0  2  0  0  0  0  0  0
  160.7210  206.9310  152.5150 O   0  0  0  0  0  0  0  0  0  0  0  0
  161.3230  206.6730  151.4380 C   0  0  0  0  0  0  0  0  0  0  0  0
  160.4560  203.0050  149.4440 N   0  0  0  0  0  0  0  0  0  0  0  0
  160.4830  204.3220  151.4960 C   0  0  0  0  0  2  0  0  0  0  0  0
  161.3840  206.3080  148.5840 O   0  0  0  0  0  0  0  0  0  0  0  0
  160.7280  201.6790  148.9180 C   0  0  0  0  0  1  0  0  0  0  0  0
  160.8470  202.9860  150.8500 C   0  0  0  0  0  2  0  0  0  0  0  0
  161.2560  205.2980  149.3270 C   0  0  0  0  0  0  0  0  0  0  0  0
  161.0680  205.4370  150.7490 N   0  0  0  0  0  0  0  0  0  0  0  0
  161.3340  203.9280  148.7280 C   0  0  0  0  0  2  0  0  0  0  0  0
  1 14  1  0  0  0  0
  2  5  1  6  0  0  0
  2 13  1  0  0  0  0
  2  3  1  0  0  0  0
  3 19  1  0  0  0  0
  4 15  2  0  0  0  0
  6 17  1  0  0  0  0
  6  1  2  0  0  0  0
  7  3  2  0  0  0  0
  7  4  1  0  0  0  0
  8 21  1  0  0  0  0
  8 13  1  0  0  0  0
  9  1  1  0  0  0  0
 11  4  1  0  0  0  0
 12  8  1  0  0  0  0
 13 18  1  1  0  0  0
 14  5  2  0  0  0  0
 15 20  1  0  0  0  0
 16 12  1  0  0  0  0
 16  5  1  0  0  0  0
 17 16  2  0  0  0  0
 18 10  1  0  0  0  0
 19 10  1  0  0  0  0
 19 20  2  0  0  0  0
 21 23  1  0  0  0  0
 23 22  2  0  0  0  0
 24 28  1  0  0  0  0
 26 29  2  0  0  0  0
 27 24  1  0  0  0  0
 28 25  1  0  0  0  0
 29 30  1  0  0  0  0
 30 23  1  0  0  0  0
 30 25  1  0  0  0  0
 31 29  1  0  0  0  0
 31 24  1  0  0  0  0
M  END
>  <MODEL>
4

>  <REMARK>
 VINA RESULT:      -6.5      3.137      7.724
  Name = 
  2 active torsions:
  status: ('A' for Active; 'I' for Inactive)
    1  A    between atoms: C_5  and  C_16
    2  A    between atoms: N_10  and  C_16
                            x       y       z     vdW  Elec       q    Type
                         _______ _______ _______ _____ _____    ______ ____

>  <TORSDO>
F 2

$$$$
=
 OpenBabel11122413133D

 31 35  0  0  1  0  0  0  0  0999 V2000
  161.3120  201.0820  149.0870 C   0  0  0  0  0  0  0  0  0  0  0  0
  162.1140  204.6820  148.1470 C   0  0  2  0  0  3  0  0  0  0  0  0
  161.3350  204.9710  146.8700 C   0  0  0  0  0  0  0  0  0  0  0  0
  160.1420  204.2110  144.8910 C   0  0  0  0  0  0  0  0  0  0  0  0
  161.5760  203.4870  148.8950 C   0  0  0  0  0  0  0  0  0  0  0  0
  160.5090  201.2560  150.2170 C   0  0  0  0  0  3  0  0  0  0  0  0
  160.8310  203.9310  146.0730 C   0  0  0  0  0  3  0  0  0  0  0  0
  160.8320  206.1050  149.7000 N   0  0  0  0  0  0  0  0  0  0  0  0
  161.5760  199.8040  148.6150 O   0  0  0  0  0  1  0  0  0  0  0  0
  161.7070  207.3590  147.1750 O   0  0  0  0  0  0  0  0  0  0  0  0
  159.6240  203.1480  144.1010 N   0  0  0  0  0  1  0  0  0  0  0  0
  160.5940  205.0170  150.6530 C   0  0  0  0  0  2  0  0  0  0  0  0
  162.1550  205.9130  149.0800 C   0  0  2  0  0  3  0  0  0  0  0  0
  161.8450  202.1930  148.4300 C   0  0  0  0  0  3  0  0  0  0  0  0
  159.9600  205.5340  144.4840 C   0  0  0  0  0  3  0  0  0  0  0  0
  160.7690  203.6590  150.0360 C   0  0  0  0  0  0  0  0  0  0  0  0
  160.2490  202.5420  150.6970 C   0  0  0  0  0  3  0  0  0  0  0  0
  162.6020  207.1310  148.2610 C   0  0  0  0  0  2  0  0  0  0  0  0
  161.1790  206.3030  146.4310 C   0  0  0  0  0  0  0  0  0  0  0  0
  160.4790  206.5790  145.2530 C   0  0  0  0  0  3  0  0  0  0  0  0
  160.8310  207.3260  150.5000 C   0  0  0  0  0  2  0  0  0  0  0  0
  162.2880  206.0870  151.9050 O   0  0  0  0  0  0  0  0  0  0  0  0
  161.4940  207.0620  151.8140 C   0  0  0  0  0  0  0  0  0  0  0  0
  160.6320  209.3270  155.3230 N   0  0  0  0  0  0  0  0  0  0  0  0
  161.3810  207.2420  154.3020 C   0  0  0  0  0  2  0  0  0  0  0  0
  160.9180  209.8810  151.8410 O   0  0  0  0  0  0  0  0  0  0  0  0
  159.8110  209.8590  156.3950 C   0  0  0  0  0  1  0  0  0  0  0  0
  160.4550  207.8780  155.3380 C   0  0  0  0  0  2  0  0  0  0  0  0
  160.7530  209.2140  152.8960 C   0  0  0  0  0  0  0  0  0  0  0  0
  161.1680  207.8360  152.9800 N   0  0  0  0  0  0  0  0  0  0  0  0
  160.0810  209.8500  154.0740 C   0  0  0  0  0  2  0  0  0  0  0  0
  1  6  1  0  0  0  0
  2  3  1  6  0  0  0
  2  5  1  0  0  0  0
  2 13  1  0  0  0  0
  4  7  1  0  0  0  0
  5 16  2  0  0  0  0
  6 17  2  0  0  0  0
  7  3  2  0  0  0  0
  8 21  1  0  0  0  0
  8 12  1  0  0  0  0
  9  1  1  0  0  0  0
 10 18  1  0  0  0  0
 11  4  1  0  0  0  0
 13 18  1  6  0  0  0
 13  8  1  0  0  0  0
 14  5  1  0  0  0  0
 14  1  2  0  0  0  0
 15  4  2  0  0  0  0
 15 20  1  0  0  0  0
 16 12  1  0  0  0  0
 16 17  1  0  0  0  0
 19  3  1  0  0  0  0
 19 10  1  0  0  0  0
 20 19  2  0  0  0  0
 21 23  1  0  0  0  0
 23 22  2  0  0  0  0
 23 30  1  0  0  0  0
 24 28  1  0  0  0  0
 24 27  1  0  0  0  0
 25 28  1  0  0  0  0
 26 29  2  0  0  0  0
 29 30  1  0  0  0  0
 29 31  1  0  0  0  0
 30 25  1  0  0  0  0
 31 24  1  0  0  0  0
M  END
>  <MODEL>
5

>  <REMARK>
 VINA RESULT:      -6.4      1.864      4.187
  Name = 
  2 active torsions:
  status: ('A' for Active; 'I' for Inactive)
    1  A    between atoms: C_5  and  C_16
    2  A    between atoms: N_10  and  C_16
                            x       y       z     vdW  Elec       q    Type
                         _______ _______ _______ _____ _____    ______ ____

>  <TORSDO>
F 2

$$$$
=
 OpenBabel11122413133D

 31 35  0  0  1  0  0  0  0  0999 V2000
  160.7270  201.5580  148.7300 C   0  0  0  0  0  0  0  0  0  0  0  0
  162.3300  204.8130  149.8790 C   0  0  2  0  0  3  0  0  0  0  0  0
  161.8410  205.8900  148.9180 C   0  0  0  0  0  0  0  0  0  0  0  0
  160.8730  206.5560  146.7880 C   0  0  0  0  0  0  0  0  0  0  0  0
  161.4620  203.5790  149.8560 C   0  0  0  0  0  0  0  0  0  0  0  0
  159.7950  201.3270  149.7450 C   0  0  0  0  0  3  0  0  0  0  0  0
  161.2910  205.5570  147.6700 C   0  0  0  0  0  3  0  0  0  0  0  0
  161.0950  205.5190  151.8950 N   0  0  0  0  0  0  0  0  0  0  0  0
  160.8240  200.6750  147.6640 O   0  0  0  0  0  1  0  0  0  0  0  0
  162.5950  207.6190  150.4600 O   0  0  0  0  0  0  0  0  0  0  0  0
  160.3040  206.2030  145.5330 N   0  0  0  0  0  1  0  0  0  0  0  0
  160.5050  204.1960  152.1140 C   0  0  0  0  0  2  0  0  0  0  0  0
  162.4440  205.3490  151.3250 C   0  0  2  0  0  3  0  0  0  0  0  0
  161.5590  202.6790  148.7870 C   0  0  0  0  0  3  0  0  0  0  0  0
  161.0090  207.9010  147.1380 C   0  0  0  0  0  3  0  0  0  0  0  0
  160.5230  203.3420  150.8790 C   0  0  0  0  0  0  0  0  0  0  0  0
  159.7030  202.2120  150.8220 C   0  0  0  0  0  3  0  0  0  0  0  0
  163.2390  206.6620  151.2970 C   0  0  0  0  0  2  0  0  0  0  0  0
  162.0100  207.2520  149.2470 C   0  0  0  0  0  0  0  0  0  0  0  0
  161.5790  208.2470  148.3660 C   0  0  0  0  0  3  0  0  0  0  0  0
  161.1890  206.1250  153.2200 C   0  0  0  0  0  2  0  0  0  0  0  0
  160.3510  208.0140  152.0520 O   0  0  0  0  0  0  0  0  0  0  0  0
  160.8300  207.5730  153.1320 C   0  0  0  0  0  0  0  0  0  0  0  0
  161.5770  210.3240  156.3040 N   0  0  0  0  0  0  0  0  0  0  0  0
  161.2700  209.9020  153.9220 C   0  0  0  0  0  2  0  0  0  0  0  0
  160.6250  206.9380  155.9310 O   0  0  0  0  0  0  0  0  0  0  0  0
  162.3790  211.0790  157.2500 C   0  0  0  0  0  1  0  0  0  0  0  0
  162.1370  210.5800  154.9810 C   0  0  0  0  0  2  0  0  0  0  0  0
  161.1220  208.0440  155.5910 C   0  0  0  0  0  0  0  0  0  0  0  0
  161.1110  208.4760  154.2160 N   0  0  0  0  0  0  0  0  0  0  0  0
  161.7690  208.9110  156.6260 C   0  0  0  0  0  2  0  0  0  0  0  0
  1 14  2  0  0  0  0
  1  6  1  0  0  0  0
  2  3  1  6  0  0  0
  2 13  1  0  0  0  0
  3 19  1  0  0  0  0
  4 15  2  0  0  0  0
  4  7  1  0  0  0  0
  5  2  1  0  0  0  0
  5 16  2  0  0  0  0
  6 17  2  0  0  0  0
  7  3  2  0  0  0  0
  8 12  1  0  0  0  0
  8 21  1  0  0  0  0
  9  1  1  0  0  0  0
 10 18  1  0  0  0  0
 11  4  1  0  0  0  0
 13 18  1  6  0  0  0
 13  8  1  0  0  0  0
 14  5  1  0  0  0  0
 15 20  1  0  0  0  0
 16 12  1  0  0  0  0
 17 16  1  0  0  0  0
 19 10  1  0  0  0  0
 20 19  2  0  0  0  0
 22 23  2  0  0  0  0
 23 21  1  0  0  0  0
 23 30  1  0  0  0  0
 24 31  1  0  0  0  0
 24 27  1  0  0  0  0
 25 30  1  0  0  0  0
 25 28  1  0  0  0  0
 28 24  1  0  0  0  0
 29 26  2  0  0  0  0
 29 31  1  0  0  0  0
 30 29  1  0  0  0  0
M  END
>  <MODEL>
6

>  <REMARK>
 VINA RESULT:      -6.1      2.185      4.066
  Name = 
  2 active torsions:
  status: ('A' for Active; 'I' for Inactive)
    1  A    between atoms: C_5  and  C_16
    2  A    between atoms: N_10  and  C_16
                            x       y       z     vdW  Elec       q    Type
                         _______ _______ _______ _____ _____    ______ ____

>  <TORSDO>
F 2

$$$$
=
 OpenBabel11122413133D

 31 35  0  0  1  0  0  0  0  0999 V2000
  162.2690  211.9680  148.6360 C   0  0  0  0  0  0  0  0  0  0  0  0
  162.5230  208.9280  150.9130 C   0  0  2  0  0  3  0  0  0  0  0  0
  161.5980  209.2020  152.0930 C   0  0  0  0  0  0  0  0  0  0  0  0
  160.3320  210.7430  153.4860 C   0  0  0  0  0  0  0  0  0  0  0  0
  162.2100  209.7960  149.7180 C   0  0  0  0  0  0  0  0  0  0  0  0
  161.5590  211.4500  147.5500 C   0  0  0  0  0  3  0  0  0  0  0  0
  161.1570  210.5020  152.3850 C   0  0  0  0  0  3  0  0  0  0  0  0
  161.2210  207.1380  149.8240 N   0  0  0  0  0  0  0  0  0  0  0  0
  162.6470  213.3030  148.6440 O   0  0  0  0  0  1  0  0  0  0  0  0
  161.6950  206.8520  152.7240 O   0  0  0  0  0  0  0  0  0  0  0  0
  159.8810  212.0630  153.7610 N   0  0  0  0  0  1  0  0  0  0  0  0
  161.2120  207.8060  148.5200 C   0  0  0  0  0  2  0  0  0  0  0  0
  162.4950  207.4380  150.5020 C   0  0  2  0  0  3  0  0  0  0  0  0
  162.5950  211.1430  149.7160 C   0  0  0  0  0  3  0  0  0  0  0  0
  159.9480  209.6870  154.3160 C   0  0  0  0  0  3  0  0  0  0  0  0
  161.4970  209.2760  148.6210 C   0  0  0  0  0  0  0  0  0  0  0  0
  161.1850  210.1040  147.5380 C   0  0  0  0  0  3  0  0  0  0  0  0
  162.7080  206.5820  151.7580 C   0  0  0  0  0  2  0  0  0  0  0  0
  161.2360  208.1490  152.9590 C   0  0  0  0  0  0  0  0  0  0  0  0
  160.4020  208.3930  154.0530 C   0  0  0  0  0  3  0  0  0  0  0  0
  161.1420  205.7100  149.5280 C   0  0  0  0  0  2  0  0  0  0  0  0
  162.6560  206.2740  147.7890 O   0  0  0  0  0  0  0  0  0  0  0  0
  161.8270  205.4320  148.2290 C   0  0  0  0  0  0  0  0  0  0  0  0
  160.9190  202.0220  145.8340 N   0  0  0  0  0  0  0  0  0  0  0  0
  161.7310  204.3160  145.9960 C   0  0  0  0  0  2  0  0  0  0  0  0
  161.1500  202.8360  149.2680 O   0  0  0  0  0  0  0  0  0  0  0  0
  160.0890  201.1440  145.0280 C   0  0  0  0  0  1  0  0  0  0  0  0
  160.7940  203.3600  145.2620 C   0  0  0  0  0  2  0  0  0  0  0  0
  161.0200  203.0530  148.0350 C   0  0  0  0  0  0  0  0  0  0  0  0
  161.4840  204.2800  147.4400 N   0  0  0  0  0  0  0  0  0  0  0  0
  160.3370  202.0330  147.1750 C   0  0  0  0  0  2  0  0  0  0  0  0
  1  9  1  0  0  0  0
  1 14  1  0  0  0  0
  2  5  1  6  0  0  0
  2  3  1  0  0  0  0
  3  7  2  0  0  0  0
  3 19  1  0  0  0  0
  4 11  1  0  0  0  0
  4 15  2  0  0  0  0
  6  1  2  0  0  0  0
  7  4  1  0  0  0  0
  8 13  1  0  0  0  0
 10 19  1  0  0  0  0
 12 16  1  0  0  0  0
 12  8  1  0  0  0  0
 13  2  1  0  0  0  0
 13 18  1  1  0  0  0
 14  5  2  0  0  0  0
 16  5  1  0  0  0  0
 17  6  1  0  0  0  0
 17 16  2  0  0  0  0
 18 10  1  0  0  0  0
 19 20  2  0  0  0  0
 20 15  1  0  0  0  0
 21  8  1  0  0  0  0
 22 23  2  0  0  0  0
 23 21  1  0  0  0  0
 24 31  1  0  0  0  0
 25 30  1  0  0  0  0
 27 24  1  0  0  0  0
 28 24  1  0  0  0  0
 28 25  1  0  0  0  0
 29 26  2  0  0  0  0
 30 29  1  0  0  0  0
 30 23  1  0  0  0  0
 31 29  1  0  0  0  0
M  END
>  <MODEL>
7

>  <REMARK>
 VINA RESULT:      -5.6      2.593      7.697
  Name = 
  2 active torsions:
  status: ('A' for Active; 'I' for Inactive)
    1  A    between atoms: C_5  and  C_16
    2  A    between atoms: N_10  and  C_16
                            x       y       z     vdW  Elec       q    Type
                         _______ _______ _______ _____ _____    ______ ____

>  <TORSDO>
F 2

$$$$
=
 OpenBabel11122413133D

 31 35  0  0  1  0  0  0  0  0999 V2000
  162.1680  213.8000  146.9050 C   0  0  0  0  0  0  0  0  0  0  0  0
  159.9090  214.3960  149.9100 C   0  0  2  0  0  3  0  0  0  0  0  0
  158.4790  214.2740  149.3970 C   0  0  0  0  0  0  0  0  0  0  0  0
  156.8680  214.2800  147.5740 C   0  0  0  0  0  0  0  0  0  0  0  0
  160.9130  213.7570  148.9820 C   0  0  0  0  0  0  0  0  0  0  0  0
  162.7070  212.5450  147.2000 C   0  0  0  0  0  3  0  0  0  0  0  0
  158.1860  214.3670  148.0270 C   0  0  0  0  0  3  0  0  0  0  0  0
  159.9990  212.3360  151.2630 N   0  0  0  0  0  0  0  0  0  0  0  0
  162.5180  214.4450  145.7270 O   0  0  0  0  0  1  0  0  0  0  0  0
  157.6650  214.0940  151.6860 O   0  0  0  0  0  0  0  0  0  0  0  0
  156.5880  214.3610  146.1820 N   0  0  0  0  0  1  0  0  0  0  0  0
  161.2170  211.8470  150.6110 C   0  0  0  0  0  2  0  0  0  0  0  0
  160.0560  213.8080  151.3310 C   0  0  2  0  0  3  0  0  0  0  0  0
  161.2760  214.4050  147.7950 C   0  0  0  0  0  3  0  0  0  0  0  0
  155.8240  214.1130  148.4860 C   0  0  0  0  0  3  0  0  0  0  0  0
  161.4590  212.4930  149.2780 C   0  0  0  0  0  0  0  0  0  0  0  0
  162.3610  211.8990  148.3900 C   0  0  0  0  0  3  0  0  0  0  0  0
  158.9510  214.3970  152.2190 C   0  0  0  0  0  2  0  0  0  0  0  0
  157.4140  214.1430  150.3130 C   0  0  0  0  0  0  0  0  0  0  0  0
  156.0980  214.0460  149.8540 C   0  0  0  0  0  3  0  0  0  0  0  0
  160.0300  211.7760  152.6110 C   0  0  0  0  0  2  0  0  0  0  0  0
  160.8840  209.8940  151.4430 O   0  0  0  0  0  0  0  0  0  0  0  0
  160.6190  210.4020  152.5660 C   0  0  0  0  0  0  0  0  0  0  0  0
  161.2150  208.0400  156.0660 N   0  0  0  0  0  0  0  0  0  0  0  0
  160.8310  208.1670  153.6610 C   0  0  0  0  0  2  0  0  0  0  0  0
  161.3980  211.4470  155.1310 O   0  0  0  0  0  0  0  0  0  0  0  0
  160.8310  207.3100  157.2610 C   0  0  0  0  0  1  0  0  0  0  0  0
  160.3990  207.5180  154.9740 C   0  0  0  0  0  2  0  0  0  0  0  0
  161.0450  210.2400  155.0440 C   0  0  0  0  0  0  0  0  0  0  0  0
  160.7910  209.6280  153.7650 N   0  0  0  0  0  0  0  0  0  0  0  0
  160.8510  209.4370  156.2940 C   0  0  0  0  0  2  0  0  0  0  0  0
  1  6  2  0  0  0  0
  1 14  1  0  0  0  0
  2  5  1  6  0  0  0
  2 13  1  0  0  0  0
  3  2  1  0  0  0  0
  3 19  1  0  0  0  0
  4  7  1  0  0  0  0
  4 15  2  0  0  0  0
  5 16  1  0  0  0  0
  6 17  1  0  0  0  0
  7  3  2  0  0  0  0
  8 13  1  0  0  0  0
  8 21  1  0  0  0  0
  9  1  1  0  0  0  0
 10 18  1  0  0  0  0
 11  4  1  0  0  0  0
 12  8  1  0  0  0  0
 13 18  1  1  0  0  0
 14  5  2  0  0  0  0
 15 20  1  0  0  0  0
 16 12  1  0  0  0  0
 17 16  2  0  0  0  0
 19 10  1  0  0  0  0
 20 19  2  0  0  0  0
 22 23  2  0  0  0  0
 23 21  1  0  0  0  0
 23 30  1  0  0  0  0
 24 31  1  0  0  0  0
 24 27  1  0  0  0  0
 25 30  1  0  0  0  0
 25 28  1  0  0  0  0
 28 24  1  0  0  0  0
 29 26  2  0  0  0  0
 29 31  1  0  0  0  0
 30 29  1  0  0  0  0
M  END
>  <MODEL>
8

>  <REMARK>
 VINA RESULT:      -5.4      5.674      8.510
  Name = 
  2 active torsions:
  status: ('A' for Active; 'I' for Inactive)
    1  A    between atoms: C_5  and  C_16
    2  A    between atoms: N_10  and  C_16
                            x       y       z     vdW  Elec       q    Type
                         _______ _______ _______ _____ _____    ______ ____

>  <TORSDO>
F 2

$$$$
=
 OpenBabel11122413133D

 31 35  0  0  1  0  0  0  0  0999 V2000
  159.3810  213.8070  144.4370 C   0  0  0  0  0  0  0  0  0  0  0  0
  159.8680  214.4190  148.1620 C   0  0  2  0  0  3  0  0  0  0  0  0
  158.4840  214.3200  148.7940 C   0  0  0  0  0  0  0  0  0  0  0  0
  156.0590  214.3580  148.6120 C   0  0  0  0  0  0  0  0  0  0  0  0
  159.9310  213.7700  146.8010 C   0  0  0  0  0  0  0  0  0  0  0  0
  159.9550  212.5430  144.2810 C   0  0  0  0  0  3  0  0  0  0  0  0
  157.3200  214.4230  148.0160 C   0  0  0  0  0  3  0  0  0  0  0  0
  160.8490  212.3510  149.0810 N   0  0  0  0  0  0  0  0  0  0  0  0
  158.8170  214.4530  143.3460 O   0  0  0  0  0  1  0  0  0  0  0  0
  159.4960  214.1390  151.0020 O   0  0  0  0  0  0  0  0  0  0  0  0
  154.8880  214.4500  147.8100 N   0  0  0  0  0  1  0  0  0  0  0  0
  161.2590  211.8480  147.7670 C   0  0  0  0  0  2  0  0  0  0  0  0
  160.9570  213.8210  149.0810 C   0  0  2  0  0  3  0  0  0  0  0  0
  159.3710  214.4190  145.6930 C   0  0  0  0  0  3  0  0  0  0  0  0
  155.9450  214.2010  149.9950 C   0  0  0  0  0  3  0  0  0  0  0  0
  160.5110  212.4970  146.6390 C   0  0  0  0  0  0  0  0  0  0  0  0
  160.5290  211.8960  145.3780 C   0  0  0  0  0  3  0  0  0  0  0  0
  160.7940  214.4210  150.4850 C   0  0  0  0  0  2  0  0  0  0  0  0
  158.3600  214.1990  150.1940 C   0  0  0  0  0  0  0  0  0  0  0  0
  157.0950  214.1230  150.7850 C   0  0  0  0  0  3  0  0  0  0  0  0
  161.8040  211.7830  150.0280 C   0  0  0  0  0  2  0  0  0  0  0  0
  160.2680  211.5620  151.8230 O   0  0  0  0  0  0  0  0  0  0  0  0
  161.0720  210.9740  151.0500 C   0  0  0  0  0  0  0  0  0  0  0  0
  161.7680  206.8050  151.6140 N   0  0  0  0  0  0  0  0  0  0  0  0
  161.0580  208.9550  152.5200 C   0  0  0  0  0  2  0  0  0  0  0  0
  161.6670  209.1150  148.9370 O   0  0  0  0  0  0  0  0  0  0  0  0
  162.5370  205.6150  151.9310 C   0  0  0  0  0  1  0  0  0  0  0  0
  161.9330  207.7230  152.7380 C   0  0  0  0  0  2  0  0  0  0  0  0
  161.7720  208.7340  150.1330 C   0  0  0  0  0  0  0  0  0  0  0  0
  161.3430  209.5730  151.2230 N   0  0  0  0  0  0  0  0  0  0  0  0
  162.3860  207.4010  150.4310 C   0  0  0  0  0  2  0  0  0  0  0  0
  1 14  1  0  0  0  0
  2  5  1  6  0  0  0
  2  3  1  0  0  0  0
  2 13  1  0  0  0  0
  3 19  1  0  0  0  0
  4 15  2  0  0  0  0
  6  1  2  0  0  0  0
  6 17  1  0  0  0  0
  7  4  1  0  0  0  0
  7  3  2  0  0  0  0
  8 21  1  0  0  0  0
  9  1  1  0  0  0  0
 11  4  1  0  0  0  0
 12  8  1  0  0  0  0
 13  8  1  0  0  0  0
 13 18  1  1  0  0  0
 14  5  2  0  0  0  0
 15 20  1  0  0  0  0
 16  5  1  0  0  0  0
 16 12  1  0  0  0  0
 17 16  2  0  0  0  0
 18 10  1  0  0  0  0
 19 20  2  0  0  0  0
 19 10  1  0  0  0  0
 21 23  1  0  0  0  0
 23 30  1  0  0  0  0
 23 22  2  0  0  0  0
 24 27  1  0  0  0  0
 24 28  1  0  0  0  0
 25 28  1  0  0  0  0
 26 29  2  0  0  0  0
 29 31  1  0  0  0  0
 29 30  1  0  0  0  0
 30 25  1  0  0  0  0
 31 24  1  0  0  0  0
M  END
>  <MODEL>
9

>  <REMARK>
 VINA RESULT:      -4.9      5.667      8.752
  Name = 
  2 active torsions:
  status: ('A' for Active; 'I' for Inactive)
    1  A    between atoms: C_5  and  C_16
    2  A    between atoms: N_10  and  C_16
                            x       y       z     vdW  Elec       q    Type
                         _______ _______ _______ _____ _____    ______ ____

>  <TORSDO>
F 2

$$$$
