=
 OpenBabel11122412473D

 32 38  0  0  1  0  0  0  0  0999 V2000
  161.0300  209.4760  155.1350 N   0  0  2  0  0  0  0  0  0  0  0  0
  161.6440  206.3730  150.7740 C   0  0  0  0  0  0  0  0  0  0  0  0
  161.0780  201.6870  152.0110 C   0  0  0  0  0  3  0  0  0  0  0  0
  160.8310  201.3280  150.6840 C   0  0  0  0  0  3  0  0  0  0  0  0
  161.5090  207.1470  148.3400 C   0  0  2  0  0  3  0  0  0  0  0  0
  161.2280  206.6270  146.9710 C   0  0  0  0  0  0  0  0  0  0  0  0
  161.2020  208.1780  152.4630 C   0  0  1  0  0  3  0  0  0  0  0  0
  161.4040  205.7830  153.0790 O   0  0  0  0  0  0  0  0  0  0  0  0
  160.8350  205.2210  145.2680 C   0  0  0  0  0  0  0  0  0  0  0  0
  160.5610  207.1980  154.8290 C   0  0  0  0  0  2  0  0  0  0  0  0
  161.2890  203.0270  152.3440 C   0  0  0  0  0  3  0  0  0  0  0  0
  161.4580  205.4340  151.7210 C   0  0  0  0  0  0  0  0  0  0  0  0
  161.2670  204.0160  151.3510 C   0  0  0  0  0  0  0  0  0  0  0  0
  160.9210  204.7380  148.9640 C   0  0  2  0  0  3  0  0  0  0  0  0
  160.1810  206.3170  145.0750 N   0  0  0  0  0  0  0  0  0  0  0  0
  160.8770  210.2860  153.9390 C   0  0  0  0  0  2  0  0  0  0  0  0
  161.4780  207.1200  153.5820 C   0  0  2  0  0  3  0  0  0  0  0  0
  160.4030  207.1830  146.1480 N   0  0  0  0  0  0  0  0  0  0  0  0
  161.6780  209.6070  152.8170 C   0  0  0  0  0  2  0  0  0  0  0  0
  159.9060  208.5530  154.9220 C   0  0  1  0  0  3  0  0  0  0  0  0
  160.8000  202.3090  149.6910 C   0  0  0  0  0  3  0  0  0  0  0  0
  161.0380  203.6560  150.0090 C   0  0  0  0  0  0  0  0  0  0  0  0
  161.1800  204.2030  147.5340 C   0  0  0  0  0  2  0  0  0  0  0  0
  161.9550  207.7760  151.2040 C   0  0  0  0  0  2  0  0  0  0  0  0
  162.7060  208.0790  148.2610 C   0  0  0  0  0  1  0  0  0  0  0  0
  160.8310  204.0970  144.2940 C   0  0  0  0  0  1  0  0  0  0  0  0
  161.7930  205.9760  149.3110 C   0  0  2  0  0  3  0  0  0  0  0  0
  161.6340  205.2660  146.5250 C   0  0  2  0  0  3  0  0  0  0  0  0
  159.9460  209.3430  156.1400 C   0  0  2  0  0  3  0  0  0  0  0  0
  158.9800  210.4880  156.0890 C   0  0  0  0  0  0  0  0  0  0  0  0
  157.7870  210.3680  155.3860 O   0  0  0  0  0  0  0  0  0  0  0  0
  159.2290  211.5490  156.7180 O   0  0  0  0  0  1  0  0  0  0  0  0
  1 16  1  6  0  0  0
  1 29  1  0  0  0  0
  2 24  1  0  0  0  0
  2 12  2  0  0  0  0
  3 11  1  0  0  0  0
  4  3  2  0  0  0  0
  5 25  1  6  0  0  0
  5 27  1  0  0  0  0
  6  5  1  0  0  0  0
  7 24  1  6  0  0  0
  7 19  1  0  0  0  0
  7 17  1  0  0  0  0
  8 17  1  0  0  0  0
  9 28  1  0  0  0  0
 12  8  1  0  0  0  0
 13 12  1  0  0  0  0
 13 11  2  0  0  0  0
 14 23  1  6  0  0  0
 14 27  1  0  0  0  0
 14 22  1  0  0  0  0
 15  9  2  0  0  0  0
 15 18  1  0  0  0  0
 17 10  1  1  0  0  0
 18  6  2  0  0  0  0
 19 16  1  0  0  0  0
 20 10  1  1  0  0  0
 20  1  1  0  0  0  0
 20 29  1  0  0  0  0
 21 22  2  0  0  0  0
 21  4  1  0  0  0  0
 22 13  1  0  0  0  0
 26  9  1  0  0  0  0
 27  2  1  1  0  0  0
 28  6  1  0  0  0  0
 28 23  1  1  0  0  0
 29 30  1  6  0  0  0
 30 32  1  0  0  0  0
 31 30  2  0  0  0  0
M  END
>  <MODEL>
1

>  <REMARK>
 VINA RESULT:      -9.6      0.000      0.000
  Name = 
  1 active torsions:
  status: ('A' for Active; 'I' for Inactive)
    1  A    between atoms: C_29  and  C_30
                            x       y       z     vdW  Elec       q    Type
                         _______ _______ _______ _____ _____    ______ ____

>  <TORSDO>
F 1

$$$$
=
 OpenBabel11122412473D

 32 38  0  0  1  0  0  0  0  0999 V2000
  161.8110  211.5630  150.5920 N   0  0  2  0  0  0  0  0  0  0  0  0
  161.8270  206.4500  148.8970 C   0  0  0  0  0  0  0  0  0  0  0  0
  161.0870  203.4700  152.6900 C   0  0  0  0  0  3  0  0  0  0  0  0
  160.6970  202.4300  151.8450 C   0  0  0  0  0  3  0  0  0  0  0  0
  161.5160  205.6580  146.4850 C   0  0  2  0  0  3  0  0  0  0  0  0
  161.0770  204.4660  145.7020 C   0  0  0  0  0  0  0  0  0  0  0  0
  161.6550  208.9360  149.2030 C   0  0  1  0  0  3  0  0  0  0  0  0
  161.7640  207.3520  151.1110 O   0  0  0  0  0  0  0  0  0  0  0  0
  160.4430  202.3790  145.1790 C   0  0  0  0  0  0  0  0  0  0  0  0
  161.1760  209.6030  151.7130 C   0  0  0  0  0  2  0  0  0  0  0  0
  161.4110  204.7190  152.1560 C   0  0  0  0  0  3  0  0  0  0  0  0
  161.6710  206.2700  150.2230 C   0  0  0  0  0  0  0  0  0  0  0  0
  161.3590  204.9340  150.7720 C   0  0  0  0  0  0  0  0  0  0  0  0
  160.8390  204.1500  148.4360 C   0  0  2  0  0  3  0  0  0  0  0  0
  159.8430  203.2150  144.3990 N   0  0  0  0  0  0  0  0  0  0  0  0
  161.6000  211.5290  149.1550 C   0  0  0  0  0  2  0  0  0  0  0  0
  161.9670  208.7140  150.7210 C   0  0  2  0  0  3  0  0  0  0  0  0
  160.2170  204.5170  144.7420 N   0  0  0  0  0  0  0  0  0  0  0  0
  162.2500  210.2410  148.6250 C   0  0  0  0  0  2  0  0  0  0  0  0
  160.6180  210.8150  151.0090 C   0  0  1  0  0  3  0  0  0  0  0  0
  160.6350  202.6380  150.4660 C   0  0  0  0  0  3  0  0  0  0  0  0
  160.9850  203.8810  149.9140 C   0  0  0  0  0  0  0  0  0  0  0  0
  160.9310  202.8550  147.5930 C   0  0  0  0  0  2  0  0  0  0  0  0
  162.2630  207.7960  148.4000 C   0  0  0  0  0  2  0  0  0  0  0  0
  162.7560  206.2350  145.8240 C   0  0  0  0  0  1  0  0  0  0  0  0
  160.2790  200.9060  145.0620 C   0  0  0  0  0  1  0  0  0  0  0  0
  161.8150  205.2570  147.9500 C   0  0  2  0  0  3  0  0  0  0  0  0
  161.3560  203.0700  146.1340 C   0  0  2  0  0  3  0  0  0  0  0  0
  160.8190  212.1590  151.5200 C   0  0  2  0  0  3  0  0  0  0  0  0
  159.9250  213.1500  150.8370 C   0  0  0  0  0  0  0  0  0  0  0  0
  160.4290  214.3750  150.4170 O   0  0  0  0  0  0  0  0  0  0  0  0
  158.7230  212.8590  150.6070 O   0  0  0  0  0  1  0  0  0  0  0  0
  1 16  1  6  0  0  0
  1 20  1  0  0  0  0
  1 29  1  0  0  0  0
  2 12  2  0  0  0  0
  4  3  2  0  0  0  0
  5 25  1  6  0  0  0
  5 27  1  0  0  0  0
  6 28  1  0  0  0  0
  6  5  1  0  0  0  0
  7 24  1  6  0  0  0
  7 17  1  0  0  0  0
  9 28  1  0  0  0  0
 11  3  1  0  0  0  0
 12 13  1  0  0  0  0
 12  8  1  0  0  0  0
 13 11  2  0  0  0  0
 14 23  1  6  0  0  0
 14 22  1  0  0  0  0
 15 18  1  0  0  0  0
 15  9  2  0  0  0  0
 17  8  1  0  0  0  0
 17 10  1  1  0  0  0
 18  6  2  0  0  0  0
 19 16  1  0  0  0  0
 19  7  1  0  0  0  0
 20 29  1  0  0  0  0
 20 10  1  1  0  0  0
 21  4  1  0  0  0  0
 22 21  2  0  0  0  0
 22 13  1  0  0  0  0
 24  2  1  0  0  0  0
 26  9  1  0  0  0  0
 27 14  1  0  0  0  0
 27  2  1  1  0  0  0
 28 23  1  1  0  0  0
 29 30  1  6  0  0  0
 31 30  2  0  0  0  0
 32 30  1  0  0  0  0
M  END
>  <MODEL>
2

>  <REMARK>
 VINA RESULT:      -7.9      2.614      3.458
  Name = 
  1 active torsions:
  status: ('A' for Active; 'I' for Inactive)
    1  A    between atoms: C_29  and  C_30
                            x       y       z     vdW  Elec       q    Type
                         _______ _______ _______ _____ _____    ______ ____

>  <TORSDO>
F 1

$$$$
=
 OpenBabel11122412473D

 32 38  0  0  1  0  0  0  0  0999 V2000
  161.8020  203.3630  150.3270 N   0  0  2  0  0  0  0  0  0  0  0  0
  161.3530  208.4080  152.1600 C   0  0  0  0  0  0  0  0  0  0  0  0
  161.9840  211.5470  148.4770 C   0  0  0  0  0  3  0  0  0  0  0  0
  161.3540  212.5680  149.1910 C   0  0  0  0  0  3  0  0  0  0  0  0
  160.2710  209.1230  154.3650 C   0  0  2  0  0  3  0  0  0  0  0  0
  159.6200  210.2990  155.0110 C   0  0  0  0  0  0  0  0  0  0  0  0
  161.2440  205.9420  151.7020 C   0  0  1  0  0  3  0  0  0  0  0  0
  162.0150  207.5890  150.0140 O   0  0  0  0  0  0  0  0  0  0  0  0
  158.8890  212.3870  155.3860 C   0  0  0  0  0  0  0  0  0  0  0  0
  161.6170  205.3830  149.1490 C   0  0  0  0  0  2  0  0  0  0  0  0
  162.0850  210.2690  149.0310 C   0  0  0  0  0  3  0  0  0  0  0  0
  161.6530  208.6410  150.8680 C   0  0  0  0  0  0  0  0  0  0  0  0
  161.5690  210.0050  150.3070 C   0  0  0  0  0  0  0  0  0  0  0  0
  160.3150  210.7220  152.3700 C   0  0  2  0  0  3  0  0  0  0  0  0
  158.0460  211.5440  155.8830 N   0  0  0  0  0  0  0  0  0  0  0  0
  161.1230  203.3530  151.6110 C   0  0  0  0  0  2  0  0  0  0  0  0
  162.0490  206.2080  150.3870 C   0  0  2  0  0  3  0  0  0  0  0  0
  158.4870  210.2440  155.6260 N   0  0  0  0  0  0  0  0  0  0  0  0
  161.5840  204.5970  152.3860 C   0  0  0  0  0  2  0  0  0  0  0  0
  160.8310  204.1660  149.5710 C   0  0  1  0  0  3  0  0  0  0  0  0
  160.8310  212.3130  150.4600 C   0  0  0  0  0  3  0  0  0  0  0  0
  160.9520  211.0390  151.0390 C   0  0  0  0  0  0  0  0  0  0  0  0
  160.1460  211.9820  153.2540 C   0  0  0  0  0  2  0  0  0  0  0  0
  161.5710  207.0310  152.7120 C   0  0  0  0  0  2  0  0  0  0  0  0
  161.2070  208.4800  155.3740 C   0  0  0  0  0  1  0  0  0  0  0  0
  158.7260  213.8600  155.5100 C   0  0  0  0  0  1  0  0  0  0  0  0
  161.0500  209.5660  153.1030 C   0  0  2  0  0  3  0  0  0  0  0  0
  160.0550  211.7010  154.7590 C   0  0  2  0  0  3  0  0  0  0  0  0
  161.1650  202.8350  149.0950 C   0  0  2  0  0  3  0  0  0  0  0  0
  160.0740  201.8510  149.3960 C   0  0  0  0  0  0  0  0  0  0  0  0
  160.3470  200.7070  150.1370 O   0  0  0  0  0  1  0  0  0  0  0  0
  158.8980  202.0790  149.0110 O   0  0  0  0  0  0  0  0  0  0  0  0
  1 16  1  1  0  0  0
  2 24  1  0  0  0  0
  3 11  2  0  0  0  0
  3  4  1  0  0  0  0
  4 21  2  0  0  0  0
  5  6  1  0  0  0  0
  5 25  1  1  0  0  0
  6 18  2  0  0  0  0
  7 19  1  1  0  0  0
  7 24  1  0  0  0  0
  8 17  1  0  0  0  0
  8 12  1  0  0  0  0
  9 26  1  0  0  0  0
  9 15  2  0  0  0  0
 11 13  1  0  0  0  0
 12  2  2  0  0  0  0
 13 12  1  0  0  0  0
 13 22  2  0  0  0  0
 14 27  1  0  0  0  0
 14 23  1  1  0  0  0
 16 19  1  0  0  0  0
 17 10  1  6  0  0  0
 17  7  1  0  0  0  0
 18 15  1  0  0  0  0
 20 10  1  6  0  0  0
 20  1  1  0  0  0  0
 21 22  1  0  0  0  0
 22 14  1  0  0  0  0
 27  2  1  6  0  0  0
 27  5  1  0  0  0  0
 28 23  1  6  0  0  0
 28  6  1  0  0  0  0
 28  9  1  0  0  0  0
 29 30  1  1  0  0  0
 29 20  1  0  0  0  0
 29  1  1  0  0  0  0
 30 31  1  0  0  0  0
 32 30  2  0  0  0  0
M  END
>  <MODEL>
3

>  <REMARK>
 VINA RESULT:      -7.1      3.082      8.578
  Name = 
  1 active torsions:
  status: ('A' for Active; 'I' for Inactive)
    1  A    between atoms: C_29  and  C_30
                            x       y       z     vdW  Elec       q    Type
                         _______ _______ _______ _____ _____    ______ ____

>  <TORSDO>
F 1

$$$$
=
 OpenBabel11122412473D

 32 38  0  0  1  0  0  0  0  0999 V2000
  162.2460  205.7060  151.9950 N   0  0  2  0  0  0  0  0  0  0  0  0
  159.9560  210.2660  153.7220 C   0  0  0  0  0  0  0  0  0  0  0  0
  160.0420  213.5910  150.1520 C   0  0  0  0  0  3  0  0  0  0  0  0
  159.0270  214.3290  150.7640 C   0  0  0  0  0  3  0  0  0  0  0  0
  158.4110  210.5060  155.7470 C   0  0  2  0  0  3  0  0  0  0  0  0
  157.3350  211.3860  156.2880 C   0  0  0  0  0  0  0  0  0  0  0  0
  160.7080  207.9140  153.2640 C   0  0  1  0  0  3  0  0  0  0  0  0
  161.1330  209.7890  151.6960 O   0  0  0  0  0  0  0  0  0  0  0  0
  155.9290  213.1150  156.5450 C   0  0  0  0  0  0  0  0  0  0  0  0
  161.5860  207.6090  150.7930 C   0  0  0  0  0  2  0  0  0  0  0  0
  160.4720  212.3900  150.7210 C   0  0  0  0  0  3  0  0  0  0  0  0
  160.3390  210.6350  152.4850 C   0  0  0  0  0  0  0  0  0  0  0  0
  159.8990  211.9240  151.9120 C   0  0  0  0  0  0  0  0  0  0  0  0
  158.2120  212.1180  153.7710 C   0  0  2  0  0  3  0  0  0  0  0  0
  155.3420  212.0280  156.9210 N   0  0  0  0  0  0  0  0  0  0  0  0
  161.4390  205.4270  153.1690 C   0  0  0  0  0  2  0  0  0  0  0  0
  161.5570  208.4770  152.0760 C   0  0  2  0  0  3  0  0  0  0  0  0
  156.2080  210.9480  156.7350 N   0  0  0  0  0  0  0  0  0  0  0  0
  161.3660  206.7210  153.9960 C   0  0  0  0  0  2  0  0  0  0  0  0
  161.1830  206.1900  151.1040 C   0  0  1  0  0  3  0  0  0  0  0  0
  158.4460  213.8680  151.9470 C   0  0  0  0  0  3  0  0  0  0  0  0
  158.8890  212.6760  152.5430 C   0  0  0  0  0  0  0  0  0  0  0  0
  157.5290  213.2210  154.6160 C   0  0  0  0  0  2  0  0  0  0  0  0
  160.5270  209.0080  154.3060 C   0  0  0  0  0  2  0  0  0  0  0  0
  159.3570  210.1540  156.8820 C   0  0  0  0  0  1  0  0  0  0  0  0
  155.2870  214.4530  156.6380 C   0  0  0  0  0  1  0  0  0  0  0  0
  159.1710  211.2260  154.6060 C   0  0  2  0  0  3  0  0  0  0  0  0
  157.3280  212.8620  156.0940 C   0  0  2  0  0  3  0  0  0  0  0  0
  161.9870  205.0550  150.6870 C   0  0  2  0  0  3  0  0  0  0  0  0
  161.2400  203.7630  150.8330 C   0  0  0  0  0  0  0  0  0  0  0  0
  161.8110  202.6970  151.5180 O   0  0  0  0  0  1  0  0  0  0  0  0
  160.0750  203.6550  150.3710 O   0  0  0  0  0  0  0  0  0  0  0  0
  1 16  1  1  0  0  0
  2 24  1  0  0  0  0
  3 11  2  0  0  0  0
  3  4  1  0  0  0  0
  4 21  2  0  0  0  0
  5  6  1  0  0  0  0
  5 25  1  1  0  0  0
  6 18  2  0  0  0  0
  7 19  1  1  0  0  0
  7 24  1  0  0  0  0
  8 17  1  0  0  0  0
  8 12  1  0  0  0  0
  9 26  1  0  0  0  0
  9 15  2  0  0  0  0
 11 13  1  0  0  0  0
 12  2  2  0  0  0  0
 13 12  1  0  0  0  0
 13 22  2  0  0  0  0
 14 27  1  0  0  0  0
 14 23  1  1  0  0  0
 16 19  1  0  0  0  0
 17 10  1  6  0  0  0
 17  7  1  0  0  0  0
 18 15  1  0  0  0  0
 20 10  1  6  0  0  0
 20  1  1  0  0  0  0
 21 22  1  0  0  0  0
 22 14  1  0  0  0  0
 27  2  1  6  0  0  0
 27  5  1  0  0  0  0
 28 23  1  6  0  0  0
 28  6  1  0  0  0  0
 28  9  1  0  0  0  0
 29 30  1  1  0  0  0
 29 20  1  0  0  0  0
 29  1  1  0  0  0  0
 30 31  1  0  0  0  0
 32 30  2  0  0  0  0
M  END
>  <MODEL>
4

>  <REMARK>
 VINA RESULT:      -7.1      3.332      9.387
  Name = 
  1 active torsions:
  status: ('A' for Active; 'I' for Inactive)
    1  A    between atoms: C_29  and  C_30
                            x       y       z     vdW  Elec       q    Type
                         _______ _______ _______ _____ _____    ______ ____

>  <TORSDO>
F 1

$$$$
