=
 OpenBabel11122413353D

 37 43  0  0  1  0  0  0  0  0999 V2000
  160.4840  206.9110  150.9450 C   0  0  0  0  0  2  0  0  0  0  0  0
  160.6580  207.9590  155.8240 C   0  0  1  0  0  0  0  0  0  0  0  0
  160.6100  210.9470  152.8290 C   0  0  0  0  0  0  0  0  0  0  0  0
  160.8220  205.8470  149.9990 N   0  0  0  0  0  0  0  0  0  0  0  0
  162.3940  210.0170  149.4470 C   0  0  0  0  0  2  0  0  0  0  0  0
  160.0740  210.3760  155.2480 C   0  0  1  0  0  3  0  0  0  0  0  0
  161.1910  210.2380  151.6760 C   0  0  0  0  0  0  0  0  0  0  0  0
  162.0130  206.4560  147.9410 C   0  0  2  0  0  3  0  0  0  0  0  0
  160.6300  210.0780  153.8920 C   0  0  0  0  0  0  0  0  0  0  0  0
  161.4680  210.7630  150.3830 C   0  0  0  0  0  0  0  0  0  0  0  0
  158.9250  211.3740  155.1070 C   0  0  0  0  0  2  0  0  0  0  0  0
  160.6630  206.0970  148.5700 C   0  0  0  0  0  2  0  0  0  0  0  0
  161.1270  208.8690  153.5060 C   0  0  0  0  0  0  0  0  0  0  0  0
  160.1360  206.8180  156.4050 F   0  0  0  0  0  0  0  0  0  0  0  0
  159.7760  213.0480  151.8810 C   0  0  0  0  0  3  0  0  0  0  0  0
  159.3650  212.5800  154.2610 C   0  0  0  0  0  2  0  0  0  0  0  0
  161.0180  207.6350  154.3610 C   0  0  0  0  0  2  0  0  0  0  0  0
  162.3090  207.9620  147.9750 C   0  0  0  0  0  2  0  0  0  0  0  0
  162.0240  208.5680  149.3400 C   0  0  1  0  0  3  0  0  0  0  0  0
  159.9410  212.1640  152.9250 C   0  0  0  0  0  0  0  0  0  0  0  0
  161.4520  208.9270  152.1610 C   0  0  0  0  0  0  0  0  0  0  0  0
  159.6030  209.0810  155.9210 C   0  0  0  0  0  2  0  0  0  0  0  0
  161.0050  212.0180  149.9010 C   0  0  0  0  0  0  0  0  0  0  0  0
  161.9130  208.3480  156.5880 C   0  0  0  0  0  1  0  0  0  0  0  0
  162.6880  207.8660  150.3490 O   0  0  0  0  0  0  0  0  0  0  0  0
  162.0440  205.9770  146.5050 C   0  0  0  0  0  1  0  0  0  0  0  0
  161.7560  207.6680  151.3820 C   0  0  2  0  0  3  0  0  0  0  0  0
  160.2410  212.9690  150.5790 C   0  0  0  0  0  3  0  0  0  0  0  0
  162.5200  213.0770  148.2250 C   0  0  0  0  0  3  0  0  0  0  0  0
  161.3130  212.4260  148.5150 C   0  0  0  0  0  0  0  0  0  0  0  0
  160.4080  212.1520  147.4780 C   0  0  0  0  0  3  0  0  0  0  0  0
  159.8060  212.2630  145.1450 O   0  0  0  0  0  1  0  0  0  0  0  0
  161.9080  213.1870  145.8850 C   0  0  0  0  0  3  0  0  0  0  0  0
  160.7050  212.5340  146.1670 C   0  0  0  0  0  0  0  0  0  0  0  0
  162.8160  213.4580  146.9130 C   0  0  0  0  0  3  0  0  0  0  0  0
  160.9120  203.9970  151.5540 C   0  0  0  0  0  2  0  0  0  0  0  0
  161.3190  204.5740  150.4290 C   0  0  0  0  0  3  0  0  0  0  0  0
  2 22  1  0  0  0  0
  2 14  1  0  0  0  0
  2 24  1  1  0  0  0
  3 20  1  0  0  0  0
  3  9  2  0  0  0  0
  4 37  1  0  0  0  0
  4  1  1  0  0  0  0
  5 10  1  0  0  0  0
  6 11  1  6  0  0  0
  6 22  1  0  0  0  0
  7 21  1  0  0  0  0
  7  3  1  0  0  0  0
  8 26  1  6  0  0  0
  8 18  1  0  0  0  0
  8 12  1  0  0  0  0
  9  6  1  0  0  0  0
 10  7  2  0  0  0  0
 12  4  1  0  0  0  0
 13  9  1  0  0  0  0
 13 17  1  0  0  0  0
 15 20  2  0  0  0  0
 16 11  1  0  0  0  0
 17  2  1  0  0  0  0
 19 18  1  6  0  0  0
 19  5  1  0  0  0  0
 19 25  1  0  0  0  0
 20 16  1  0  0  0  0
 21 13  2  0  0  0  0
 23 10  1  0  0  0  0
 23 28  2  0  0  0  0
 25 27  1  0  0  0  0
 27  1  1  6  0  0  0
 27 21  1  0  0  0  0
 28 15  1  0  0  0  0
 29 30  1  0  0  0  0
 30 23  1  0  0  0  0
 31 30  2  0  0  0  0
 32 34  1  0  0  0  0
 33 34  2  0  0  0  0
 33 35  1  0  0  0  0
 34 31  1  0  0  0  0
 35 29  2  0  0  0  0
 37 36  2  0  0  0  0
M  END
>  <MODEL>
1

>  <REMARK>
 VINA RESULT:      -9.8      0.000      0.000
  Name = 
  2 active torsions:
  status: ('A' for Active; 'I' for Inactive)
    1  A    between atoms: N_4  and  C_37
    2  A    between atoms: C_23  and  C_30
                            x       y       z     vdW  Elec       q    Type
                         _______ _______ _______ _____ _____    ______ ____

>  <TORSDO>
F 2

$$$$
