=
 OpenBabel11122413473D

 37 43  0  0  1  0  0  0  0  0999 V2000
  162.8280  205.0710  146.3800 C   0  0  1  0  0  0  0  0  0  0  0  0
  160.9340  205.8310  150.0460 C   0  0  0  0  0  0  0  0  0  0  0  0
  162.1660  209.2080  151.7470 C   0  0  0  0  0  2  0  0  0  0  0  0
  161.3990  204.1910  148.3370 C   0  0  0  0  0  0  0  0  0  0  0  0
  161.2250  207.2820  150.2680 C   0  0  1  0  0  3  0  0  0  0  0  0
  161.3520  205.5020  148.7940 C   0  0  0  0  0  0  0  0  0  0  0  0
  161.8210  207.6850  151.6710 C   0  0  2  0  0  3  0  0  0  0  0  0
  160.8510  203.1900  149.1530 C   0  0  0  0  0  3  0  0  0  0  0  0
  161.8790  206.6680  148.0860 C   0  0  2  0  0  3  0  0  0  0  0  0
  161.8970  205.5450  145.2770 C   0  0  0  0  0  1  0  0  0  0  0  0
  159.7540  205.1980  152.1880 C   0  0  0  0  0  2  0  0  0  0  0  0
  160.2960  203.5320  150.4040 C   0  0  0  0  0  3  0  0  0  0  0  0
  163.1410  206.2430  147.3390 C   0  0  0  0  0  2  0  0  0  0  0  0
  161.9490  211.1880  150.2140 C   0  0  1  0  0  3  0  0  0  0  0  0
  161.4240  209.9190  150.7250 N   0  0  1  0  0  0  0  0  0  0  0  0
  160.3390  204.8620  150.8640 C   0  0  0  0  0  0  0  0  0  0  0  0
  162.1420  207.6430  149.1470 N   0  0  1  0  0  0  0  0  0  0  0  0
  162.1810  203.8550  147.0940 C   0  0  0  0  0  2  0  0  0  0  0  0
  160.8860  207.3130  152.8490 C   0  0  1  0  0  3  0  0  0  0  0  0
  164.0190  204.6510  145.7940 O   0  0  0  0  0  1  0  0  0  0  0  0
  162.4480  209.9230  149.6680 C   0  0  1  0  0  3  0  0  0  0  0  0
  161.8400  208.9880  148.6510 C   0  0  0  0  0  2  0  0  0  0  0  0
  160.8080  205.8110  153.0810 C   0  0  0  0  0  2  0  0  0  0  0  0
  161.6520  207.1660  155.2290 C   0  0  0  0  0  3  0  0  0  0  0  0
  161.2700  207.9680  154.1470 C   0  0  0  0  0  0  0  0  0  0  0  0
  161.2520  209.3640  154.2920 C   0  0  0  0  0  3  0  0  0  0  0  0
  161.5890  211.4270  155.6580 C   0  0  0  0  0  1  0  0  0  0  0  0
  161.9900  209.1430  156.5870 C   0  0  0  0  0  3  0  0  0  0  0  0
  161.6110  209.9490  155.5100 C   0  0  0  0  0  0  0  0  0  0  0  0
  162.0120  207.7520  156.4460 C   0  0  0  0  0  3  0  0  0  0  0  0
  160.9550  211.8270  149.2970 C   0  0  0  0  0  0  0  0  0  0  0  0
  161.1940  211.8340  147.8870 N   0  0  0  0  0  2  0  0  0  0  0  0
  159.9280  212.3840  149.7730 O   0  0  0  0  0  0  0  0  0  0  0  0
  160.0690  211.5540  145.8700 F   0  0  0  0  0  0  0  0  0  0  0  0
  160.2550  212.4140  146.9390 C   0  0  2  0  0  3  0  0  0  0  0  0
  162.1610  213.8220  146.5900 O   0  0  0  0  0  1  0  0  0  0  0  0
  160.7750  213.7540  146.4440 C   0  0  0  0  0  2  0  0  0  0  0  0
  1 10  1  6  0  0  0
  1 18  1  0  0  0  0
  1 13  1  0  0  0  0
  2 16  1  0  0  0  0
  4  6  1  0  0  0  0
  4  8  2  0  0  0  0
  5  2  1  1  0  0  0
  5  7  1  0  0  0  0
  6  2  2  0  0  0  0
  7  3  1  6  0  0  0
  7 19  1  0  0  0  0
  8 12  1  0  0  0  0
  9 13  1  1  0  0  0
  9  6  1  0  0  0  0
  9 17  1  0  0  0  0
 11 23  1  0  0  0  0
 12 16  2  0  0  0  0
 14 31  1  6  0  0  0
 14 15  1  0  0  0  0
 15  3  1  1  0  0  0
 16 11  1  0  0  0  0
 17 22  1  6  0  0  0
 17  5  1  0  0  0  0
 18  4  1  0  0  0  0
 19 23  1  0  0  0  0
 19 25  1  1  0  0  0
 20  1  1  0  0  0  0
 21 22  1  6  0  0  0
 21 14  1  0  0  0  0
 21 15  1  0  0  0  0
 24 30  1  0  0  0  0
 25 26  1  0  0  0  0
 25 24  2  0  0  0  0
 26 29  2  0  0  0  0
 29 27  1  0  0  0  0
 29 28  1  0  0  0  0
 30 28  2  0  0  0  0
 31 33  2  0  0  0  0
 32 31  1  0  0  0  0
 35 34  1  6  0  0  0
 35 32  1  0  0  0  0
 37 36  1  0  0  0  0
 37 35  1  0  0  0  0
M  END
>  <MODEL>
1

>  <REMARK>
 VINA RESULT:      -5.4      0.000      0.000
  Name = 
  4 active torsions:
  status: ('A' for Active; 'I' for Inactive)
    1  A    between atoms: C_4  and  N_12
    2  A    between atoms: C_4  and  C_37
    3  A    between atoms: C_8  and  C_18
    4  A    between atoms: C_23  and  C_30
                            x       y       z     vdW  Elec       q    Type
                         _______ _______ _______ _____ _____    ______ ____

>  <TORSDO>
F 4

$$$$
=
 OpenBabel11122413473D

 37 43  0  0  1  0  0  0  0  0999 V2000
  162.6260  204.8130  146.0740 C   0  0  1  0  0  0  0  0  0  0  0  0
  160.9460  206.0120  149.7270 C   0  0  0  0  0  0  0  0  0  0  0  0
  162.2340  209.5790  150.9210 C   0  0  0  0  0  2  0  0  0  0  0  0
  161.3280  204.1750  148.2080 C   0  0  0  0  0  0  0  0  0  0  0  0
  161.2310  207.4800  149.7510 C   0  0  1  0  0  3  0  0  0  0  0  0
  161.2920  205.5330  148.5020 C   0  0  0  0  0  0  0  0  0  0  0  0
  161.9050  208.0570  151.0540 C   0  0  2  0  0  3  0  0  0  0  0  0
  160.8430  203.2800  149.1730 C   0  0  0  0  0  3  0  0  0  0  0  0
  161.7610  206.6050  147.6250 C   0  0  2  0  0  3  0  0  0  0  0  0
  161.6240  205.1420  144.9800 C   0  0  0  0  0  1  0  0  0  0  0  0
  159.9040  205.6420  151.9990 C   0  0  0  0  0  2  0  0  0  0  0  0
  160.3590  203.7710  150.4040 C   0  0  0  0  0  3  0  0  0  0  0  0
  162.9810  206.0970  146.8600 C   0  0  0  0  0  2  0  0  0  0  0  0
  161.9000  211.3530  149.1710 C   0  0  1  0  0  3  0  0  0  0  0  0
  161.4230  210.1540  149.8660 N   0  0  1  0  0  0  0  0  0  0  0  0
  160.4130  205.1480  150.6940 C   0  0  0  0  0  0  0  0  0  0  0  0
  162.0750  207.7040  148.5390 N   0  0  1  0  0  0  0  0  0  0  0  0
  162.0380  203.6920  146.9700 C   0  0  0  0  0  2  0  0  0  0  0  0
  161.0470  207.8290  152.3240 C   0  0  1  0  0  3  0  0  0  0  0  0
  163.7850  204.3310  145.4730 O   0  0  0  0  0  1  0  0  0  0  0  0
  162.3820  210.0330  148.7560 C   0  0  1  0  0  3  0  0  0  0  0  0
  161.7260  208.9760  147.9020 C   0  0  0  0  0  2  0  0  0  0  0  0
  161.0020  206.3660  152.7430 C   0  0  0  0  0  2  0  0  0  0  0  0
  161.9490  209.9510  153.3010 C   0  0  0  0  0  3  0  0  0  0  0  0
  161.4990  208.6410  153.5060 C   0  0  0  0  0  0  0  0  0  0  0  0
  161.4780  208.1100  154.8050 C   0  0  0  0  0  3  0  0  0  0  0  0
  161.8850  208.3180  157.2610 C   0  0  0  0  0  1  0  0  0  0  0  0
  162.3570  210.1910  155.6770 C   0  0  0  0  0  3  0  0  0  0  0  0
  161.9070  208.8840  155.8870 C   0  0  0  0  0  0  0  0  0  0  0  0
  162.3760  210.7250  154.3840 C   0  0  0  0  0  3  0  0  0  0  0  0
  160.8440  211.8690  148.2450 C   0  0  0  0  0  0  0  0  0  0  0  0
  159.7830  212.6760  148.7610 N   0  0  0  0  0  2  0  0  0  0  0  0
  160.8770  211.5630  147.0220 O   0  0  0  0  0  0  0  0  0  0  0  0
  159.3090  213.9840  146.8950 F   0  0  0  0  0  0  0  0  0  0  0  0
  158.7410  213.2320  147.9100 C   0  0  2  0  0  3  0  0  0  0  0  0
  156.8930  213.3010  149.4330 O   0  0  0  0  0  1  0  0  0  0  0  0
  157.8020  214.0970  148.7350 C   0  0  0  0  0  2  0  0  0  0  0  0
  1 10  1  6  0  0  0
  1 13  1  0  0  0  0
  1 18  1  0  0  0  0
  2 16  1  0  0  0  0
  4  6  1  0  0  0  0
  4  8  2  0  0  0  0
  5  2  1  1  0  0  0
  5  7  1  0  0  0  0
  6  2  2  0  0  0  0
  7  3  1  6  0  0  0
  7 19  1  0  0  0  0
  8 12  1  0  0  0  0
  9 13  1  1  0  0  0
  9  6  1  0  0  0  0
  9 17  1  0  0  0  0
 11 23  1  0  0  0  0
 12 16  2  0  0  0  0
 14 31  1  6  0  0  0
 14 15  1  0  0  0  0
 15  3  1  1  0  0  0
 16 11  1  0  0  0  0
 17 22  1  6  0  0  0
 17  5  1  0  0  0  0
 18  4  1  0  0  0  0
 19 23  1  0  0  0  0
 19 25  1  1  0  0  0
 20  1  1  0  0  0  0
 21 22  1  6  0  0  0
 21 14  1  0  0  0  0
 21 15  1  0  0  0  0
 24 25  2  0  0  0  0
 24 30  1  0  0  0  0
 25 26  1  0  0  0  0
 26 29  2  0  0  0  0
 28 29  1  0  0  0  0
 29 27  1  0  0  0  0
 30 28  2  0  0  0  0
 31 32  1  0  0  0  0
 33 31  2  0  0  0  0
 35 34  1  6  0  0  0
 35 37  1  0  0  0  0
 35 32  1  0  0  0  0
 37 36  1  0  0  0  0
M  END
>  <MODEL>
2

>  <REMARK>
 VINA RESULT:      -5.2      1.290      1.854
  Name = 
  4 active torsions:
  status: ('A' for Active; 'I' for Inactive)
    1  A    between atoms: C_4  and  N_12
    2  A    between atoms: C_4  and  C_37
    3  A    between atoms: C_8  and  C_18
    4  A    between atoms: C_23  and  C_30
                            x       y       z     vdW  Elec       q    Type
                         _______ _______ _______ _____ _____    ______ ____

>  <TORSDO>
F 4

$$$$
=
 OpenBabel11122413473D

 37 43  0  0  1  0  0  0  0  0999 V2000
  161.3860  209.9470  156.3110 C   0  0  1  0  0  0  0  0  0  0  0  0
  160.0450  211.5610  152.6780 C   0  0  0  0  0  0  0  0  0  0  0  0
  162.1090  210.2390  149.5480 C   0  0  0  0  0  2  0  0  0  0  0  0
  159.9940  211.7370  155.0860 C   0  0  0  0  0  0  0  0  0  0  0  0
  160.6520  210.6390  151.6680 C   0  0  1  0  0  3  0  0  0  0  0  0
  160.2660  211.0390  153.9150 C   0  0  0  0  0  0  0  0  0  0  0  0
  161.4480  211.3040  150.4810 C   0  0  2  0  0  3  0  0  0  0  0  0
  159.3280  212.9670  154.9780 C   0  0  0  0  0  3  0  0  0  0  0  0
  160.9570  209.7530  153.8340 C   0  0  2  0  0  3  0  0  0  0  0  0
  160.4760  208.7810  156.6580 C   0  0  0  0  0  1  0  0  0  0  0  0
  158.9630  213.3090  151.2110 C   0  0  0  0  0  2  0  0  0  0  0  0
  158.9760  213.4640  153.7070 C   0  0  0  0  0  3  0  0  0  0  0  0
  162.0260  209.7150  154.9230 C   0  0  0  0  0  2  0  0  0  0  0  0
  162.1690  207.7280  149.4300 C   0  0  1  0  0  3  0  0  0  0  0  0
  161.4400  208.9650  149.7250 N   0  0  1  0  0  0  0  0  0  0  0  0
  159.3390  212.7640  152.5400 C   0  0  0  0  0  0  0  0  0  0  0  0
  161.5160  209.7320  152.4810 N   0  0  1  0  0  0  0  0  0  0  0  0
  160.5690  211.2620  156.3950 C   0  0  0  0  0  2  0  0  0  0  0  0
  160.5700  212.2560  149.6290 C   0  0  1  0  0  3  0  0  0  0  0  0
  162.4040  210.0030  157.2610 O   0  0  0  0  0  1  0  0  0  0  0  0
  162.3400  208.3790  150.7320 C   0  0  1  0  0  3  0  0  0  0  0  0
  161.4570  208.3650  151.9560 C   0  0  0  0  0  2  0  0  0  0  0  0
  160.2010  213.5310  150.3720 C   0  0  0  0  0  2  0  0  0  0  0  0
  162.4840  213.2020  148.3220 C   0  0  0  0  0  3  0  0  0  0  0  0
  161.2020  212.6410  148.3210 C   0  0  0  0  0  0  0  0  0  0  0  0
  160.5300  212.4490  147.1030 C   0  0  0  0  0  3  0  0  0  0  0  0
  160.4230  212.6140  144.6130 C   0  0  0  0  0  1  0  0  0  0  0  0
  162.4180  213.3800  145.9070 C   0  0  0  0  0  3  0  0  0  0  0  0
  161.1380  212.8180  145.8990 C   0  0  0  0  0  0  0  0  0  0  0  0
  163.0920  213.5710  147.1170 C   0  0  0  0  0  3  0  0  0  0  0  0
  161.2490  206.5520  149.5200 C   0  0  0  0  0  0  0  0  0  0  0  0
  161.6140  205.4280  150.3250 N   0  0  0  0  0  2  0  0  0  0  0  0
  160.1740  206.5430  148.8620 O   0  0  0  0  0  0  0  0  0  0  0  0
  160.9820  203.6640  151.7040 F   0  0  0  0  0  0  0  0  0  0  0  0
  160.7530  204.2650  150.4780 C   0  0  2  0  0  3  0  0  0  0  0  0
  160.0890  202.2280  149.4050 O   0  0  0  0  0  1  0  0  0  0  0  0
  161.0140  203.2730  149.3560 C   0  0  0  0  0  2  0  0  0  0  0  0
  1 18  1  0  0  0  0
  1 10  1  1  0  0  0
  1 20  1  0  0  0  0
  2  6  1  0  0  0  0
  4 18  1  0  0  0  0
  5 17  1  0  0  0  0
  5  2  1  1  0  0  0
  6  4  2  0  0  0  0
  7  3  1  6  0  0  0
  7  5  1  0  0  0  0
  8  4  1  0  0  0  0
  9  6  1  0  0  0  0
  9 13  1  1  0  0  0
 11 16  1  0  0  0  0
 12  8  2  0  0  0  0
 13  1  1  0  0  0  0
 14 31  1  1  0  0  0
 14 15  1  0  0  0  0
 14 21  1  0  0  0  0
 15  3  1  6  0  0  0
 15 21  1  0  0  0  0
 16  2  2  0  0  0  0
 16 12  1  0  0  0  0
 17 22  1  6  0  0  0
 17  9  1  0  0  0  0
 19 25  1  6  0  0  0
 19 23  1  0  0  0  0
 19  7  1  0  0  0  0
 21 22  1  1  0  0  0
 23 11  1  0  0  0  0
 25 24  1  0  0  0  0
 26 25  2  0  0  0  0
 27 29  1  0  0  0  0
 28 30  1  0  0  0  0
 29 28  2  0  0  0  0
 29 26  1  0  0  0  0
 30 24  2  0  0  0  0
 31 32  1  0  0  0  0
 32 35  1  0  0  0  0
 33 31  2  0  0  0  0
 35 34  1  1  0  0  0
 37 36  1  0  0  0  0
 37 35  1  0  0  0  0
M  END
>  <MODEL>
3

>  <REMARK>
 VINA RESULT:      -3.8      3.051      8.515
  Name = 
  4 active torsions:
  status: ('A' for Active; 'I' for Inactive)
    1  A    between atoms: C_4  and  N_12
    2  A    between atoms: C_4  and  C_37
    3  A    between atoms: C_8  and  C_18
    4  A    between atoms: C_23  and  C_30
                            x       y       z     vdW  Elec       q    Type
                         _______ _______ _______ _____ _____    ______ ____

>  <TORSDO>
F 4

$$$$
=
 OpenBabel11122413473D

 37 43  0  0  1  0  0  0  0  0999 V2000
  162.4670  210.7890  156.4810 C   0  0  1  0  0  0  0  0  0  0  0  0
  159.8930  211.9620  153.3810 C   0  0  0  0  0  0  0  0  0  0  0  0
  161.4420  211.3390  149.7720 C   0  0  0  0  0  2  0  0  0  0  0  0
  160.3700  212.0940  155.7450 C   0  0  0  0  0  0  0  0  0  0  0  0
  160.4800  211.2710  152.1910 C   0  0  1  0  0  3  0  0  0  0  0  0
  160.5430  211.5180  154.4920 C   0  0  0  0  0  0  0  0  0  0  0  0
  160.7450  212.1520  150.9110 C   0  0  2  0  0  3  0  0  0  0  0  0
  159.3730  213.0720  155.8870 C   0  0  0  0  0  3  0  0  0  0  0  0
  161.5330  210.4970  154.1560 C   0  0  2  0  0  3  0  0  0  0  0  0
  162.0390  209.4020  156.9310 C   0  0  0  0  0  1  0  0  0  0  0  0
  158.0390  213.3230  152.3370 C   0  0  0  0  0  2  0  0  0  0  0  0
  158.6010  213.4530  154.7710 C   0  0  0  0  0  3  0  0  0  0  0  0
  162.7960  210.7690  154.9700 C   0  0  0  0  0  2  0  0  0  0  0  0
  162.1880  208.9610  149.4470 C   0  0  1  0  0  3  0  0  0  0  0  0
  161.2280  209.9230  149.9940 N   0  0  1  0  0  0  0  0  0  0  0  0
  158.8610  212.9020  153.5010 C   0  0  0  0  0  0  0  0  0  0  0  0
  161.7360  210.6540  152.7140 N   0  0  1  0  0  0  0  0  0  0  0  0
  161.3510  211.8010  156.8490 C   0  0  0  0  0  2  0  0  0  0  0  0
  159.4550  212.8070  150.3570 C   0  0  1  0  0  3  0  0  0  0  0  0
  163.6210  211.1360  157.1780 O   0  0  0  0  0  1  0  0  0  0  0  0
  162.4700  209.6220  150.7240 C   0  0  1  0  0  3  0  0  0  0  0  0
  161.9470  209.3360  152.1100 C   0  0  0  0  0  2  0  0  0  0  0  0
  158.9250  213.9100  151.2620 C   0  0  0  0  0  2  0  0  0  0  0  0
  158.4790  213.6370  148.2050 C   0  0  0  0  0  3  0  0  0  0  0  0
  159.6190  213.3750  148.9740 C   0  0  0  0  0  0  0  0  0  0  0  0
  160.8910  213.6450  148.4440 C   0  0  0  0  0  3  0  0  0  0  0  0
  162.3650  214.4530  146.5980 C   0  0  0  0  0  1  0  0  0  0  0  0
  159.8750  214.4280  146.3910 C   0  0  0  0  0  3  0  0  0  0  0  0
  161.0170  214.1700  147.1550 C   0  0  0  0  0  0  0  0  0  0  0  0
  158.6070  214.1630  146.9160 C   0  0  0  0  0  3  0  0  0  0  0  0
  161.6930  207.5640  149.6490 C   0  0  0  0  0  0  0  0  0  0  0  0
  162.2640  206.7520  150.6780 N   0  0  0  0  0  2  0  0  0  0  0  0
  160.7990  207.0980  148.8910 O   0  0  0  0  0  0  0  0  0  0  0  0
  161.6640  204.7020  149.7560 F   0  0  0  0  0  0  0  0  0  0  0  0
  161.8090  205.3960  150.9460 C   0  0  2  0  0  3  0  0  0  0  0  0
  160.0110  204.1330  151.8990 O   0  0  0  0  0  1  0  0  0  0  0  0
  160.4860  205.4290  151.6930 C   0  0  0  0  0  2  0  0  0  0  0  0
  1 18  1  0  0  0  0
  1 10  1  1  0  0  0
  1 20  1  0  0  0  0
  2 16  2  0  0  0  0
  2  6  1  0  0  0  0
  4  8  1  0  0  0  0
  4 18  1  0  0  0  0
  5 17  1  0  0  0  0
  5  2  1  1  0  0  0
  6  4  2  0  0  0  0
  7  3  1  6  0  0  0
  7  5  1  0  0  0  0
  9  6  1  0  0  0  0
  9 13  1  1  0  0  0
 11 16  1  0  0  0  0
 12  8  2  0  0  0  0
 13  1  1  0  0  0  0
 14 31  1  1  0  0  0
 14 15  1  0  0  0  0
 14 21  1  0  0  0  0
 15  3  1  6  0  0  0
 15 21  1  0  0  0  0
 16 12  1  0  0  0  0
 17 22  1  6  0  0  0
 17  9  1  0  0  0  0
 19 25  1  6  0  0  0
 19  7  1  0  0  0  0
 19 23  1  0  0  0  0
 21 22  1  1  0  0  0
 23 11  1  0  0  0  0
 24 25  1  0  0  0  0
 26 25  2  0  0  0  0
 27 29  1  0  0  0  0
 28 30  1  0  0  0  0
 28 29  2  0  0  0  0
 29 26  1  0  0  0  0
 30 24  2  0  0  0  0
 31 32  1  0  0  0  0
 32 35  1  0  0  0  0
 33 31  2  0  0  0  0
 35 34  1  6  0  0  0
 35 37  1  0  0  0  0
 37 36  1  0  0  0  0
M  END
>  <MODEL>
4

>  <REMARK>
 VINA RESULT:      -3.5      3.095      8.554
  Name = 
  4 active torsions:
  status: ('A' for Active; 'I' for Inactive)
    1  A    between atoms: C_4  and  N_12
    2  A    between atoms: C_4  and  C_37
    3  A    between atoms: C_8  and  C_18
    4  A    between atoms: C_23  and  C_30
                            x       y       z     vdW  Elec       q    Type
                         _______ _______ _______ _____ _____    ______ ____

>  <TORSDO>
F 4

$$$$
=
 OpenBabel11122413473D

 37 43  0  0  1  0  0  0  0  0999 V2000
  158.7160  211.6150  155.2280 C   0  0  1  0  0  0  0  0  0  0  0  0
  160.9070  208.3160  153.8430 C   0  0  0  0  0  0  0  0  0  0  0  0
  160.8370  207.9710  149.8820 C   0  0  0  0  0  2  0  0  0  0  0  0
  159.8920  209.3830  155.7560 C   0  0  0  0  0  0  0  0  0  0  0  0
  161.0820  208.6280  152.3900 C   0  0  1  0  0  3  0  0  0  0  0  0
  160.3550  209.4040  154.4460 C   0  0  0  0  0  0  0  0  0  0  0  0
  160.6980  207.4940  151.3640 C   0  0  2  0  0  3  0  0  0  0  0  0
  160.1430  208.2370  156.5250 C   0  0  0  0  0  3  0  0  0  0  0  0
  160.1780  210.5040  153.4990 C   0  0  2  0  0  3  0  0  0  0  0  0
  159.6980  212.7490  155.4710 C   0  0  0  0  0  1  0  0  0  0  0  0
  161.9300  206.0130  154.0130 C   0  0  0  0  0  2  0  0  0  0  0  0
  160.8300  207.1460  155.9520 C   0  0  0  0  0  3  0  0  0  0  0  0
  158.8160  211.1430  153.7590 C   0  0  0  0  0  2  0  0  0  0  0  0
  161.5810  210.0740  148.7230 C   0  0  1  0  0  3  0  0  0  0  0  0
  161.7160  209.1220  149.8300 N   0  0  1  0  0  0  0  0  0  0  0  0
  161.2140  207.1760  154.5970 C   0  0  0  0  0  0  0  0  0  0  0  0
  160.2700  209.8650  152.1850 N   0  0  1  0  0  0  0  0  0  0  0  0
  158.9920  210.4850  156.2530 C   0  0  0  0  0  2  0  0  0  0  0  0
  161.5250  206.1990  151.5650 C   0  0  1  0  0  3  0  0  0  0  0  0
  157.4290  212.1000  155.4470 O   0  0  0  0  0  1  0  0  0  0  0  0
  160.6960  210.1830  149.8870 C   0  0  1  0  0  3  0  0  0  0  0  0
  160.9460  210.7720  151.2540 C   0  0  0  0  0  2  0  0  0  0  0  0
  161.1520  205.4600  152.8410 C   0  0  0  0  0  2  0  0  0  0  0  0
  160.9690  203.9320  150.6600 C   0  0  0  0  0  3  0  0  0  0  0  0
  161.4160  205.2360  150.4160 C   0  0  0  0  0  0  0  0  0  0  0  0
  161.7510  205.6210  149.1080 C   0  0  0  0  0  3  0  0  0  0  0  0
  162.0000  205.1170  146.6750 C   0  0  0  0  0  1  0  0  0  0  0  0
  161.1980  203.4040  148.3070 C   0  0  0  0  0  3  0  0  0  0  0  0
  161.6430  204.7050  148.0570 C   0  0  0  0  0  0  0  0  0  0  0  0
  160.8610  203.0170  149.6070 C   0  0  0  0  0  3  0  0  0  0  0  0
  162.6820  211.0850  148.7740 C   0  0  0  0  0  0  0  0  0  0  0  0
  162.7750  212.0820  147.7530 N   0  0  0  0  0  2  0  0  0  0  0  0
  163.5400  211.0350  149.6960 O   0  0  0  0  0  0  0  0  0  0  0  0
  164.8200  212.7600  148.6310 F   0  0  0  0  0  0  0  0  0  0  0  0
  163.8040  213.1110  147.7580 C   0  0  2  0  0  3  0  0  0  0  0  0
  161.8100  214.3710  148.1760 O   0  0  0  0  0  1  0  0  0  0  0  0
  163.2040  214.4450  148.1680 C   0  0  0  0  0  2  0  0  0  0  0  0
  1 20  1  0  0  0  0
  1 10  1  1  0  0  0
  1 18  1  0  0  0  0
  2  6  2  0  0  0  0
  2 16  1  0  0  0  0
  4 18  1  0  0  0  0
  4  8  2  0  0  0  0
  5  2  1  1  0  0  0
  6  4  1  0  0  0  0
  7  3  1  6  0  0  0
  7 19  1  0  0  0  0
  7  5  1  0  0  0  0
  9 13  1  1  0  0  0
  9  6  1  0  0  0  0
 11 16  1  0  0  0  0
 12  8  1  0  0  0  0
 13  1  1  0  0  0  0
 14 31  1  1  0  0  0
 14 15  1  0  0  0  0
 14 21  1  0  0  0  0
 15  3  1  6  0  0  0
 15 21  1  0  0  0  0
 16 12  2  0  0  0  0
 17 22  1  6  0  0  0
 17  5  1  0  0  0  0
 17  9  1  0  0  0  0
 19 25  1  6  0  0  0
 19 23  1  0  0  0  0
 21 22  1  1  0  0  0
 23 11  1  0  0  0  0
 25 24  1  0  0  0  0
 26 25  2  0  0  0  0
 27 29  1  0  0  0  0
 28 30  1  0  0  0  0
 29 28  2  0  0  0  0
 29 26  1  0  0  0  0
 30 24  2  0  0  0  0
 31 33  2  0  0  0  0
 32 35  1  0  0  0  0
 32 31  1  0  0  0  0
 35 37  1  0  0  0  0
 35 34  1  1  0  0  0
 37 36  1  0  0  0  0
M  END
>  <MODEL>
5

>  <REMARK>
 VINA RESULT:      -2.8      2.213      6.719
  Name = 
  4 active torsions:
  status: ('A' for Active; 'I' for Inactive)
    1  A    between atoms: C_4  and  N_12
    2  A    between atoms: C_4  and  C_37
    3  A    between atoms: C_8  and  C_18
    4  A    between atoms: C_23  and  C_30
                            x       y       z     vdW  Elec       q    Type
                         _______ _______ _______ _____ _____    ______ ____

>  <TORSDO>
F 4

$$$$
