=
 OpenBabel11122412533D

 32 38  0  0  1  0  0  0  0  0999 V2000
  160.4600  208.8480  156.7510 C   0  0  1  0  0  3  0  0  0  0  0  0
  161.0700  206.4850  152.1950 C   0  0  0  0  0  0  0  0  0  0  0  0
  162.0850  210.0530  149.0420 C   0  0  0  0  0  3  0  0  0  0  0  0
  162.0850  209.1270  148.0500 N   0  0  0  0  0  0  0  0  0  0  0  0
  160.8360  204.1480  151.3170 C   0  0  0  0  0  0  0  0  0  0  0  0
  160.8680  203.3160  150.2030 C   0  0  0  0  0  0  0  0  0  0  0  0
  160.8010  207.0120  154.5610 C   0  0  0  0  0  0  0  0  0  0  0  0
  161.3160  208.7780  153.0090 C   0  0  0  0  0  3  0  0  0  0  0  0
  161.0890  202.7600  148.0910 N   0  0  0  0  0  0  0  0  0  0  0  0
  161.0640  209.3650  155.4330 C   0  0  2  0  0  3  0  0  0  0  0  0
  161.8340  209.6530  150.3510 C   0  0  0  0  0  3  0  0  0  0  0  0
  161.3230  207.8610  151.9410 C   0  0  0  0  0  0  0  0  0  0  0  0
  161.5820  208.3030  150.6310 C   0  0  0  0  0  0  0  0  0  0  0  0
  161.3470  206.0230  149.7940 C   0  0  0  0  0  0  0  0  0  0  0  0
  160.8190  201.6460  148.7600 N   0  0  0  0  0  0  0  0  0  0  0  0
  159.8200  207.5690  156.6470 O   0  0  0  0  0  0  0  0  0  0  0  0
  161.0600  208.3590  154.3130 C   0  0  0  0  0  0  0  0  0  0  0  0
  160.6750  201.9510  150.0760 C   0  0  0  0  0  3  0  0  0  0  0  0
  160.5790  206.5890  155.9700 C   0  0  0  0  0  2  0  0  0  0  0  0
  161.9750  208.8900  156.5610 C   0  0  1  0  0  3  0  0  0  0  0  0
  161.8470  207.8400  148.3020 N   0  0  0  0  0  0  0  0  0  0  0  0
  161.5930  207.3850  149.5630 C   0  0  0  0  0  0  0  0  0  0  0  0
  161.3670  205.1250  148.7040 C   0  0  0  0  0  3  0  0  0  0  0  0
  160.8180  206.0870  153.5210 C   0  0  0  0  0  3  0  0  0  0  0  0
  160.5690  203.5930  152.5650 O   0  0  0  0  0  1  0  0  0  0  0  0
  161.3060  202.8180  146.6570 C   0  0  0  0  0  1  0  0  0  0  0  0
  161.0810  205.5460  151.1260 C   0  0  0  0  0  0  0  0  0  0  0  0
  161.1220  203.7840  148.9550 C   0  0  0  0  0  0  0  0  0  0  0  0
  162.5170  210.0420  157.2600 N   0  0  0  0  0  2  0  0  0  0  0  0
  163.4150  210.9480  156.6230 C   0  0  0  0  0  0  0  0  0  0  0  0
  163.7960  210.7510  155.3000 O   0  0  0  0  0  0  0  0  0  0  0  0
  163.8660  211.9330  157.2610 O   0  0  0  0  0  1  0  0  0  0  0  0
  1 16  1  6  0  0  0
  2 24  1  0  0  0  0
  3 11  1  0  0  0  0
  4 21  1  0  0  0  0
  4  3  2  0  0  0  0
  5 25  1  0  0  0  0
  6  5  2  0  0  0  0
  7 19  1  0  0  0  0
  8 17  2  0  0  0  0
  9 15  1  0  0  0  0
  9 28  1  0  0  0  0
 10 17  1  6  0  0  0
 10 20  1  0  0  0  0
 10  1  1  0  0  0  0
 11 13  2  0  0  0  0
 12  2  2  0  0  0  0
 12  8  1  0  0  0  0
 13 12  1  0  0  0  0
 14 27  2  0  0  0  0
 15 18  2  0  0  0  0
 17  7  1  0  0  0  0
 18  6  1  0  0  0  0
 19 16  1  0  0  0  0
 20  1  1  0  0  0  0
 20 29  1  1  0  0  0
 21 22  2  0  0  0  0
 22 14  1  0  0  0  0
 22 13  1  0  0  0  0
 23 28  2  0  0  0  0
 23 14  1  0  0  0  0
 24  7  2  0  0  0  0
 26  9  1  0  0  0  0
 27  5  1  0  0  0  0
 27  2  1  0  0  0  0
 28  6  1  0  0  0  0
 30 29  1  0  0  0  0
 30 32  1  0  0  0  0
 31 30  2  0  0  0  0
M  END
>  <MODEL>
1

>  <REMARK>
 VINA RESULT:     -11.2      0.000      0.000
  Name = 
  1 active torsions:
  status: ('A' for Active; 'I' for Inactive)
    1  A    between atoms: C_20  and  N_29
                            x       y       z     vdW  Elec       q    Type
                         _______ _______ _______ _____ _____    ______ ____

>  <TORSDO>
F 1

$$$$
=
 OpenBabel11122412533D

 32 38  0  0  1  0  0  0  0  0999 V2000
  161.4110  201.3680  148.7910 C   0  0  1  0  0  3  0  0  0  0  0  0
  161.2080  205.8310  151.3890 C   0  0  0  0  0  0  0  0  0  0  0  0
  162.1110  209.2740  148.0670 C   0  0  0  0  0  3  0  0  0  0  0  0
  162.0650  210.1950  149.0620 N   0  0  0  0  0  0  0  0  0  0  0  0
  160.9180  206.5280  153.7800 C   0  0  0  0  0  0  0  0  0  0  0  0
  160.8990  207.5790  154.6910 C   0  0  0  0  0  0  0  0  0  0  0  0
  161.0560  203.4990  150.6920 C   0  0  0  0  0  0  0  0  0  0  0  0
  161.4890  205.1980  149.0430 C   0  0  0  0  0  3  0  0  0  0  0  0
  161.0270  209.6530  155.3990 N   0  0  0  0  0  0  0  0  0  0  0  0
  161.3260  202.8160  148.2780 C   0  0  2  0  0  3  0  0  0  0  0  0
  161.9100  207.9310  148.3690 C   0  0  0  0  0  3  0  0  0  0  0  0
  161.4560  206.1950  150.0360 C   0  0  0  0  0  0  0  0  0  0  0  0
  161.6630  207.5430  149.6930 C   0  0  0  0  0  0  0  0  0  0  0  0
  161.3810  208.2020  152.0260 C   0  0  0  0  0  0  0  0  0  0  0  0
  160.7770  208.8940  156.4590 N   0  0  0  0  0  0  0  0  0  0  0  0
  161.6350  201.2530  150.2030 O   0  0  0  0  0  0  0  0  0  0  0  0
  161.2870  203.8570  149.3650 C   0  0  0  0  0  0  0  0  0  0  0  0
  160.6900  207.5990  156.0590 C   0  0  0  0  0  3  0  0  0  0  0  0
  160.7960  202.0660  150.9970 C   0  0  0  0  0  2  0  0  0  0  0  0
  160.0720  201.9480  148.3410 C   0  0  1  0  0  3  0  0  0  0  0  0
  161.8300  209.8410  150.3260 N   0  0  0  0  0  0  0  0  0  0  0  0
  161.6260  208.5410  150.6860 C   0  0  0  0  0  0  0  0  0  0  0  0
  161.3480  209.2240  152.9990 C   0  0  0  0  0  3  0  0  0  0  0  0
  161.0040  204.4720  151.6870 C   0  0  0  0  0  3  0  0  0  0  0  0
  160.6990  205.2330  154.2420 O   0  0  0  0  0  1  0  0  0  0  0  0
  161.1850  211.0950  155.4470 C   0  0  0  0  0  1  0  0  0  0  0  0
  161.1650  206.8300  152.4020 C   0  0  0  0  0  0  0  0  0  0  0  0
  161.1040  208.8680  154.3170 C   0  0  0  0  0  0  0  0  0  0  0  0
  159.7590  201.4590  147.0100 N   0  0  0  0  0  2  0  0  0  0  0  0
  160.3490  202.0340  145.8450 C   0  0  0  0  0  0  0  0  0  0  0  0
  161.2520  203.0850  145.9570 O   0  0  0  0  0  1  0  0  0  0  0  0
  160.0520  201.5850  144.7080 O   0  0  0  0  0  0  0  0  0  0  0  0
  1 16  1  1  0  0  0
  2 24  1  0  0  0  0
  2 27  1  0  0  0  0
  3 11  2  0  0  0  0
  3  4  1  0  0  0  0
  4 21  2  0  0  0  0
  5 25  1  0  0  0  0
  5  6  1  0  0  0  0
  6 18  1  0  0  0  0
  7 19  1  0  0  0  0
  7 24  2  0  0  0  0
  8 17  2  0  0  0  0
  8 12  1  0  0  0  0
  9 26  1  0  0  0  0
  9 15  1  0  0  0  0
 10 20  1  0  0  0  0
 10  1  1  0  0  0  0
 10 17  1  1  0  0  0
 11 13  1  0  0  0  0
 12  2  2  0  0  0  0
 13 12  1  0  0  0  0
 13 22  2  0  0  0  0
 14 27  1  0  0  0  0
 14 23  2  0  0  0  0
 16 19  1  0  0  0  0
 17  7  1  0  0  0  0
 18 15  2  0  0  0  0
 20 29  1  6  0  0  0
 20  1  1  0  0  0  0
 21 22  1  0  0  0  0
 22 14  1  0  0  0  0
 23 28  1  0  0  0  0
 27  5  2  0  0  0  0
 28  6  2  0  0  0  0
 28  9  1  0  0  0  0
 30 31  1  0  0  0  0
 30 29  1  0  0  0  0
 32 30  2  0  0  0  0
M  END
>  <MODEL>
2

>  <REMARK>
 VINA RESULT:      -9.4      2.316      7.922
  Name = 
  1 active torsions:
  status: ('A' for Active; 'I' for Inactive)
    1  A    between atoms: C_20  and  N_29
                            x       y       z     vdW  Elec       q    Type
                         _______ _______ _______ _____ _____    ______ ____

>  <TORSDO>
F 1

$$$$
=
 OpenBabel11122412533D

 32 38  0  0  1  0  0  0  0  0999 V2000
  161.6320  210.1770  154.2520 C   0  0  1  0  0  3  0  0  0  0  0  0
  161.1980  206.7700  150.3890 C   0  0  0  0  0  0  0  0  0  0  0  0
  160.8220  202.4300  152.5630 C   0  0  0  0  0  3  0  0  0  0  0  0
  160.8190  201.8550  151.3340 N   0  0  0  0  0  0  0  0  0  0  0  0
  161.2770  206.8470  147.8850 C   0  0  0  0  0  0  0  0  0  0  0  0
  161.2620  206.1210  146.6980 C   0  0  0  0  0  0  0  0  0  0  0  0
  161.3070  208.7910  151.7510 C   0  0  0  0  0  0  0  0  0  0  0  0
  161.1080  206.6490  152.8310 C   0  0  0  0  0  3  0  0  0  0  0  0
  161.1760  204.3510  145.4030 N   0  0  0  0  0  0  0  0  0  0  0  0
  161.2010  208.6990  154.2700 C   0  0  2  0  0  3  0  0  0  0  0  0
  160.9160  203.8140  152.6700 C   0  0  0  0  0  3  0  0  0  0  0  0
  161.1050  206.0000  151.5820 C   0  0  0  0  0  0  0  0  0  0  0  0
  161.0080  204.5990  151.5130 C   0  0  0  0  0  0  0  0  0  0  0  0
  161.0900  204.6920  149.0750 C   0  0  0  0  0  0  0  0  0  0  0  0
  161.2750  205.4100  144.6090 N   0  0  0  0  0  0  0  0  0  0  0  0
  162.1490  210.6270  152.9920 O   0  0  0  0  0  0  0  0  0  0  0  0
  161.2050  208.0360  152.9190 C   0  0  0  0  0  0  0  0  0  0  0  0
  161.3310  206.5290  145.3760 C   0  0  0  0  0  3  0  0  0  0  0  0
  161.3600  210.2720  151.8760 C   0  0  0  0  0  2  0  0  0  0  0  0
  160.1510  209.8060  154.3070 C   0  0  1  0  0  3  0  0  0  0  0  0
  160.9060  202.5890  150.2240 N   0  0  0  0  0  0  0  0  0  0  0  0
  161.0010  203.9490  150.2630 C   0  0  0  0  0  0  0  0  0  0  0  0
  161.0790  204.0140  147.8370 C   0  0  0  0  0  3  0  0  0  0  0  0
  161.2910  208.1690  150.5050 C   0  0  0  0  0  3  0  0  0  0  0  0
  161.3770  208.2340  147.8240 O   0  0  0  0  0  1  0  0  0  0  0  0
  161.0940  202.9810  144.9300 C   0  0  0  0  0  1  0  0  0  0  0  0
  161.1900  206.1270  149.1200 C   0  0  0  0  0  0  0  0  0  0  0  0
  161.1670  204.7670  146.6760 C   0  0  0  0  0  0  0  0  0  0  0  0
  159.6660  209.9640  155.6670 N   0  0  0  0  0  2  0  0  0  0  0  0
  158.9500  211.1290  156.0740 C   0  0  0  0  0  0  0  0  0  0  0  0
  158.6930  212.1510  155.1680 O   0  0  0  0  0  0  0  0  0  0  0  0
  158.5470  211.2310  157.2610 O   0  0  0  0  0  1  0  0  0  0  0  0
  1 16  1  6  0  0  0
  1 10  1  0  0  0  0
  1 20  1  0  0  0  0
  2 24  2  0  0  0  0
  2 12  1  0  0  0  0
  3 11  1  0  0  0  0
  4  3  2  0  0  0  0
  5 27  1  0  0  0  0
  6  5  2  0  0  0  0
  7 19  1  0  0  0  0
  7 17  2  0  0  0  0
  8 17  1  0  0  0  0
  9 28  1  0  0  0  0
 10 17  1  6  0  0  0
 10 20  1  0  0  0  0
 12  8  2  0  0  0  0
 13 12  1  0  0  0  0
 13 11  2  0  0  0  0
 14 27  2  0  0  0  0
 14 22  1  0  0  0  0
 15 18  2  0  0  0  0
 15  9  1  0  0  0  0
 18  6  1  0  0  0  0
 19 16  1  0  0  0  0
 20 29  1  1  0  0  0
 21 22  2  0  0  0  0
 21  4  1  0  0  0  0
 22 13  1  0  0  0  0
 23 14  1  0  0  0  0
 24  7  1  0  0  0  0
 25  5  1  0  0  0  0
 26  9  1  0  0  0  0
 27  2  1  0  0  0  0
 28  6  1  0  0  0  0
 28 23  2  0  0  0  0
 29 30  1  0  0  0  0
 30 32  1  0  0  0  0
 31 30  2  0  0  0  0
M  END
>  <MODEL>
3

>  <REMARK>
 VINA RESULT:      -9.3      2.581      4.438
  Name = 
  1 active torsions:
  status: ('A' for Active; 'I' for Inactive)
    1  A    between atoms: C_20  and  N_29
                            x       y       z     vdW  Elec       q    Type
                         _______ _______ _______ _____ _____    ______ ____

>  <TORSDO>
F 1

$$$$
=
 OpenBabel11122412533D

 32 38  0  0  1  0  0  0  0  0999 V2000
  161.6750  201.9310  149.9980 C   0  0  1  0  0  3  0  0  0  0  0  0
  161.0730  206.5850  152.1630 C   0  0  0  0  0  0  0  0  0  0  0  0
  162.1270  209.7710  148.6360 C   0  0  0  0  0  3  0  0  0  0  0  0
  161.9580  210.7700  149.5370 N   0  0  0  0  0  0  0  0  0  0  0  0
  160.5490  207.4690  154.4500 C   0  0  0  0  0  0  0  0  0  0  0  0
  160.4090  208.5920  155.2600 C   0  0  0  0  0  0  0  0  0  0  0  0
  161.0730  204.1980  151.6660 C   0  0  0  0  0  0  0  0  0  0  0  0
  161.5820  205.7680  149.9150 C   0  0  0  0  0  3  0  0  0  0  0  0
  160.3940  210.7220  155.7890 N   0  0  0  0  0  0  0  0  0  0  0  0
  161.5780  203.3250  149.3540 C   0  0  2  0  0  3  0  0  0  0  0  0
  161.9530  208.4500  149.0380 C   0  0  0  0  0  3  0  0  0  0  0  0
  161.4230  206.8430  150.8090 C   0  0  0  0  0  0  0  0  0  0  0  0
  161.6070  208.1660  150.3660 C   0  0  0  0  0  0  0  0  0  0  0  0
  161.0970  209.0070  152.5990 C   0  0  0  0  0  0  0  0  0  0  0  0
  160.0830  210.0450  156.8880 N   0  0  0  0  0  0  0  0  0  0  0  0
  161.7800  201.9470  151.4290 O   0  0  0  0  0  0  0  0  0  0  0  0
  161.4050  204.4520  150.3360 C   0  0  0  0  0  0  0  0  0  0  0  0
  160.0810  208.7180  156.5990 C   0  0  0  0  0  3  0  0  0  0  0  0
  160.8440  202.7850  152.0740 C   0  0  0  0  0  2  0  0  0  0  0  0
  160.3590  202.4080  149.3880 C   0  0  1  0  0  3  0  0  0  0  0  0
  161.6280  210.5140  150.8040 N   0  0  0  0  0  0  0  0  0  0  0  0
  161.4440  209.2420  151.2600 C   0  0  0  0  0  0  0  0  0  0  0  0
  160.9400  210.1060  153.4720 C   0  0  0  0  0  3  0  0  0  0  0  0
  160.8970  205.2480  152.5630 C   0  0  0  0  0  3  0  0  0  0  0  0
  160.3410  206.2090  155.0050 O   0  0  0  0  0  1  0  0  0  0  0  0
  160.4910  212.1690  155.7210 C   0  0  0  0  0  1  0  0  0  0  0  0
  160.9030  207.6630  153.0760 C   0  0  0  0  0  0  0  0  0  0  0  0
  160.5960  209.8520  154.7910 C   0  0  0  0  0  0  0  0  0  0  0  0
  160.1820  201.7930  148.0840 N   0  0  0  0  0  2  0  0  0  0  0  0
  160.7880  202.3380  146.9130 C   0  0  0  0  0  0  0  0  0  0  0  0
  161.5740  203.4830  146.9930 O   0  0  0  0  0  1  0  0  0  0  0  0
  160.6110  201.7800  145.8010 O   0  0  0  0  0  0  0  0  0  0  0  0
  1 16  1  1  0  0  0
  2 24  1  0  0  0  0
  2 27  1  0  0  0  0
  3 11  2  0  0  0  0
  3  4  1  0  0  0  0
  4 21  2  0  0  0  0
  5 25  1  0  0  0  0
  5  6  1  0  0  0  0
  6 18  1  0  0  0  0
  7 19  1  0  0  0  0
  7 24  2  0  0  0  0
  8 17  2  0  0  0  0
  8 12  1  0  0  0  0
  9 15  1  0  0  0  0
 10 20  1  0  0  0  0
 10  1  1  0  0  0  0
 10 17  1  1  0  0  0
 11 13  1  0  0  0  0
 12  2  2  0  0  0  0
 13 12  1  0  0  0  0
 13 22  2  0  0  0  0
 14 27  1  0  0  0  0
 14 23  2  0  0  0  0
 16 19  1  0  0  0  0
 17  7  1  0  0  0  0
 18 15  2  0  0  0  0
 20 29  1  6  0  0  0
 20  1  1  0  0  0  0
 21 22  1  0  0  0  0
 22 14  1  0  0  0  0
 23 28  1  0  0  0  0
 26  9  1  0  0  0  0
 27  5  2  0  0  0  0
 28  6  2  0  0  0  0
 28  9  1  0  0  0  0
 30 31  1  0  0  0  0
 30 29  1  0  0  0  0
 32 30  2  0  0  0  0
M  END
>  <MODEL>
4

>  <REMARK>
 VINA RESULT:      -9.1      2.167      7.728
  Name = 
  1 active torsions:
  status: ('A' for Active; 'I' for Inactive)
    1  A    between atoms: C_20  and  N_29
                            x       y       z     vdW  Elec       q    Type
                         _______ _______ _______ _____ _____    ______ ____

>  <TORSDO>
F 1

$$$$
