=
 OpenBabel11122412373D

 30 35  0  0  1  0  0  0  0  0999 V2000
  161.2460  205.8580  150.0440 C   0  0  0  0  0  0  0  0  0  0  0  0
  161.1960  203.3600  149.8490 C   0  0  0  0  0  0  0  0  0  0  0  0
  160.8710  205.6450  154.1170 C   0  0  0  0  0  3  0  0  0  0  0  0
  161.2390  207.0270  150.8690 C   0  0  0  0  0  0  0  0  0  0  0  0
  161.3410  206.0080  148.6540 C   0  0  0  0  0  3  0  0  0  0  0  0
  161.6700  209.6410  148.2410 O   0  0  0  0  0  1  0  0  0  0  0  0
  160.5100  209.8550  151.9880 C   0  0  1  0  0  3  0  0  0  0  0  0
  161.5130  208.3990  148.8510 C   0  0  0  0  0  0  0  0  0  0  0  0
  160.7300  209.1550  153.2320 N   0  0  0  0  0  0  0  0  0  0  0  0
  160.8030  206.9720  154.4760 C   0  0  0  0  0  0  0  0  0  0  0  0
  161.4580  207.2580  148.0550 C   0  0  0  0  0  0  0  0  0  0  0  0
  161.4240  208.3030  150.2520 C   0  0  0  0  0  0  0  0  0  0  0  0
  161.1320  202.1140  150.4770 C   0  0  0  0  0  3  0  0  0  0  0  0
  160.7140  210.0400  154.3810 C   0  0  0  0  0  2  0  0  0  0  0  0
  160.4690  211.3320  152.3370 C   0  0  0  0  0  2  0  0  0  0  0  0
  161.2880  203.3700  148.4960 F   0  0  0  0  0  0  0  0  0  0  0  0
  161.0240  205.5760  152.7780 N   0  0  0  0  0  0  0  0  0  0  0  0
  161.0400  202.0220  151.8630 C   0  0  0  0  0  3  0  0  0  0  0  0
  161.1710  204.5560  150.6180 C   0  0  0  0  0  0  0  0  0  0  0  0
  161.0700  206.8250  152.2650 C   0  0  0  0  0  0  0  0  0  0  0  0
  160.5760  207.4520  155.8680 C   0  0  0  0  0  1  0  0  0  0  0  0
  160.9060  207.7320  153.3170 C   0  0  0  0  0  0  0  0  0  0  0  0
  160.3300  211.4060  153.8500 C   0  0  0  0  0  2  0  0  0  0  0  0
  163.0350  209.6500  151.6160 C   0  0  0  0  0  1  0  0  0  0  0  0
  161.0090  203.1800  152.6330 C   0  0  0  0  0  3  0  0  0  0  0  0
  161.0750  204.4450  152.0270 C   0  0  0  0  0  0  0  0  0  0  0  0
  161.6370  209.5770  151.0100 C   0  0  2  0  0  3  0  0  0  0  0  0
  161.5360  207.3810  146.6660 O   0  0  0  0  0  0  0  0  0  0  0  0
  160.3520  206.1180  145.1970 C   0  0  0  0  0  1  0  0  0  0  0  0
  161.6390  206.2760  145.8480 N   0  0  0  0  0  2  0  0  0  0  0  0
  1 19  1  0  0  0  0
  1  4  1  0  0  0  0
  2 13  2  0  0  0  0
  2 19  1  0  0  0  0
  3 10  2  0  0  0  0
  4 20  1  0  0  0  0
  5  1  2  0  0  0  0
  6  8  1  0  0  0  0
  7 15  1  1  0  0  0
  7  9  1  0  0  0  0
  8 12  1  0  0  0  0
  9 22  1  0  0  0  0
  9 14  1  0  0  0  0
 10 21  1  0  0  0  0
 11  5  1  0  0  0  0
 11  8  2  0  0  0  0
 12  4  2  0  0  0  0
 12 27  1  0  0  0  0
 13 18  1  0  0  0  0
 15 23  1  0  0  0  0
 16  2  1  0  0  0  0
 17  3  1  0  0  0  0
 18 25  2  0  0  0  0
 19 26  2  0  0  0  0
 20 17  1  0  0  0  0
 20 22  2  0  0  0  0
 22 10  1  0  0  0  0
 23 14  1  0  0  0  0
 26 25  1  0  0  0  0
 26 17  1  0  0  0  0
 27 24  1  1  0  0  0
 27  7  1  0  0  0  0
 28 11  1  0  0  0  0
 29 30  1  0  0  0  0
 30 28  1  0  0  0  0
M  END
>  <MODEL>
1

>  <REMARK>
 VINA RESULT:      -8.5      0.000      0.000
  Name = 
  2 active torsions:
  status: ('A' for Active; 'I' for Inactive)
    1  A    between atoms: C_11  and  O_28
    2  A    between atoms: O_28  and  N_30
                            x       y       z     vdW  Elec       q    Type
                         _______ _______ _______ _____ _____    ______ ____

>  <TORSDO>
F 2

$$$$
=
 OpenBabel11122412373D

 30 35  0  0  1  0  0  0  0  0999 V2000
  161.4790  208.3290  151.6450 C   0  0  0  0  0  0  0  0  0  0  0  0
  161.2250  208.8730  154.0780 C   0  0  0  0  0  0  0  0  0  0  0  0
  160.8140  204.3520  152.3660 C   0  0  0  0  0  3  0  0  0  0  0  0
  161.4480  207.3600  150.5920 C   0  0  0  0  0  0  0  0  0  0  0  0
  161.7490  209.6670  151.3290 C   0  0  0  0  0  3  0  0  0  0  0  0
  162.0420  209.6030  147.6710 O   0  0  0  0  0  1  0  0  0  0  0  0
  162.2690  205.7020  148.0710 C   0  0  1  0  0  3  0  0  0  0  0  0
  161.8690  209.1640  148.9810 C   0  0  0  0  0  0  0  0  0  0  0  0
  161.6570  204.6560  148.8550 N   0  0  0  0  0  0  0  0  0  0  0  0
  160.9770  203.7950  151.1180 C   0  0  0  0  0  0  0  0  0  0  0  0
  161.9570  210.0860  150.0200 C   0  0  0  0  0  0  0  0  0  0  0  0
  161.5990  207.8080  149.2440 C   0  0  0  0  0  0  0  0  0  0  0  0
  160.9590  208.4370  155.3780 C   0  0  0  0  0  3  0  0  0  0  0  0
  161.5140  203.4150  148.1180 C   0  0  0  0  0  2  0  0  0  0  0  0
  162.4300  205.1390  146.6700 C   0  0  0  0  0  2  0  0  0  0  0  0
  161.4690  210.1950  153.9040 F   0  0  0  0  0  0  0  0  0  0  0  0
  160.9850  205.6860  152.2600 N   0  0  0  0  0  0  0  0  0  0  0  0
  160.6960  207.0940  155.6360 C   0  0  0  0  0  3  0  0  0  0  0  0
  161.2290  207.9500  152.9960 C   0  0  0  0  0  0  0  0  0  0  0  0
  161.2410  206.0070  150.9720 C   0  0  0  0  0  0  0  0  0  0  0  0
  160.9220  202.3330  150.8390 C   0  0  0  0  0  1  0  0  0  0  0  0
  161.2680  204.8230  150.2280 C   0  0  0  0  0  0  0  0  0  0  0  0
  162.2040  203.6400  146.7870 C   0  0  0  0  0  2  0  0  0  0  0  0
  159.9080  206.6560  147.8000 C   0  0  0  0  0  1  0  0  0  0  0  0
  160.7000  206.1750  154.5930 C   0  0  0  0  0  3  0  0  0  0  0  0
  160.9610  206.5880  153.2760 C   0  0  0  0  0  0  0  0  0  0  0  0
  161.3880  206.9370  148.0430 C   0  0  2  0  0  3  0  0  0  0  0  0
  162.2390  211.4240  149.7330 O   0  0  0  0  0  0  0  0  0  0  0  0
  161.6830  213.1090  148.3150 C   0  0  0  0  0  1  0  0  0  0  0  0
  161.2370  212.3280  149.4540 N   0  0  0  0  0  2  0  0  0  0  0  0
  1 19  1  0  0  0  0
  2 13  1  0  0  0  0
  4 20  1  0  0  0  0
  4  1  2  0  0  0  0
  5  1  1  0  0  0  0
  6  8  1  0  0  0  0
  7 15  1  6  0  0  0
  7  9  1  0  0  0  0
  8 12  2  0  0  0  0
  8 11  1  0  0  0  0
  9 22  1  0  0  0  0
 10  3  2  0  0  0  0
 11  5  2  0  0  0  0
 12  4  1  0  0  0  0
 13 18  2  0  0  0  0
 14  9  1  0  0  0  0
 15 23  1  0  0  0  0
 16  2  1  0  0  0  0
 17  3  1  0  0  0  0
 17 26  1  0  0  0  0
 19 26  1  0  0  0  0
 19  2  2  0  0  0  0
 20 17  1  0  0  0  0
 21 10  1  0  0  0  0
 22 20  2  0  0  0  0
 22 10  1  0  0  0  0
 23 14  1  0  0  0  0
 25 18  1  0  0  0  0
 26 25  2  0  0  0  0
 27 24  1  1  0  0  0
 27  7  1  0  0  0  0
 27 12  1  0  0  0  0
 28 11  1  0  0  0  0
 29 30  1  0  0  0  0
 30 28  1  0  0  0  0
M  END
>  <MODEL>
2

>  <REMARK>
 VINA RESULT:      -8.1      2.407      5.599
  Name = 
  2 active torsions:
  status: ('A' for Active; 'I' for Inactive)
    1  A    between atoms: C_11  and  O_28
    2  A    between atoms: O_28  and  N_30
                            x       y       z     vdW  Elec       q    Type
                         _______ _______ _______ _____ _____    ______ ____

>  <TORSDO>
F 2

$$$$
=
 OpenBabel11122412373D

 30 35  0  0  1  0  0  0  0  0999 V2000
  161.3750  208.0900  151.4480 C   0  0  0  0  0  0  0  0  0  0  0  0
  161.7150  210.4980  150.8430 C   0  0  0  0  0  0  0  0  0  0  0  0
  161.8430  206.9420  147.5450 C   0  0  0  0  0  3  0  0  0  0  0  0
  161.3300  206.7170  151.0490 C   0  0  0  0  0  0  0  0  0  0  0  0
  161.1710  208.4130  152.7970 C   0  0  0  0  0  3  0  0  0  0  0  0
  160.7900  205.1230  154.3790 O   0  0  0  0  0  1  0  0  0  0  0  0
  160.3630  203.7610  150.7200 C   0  0  1  0  0  3  0  0  0  0  0  0
  160.9690  206.0920  153.3960 C   0  0  0  0  0  0  0  0  0  0  0  0
  160.9360  203.9720  149.4110 N   0  0  0  0  0  0  0  0  0  0  0  0
  161.6200  205.5850  147.6080 C   0  0  0  0  0  0  0  0  0  0  0  0
  160.9550  207.4360  153.7630 C   0  0  0  0  0  0  0  0  0  0  0  0
  161.1720  205.7150  152.0560 C   0  0  0  0  0  0  0  0  0  0  0  0
  161.9870  211.4570  149.8640 C   0  0  0  0  0  3  0  0  0  0  0  0
  160.9940  202.7550  148.6240 C   0  0  0  0  0  2  0  0  0  0  0  0
  160.1390  202.2650  150.8450 C   0  0  0  0  0  2  0  0  0  0  0  0
  161.5380  210.9390  152.1130 F   0  0  0  0  0  0  0  0  0  0  0  0
  161.7410  207.4470  148.7920 N   0  0  0  0  0  0  0  0  0  0  0  0
  162.1830  211.0800  148.5380 C   0  0  0  0  0  3  0  0  0  0  0  0
  161.6360  209.1200  150.4990 C   0  0  0  0  0  0  0  0  0  0  0  0
  161.4730  206.4470  149.6610 C   0  0  0  0  0  0  0  0  0  0  0  0
  161.5910  204.6850  146.4220 C   0  0  0  0  0  1  0  0  0  0  0  0
  161.3650  205.2580  148.9340 C   0  0  0  0  0  0  0  0  0  0  0  0
  160.2870  201.6940  149.4430 C   0  0  0  0  0  2  0  0  0  0  0  0
  162.7640  203.8360  151.6040 C   0  0  0  0  0  1  0  0  0  0  0  0
  162.1060  209.7390  148.1800 C   0  0  0  0  0  3  0  0  0  0  0  0
  161.8370  208.7550  149.1460 C   0  0  0  0  0  0  0  0  0  0  0  0
  161.3080  204.2440  151.8040 C   0  0  2  0  0  3  0  0  0  0  0  0
  160.7390  207.7850  155.0980 O   0  0  0  0  0  0  0  0  0  0  0  0
  161.9470  208.6430  156.8180 C   0  0  0  0  0  1  0  0  0  0  0  0
  161.2040  208.9740  155.6170 N   0  0  0  0  0  2  0  0  0  0  0  0
  1  5  1  0  0  0  0
  2 16  1  0  0  0  0
  3 10  2  0  0  0  0
  3 17  1  0  0  0  0
  4  1  2  0  0  0  0
  4 12  1  0  0  0  0
  5 11  2  0  0  0  0
  7 15  1  1  0  0  0
  7 27  1  0  0  0  0
  8 11  1  0  0  0  0
  8  6  1  0  0  0  0
  9  7  1  0  0  0  0
 10 22  1  0  0  0  0
 11 28  1  0  0  0  0
 12  8  2  0  0  0  0
 13  2  2  0  0  0  0
 14  9  1  0  0  0  0
 14 23  1  0  0  0  0
 17 26  1  0  0  0  0
 17 20  1  0  0  0  0
 18 13  1  0  0  0  0
 19  2  1  0  0  0  0
 19  1  1  0  0  0  0
 20  4  1  0  0  0  0
 21 10  1  0  0  0  0
 22  9  1  0  0  0  0
 22 20  2  0  0  0  0
 23 15  1  0  0  0  0
 25 18  2  0  0  0  0
 25 26  1  0  0  0  0
 26 19  2  0  0  0  0
 27 24  1  6  0  0  0
 27 12  1  0  0  0  0
 28 30  1  0  0  0  0
 30 29  1  0  0  0  0
M  END
>  <MODEL>
3

>  <REMARK>
 VINA RESULT:      -7.8      2.986      7.232
  Name = 
  2 active torsions:
  status: ('A' for Active; 'I' for Inactive)
    1  A    between atoms: C_11  and  O_28
    2  A    between atoms: O_28  and  N_30
                            x       y       z     vdW  Elec       q    Type
                         _______ _______ _______ _____ _____    ______ ____

>  <TORSDO>
F 2

$$$$
=
 OpenBabel11122412373D

 30 35  0  0  1  0  0  0  0  0999 V2000
  161.3560  207.4870  150.9080 C   0  0  0  0  0  0  0  0  0  0  0  0
  161.3320  205.2200  149.8400 C   0  0  0  0  0  0  0  0  0  0  0  0
  160.5610  205.8680  154.5860 C   0  0  0  0  0  3  0  0  0  0  0  0
  161.2600  208.2910  152.0890 C   0  0  0  0  0  0  0  0  0  0  0  0
  161.5940  208.1130  149.6780 C   0  0  0  0  0  3  0  0  0  0  0  0
  161.9560  211.6450  150.6090 O   0  0  0  0  0  1  0  0  0  0  0  0
  160.4130  210.5680  154.0570 C   0  0  1  0  0  3  0  0  0  0  0  0
  161.7400  210.2740  150.7230 C   0  0  0  0  0  0  0  0  0  0  0  0
  160.5040  209.4690  154.9890 N   0  0  0  0  0  0  0  0  0  0  0  0
  160.4520  206.9860  155.3830 C   0  0  0  0  0  0  0  0  0  0  0  0
  161.7700  209.4890  149.5730 C   0  0  0  0  0  0  0  0  0  0  0  0
  161.5060  209.6950  151.9830 C   0  0  0  0  0  0  0  0  0  0  0  0
  161.2060  203.8360  149.9780 C   0  0  0  0  0  3  0  0  0  0  0  0
  160.3670  209.8930  156.3690 C   0  0  0  0  0  2  0  0  0  0  0  0
  160.3320  211.8280  154.9000 C   0  0  0  0  0  2  0  0  0  0  0  0
  161.5630  205.7020  148.5940 F   0  0  0  0  0  0  0  0  0  0  0  0
  160.8510  206.2690  153.3310 N   0  0  0  0  0  0  0  0  0  0  0  0
  160.9700  203.2660  151.2260 C   0  0  0  0  0  3  0  0  0  0  0  0
  161.2240  206.0700  150.9750 C   0  0  0  0  0  0  0  0  0  0  0  0
  160.9480  207.6170  153.3000 C   0  0  0  0  0  0  0  0  0  0  0  0
  160.0810  206.9530  156.8250 C   0  0  0  0  0  1  0  0  0  0  0  0
  160.6730  208.1010  154.5830 C   0  0  0  0  0  0  0  0  0  0  0  0
  160.0370  211.3710  156.3200 C   0  0  0  0  0  2  0  0  0  0  0  0
  162.9640  210.4200  153.8860 C   0  0  0  0  0  1  0  0  0  0  0  0
  160.8570  204.0800  152.3490 C   0  0  0  0  0  3  0  0  0  0  0  0
  160.9830  205.4730  152.2370 C   0  0  0  0  0  0  0  0  0  0  0  0
  161.6360  210.6130  153.1600 C   0  0  2  0  0  3  0  0  0  0  0  0
  161.9920  210.0900  148.3320 O   0  0  0  0  0  0  0  0  0  0  0  0
  162.1080  212.2030  147.5110 C   0  0  0  0  0  1  0  0  0  0  0  0
  161.2060  211.1290  147.8830 N   0  0  0  0  0  2  0  0  0  0  0  0
  1 19  1  0  0  0  0
  1  4  1  0  0  0  0
  2 13  2  0  0  0  0
  2 19  1  0  0  0  0
  3 10  2  0  0  0  0
  4 20  1  0  0  0  0
  5  1  2  0  0  0  0
  6  8  1  0  0  0  0
  7 15  1  1  0  0  0
  7  9  1  0  0  0  0
  8 12  1  0  0  0  0
  9 14  1  0  0  0  0
 10 21  1  0  0  0  0
 11  5  1  0  0  0  0
 11  8  2  0  0  0  0
 12  4  2  0  0  0  0
 12 27  1  0  0  0  0
 13 18  1  0  0  0  0
 15 23  1  0  0  0  0
 16  2  1  0  0  0  0
 17  3  1  0  0  0  0
 18 25  2  0  0  0  0
 19 26  2  0  0  0  0
 20 17  1  0  0  0  0
 20 22  2  0  0  0  0
 22  9  1  0  0  0  0
 22 10  1  0  0  0  0
 23 14  1  0  0  0  0
 26 25  1  0  0  0  0
 26 17  1  0  0  0  0
 27 24  1  1  0  0  0
 27  7  1  0  0  0  0
 28 11  1  0  0  0  0
 29 30  1  0  0  0  0
 30 28  1  0  0  0  0
M  END
>  <MODEL>
4

>  <REMARK>
 VINA RESULT:      -6.9      1.810      2.497
  Name = 
  2 active torsions:
  status: ('A' for Active; 'I' for Inactive)
    1  A    between atoms: C_11  and  O_28
    2  A    between atoms: O_28  and  N_30
                            x       y       z     vdW  Elec       q    Type
                         _______ _______ _______ _____ _____    ______ ____

>  <TORSDO>
F 2

$$$$
=
 OpenBabel11122412373D

 30 35  0  0  1  0  0  0  0  0999 V2000
  161.5070  207.3890  150.7260 C   0  0  0  0  0  0  0  0  0  0  0  0
  161.2580  207.3590  153.2200 C   0  0  0  0  0  0  0  0  0  0  0  0
  160.8840  203.3470  150.5180 C   0  0  0  0  0  3  0  0  0  0  0  0
  161.4810  206.6870  149.4790 C   0  0  0  0  0  0  0  0  0  0  0  0
  161.7620  208.7670  150.7250 C   0  0  0  0  0  3  0  0  0  0  0  0
  162.0410  209.5460  147.1480 O   0  0  0  0  0  1  0  0  0  0  0  0
  162.3080  205.6600  146.6440 C   0  0  1  0  0  3  0  0  0  0  0  0
  161.8780  208.8160  148.3230 C   0  0  0  0  0  0  0  0  0  0  0  0
  161.7090  204.4550  147.1690 N   0  0  0  0  0  0  0  0  0  0  0  0
  161.0480  203.0920  149.1750 C   0  0  0  0  0  0  0  0  0  0  0  0
  161.9620  209.4770  149.5460 C   0  0  0  0  0  0  0  0  0  0  0  0
  161.6230  207.4340  148.2690 C   0  0  0  0  0  0  0  0  0  0  0  0
  161.0010  206.6340  154.3860 C   0  0  0  0  0  3  0  0  0  0  0  0
  161.5760  203.4150  146.1670 C   0  0  0  0  0  2  0  0  0  0  0  0
  162.4690  205.4340  145.1510 C   0  0  0  0  0  2  0  0  0  0  0  0
  161.4890  208.6880  153.3520 F   0  0  0  0  0  0  0  0  0  0  0  0
  161.0420  204.6710  150.7200 N   0  0  0  0  0  0  0  0  0  0  0  0
  160.7530  205.2650  154.3300 C   0  0  0  0  0  3  0  0  0  0  0  0
  161.2670  206.7090  151.9550 C   0  0  0  0  0  0  0  0  0  0  0  0
  161.2890  205.2810  149.5400 C   0  0  0  0  0  0  0  0  0  0  0  0
  161.0050  201.7320  148.5690 C   0  0  0  0  0  1  0  0  0  0  0  0
  161.3240  204.2990  148.5440 C   0  0  0  0  0  0  0  0  0  0  0  0
  162.2580  203.9460  144.9220 C   0  0  0  0  0  2  0  0  0  0  0  0
  159.9370  206.6250  146.6030 C   0  0  0  0  0  1  0  0  0  0  0  0
  160.7610  204.6090  153.1030 C   0  0  0  0  0  3  0  0  0  0  0  0
  161.0130  205.3160  151.9160 C   0  0  0  0  0  0  0  0  0  0  0  0
  161.4150  206.8590  146.9010 C   0  0  2  0  0  3  0  0  0  0  0  0
  162.2290  210.8480  149.5720 O   0  0  0  0  0  0  0  0  0  0  0  0
  162.0040  212.7910  148.4190 C   0  0  0  0  0  1  0  0  0  0  0  0
  161.2910  211.7740  149.1690 N   0  0  0  0  0  2  0  0  0  0  0  0
  1 19  1  0  0  0  0
  2 16  1  0  0  0  0
  2 13  1  0  0  0  0
  3 17  1  0  0  0  0
  4 20  1  0  0  0  0
  4  1  2  0  0  0  0
  5  1  1  0  0  0  0
  6  8  1  0  0  0  0
  7 15  1  6  0  0  0
  7 27  1  0  0  0  0
  7  9  1  0  0  0  0
  8 11  1  0  0  0  0
  9 22  1  0  0  0  0
 10  3  2  0  0  0  0
 11 28  1  0  0  0  0
 11  5  2  0  0  0  0
 12  8  2  0  0  0  0
 12  4  1  0  0  0  0
 14  9  1  0  0  0  0
 17 26  1  0  0  0  0
 18 13  2  0  0  0  0
 19  2  2  0  0  0  0
 20 17  1  0  0  0  0
 21 10  1  0  0  0  0
 22 10  1  0  0  0  0
 22 20  2  0  0  0  0
 23 15  1  0  0  0  0
 23 14  1  0  0  0  0
 25 18  1  0  0  0  0
 26 19  1  0  0  0  0
 26 25  2  0  0  0  0
 27 24  1  1  0  0  0
 27 12  1  0  0  0  0
 29 30  1  0  0  0  0
 30 28  1  0  0  0  0
M  END
>  <MODEL>
5

>  <REMARK>
 VINA RESULT:      -6.0      2.292      5.798
  Name = 
  2 active torsions:
  status: ('A' for Active; 'I' for Inactive)
    1  A    between atoms: C_11  and  O_28
    2  A    between atoms: O_28  and  N_30
                            x       y       z     vdW  Elec       q    Type
                         _______ _______ _______ _____ _____    ______ ____

>  <TORSDO>
F 2

$$$$
=
 OpenBabel11122412373D

 30 35  0  0  1  0  0  0  0  0999 V2000
  160.2230  212.1820  151.6760 C   0  0  0  0  0  0  0  0  0  0  0  0
  160.6300  213.3000  149.4710 C   0  0  0  0  0  0  0  0  0  0  0  0
  162.3340  208.8760  150.4990 C   0  0  0  0  0  3  0  0  0  0  0  0
  160.4340  211.0650  152.5460 C   0  0  0  0  0  0  0  0  0  0  0  0
  159.4600  213.2640  152.1340 C   0  0  0  0  0  3  0  0  0  0  0  0
  158.6670  212.3080  155.5880 O   0  0  0  0  0  1  0  0  0  0  0  0
  159.8780  208.7210  154.5400 C   0  0  1  0  0  3  0  0  0  0  0  0
  159.1740  212.2440  154.2930 C   0  0  0  0  0  0  0  0  0  0  0  0
  160.9260  208.1190  153.7510 N   0  0  0  0  0  0  0  0  0  0  0  0
  162.1920  208.0350  151.5800 C   0  0  0  0  0  0  0  0  0  0  0  0
  158.9250  213.2980  153.4180 C   0  0  0  0  0  0  0  0  0  0  0  0
  159.9370  211.1350  153.8840 C   0  0  0  0  0  0  0  0  0  0  0  0
  161.2210  213.2670  148.2060 C   0  0  0  0  0  3  0  0  0  0  0  0
  161.3820  206.8550  154.2970 C   0  0  0  0  0  2  0  0  0  0  0  0
  159.7170  207.8420  155.7680 C   0  0  0  0  0  2  0  0  0  0  0  0
  159.9160  214.4060  149.7950 F   0  0  0  0  0  0  0  0  0  0  0  0
  161.6940  210.0310  150.7740 N   0  0  0  0  0  0  0  0  0  0  0  0
  161.9710  212.1660  147.8030 C   0  0  0  0  0  3  0  0  0  0  0  0
  160.7870  212.2080  150.3680 C   0  0  0  0  0  0  0  0  0  0  0  0
  161.1540  209.9630  152.0110 C   0  0  0  0  0  0  0  0  0  0  0  0
  162.7120  206.6400  151.6300 C   0  0  0  0  0  1  0  0  0  0  0  0
  161.4320  208.6970  152.5360 C   0  0  0  0  0  0  0  0  0  0  0  0
  160.4670  206.5540  155.4680 C   0  0  0  0  0  2  0  0  0  0  0  0
  161.6890  210.2820  155.4570 C   0  0  0  0  0  1  0  0  0  0  0  0
  162.1340  211.0850  148.6630 C   0  0  0  0  0  3  0  0  0  0  0  0
  161.5520  211.0950  149.9410 C   0  0  0  0  0  0  0  0  0  0  0  0
  160.2580  210.1320  154.9500 C   0  0  2  0  0  3  0  0  0  0  0  0
  158.1550  214.3820  153.8440 O   0  0  0  0  0  0  0  0  0  0  0  0
  156.1320  214.4530  154.8730 C   0  0  0  0  0  1  0  0  0  0  0  0
  156.8030  214.4530  153.5860 N   0  0  0  0  0  2  0  0  0  0  0  0
  1  5  2  0  0  0  0
  1  4  1  0  0  0  0
  2 16  1  0  0  0  0
  2 19  1  0  0  0  0
  3 17  1  0  0  0  0
  3 10  2  0  0  0  0
  4 12  2  0  0  0  0
  5 11  1  0  0  0  0
  7 27  1  0  0  0  0
  7 15  1  1  0  0  0
  8  6  1  0  0  0  0
  9 14  1  0  0  0  0
  9  7  1  0  0  0  0
 10 21  1  0  0  0  0
 10 22  1  0  0  0  0
 11 28  1  0  0  0  0
 11  8  2  0  0  0  0
 12  8  1  0  0  0  0
 12 27  1  0  0  0  0
 13  2  2  0  0  0  0
 14 23  1  0  0  0  0
 17 20  1  0  0  0  0
 18 13  1  0  0  0  0
 18 25  2  0  0  0  0
 19  1  1  0  0  0  0
 20 22  2  0  0  0  0
 20  4  1  0  0  0  0
 22  9  1  0  0  0  0
 23 15  1  0  0  0  0
 25 26  1  0  0  0  0
 26 19  2  0  0  0  0
 26 17  1  0  0  0  0
 27 24  1  6  0  0  0
 30 28  1  0  0  0  0
 30 29  1  0  0  0  0
M  END
>  <MODEL>
6

>  <REMARK>
 VINA RESULT:      -5.6      4.212      7.424
  Name = 
  2 active torsions:
  status: ('A' for Active; 'I' for Inactive)
    1  A    between atoms: C_11  and  O_28
    2  A    between atoms: O_28  and  N_30
                            x       y       z     vdW  Elec       q    Type
                         _______ _______ _______ _____ _____    ______ ____

>  <TORSDO>
F 2

$$$$
