=
 OpenBabel11122413173D

 31 35  0  0  1  0  0  0  0  0999 V2000
  160.4640  207.4640  155.8420 C   0  0  0  0  0  0  0  0  0  0  0  0
  161.9910  208.8250  152.6320 C   0  0  2  0  0  3  0  0  0  0  0  0
  161.5130  207.9620  151.4760 C   0  0  0  0  0  0  0  0  0  0  0  0
  158.3250  212.6490  152.0540 O   0  0  0  0  0  0  0  0  0  0  0  0
  159.3070  212.8990  151.3060 C   0  0  0  0  0  0  0  0  0  0  0  0
  160.6200  205.8630  150.6300 C   0  0  0  0  0  0  0  0  0  0  0  0
  161.1180  208.6780  153.8500 C   0  0  0  0  0  0  0  0  0  0  0  0
  159.3830  208.3330  156.0200 C   0  0  0  0  0  3  0  0  0  0  0  0
  161.0380  206.6600  151.6990 C   0  0  0  0  0  3  0  0  0  0  0  0
  160.7440  211.0090  152.2610 C   0  0  0  0  0  0  0  0  0  0  0  0
  160.6680  206.4500  156.7180 F   0  0  0  0  0  0  0  0  0  0  0  0
  162.1250  209.7090  149.8890 O   0  0  0  0  0  0  0  0  0  0  0  0
  160.1510  204.6140  150.8600 F   0  0  0  0  0  0  0  0  0  0  0  0
  159.8460  210.6570  153.1370 N   0  0  0  0  0  0  0  0  0  0  0  0
  162.0960  210.3180  152.2390 C   0  0  2  0  0  3  0  0  0  0  0  0
  160.5130  212.1260  151.3920 N   0  0  0  0  0  2  0  0  0  0  0  0
  161.3280  207.6310  154.7560 C   0  0  0  0  0  3  0  0  0  0  0  0
  160.6840  206.3560  149.3250 C   0  0  0  0  0  3  0  0  0  0  0  0
  160.0400  209.5600  154.0390 C   0  0  0  0  0  0  0  0  0  0  0  0
  159.1710  209.3810  155.1190 C   0  0  0  0  0  3  0  0  0  0  0  0
  162.8030  210.4610  150.8920 C   0  0  0  0  0  2  0  0  0  0  0  0
  161.6110  208.4370  150.1500 C   0  0  0  0  0  0  0  0  0  0  0  0
  161.1800  207.6400  149.0860 C   0  0  0  0  0  3  0  0  0  0  0  0
  157.8990  213.2280  147.8020 N   0  0  0  0  0  0  0  0  0  0  0  0
  157.7250  214.3230  149.9910 C   0  0  0  0  0  2  0  0  0  0  0  0
  161.2670  213.2910  149.2710 O   0  0  0  0  0  1  0  0  0  0  0  0
  157.2700  212.2230  146.9660 C   0  0  0  0  0  1  0  0  0  0  0  0
  157.1280  213.2810  149.0430 C   0  0  0  0  0  2  0  0  0  0  0  0
  159.9740  213.7400  148.9980 C   0  0  2  0  0  3  0  0  0  0  0  0
  159.1910  214.0040  150.2970 C   0  0  2  0  0  3  0  0  0  0  0  0
  159.2410  212.7370  148.1080 C   0  0  0  0  0  2  0  0  0  0  0  0
  1  8  1  0  0  0  0
  1 11  1  0  0  0  0
  2  3  1  6  0  0  0
  2  7  1  0  0  0  0
  3  9  1  0  0  0  0
  5 16  1  0  0  0  0
  5  4  2  0  0  0  0
  6 13  1  0  0  0  0
  6  9  2  0  0  0  0
  7 19  2  0  0  0  0
  7 17  1  0  0  0  0
 10 14  2  0  0  0  0
 12 22  1  0  0  0  0
 12 21  1  0  0  0  0
 14 19  1  0  0  0  0
 15 21  1  6  0  0  0
 15 10  1  0  0  0  0
 15  2  1  0  0  0  0
 16 10  1  0  0  0  0
 17  1  2  0  0  0  0
 18  6  1  0  0  0  0
 19 20  1  0  0  0  0
 20  8  2  0  0  0  0
 22  3  2  0  0  0  0
 23 18  2  0  0  0  0
 23 22  1  0  0  0  0
 24 31  1  0  0  0  0
 24 28  1  0  0  0  0
 25 30  1  0  0  0  0
 27 24  1  0  0  0  0
 28 25  1  0  0  0  0
 29 26  1  1  0  0  0
 29 30  1  0  0  0  0
 30  5  1  1  0  0  0
 31 29  1  0  0  0  0
M  END
>  <MODEL>
1

>  <REMARK>
 VINA RESULT:      -6.6      0.000      0.000
  Name = 
  1 active torsions:
  status: ('A' for Active; 'I' for Inactive)
    1  A    between atoms: C_5  and  C_30
                            x       y       z     vdW  Elec       q    Type
                         _______ _______ _______ _____ _____    ______ ____

>  <TORSDO>
F 1

$$$$
=
 OpenBabel11122413173D

 31 35  0  0  1  0  0  0  0  0999 V2000
  161.4730  207.8430  137.9400 C   0  0  0  0  0  0  0  0  0  0  0  0
  159.8630  211.2750  138.2830 C   0  0  2  0  0  3  0  0  0  0  0  0
  158.3770  211.0780  138.5410 C   0  0  0  0  0  0  0  0  0  0  0  0
  161.2640  211.8470  143.3920 O   0  0  0  0  0  0  0  0  0  0  0  0
  160.9150  212.9660  142.9300 C   0  0  0  0  0  0  0  0  0  0  0  0
  156.3700  209.7110  138.4110 C   0  0  0  0  0  0  0  0  0  0  0  0
  160.6600  210.0330  138.5820 C   0  0  0  0  0  0  0  0  0  0  0  0
  162.0140  207.6660  139.2180 C   0  0  0  0  0  3  0  0  0  0  0  0
  157.7400  209.8780  138.1910 C   0  0  0  0  0  3  0  0  0  0  0  0
  160.7190  212.1110  140.5250 C   0  0  0  0  0  0  0  0  0  0  0  0
  161.6000  206.8650  137.0110 F   0  0  0  0  0  0  0  0  0  0  0  0
  158.1980  213.3600  139.3830 O   0  0  0  0  0  0  0  0  0  0  0  0
  155.7700  208.5420  138.0810 F   0  0  0  0  0  0  0  0  0  0  0  0
  161.1200  210.9100  140.8330 N   0  0  0  0  0  0  0  0  0  0  0  0
  160.4370  212.4710  139.0780 C   0  0  2  0  0  3  0  0  0  0  0  0
  160.6570  213.1340  141.5290 N   0  0  0  0  0  2  0  0  0  0  0  0
  160.7920  209.0220  137.6230 C   0  0  0  0  0  3  0  0  0  0  0  0
  155.6210  210.7480  138.9710 C   0  0  0  0  0  3  0  0  0  0  0  0
  161.2170  209.8600  139.8610 C   0  0  0  0  0  0  0  0  0  0  0  0
  161.8860  208.6750  140.1780 C   0  0  0  0  0  3  0  0  0  0  0  0
  159.5160  213.6840  138.9470 C   0  0  0  0  0  2  0  0  0  0  0  0
  157.6050  212.1350  139.0700 C   0  0  0  0  0  0  0  0  0  0  0  0
  156.2370  211.9580  139.2970 C   0  0  0  0  0  3  0  0  0  0  0  0
  161.2140  213.4750  146.6740 N   0  0  0  0  0  0  0  0  0  0  0  0
  162.0570  214.4530  144.5870 C   0  0  0  0  0  2  0  0  0  0  0  0
  158.4430  213.4710  144.2600 O   0  0  0  0  0  1  0  0  0  0  0  0
  161.5450  212.5140  147.7090 C   0  0  0  0  0  1  0  0  0  0  0  0
  162.3230  213.4600  145.7210 C   0  0  0  0  0  2  0  0  0  0  0  0
  159.6030  213.9300  144.8870 C   0  0  2  0  0  3  0  0  0  0  0  0
  160.7440  214.1220  143.8720 C   0  0  2  0  0  3  0  0  0  0  0  0
  160.0160  212.9730  146.0040 C   0  0  0  0  0  2  0  0  0  0  0  0
  1  8  1  0  0  0  0
  2  3  1  1  0  0  0
  2  7  1  0  0  0  0
  2 15  1  0  0  0  0
  3 22  1  0  0  0  0
  5  4  2  0  0  0  0
  6 18  2  0  0  0  0
  7 19  2  0  0  0  0
  8 20  2  0  0  0  0
  9  6  1  0  0  0  0
  9  3  2  0  0  0  0
 10 14  2  0  0  0  0
 10 16  1  0  0  0  0
 11  1  1  0  0  0  0
 13  6  1  0  0  0  0
 15 21  1  1  0  0  0
 15 10  1  0  0  0  0
 16  5  1  0  0  0  0
 17  1  2  0  0  0  0
 17  7  1  0  0  0  0
 18 23  1  0  0  0  0
 19 20  1  0  0  0  0
 19 14  1  0  0  0  0
 21 12  1  0  0  0  0
 22 23  2  0  0  0  0
 22 12  1  0  0  0  0
 24 27  1  0  0  0  0
 25 28  1  0  0  0  0
 28 24  1  0  0  0  0
 29 26  1  6  0  0  0
 29 31  1  0  0  0  0
 30  5  1  1  0  0  0
 30 25  1  0  0  0  0
 30 29  1  0  0  0  0
 31 24  1  0  0  0  0
M  END
>  <MODEL>
2

>  <REMARK>
 VINA RESULT:      -6.0      8.198     12.238
  Name = 
  1 active torsions:
  status: ('A' for Active; 'I' for Inactive)
    1  A    between atoms: C_5  and  C_30
                            x       y       z     vdW  Elec       q    Type
                         _______ _______ _______ _____ _____    ______ ____

>  <TORSDO>
F 1

$$$$
=
 OpenBabel11122413173D

 31 35  0  0  1  0  0  0  0  0999 V2000
  160.8160  208.3670  154.9910 C   0  0  0  0  0  0  0  0  0  0  0  0
  162.1700  209.3050  151.5590 C   0  0  2  0  0  3  0  0  0  0  0  0
  161.6040  208.3270  150.5420 C   0  0  0  0  0  0  0  0  0  0  0  0
  158.5520  213.1340  150.7520 O   0  0  0  0  0  0  0  0  0  0  0  0
  159.4910  213.2690  149.9240 C   0  0  0  0  0  0  0  0  0  0  0  0
  160.6190  206.1700  150.0020 C   0  0  0  0  0  0  0  0  0  0  0  0
  161.3700  209.3240  152.8350 C   0  0  0  0  0  0  0  0  0  0  0  0
  159.7660  209.2800  155.1280 C   0  0  0  0  0  3  0  0  0  0  0  0
  161.1180  207.0730  150.9440 C   0  0  0  0  0  3  0  0  0  0  0  0
  160.9460  211.4640  151.0080 C   0  0  0  0  0  0  0  0  0  0  0  0
  161.0530  207.4570  155.9660 F   0  0  0  0  0  0  0  0  0  0  0  0
  162.1510  209.8620  148.7270 O   0  0  0  0  0  0  0  0  0  0  0  0
  160.1400  204.9680  150.4050 F   0  0  0  0  0  0  0  0  0  0  0  0
  160.0960  211.2410  151.9700 N   0  0  0  0  0  0  0  0  0  0  0  0
  162.2800  210.7390  150.9870 C   0  0  2  0  0  3  0  0  0  0  0  0
  160.6840  212.4800  150.0290 N   0  0  0  0  0  2  0  0  0  0  0  0
  161.6150  208.3840  153.8430 C   0  0  0  0  0  3  0  0  0  0  0  0
  160.6120  206.5060  148.6470 C   0  0  0  0  0  3  0  0  0  0  0  0
  160.3240  210.2510  152.9810 C   0  0  0  0  0  0  0  0  0  0  0  0
  159.5200  210.2220  154.1240 C   0  0  0  0  0  3  0  0  0  0  0  0
  162.9050  210.7060  149.5930 C   0  0  0  0  0  2  0  0  0  0  0  0
  161.6290  208.6420  149.1660 C   0  0  0  0  0  0  0  0  0  0  0  0
  161.1180  207.7390  148.2300 C   0  0  0  0  0  3  0  0  0  0  0  0
  159.4260  213.0670  146.1390 N   0  0  0  0  0  0  0  0  0  0  0  0
  158.0740  213.9620  147.9810 C   0  0  0  0  0  2  0  0  0  0  0  0
  161.7430  214.4510  148.6340 O   0  0  0  0  0  1  0  0  0  0  0  0
  159.5740  211.9100  145.2770 C   0  0  0  0  0  1  0  0  0  0  0  0
  158.3030  212.7840  147.0310 C   0  0  0  0  0  2  0  0  0  0  0  0
  160.5690  214.3480  147.8860 C   0  0  2  0  0  3  0  0  0  0  0  0
  159.3340  214.2520  148.8000 C   0  0  2  0  0  3  0  0  0  0  0  0
  160.6470  213.1520  146.9390 C   0  0  0  0  0  2  0  0  0  0  0  0
  1  8  1  0  0  0  0
  1 11  1  0  0  0  0
  2  3  1  6  0  0  0
  2  7  1  0  0  0  0
  3  9  1  0  0  0  0
  5 16  1  0  0  0  0
  5  4  2  0  0  0  0
  6 13  1  0  0  0  0
  6  9  2  0  0  0  0
  7 19  2  0  0  0  0
  7 17  1  0  0  0  0
 10 14  2  0  0  0  0
 12 22  1  0  0  0  0
 12 21  1  0  0  0  0
 14 19  1  0  0  0  0
 15 21  1  6  0  0  0
 15 10  1  0  0  0  0
 15  2  1  0  0  0  0
 16 10  1  0  0  0  0
 17  1  2  0  0  0  0
 18  6  1  0  0  0  0
 19 20  1  0  0  0  0
 20  8  2  0  0  0  0
 22  3  2  0  0  0  0
 23 18  2  0  0  0  0
 23 22  1  0  0  0  0
 24 31  1  0  0  0  0
 24 28  1  0  0  0  0
 25 30  1  0  0  0  0
 27 24  1  0  0  0  0
 28 25  1  0  0  0  0
 29 26  1  1  0  0  0
 29 30  1  0  0  0  0
 30  5  1  1  0  0  0
 31 29  1  0  0  0  0
M  END
>  <MODEL>
3

>  <REMARK>
 VINA RESULT:      -5.6      1.246      1.455
  Name = 
  1 active torsions:
  status: ('A' for Active; 'I' for Inactive)
    1  A    between atoms: C_5  and  C_30
                            x       y       z     vdW  Elec       q    Type
                         _______ _______ _______ _____ _____    ______ ____

>  <TORSDO>
F 1

$$$$
=
 OpenBabel11122413173D

 31 35  0  0  1  0  0  0  0  0999 V2000
  161.6310  206.0810  152.7230 C   0  0  0  0  0  0  0  0  0  0  0  0
  159.9180  209.3450  153.6710 C   0  0  2  0  0  3  0  0  0  0  0  0
  160.7530  210.0250  154.7440 C   0  0  0  0  0  0  0  0  0  0  0  0
  161.9500  212.0540  149.5560 O   0  0  0  0  0  0  0  0  0  0  0  0
  160.9940  212.7080  150.0530 C   0  0  0  0  0  0  0  0  0  0  0  0
  162.4080  209.9150  156.5240 C   0  0  0  0  0  0  0  0  0  0  0  0
  160.7050  208.3120  152.9090 C   0  0  0  0  0  0  0  0  0  0  0  0
  162.3030  206.4550  151.5540 C   0  0  0  0  0  3  0  0  0  0  0  0
  161.6590  209.2890  155.5240 C   0  0  0  0  0  3  0  0  0  0  0  0
  160.2950  210.8260  151.6390 C   0  0  0  0  0  0  0  0  0  0  0  0
  161.7590  204.8200  153.2030 F   0  0  0  0  0  0  0  0  0  0  0  0
  159.6440  212.1500  154.2930 O   0  0  0  0  0  0  0  0  0  0  0  0
  163.2880  209.1960  157.2610 F   0  0  0  0  0  0  0  0  0  0  0  0
  161.2020  210.0030  151.1940 N   0  0  0  0  0  0  0  0  0  0  0  0
  159.2970  210.3640  152.6860 C   0  0  2  0  0  3  0  0  0  0  0  0
  160.1540  212.1310  151.0620 N   0  0  0  0  0  2  0  0  0  0  0  0
  160.8380  207.0090  153.4040 C   0  0  0  0  0  3  0  0  0  0  0  0
  162.2510  211.2820  156.7610 C   0  0  0  0  0  3  0  0  0  0  0  0
  161.3680  208.6820  151.7260 C   0  0  0  0  0  0  0  0  0  0  0  0
  162.1710  207.7550  151.0560 C   0  0  0  0  0  3  0  0  0  0  0  0
  158.6740  211.5300  153.4530 C   0  0  0  0  0  2  0  0  0  0  0  0
  160.5730  211.3980  155.0180 C   0  0  0  0  0  0  0  0  0  0  0  0
  161.3330  212.0220  156.0110 C   0  0  0  0  0  3  0  0  0  0  0  0
  159.2350  214.3420  147.1190 N   0  0  0  0  0  0  0  0  0  0  0  0
  159.2660  214.4530  149.5710 C   0  0  0  0  0  2  0  0  0  0  0  0
  162.7330  213.9930  148.1920 O   0  0  0  0  0  1  0  0  0  0  0  0
  158.5400  213.7260  146.0050 C   0  0  0  0  0  1  0  0  0  0  0  0
  158.5920  213.8490  148.3370 C   0  0  0  0  0  2  0  0  0  0  0  0
  161.4120  214.4430  148.2370 C   0  0  2  0  0  3  0  0  0  0  0  0
  160.7600  214.1180  149.5930 C   0  0  2  0  0  3  0  0  0  0  0  0
  160.6080  213.8440  147.0830 C   0  0  0  0  0  2  0  0  0  0  0  0
  1 11  1  0  0  0  0
  1 17  1  0  0  0  0
  2  7  1  6  0  0  0
  2  3  1  0  0  0  0
  3 22  2  0  0  0  0
  3  9  1  0  0  0  0
  4  5  2  0  0  0  0
  5 16  1  0  0  0  0
  6 18  1  0  0  0  0
  6 13  1  0  0  0  0
  7 17  2  0  0  0  0
  8  1  2  0  0  0  0
  9  6  2  0  0  0  0
 10 15  1  0  0  0  0
 12 22  1  0  0  0  0
 14 10  2  0  0  0  0
 14 19  1  0  0  0  0
 15 21  1  1  0  0  0
 15  2  1  0  0  0  0
 16 10  1  0  0  0  0
 19  7  1  0  0  0  0
 20  8  1  0  0  0  0
 20 19  2  0  0  0  0
 21 12  1  0  0  0  0
 22 23  1  0  0  0  0
 23 18  2  0  0  0  0
 24 28  1  0  0  0  0
 25 30  1  0  0  0  0
 27 24  1  0  0  0  0
 28 25  1  0  0  0  0
 29 26  1  1  0  0  0
 29 30  1  0  0  0  0
 30  5  1  6  0  0  0
 31 24  1  0  0  0  0
 31 29  1  0  0  0  0
M  END
>  <MODEL>
4

>  <REMARK>
 VINA RESULT:      -5.3      2.022      4.311
  Name = 
  1 active torsions:
  status: ('A' for Active; 'I' for Inactive)
    1  A    between atoms: C_5  and  C_30
                            x       y       z     vdW  Elec       q    Type
                         _______ _______ _______ _____ _____    ______ ____

>  <TORSDO>
F 1

$$$$
=
 OpenBabel11122413173D

 31 35  0  0  1  0  0  0  0  0999 V2000
  162.1390  213.7980  147.0180 C   0  0  0  0  0  0  0  0  0  0  0  0
  159.8770  214.4500  150.0090 C   0  0  2  0  0  3  0  0  0  0  0  0
  158.4370  214.2370  149.5700 C   0  0  0  0  0  0  0  0  0  0  0  0
  160.5730  209.5900  152.0820 O   0  0  0  0  0  0  0  0  0  0  0  0
  160.0710  210.3460  152.9550 C   0  0  0  0  0  0  0  0  0  0  0  0
  156.7540  214.1250  147.8180 C   0  0  0  0  0  0  0  0  0  0  0  0
  160.8590  213.7930  149.0740 C   0  0  0  0  0  0  0  0  0  0  0  0
  162.5600  212.4890  147.2730 C   0  0  0  0  0  3  0  0  0  0  0  0
  158.0820  214.3000  148.2140 C   0  0  0  0  0  3  0  0  0  0  0  0
  160.3070  212.4540  151.5240 C   0  0  0  0  0  0  0  0  0  0  0  0
  162.5510  214.4340  145.8940 F   0  0  0  0  0  0  0  0  0  0  0  0
  157.7360  214.0260  151.8960 O   0  0  0  0  0  0  0  0  0  0  0  0
  156.4270  214.1750  146.5050 F   0  0  0  0  0  0  0  0  0  0  0  0
  160.8920  211.8230  150.5460 N   0  0  0  0  0  0  0  0  0  0  0  0
  160.1230  213.9590  151.4560 C   0  0  2  0  0  3  0  0  0  0  0  0
  159.9410  211.7550  152.7220 N   0  0  0  0  0  2  0  0  0  0  0  0
  161.2850  214.4490  147.9130 C   0  0  0  0  0  3  0  0  0  0  0  0
  155.7640  213.8970  148.7770 C   0  0  0  0  0  3  0  0  0  0  0  0
  161.2940  212.4830  149.3380 C   0  0  0  0  0  0  0  0  0  0  0  0
  162.1370  211.8320  148.4330 C   0  0  0  0  0  3  0  0  0  0  0  0
  159.0080  214.4530  152.3780 C   0  0  0  0  0  2  0  0  0  0  0  0
  157.4240  214.0450  150.5340 C   0  0  0  0  0  0  0  0  0  0  0  0
  156.0990  213.8590  150.1320 C   0  0  0  0  0  3  0  0  0  0  0  0
  161.0240  210.6340  156.6130 N   0  0  0  0  0  0  0  0  0  0  0  0
  159.0380  210.8250  155.1840 C   0  0  0  0  0  2  0  0  0  0  0  0
  161.2440  207.9950  154.0650 O   0  0  0  0  0  1  0  0  0  0  0  0
  162.0760  211.4190  157.2300 C   0  0  0  0  0  1  0  0  0  0  0  0
  160.1830  211.5720  155.8710 C   0  0  0  0  0  2  0  0  0  0  0  0
  160.6270  208.8740  154.9570 C   0  0  2  0  0  3  0  0  0  0  0  0
  159.5810  209.7470  154.2410 C   0  0  2  0  0  3  0  0  0  0  0  0
  161.6740  209.7370  155.6610 C   0  0  0  0  0  2  0  0  0  0  0  0
  1  8  2  0  0  0  0
  1 17  1  0  0  0  0
  2  7  1  6  0  0  0
  2 15  1  0  0  0  0
  3  2  1  0  0  0  0
  3 22  1  0  0  0  0
  4  5  2  0  0  0  0
  6  9  1  0  0  0  0
  6 18  2  0  0  0  0
  7 19  1  0  0  0  0
  8 20  1  0  0  0  0
  9  3  2  0  0  0  0
 10 16  1  0  0  0  0
 11  1  1  0  0  0  0
 12 21  1  0  0  0  0
 13  6  1  0  0  0  0
 14 10  2  0  0  0  0
 15 10  1  0  0  0  0
 15 21  1  1  0  0  0
 16  5  1  0  0  0  0
 17  7  2  0  0  0  0
 18 23  1  0  0  0  0
 19 14  1  0  0  0  0
 20 19  2  0  0  0  0
 22 12  1  0  0  0  0
 23 22  2  0  0  0  0
 24 27  1  0  0  0  0
 25 28  1  0  0  0  0
 28 24  1  0  0  0  0
 29 26  1  6  0  0  0
 29 31  1  0  0  0  0
 30  5  1  6  0  0  0
 30 29  1  0  0  0  0
 30 25  1  0  0  0  0
 31 24  1  0  0  0  0
M  END
>  <MODEL>
5

>  <REMARK>
 VINA RESULT:      -5.2      4.077      7.828
  Name = 
  1 active torsions:
  status: ('A' for Active; 'I' for Inactive)
    1  A    between atoms: C_5  and  C_30
                            x       y       z     vdW  Elec       q    Type
                         _______ _______ _______ _____ _____    ______ ____

>  <TORSDO>
F 1

$$$$
=
 OpenBabel11122413173D

 31 35  0  0  1  0  0  0  0  0999 V2000
  162.2270  212.5340  147.8280 C   0  0  0  0  0  0  0  0  0  0  0  0
  159.9370  213.9390  150.5240 C   0  0  2  0  0  3  0  0  0  0  0  0
  158.5010  213.8050  150.0440 C   0  0  0  0  0  0  0  0  0  0  0  0
  159.9920  209.4770  153.4380 O   0  0  0  0  0  0  0  0  0  0  0  0
  159.5440  210.4240  154.1370 C   0  0  0  0  0  0  0  0  0  0  0  0
  156.8860  213.5620  148.2410 C   0  0  0  0  0  0  0  0  0  0  0  0
  160.8740  213.0270  149.7750 C   0  0  0  0  0  0  0  0  0  0  0  0
  162.4850  211.2540  148.3290 C   0  0  0  0  0  3  0  0  0  0  0  0
  158.2090  213.6640  148.6780 C   0  0  0  0  0  3  0  0  0  0  0  0
  160.0760  212.2090  152.3820 C   0  0  0  0  0  0  0  0  0  0  0  0
  162.7530  212.9130  146.6380 F   0  0  0  0  0  0  0  0  0  0  0  0
  157.6880  214.0840  152.3260 O   0  0  0  0  0  0  0  0  0  0  0  0
  156.6190  213.4130  146.9220 F   0  0  0  0  0  0  0  0  0  0  0  0
  160.6240  211.3570  151.5620 N   0  0  0  0  0  0  0  0  0  0  0  0
  160.0670  213.6890  152.0460 C   0  0  2  0  0  3  0  0  0  0  0  0
  159.5850  211.7760  153.6580 N   0  0  0  0  0  2  0  0  0  0  0  0
  161.4170  213.4190  148.5460 C   0  0  0  0  0  3  0  0  0  0  0  0
  155.8400  213.6130  149.1640 C   0  0  0  0  0  3  0  0  0  0  0  0
  161.1460  211.7460  150.2850 C   0  0  0  0  0  0  0  0  0  0  0  0
  161.9450  210.8610  149.5570 C   0  0  0  0  0  3  0  0  0  0  0  0
  158.9800  214.4530  152.8020 C   0  0  0  0  0  2  0  0  0  0  0  0
  157.4350  213.8940  150.9650 C   0  0  0  0  0  0  0  0  0  0  0  0
  156.1140  213.7810  150.5240 C   0  0  0  0  0  3  0  0  0  0  0  0
  158.2560  212.4680  157.0590 N   0  0  0  0  0  0  0  0  0  0  0  0
  157.5100  210.6610  155.5760 C   0  0  0  0  0  2  0  0  0  0  0  0
  161.1290  210.2440  156.5020 O   0  0  0  0  0  1  0  0  0  0  0  0
  158.2160  213.9080  157.2260 C   0  0  0  0  0  1  0  0  0  0  0  0
  157.5200  212.1690  155.8310 C   0  0  0  0  0  2  0  0  0  0  0  0
  159.7890  210.5980  156.6650 C   0  0  2  0  0  3  0  0  0  0  0  0
  158.9380  210.1180  155.4760 C   0  0  2  0  0  3  0  0  0  0  0  0
  159.6590  212.1090  156.8590 C   0  0  0  0  0  2  0  0  0  0  0  0
  1  8  2  0  0  0  0
  1 17  1  0  0  0  0
  2  7  1  6  0  0  0
  2 15  1  0  0  0  0
  3  2  1  0  0  0  0
  3 22  1  0  0  0  0
  4  5  2  0  0  0  0
  6  9  1  0  0  0  0
  6 18  2  0  0  0  0
  7 19  1  0  0  0  0
  8 20  1  0  0  0  0
  9  3  2  0  0  0  0
 10 16  1  0  0  0  0
 11  1  1  0  0  0  0
 12 21  1  0  0  0  0
 13  6  1  0  0  0  0
 14 10  2  0  0  0  0
 15 10  1  0  0  0  0
 15 21  1  1  0  0  0
 16  5  1  0  0  0  0
 17  7  2  0  0  0  0
 18 23  1  0  0  0  0
 19 14  1  0  0  0  0
 20 19  2  0  0  0  0
 22 12  1  0  0  0  0
 23 22  2  0  0  0  0
 24 27  1  0  0  0  0
 25 28  1  0  0  0  0
 28 24  1  0  0  0  0
 29 26  1  6  0  0  0
 29 31  1  0  0  0  0
 30  5  1  6  0  0  0
 30 25  1  0  0  0  0
 30 29  1  0  0  0  0
 31 24  1  0  0  0  0
M  END
>  <MODEL>
6

>  <REMARK>
 VINA RESULT:      -4.2      3.930      7.359
  Name = 
  1 active torsions:
  status: ('A' for Active; 'I' for Inactive)
    1  A    between atoms: C_5  and  C_30
                            x       y       z     vdW  Elec       q    Type
                         _______ _______ _______ _____ _____    ______ ____

>  <TORSDO>
F 1

$$$$
