=
 OpenBabel11122414013D

 37 43  0  0  1  0  0  0  0  0999 V2000
  161.9650  208.7520  148.3410 C   0  0  0  0  0  0  0  0  0  0  0  0
  161.3340  211.1820  151.2560 C   0  0  1  0  0  3  0  0  0  0  0  0
  161.1390  210.1300  154.3330 O   0  0  0  0  0  0  0  0  0  0  0  0
  162.6600  211.0630  149.0400 C   0  0  2  0  0  3  0  0  0  0  0  0
  160.6920  209.9860  151.9590 C   0  0  2  0  0  3  0  0  0  0  0  0
  162.4850  210.5580  150.4760 C   0  0  2  0  0  3  0  0  0  0  0  0
  160.1490  210.3260  153.3590 C   0  0  2  0  0  3  0  0  0  0  0  0
  162.3010  212.4800  148.9630 N   0  0  0  0  0  2  0  0  0  0  0  0
  162.2990  209.0490  150.6170 C   0  0  2  0  0  3  0  0  0  0  0  0
  163.2640  208.2680  148.2670 F   0  0  0  0  0  0  0  0  0  0  0  0
  159.3970  212.8020  151.2110 C   0  0  0  0  0  2  0  0  0  0  0  0
  160.8670  212.6940  149.2090 C   0  0  0  0  0  2  0  0  0  0  0  0
  161.4110  208.5610  149.6240 O   0  0  0  0  0  0  0  0  0  0  0  0
  160.2790  207.8440  154.6590 C   0  0  0  0  0  2  0  0  0  0  0  0
  160.6210  209.2120  155.2660 C   0  0  0  0  0  2  0  0  0  0  0  0
  160.2830  211.8780  150.3770 C   0  0  1  0  0  3  0  0  0  0  0  0
  161.6970  208.9130  151.9490 N   0  0  2  0  0  0  0  0  0  0  0  0
  161.9210  210.2330  147.9880 C   0  0  0  0  0  2  0  0  0  0  0  0
  159.5140  211.7270  153.4750 C   0  0  1  0  0  3  0  0  0  0  0  0
  161.1940  208.0650  147.4230 F   0  0  0  0  0  0  0  0  0  0  0  0
  161.3980  207.3190  153.7780 C   0  0  0  0  0  2  0  0  0  0  0  0
  161.1190  207.5920  152.2980 C   0  0  2  0  0  3  0  0  0  0  0  0
  158.6120  212.0610  152.2880 C   0  0  0  0  0  2  0  0  0  0  0  0
  159.4610  212.6020  155.8990 C   0  0  0  0  0  2  0  0  0  0  0  0
  158.7660  211.8860  154.7660 C   0  0  0  0  0  0  0  0  0  0  0  0
  157.5260  211.3990  154.8970 C   0  0  0  0  0  3  0  0  0  0  0  0
  155.6430  211.0980  156.2880 O   0  0  0  0  0  0  0  0  0  0  0  0
  157.4440  212.2120  157.2610 N   0  0  0  0  0  0  0  0  0  0  0  0
  156.8110  211.5510  156.1630 C   0  0  0  0  0  0  0  0  0  0  0  0
  158.6450  212.6960  157.1660 C   0  0  0  0  0  3  0  0  0  0  0  0
  161.7270  206.4240  151.5050 C   0  0  1  0  0  3  0  0  0  0  0  0
  161.0270  205.1440  151.8500 N   0  0  0  0  0  0  0  0  0  0  0  0
  160.8110  205.9240  150.6000 C   0  0  2  0  0  3  0  0  0  0  0  0
  161.5250  205.2350  149.4560 C   0  0  0  0  0  2  0  0  0  0  0  0
  160.7690  204.1480  149.0220 O   0  0  0  0  0  1  0  0  0  0  0  0
  160.7690  202.8010  152.1980 C   0  0  0  0  0  2  0  0  0  0  0  0
  160.7660  204.0290  152.6950 C   0  0  0  0  0  3  0  0  0  0  0  0
  1 13  1  0  0  0  0
  2  5  1  0  0  0  0
  3 15  1  0  0  0  0
  4  6  1  0  0  0  0
  5  7  1  0  0  0  0
  6  9  1  0  0  0  0
  6  2  1  0  0  0  0
  7 19  1  0  0  0  0
  7  3  1  0  0  0  0
  8  4  1  0  0  0  0
  8 12  1  0  0  0  0
  9 17  1  0  0  0  0
 10  1  1  0  0  0  0
 11 23  1  0  0  0  0
 12 16  1  0  0  0  0
 13  9  1  0  0  0  0
 14 15  1  0  0  0  0
 16 11  1  0  0  0  0
 16  2  1  0  0  0  0
 17  5  1  0  0  0  0
 17 22  1  0  0  0  0
 18  1  1  0  0  0  0
 18  4  1  0  0  0  0
 19 25  1  0  0  0  0
 20  1  1  0  0  0  0
 21 14  1  0  0  0  0
 22 21  1  0  0  0  0
 23 19  1  0  0  0  0
 24 30  1  0  0  0  0
 25 26  2  0  0  0  0
 25 24  1  0  0  0  0
 26 29  1  0  0  0  0
 29 27  2  0  0  0  0
 29 28  1  0  0  0  0
 30 28  2  0  0  0  0
 31 32  1  0  0  0  0
 31 22  1  0  0  0  0
 32 37  1  0  0  0  0
 33 31  1  0  0  0  0
 33 32  1  0  0  0  0
 34 33  1  0  0  0  0
 35 34  1  0  0  0  0
 36 37  2  0  0  0  0
M  END
>  <MODEL>
1

>  <REMARK>
 VINA RESULT:      -5.3      0.000      0.000
  Name = 
  4 active torsions:
  status: ('A' for Active; 'I' for Inactive)
    1  A    between atoms: C_1  and  C_27
    2  A    between atoms: N_4  and  C_37
    3  A    between atoms: C_8  and  C_12
    4  A    between atoms: C_23  and  C_30
                            x       y       z     vdW  Elec       q    Type
                         _______ _______ _______ _____ _____    ______ ____

>  <TORSDO>
F 4

$$$$
=
 OpenBabel11122414013D

 37 43  0  0  1  0  0  0  0  0999 V2000
  159.3160  211.3690  156.5720 C   0  0  0  0  0  0  0  0  0  0  0  0
  161.5780  209.1680  154.3720 C   0  0  1  0  0  3  0  0  0  0  0  0
  162.2650  209.9810  151.2940 O   0  0  0  0  0  0  0  0  0  0  0  0
  161.4110  210.0030  156.8130 C   0  0  2  0  0  3  0  0  0  0  0  0
  160.7870  209.7370  153.1940 C   0  0  2  0  0  3  0  0  0  0  0  0
  161.6660  210.3420  155.3410 C   0  0  2  0  0  3  0  0  0  0  0  0
  161.2450  209.1830  151.8330 C   0  0  2  0  0  3  0  0  0  0  0  0
  161.9220  208.6650  157.1120 N   0  0  0  0  0  2  0  0  0  0  0  0
  160.7560  211.4190  154.7550 C   0  0  2  0  0  3  0  0  0  0  0  0
  159.9070  212.5480  157.0060 F   0  0  0  0  0  0  0  0  0  0  0  0
  161.1290  206.6980  154.0960 C   0  0  0  0  0  2  0  0  0  0  0  0
  161.1650  207.6210  156.4050 C   0  0  0  0  0  2  0  0  0  0  0  0
  159.4150  211.2220  155.1730 O   0  0  0  0  0  0  0  0  0  0  0  0
  160.5390  211.2610  150.0860 C   0  0  0  0  0  2  0  0  0  0  0  0
  161.8200  210.4160  150.0300 C   0  0  0  0  0  2  0  0  0  0  0  0
  160.8410  207.9430  154.9340 C   0  0  1  0  0  3  0  0  0  0  0  0
  160.8750  211.2000  153.3070 N   0  0  2  0  0  0  0  0  0  0  0  0
  159.9540  210.1640  157.2520 C   0  0  0  0  0  2  0  0  0  0  0  0
  161.6450  207.6940  151.8510 C   0  0  1  0  0  3  0  0  0  0  0  0
  157.9780  211.4030  156.9170 F   0  0  0  0  0  0  0  0  0  0  0  0
  160.6140  212.3330  151.1570 C   0  0  0  0  0  2  0  0  0  0  0  0
  159.8960  211.8960  152.4360 C   0  0  2  0  0  3  0  0  0  0  0  0
  160.6660  206.8340  152.6490 C   0  0  0  0  0  2  0  0  0  0  0  0
  162.6500  207.9460  149.4910 C   0  0  0  0  0  2  0  0  0  0  0  0
  161.8100  207.1520  150.4620 C   0  0  0  0  0  0  0  0  0  0  0  0
  161.2210  206.0030  150.1070 C   0  0  0  0  0  3  0  0  0  0  0  0
  160.8310  204.4090  148.4110 O   0  0  0  0  0  0  0  0  0  0  0  0
  162.1580  206.2230  147.7980 N   0  0  0  0  0  0  0  0  0  0  0  0
  161.3800  205.4900  148.7470 C   0  0  0  0  0  0  0  0  0  0  0  0
  162.7420  207.3400  148.1120 C   0  0  0  0  0  3  0  0  0  0  0  0
  159.2970  213.1620  153.0700 C   0  0  1  0  0  3  0  0  0  0  0  0
  158.2240  213.7250  152.1860 N   0  0  0  0  0  0  0  0  0  0  0  0
  157.9820  212.9470  153.4330 C   0  0  2  0  0  3  0  0  0  0  0  0
  157.5810  213.8990  154.5410 C   0  0  0  0  0  2  0  0  0  0  0  0
  156.4370  213.4200  155.1750 O   0  0  0  0  0  1  0  0  0  0  0  0
  157.3750  213.8060  149.9620 C   0  0  0  0  0  2  0  0  0  0  0  0
  157.7670  214.4500  151.0500 C   0  0  0  0  0  3  0  0  0  0  0  0
  1 20  1  0  0  0  0
  1 10  1  0  0  0  0
  1 18  1  0  0  0  0
  2 16  1  0  0  0  0
  2  6  1  0  0  0  0
  3  7  1  0  0  0  0
  4  8  1  0  0  0  0
  4 18  1  0  0  0  0
  5 17  1  0  0  0  0
  5  2  1  0  0  0  0
  6  4  1  0  0  0  0
  7 19  1  0  0  0  0
  7  5  1  0  0  0  0
  9 13  1  0  0  0  0
  9  6  1  0  0  0  0
 11 16  1  0  0  0  0
 12  8  1  0  0  0  0
 13  1  1  0  0  0  0
 14 21  1  0  0  0  0
 15 14  1  0  0  0  0
 15  3  1  0  0  0  0
 16 12  1  0  0  0  0
 17  9  1  0  0  0  0
 19 23  1  0  0  0  0
 21 22  1  0  0  0  0
 22 31  1  0  0  0  0
 22 17  1  0  0  0  0
 23 11  1  0  0  0  0
 24 25  1  0  0  0  0
 25 19  1  0  0  0  0
 26 25  2  0  0  0  0
 27 29  2  0  0  0  0
 28 30  2  0  0  0  0
 28 29  1  0  0  0  0
 29 26  1  0  0  0  0
 30 24  1  0  0  0  0
 31 33  1  0  0  0  0
 32 31  1  0  0  0  0
 32 33  1  0  0  0  0
 33 34  1  0  0  0  0
 34 35  1  0  0  0  0
 36 37  2  0  0  0  0
 37 32  1  0  0  0  0
M  END
>  <MODEL>
2

>  <REMARK>
 VINA RESULT:      -5.0      3.224      8.095
  Name = 
  4 active torsions:
  status: ('A' for Active; 'I' for Inactive)
    1  A    between atoms: C_1  and  C_27
    2  A    between atoms: N_4  and  C_37
    3  A    between atoms: C_8  and  C_12
    4  A    between atoms: C_23  and  C_30
                            x       y       z     vdW  Elec       q    Type
                         _______ _______ _______ _____ _____    ______ ____

>  <TORSDO>
F 4

$$$$
=
 OpenBabel11122414013D

 37 43  0  0  1  0  0  0  0  0999 V2000
  159.8810  210.2410  154.8590 C   0  0  0  0  0  0  0  0  0  0  0  0
  161.6650  207.8270  152.4510 C   0  0  1  0  0  3  0  0  0  0  0  0
  162.6970  208.8050  149.5200 O   0  0  0  0  0  0  0  0  0  0  0  0
  161.5690  208.3820  154.9740 C   0  0  2  0  0  3  0  0  0  0  0  0
  161.1010  208.7090  151.3370 C   0  0  2  0  0  3  0  0  0  0  0  0
  161.9790  208.8200  153.5640 C   0  0  2  0  0  3  0  0  0  0  0  0
  161.4860  208.2240  149.9270 C   0  0  2  0  0  3  0  0  0  0  0  0
  161.7240  206.9330  155.1110 N   0  0  0  0  0  2  0  0  0  0  0  0
  161.3900  210.1490  153.0990 C   0  0  2  0  0  3  0  0  0  0  0  0
  160.7150  211.1770  155.4540 F   0  0  0  0  0  0  0  0  0  0  0  0
  160.6490  205.5940  151.8490 C   0  0  0  0  0  2  0  0  0  0  0  0
  160.7790  206.1990  154.2570 C   0  0  0  0  0  2  0  0  0  0  0  0
  160.0200  210.2400  153.4550 O   0  0  0  0  0  0  0  0  0  0  0  0
  161.4010  210.6040  148.4440 C   0  0  0  0  0  2  0  0  0  0  0  0
  162.4410  209.4820  148.3120 C   0  0  0  0  0  2  0  0  0  0  0  0
  160.6240  206.7630  152.8320 C   0  0  1  0  0  3  0  0  0  0  0  0
  161.5330  210.0810  151.6380 N   0  0  2  0  0  0  0  0  0  0  0  0
  160.1720  208.8440  155.3940 C   0  0  0  0  0  2  0  0  0  0  0  0
  161.5140  206.6910  149.7640 C   0  0  1  0  0  3  0  0  0  0  0  0
  158.5750  210.5610  155.1720 F   0  0  0  0  0  0  0  0  0  0  0  0
  161.6720  211.4900  149.6460 C   0  0  0  0  0  2  0  0  0  0  0  0
  160.8010  211.0940  150.8400 C   0  0  2  0  0  3  0  0  0  0  0  0
  160.3130  206.0110  150.4200 C   0  0  0  0  0  2  0  0  0  0  0  0
  160.4730  206.6480  147.4060 C   0  0  0  0  0  2  0  0  0  0  0  0
  161.6200  206.2940  148.3210 C   0  0  0  0  0  0  0  0  0  0  0  0
  162.7000  205.6410  147.8740 C   0  0  0  0  0  3  0  0  0  0  0  0
  163.8040  204.6390  146.0440 O   0  0  0  0  0  0  0  0  0  0  0  0
  161.7140  205.5580  145.5770 N   0  0  0  0  0  0  0  0  0  0  0  0
  162.7880  205.2490  146.4680 C   0  0  0  0  0  0  0  0  0  0  0  0
  160.6540  206.1900  145.9790 C   0  0  0  0  0  3  0  0  0  0  0  0
  160.4900  212.3850  151.6160 C   0  0  1  0  0  3  0  0  0  0  0  0
  159.8350  213.3870  150.7130 N   0  0  0  0  0  0  0  0  0  0  0  0
  159.1260  212.5640  151.7330 C   0  0  2  0  0  3  0  0  0  0  0  0
  158.8110  213.4300  152.9350 C   0  0  0  0  0  2  0  0  0  0  0  0
  157.5830  213.0510  153.4730 O   0  0  0  0  0  1  0  0  0  0  0  0
  159.1450  214.2010  148.5830 C   0  0  0  0  0  2  0  0  0  0  0  0
  159.8530  214.3740  149.6880 C   0  0  0  0  0  3  0  0  0  0  0  0
  1 20  1  0  0  0  0
  1 18  1  0  0  0  0
  1 10  1  0  0  0  0
  2 16  1  0  0  0  0
  2  6  1  0  0  0  0
  3  7  1  0  0  0  0
  4  8  1  0  0  0  0
  4 18  1  0  0  0  0
  5 17  1  0  0  0  0
  5  2  1  0  0  0  0
  6  4  1  0  0  0  0
  7  5  1  0  0  0  0
  9 13  1  0  0  0  0
  9  6  1  0  0  0  0
 11 16  1  0  0  0  0
 12  8  1  0  0  0  0
 13  1  1  0  0  0  0
 14 21  1  0  0  0  0
 15 14  1  0  0  0  0
 15  3  1  0  0  0  0
 16 12  1  0  0  0  0
 17  9  1  0  0  0  0
 19  7  1  0  0  0  0
 19 23  1  0  0  0  0
 21 22  1  0  0  0  0
 22 31  1  0  0  0  0
 22 17  1  0  0  0  0
 23 11  1  0  0  0  0
 24 25  1  0  0  0  0
 25 19  1  0  0  0  0
 26 25  2  0  0  0  0
 27 29  2  0  0  0  0
 28 30  2  0  0  0  0
 28 29  1  0  0  0  0
 29 26  1  0  0  0  0
 30 24  1  0  0  0  0
 31 33  1  0  0  0  0
 32 31  1  0  0  0  0
 32 33  1  0  0  0  0
 33 34  1  0  0  0  0
 34 35  1  0  0  0  0
 36 37  2  0  0  0  0
 37 32  1  0  0  0  0
M  END
>  <MODEL>
3

>  <REMARK>
 VINA RESULT:      -4.9      3.010      8.250
  Name = 
  4 active torsions:
  status: ('A' for Active; 'I' for Inactive)
    1  A    between atoms: C_1  and  C_27
    2  A    between atoms: N_4  and  C_37
    3  A    between atoms: C_8  and  C_12
    4  A    between atoms: C_23  and  C_30
                            x       y       z     vdW  Elec       q    Type
                         _______ _______ _______ _____ _____    ______ ____

>  <TORSDO>
F 4

$$$$
=
 OpenBabel11122414013D

 37 43  0  0  1  0  0  0  0  0999 V2000
  160.0850  211.4060  155.6460 C   0  0  0  0  0  0  0  0  0  0  0  0
  161.5790  208.0650  154.4570 C   0  0  1  0  0  3  0  0  0  0  0  0
  162.6390  207.6700  151.4020 O   0  0  0  0  0  0  0  0  0  0  0  0
  161.5880  209.5990  156.5370 C   0  0  2  0  0  3  0  0  0  0  0  0
  161.0790  208.4700  153.0700 C   0  0  2  0  0  3  0  0  0  0  0  0
  162.0100  209.3880  155.0790 C   0  0  2  0  0  3  0  0  0  0  0  0
  161.3870  207.4230  151.9850 C   0  0  2  0  0  3  0  0  0  0  0  0
  161.6060  208.3230  157.2520 N   0  0  0  0  0  2  0  0  0  0  0  0
  161.5420  210.4660  154.1040 C   0  0  2  0  0  3  0  0  0  0  0  0
  161.0170  212.4180  155.8290 F   0  0  0  0  0  0  0  0  0  0  0  0
  160.3410  205.8880  154.7890 C   0  0  0  0  0  2  0  0  0  0  0  0
  160.5770  207.4000  156.7480 C   0  0  0  0  0  2  0  0  0  0  0  0
  160.1940  210.8240  154.3660 O   0  0  0  0  0  0  0  0  0  0  0  0
  161.5000  208.9960  149.6650 C   0  0  0  0  0  2  0  0  0  0  0  0
  162.4250  207.8220  150.0190 C   0  0  0  0  0  2  0  0  0  0  0  0
  160.4480  207.3520  155.2140 C   0  0  1  0  0  3  0  0  0  0  0  0
  161.6470  209.8000  152.7990 N   0  0  2  0  0  0  0  0  0  0  0  0
  160.2510  210.3240  156.7060 C   0  0  0  0  0  2  0  0  0  0  0  0
  161.2640  205.9590  152.4560 C   0  0  1  0  0  3  0  0  0  0  0  0
  158.8220  211.9500  155.7760 F   0  0  0  0  0  0  0  0  0  0  0  0
  161.8800  210.2610  150.4110 C   0  0  0  0  0  2  0  0  0  0  0  0
  160.9990  210.4680  151.6450 C   0  0  2  0  0  3  0  0  0  0  0  0
  160.0170  205.7220  153.3070 C   0  0  0  0  0  2  0  0  0  0  0  0
  161.1830  205.5770  149.9080 C   0  0  0  0  0  2  0  0  0  0  0  0
  161.3020  205.0050  151.3000 C   0  0  0  0  0  0  0  0  0  0  0  0
  161.4310  203.6890  151.5100 C   0  0  0  0  0  3  0  0  0  0  0  0
  161.5810  201.5290  150.5690 O   0  0  0  0  0  0  0  0  0  0  0  0
  161.3330  203.2740  149.0450 N   0  0  0  0  0  0  0  0  0  0  0  0
  161.4560  202.7660  150.3750 C   0  0  0  0  0  0  0  0  0  0  0  0
  161.2060  204.5440  148.8080 C   0  0  0  0  0  3  0  0  0  0  0  0
  160.8310  211.9860  151.8260 C   0  0  1  0  0  3  0  0  0  0  0  0
  160.4570  212.6240  150.5220 N   0  0  0  0  0  0  0  0  0  0  0  0
  159.5120  212.3530  151.6400 C   0  0  2  0  0  3  0  0  0  0  0  0
  159.2200  213.6490  152.3680 C   0  0  0  0  0  2  0  0  0  0  0  0
  158.1020  213.4840  153.1820 O   0  0  0  0  0  1  0  0  0  0  0  0
  159.8090  213.7030  148.4990 C   0  0  0  0  0  2  0  0  0  0  0  0
  160.7550  213.1250  149.2230 C   0  0  0  0  0  3  0  0  0  0  0  0
  1 20  1  0  0  0  0
  1 10  1  0  0  0  0
  1 18  1  0  0  0  0
  2  6  1  0  0  0  0
  2 16  1  0  0  0  0
  3  7  1  0  0  0  0
  4 18  1  0  0  0  0
  4  8  1  0  0  0  0
  5  2  1  0  0  0  0
  6  4  1  0  0  0  0
  7 19  1  0  0  0  0
  7  5  1  0  0  0  0
  9 13  1  0  0  0  0
  9  6  1  0  0  0  0
 11 16  1  0  0  0  0
 12  8  1  0  0  0  0
 13  1  1  0  0  0  0
 14 15  1  0  0  0  0
 14 21  1  0  0  0  0
 15  3  1  0  0  0  0
 16 12  1  0  0  0  0
 17  5  1  0  0  0  0
 17  9  1  0  0  0  0
 19 23  1  0  0  0  0
 21 22  1  0  0  0  0
 22 31  1  0  0  0  0
 22 17  1  0  0  0  0
 23 11  1  0  0  0  0
 24 25  1  0  0  0  0
 25 26  2  0  0  0  0
 25 19  1  0  0  0  0
 28 29  1  0  0  0  0
 29 27  2  0  0  0  0
 29 26  1  0  0  0  0
 30 28  2  0  0  0  0
 30 24  1  0  0  0  0
 32 33  1  0  0  0  0
 32 31  1  0  0  0  0
 33 31  1  0  0  0  0
 33 34  1  0  0  0  0
 34 35  1  0  0  0  0
 36 37  2  0  0  0  0
 37 32  1  0  0  0  0
M  END
>  <MODEL>
4

>  <REMARK>
 VINA RESULT:      -4.2      2.944      7.945
  Name = 
  4 active torsions:
  status: ('A' for Active; 'I' for Inactive)
    1  A    between atoms: C_1  and  C_27
    2  A    between atoms: N_4  and  C_37
    3  A    between atoms: C_8  and  C_12
    4  A    between atoms: C_23  and  C_30
                            x       y       z     vdW  Elec       q    Type
                         _______ _______ _______ _____ _____    ______ ____

>  <TORSDO>
F 4

$$$$
=
 OpenBabel11122414013D

 37 43  0  0  1  0  0  0  0  0999 V2000
  160.2610  210.9670  153.9090 C   0  0  0  0  0  0  0  0  0  0  0  0
  161.6820  207.6360  152.6100 C   0  0  1  0  0  3  0  0  0  0  0  0
  162.9020  207.3670  149.6010 O   0  0  0  0  0  0  0  0  0  0  0  0
  161.6340  209.0480  154.7740 C   0  0  2  0  0  3  0  0  0  0  0  0
  161.2820  208.1410  151.2240 C   0  0  2  0  0  3  0  0  0  0  0  0
  162.1300  208.9010  153.3320 C   0  0  2  0  0  3  0  0  0  0  0  0
  161.6080  207.1430  150.0980 C   0  0  2  0  0  3  0  0  0  0  0  0
  161.5580  207.7340  155.4120 N   0  0  0  0  0  2  0  0  0  0  0  0
  161.7650  210.0520  152.3980 C   0  0  2  0  0  3  0  0  0  0  0  0
  161.2210  211.9250  154.2020 F   0  0  0  0  0  0  0  0  0  0  0  0
  160.3390  205.5010  152.7440 C   0  0  0  0  0  2  0  0  0  0  0  0
  160.5230  206.8880  154.7990 C   0  0  0  0  0  2  0  0  0  0  0  0
  160.4200  210.4540  152.6040 O   0  0  0  0  0  0  0  0  0  0  0  0
  161.9210  208.8390  147.8840 C   0  0  0  0  0  2  0  0  0  0  0  0
  162.7740  207.6070  148.2200 C   0  0  0  0  0  2  0  0  0  0  0  0
  160.4820  206.9320  153.2600 C   0  0  1  0  0  3  0  0  0  0  0  0
  161.9180  209.4570  151.0640 N   0  0  2  0  0  0  0  0  0  0  0  0
  160.3200  209.8210  154.9110 C   0  0  0  0  0  2  0  0  0  0  0  0
  161.3990  205.6630  150.4740 C   0  0  1  0  0  3  0  0  0  0  0  0
  159.0160  211.5580  154.0000 F   0  0  0  0  0  0  0  0  0  0  0  0
  162.3080  210.0420  148.7230 C   0  0  0  0  0  2  0  0  0  0  0  0
  161.3670  210.2180  149.9170 C   0  0  2  0  0  3  0  0  0  0  0  0
  160.0960  205.4330  151.2390 C   0  0  0  0  0  2  0  0  0  0  0  0
  161.6890  205.4240  147.9250 C   0  0  0  0  0  2  0  0  0  0  0  0
  161.4640  204.7740  149.2680 C   0  0  0  0  0  0  0  0  0  0  0  0
  161.3200  203.4490  149.3920 C   0  0  0  0  0  3  0  0  0  0  0  0
  161.2450  201.3460  148.3210 O   0  0  0  0  0  0  0  0  0  0  0  0
  161.5740  203.1770  146.9190 N   0  0  0  0  0  0  0  0  0  0  0  0
  161.3760  202.5930  148.2080 C   0  0  0  0  0  0  0  0  0  0  0  0
  161.7180  204.4590  146.7650 C   0  0  0  0  0  3  0  0  0  0  0  0
  161.2500  211.7290  150.1770 C   0  0  1  0  0  3  0  0  0  0  0  0
  161.5710  212.4950  148.9290 N   0  0  0  0  0  0  0  0  0  0  0  0
  160.1980  212.2640  149.4600 C   0  0  2  0  0  3  0  0  0  0  0  0
  159.7040  213.5340  150.1220 C   0  0  0  0  0  2  0  0  0  0  0  0
  158.3750  213.3710  150.5060 O   0  0  0  0  0  1  0  0  0  0  0  0
  162.5920  214.3550  147.8460 C   0  0  0  0  0  2  0  0  0  0  0  0
  162.4720  213.0430  147.9730 C   0  0  0  0  0  3  0  0  0  0  0  0
  1 20  1  0  0  0  0
  1 10  1  0  0  0  0
  1 18  1  0  0  0  0
  2 16  1  0  0  0  0
  2  6  1  0  0  0  0
  3  7  1  0  0  0  0
  4 18  1  0  0  0  0
  4  8  1  0  0  0  0
  5  2  1  0  0  0  0
  6  4  1  0  0  0  0
  7 19  1  0  0  0  0
  7  5  1  0  0  0  0
  9 13  1  0  0  0  0
  9  6  1  0  0  0  0
 11 16  1  0  0  0  0
 12  8  1  0  0  0  0
 13  1  1  0  0  0  0
 14 15  1  0  0  0  0
 14 21  1  0  0  0  0
 15  3  1  0  0  0  0
 16 12  1  0  0  0  0
 17  5  1  0  0  0  0
 17  9  1  0  0  0  0
 19 23  1  0  0  0  0
 21 22  1  0  0  0  0
 22 31  1  0  0  0  0
 22 17  1  0  0  0  0
 23 11  1  0  0  0  0
 24 25  1  0  0  0  0
 25 26  2  0  0  0  0
 25 19  1  0  0  0  0
 28 29  1  0  0  0  0
 29 27  2  0  0  0  0
 29 26  1  0  0  0  0
 30 28  2  0  0  0  0
 30 24  1  0  0  0  0
 32 33  1  0  0  0  0
 32 31  1  0  0  0  0
 33 34  1  0  0  0  0
 33 31  1  0  0  0  0
 34 35  1  0  0  0  0
 36 37  2  0  0  0  0
 37 32  1  0  0  0  0
M  END
>  <MODEL>
5

>  <REMARK>
 VINA RESULT:      -2.8      2.927      8.118
  Name = 
  4 active torsions:
  status: ('A' for Active; 'I' for Inactive)
    1  A    between atoms: C_1  and  C_27
    2  A    between atoms: N_4  and  C_37
    3  A    between atoms: C_8  and  C_12
    4  A    between atoms: C_23  and  C_30
                            x       y       z     vdW  Elec       q    Type
                         _______ _______ _______ _____ _____    ______ ____

>  <TORSDO>
F 4

$$$$
