=
 OpenBabel11122412533D

 32 38  0  0  1  0  0  0  0  0999 V2000
  160.6410  209.0460  157.0040 C   0  0  1  0  0  3  0  0  0  0  0  0
  161.0110  207.0510  152.1520 C   0  0  0  0  0  0  0  0  0  0  0  0
  162.0250  211.0270  149.5060 C   0  0  0  0  0  3  0  0  0  0  0  0
  162.1540  210.2450  148.3600 C   0  0  0  0  0  3  0  0  0  0  0  0
  160.9610  204.7930  151.0260 C   0  0  0  0  0  0  0  0  0  0  0  0
  161.1050  204.0890  149.8290 C   0  0  0  0  0  0  0  0  0  0  0  0
  161.1640  207.3320  154.6470 C   0  0  1  0  0  3  0  0  0  0  0  0
  161.0900  209.2880  153.2140 N   0  0  0  0  0  2  0  0  0  0  0  0
  161.4800  203.7810  147.6880 N   0  0  0  0  0  0  0  0  0  0  0  0
  160.9590  209.6910  155.6510 C   0  0  2  0  0  3  0  0  0  0  0  0
  161.7070  210.4290  150.7250 C   0  0  0  0  0  3  0  0  0  0  0  0
  161.1910  208.4560  152.0440 C   0  0  0  0  0  0  0  0  0  0  0  0
  161.5140  209.0410  150.8150 C   0  0  0  0  0  0  0  0  0  0  0  0
  161.4560  206.8480  149.7370 C   0  0  0  0  0  0  0  0  0  0  0  0
  161.2380  202.5870  148.2120 N   0  0  0  0  0  0  0  0  0  0  0  0
  160.0740  207.6810  156.8700 N   0  0  0  0  0  2  0  0  0  0  0  0
  160.6280  208.7490  154.4820 C   0  0  2  0  0  3  0  0  0  0  0  0
  161.0000  202.7370  149.5400 C   0  0  0  0  0  3  0  0  0  0  0  0
  160.8230  206.7420  156.0170 C   0  0  0  0  0  2  0  0  0  0  0  0
  162.0900  209.1950  156.5490 C   0  0  1  0  0  3  0  0  0  0  0  0
  161.9660  208.8640  148.4350 C   0  0  0  0  0  3  0  0  0  0  0  0
  161.6450  208.2430  149.6590 C   0  0  0  0  0  0  0  0  0  0  0  0
  161.5870  206.0700  148.5650 C   0  0  0  0  0  3  0  0  0  0  0  0
  160.6230  206.4870  153.5060 C   0  0  0  0  0  2  0  0  0  0  0  0
  160.6470  203.9980  152.2550 C   0  0  0  0  0  1  0  0  0  0  0  0
  161.7770  204.0110  146.2830 C   0  0  0  0  0  1  0  0  0  0  0  0
  161.1340  206.2220  150.9960 C   0  0  0  0  0  0  0  0  0  0  0  0
  161.4020  204.7030  148.6560 C   0  0  0  0  0  0  0  0  0  0  0  0
  162.7200  210.3820  157.2600 C   0  0  0  0  0  2  0  0  0  0  0  0
  163.8230  211.0280  156.4690 C   0  0  0  0  0  0  0  0  0  0  0  0
  164.9270  211.8030  157.1190 C   0  0  0  0  0  1  0  0  0  0  0  0
  163.8180  210.9170  155.2550 O   0  0  0  0  0  0  0  0  0  0  0  0
  1 16  1  6  0  0  0
  2 24  1  0  0  0  0
  3 11  2  0  0  0  0
  4 21  2  0  0  0  0
  4  3  1  0  0  0  0
  5 25  1  0  0  0  0
  6  5  2  0  0  0  0
  7 24  1  6  0  0  0
  7 19  1  0  0  0  0
  8 17  1  0  0  0  0
  9 15  1  0  0  0  0
  9 28  1  0  0  0  0
 10 20  1  0  0  0  0
 10  1  1  0  0  0  0
 11 13  1  0  0  0  0
 12  2  1  0  0  0  0
 12  8  1  0  0  0  0
 13 12  2  0  0  0  0
 14 27  1  0  0  0  0
 15 18  2  0  0  0  0
 17  7  1  0  0  0  0
 17 10  1  0  0  0  0
 18  6  1  0  0  0  0
 19 16  1  0  0  0  0
 20  1  1  0  0  0  0
 20 29  1  0  0  0  0
 21 22  1  0  0  0  0
 22 14  2  0  0  0  0
 22 13  1  0  0  0  0
 23 28  2  0  0  0  0
 23 14  1  0  0  0  0
 26  9  1  0  0  0  0
 27  5  1  0  0  0  0
 27  2  2  0  0  0  0
 28  6  1  0  0  0  0
 30 31  1  0  0  0  0
 30 29  1  0  0  0  0
 32 30  2  0  0  0  0
M  END
>  <MODEL>
1

>  <REMARK>
 VINA RESULT:     -10.2      0.000      0.000
  Name = 
  2 active torsions:
  status: ('A' for Active; 'I' for Inactive)
    1  A    between atoms: C_20  and  C_29
    2  A    between atoms: C_29  and  C_30
                            x       y       z     vdW  Elec       q    Type
                         _______ _______ _______ _____ _____    ______ ____

>  <TORSDO>
F 2

$$$$
=
 OpenBabel11122412533D

 32 38  0  0  1  0  0  0  0  0999 V2000
  161.8960  213.2940  148.6650 C   0  0  1  0  0  3  0  0  0  0  0  0
  161.5800  208.1410  149.6670 C   0  0  0  0  0  0  0  0  0  0  0  0
  160.9380  208.0960  154.5070 C   0  0  0  0  0  3  0  0  0  0  0  0
  160.8010  206.7090  154.4870 C   0  0  0  0  0  3  0  0  0  0  0  0
  161.5200  205.9660  148.3890 C   0  0  0  0  0  0  0  0  0  0  0  0
  161.3760  204.5790  148.4640 C   0  0  0  0  0  0  0  0  0  0  0  0
  161.3500  210.3860  148.5560 C   0  0  1  0  0  3  0  0  0  0  0  0
  161.6100  210.2510  150.9640 N   0  0  0  0  0  2  0  0  0  0  0  0
  161.0630  202.6180  149.4000 N   0  0  0  0  0  0  0  0  0  0  0  0
  161.6740  212.5130  149.9650 C   0  0  2  0  0  3  0  0  0  0  0  0
  161.1680  208.7900  153.3190 C   0  0  0  0  0  3  0  0  0  0  0  0
  161.4990  208.8170  150.9130 C   0  0  0  0  0  0  0  0  0  0  0  0
  161.2640  208.1080  152.0960 C   0  0  0  0  0  0  0  0  0  0  0  0
  161.2150  206.0080  150.8460 C   0  0  0  0  0  0  0  0  0  0  0  0
  161.2040  202.4050  148.0990 N   0  0  0  0  0  0  0  0  0  0  0  0
  162.3740  212.4350  147.5540 N   0  0  0  0  0  2  0  0  0  0  0  0
  161.9860  211.0180  149.7880 C   0  0  2  0  0  3  0  0  0  0  0  0
  161.4000  203.5980  147.4830 C   0  0  0  0  0  3  0  0  0  0  0  0
  161.5970  211.2110  147.2920 C   0  0  0  0  0  2  0  0  0  0  0  0
  160.4780  213.0010  149.1500 C   0  0  1  0  0  3  0  0  0  0  0  0
  160.8930  206.0190  153.2780 C   0  0  0  0  0  3  0  0  0  0  0  0
  161.1240  206.7040  152.0680 C   0  0  0  0  0  0  0  0  0  0  0  0
  161.0770  204.6020  150.8440 C   0  0  0  0  0  3  0  0  0  0  0  0
  161.8760  208.9660  148.4300 C   0  0  0  0  0  2  0  0  0  0  0  0
  161.7320  206.5600  147.0320 C   0  0  0  0  0  1  0  0  0  0  0  0
  160.8360  201.5670  150.3790 C   0  0  0  0  0  1  0  0  0  0  0  0
  161.4450  206.7210  149.6130 C   0  0  0  0  0  0  0  0  0  0  0  0
  161.1650  203.9320  149.6370 C   0  0  0  0  0  0  0  0  0  0  0  0
  159.9030  214.2470  149.8030 C   0  0  0  0  0  2  0  0  0  0  0  0
  158.5690  214.0100  150.4560 C   0  0  0  0  0  0  0  0  0  0  0  0
  157.4180  213.3940  149.7260 C   0  0  0  0  0  1  0  0  0  0  0  0
  158.4210  214.3330  151.6220 O   0  0  0  0  0  0  0  0  0  0  0  0
  1 16  1  6  0  0  0
  1 20  1  0  0  0  0
  1 10  1  0  0  0  0
  2 12  1  0  0  0  0
  4  3  1  0  0  0  0
  5  6  2  0  0  0  0
  5 27  1  0  0  0  0
  6 28  1  0  0  0  0
  7 19  1  6  0  0  0
  7 17  1  0  0  0  0
  9 28  1  0  0  0  0
  9 26  1  0  0  0  0
 11  3  2  0  0  0  0
 12  8  1  0  0  0  0
 12 13  2  0  0  0  0
 13 11  1  0  0  0  0
 14 22  2  0  0  0  0
 15  9  1  0  0  0  0
 17 10  1  0  0  0  0
 17  8  1  0  0  0  0
 18 15  2  0  0  0  0
 18  6  1  0  0  0  0
 19 16  1  0  0  0  0
 20 29  1  0  0  0  0
 20 10  1  0  0  0  0
 21  4  2  0  0  0  0
 22 13  1  0  0  0  0
 22 21  1  0  0  0  0
 23 14  1  0  0  0  0
 24  7  1  0  0  0  0
 24  2  1  0  0  0  0
 25  5  1  0  0  0  0
 27  2  2  0  0  0  0
 27 14  1  0  0  0  0
 28 23  2  0  0  0  0
 29 30  1  0  0  0  0
 30 32  2  0  0  0  0
 31 30  1  0  0  0  0
M  END
>  <MODEL>
2

>  <REMARK>
 VINA RESULT:      -9.2      2.559      5.834
  Name = 
  2 active torsions:
  status: ('A' for Active; 'I' for Inactive)
    1  A    between atoms: C_20  and  C_29
    2  A    between atoms: C_29  and  C_30
                            x       y       z     vdW  Elec       q    Type
                         _______ _______ _______ _____ _____    ______ ____

>  <TORSDO>
F 2

$$$$
=
 OpenBabel11122412533D

 32 38  0  0  1  0  0  0  0  0999 V2000
  161.8560  203.0590  146.9490 C   0  0  1  0  0  3  0  0  0  0  0  0
  161.5020  206.5160  150.8960 C   0  0  0  0  0  0  0  0  0  0  0  0
  162.2100  210.7570  148.5840 C   0  0  0  0  0  3  0  0  0  0  0  0
  161.9850  211.4540  149.7700 C   0  0  0  0  0  3  0  0  0  0  0  0
  160.9580  206.5240  153.3610 C   0  0  0  0  0  0  0  0  0  0  0  0
  160.7520  207.3020  154.5010 C   0  0  0  0  0  0  0  0  0  0  0  0
  161.1190  204.5170  149.4180 C   0  0  1  0  0  3  0  0  0  0  0  0
  162.0200  206.5620  148.4740 N   0  0  0  0  0  2  0  0  0  0  0  0
  160.5850  209.1260  155.7120 N   0  0  0  0  0  0  0  0  0  0  0  0
  161.9500  204.5880  146.9850 C   0  0  2  0  0  3  0  0  0  0  0  0
  162.1490  209.3640  148.5730 C   0  0  0  0  0  3  0  0  0  0  0  0
  161.8090  207.2500  149.7200 C   0  0  0  0  0  0  0  0  0  0  0  0
  161.8620  208.6480  149.7460 C   0  0  0  0  0  0  0  0  0  0  0  0
  161.3410  208.6400  152.1340 C   0  0  0  0  0  0  0  0  0  0  0  0
  160.3500  208.1030  156.5230 N   0  0  0  0  0  0  0  0  0  0  0  0
  161.9560  202.4450  148.2970 N   0  0  0  0  0  2  0  0  0  0  0  0
  162.1070  205.1120  148.4220 C   0  0  2  0  0  3  0  0  0  0  0  0
  160.4450  206.9530  155.8080 C   0  0  0  0  0  3  0  0  0  0  0  0
  161.0620  202.9910  149.3320 C   0  0  0  0  0  2  0  0  0  0  0  0
  160.6100  203.9080  146.7130 C   0  0  1  0  0  3  0  0  0  0  0  0
  161.6990  210.7550  150.9430 C   0  0  0  0  0  3  0  0  0  0  0  0
  161.6320  209.3470  150.9500 C   0  0  0  0  0  0  0  0  0  0  0  0
  161.1190  209.3610  153.3280 C   0  0  0  0  0  3  0  0  0  0  0  0
  161.5000  205.0020  150.8070 C   0  0  0  0  0  2  0  0  0  0  0  0
  160.8270  205.0400  153.5100 C   0  0  0  0  0  1  0  0  0  0  0  0
  160.5690  210.5190  156.1290 C   0  0  0  0  0  1  0  0  0  0  0  0
  161.2680  207.1990  152.1280 C   0  0  0  0  0  0  0  0  0  0  0  0
  160.8310  208.6560  154.4820 C   0  0  0  0  0  0  0  0  0  0  0  0
  160.3150  203.9640  145.2230 C   0  0  0  0  0  2  0  0  0  0  0  0
  160.6260  205.3000  144.6080 C   0  0  0  0  0  0  0  0  0  0  0  0
  161.5810  205.4540  143.4660 C   0  0  0  0  0  1  0  0  0  0  0  0
  160.0810  206.2940  145.0560 O   0  0  0  0  0  0  0  0  0  0  0  0
  1 10  1  0  0  0  0
  1 16  1  1  0  0  0
  2 27  1  0  0  0  0
  3  4  1  0  0  0  0
  4 21  2  0  0  0  0
  5 25  1  0  0  0  0
  5  6  1  0  0  0  0
  6 18  1  0  0  0  0
  7 19  1  1  0  0  0
  7 24  1  0  0  0  0
  8 12  1  0  0  0  0
  9 26  1  0  0  0  0
  9 15  1  0  0  0  0
 10 17  1  0  0  0  0
 11  3  2  0  0  0  0
 11 13  1  0  0  0  0
 12 13  1  0  0  0  0
 12  2  2  0  0  0  0
 13 22  2  0  0  0  0
 14 23  2  0  0  0  0
 16 19  1  0  0  0  0
 17  8  1  0  0  0  0
 17  7  1  0  0  0  0
 18 15  2  0  0  0  0
 20  1  1  0  0  0  0
 20 10  1  0  0  0  0
 21 22  1  0  0  0  0
 22 14  1  0  0  0  0
 23 28  1  0  0  0  0
 24  2  1  0  0  0  0
 27 14  1  0  0  0  0
 27  5  2  0  0  0  0
 28  6  2  0  0  0  0
 28  9  1  0  0  0  0
 29 20  1  0  0  0  0
 30 32  2  0  0  0  0
 30 29  1  0  0  0  0
 31 30  1  0  0  0  0
M  END
>  <MODEL>
3

>  <REMARK>
 VINA RESULT:      -8.4      2.530      7.859
  Name = 
  2 active torsions:
  status: ('A' for Active; 'I' for Inactive)
    1  A    between atoms: C_20  and  C_29
    2  A    between atoms: C_29  and  C_30
                            x       y       z     vdW  Elec       q    Type
                         _______ _______ _______ _____ _____    ______ ____

>  <TORSDO>
F 2

$$$$
=
 OpenBabel11122412533D

 32 38  0  0  1  0  0  0  0  0999 V2000
  161.3700  210.0760  154.5020 C   0  0  1  0  0  3  0  0  0  0  0  0
  161.3610  206.7750  150.4090 C   0  0  0  0  0  0  0  0  0  0  0  0
  160.7660  202.4540  152.6040 C   0  0  0  0  0  3  0  0  0  0  0  0
  160.7080  201.8200  151.3650 C   0  0  0  0  0  3  0  0  0  0  0  0
  161.4170  206.8870  147.8880 C   0  0  0  0  0  0  0  0  0  0  0  0
  161.3530  206.1690  146.6930 C   0  0  0  0  0  0  0  0  0  0  0  0
  160.9920  208.7970  151.8600 C   0  0  1  0  0  3  0  0  0  0  0  0
  161.2810  206.6140  152.8800 N   0  0  0  0  0  2  0  0  0  0  0  0
  161.1630  204.4150  145.3850 N   0  0  0  0  0  0  0  0  0  0  0  0
  161.2050  208.5560  154.4110 C   0  0  2  0  0  3  0  0  0  0  0  0
  160.9440  203.8360  152.6720 C   0  0  0  0  0  3  0  0  0  0  0  0
  161.2520  205.9870  151.5850 C   0  0  0  0  0  0  0  0  0  0  0  0
  161.0690  204.6020  151.5010 C   0  0  0  0  0  0  0  0  0  0  0  0
  161.1310  204.7250  149.0610 C   0  0  0  0  0  0  0  0  0  0  0  0
  161.3040  205.4700  144.5950 N   0  0  0  0  0  0  0  0  0  0  0  0
  161.8870  210.6740  153.2460 N   0  0  0  0  0  2  0  0  0  0  0  0
  161.6010  208.0250  153.0240 C   0  0  2  0  0  3  0  0  0  0  0  0
  161.4250  206.5780  145.3700 C   0  0  0  0  0  3  0  0  0  0  0  0
  161.1800  210.3070  152.0070 C   0  0  0  0  0  2  0  0  0  0  0  0
  159.9760  209.4620  154.4040 C   0  0  1  0  0  3  0  0  0  0  0  0
  160.8300  202.5700  150.1930 C   0  0  0  0  0  3  0  0  0  0  0  0
  161.0100  203.9660  150.2430 C   0  0  0  0  0  0  0  0  0  0  0  0
  161.0740  204.0660  147.8130 C   0  0  0  0  0  3  0  0  0  0  0  0
  161.5980  208.2640  150.5720 C   0  0  0  0  0  2  0  0  0  0  0  0
  161.5820  208.3710  147.7880 C   0  0  0  0  0  1  0  0  0  0  0  0
  161.0050  203.0510  144.9060 C   0  0  0  0  0  1  0  0  0  0  0  0
  161.3080  206.1550  149.1240 C   0  0  0  0  0  0  0  0  0  0  0  0
  161.1910  204.8220  146.6610 C   0  0  0  0  0  0  0  0  0  0  0  0
  159.3350  209.4460  155.7820 C   0  0  0  0  0  2  0  0  0  0  0  0
  158.7390  210.7700  156.1730 C   0  0  0  0  0  0  0  0  0  0  0  0
  157.6750  211.4410  155.3610 C   0  0  0  0  0  1  0  0  0  0  0  0
  159.1370  211.3170  157.1870 O   0  0  0  0  0  0  0  0  0  0  0  0
  1 16  1  6  0  0  0
  2 24  1  0  0  0  0
  2 12  1  0  0  0  0
  3 11  2  0  0  0  0
  4  3  1  0  0  0  0
  5 27  1  0  0  0  0
  6  5  2  0  0  0  0
  7 24  1  6  0  0  0
  7 19  1  0  0  0  0
  7 17  1  0  0  0  0
  8 17  1  0  0  0  0
  9 28  1  0  0  0  0
 10  1  1  0  0  0  0
 12  8  1  0  0  0  0
 13 12  2  0  0  0  0
 13 11  1  0  0  0  0
 14 27  1  0  0  0  0
 14 22  2  0  0  0  0
 15 18  2  0  0  0  0
 15  9  1  0  0  0  0
 17 10  1  0  0  0  0
 18  6  1  0  0  0  0
 19 16  1  0  0  0  0
 20 10  1  0  0  0  0
 20  1  1  0  0  0  0
 20 29  1  0  0  0  0
 21 22  1  0  0  0  0
 21  4  2  0  0  0  0
 22 13  1  0  0  0  0
 23 14  1  0  0  0  0
 25  5  1  0  0  0  0
 26  9  1  0  0  0  0
 27  2  2  0  0  0  0
 28  6  1  0  0  0  0
 28 23  2  0  0  0  0
 29 30  1  0  0  0  0
 30 32  2  0  0  0  0
 31 30  1  0  0  0  0
M  END
>  <MODEL>
4

>  <REMARK>
 VINA RESULT:      -8.3      2.167      4.632
  Name = 
  2 active torsions:
  status: ('A' for Active; 'I' for Inactive)
    1  A    between atoms: C_20  and  C_29
    2  A    between atoms: C_29  and  C_30
                            x       y       z     vdW  Elec       q    Type
                         _______ _______ _______ _____ _____    ______ ____

>  <TORSDO>
F 2

$$$$
=
 OpenBabel11122412533D

 32 38  0  0  1  0  0  0  0  0999 V2000
  162.1170  211.9060  150.1510 C   0  0  1  0  0  3  0  0  0  0  0  0
  161.6270  206.7850  149.0630 C   0  0  0  0  0  0  0  0  0  0  0  0
  161.0140  204.8660  153.5110 C   0  0  0  0  0  3  0  0  0  0  0  0
  160.8280  203.6030  152.9520 C   0  0  0  0  0  3  0  0  0  0  0  0
  161.4850  205.2860  147.0370 C   0  0  0  0  0  0  0  0  0  0  0  0
  161.2920  203.9860  146.5660 C   0  0  0  0  0  0  0  0  0  0  0  0
  161.4690  209.2910  148.9240 C   0  0  1  0  0  3  0  0  0  0  0  0
  161.7400  208.2160  151.0820 N   0  0  0  0  0  2  0  0  0  0  0  0
  160.9170  201.8250  146.6660 N   0  0  0  0  0  0  0  0  0  0  0  0
  161.8760  210.6860  151.0460 C   0  0  2  0  0  3  0  0  0  0  0  0
  161.2610  205.9630  152.6850 C   0  0  0  0  0  3  0  0  0  0  0  0
  161.5780  206.9210  150.4760 C   0  0  0  0  0  0  0  0  0  0  0  0
  161.3250  205.8120  151.2900 C   0  0  0  0  0  0  0  0  0  0  0  0
  161.1960  204.3720  149.3200 C   0  0  0  0  0  0  0  0  0  0  0  0
  161.0420  202.1350  145.3830 N   0  0  0  0  0  0  0  0  0  0  0  0
  162.5580  211.5370  148.7830 N   0  0  0  0  0  2  0  0  0  0  0  0
  162.1350  209.3710  150.2920 C   0  0  2  0  0  3  0  0  0  0  0  0
  161.2760  203.4680  145.2800 C   0  0  0  0  0  3  0  0  0  0  0  0
  161.7380  210.5370  148.0780 C   0  0  0  0  0  2  0  0  0  0  0  0
  160.6930  211.4890  150.5100 C   0  0  1  0  0  3  0  0  0  0  0  0
  160.8890  203.4390  151.5680 C   0  0  0  0  0  3  0  0  0  0  0  0
  161.1360  204.5360  150.7180 C   0  0  0  0  0  0  0  0  0  0  0  0
  161.0090  203.0840  148.7710 C   0  0  0  0  0  3  0  0  0  0  0  0
  161.9450  208.0190  148.2420 C   0  0  0  0  0  2  0  0  0  0  0  0
  161.7090  206.3590  146.0170 C   0  0  0  0  0  1  0  0  0  0  0  0
  160.6590  200.4820  147.1600 C   0  0  0  0  0  1  0  0  0  0  0  0
  161.4430  205.5030  148.4600 C   0  0  0  0  0  0  0  0  0  0  0  0
  161.0670  202.9380  147.3960 C   0  0  0  0  0  0  0  0  0  0  0  0
  160.1650  212.3960  151.6090 C   0  0  0  0  0  2  0  0  0  0  0  0
  159.6910  211.6430  152.8210 C   0  0  0  0  0  0  0  0  0  0  0  0
  159.7650  212.2170  154.2010 C   0  0  0  0  0  1  0  0  0  0  0  0
  159.2300  210.5240  152.6740 O   0  0  0  0  0  0  0  0  0  0  0  0
  1 16  1  6  0  0  0
  1 20  1  0  0  0  0
  1 10  1  0  0  0  0
  2 12  1  0  0  0  0
  4  3  1  0  0  0  0
  5 27  1  0  0  0  0
  6  5  2  0  0  0  0
  6 28  1  0  0  0  0
  7 19  1  6  0  0  0
  7 17  1  0  0  0  0
  9 26  1  0  0  0  0
  9 28  1  0  0  0  0
 11  3  2  0  0  0  0
 12  8  1  0  0  0  0
 12 13  2  0  0  0  0
 13 11  1  0  0  0  0
 14 22  2  0  0  0  0
 15  9  1  0  0  0  0
 17 10  1  0  0  0  0
 17  8  1  0  0  0  0
 18 15  2  0  0  0  0
 18  6  1  0  0  0  0
 19 16  1  0  0  0  0
 20 10  1  0  0  0  0
 20 29  1  0  0  0  0
 21  4  2  0  0  0  0
 22 13  1  0  0  0  0
 22 21  1  0  0  0  0
 23 14  1  0  0  0  0
 24  7  1  0  0  0  0
 24  2  1  0  0  0  0
 25  5  1  0  0  0  0
 27  2  2  0  0  0  0
 27 14  1  0  0  0  0
 28 23  2  0  0  0  0
 29 30  1  0  0  0  0
 30 31  1  0  0  0  0
 32 30  2  0  0  0  0
M  END
>  <MODEL>
5

>  <REMARK>
 VINA RESULT:      -7.5      2.799      5.286
  Name = 
  2 active torsions:
  status: ('A' for Active; 'I' for Inactive)
    1  A    between atoms: C_20  and  C_29
    2  A    between atoms: C_29  and  C_30
                            x       y       z     vdW  Elec       q    Type
                         _______ _______ _______ _____ _____    ______ ____

>  <TORSDO>
F 2

$$$$
=
 OpenBabel11122412533D

 32 38  0  0  1  0  0  0  0  0999 V2000
  161.6410  202.3230  150.5270 C   0  0  1  0  0  3  0  0  0  0  0  0
  161.1600  207.1250  152.6150 C   0  0  0  0  0  0  0  0  0  0  0  0
  162.1770  209.9890  148.7940 C   0  0  0  0  0  3  0  0  0  0  0  0
  161.9010  211.1230  149.5560 C   0  0  0  0  0  3  0  0  0  0  0  0
  160.4560  208.1770  154.7990 C   0  0  0  0  0  0  0  0  0  0  0  0
  160.2050  209.3650  155.4880 C   0  0  0  0  0  0  0  0  0  0  0  0
  160.7990  204.6920  152.0900 C   0  0  1  0  0  3  0  0  0  0  0  0
  161.8370  206.1420  150.4450 N   0  0  0  0  0  2  0  0  0  0  0  0
  160.0280  211.5310  155.8020 N   0  0  0  0  0  0  0  0  0  0  0  0
  161.7900  203.7240  149.9240 C   0  0  2  0  0  3  0  0  0  0  0  0
  162.0640  208.7220  149.3650 C   0  0  0  0  0  3  0  0  0  0  0  0
  161.5700  207.2930  151.2660 C   0  0  0  0  0  0  0  0  0  0  0  0
  161.6750  208.5700  150.7060 C   0  0  0  0  0  0  0  0  0  0  0  0
  160.9980  209.5750  152.8290 C   0  0  0  0  0  0  0  0  0  0  0  0
  159.7020  210.9480  156.9480 N   0  0  0  0  0  0  0  0  0  0  0  0
  161.6290  202.3350  152.0100 N   0  0  0  0  0  2  0  0  0  0  0  0
  161.8720  204.8040  151.0140 C   0  0  2  0  0  3  0  0  0  0  0  0
  159.8000  209.6030  156.7930 C   0  0  0  0  0  3  0  0  0  0  0  0
  160.6900  203.2730  152.6500 C   0  0  0  0  0  2  0  0  0  0  0  0
  160.4460  203.0010  149.8620 C   0  0  1  0  0  3  0  0  0  0  0  0
  161.5120  210.9870  150.8900 C   0  0  0  0  0  3  0  0  0  0  0  0
  161.3930  209.7140  151.4830 C   0  0  0  0  0  0  0  0  0  0  0  0
  160.7250  210.7340  153.5880 C   0  0  0  0  0  3  0  0  0  0  0  0
  161.1060  205.7150  153.1710 C   0  0  0  0  0  2  0  0  0  0  0  0
  160.2590  206.8960  155.5480 C   0  0  0  0  0  1  0  0  0  0  0  0
  160.0370  212.9690  155.5920 C   0  0  0  0  0  1  0  0  0  0  0  0
  160.8720  208.2670  153.4230 C   0  0  0  0  0  0  0  0  0  0  0  0
  160.3360  210.5840  154.9070 C   0  0  0  0  0  0  0  0  0  0  0  0
  160.2520  202.4250  148.4690 C   0  0  0  0  0  2  0  0  0  0  0  0
  161.0350  203.1540  147.4120 C   0  0  0  0  0  0  0  0  0  0  0  0
  161.1740  204.6440  147.4030 C   0  0  0  0  0  1  0  0  0  0  0  0
  161.5750  202.5080  146.5310 O   0  0  0  0  0  0  0  0  0  0  0  0
  1 16  1  1  0  0  0
  2 24  1  0  0  0  0
  2 27  1  0  0  0  0
  3 11  2  0  0  0  0
  3  4  1  0  0  0  0
  4 21  2  0  0  0  0
  5  6  1  0  0  0  0
  5 25  1  0  0  0  0
  6 18  1  0  0  0  0
  7 19  1  1  0  0  0
  7 24  1  0  0  0  0
  8 17  1  0  0  0  0
  8 12  1  0  0  0  0
  9 15  1  0  0  0  0
 10  1  1  0  0  0  0
 10 17  1  0  0  0  0
 11 13  1  0  0  0  0
 12  2  2  0  0  0  0
 13 12  1  0  0  0  0
 13 22  2  0  0  0  0
 14 27  1  0  0  0  0
 14 23  2  0  0  0  0
 16 19  1  0  0  0  0
 17  7  1  0  0  0  0
 18 15  2  0  0  0  0
 20 10  1  0  0  0  0
 20  1  1  0  0  0  0
 21 22  1  0  0  0  0
 22 14  1  0  0  0  0
 23 28  1  0  0  0  0
 26  9  1  0  0  0  0
 27  5  2  0  0  0  0
 28  6  2  0  0  0  0
 28  9  1  0  0  0  0
 29 20  1  0  0  0  0
 30 29  1  0  0  0  0
 31 30  1  0  0  0  0
 32 30  2  0  0  0  0
M  END
>  <MODEL>
6

>  <REMARK>
 VINA RESULT:      -7.4      2.973      7.550
  Name = 
  2 active torsions:
  status: ('A' for Active; 'I' for Inactive)
    1  A    between atoms: C_20  and  C_29
    2  A    between atoms: C_29  and  C_30
                            x       y       z     vdW  Elec       q    Type
                         _______ _______ _______ _____ _____    ______ ____

>  <TORSDO>
F 2

$$$$
