=
 OpenBabel11122412453D

 30 35  0  0  1  0  0  0  0  0999 V2000
  160.4720  212.0470  150.4550 C   0  0  1  0  0  3  0  0  0  0  0  0
  159.8560  211.0900  152.7490 C   0  0  0  0  0  0  0  0  0  0  0  0
  157.3880  214.4100  150.9450 N   0  0  0  0  0  2  0  0  0  0  0  0
  160.7540  213.4230  149.8290 C   0  0  1  0  0  3  0  0  0  0  0  0
  161.8130  211.3120  150.5450 C   0  0  0  0  0  2  0  0  0  0  0  0
  163.4180  212.4730  147.5670 O   0  0  0  0  0  0  0  0  0  0  0  0
  159.6680  213.1010  146.8190 C   0  0  1  0  0  3  0  0  0  0  0  0
  162.4670  212.3110  148.3770 C   0  0  0  0  0  0  0  0  0  0  0  0
  158.5870  212.8750  147.8800 C   0  0  2  0  0  3  0  0  0  0  0  0
  157.1630  214.1750  149.5730 C   0  0  0  0  0  0  0  0  0  0  0  0
  162.4040  211.0430  149.1650 C   0  0  2  0  0  3  0  0  0  0  0  0
  161.4310  213.3080  148.5170 N   0  0  0  0  0  0  0  0  0  0  0  0
  159.3340  211.2470  154.0350 C   0  0  0  0  0  3  0  0  0  0  0  0
  157.3420  212.5790  147.0560 C   0  0  0  0  0  2  0  0  0  0  0  0
  158.9570  213.7500  145.6480 C   0  0  0  0  0  2  0  0  0  0  0  0
  160.3850  209.8520  152.4020 O   0  0  0  0  0  1  0  0  0  0  0  0
  158.8140  214.4460  151.2140 C   0  0  2  0  0  3  0  0  0  0  0  0
  158.7380  212.4470  154.4120 C   0  0  0  0  0  3  0  0  0  0  0  0
  159.8330  212.1690  151.8290 C   0  0  0  0  0  0  0  0  0  0  0  0
  159.5100  214.3450  149.8350 C   0  0  2  0  0  3  0  0  0  0  0  0
  156.0030  214.1160  149.0900 O   0  0  0  0  0  0  0  0  0  0  0  0
  158.4060  214.1340  148.7640 C   0  0  1  0  0  3  0  0  0  0  0  0
  157.5300  213.2410  145.7000 C   0  0  0  0  0  2  0  0  0  0  0  0
  161.8460  214.3060  146.2510 C   0  0  0  0  0  1  0  0  0  0  0  0
  158.6290  213.4850  153.4910 C   0  0  0  0  0  3  0  0  0  0  0  0
  159.1440  213.3510  152.1950 C   0  0  0  0  0  0  0  0  0  0  0  0
  160.8350  213.9490  147.3350 C   0  0  1  0  0  3  0  0  0  0  0  0
  161.5900  210.0030  148.4070 C   0  0  0  0  0  2  0  0  0  0  0  0
  161.1920  208.1550  149.8320 F   0  0  0  0  0  0  0  0  0  0  0  0
  162.0100  208.6030  148.8120 C   0  0  0  0  0  2  0  0  0  0  0  0
  1  5  1  1  0  0  0
  1 19  1  0  0  0  0
  2 13  1  0  0  0  0
  4 12  1  6  0  0  0
  4 20  1  0  0  0  0
  4  1  1  0  0  0  0
  6  8  2  0  0  0  0
  7 15  1  6  0  0  0
  7 27  1  0  0  0  0
  7  9  1  0  0  0  0
  8 12  1  0  0  0  0
  8 11  1  0  0  0  0
  9 14  1  6  0  0  0
  9 22  1  0  0  0  0
 10  3  1  0  0  0  0
 11 28  1  6  0  0  0
 11  5  1  0  0  0  0
 13 18  2  0  0  0  0
 15 23  1  0  0  0  0
 16  2  1  0  0  0  0
 17  3  1  6  0  0  0
 17 26  1  0  0  0  0
 19 26  1  0  0  0  0
 19  2  2  0  0  0  0
 20 17  1  0  0  0  0
 21 10  2  0  0  0  0
 22 10  1  0  0  0  0
 22 20  1  0  0  0  0
 23 14  1  0  0  0  0
 24 27  1  0  0  0  0
 25 18  1  0  0  0  0
 26 25  2  0  0  0  0
 27 12  1  0  0  0  0
 28 30  1  0  0  0  0
 30 29  1  0  0  0  0
M  END
>  <MODEL>
1

>  <REMARK>
 VINA RESULT:      -5.0      0.000      0.000
  Name = 
  2 active torsions:
  status: ('A' for Active; 'I' for Inactive)
    1  A    between atoms: C_11  and  C_28
    2  A    between atoms: C_28  and  C_30
                            x       y       z     vdW  Elec       q    Type
                         _______ _______ _______ _____ _____    ______ ____

>  <TORSDO>
F 2

$$$$
=
 OpenBabel11122412453D

 30 35  0  0  1  0  0  0  0  0999 V2000
  159.6700  211.5470  153.0080 C   0  0  1  0  0  3  0  0  0  0  0  0
  158.5890  212.9170  151.1330 C   0  0  0  0  0  0  0  0  0  0  0  0
  161.9890  210.1000  150.2030 N   0  0  0  0  0  2  0  0  0  0  0  0
  161.0780  211.2870  153.5670 C   0  0  1  0  0  3  0  0  0  0  0  0
  158.9370  212.4240  154.0270 C   0  0  0  0  0  2  0  0  0  0  0  0
  160.2630  211.1440  157.0920 O   0  0  0  0  0  0  0  0  0  0  0  0
  160.9130  208.2480  154.6020 C   0  0  1  0  0  3  0  0  0  0  0  0
  160.0540  211.1770  155.8510 C   0  0  0  0  0  0  0  0  0  0  0  0
  160.6260  208.3930  153.1050 C   0  0  2  0  0  3  0  0  0  0  0  0
  161.8270  208.8790  150.8900 C   0  0  0  0  0  0  0  0  0  0  0  0
  158.7450  211.7040  155.3580 C   0  0  2  0  0  3  0  0  0  0  0  0
  161.0370  210.6800  154.9170 N   0  0  0  0  0  0  0  0  0  0  0  0
  158.6750  213.6020  149.9200 C   0  0  0  0  0  3  0  0  0  0  0  0
  160.3680  206.9620  152.6550 C   0  0  0  0  0  2  0  0  0  0  0  0
  161.6200  206.9140  154.7500 C   0  0  0  0  0  2  0  0  0  0  0  0
  157.3740  212.9280  151.8090 O   0  0  0  0  0  1  0  0  0  0  0  0
  162.0170  211.2000  151.1510 C   0  0  2  0  0  3  0  0  0  0  0  0
  159.8500  213.5730  149.1750 C   0  0  0  0  0  3  0  0  0  0  0  0
  159.7160  212.2270  151.6490 C   0  0  0  0  0  0  0  0  0  0  0  0
  161.9930  210.5530  152.5560 C   0  0  2  0  0  3  0  0  0  0  0  0
  161.7890  207.7760  150.2850 O   0  0  0  0  0  0  0  0  0  0  0  0
  161.8350  209.0200  152.3670 C   0  0  1  0  0  3  0  0  0  0  0  0
  161.1030  206.0460  153.6210 C   0  0  0  0  0  2  0  0  0  0  0  0
  162.1570  209.2080  156.6150 C   0  0  0  0  0  1  0  0  0  0  0  0
  160.9350  212.8260  149.6250 C   0  0  0  0  0  3  0  0  0  0  0  0
  160.8730  212.1290  150.8380 C   0  0  0  0  0  0  0  0  0  0  0  0
  161.7370  209.4110  155.1630 C   0  0  1  0  0  3  0  0  0  0  0  0
  157.7430  210.5650  155.2310 C   0  0  0  0  0  2  0  0  0  0  0  0
  155.4330  210.0480  155.1960 F   0  0  0  0  0  0  0  0  0  0  0  0
  156.3250  211.1030  155.2200 C   0  0  0  0  0  2  0  0  0  0  0  0
  1  4  1  0  0  0  0
  1  5  1  1  0  0  0
  2 19  1  0  0  0  0
  2 16  1  0  0  0  0
  3 10  1  0  0  0  0
  4 12  1  1  0  0  0
  5 11  1  0  0  0  0
  7 15  1  6  0  0  0
  7 27  1  0  0  0  0
  8  6  2  0  0  0  0
  9 14  1  6  0  0  0
  9  7  1  0  0  0  0
 10 22  1  0  0  0  0
 11 28  1  6  0  0  0
 11  8  1  0  0  0  0
 12 27  1  0  0  0  0
 12  8  1  0  0  0  0
 13  2  2  0  0  0  0
 14 23  1  0  0  0  0
 17  3  1  6  0  0  0
 17 20  1  0  0  0  0
 18 25  2  0  0  0  0
 18 13  1  0  0  0  0
 19  1  1  0  0  0  0
 20  4  1  0  0  0  0
 21 10  2  0  0  0  0
 22 20  1  0  0  0  0
 22  9  1  0  0  0  0
 23 15  1  0  0  0  0
 25 26  1  0  0  0  0
 26 17  1  0  0  0  0
 26 19  2  0  0  0  0
 27 24  1  0  0  0  0
 29 30  1  0  0  0  0
 30 28  1  0  0  0  0
M  END
>  <MODEL>
2

>  <REMARK>
 VINA RESULT:      -3.7      3.312      7.263
  Name = 
  2 active torsions:
  status: ('A' for Active; 'I' for Inactive)
    1  A    between atoms: C_11  and  C_28
    2  A    between atoms: C_28  and  C_30
                            x       y       z     vdW  Elec       q    Type
                         _______ _______ _______ _____ _____    ______ ____

>  <TORSDO>
F 2

$$$$
=
 OpenBabel11122412453D

 30 35  0  0  1  0  0  0  0  0999 V2000
  159.7150  211.8630  151.8760 C   0  0  1  0  0  3  0  0  0  0  0  0
  158.6920  213.0620  149.8570 C   0  0  0  0  0  0  0  0  0  0  0  0
  162.1220  210.1850  149.2820 N   0  0  0  0  0  2  0  0  0  0  0  0
  161.1050  211.6580  152.4990 C   0  0  1  0  0  3  0  0  0  0  0  0
  158.9500  212.8230  152.7920 C   0  0  0  0  0  2  0  0  0  0  0  0
  160.1810  211.8200  155.9960 O   0  0  0  0  0  0  0  0  0  0  0  0
  160.9100  208.7200  153.7890 C   0  0  1  0  0  3  0  0  0  0  0  0
  160.0100  211.7440  154.7510 C   0  0  0  0  0  0  0  0  0  0  0  0
  160.6690  208.7330  152.2770 C   0  0  2  0  0  3  0  0  0  0  0  0
  161.9390  209.0290  150.0670 C   0  0  0  0  0  0  0  0  0  0  0  0
  158.7170  212.2210  154.1730 C   0  0  2  0  0  3  0  0  0  0  0  0
  161.0220  211.1700  153.8950 N   0  0  0  0  0  0  0  0  0  0  0  0
  158.8150  213.6390  148.5910 C   0  0  0  0  0  3  0  0  0  0  0  0
  160.4270  207.2680  151.9460 C   0  0  0  0  0  2  0  0  0  0  0  0
  161.6130  207.4070  154.0750 C   0  0  0  0  0  2  0  0  0  0  0  0
  157.4570  213.1270  150.4910 O   0  0  0  0  0  1  0  0  0  0  0  0
  162.1190  211.3640  150.1300 C   0  0  2  0  0  3  0  0  0  0  0  0
  160.0130  213.5480  147.8880 C   0  0  0  0  0  3  0  0  0  0  0  0
  159.8030  212.4220  150.4650 C   0  0  0  0  0  0  0  0  0  0  0  0
  162.0520  210.8420  151.5850 C   0  0  2  0  0  3  0  0  0  0  0  0
  161.9200  207.8770  149.5590 O   0  0  0  0  0  0  0  0  0  0  0  0
  161.9010  209.2980  151.5250 C   0  0  1  0  0  3  0  0  0  0  0  0
  161.1320  206.4410  153.0100 C   0  0  0  0  0  2  0  0  0  0  0  0
  162.0900  209.8550  155.7480 C   0  0  0  0  0  1  0  0  0  0  0  0
  161.0840  212.8470  148.4350 C   0  0  0  0  0  3  0  0  0  0  0  0
  160.9850  212.2580  149.7020 C   0  0  0  0  0  0  0  0  0  0  0  0
  161.7150  209.9300  154.2720 C   0  0  1  0  0  3  0  0  0  0  0  0
  157.7210  211.0720  154.1160 C   0  0  0  0  0  2  0  0  0  0  0  0
  155.9910  212.6880  154.1200 F   0  0  0  0  0  0  0  0  0  0  0  0
  156.3860  211.4970  154.6980 C   0  0  0  0  0  2  0  0  0  0  0  0
  1  4  1  0  0  0  0
  1  5  1  1  0  0  0
  2 19  1  0  0  0  0
  2 16  1  0  0  0  0
  3 10  1  0  0  0  0
  4 12  1  1  0  0  0
  5 11  1  0  0  0  0
  7 15  1  6  0  0  0
  7 27  1  0  0  0  0
  8  6  2  0  0  0  0
  9 14  1  6  0  0  0
  9  7  1  0  0  0  0
 10 22  1  0  0  0  0
 11 28  1  6  0  0  0
 11  8  1  0  0  0  0
 12 27  1  0  0  0  0
 12  8  1  0  0  0  0
 13  2  2  0  0  0  0
 14 23  1  0  0  0  0
 17  3  1  6  0  0  0
 17 20  1  0  0  0  0
 18 25  2  0  0  0  0
 18 13  1  0  0  0  0
 19  1  1  0  0  0  0
 20  4  1  0  0  0  0
 21 10  2  0  0  0  0
 22 20  1  0  0  0  0
 22  9  1  0  0  0  0
 23 15  1  0  0  0  0
 25 26  1  0  0  0  0
 26 17  1  0  0  0  0
 26 19  2  0  0  0  0
 27 24  1  0  0  0  0
 28 30  1  0  0  0  0
 29 30  1  0  0  0  0
M  END
>  <MODEL>
3

>  <REMARK>
 VINA RESULT:      -3.5      2.967      6.865
  Name = 
  2 active torsions:
  status: ('A' for Active; 'I' for Inactive)
    1  A    between atoms: C_11  and  C_28
    2  A    between atoms: C_28  and  C_30
                            x       y       z     vdW  Elec       q    Type
                         _______ _______ _______ _____ _____    ______ ____

>  <TORSDO>
F 2

$$$$
=
 OpenBabel11122412453D

 30 35  0  0  1  0  0  0  0  0999 V2000
  158.6830  210.7140  137.9430 C   0  0  1  0  0  3  0  0  0  0  0  0
  160.7380  209.2090  137.6710 C   0  0  0  0  0  0  0  0  0  0  0  0
  161.2440  213.5380  138.8400 N   0  0  0  0  0  2  0  0  0  0  0  0
  158.1830  212.0700  137.4170 C   0  0  1  0  0  3  0  0  0  0  0  0
  157.8400  209.6310  137.2630 C   0  0  0  0  0  2  0  0  0  0  0  0
  154.6680  211.2710  137.0670 O   0  0  0  0  0  0  0  0  0  0  0  0
  156.4740  213.2300  139.8810 C   0  0  1  0  0  3  0  0  0  0  0  0
  155.8660  211.1150  137.4230 C   0  0  0  0  0  0  0  0  0  0  0  0
  157.9400  212.9650  140.2340 C   0  0  2  0  0  3  0  0  0  0  0  0
  160.2880  213.9080  139.8080 C   0  0  0  0  0  0  0  0  0  0  0  0
  156.3710  209.7290  137.6570 C   0  0  2  0  0  3  0  0  0  0  0  0
  156.7310  212.2520  137.6430 N   0  0  0  0  0  0  0  0  0  0  0  0
  162.0780  209.0270  137.3260 C   0  0  0  0  0  3  0  0  0  0  0  0
  158.0320  213.3850  141.6940 C   0  0  0  0  0  2  0  0  0  0  0  0
  156.0770  214.4490  140.6910 C   0  0  0  0  0  2  0  0  0  0  0  0
  159.9960  208.0910  138.0350 O   0  0  0  0  0  1  0  0  0  0  0  0
  160.5770  213.0400  137.6500 C   0  0  2  0  0  3  0  0  0  0  0  0
  162.8800  210.1210  137.0110 C   0  0  0  0  0  3  0  0  0  0  0  0
  160.1610  210.5050  137.6530 C   0  0  0  0  0  0  0  0  0  0  0  0
  159.0630  213.2530  137.8910 C   0  0  2  0  0  3  0  0  0  0  0  0
  160.6210  214.3860  140.9240 O   0  0  0  0  0  0  0  0  0  0  0  0
  158.8870  213.7980  139.3340 C   0  0  1  0  0  3  0  0  0  0  0  0
  156.9380  214.4130  141.9380 C   0  0  0  0  0  2  0  0  0  0  0  0
  154.8280  213.8430  138.0280 C   0  0  0  0  0  1  0  0  0  0  0  0
  162.3510  211.4070  137.0760 C   0  0  0  0  0  3  0  0  0  0  0  0
  161.0100  211.6150  137.4210 C   0  0  0  0  0  0  0  0  0  0  0  0
  156.2530  213.4320  138.3790 C   0  0  1  0  0  3  0  0  0  0  0  0
  156.1610  209.3410  139.1150 C   0  0  0  0  0  2  0  0  0  0  0  0
  154.8860  207.3920  138.6940 F   0  0  0  0  0  0  0  0  0  0  0  0
  154.8290  208.6370  139.2910 C   0  0  0  0  0  2  0  0  0  0  0  0
  1  5  1  6  0  0  0
  2 16  1  0  0  0  0
  3 10  1  0  0  0  0
  4 12  1  1  0  0  0
  4 20  1  0  0  0  0
  4  1  1  0  0  0  0
  5 11  1  0  0  0  0
  6  8  2  0  0  0  0
  7  9  1  0  0  0  0
  7 15  1  1  0  0  0
  8 12  1  0  0  0  0
  8 11  1  0  0  0  0
  9 14  1  1  0  0  0
 10 21  2  0  0  0  0
 11 28  1  1  0  0  0
 12 27  1  0  0  0  0
 13  2  2  0  0  0  0
 14 23  1  0  0  0  0
 15 23  1  0  0  0  0
 17 26  1  1  0  0  0
 17 20  1  0  0  0  0
 17  3  1  0  0  0  0
 18 25  2  0  0  0  0
 18 13  1  0  0  0  0
 19  2  1  0  0  0  0
 19  1  1  0  0  0  0
 20 22  1  0  0  0  0
 22 10  1  0  0  0  0
 22  9  1  0  0  0  0
 24 27  1  0  0  0  0
 25 26  1  0  0  0  0
 26 19  2  0  0  0  0
 27  7  1  0  0  0  0
 28 30  1  0  0  0  0
 29 30  1  0  0  0  0
M  END
>  <MODEL>
4

>  <REMARK>
 VINA RESULT:      -2.8      9.230     12.348
  Name = 
  2 active torsions:
  status: ('A' for Active; 'I' for Inactive)
    1  A    between atoms: C_11  and  C_28
    2  A    between atoms: C_28  and  C_30
                            x       y       z     vdW  Elec       q    Type
                         _______ _______ _______ _____ _____    ______ ____

>  <TORSDO>
F 2

$$$$
=
 OpenBabel11122412453D

 30 35  0  0  1  0  0  0  0  0999 V2000
  161.2430  212.3860  139.5420 C   0  0  1  0  0  3  0  0  0  0  0  0
  163.3940  211.5550  138.4260 C   0  0  0  0  0  0  0  0  0  0  0  0
  163.6130  214.0960  142.1490 N   0  0  0  0  0  2  0  0  0  0  0  0
  160.6410  213.7210  140.0090 C   0  0  1  0  0  3  0  0  0  0  0  0
  160.4680  211.9570  138.2920 C   0  0  0  0  0  2  0  0  0  0  0  0
  157.1860  213.1250  139.1030 O   0  0  0  0  0  0  0  0  0  0  0  0
  158.8920  212.8850  142.5740 C   0  0  1  0  0  3  0  0  0  0  0  0
  158.3970  212.8500  139.3120 C   0  0  0  0  0  0  0  0  0  0  0  0
  160.3780  212.5460  142.7190 C   0  0  2  0  0  3  0  0  0  0  0  0
  162.6480  213.6850  143.0910 C   0  0  0  0  0  0  0  0  0  0  0  0
  159.0010  211.6810  138.6040 C   0  0  2  0  0  3  0  0  0  0  0  0
  159.1830  213.6200  140.2490 N   0  0  0  0  0  0  0  0  0  0  0  0
  164.7380  211.7270  138.0920 C   0  0  0  0  0  3  0  0  0  0  0  0
  160.4620  211.9180  144.1030 C   0  0  0  0  0  2  0  0  0  0  0  0
  158.4230  213.2530  143.9680 C   0  0  0  0  0  2  0  0  0  0  0  0
  162.7380  210.4250  137.9490 O   0  0  0  0  0  1  0  0  0  0  0  0
  162.9650  214.4530  140.8990 C   0  0  2  0  0  3  0  0  0  0  0  0
  165.4560  212.8090  138.5940 C   0  0  0  0  0  3  0  0  0  0  0  0
  162.7270  212.5090  139.2370 C   0  0  0  0  0  0  0  0  0  0  0  0
  161.4430  214.3620  141.1680 C   0  0  2  0  0  3  0  0  0  0  0  0
  162.9630  213.3400  144.2590 O   0  0  0  0  0  0  0  0  0  0  0  0
  161.2510  213.8220  142.6110 C   0  0  1  0  0  3  0  0  0  0  0  0
  159.3030  212.4680  144.9190 C   0  0  0  0  0  2  0  0  0  0  0  0
  157.1790  214.4530  141.5110 C   0  0  0  0  0  1  0  0  0  0  0  0
  164.8400  213.7050  139.4620 C   0  0  0  0  0  3  0  0  0  0  0  0
  163.4920  213.5530  139.8130 C   0  0  0  0  0  0  0  0  0  0  0  0
  158.6350  214.0030  141.5580 C   0  0  1  0  0  3  0  0  0  0  0  0
  158.8410  210.4250  139.4500 C   0  0  0  0  0  2  0  0  0  0  0  0
  160.4250  208.6740  139.2800 F   0  0  0  0  0  0  0  0  0  0  0  0
  159.3000  209.2030  138.6770 C   0  0  0  0  0  2  0  0  0  0  0  0
  1  5  1  6  0  0  0
  1  4  1  0  0  0  0
  2 19  1  0  0  0  0
  3 10  1  0  0  0  0
  4 12  1  1  0  0  0
  4 20  1  0  0  0  0
  5 11  1  0  0  0  0
  6  8  2  0  0  0  0
  7  9  1  0  0  0  0
  7 15  1  1  0  0  0
  8 12  1  0  0  0  0
  9 14  1  1  0  0  0
 10 21  2  0  0  0  0
 11  8  1  0  0  0  0
 11 28  1  1  0  0  0
 12 27  1  0  0  0  0
 13  2  2  0  0  0  0
 13 18  1  0  0  0  0
 14 23  1  0  0  0  0
 15 23  1  0  0  0  0
 16  2  1  0  0  0  0
 17 26  1  6  0  0  0
 17 20  1  0  0  0  0
 17  3  1  0  0  0  0
 18 25  2  0  0  0  0
 19  1  1  0  0  0  0
 19 26  2  0  0  0  0
 20 22  1  0  0  0  0
 22  9  1  0  0  0  0
 22 10  1  0  0  0  0
 24 27  1  0  0  0  0
 25 26  1  0  0  0  0
 27  7  1  0  0  0  0
 30 29  1  0  0  0  0
 30 28  1  0  0  0  0
M  END
>  <MODEL>
5

>  <REMARK>
 VINA RESULT:      -2.6      6.650     10.551
  Name = 
  2 active torsions:
  status: ('A' for Active; 'I' for Inactive)
    1  A    between atoms: C_11  and  C_28
    2  A    between atoms: C_28  and  C_30
                            x       y       z     vdW  Elec       q    Type
                         _______ _______ _______ _____ _____    ______ ____

>  <TORSDO>
F 2

$$$$
=
 OpenBabel11122412453D

 30 35  0  0  1  0  0  0  0  0999 V2000
  160.8610  211.1540  150.8940 C   0  0  1  0  0  3  0  0  0  0  0  0
  160.6540  209.6530  152.9590 C   0  0  0  0  0  0  0  0  0  0  0  0
  158.2180  213.4400  152.6630 N   0  0  0  0  0  2  0  0  0  0  0  0
  161.1450  212.6330  150.5800 C   0  0  1  0  0  3  0  0  0  0  0  0
  162.1060  210.3620  150.4830 C   0  0  0  0  0  2  0  0  0  0  0  0
  163.1480  212.1970  147.5960 O   0  0  0  0  0  0  0  0  0  0  0  0
  159.4120  213.1690  147.9260 C   0  0  1  0  0  3  0  0  0  0  0  0
  162.3810  211.8690  148.5390 C   0  0  0  0  0  0  0  0  0  0  0  0
  158.5650  212.7190  149.1200 C   0  0  2  0  0  3  0  0  0  0  0  0
  157.6820  213.5870  151.3670 C   0  0  0  0  0  0  0  0  0  0  0  0
  162.3560  210.4420  148.9810 C   0  0  2  0  0  3  0  0  0  0  0  0
  161.5090  212.8390  149.1600 N   0  0  0  0  0  0  0  0  0  0  0  0
  160.4390  209.4870  154.3290 C   0  0  0  0  0  3  0  0  0  0  0  0
  157.1490  212.7090  148.5630 C   0  0  0  0  0  2  0  0  0  0  0  0
  158.5380  214.1360  147.1520 C   0  0  0  0  0  2  0  0  0  0  0  0
  160.9650  208.5290  152.2020 O   0  0  0  0  0  1  0  0  0  0  0  0
  159.6650  213.3390  152.5900 C   0  0  2  0  0  3  0  0  0  0  0  0
  160.0670  210.5700  155.1200 C   0  0  0  0  0  3  0  0  0  0  0  0
  160.5480  210.9370  152.3660 C   0  0  0  0  0  0  0  0  0  0  0  0
  160.0350  213.5760  151.1060 C   0  0  2  0  0  3  0  0  0  0  0  0
  156.4450  213.7120  151.1700 O   0  0  0  0  0  0  0  0  0  0  0  0
  158.7110  213.7060  150.3060 C   0  0  1  0  0  3  0  0  0  0  0  0
  157.1100  213.6970  147.4080 C   0  0  0  0  0  2  0  0  0  0  0  0
  161.5310  214.3820  147.1800 C   0  0  0  0  0  1  0  0  0  0  0  0
  159.8730  211.8190  154.5360 C   0  0  0  0  0  3  0  0  0  0  0  0
  160.0800  212.0100  153.1640 C   0  0  0  0  0  0  0  0  0  0  0  0
  160.7450  213.7960  148.3470 C   0  0  1  0  0  3  0  0  0  0  0  0
  161.2950  209.6780  148.2020 C   0  0  0  0  0  2  0  0  0  0  0  0
  162.3740  207.9260  149.3740 F   0  0  0  0  0  0  0  0  0  0  0  0
  161.2240  208.2380  148.6730 C   0  0  0  0  0  2  0  0  0  0  0  0
  1  5  1  1  0  0  0
  1 19  1  0  0  0  0
  2 13  1  0  0  0  0
  4 12  1  6  0  0  0
  4  1  1  0  0  0  0
  4 20  1  0  0  0  0
  6  8  2  0  0  0  0
  7 15  1  1  0  0  0
  7 27  1  0  0  0  0
  7  9  1  0  0  0  0
  8 11  1  0  0  0  0
  8 12  1  0  0  0  0
  9 14  1  6  0  0  0
  9 22  1  0  0  0  0
 10  3  1  0  0  0  0
 11 28  1  6  0  0  0
 11  5  1  0  0  0  0
 13 18  2  0  0  0  0
 15 23  1  0  0  0  0
 16  2  1  0  0  0  0
 17  3  1  6  0  0  0
 17 26  1  0  0  0  0
 19  2  2  0  0  0  0
 19 26  1  0  0  0  0
 20 17  1  0  0  0  0
 21 10  2  0  0  0  0
 22 20  1  0  0  0  0
 22 10  1  0  0  0  0
 23 14  1  0  0  0  0
 24 27  1  0  0  0  0
 25 18  1  0  0  0  0
 26 25  2  0  0  0  0
 27 12  1  0  0  0  0
 28 30  1  0  0  0  0
 30 29  1  0  0  0  0
M  END
>  <MODEL>
6

>  <REMARK>
 VINA RESULT:      -2.5      1.238      1.518
  Name = 
  2 active torsions:
  status: ('A' for Active; 'I' for Inactive)
    1  A    between atoms: C_11  and  C_28
    2  A    between atoms: C_28  and  C_30
                            x       y       z     vdW  Elec       q    Type
                         _______ _______ _______ _____ _____    ______ ____

>  <TORSDO>
F 2

$$$$
=
 OpenBabel11122412453D

 30 35  0  0  1  0  0  0  0  0999 V2000
  159.8530  211.0300  152.7590 C   0  0  1  0  0  3  0  0  0  0  0  0
  158.9830  213.0050  151.3790 C   0  0  0  0  0  0  0  0  0  0  0  0
  158.8660  213.1690  155.8870 N   0  0  0  0  0  2  0  0  0  0  0  0
  159.3490  210.1160  153.8880 C   0  0  1  0  0  3  0  0  0  0  0  0
  159.8780  210.1880  151.4790 C   0  0  0  0  0  2  0  0  0  0  0  0
  160.8290  207.0000  152.7880 O   0  0  0  0  0  0  0  0  0  0  0  0
  162.0230  209.4480  155.5440 C   0  0  1  0  0  3  0  0  0  0  0  0
  160.6180  208.2410  152.8140 C   0  0  0  0  0  0  0  0  0  0  0  0
  161.7090  210.9450  155.4820 C   0  0  2  0  0  3  0  0  0  0  0  0
  160.0650  212.6700  156.4350 C   0  0  0  0  0  0  0  0  0  0  0  0
  160.8740  209.0390  151.5780 C   0  0  2  0  0  3  0  0  0  0  0  0
  160.1750  208.8940  154.0240 N   0  0  0  0  0  0  0  0  0  0  0  0
  158.1060  214.0770  151.2040 C   0  0  0  0  0  3  0  0  0  0  0  0
  162.8400  211.5750  156.2820 C   0  0  0  0  0  2  0  0  0  0  0  0
  162.6540  209.2230  156.9040 C   0  0  0  0  0  2  0  0  0  0  0  0
  159.8710  212.7070  150.3500 O   0  0  0  0  0  1  0  0  0  0  0  0
  158.2490  212.1590  155.0460 C   0  0  2  0  0  3  0  0  0  0  0  0
  157.2400  214.4530  152.2260 C   0  0  0  0  0  3  0  0  0  0  0  0
  158.9660  212.2520  152.5810 C   0  0  0  0  0  0  0  0  0  0  0  0
  159.1090  210.8830  155.2110 C   0  0  2  0  0  3  0  0  0  0  0  0
  160.7760  213.3560  157.2150 O   0  0  0  0  0  0  0  0  0  0  0  0
  160.3230  211.2460  156.1080 C   0  0  1  0  0  3  0  0  0  0  0  0
  163.3410  210.5260  157.2610 C   0  0  0  0  0  2  0  0  0  0  0  0
  161.0540  207.0860  155.5280 C   0  0  0  0  0  1  0  0  0  0  0  0
  157.2740  213.7790  153.4440 C   0  0  0  0  0  3  0  0  0  0  0  0
  158.1460  212.7020  153.6450 C   0  0  0  0  0  0  0  0  0  0  0  0
  160.7860  208.5720  155.3230 C   0  0  1  0  0  3  0  0  0  0  0  0
  162.3090  209.5480  151.5790 C   0  0  0  0  0  2  0  0  0  0  0  0
  162.2240  209.5060  149.2140 F   0  0  0  0  0  0  0  0  0  0  0  0
  162.6130  210.2840  150.2880 C   0  0  0  0  0  2  0  0  0  0  0  0
  1  5  1  6  0  0  0
  1  4  1  0  0  0  0
  2 19  1  0  0  0  0
  3 10  1  0  0  0  0
  4 12  1  1  0  0  0
  4 20  1  0  0  0  0
  5 11  1  0  0  0  0
  6  8  2  0  0  0  0
  7 15  1  1  0  0  0
  8 12  1  0  0  0  0
  9  7  1  0  0  0  0
  9 22  1  0  0  0  0
  9 14  1  1  0  0  0
 10 21  2  0  0  0  0
 11 28  1  1  0  0  0
 11  8  1  0  0  0  0
 12 27  1  0  0  0  0
 13  2  2  0  0  0  0
 13 18  1  0  0  0  0
 14 23  1  0  0  0  0
 15 23  1  0  0  0  0
 16  2  1  0  0  0  0
 17 26  1  6  0  0  0
 17 20  1  0  0  0  0
 17  3  1  0  0  0  0
 18 25  2  0  0  0  0
 19  1  1  0  0  0  0
 19 26  2  0  0  0  0
 20 22  1  0  0  0  0
 22 10  1  0  0  0  0
 25 26  1  0  0  0  0
 27 24  1  0  0  0  0
 27  7  1  0  0  0  0
 29 30  1  0  0  0  0
 30 28  1  0  0  0  0
M  END
>  <MODEL>
7

>  <REMARK>
 VINA RESULT:      -2.3      3.421      6.917
  Name = 
  2 active torsions:
  status: ('A' for Active; 'I' for Inactive)
    1  A    between atoms: C_11  and  C_28
    2  A    between atoms: C_28  and  C_30
                            x       y       z     vdW  Elec       q    Type
                         _______ _______ _______ _____ _____    ______ ____

>  <TORSDO>
F 2

$$$$
