=
 OpenBabel11122412433D

 30 35  0  0  1  0  0  0  0  0999 V2000
  161.6400  209.8940  149.8160 C   0  0  0  0  0  0  0  0  0  0  0  0
  162.0370  207.4640  149.4190 C   0  0  0  0  0  0  0  0  0  0  0  0
  160.2630  209.1630  153.7930 C   0  0  0  0  0  2  0  0  0  0  0  0
  161.2540  210.9300  150.7020 C   0  0  0  0  0  0  0  0  0  0  0  0
  162.0120  210.2340  148.4730 N   0  0  0  0  0  2  0  0  0  0  0  0
  162.3460  213.6720  148.5700 O   0  0  0  0  0  0  0  0  0  0  0  0
  158.8560  212.5870  151.0530 C   0  0  1  0  0  3  0  0  0  0  0  0
  161.8470  212.6060  148.8950 C   0  0  0  0  0  0  0  0  0  0  0  0
  158.8850  212.0790  152.4980 C   0  0  2  0  0  3  0  0  0  0  0  0
  160.1060  210.6170  154.2480 C   0  0  2  0  0  3  0  0  0  0  0  0
  161.6890  211.5250  147.8740 C   0  0  2  0  0  3  0  0  0  0  0  0
  161.3790  212.3950  150.3120 C   0  0  1  0  0  3  0  0  0  0  0  0
  162.0030  206.1520  149.8990 C   0  0  0  0  0  3  0  0  0  0  0  0
  158.4110  213.2480  153.3330 C   0  0  0  0  0  2  0  0  0  0  0  0
  157.7010  213.5770  151.0160 C   0  0  0  0  0  2  0  0  0  0  0  0
  162.4760  207.6700  148.1160 O   0  0  0  0  0  1  0  0  0  0  0  0
  160.7890  209.2830  152.4110 C   0  0  0  0  0  0  0  0  0  0  0  0
  161.5750  205.8770  151.1960 C   0  0  0  0  0  3  0  0  0  0  0  0
  161.6360  208.5390  150.2530 C   0  0  0  0  0  0  0  0  0  0  0  0
  160.8100  210.5850  151.9850 C   0  0  0  0  0  0  0  0  0  0  0  0
  158.8930  210.7830  154.9220 O   0  0  0  0  0  1  0  0  0  0  0  0
  160.2380  211.5180  152.9950 C   0  0  1  0  0  3  0  0  0  0  0  0
  157.4250  213.9940  152.4550 C   0  0  0  0  0  2  0  0  0  0  0  0
  160.2740  214.4530  150.6300 O   0  0  0  0  0  0  0  0  0  0  0  0
  161.1740  206.9170  152.0310 C   0  0  0  0  0  3  0  0  0  0  0  0
  161.2010  208.2410  151.5770 C   0  0  0  0  0  0  0  0  0  0  0  0
  160.1630  213.2350  150.6350 C   0  0  0  0  0  0  0  0  0  0  0  0
  160.2590  211.5190  147.3520 C   0  0  0  0  0  2  0  0  0  0  0  0
  158.4300  213.1830  147.3190 C   0  0  0  0  0  1  0  0  0  0  0  0
  159.8580  212.9100  146.8980 C   0  0  0  0  0  2  0  0  0  0  0  0
  1 19  2  0  0  0  0
  1  4  1  0  0  0  0
  2 13  2  0  0  0  0
  2 19  1  0  0  0  0
  3 10  1  0  0  0  0
  4 20  2  0  0  0  0
  5  1  1  0  0  0  0
  6  8  2  0  0  0  0
  7 15  1  1  0  0  0
  7  9  1  0  0  0  0
  9 22  1  0  0  0  0
  9 14  1  1  0  0  0
 10 21  1  6  0  0  0
 11 28  1  1  0  0  0
 11  5  1  0  0  0  0
 11  8  1  0  0  0  0
 12  8  1  6  0  0  0
 12 27  1  0  0  0  0
 12  4  1  0  0  0  0
 13 18  1  0  0  0  0
 15 23  1  0  0  0  0
 16  2  1  0  0  0  0
 17  3  1  0  0  0  0
 18 25  2  0  0  0  0
 19 26  1  0  0  0  0
 20 17  1  0  0  0  0
 22 20  1  6  0  0  0
 22 10  1  0  0  0  0
 23 14  1  0  0  0  0
 24 27  2  0  0  0  0
 26 25  1  0  0  0  0
 26 17  2  0  0  0  0
 27  7  1  0  0  0  0
 30 29  1  0  0  0  0
 30 28  1  0  0  0  0
M  END
>  <MODEL>
1

>  <REMARK>
 VINA RESULT:      -5.3      0.000      0.000
  Name = 
  2 active torsions:
  status: ('A' for Active; 'I' for Inactive)
    1  A    between atoms: C_11  and  C_28
    2  A    between atoms: C_28  and  C_30
                            x       y       z     vdW  Elec       q    Type
                         _______ _______ _______ _____ _____    ______ ____

>  <TORSDO>
F 2

$$$$
=
 OpenBabel11122412433D

 30 35  0  0  1  0  0  0  0  0999 V2000
  158.7270  211.8580  155.3230 C   0  0  0  0  0  0  0  0  0  0  0  0
  156.4550  212.6120  156.0260 C   0  0  0  0  0  0  0  0  0  0  0  0
  158.3530  213.7960  151.5350 C   0  0  0  0  0  2  0  0  0  0  0  0
  159.7610  211.8660  154.3560 C   0  0  0  0  0  0  0  0  0  0  0  0
  158.9170  211.1110  156.5340 N   0  0  0  0  0  2  0  0  0  0  0  0
  162.2850  210.3420  156.4920 O   0  0  0  0  0  0  0  0  0  0  0  0
  160.7650  209.9600  152.3600 C   0  0  1  0  0  3  0  0  0  0  0  0
  161.1980  210.5480  155.9760 C   0  0  0  0  0  0  0  0  0  0  0  0
  160.5370  211.0980  151.3610 C   0  0  2  0  0  3  0  0  0  0  0  0
  159.7700  213.5440  151.0130 C   0  0  2  0  0  3  0  0  0  0  0  0
  159.9540  210.0940  156.6720 C   0  0  2  0  0  3  0  0  0  0  0  0
  161.1180  211.2390  154.6390 C   0  0  1  0  0  3  0  0  0  0  0  0
  155.2820  213.3130  155.7310 C   0  0  0  0  0  3  0  0  0  0  0  0
  161.6660  210.9720  150.3620 C   0  0  0  0  0  2  0  0  0  0  0  0
  161.3950  208.8450  151.5380 C   0  0  0  0  0  2  0  0  0  0  0  0
  156.5430  211.9780  157.2600 O   0  0  0  0  0  1  0  0  0  0  0  0
  158.3680  213.1960  152.8920 C   0  0  0  0  0  0  0  0  0  0  0  0
  155.1320  213.9710  154.5120 C   0  0  0  0  0  3  0  0  0  0  0  0
  157.5140  212.5630  155.0830 C   0  0  0  0  0  0  0  0  0  0  0  0
  159.5370  212.5250  153.1400 C   0  0  0  0  0  0  0  0  0  0  0  0
  159.7250  213.1180  149.6830 O   0  0  0  0  0  1  0  0  0  0  0  0
  160.4460  212.5220  151.9600 C   0  0  1  0  0  3  0  0  0  0  0  0
  161.9650  209.4870  150.2800 C   0  0  0  0  0  2  0  0  0  0  0  0
  162.8360  210.0660  153.5310 O   0  0  0  0  0  0  0  0  0  0  0  0
  156.1580  213.9340  153.5700 C   0  0  0  0  0  3  0  0  0  0  0  0
  157.3440  213.2420  153.8420 C   0  0  0  0  0  0  0  0  0  0  0  0
  161.6510  210.3700  153.5220 C   0  0  0  0  0  0  0  0  0  0  0  0
  159.4840  208.7780  156.0710 C   0  0  0  0  0  2  0  0  0  0  0  0
  160.6410  207.0240  154.7660 C   0  0  0  0  0  1  0  0  0  0  0  0
  160.6070  207.7580  156.0900 C   0  0  0  0  0  2  0  0  0  0  0  0
  1  5  1  0  0  0  0
  2 16  1  0  0  0  0
  3 17  1  0  0  0  0
  4 12  1  0  0  0  0
  4  1  2  0  0  0  0
  5 11  1  0  0  0  0
  7 15  1  6  0  0  0
  7 27  1  0  0  0  0
  8  6  2  0  0  0  0
  8 11  1  0  0  0  0
  9 14  1  6  0  0  0
  9 22  1  0  0  0  0
  9  7  1  0  0  0  0
 10 21  1  6  0  0  0
 10  3  1  0  0  0  0
 10 22  1  0  0  0  0
 11 28  1  6  0  0  0
 12 27  1  6  0  0  0
 12  8  1  0  0  0  0
 13  2  1  0  0  0  0
 17 20  2  0  0  0  0
 17 26  1  0  0  0  0
 18 13  2  0  0  0  0
 19  1  1  0  0  0  0
 19  2  2  0  0  0  0
 20  4  1  0  0  0  0
 22 20  1  1  0  0  0
 23 14  1  0  0  0  0
 23 15  1  0  0  0  0
 25 26  2  0  0  0  0
 25 18  1  0  0  0  0
 26 19  1  0  0  0  0
 27 24  2  0  0  0  0
 28 30  1  0  0  0  0
 29 30  1  0  0  0  0
M  END
>  <MODEL>
2

>  <REMARK>
 VINA RESULT:      -5.0      2.800      7.337
  Name = 
  2 active torsions:
  status: ('A' for Active; 'I' for Inactive)
    1  A    between atoms: C_11  and  C_28
    2  A    between atoms: C_28  and  C_30
                            x       y       z     vdW  Elec       q    Type
                         _______ _______ _______ _____ _____    ______ ____

>  <TORSDO>
F 2

$$$$
=
 OpenBabel11122412433D

 30 35  0  0  1  0  0  0  0  0999 V2000
  160.8350  211.6000  151.0930 C   0  0  0  0  0  0  0  0  0  0  0  0
  160.9680  210.2220  153.1680 C   0  0  0  0  0  0  0  0  0  0  0  0
  157.1900  213.4260  152.3720 C   0  0  0  0  0  2  0  0  0  0  0  0
  160.1680  212.6000  150.3440 C   0  0  0  0  0  0  0  0  0  0  0  0
  162.0100  210.9900  150.5420 N   0  0  0  0  0  2  0  0  0  0  0  0
  162.7960  213.0190  147.8590 O   0  0  0  0  0  0  0  0  0  0  0  0
  158.3970  212.6180  148.0010 C   0  0  1  0  0  3  0  0  0  0  0  0
  162.0290  212.4620  148.6280 C   0  0  0  0  0  0  0  0  0  0  0  0
  157.4380  213.3970  148.9050 C   0  0  2  0  0  3  0  0  0  0  0  0
  157.0380  214.4430  151.2370 C   0  0  2  0  0  3  0  0  0  0  0  0
  162.3550  211.0910  149.1280 C   0  0  2  0  0  3  0  0  0  0  0  0
  160.7570  213.1490  149.0530 C   0  0  1  0  0  3  0  0  0  0  0  0
  160.4200  209.8590  154.4010 C   0  0  0  0  0  3  0  0  0  0  0  0
  156.7570  214.3910  147.9890 C   0  0  0  0  0  2  0  0  0  0  0  0
  157.7050  212.5790  146.6470 C   0  0  0  0  0  2  0  0  0  0  0  0
  162.1470  209.6000  152.7710 O   0  0  0  0  0  1  0  0  0  0  0  0
  158.4700  212.7430  152.0610 C   0  0  0  0  0  0  0  0  0  0  0  0
  159.2410  210.4460  154.8580 C   0  0  0  0  0  3  0  0  0  0  0  0
  160.3290  211.1980  152.3620 C   0  0  0  0  0  0  0  0  0  0  0  0
  158.9740  213.1320  150.8470 C   0  0  0  0  0  0  0  0  0  0  0  0
  155.7200  214.4530  150.7740 O   0  0  0  0  0  1  0  0  0  0  0  0
  158.0700  214.0810  150.1400 C   0  0  1  0  0  3  0  0  0  0  0  0
  156.6740  213.7000  146.6410 C   0  0  0  0  0  2  0  0  0  0  0  0
  160.0660  213.9480  146.9460 O   0  0  0  0  0  0  0  0  0  0  0  0
  158.5950  211.4060  154.0820 C   0  0  0  0  0  3  0  0  0  0  0  0
  159.1250  211.7890  152.8440 C   0  0  0  0  0  0  0  0  0  0  0  0
  159.7690  213.2610  147.9130 C   0  0  0  0  0  0  0  0  0  0  0  0
  161.5820  210.0560  148.3230 C   0  0  0  0  0  2  0  0  0  0  0  0
  162.5330  207.7740  148.2660 C   0  0  0  0  0  1  0  0  0  0  0  0
  161.6160  208.7100  149.0230 C   0  0  0  0  0  2  0  0  0  0  0  0
  1 19  1  0  0  0  0
  2 13  1  0  0  0  0
  4 20  1  0  0  0  0
  4  1  2  0  0  0  0
  5  1  1  0  0  0  0
  6  8  2  0  0  0  0
  7 15  1  6  0  0  0
  7  9  1  0  0  0  0
  8 12  1  0  0  0  0
  8 11  1  0  0  0  0
  9 14  1  6  0  0  0
  9 22  1  0  0  0  0
 10 21  1  6  0  0  0
 10  3  1  0  0  0  0
 11 28  1  6  0  0  0
 11  5  1  0  0  0  0
 12 27  1  6  0  0  0
 12  4  1  0  0  0  0
 13 18  2  0  0  0  0
 16  2  1  0  0  0  0
 17  3  1  0  0  0  0
 17 26  1  0  0  0  0
 19 26  1  0  0  0  0
 19  2  2  0  0  0  0
 20 17  2  0  0  0  0
 22 20  1  1  0  0  0
 22 10  1  0  0  0  0
 23 15  1  0  0  0  0
 23 14  1  0  0  0  0
 24 27  2  0  0  0  0
 25 18  1  0  0  0  0
 26 25  2  0  0  0  0
 27  7  1  0  0  0  0
 28 30  1  0  0  0  0
 29 30  1  0  0  0  0
M  END
>  <MODEL>
3

>  <REMARK>
 VINA RESULT:      -4.8      2.022      4.362
  Name = 
  2 active torsions:
  status: ('A' for Active; 'I' for Inactive)
    1  A    between atoms: C_11  and  C_28
    2  A    between atoms: C_28  and  C_30
                            x       y       z     vdW  Elec       q    Type
                         _______ _______ _______ _____ _____    ______ ____

>  <TORSDO>
F 2

$$$$
=
 OpenBabel11122412433D

 30 35  0  0  1  0  0  0  0  0999 V2000
  161.0620  212.5960  141.3170 C   0  0  0  0  0  0  0  0  0  0  0  0
  161.6820  213.1870  143.6600 C   0  0  0  0  0  0  0  0  0  0  0  0
  157.2340  214.4510  141.7110 C   0  0  0  0  0  2  0  0  0  0  0  0
  160.1270  212.6690  140.2560 C   0  0  0  0  0  0  0  0  0  0  0  0
  162.2890  211.8820  141.1120 N   0  0  0  0  0  2  0  0  0  0  0  0
  162.3650  211.3670  137.6960 O   0  0  0  0  0  0  0  0  0  0  0  0
  158.1940  210.8170  139.0490 C   0  0  1  0  0  3  0  0  0  0  0  0
  161.8120  211.4840  138.7780 C   0  0  0  0  0  0  0  0  0  0  0  0
  157.1710  211.9220  139.3280 C   0  0  2  0  0  3  0  0  0  0  0  0
  156.7600  214.2990  140.2630 C   0  0  2  0  0  3  0  0  0  0  0  0
  162.4750  210.9480  140.0060 C   0  0  2  0  0  3  0  0  0  0  0  0
  160.4620  212.1490  138.8660 C   0  0  1  0  0  3  0  0  0  0  0  0
  161.3390  213.7940  144.8720 C   0  0  0  0  0  3  0  0  0  0  0  0
  156.2090  211.8680  138.1610 C   0  0  0  0  0  2  0  0  0  0  0  0
  157.4090  209.7420  138.3110 C   0  0  0  0  0  2  0  0  0  0  0  0
  162.9280  212.5780  143.5660 O   0  0  0  0  0  1  0  0  0  0  0  0
  158.6000  213.8710  141.6960 C   0  0  0  0  0  0  0  0  0  0  0  0
  160.1050  214.4230  145.0310 C   0  0  0  0  0  3  0  0  0  0  0  0
  160.7730  213.2050  142.5710 C   0  0  0  0  0  0  0  0  0  0  0  0
  158.8950  213.2930  140.4890 C   0  0  0  0  0  0  0  0  0  0  0  0
  155.4360  213.8530  140.2340 O   0  0  0  0  0  1  0  0  0  0  0  0
  157.7450  213.3430  139.5450 C   0  0  1  0  0  3  0  0  0  0  0  0
  156.1600  210.4090  137.7500 C   0  0  0  0  0  2  0  0  0  0  0  0
  159.4270  211.0930  137.0300 O   0  0  0  0  0  0  0  0  0  0  0  0
  159.1970  214.4510  143.9750 C   0  0  0  0  0  3  0  0  0  0  0  0
  159.5160  213.8530  142.7510 C   0  0  0  0  0  0  0  0  0  0  0  0
  159.3770  211.3080  138.2340 C   0  0  0  0  0  0  0  0  0  0  0  0
  161.8810  209.5910  140.3580 C   0  0  0  0  0  2  0  0  0  0  0  0
  161.9230  207.2470  139.5700 C   0  0  0  0  0  1  0  0  0  0  0  0
  161.8520  208.6950  139.1340 C   0  0  0  0  0  2  0  0  0  0  0  0
  1 19  1  0  0  0  0
  2 13  1  0  0  0  0
  4 20  1  0  0  0  0
  4  1  2  0  0  0  0
  5  1  1  0  0  0  0
  6  8  2  0  0  0  0
  7 15  1  6  0  0  0
  7  9  1  0  0  0  0
  8 12  1  0  0  0  0
  8 11  1  0  0  0  0
  9 14  1  6  0  0  0
  9 22  1  0  0  0  0
 10 21  1  1  0  0  0
 10  3  1  0  0  0  0
 11 28  1  1  0  0  0
 11  5  1  0  0  0  0
 12 27  1  1  0  0  0
 12  4  1  0  0  0  0
 13 18  2  0  0  0  0
 16  2  1  0  0  0  0
 17  3  1  0  0  0  0
 17 26  1  0  0  0  0
 19 26  1  0  0  0  0
 19  2  2  0  0  0  0
 20 17  2  0  0  0  0
 22 10  1  0  0  0  0
 22 20  1  1  0  0  0
 23 14  1  0  0  0  0
 23 15  1  0  0  0  0
 24 27  2  0  0  0  0
 25 18  1  0  0  0  0
 26 25  2  0  0  0  0
 27  7  1  0  0  0  0
 30 29  1  0  0  0  0
 30 28  1  0  0  0  0
M  END
>  <MODEL>
4

>  <REMARK>
 VINA RESULT:      -4.7      7.627     11.522
  Name = 
  2 active torsions:
  status: ('A' for Active; 'I' for Inactive)
    1  A    between atoms: C_11  and  C_28
    2  A    between atoms: C_28  and  C_30
                            x       y       z     vdW  Elec       q    Type
                         _______ _______ _______ _____ _____    ______ ____

>  <TORSDO>
F 2

$$$$
=
 OpenBabel11122412433D

 30 35  0  0  1  0  0  0  0  0999 V2000
  157.4710  213.2570  152.6090 C   0  0  0  0  0  0  0  0  0  0  0  0
  155.3850  214.0690  151.5080 C   0  0  0  0  0  0  0  0  0  0  0  0
  159.5650  213.1570  148.8870 C   0  0  0  0  0  2  0  0  0  0  0  0
  158.8360  212.8930  152.5010 C   0  0  0  0  0  0  0  0  0  0  0  0
  156.8340  213.1820  153.8920 N   0  0  0  0  0  2  0  0  0  0  0  0
  159.4710  212.7550  156.0830 O   0  0  0  0  0  0  0  0  0  0  0  0
  160.3220  210.3610  152.4680 C   0  0  1  0  0  3  0  0  0  0  0  0
  158.8910  212.6080  155.0190 C   0  0  0  0  0  0  0  0  0  0  0  0
  160.8980  210.8760  151.1460 C   0  0  2  0  0  3  0  0  0  0  0  0
  160.9560  212.8030  149.4210 C   0  0  2  0  0  3  0  0  0  0  0  0
  157.4060  212.4350  155.0080 C   0  0  2  0  0  3  0  0  0  0  0  0
  159.6740  212.5820  153.7320 C   0  0  1  0  0  3  0  0  0  0  0  0
  154.7200  214.4530  150.3400 C   0  0  0  0  0  3  0  0  0  0  0  0
  162.3300  210.3870  151.1260 C   0  0  0  0  0  2  0  0  0  0  0  0
  161.0450  209.0450  152.7170 C   0  0  0  0  0  2  0  0  0  0  0  0
  154.6740  214.0960  152.7030 O   0  0  0  0  0  1  0  0  0  0  0  0
  158.7360  213.2660  150.1130 C   0  0  0  0  0  0  0  0  0  0  0  0
  155.3760  214.4480  149.1110 C   0  0  0  0  0  3  0  0  0  0  0  0
  156.7450  213.6680  151.4560 C   0  0  0  0  0  0  0  0  0  0  0  0
  159.4300  212.8850  151.2320 C   0  0  0  0  0  0  0  0  0  0  0  0
  161.5330  211.8010  148.6360 O   0  0  0  0  0  1  0  0  0  0  0  0
  160.8000  212.4020  150.9090 C   0  0  1  0  0  3  0  0  0  0  0  0
  162.3120  209.0660  151.8710 C   0  0  0  0  0  2  0  0  0  0  0  0
  161.4320  211.1680  154.4140 O   0  0  0  0  0  0  0  0  0  0  0  0
  156.7110  214.0570  149.0360 C   0  0  0  0  0  3  0  0  0  0  0  0
  157.4010  213.6690  150.1910 C   0  0  0  0  0  0  0  0  0  0  0  0
  160.5240  211.3370  153.6130 C   0  0  0  0  0  0  0  0  0  0  0  0
  157.0630  210.9580  154.8820 C   0  0  0  0  0  2  0  0  0  0  0  0
  155.4640  211.4520  156.7030 C   0  0  0  0  0  1  0  0  0  0  0  0
  155.6650  210.6940  155.4080 C   0  0  0  0  0  2  0  0  0  0  0  0
  1  5  1  0  0  0  0
  2 16  1  0  0  0  0
  3 10  1  0  0  0  0
  3 17  1  0  0  0  0
  4  1  1  0  0  0  0
  5 11  1  0  0  0  0
  7 15  1  1  0  0  0
  7 27  1  0  0  0  0
  8  6  2  0  0  0  0
  9 14  1  1  0  0  0
  9  7  1  0  0  0  0
 10 21  1  6  0  0  0
 10 22  1  0  0  0  0
 11 28  1  6  0  0  0
 11  8  1  0  0  0  0
 12  4  1  6  0  0  0
 12  8  1  0  0  0  0
 13  2  2  0  0  0  0
 14 23  1  0  0  0  0
 17 26  2  0  0  0  0
 17 20  1  0  0  0  0
 18 13  1  0  0  0  0
 19  2  1  0  0  0  0
 19  1  2  0  0  0  0
 20  4  2  0  0  0  0
 22  9  1  0  0  0  0
 22 20  1  6  0  0  0
 23 15  1  0  0  0  0
 25 18  2  0  0  0  0
 25 26  1  0  0  0  0
 26 19  1  0  0  0  0
 27 12  1  0  0  0  0
 27 24  2  0  0  0  0
 28 30  1  0  0  0  0
 30 29  1  0  0  0  0
M  END
>  <MODEL>
5

>  <REMARK>
 VINA RESULT:      -4.5      2.718      7.133
  Name = 
  2 active torsions:
  status: ('A' for Active; 'I' for Inactive)
    1  A    between atoms: C_11  and  C_28
    2  A    between atoms: C_28  and  C_30
                            x       y       z     vdW  Elec       q    Type
                         _______ _______ _______ _____ _____    ______ ____

>  <TORSDO>
F 2

$$$$
=
 OpenBabel11122412433D

 30 35  0  0  1  0  0  0  0  0999 V2000
  161.8940  207.7370  149.5160 C   0  0  0  0  0  0  0  0  0  0  0  0
  161.5860  205.7610  148.0260 C   0  0  0  0  0  0  0  0  0  0  0  0
  160.8310  205.4700  152.9770 C   0  0  0  0  0  2  0  0  0  0  0  0
  161.8990  208.2780  150.8250 C   0  0  0  0  0  0  0  0  0  0  0  0
  162.1890  208.5990  148.4080 N   0  0  0  0  0  2  0  0  0  0  0  0
  163.4300  211.4530  149.9100 O   0  0  0  0  0  0  0  0  0  0  0  0
  160.0810  209.9760  152.3860 C   0  0  1  0  0  3  0  0  0  0  0  0
  162.7060  210.4720  149.8430 C   0  0  0  0  0  0  0  0  0  0  0  0
  160.1380  208.8470  153.4200 C   0  0  2  0  0  3  0  0  0  0  0  0
  161.1170  206.5350  154.0400 C   0  0  2  0  0  3  0  0  0  0  0  0
  162.1530  210.0540  148.5180 C   0  0  2  0  0  3  0  0  0  0  0  0
  162.3620  209.7030  151.0920 C   0  0  1  0  0  3  0  0  0  0  0  0
  161.2600  204.4090  147.8830 C   0  0  0  0  0  3  0  0  0  0  0  0
  160.0880  209.5430  154.7620 C   0  0  0  0  0  2  0  0  0  0  0  0
  159.2330  211.0560  153.0410 C   0  0  0  0  0  2  0  0  0  0  0  0
  161.9130  206.4770  146.8800 O   0  0  0  0  0  1  0  0  0  0  0  0
  161.2110  206.1340  151.7060 C   0  0  0  0  0  0  0  0  0  0  0  0
  160.9240  203.6350  148.9920 C   0  0  0  0  0  3  0  0  0  0  0  0
  161.5810  206.3630  149.3100 C   0  0  0  0  0  0  0  0  0  0  0  0
  161.5280  207.4540  151.8940 C   0  0  0  0  0  0  0  0  0  0  0  0
  160.0760  206.5780  154.9710 O   0  0  0  0  0  1  0  0  0  0  0  0
  161.3410  207.8810  153.3080 C   0  0  1  0  0  3  0  0  0  0  0  0
  159.2420  210.7820  154.5390 C   0  0  0  0  0  2  0  0  0  0  0  0
  161.8850  211.5250  152.5090 O   0  0  0  0  0  0  0  0  0  0  0  0
  160.9110  204.2070  150.2620 C   0  0  0  0  0  3  0  0  0  0  0  0
  161.2350  205.5580  150.4330 C   0  0  0  0  0  0  0  0  0  0  0  0
  161.4570  210.4940  152.0100 C   0  0  0  0  0  0  0  0  0  0  0  0
  160.7230  210.5570  148.3790 C   0  0  0  0  0  2  0  0  0  0  0  0
  160.5400  213.0220  148.4720 C   0  0  0  0  0  1  0  0  0  0  0  0
  160.6900  211.8280  147.5520 C   0  0  0  0  0  2  0  0  0  0  0  0
  1  4  1  0  0  0  0
  2 19  1  0  0  0  0
  3 10  1  0  0  0  0
  4 12  1  0  0  0  0
  4 20  2  0  0  0  0
  5 11  1  0  0  0  0
  5  1  1  0  0  0  0
  7 15  1  1  0  0  0
  7  9  1  0  0  0  0
  8  6  2  0  0  0  0
  9 14  1  1  0  0  0
 10 21  1  1  0  0  0
 11 28  1  1  0  0  0
 11  8  1  0  0  0  0
 12  8  1  6  0  0  0
 12 27  1  0  0  0  0
 13  2  2  0  0  0  0
 13 18  1  0  0  0  0
 15 23  1  0  0  0  0
 16  2  1  0  0  0  0
 17 20  1  0  0  0  0
 17  3  1  0  0  0  0
 18 25  2  0  0  0  0
 19  1  2  0  0  0  0
 19 26  1  0  0  0  0
 22 20  1  6  0  0  0
 22  9  1  0  0  0  0
 22 10  1  0  0  0  0
 23 14  1  0  0  0  0
 25 26  1  0  0  0  0
 26 17  2  0  0  0  0
 27  7  1  0  0  0  0
 27 24  2  0  0  0  0
 30 28  1  0  0  0  0
 30 29  1  0  0  0  0
M  END
>  <MODEL>
6

>  <REMARK>
 VINA RESULT:      -3.9      1.945      3.093
  Name = 
  2 active torsions:
  status: ('A' for Active; 'I' for Inactive)
    1  A    between atoms: C_11  and  C_28
    2  A    between atoms: C_28  and  C_30
                            x       y       z     vdW  Elec       q    Type
                         _______ _______ _______ _____ _____    ______ ____

>  <TORSDO>
F 2

$$$$
=
 OpenBabel11122412433D

 30 35  0  0  1  0  0  0  0  0999 V2000
  159.7860  211.2140  139.3630 C   0  0  0  0  0  0  0  0  0  0  0  0
  161.6390  209.7880  138.4940 C   0  0  0  0  0  0  0  0  0  0  0  0
  156.8330  208.7830  137.4620 C   0  0  0  0  0  2  0  0  0  0  0  0
  158.3950  211.4520  139.4860 C   0  0  0  0  0  0  0  0  0  0  0  0
  160.7030  212.1340  139.9740 N   0  0  0  0  0  2  0  0  0  0  0  0
  158.6830  214.0600  142.0100 O   0  0  0  0  0  0  0  0  0  0  0  0
  156.4810  213.3070  138.2540 C   0  0  1  0  0  3  0  0  0  0  0  0
  158.9310  213.4060  141.0100 C   0  0  0  0  0  0  0  0  0  0  0  0
  155.6990  212.0410  137.8910 C   0  0  2  0  0  3  0  0  0  0  0  0
  155.5830  209.4600  138.0320 C   0  0  2  0  0  3  0  0  0  0  0  0
  160.3000  213.4670  140.4110 C   0  0  2  0  0  3  0  0  0  0  0  0
  157.8550  212.5610  140.3770 C   0  0  1  0  0  3  0  0  0  0  0  0
  162.0450  208.6770  137.7500 C   0  0  0  0  0  3  0  0  0  0  0  0
  154.2420  212.4320  138.0110 C   0  0  0  0  0  2  0  0  0  0  0  0
  155.6010  214.4530  137.7770 C   0  0  0  0  0  2  0  0  0  0  0  0
  162.6230  210.5700  139.0880 O   0  0  0  0  0  1  0  0  0  0  0  0
  157.9520  209.5240  138.0950 C   0  0  0  0  0  0  0  0  0  0  0  0
  161.1090  207.8520  137.1300 C   0  0  0  0  0  3  0  0  0  0  0  0
  160.2590  210.0910  138.6280 C   0  0  0  0  0  0  0  0  0  0  0  0
  157.5070  210.6000  138.8170 C   0  0  0  0  0  0  0  0  0  0  0  0
  154.6390  209.6580  137.0210 O   0  0  0  0  0  1  0  0  0  0  0  0
  156.0320  210.7750  138.7170 C   0  0  1  0  0  3  0  0  0  0  0  0
  154.1900  213.8990  137.6280 C   0  0  0  0  0  2  0  0  0  0  0  0
  156.0880  214.1180  140.4580 O   0  0  0  0  0  0  0  0  0  0  0  0
  159.7500  208.1320  137.2470 C   0  0  0  0  0  3  0  0  0  0  0  0
  159.3150  209.2370  137.9870 C   0  0  0  0  0  0  0  0  0  0  0  0
  156.7750  213.4060  139.7400 C   0  0  0  0  0  0  0  0  0  0  0  0
  160.3000  214.4290  139.2320 C   0  0  0  0  0  2  0  0  0  0  0  0
  160.9600  213.5270  137.0260 C   0  0  0  0  0  1  0  0  0  0  0  0
  161.4720  214.1380  138.3140 C   0  0  0  0  0  2  0  0  0  0  0  0
  1  4  1  0  0  0  0
  1  5  1  0  0  0  0
  2 19  1  0  0  0  0
  2 16  1  0  0  0  0
  3 10  1  0  0  0  0
  3 17  1  0  0  0  0
  5 11  1  0  0  0  0
  7 15  1  1  0  0  0
  7 27  1  0  0  0  0
  8  6  2  0  0  0  0
  9 14  1  1  0  0  0
  9  7  1  0  0  0  0
  9 22  1  0  0  0  0
 10 21  1  6  0  0  0
 10 22  1  0  0  0  0
 11 28  1  6  0  0  0
 11  8  1  0  0  0  0
 12  4  1  6  0  0  0
 12  8  1  0  0  0  0
 13  2  2  0  0  0  0
 17 20  1  0  0  0  0
 18 25  2  0  0  0  0
 18 13  1  0  0  0  0
 19  1  2  0  0  0  0
 20  4  2  0  0  0  0
 22 20  1  6  0  0  0
 23 15  1  0  0  0  0
 23 14  1  0  0  0  0
 25 26  1  0  0  0  0
 26 17  2  0  0  0  0
 26 19  1  0  0  0  0
 27 12  1  0  0  0  0
 27 24  2  0  0  0  0
 29 30  1  0  0  0  0
 30 28  1  0  0  0  0
M  END
>  <MODEL>
7

>  <REMARK>
 VINA RESULT:      -3.9     10.637     12.707
  Name = 
  2 active torsions:
  status: ('A' for Active; 'I' for Inactive)
    1  A    between atoms: C_11  and  C_28
    2  A    between atoms: C_28  and  C_30
                            x       y       z     vdW  Elec       q    Type
                         _______ _______ _______ _____ _____    ______ ____

>  <TORSDO>
F 2

$$$$
=
 OpenBabel11122412433D

 30 35  0  0  1  0  0  0  0  0999 V2000
  161.7580  205.1380  149.3520 C   0  0  0  0  0  0  0  0  0  0  0  0
  160.9710  202.8430  148.7740 C   0  0  0  0  0  0  0  0  0  0  0  0
  160.9610  204.5180  153.5030 C   0  0  0  0  0  2  0  0  0  0  0  0
  162.0350  206.1100  150.3450 C   0  0  0  0  0  0  0  0  0  0  0  0
  161.9850  205.4700  147.9750 N   0  0  0  0  0  2  0  0  0  0  0  0
  163.8000  208.4060  148.1380 O   0  0  0  0  0  0  0  0  0  0  0  0
  160.7140  208.5540  151.2970 C   0  0  1  0  0  3  0  0  0  0  0  0
  162.9550  207.6130  148.5220 C   0  0  0  0  0  0  0  0  0  0  0  0
  160.7840  207.8890  152.6750 C   0  0  2  0  0  3  0  0  0  0  0  0
  161.5430  205.8280  154.0420 C   0  0  2  0  0  3  0  0  0  0  0  0
  162.1540  206.8460  147.5190 C   0  0  2  0  0  3  0  0  0  0  0  0
  162.7130  207.4270  149.9980 C   0  0  1  0  0  3  0  0  0  0  0  0
  160.4550  201.6130  149.1940 C   0  0  0  0  0  3  0  0  0  0  0  0
  161.0320  209.0240  153.6440 C   0  0  0  0  0  2  0  0  0  0  0  0
  160.1230  209.9310  151.5620 C   0  0  0  0  0  2  0  0  0  0  0  0
  161.2060  203.0220  147.4150 O   0  0  0  0  0  1  0  0  0  0  0  0
  161.2210  204.5940  152.0440 C   0  0  0  0  0  0  0  0  0  0  0  0
  160.1990  201.3700  150.5410 C   0  0  0  0  0  3  0  0  0  0  0  0
  161.2420  203.8640  149.7210 C   0  0  0  0  0  0  0  0  0  0  0  0
  161.7300  205.8120  151.6790 C   0  0  0  0  0  0  0  0  0  0  0  0
  160.6730  206.3930  154.9780 O   0  0  0  0  0  1  0  0  0  0  0  0
  161.8220  206.7520  152.8300 C   0  0  1  0  0  3  0  0  0  0  0  0
  160.3290  210.2260  153.0420 C   0  0  0  0  0  2  0  0  0  0  0  0
  162.6990  209.6940  150.6430 O   0  0  0  0  0  0  0  0  0  0  0  0
  160.4560  202.3590  151.4880 C   0  0  0  0  0  3  0  0  0  0  0  0
  160.9740  203.5980  151.0950 C   0  0  0  0  0  0  0  0  0  0  0  0
  162.0700  208.6460  150.6220 C   0  0  0  0  0  0  0  0  0  0  0  0
  160.7970  207.5090  147.3330 C   0  0  0  0  0  2  0  0  0  0  0  0
  160.4560  206.2030  145.2610 C   0  0  0  0  0  1  0  0  0  0  0  0
  159.8520  206.5780  146.5970 C   0  0  0  0  0  2  0  0  0  0  0  0
  1 19  2  0  0  0  0
  1  4  1  0  0  0  0
  2 13  2  0  0  0  0
  2 19  1  0  0  0  0
  3 10  1  0  0  0  0
  4 20  2  0  0  0  0
  5  1  1  0  0  0  0
  6  8  2  0  0  0  0
  7 15  1  1  0  0  0
  7  9  1  0  0  0  0
  9 22  1  0  0  0  0
  9 14  1  1  0  0  0
 10 21  1  1  0  0  0
 11 28  1  1  0  0  0
 11  5  1  0  0  0  0
 11  8  1  0  0  0  0
 12  8  1  6  0  0  0
 12  4  1  0  0  0  0
 12 27  1  0  0  0  0
 13 18  1  0  0  0  0
 15 23  1  0  0  0  0
 16  2  1  0  0  0  0
 17  3  1  0  0  0  0
 18 25  2  0  0  0  0
 19 26  1  0  0  0  0
 20 17  1  0  0  0  0
 22 20  1  6  0  0  0
 22 10  1  0  0  0  0
 23 14  1  0  0  0  0
 26 25  1  0  0  0  0
 26 17  2  0  0  0  0
 27 24  2  0  0  0  0
 27  7  1  0  0  0  0
 29 30  1  0  0  0  0
 30 28  1  0  0  0  0
M  END
>  <MODEL>
8

>  <REMARK>
 VINA RESULT:      -3.8      3.235      4.998
  Name = 
  2 active torsions:
  status: ('A' for Active; 'I' for Inactive)
    1  A    between atoms: C_11  and  C_28
    2  A    between atoms: C_28  and  C_30
                            x       y       z     vdW  Elec       q    Type
                         _______ _______ _______ _____ _____    ______ ____

>  <TORSDO>
F 2

$$$$
=
 OpenBabel11122412433D

 30 35  0  0  1  0  0  0  0  0999 V2000
  160.3500  211.1700  153.8730 C   0  0  0  0  0  0  0  0  0  0  0  0
  158.9710  213.2480  153.7910 C   0  0  0  0  0  0  0  0  0  0  0  0
  161.2370  211.4260  149.7020 C   0  0  0  0  0  2  0  0  0  0  0  0
  161.1920  210.2480  153.2060 C   0  0  0  0  0  0  0  0  0  0  0  0
  160.0470  210.9550  155.2590 N   0  0  0  0  0  2  0  0  0  0  0  0
  162.2910  208.5050  156.2070 O   0  0  0  0  0  0  0  0  0  0  0  0
  160.8770  207.5320  152.1360 C   0  0  1  0  0  3  0  0  0  0  0  0
  161.5460  209.0690  155.4210 C   0  0  0  0  0  0  0  0  0  0  0  0
  161.3820  208.1390  150.8240 C   0  0  2  0  0  3  0  0  0  0  0  0
  162.2280  210.2620  149.6110 C   0  0  2  0  0  3  0  0  0  0  0  0
  160.2720  209.6730  155.9190 C   0  0  2  0  0  3  0  0  0  0  0  0
  161.9050  209.1350  153.9590 C   0  0  1  0  0  3  0  0  0  0  0  0
  158.4500  214.3100  153.0460 C   0  0  0  0  0  3  0  0  0  0  0  0
  162.2210  207.0530  150.1870 C   0  0  0  0  0  2  0  0  0  0  0  0
  160.7240  206.0470  151.8400 C   0  0  0  0  0  2  0  0  0  0  0  0
  158.6530  213.1820  155.1430 O   0  0  0  0  0  1  0  0  0  0  0  0
  160.8800  211.4700  151.1420 C   0  0  0  0  0  0  0  0  0  0  0  0
  158.7320  214.4340  151.6870 C   0  0  0  0  0  3  0  0  0  0  0  0
  159.7990  212.2790  153.1690 C   0  0  0  0  0  0  0  0  0  0  0  0
  161.4160  210.4150  151.8330 C   0  0  0  0  0  0  0  0  0  0  0  0
  161.9480  209.4770  148.4900 O   0  0  0  0  0  1  0  0  0  0  0  0
  162.1520  209.4750  150.9440 C   0  0  1  0  0  3  0  0  0  0  0  0
  161.5750  205.7480  150.6130 C   0  0  0  0  0  2  0  0  0  0  0  0
  162.5930  206.9010  153.6620 O   0  0  0  0  0  0  0  0  0  0  0  0
  159.5420  213.4930  151.0560 C   0  0  0  0  0  3  0  0  0  0  0  0
  160.0780  212.4210  151.7790 C   0  0  0  0  0  0  0  0  0  0  0  0
  161.8230  207.7780  153.2960 C   0  0  0  0  0  0  0  0  0  0  0  0
  159.1130  208.7260  155.6390 C   0  0  0  0  0  2  0  0  0  0  0  0
  159.7610  206.9560  157.2400 C   0  0  0  0  0  1  0  0  0  0  0  0
  159.5660  207.2850  155.7750 C   0  0  0  0  0  2  0  0  0  0  0  0
  1  5  1  0  0  0  0
  2 16  1  0  0  0  0
  3 17  1  0  0  0  0
  4  1  1  0  0  0  0
  5 11  1  0  0  0  0
  7 15  1  6  0  0  0
  7 27  1  0  0  0  0
  8 11  1  0  0  0  0
  8  6  2  0  0  0  0
  9 14  1  1  0  0  0
  9 22  1  0  0  0  0
  9  7  1  0  0  0  0
 10 21  1  6  0  0  0
 10  3  1  0  0  0  0
 10 22  1  0  0  0  0
 11 28  1  6  0  0  0
 12  4  1  6  0  0  0
 12  8  1  0  0  0  0
 13  2  2  0  0  0  0
 14 23  1  0  0  0  0
 17 26  2  0  0  0  0
 17 20  1  0  0  0  0
 18 13  1  0  0  0  0
 19  2  1  0  0  0  0
 19  1  2  0  0  0  0
 20  4  2  0  0  0  0
 22 20  1  1  0  0  0
 23 15  1  0  0  0  0
 25 18  2  0  0  0  0
 25 26  1  0  0  0  0
 26 19  1  0  0  0  0
 27 24  2  0  0  0  0
 27 12  1  0  0  0  0
 28 30  1  0  0  0  0
 30 29  1  0  0  0  0
M  END
>  <MODEL>
9

>  <REMARK>
 VINA RESULT:      -3.6      2.376      7.216
  Name = 
  2 active torsions:
  status: ('A' for Active; 'I' for Inactive)
    1  A    between atoms: C_11  and  C_28
    2  A    between atoms: C_28  and  C_30
                            x       y       z     vdW  Elec       q    Type
                         _______ _______ _______ _____ _____    ______ ____

>  <TORSDO>
F 2

$$$$
