=
 OpenBabel11122412523D

 32 37  0  0  1  0  0  0  0  0999 V2000
  162.3790  209.3650  154.0450 O   0  0  0  0  0  0  0  0  0  0  0  0
  160.8840  206.1690  150.4160 N   0  0  1  0  0  0  0  0  0  0  0  0
  161.3450  201.5100  151.8600 C   0  0  0  0  0  3  0  0  0  0  0  0
  161.0860  201.0900  150.5540 C   0  0  0  0  0  3  0  0  0  0  0  0
  160.9800  206.7500  147.9700 C   0  0  1  0  0  3  0  0  0  0  0  0
  161.2820  206.1450  146.5910 C   0  0  1  0  0  3  0  0  0  0  0  0
  160.5950  207.9770  152.0060 C   0  0  1  0  0  3  0  0  0  0  0  0
  161.0500  205.6400  152.7730 N   0  0  0  0  0  2  0  0  0  0  0  0
  161.7190  204.2800  145.3100 C   0  0  2  0  0  3  0  0  0  0  0  0
  161.1900  207.3830  154.3840 C   0  0  0  0  0  3  0  0  0  0  0  0
  161.4620  202.8720  152.1470 C   0  0  0  0  0  3  0  0  0  0  0  0
  161.5150  205.2940  151.4260 C   0  0  1  0  0  3  0  0  0  0  0  0
  161.3070  203.8270  151.1320 C   0  0  0  0  0  0  0  0  0  0  0  0
  160.8910  204.4030  148.7050 C   0  0  2  0  0  3  0  0  0  0  0  0
  162.8440  205.2800  145.0550 C   0  0  0  0  0  2  0  0  0  0  0  0
  161.8820  210.0460  152.9060 C   0  0  0  0  0  2  0  0  0  0  0  0
  160.9220  207.0160  153.1280 C   0  0  0  0  0  0  0  0  0  0  0  0
  162.6960  206.3460  146.1180 C   0  0  0  0  0  2  0  0  0  0  0  0
  160.5940  209.4860  152.2740 C   0  0  0  0  0  2  0  0  0  0  0  0
  161.3200  208.8130  154.7880 C   0  0  1  0  0  3  0  0  0  0  0  0
  160.9580  202.0330  149.5310 C   0  0  0  0  0  3  0  0  0  0  0  0
  161.0940  203.3990  149.8050 C   0  0  0  0  0  0  0  0  0  0  0  0
  161.5700  204.0260  147.5370 O   0  0  0  0  0  0  0  0  0  0  0  0
  161.2870  207.5480  150.7210 C   0  0  0  0  0  2  0  0  0  0  0  0
  159.6140  207.0280  148.0540 O   0  0  0  0  0  1  0  0  0  0  0  0
  160.7850  204.2360  144.1140 C   0  0  0  0  0  1  0  0  0  0  0  0
  161.4010  205.7900  149.0930 C   0  0  2  0  0  3  0  0  0  0  0  0
  160.9860  204.7020  146.5000 N   0  0  1  0  0  0  0  0  0  0  0  0
  161.6320  208.8910  156.2720 C   0  0  0  0  0  2  0  0  0  0  0  0
  162.1760  210.2330  156.6200 C   0  0  0  0  0  0  0  0  0  0  0  0
  161.3920  211.3660  156.4480 O   0  0  0  0  0  0  0  0  0  0  0  0
  163.3340  210.3380  157.1020 O   0  0  0  0  0  1  0  0  0  0  0  0
  1 20  1  0  0  0  0
  2 24  1  1  0  0  0
  2 12  1  0  0  0  0
  3 11  1  0  0  0  0
  4  3  2  0  0  0  0
  5 25  1  6  0  0  0
  5 27  1  0  0  0  0
  6 18  1  1  0  0  0
  6  5  1  0  0  0  0
  7 24  1  6  0  0  0
  7 19  1  0  0  0  0
  7 17  1  0  0  0  0
  8 17  1  0  0  0  0
  9 26  1  6  0  0  0
  9 28  1  0  0  0  0
 10 20  1  0  0  0  0
 12 13  1  6  0  0  0
 12  8  1  0  0  0  0
 13 11  2  0  0  0  0
 14 23  1  6  0  0  0
 14 27  1  0  0  0  0
 14 22  1  0  0  0  0
 15  9  1  0  0  0  0
 15 18  1  0  0  0  0
 16  1  1  0  0  0  0
 17 10  2  0  0  0  0
 19 16  1  0  0  0  0
 20 29  1  1  0  0  0
 21 22  2  0  0  0  0
 21  4  1  0  0  0  0
 22 13  1  0  0  0  0
 27  2  1  0  0  0  0
 28  6  1  0  0  0  0
 28 23  1  0  0  0  0
 29 30  1  0  0  0  0
 30 32  1  0  0  0  0
 31 30  2  0  0  0  0
M  END
>  <MODEL>
1

>  <REMARK>
 VINA RESULT:      -6.8      0.000      0.000
  Name = 
  2 active torsions:
  status: ('A' for Active; 'I' for Inactive)
    1  A    between atoms: C_20  and  C_29
    2  A    between atoms: C_29  and  C_30
                            x       y       z     vdW  Elec       q    Type
                         _______ _______ _______ _____ _____    ______ ____

>  <TORSDO>
F 2

$$$$
=
 OpenBabel11122412523D

 32 37  0  0  1  0  0  0  0  0999 V2000
  159.1150  209.9120  156.1430 O   0  0  0  0  0  0  0  0  0  0  0  0
  161.5860  209.1000  151.8010 N   0  0  1  0  0  0  0  0  0  0  0  0
  161.5350  213.0930  148.9610 C   0  0  0  0  0  3  0  0  0  0  0  0
  162.0530  212.3370  147.9080 C   0  0  0  0  0  3  0  0  0  0  0  0
  161.8020  206.8160  150.7680 C   0  0  1  0  0  3  0  0  0  0  0  0
  161.8080  206.0940  149.4120 C   0  0  1  0  0  3  0  0  0  0  0  0
  161.3720  209.2440  154.2120 C   0  0  1  0  0  3  0  0  0  0  0  0
  161.1200  211.2710  152.7680 N   0  0  0  0  0  2  0  0  0  0  0  0
  161.8370  206.2220  147.1110 C   0  0  2  0  0  3  0  0  0  0  0  0
  160.4920  211.4530  155.0540 C   0  0  0  0  0  3  0  0  0  0  0  0
  161.1910  212.4720  150.1640 C   0  0  0  0  0  3  0  0  0  0  0  0
  160.9270  210.4070  151.5990 C   0  0  1  0  0  3  0  0  0  0  0  0
  161.3750  211.0910  150.3290 C   0  0  0  0  0  0  0  0  0  0  0  0
  162.0900  208.8470  149.4070 C   0  0  2  0  0  3  0  0  0  0  0  0
  160.6420  205.3570  147.5040 C   0  0  0  0  0  2  0  0  0  0  0  0
  159.6900  208.6190  156.0910 C   0  0  0  0  0  2  0  0  0  0  0  0
  161.0030  210.7050  154.0730 C   0  0  0  0  0  0  0  0  0  0  0  0
  160.4730  205.5390  148.9960 C   0  0  0  0  0  2  0  0  0  0  0  0
  161.1260  208.5220  155.5410 C   0  0  0  0  0  2  0  0  0  0  0  0
  160.1070  210.8820  156.3760 C   0  0  1  0  0  3  0  0  0  0  0  0
  162.2140  210.9570  148.0520 C   0  0  0  0  0  3  0  0  0  0  0  0
  161.8520  210.3220  149.2460 C   0  0  0  0  0  0  0  0  0  0  0  0
  161.6620  208.1340  148.2780 O   0  0  0  0  0  0  0  0  0  0  0  0
  160.9570  208.4710  152.9700 C   0  0  0  0  0  2  0  0  0  0  0  0
  163.0880  206.7690  151.3130 O   0  0  0  0  0  1  0  0  0  0  0  0
  162.9460  205.3500  146.5520 C   0  0  0  0  0  1  0  0  0  0  0  0
  161.3420  208.2740  150.6100 C   0  0  2  0  0  3  0  0  0  0  0  0
  162.3070  206.9270  148.3010 N   0  0  1  0  0  0  0  0  0  0  0  0
  159.5550  211.9860  157.2600 C   0  0  0  0  0  2  0  0  0  0  0  0
  158.2250  212.4360  156.7630 C   0  0  0  0  0  0  0  0  0  0  0  0
  157.0650  211.8520  157.2550 O   0  0  0  0  0  1  0  0  0  0  0  0
  158.1500  213.3680  155.9210 O   0  0  0  0  0  0  0  0  0  0  0  0
  1 20  1  0  0  0  0
  2 24  1  1  0  0  0
  3 11  1  0  0  0  0
  4 21  1  0  0  0  0
  4  3  2  0  0  0  0
  5 25  1  6  0  0  0
  6 18  1  6  0  0  0
  6  5  1  0  0  0  0
  7 24  1  6  0  0  0
  7 19  1  0  0  0  0
  8 17  1  0  0  0  0
  9 26  1  1  0  0  0
  9 15  1  0  0  0  0
  9 28  1  0  0  0  0
 10 20  1  0  0  0  0
 11 13  2  0  0  0  0
 12 13  1  6  0  0  0
 12  2  1  0  0  0  0
 12  8  1  0  0  0  0
 14 23  1  6  0  0  0
 14 27  1  0  0  0  0
 15 18  1  0  0  0  0
 16  1  1  0  0  0  0
 17  7  1  0  0  0  0
 17 10  2  0  0  0  0
 19 16  1  0  0  0  0
 20 29  1  1  0  0  0
 21 22  2  0  0  0  0
 22 14  1  0  0  0  0
 22 13  1  0  0  0  0
 23 28  1  0  0  0  0
 27  5  1  0  0  0  0
 27  2  1  0  0  0  0
 28  6  1  0  0  0  0
 30 31  1  0  0  0  0
 30 29  1  0  0  0  0
 32 30  2  0  0  0  0
M  END
>  <MODEL>
2

>  <REMARK>
 VINA RESULT:      -6.2      2.953      5.474
  Name = 
  2 active torsions:
  status: ('A' for Active; 'I' for Inactive)
    1  A    between atoms: C_20  and  C_29
    2  A    between atoms: C_29  and  C_30
                            x       y       z     vdW  Elec       q    Type
                         _______ _______ _______ _____ _____    ______ ____

>  <TORSDO>
F 2

$$$$
=
 OpenBabel11122412523D

 32 37  0  0  1  0  0  0  0  0999 V2000
  159.3770  208.4460  155.7650 O   0  0  0  0  0  0  0  0  0  0  0  0
  161.3190  205.8660  151.8670 N   0  0  1  0  0  0  0  0  0  0  0  0
  161.7520  208.7100  147.9010 C   0  0  0  0  0  3  0  0  0  0  0  0
  162.0440  207.5800  147.1360 C   0  0  0  0  0  3  0  0  0  0  0  0
  161.0470  203.3780  151.6150 C   0  0  1  0  0  3  0  0  0  0  0  0
  160.8200  202.2830  150.5610 C   0  0  1  0  0  3  0  0  0  0  0  0
  161.3220  206.7900  154.1090 C   0  0  1  0  0  3  0  0  0  0  0  0
  161.3200  208.2770  152.0970 N   0  0  0  0  0  2  0  0  0  0  0  0
  160.6900  201.6820  148.3410 C   0  0  2  0  0  3  0  0  0  0  0  0
  160.9150  209.2770  154.2160 C   0  0  0  0  0  3  0  0  0  0  0  0
  161.3990  208.5720  149.2450 C   0  0  0  0  0  3  0  0  0  0  0  0
  160.8870  207.1470  151.2690 C   0  0  1  0  0  3  0  0  0  0  0  0
  161.3480  207.3020  149.8400 C   0  0  0  0  0  0  0  0  0  0  0  0
  161.5810  204.7900  149.6720 C   0  0  2  0  0  3  0  0  0  0  0  0
  159.3960  201.2280  149.0110 C   0  0  0  0  0  2  0  0  0  0  0  0
  159.7080  207.1150  156.1190 C   0  0  0  0  0  2  0  0  0  0  0  0
  161.2070  208.1780  153.5160 C   0  0  0  0  0  0  0  0  0  0  0  0
  159.3790  201.8940  150.3690 C   0  0  0  0  0  2  0  0  0  0  0  0
  161.0580  206.5790  155.6030 C   0  0  0  0  0  2  0  0  0  0  0  0
  160.5400  209.2300  155.6580 C   0  0  1  0  0  3  0  0  0  0  0  0
  161.9700  206.3090  147.7100 C   0  0  0  0  0  3  0  0  0  0  0  0
  161.5960  206.1590  149.0520 C   0  0  0  0  0  0  0  0  0  0  0  0
  160.9480  203.8580  148.8380 O   0  0  0  0  0  0  0  0  0  0  0  0
  160.6820  205.7650  153.1870 C   0  0  0  0  0  2  0  0  0  0  0  0
  162.3430  203.2550  152.1230 O   0  0  0  0  0  1  0  0  0  0  0  0
  161.5810  200.4830  148.0700 C   0  0  0  0  0  1  0  0  0  0  0  0
  160.8410  204.7740  151.0070 C   0  0  2  0  0  3  0  0  0  0  0  0
  161.3690  202.6170  149.2340 N   0  0  1  0  0  0  0  0  0  0  0  0
  160.2620  210.6390  156.1520 C   0  0  0  0  0  2  0  0  0  0  0  0
  159.4010  211.3710  155.1820 C   0  0  0  0  0  0  0  0  0  0  0  0
  158.0380  211.1130  155.1300 O   0  0  0  0  0  1  0  0  0  0  0  0
  159.9030  212.2480  154.4320 O   0  0  0  0  0  0  0  0  0  0  0  0
  1 16  1  0  0  0  0
  2 24  1  1  0  0  0
  3 11  1  0  0  0  0
  4 21  1  0  0  0  0
  4  3  2  0  0  0  0
  5 25  1  6  0  0  0
  6 18  1  6  0  0  0
  6  5  1  0  0  0  0
  7 24  1  6  0  0  0
  7 19  1  0  0  0  0
  8 17  1  0  0  0  0
  9 26  1  1  0  0  0
  9 15  1  0  0  0  0
  9 28  1  0  0  0  0
 10 20  1  0  0  0  0
 11 13  2  0  0  0  0
 12 13  1  6  0  0  0
 12  2  1  0  0  0  0
 12  8  1  0  0  0  0
 14 23  1  6  0  0  0
 14 27  1  0  0  0  0
 15 18  1  0  0  0  0
 17  7  1  0  0  0  0
 17 10  2  0  0  0  0
 19 16  1  0  0  0  0
 20  1  1  0  0  0  0
 20 29  1  6  0  0  0
 21 22  2  0  0  0  0
 22 14  1  0  0  0  0
 22 13  1  0  0  0  0
 23 28  1  0  0  0  0
 27  5  1  0  0  0  0
 27  2  1  0  0  0  0
 28  6  1  0  0  0  0
 30 29  1  0  0  0  0
 31 30  1  0  0  0  0
 32 30  2  0  0  0  0
M  END
>  <MODEL>
3

>  <REMARK>
 VINA RESULT:      -5.8      2.106      4.356
  Name = 
  2 active torsions:
  status: ('A' for Active; 'I' for Inactive)
    1  A    between atoms: C_20  and  C_29
    2  A    between atoms: C_29  and  C_30
                            x       y       z     vdW  Elec       q    Type
                         _______ _______ _______ _____ _____    ______ ____

>  <TORSDO>
F 2

$$$$
=
 OpenBabel11122412523D

 32 37  0  0  1  0  0  0  0  0999 V2000
  162.1590  202.8130  150.5670 O   0  0  0  0  0  0  0  0  0  0  0  0
  160.8720  207.3600  152.3780 N   0  0  1  0  0  0  0  0  0  0  0  0
  161.9380  210.9090  149.1720 C   0  0  0  0  0  3  0  0  0  0  0  0
  161.6670  211.8630  150.1540 C   0  0  0  0  0  3  0  0  0  0  0  0
  160.7830  207.8660  154.8410 C   0  0  1  0  0  3  0  0  0  0  0  0
  161.0860  208.9720  155.8630 C   0  0  1  0  0  3  0  0  0  0  0  0
  160.4520  205.0800  151.6670 C   0  0  1  0  0  3  0  0  0  0  0  0
  161.2110  206.8220  150.0410 N   0  0  0  0  0  2  0  0  0  0  0  0
  161.6740  211.1590  156.2840 C   0  0  2  0  0  3  0  0  0  0  0  0
  161.2250  204.5560  149.3240 C   0  0  0  0  0  3  0  0  0  0  0  0
  161.9100  209.5500  149.4910 C   0  0  0  0  0  3  0  0  0  0  0  0
  161.6480  207.6670  151.1580 C   0  0  1  0  0  3  0  0  0  0  0  0
  161.5970  209.1320  150.7930 C   0  0  0  0  0  0  0  0  0  0  0  0
  161.0020  209.6780  153.1890 C   0  0  2  0  0  3  0  0  0  0  0  0
  162.6620  210.2700  157.0350 C   0  0  0  0  0  2  0  0  0  0  0  0
  161.5320  202.7230  151.8350 C   0  0  0  0  0  2  0  0  0  0  0  0
  160.9420  205.4420  150.2820 C   0  0  0  0  0  0  0  0  0  0  0  0
  162.4440  208.8710  156.5050 C   0  0  0  0  0  2  0  0  0  0  0  0
  160.2890  203.6060  152.0540 C   0  0  0  0  0  2  0  0  0  0  0  0
  161.2080  203.0840  149.5670 C   0  0  1  0  0  3  0  0  0  0  0  0
  161.3820  211.4590  151.4600 C   0  0  0  0  0  3  0  0  0  0  0  0
  161.3720  210.0990  151.7950 C   0  0  0  0  0  0  0  0  0  0  0  0
  161.6630  210.4550  154.1510 O   0  0  0  0  0  0  0  0  0  0  0  0
  161.1260  205.9530  152.7140 C   0  0  0  0  0  2  0  0  0  0  0  0
  159.3990  207.6960  154.7540 O   0  0  0  0  0  1  0  0  0  0  0  0
  160.6960  211.7860  157.2610 C   0  0  0  0  0  1  0  0  0  0  0  0
  161.3650  208.2200  153.4640 C   0  0  2  0  0  3  0  0  0  0  0  0
  160.9550  210.3350  155.3160 N   0  0  1  0  0  0  0  0  0  0  0  0
  161.5800  202.3580  148.2870 C   0  0  0  0  0  2  0  0  0  0  0  0
  161.1110  200.9460  148.3330 C   0  0  0  0  0  0  0  0  0  0  0  0
  161.5810  200.0260  147.4050 O   0  0  0  0  0  0  0  0  0  0  0  0
  160.3130  200.5760  149.2340 O   0  0  0  0  0  1  0  0  0  0  0  0
  1 16  1  0  0  0  0
  2 24  1  1  0  0  0
  2 27  1  0  0  0  0
  3 11  2  0  0  0  0
  3  4  1  0  0  0  0
  4 21  2  0  0  0  0
  5 25  1  6  0  0  0
  5  6  1  0  0  0  0
  6 18  1  6  0  0  0
  7 19  1  1  0  0  0
  7 24  1  0  0  0  0
  8 17  1  0  0  0  0
  9 15  1  0  0  0  0
  9 26  1  1  0  0  0
 10 20  1  0  0  0  0
 10 17  2  0  0  0  0
 11 13  1  0  0  0  0
 12  8  1  6  0  0  0
 12  2  1  0  0  0  0
 13 12  1  0  0  0  0
 13 22  2  0  0  0  0
 14 22  1  6  0  0  0
 14 27  1  0  0  0  0
 14 23  1  0  0  0  0
 16 19  1  0  0  0  0
 17  7  1  0  0  0  0
 18 15  1  0  0  0  0
 20 29  1  6  0  0  0
 20  1  1  0  0  0  0
 21 22  1  0  0  0  0
 23 28  1  0  0  0  0
 27  5  1  0  0  0  0
 28  6  1  0  0  0  0
 28  9  1  0  0  0  0
 29 30  1  0  0  0  0
 30 32  1  0  0  0  0
 31 30  2  0  0  0  0
M  END
>  <MODEL>
4

>  <REMARK>
 VINA RESULT:      -5.7      2.436      8.827
  Name = 
  2 active torsions:
  status: ('A' for Active; 'I' for Inactive)
    1  A    between atoms: C_20  and  C_29
    2  A    between atoms: C_29  and  C_30
                            x       y       z     vdW  Elec       q    Type
                         _______ _______ _______ _____ _____    ______ ____

>  <TORSDO>
F 2

$$$$
=
 OpenBabel11122412523D

 32 37  0  0  1  0  0  0  0  0999 V2000
  162.0690  202.1080  150.7570 O   0  0  0  0  0  0  0  0  0  0  0  0
  160.8700  206.7490  152.3810 N   0  0  1  0  0  0  0  0  0  0  0  0
  162.0750  210.1510  149.0670 C   0  0  0  0  0  3  0  0  0  0  0  0
  161.8140  211.1470  150.0100 C   0  0  0  0  0  3  0  0  0  0  0  0
  160.7560  207.3470  154.8220 C   0  0  1  0  0  3  0  0  0  0  0  0
  161.0710  208.4810  155.8090 C   0  0  1  0  0  3  0  0  0  0  0  0
  160.4030  204.4560  151.7470 C   0  0  1  0  0  3  0  0  0  0  0  0
  161.2320  206.1180  150.0710 N   0  0  0  0  0  2  0  0  0  0  0  0
  161.7080  210.6680  156.1610 C   0  0  2  0  0  3  0  0  0  0  0  0
  161.1990  203.8270  149.4370 C   0  0  0  0  0  3  0  0  0  0  0  0
  162.0080  208.8060  149.4350 C   0  0  0  0  0  3  0  0  0  0  0  0
  161.6720  206.9920  151.1640 C   0  0  1  0  0  3  0  0  0  0  0  0
  161.6640  208.4440  150.7460 C   0  0  0  0  0  0  0  0  0  0  0  0
  161.0460  209.0910  153.1110 C   0  0  2  0  0  3  0  0  0  0  0  0
  162.6610  209.7820  156.9590 C   0  0  0  0  0  2  0  0  0  0  0  0
  161.4210  202.0810  152.0170 C   0  0  0  0  0  2  0  0  0  0  0  0
  160.9240  204.7550  150.3580 C   0  0  0  0  0  0  0  0  0  0  0  0
  162.4150  208.3700  156.4770 C   0  0  0  0  0  2  0  0  0  0  0  0
  160.1970  203.0020  152.1840 C   0  0  0  0  0  2  0  0  0  0  0  0
  161.1410  202.3670  149.7320 C   0  0  1  0  0  3  0  0  0  0  0  0
  161.4980  210.7980  151.3250 C   0  0  0  0  0  3  0  0  0  0  0  0
  161.4490  209.4520  151.7080 C   0  0  0  0  0  0  0  0  0  0  0  0
  161.7120  209.8870  154.0540 O   0  0  0  0  0  0  0  0  0  0  0  0
  161.0830  205.3500  152.7720 C   0  0  0  0  0  2  0  0  0  0  0  0
  159.3690  207.2080  154.7190 O   0  0  0  0  0  1  0  0  0  0  0  0
  160.7310  211.3530  157.0980 C   0  0  0  0  0  1  0  0  0  0  0  0
  161.3680  207.6360  153.4430 C   0  0  2  0  0  3  0  0  0  0  0  0
  160.9830  209.8270  155.2110 N   0  0  1  0  0  0  0  0  0  0  0  0
  161.5140  201.5860  148.4850 C   0  0  0  0  0  2  0  0  0  0  0  0
  161.0190  202.2830  147.2660 C   0  0  0  0  0  0  0  0  0  0  0  0
  161.5990  203.4790  146.8660 O   0  0  0  0  0  1  0  0  0  0  0  0
  160.0970  201.7710  146.5780 O   0  0  0  0  0  0  0  0  0  0  0  0
  1 16  1  0  0  0  0
  2 24  1  1  0  0  0
  2 27  1  0  0  0  0
  3 11  2  0  0  0  0
  3  4  1  0  0  0  0
  4 21  2  0  0  0  0
  5 25  1  6  0  0  0
  5  6  1  0  0  0  0
  6 18  1  6  0  0  0
  7 19  1  1  0  0  0
  7 24  1  0  0  0  0
  8 17  1  0  0  0  0
  9 15  1  0  0  0  0
  9 26  1  1  0  0  0
 10 20  1  0  0  0  0
 10 17  2  0  0  0  0
 11 13  1  0  0  0  0
 12  8  1  6  0  0  0
 12  2  1  0  0  0  0
 13 12  1  0  0  0  0
 13 22  2  0  0  0  0
 14 22  1  6  0  0  0
 14 27  1  0  0  0  0
 14 23  1  0  0  0  0
 16 19  1  0  0  0  0
 17  7  1  0  0  0  0
 18 15  1  0  0  0  0
 20 29  1  6  0  0  0
 20  1  1  0  0  0  0
 21 22  1  0  0  0  0
 23 28  1  0  0  0  0
 27  5  1  0  0  0  0
 28  6  1  0  0  0  0
 28  9  1  0  0  0  0
 30 29  1  0  0  0  0
 31 30  1  0  0  0  0
 32 30  2  0  0  0  0
M  END
>  <MODEL>
5

>  <REMARK>
 VINA RESULT:      -5.6      2.196      8.633
  Name = 
  2 active torsions:
  status: ('A' for Active; 'I' for Inactive)
    1  A    between atoms: C_20  and  C_29
    2  A    between atoms: C_29  and  C_30
                            x       y       z     vdW  Elec       q    Type
                         _______ _______ _______ _____ _____    ______ ____

>  <TORSDO>
F 2

$$$$
=
 OpenBabel11122412523D

 32 37  0  0  1  0  0  0  0  0999 V2000
  160.4400  205.0990  148.5800 O   0  0  0  0  0  0  0  0  0  0  0  0
  160.9750  208.5280  152.2640 N   0  0  1  0  0  0  0  0  0  0  0  0
  160.4970  206.4670  156.6830 C   0  0  0  0  0  3  0  0  0  0  0  0
  160.4650  207.7380  157.2610 C   0  0  0  0  0  3  0  0  0  0  0  0
  160.4390  210.9640  151.9400 C   0  0  1  0  0  3  0  0  0  0  0  0
  159.8330  212.1790  152.6600 C   0  0  1  0  0  3  0  0  0  0  0  0
  161.6920  207.2520  150.3300 C   0  0  1  0  0  3  0  0  0  0  0  0
  161.2410  206.1340  152.5220 N   0  0  0  0  0  2  0  0  0  0  0  0
  159.0290  213.1180  154.6040 C   0  0  2  0  0  3  0  0  0  0  0  0
  161.5380  204.7500  150.6120 C   0  0  0  0  0  3  0  0  0  0  0  0
  160.5300  206.3310  155.2940 C   0  0  0  0  0  3  0  0  0  0  0  0
  160.4980  207.3180  152.9670 C   0  0  1  0  0  3  0  0  0  0  0  0
  160.5460  207.4660  154.4690 C   0  0  0  0  0  0  0  0  0  0  0  0
  160.5140  209.9790  154.1940 C   0  0  2  0  0  3  0  0  0  0  0  0
  157.9460  213.2770  153.5400 C   0  0  0  0  0  2  0  0  0  0  0  0
  160.7480  206.3850  148.0700 C   0  0  0  0  0  2  0  0  0  0  0  0
  161.5280  205.9800  151.1330 C   0  0  0  0  0  0  0  0  0  0  0  0
  158.3700  212.3990  152.3850 C   0  0  0  0  0  2  0  0  0  0  0  0
  161.8460  207.1750  148.8070 C   0  0  0  0  0  2  0  0  0  0  0  0
  161.5850  204.5060  149.1410 C   0  0  1  0  0  3  0  0  0  0  0  0
  160.4530  208.8740  156.4480 C   0  0  0  0  0  3  0  0  0  0  0  0
  160.4640  208.7470  155.0530 C   0  0  0  0  0  0  0  0  0  0  0  0
  159.5950  210.9440  154.6310 O   0  0  0  0  0  0  0  0  0  0  0  0
  160.7340  208.3220  150.8300 C   0  0  0  0  0  2  0  0  0  0  0  0
  161.8120  211.1720  151.7780 O   0  0  0  0  0  1  0  0  0  0  0  0
  159.7040  214.4530  154.8580 C   0  0  0  0  0  1  0  0  0  0  0  0
  160.1850  209.6740  152.7350 C   0  0  2  0  0  3  0  0  0  0  0  0
  160.0080  212.1470  154.1240 N   0  0  1  0  0  0  0  0  0  0  0  0
  161.5760  203.0110  148.8790 C   0  0  0  0  0  2  0  0  0  0  0  0
  161.3190  202.7360  147.4380 C   0  0  0  0  0  0  0  0  0  0  0  0
  161.9520  203.4950  146.4620 O   0  0  0  0  0  0  0  0  0  0  0  0
  160.5530  201.7960  147.1020 O   0  0  0  0  0  1  0  0  0  0  0  0
  1 20  1  0  0  0  0
  2 24  1  6  0  0  0
  2 27  1  0  0  0  0
  2 12  1  0  0  0  0
  3  4  1  0  0  0  0
  5 25  1  1  0  0  0
  5  6  1  0  0  0  0
  5 27  1  0  0  0  0
  6 18  1  1  0  0  0
  6 28  1  0  0  0  0
  7 19  1  6  0  0  0
  7 24  1  0  0  0  0
  7 17  1  0  0  0  0
  9 26  1  6  0  0  0
 10 17  2  0  0  0  0
 11  3  2  0  0  0  0
 12  8  1  1  0  0  0
 12 13  1  0  0  0  0
 13 22  2  0  0  0  0
 13 11  1  0  0  0  0
 14 23  1  1  0  0  0
 14 22  1  0  0  0  0
 15  9  1  0  0  0  0
 16  1  1  0  0  0  0
 16 19  1  0  0  0  0
 17  8  1  0  0  0  0
 18 15  1  0  0  0  0
 20 29  1  1  0  0  0
 20 10  1  0  0  0  0
 21  4  2  0  0  0  0
 22 21  1  0  0  0  0
 27 14  1  0  0  0  0
 28  9  1  0  0  0  0
 28 23  1  0  0  0  0
 30 29  1  0  0  0  0
 31 30  2  0  0  0  0
 32 30  1  0  0  0  0
M  END
>  <MODEL>
6

>  <REMARK>
 VINA RESULT:      -5.5      2.529      8.327
  Name = 
  2 active torsions:
  status: ('A' for Active; 'I' for Inactive)
    1  A    between atoms: C_20  and  C_29
    2  A    between atoms: C_29  and  C_30
                            x       y       z     vdW  Elec       q    Type
                         _______ _______ _______ _____ _____    ______ ____

>  <TORSDO>
F 2

$$$$
=
 OpenBabel11122412523D

 32 37  0  0  1  0  0  0  0  0999 V2000
  160.2990  213.0220  147.5310 O   0  0  0  0  0  0  0  0  0  0  0  0
  161.6020  209.6140  151.0380 N   0  0  1  0  0  0  0  0  0  0  0  0
  161.2710  205.0510  149.2820 C   0  0  0  0  0  3  0  0  0  0  0  0
  161.4540  204.5520  150.5720 C   0  0  0  0  0  3  0  0  0  0  0  0
  161.3530  210.0400  153.5050 C   0  0  1  0  0  3  0  0  0  0  0  0
  160.9750  209.3480  154.8230 C   0  0  1  0  0  3  0  0  0  0  0  0
  161.9700  211.5190  149.5840 C   0  0  1  0  0  3  0  0  0  0  0  0
  161.5820  209.2320  148.6460 N   0  0  0  0  0  2  0  0  0  0  0  0
  160.4780  207.4040  155.9560 C   0  0  2  0  0  3  0  0  0  0  0  0
  161.5240  211.0720  147.1410 C   0  0  0  0  0  3  0  0  0  0  0  0
  161.1590  206.4280  149.0740 C   0  0  0  0  0  3  0  0  0  0  0  0
  161.0410  208.8000  149.9390 C   0  0  1  0  0  3  0  0  0  0  0  0
  161.2440  207.3190  150.1530 C   0  0  0  0  0  0  0  0  0  0  0  0
  161.5080  207.7440  152.6320 C   0  0  2  0  0  3  0  0  0  0  0  0
  159.3310  208.3800  156.2040 C   0  0  0  0  0  2  0  0  0  0  0  0
  160.7200  213.6330  148.7370 C   0  0  0  0  0  2  0  0  0  0  0  0
  161.7190  210.6280  148.3860 C   0  0  0  0  0  0  0  0  0  0  0  0
  159.5320  209.5120  155.2200 C   0  0  0  0  0  2  0  0  0  0  0  0
  161.9730  213.0410  149.4110 C   0  0  0  0  0  2  0  0  0  0  0  0
  161.4060  212.5230  146.8200 C   0  0  1  0  0  3  0  0  0  0  0  0
  161.5120  205.4290  151.6580 C   0  0  0  0  0  3  0  0  0  0  0  0
  161.3800  206.8100  151.4620 C   0  0  0  0  0  0  0  0  0  0  0  0
  160.7630  207.2910  153.7310 O   0  0  0  0  0  0  0  0  0  0  0  0
  161.2060  211.0060  150.7950 C   0  0  0  0  0  2  0  0  0  0  0  0
  162.7200  210.3290  153.5210 O   0  0  0  0  0  1  0  0  0  0  0  0
  161.3390  207.2900  157.2010 C   0  0  0  0  0  1  0  0  0  0  0  0
  161.0100  209.1490  152.3010 C   0  0  2  0  0  3  0  0  0  0  0  0
  161.2780  207.9040  154.8410 N   0  0  1  0  0  0  0  0  0  0  0  0
  161.1830  212.6920  145.3280 C   0  0  0  0  0  2  0  0  0  0  0  0
  162.3450  213.3800  144.7010 C   0  0  0  0  0  0  0  0  0  0  0  0
  162.9260  212.8580  143.5520 O   0  0  0  0  0  0  0  0  0  0  0  0
  162.7830  214.4530  145.1930 O   0  0  0  0  0  1  0  0  0  0  0  0
  1 16  1  0  0  0  0
  2 24  1  6  0  0  0
  2 27  1  0  0  0  0
  3  4  1  0  0  0  0
  4 21  2  0  0  0  0
  5 25  1  1  0  0  0
  5  6  1  0  0  0  0
  6 28  1  0  0  0  0
  6 18  1  6  0  0  0
  7 19  1  6  0  0  0
  7 24  1  0  0  0  0
  9 15  1  0  0  0  0
  9 26  1  1  0  0  0
 10 17  2  0  0  0  0
 11  3  2  0  0  0  0
 11 13  1  0  0  0  0
 12  8  1  6  0  0  0
 12 13  1  0  0  0  0
 12  2  1  0  0  0  0
 13 22  2  0  0  0  0
 14 22  1  6  0  0  0
 14 23  1  0  0  0  0
 16 19  1  0  0  0  0
 17  8  1  0  0  0  0
 17  7  1  0  0  0  0
 18 15  1  0  0  0  0
 20 29  1  6  0  0  0
 20 10  1  0  0  0  0
 20  1  1  0  0  0  0
 22 21  1  0  0  0  0
 23 28  1  0  0  0  0
 27 14  1  0  0  0  0
 27  5  1  0  0  0  0
 28  9  1  0  0  0  0
 30 32  1  0  0  0  0
 30 29  1  0  0  0  0
 31 30  2  0  0  0  0
M  END
>  <MODEL>
7

>  <REMARK>
 VINA RESULT:      -4.9      3.855      7.908
  Name = 
  2 active torsions:
  status: ('A' for Active; 'I' for Inactive)
    1  A    between atoms: C_20  and  C_29
    2  A    between atoms: C_29  and  C_30
                            x       y       z     vdW  Elec       q    Type
                         _______ _______ _______ _____ _____    ______ ____

>  <TORSDO>
F 2

$$$$
=
 OpenBabel11122412523D

 32 37  0  0  1  0  0  0  0  0999 V2000
  160.6540  203.4980  146.9440 O   0  0  0  0  0  0  0  0  0  0  0  0
  161.9550  207.8650  149.1460 N   0  0  1  0  0  0  0  0  0  0  0  0
  160.8330  207.8460  153.9160 C   0  0  0  0  0  3  0  0  0  0  0  0
  161.1150  209.2120  153.9770 C   0  0  0  0  0  3  0  0  0  0  0  0
  162.0780  210.0390  147.8850 C   0  0  1  0  0  3  0  0  0  0  0  0
  161.7870  211.5410  148.0260 C   0  0  1  0  0  3  0  0  0  0  0  0
  162.3710  205.8130  147.9230 C   0  0  1  0  0  3  0  0  0  0  0  0
  161.5830  205.7670  150.2970 N   0  0  0  0  0  2  0  0  0  0  0  0
  161.1990  213.3170  149.3710 C   0  0  2  0  0  3  0  0  0  0  0  0
  161.5650  203.7230  149.0830 C   0  0  0  0  0  3  0  0  0  0  0  0
  160.8690  207.1790  152.6900 C   0  0  0  0  0  3  0  0  0  0  0  0
  161.1610  207.1660  150.1780 C   0  0  1  0  0  3  0  0  0  0  0  0
  161.2020  207.8690  151.5150 C   0  0  0  0  0  0  0  0  0  0  0  0
  161.8300  210.0150  150.3340 C   0  0  2  0  0  3  0  0  0  0  0  0
  160.2240  213.2940  148.1960 C   0  0  0  0  0  2  0  0  0  0  0  0
  161.2990  204.3790  146.0410 C   0  0  0  0  0  2  0  0  0  0  0  0
  161.8600  205.0250  149.1100 C   0  0  0  0  0  0  0  0  0  0  0  0
  160.4390  211.9650  147.5070 C   0  0  0  0  0  2  0  0  0  0  0  0
  162.5430  205.1190  146.5680 C   0  0  0  0  0  2  0  0  0  0  0  0
  161.5900  202.9240  147.8240 C   0  0  1  0  0  3  0  0  0  0  0  0
  161.4200  209.9140  152.8090 C   0  0  0  0  0  3  0  0  0  0  0  0
  161.4390  209.2590  151.5720 C   0  0  0  0  0  0  0  0  0  0  0  0
  161.1810  211.2560  150.2660 O   0  0  0  0  0  0  0  0  0  0  0  0
  161.7090  207.1810  147.8700 C   0  0  0  0  0  2  0  0  0  0  0  0
  163.4610  209.8480  147.8320 O   0  0  0  0  0  1  0  0  0  0  0  0
  162.1890  214.4530  149.2000 C   0  0  0  0  0  1  0  0  0  0  0  0
  161.4750  209.2520  149.0590 C   0  0  2  0  0  3  0  0  0  0  0  0
  161.9060  212.0390  149.4090 N   0  0  1  0  0  0  0  0  0  0  0  0
  161.2010  201.4890  148.1300 C   0  0  0  0  0  2  0  0  0  0  0  0
  160.4280  201.4180  149.4010 C   0  0  0  0  0  0  0  0  0  0  0  0
  161.0920  201.2750  150.6120 O   0  0  0  0  0  1  0  0  0  0  0  0
  159.1740  201.5210  149.3820 O   0  0  0  0  0  0  0  0  0  0  0  0
  1 20  1  0  0  0  0
  2 24  1  6  0  0  0
  2 12  1  0  0  0  0
  3  4  1  0  0  0  0
  5 25  1  1  0  0  0
  5  6  1  0  0  0  0
  5 27  1  0  0  0  0
  6 18  1  1  0  0  0
  6 28  1  0  0  0  0
  7 19  1  6  0  0  0
  7 17  1  0  0  0  0
  9 26  1  6  0  0  0
  9 28  1  0  0  0  0
 10 17  2  0  0  0  0
 11  3  2  0  0  0  0
 12  8  1  1  0  0  0
 12 13  1  0  0  0  0
 13 22  2  0  0  0  0
 13 11  1  0  0  0  0
 14 23  1  6  0  0  0
 14 22  1  0  0  0  0
 15  9  1  0  0  0  0
 16 19  1  0  0  0  0
 16  1  1  0  0  0  0
 17  8  1  0  0  0  0
 18 15  1  0  0  0  0
 20 29  1  1  0  0  0
 20 10  1  0  0  0  0
 21  4  2  0  0  0  0
 22 21  1  0  0  0  0
 24  7  1  0  0  0  0
 27  2  1  0  0  0  0
 27 14  1  0  0  0  0
 28 23  1  0  0  0  0
 29 30  1  0  0  0  0
 30 31  1  0  0  0  0
 32 30  2  0  0  0  0
M  END
>  <MODEL>
8

>  <REMARK>
 VINA RESULT:      -4.6      3.058      7.539
  Name = 
  2 active torsions:
  status: ('A' for Active; 'I' for Inactive)
    1  A    between atoms: C_20  and  C_29
    2  A    between atoms: C_29  and  C_30
                            x       y       z     vdW  Elec       q    Type
                         _______ _______ _______ _____ _____    ______ ____

>  <TORSDO>
F 2

$$$$
