=
 OpenBabel11122413113D

 31 35  0  0  1  0  0  0  0  0999 V2000
  160.5120  208.2210  156.0910 C   0  0  0  0  0  0  0  0  0  0  0  0
  161.4190  209.1650  152.5740 N   0  0  0  0  0  0  0  0  0  0  0  0
  161.3690  207.9910  151.7250 C   0  0  0  0  0  0  0  0  0  0  0  0
  161.0280  205.6040  151.4010 C   0  0  0  0  0  0  0  0  0  0  0  0
  160.8380  209.1680  153.8950 C   0  0  0  0  0  0  0  0  0  0  0  0
  159.7030  209.2670  156.4160 N   0  0  0  0  0  0  0  0  0  0  0  0
  161.1450  206.7080  152.2490 C   0  0  0  0  0  3  0  0  0  0  0  0
  160.2560  211.2360  152.0060 C   0  0  2  0  0  3  0  0  0  0  0  0
  160.8210  206.9570  157.2600 Cl  0  0  0  0  0  0  0  0  0  0  0  0
  161.6970  209.4110  149.7930 O   0  0  0  0  0  0  0  0  0  0  0  0
  160.7520  204.0120  152.0720 Cl  0  0  0  0  0  0  0  0  0  0  0  0
  159.7650  211.2820  153.3510 O   0  0  0  0  0  0  0  0  0  0  0  0
  161.5980  210.5000  151.9780 C   0  0  2  0  0  3  0  0  0  0  0  0
  161.0980  208.1550  154.8240 C   0  0  0  0  0  3  0  0  0  0  0  0
  161.1180  205.7740  150.0180 C   0  0  0  0  0  3  0  0  0  0  0  0
  160.0060  210.2410  154.2600 C   0  0  0  0  0  0  0  0  0  0  0  0
  159.4430  210.2700  155.5360 C   0  0  0  0  0  3  0  0  0  0  0  0
  162.2440  210.4550  150.5890 C   0  0  0  0  0  2  0  0  0  0  0  0
  161.4730  208.1460  150.3310 C   0  0  0  0  0  0  0  0  0  0  0  0
  161.3370  207.0440  149.4830 C   0  0  0  0  0  3  0  0  0  0  0  0
  160.3970  212.5370  151.5130 O   0  0  0  0  0  0  0  0  0  0  0  0
  158.9610  214.3260  152.1840 C   0  0  0  0  0  1  0  0  0  0  0  0
  159.0920  213.0310  151.4030 C   0  0  1  0  0  3  0  0  0  0  0  0
  158.0420  213.2190  147.2520 N   0  0  0  0  0  0  0  0  0  0  0  0
  157.4290  213.1720  149.6320 C   0  0  0  0  0  3  0  0  0  0  0  0
  161.0880  213.6030  149.2650 O   0  0  0  0  0  1  0  0  0  0  0  0
  157.7140  213.1080  145.8440 C   0  0  0  0  0  1  0  0  0  0  0  0
  156.9570  213.3870  148.2190 C   0  0  0  0  0  2  0  0  0  0  0  0
  159.7530  213.4270  148.9190 C   0  0  0  0  0  0  0  0  0  0  0  0
  158.7220  213.2370  149.9660 C   0  0  0  0  0  0  0  0  0  0  0  0
  159.4110  213.3980  147.6320 C   0  0  0  0  0  3  0  0  0  0  0  0
  1  6  1  0  0  0  0
  1  9  1  0  0  0  0
  2  5  1  0  0  0  0
  3  7  1  0  0  0  0
  3  2  1  0  0  0  0
  4 11  1  0  0  0  0
  4  7  2  0  0  0  0
  5 16  2  0  0  0  0
  5 14  1  0  0  0  0
  8 21  1  1  0  0  0
  8 12  1  0  0  0  0
 10 19  1  0  0  0  0
 10 18  1  0  0  0  0
 12 16  1  0  0  0  0
 13 18  1  6  0  0  0
 13  8  1  0  0  0  0
 13  2  1  0  0  0  0
 14  1  2  0  0  0  0
 15  4  1  0  0  0  0
 16 17  1  0  0  0  0
 17  6  2  0  0  0  0
 19  3  2  0  0  0  0
 20 15  2  0  0  0  0
 20 19  1  0  0  0  0
 23 21  1  0  0  0  0
 23 22  1  1  0  0  0
 24 31  1  0  0  0  0
 24 28  1  0  0  0  0
 25 30  2  0  0  0  0
 27 24  1  0  0  0  0
 28 25  1  0  0  0  0
 29 26  1  0  0  0  0
 29 30  1  0  0  0  0
 30 23  1  0  0  0  0
 31 29  2  0  0  0  0
M  END
>  <MODEL>
1

>  <REMARK>
 VINA RESULT:      -7.4      0.000      0.000
  Name = 
  3 active torsions:
  status: ('A' for Active; 'I' for Inactive)
    1  A    between atoms: C_5  and  O_16
    2  A    between atoms: C_5  and  C_30
    3  A    between atoms: C_10  and  O_16
                            x       y       z     vdW  Elec       q    Type
                         _______ _______ _______ _____ _____    ______ ____

>  <TORSDO>
F 3

$$$$
=
 OpenBabel11122413113D

 31 35  0  0  1  0  0  0  0  0999 V2000
  161.9920  210.6820  149.2840 C   0  0  0  0  0  0  0  0  0  0  0  0
  161.9900  208.0930  152.0000 N   0  0  0  0  0  0  0  0  0  0  0  0
  161.1960  208.5600  153.1190 C   0  0  0  0  0  0  0  0  0  0  0  0
  159.8360  210.2570  154.2110 C   0  0  0  0  0  0  0  0  0  0  0  0
  161.9300  208.7360  150.7100 C   0  0  0  0  0  0  0  0  0  0  0  0
  161.8300  209.8830  148.1940 N   0  0  0  0  0  0  0  0  0  0  0  0
  160.6590  209.8570  153.1560 C   0  0  0  0  0  3  0  0  0  0  0  0
  161.6450  205.9020  150.9780 C   0  0  2  0  0  3  0  0  0  0  0  0
  162.1310  212.4150  149.0850 Cl  0  0  0  0  0  0  0  0  0  0  0  0
  161.4130  206.3790  154.1440 O   0  0  0  0  0  0  0  0  0  0  0  0
  159.1800  211.8780  154.2420 Cl  0  0  0  0  0  0  0  0  0  0  0  0
  161.6870  206.5380  149.6960 O   0  0  0  0  0  0  0  0  0  0  0  0
  162.4850  206.7060  151.9740 C   0  0  2  0  0  3  0  0  0  0  0  0
  162.0490  210.1220  150.5630 C   0  0  0  0  0  3  0  0  0  0  0  0
  159.5260  209.3570  155.2340 C   0  0  0  0  0  3  0  0  0  0  0  0
  161.7720  207.9330  149.5670 C   0  0  0  0  0  0  0  0  0  0  0  0
  161.7230  208.5320  148.3080 C   0  0  0  0  0  3  0  0  0  0  0  0
  162.5630  206.0710  153.3660 C   0  0  0  0  0  2  0  0  0  0  0  0
  160.8890  207.6690  154.1630 C   0  0  0  0  0  0  0  0  0  0  0  0
  160.0490  208.0640  155.2080 C   0  0  0  0  0  3  0  0  0  0  0  0
  162.1280  204.5940  150.8690 O   0  0  0  0  0  0  0  0  0  0  0  0
  159.7420  204.6500  150.7610 C   0  0  0  0  0  1  0  0  0  0  0  0
  160.9950  203.8020  150.6520 C   0  0  1  0  0  3  0  0  0  0  0  0
  160.8020  201.9440  146.7940 N   0  0  0  0  0  0  0  0  0  0  0  0
  161.2230  203.8940  148.2300 C   0  0  0  0  0  3  0  0  0  0  0  0
  160.8310  200.8480  150.2970 O   0  0  0  0  0  1  0  0  0  0  0  0
  160.5620  201.3360  145.4990 C   0  0  0  0  0  1  0  0  0  0  0  0
  161.3270  203.3090  146.8470 C   0  0  0  0  0  2  0  0  0  0  0  0
  160.8870  201.6650  149.1740 C   0  0  0  0  0  0  0  0  0  0  0  0
  161.0670  203.1290  149.3140 C   0  0  0  0  0  0  0  0  0  0  0  0
  160.7470  201.1220  147.9650 C   0  0  0  0  0  3  0  0  0  0  0  0
  1 14  1  0  0  0  0
  2  3  1  0  0  0  0
  3  7  2  0  0  0  0
  3 19  1  0  0  0  0
  4 11  1  0  0  0  0
  4 15  2  0  0  0  0
  5  2  1  0  0  0  0
  6 17  1  0  0  0  0
  6  1  2  0  0  0  0
  7  4  1  0  0  0  0
  8 21  1  6  0  0  0
  8 13  1  0  0  0  0
  9  1  1  0  0  0  0
 10 19  1  0  0  0  0
 12  8  1  0  0  0  0
 13  2  1  0  0  0  0
 13 18  1  1  0  0  0
 14  5  2  0  0  0  0
 16 12  1  0  0  0  0
 16  5  1  0  0  0  0
 17 16  2  0  0  0  0
 18 10  1  0  0  0  0
 19 20  2  0  0  0  0
 20 15  1  0  0  0  0
 23 22  1  6  0  0  0
 23 21  1  0  0  0  0
 24 28  1  0  0  0  0
 24 31  1  0  0  0  0
 25 30  2  0  0  0  0
 27 24  1  0  0  0  0
 28 25  1  0  0  0  0
 29 30  1  0  0  0  0
 29 26  1  0  0  0  0
 30 23  1  0  0  0  0
 31 29  2  0  0  0  0
M  END
>  <MODEL>
2

>  <REMARK>
 VINA RESULT:      -7.3      4.012      8.080
  Name = 
  3 active torsions:
  status: ('A' for Active; 'I' for Inactive)
    1  A    between atoms: C_5  and  O_16
    2  A    between atoms: C_5  and  C_30
    3  A    between atoms: C_10  and  O_16
                            x       y       z     vdW  Elec       q    Type
                         _______ _______ _______ _____ _____    ______ ____

>  <TORSDO>
F 3

$$$$
=
 OpenBabel11122413113D

 31 35  0  0  1  0  0  0  0  0999 V2000
  160.6230  208.5280  155.0060 C   0  0  0  0  0  0  0  0  0  0  0  0
  161.6370  209.2730  151.4710 N   0  0  0  0  0  0  0  0  0  0  0  0
  161.4730  208.0860  150.6550 C   0  0  0  0  0  0  0  0  0  0  0  0
  160.8950  205.7370  150.3960 C   0  0  0  0  0  0  0  0  0  0  0  0
  161.0530  209.3730  152.7860 C   0  0  0  0  0  0  0  0  0  0  0  0
  159.9230  209.6590  155.2950 N   0  0  0  0  0  0  0  0  0  0  0  0
  161.1180  206.8480  151.2130 C   0  0  0  0  0  3  0  0  0  0  0  0
  160.6920  211.4340  150.8350 C   0  0  2  0  0  3  0  0  0  0  0  0
  160.7970  207.2740  156.2130 Cl  0  0  0  0  0  0  0  0  0  0  0  0
  161.9530  209.4100  148.6860 O   0  0  0  0  0  0  0  0  0  0  0  0
  160.4560  204.2020  151.1100 Cl  0  0  0  0  0  0  0  0  0  0  0  0
  160.2030  211.5680  152.1740 O   0  0  0  0  0  0  0  0  0  0  0  0
  161.9530  210.5660  150.8380 C   0  0  2  0  0  3  0  0  0  0  0  0
  161.2050  208.3660  153.7460 C   0  0  0  0  0  3  0  0  0  0  0  0
  161.0070  205.8570  149.0090 C   0  0  0  0  0  3  0  0  0  0  0  0
  160.3330  210.5350  153.1140 C   0  0  0  0  0  0  0  0  0  0  0  0
  159.7700  210.6580  154.3850 C   0  0  0  0  0  3  0  0  0  0  0  0
  162.5980  210.4150  149.4560 C   0  0  0  0  0  2  0  0  0  0  0  0
  161.6000  208.1900  149.2580 C   0  0  0  0  0  0  0  0  0  0  0  0
  161.3570  207.0830  148.4400 C   0  0  0  0  0  3  0  0  0  0  0  0
  160.9670  212.6990  150.3070 O   0  0  0  0  0  0  0  0  0  0  0  0
  159.2360  214.2840  149.8540 C   0  0  0  0  0  1  0  0  0  0  0  0
  159.8960  212.9790  149.4500 C   0  0  1  0  0  3  0  0  0  0  0  0
  161.1670  213.5380  145.3950 N   0  0  0  0  0  0  0  0  0  0  0  0
  161.6520  213.2640  147.7880 C   0  0  0  0  0  3  0  0  0  0  0  0
  158.0750  212.5780  147.1260 O   0  0  0  0  0  1  0  0  0  0  0  0
  161.5520  213.8970  144.0440 C   0  0  0  0  0  1  0  0  0  0  0  0
  162.2130  213.3160  146.3930 C   0  0  0  0  0  2  0  0  0  0  0  0
  159.4020  212.9220  146.8970 C   0  0  0  0  0  0  0  0  0  0  0  0
  160.3570  213.0340  148.0250 C   0  0  0  0  0  0  0  0  0  0  0  0
  159.8040  213.1820  145.6540 C   0  0  0  0  0  3  0  0  0  0  0  0
  1  6  1  0  0  0  0
  1  9  1  0  0  0  0
  2  5  1  0  0  0  0
  3  7  1  0  0  0  0
  3  2  1  0  0  0  0
  4 11  1  0  0  0  0
  4  7  2  0  0  0  0
  5 16  2  0  0  0  0
  5 14  1  0  0  0  0
  8 21  1  1  0  0  0
  8 13  1  0  0  0  0
  8 12  1  0  0  0  0
 10 19  1  0  0  0  0
 10 18  1  0  0  0  0
 12 16  1  0  0  0  0
 13 18  1  6  0  0  0
 13  2  1  0  0  0  0
 14  1  2  0  0  0  0
 15  4  1  0  0  0  0
 16 17  1  0  0  0  0
 17  6  2  0  0  0  0
 19  3  2  0  0  0  0
 20 15  2  0  0  0  0
 20 19  1  0  0  0  0
 23 22  1  1  0  0  0
 23 21  1  0  0  0  0
 24 31  1  0  0  0  0
 24 28  1  0  0  0  0
 25 30  2  0  0  0  0
 27 24  1  0  0  0  0
 28 25  1  0  0  0  0
 29 26  1  0  0  0  0
 29 30  1  0  0  0  0
 30 23  1  0  0  0  0
 31 29  2  0  0  0  0
M  END
>  <MODEL>
3

>  <REMARK>
 VINA RESULT:      -7.1      1.700      2.211
  Name = 
  3 active torsions:
  status: ('A' for Active; 'I' for Inactive)
    1  A    between atoms: C_5  and  O_16
    2  A    between atoms: C_5  and  C_30
    3  A    between atoms: C_10  and  O_16
                            x       y       z     vdW  Elec       q    Type
                         _______ _______ _______ _____ _____    ______ ____

>  <TORSDO>
F 3

$$$$
=
 OpenBabel11122413113D

 31 35  0  0  1  0  0  0  0  0999 V2000
  162.2780  211.3720  148.9800 C   0  0  0  0  0  0  0  0  0  0  0  0
  161.2700  209.9420  152.3000 N   0  0  0  0  0  0  0  0  0  0  0  0
  160.3260  210.8310  152.9470 C   0  0  0  0  0  0  0  0  0  0  0  0
  159.0320  212.8910  153.0130 C   0  0  0  0  0  0  0  0  0  0  0  0
  161.6000  210.0790  150.9020 C   0  0  0  0  0  0  0  0  0  0  0  0
  162.2450  210.2460  148.2160 N   0  0  0  0  0  0  0  0  0  0  0  0
  160.0000  212.0860  152.4080 C   0  0  0  0  0  3  0  0  0  0  0  0
  160.8320  207.5570  152.0120 C   0  0  2  0  0  3  0  0  0  0  0  0
  162.7220  212.9030  148.2600 Cl  0  0  0  0  0  0  0  0  0  0  0  0
  159.9710  209.1570  154.6590 O   0  0  0  0  0  0  0  0  0  0  0  0
  158.6430  214.4520  152.3280 Cl  0  0  0  0  0  0  0  0  0  0  0  0
  161.2570  207.6840  150.6510 O   0  0  0  0  0  0  0  0  0  0  0  0
  161.5400  208.6100  152.8680 C   0  0  2  0  0  3  0  0  0  0  0  0
  161.9600  211.3080  150.3390 C   0  0  0  0  0  3  0  0  0  0  0  0
  158.3670  212.4420  154.1560 C   0  0  0  0  0  3  0  0  0  0  0  0
  161.5810  208.9300  150.0930 C   0  0  0  0  0  0  0  0  0  0  0  0
  161.9090  209.0360  148.7410 C   0  0  0  0  0  3  0  0  0  0  0  0
  161.2040  208.5160  154.3600 C   0  0  0  0  0  2  0  0  0  0  0  0
  159.6600  210.3980  154.1080 C   0  0  0  0  0  0  0  0  0  0  0  0
  158.6780  211.1960  154.7020 C   0  0  0  0  0  3  0  0  0  0  0  0
  161.1210  206.2700  152.4760 O   0  0  0  0  0  0  0  0  0  0  0  0
  163.3570  205.4530  152.2720 C   0  0  0  0  0  1  0  0  0  0  0  0
  162.0480  205.7520  151.5650 C   0  0  1  0  0  3  0  0  0  0  0  0
  160.8920  202.1210  149.6020 N   0  0  0  0  0  0  0  0  0  0  0  0
  161.3820  203.4110  151.6360 C   0  0  0  0  0  3  0  0  0  0  0  0
  161.2290  205.6630  148.7010 O   0  0  0  0  0  1  0  0  0  0  0  0
  160.6730  200.8700  148.9030 C   0  0  0  0  0  1  0  0  0  0  0  0
  160.8310  202.1330  151.0650 C   0  0  0  0  0  2  0  0  0  0  0  0
  161.2020  204.4940  149.4520 C   0  0  0  0  0  0  0  0  0  0  0  0
  161.5100  204.5200  150.9010 C   0  0  0  0  0  0  0  0  0  0  0  0
  160.9260  203.3380  148.8490 C   0  0  0  0  0  3  0  0  0  0  0  0
  1 14  1  0  0  0  0
  2 13  1  0  0  0  0
  2  3  1  0  0  0  0
  3 19  1  0  0  0  0
  4 15  2  0  0  0  0
  5  2  1  0  0  0  0
  6 17  1  0  0  0  0
  6  1  2  0  0  0  0
  7  3  2  0  0  0  0
  7  4  1  0  0  0  0
  8 21  1  1  0  0  0
  8 13  1  0  0  0  0
  9  1  1  0  0  0  0
 11  4  1  0  0  0  0
 12  8  1  0  0  0  0
 13 18  1  1  0  0  0
 14  5  2  0  0  0  0
 15 20  1  0  0  0  0
 16 12  1  0  0  0  0
 16  5  1  0  0  0  0
 17 16  2  0  0  0  0
 18 10  1  0  0  0  0
 19 10  1  0  0  0  0
 19 20  2  0  0  0  0
 23 22  1  1  0  0  0
 23 21  1  0  0  0  0
 24 28  1  0  0  0  0
 26 29  1  0  0  0  0
 27 24  1  0  0  0  0
 28 25  1  0  0  0  0
 29 30  1  0  0  0  0
 30 23  1  0  0  0  0
 30 25  2  0  0  0  0
 31 29  2  0  0  0  0
 31 24  1  0  0  0  0
M  END
>  <MODEL>
4

>  <REMARK>
 VINA RESULT:      -7.0      3.736      7.879
  Name = 
  3 active torsions:
  status: ('A' for Active; 'I' for Inactive)
    1  A    between atoms: C_5  and  O_16
    2  A    between atoms: C_5  and  C_30
    3  A    between atoms: C_10  and  O_16
                            x       y       z     vdW  Elec       q    Type
                         _______ _______ _______ _____ _____    ______ ____

>  <TORSDO>
F 3

$$$$
=
 OpenBabel11122413113D

 31 35  0  0  1  0  0  0  0  0999 V2000
  161.0570  206.6230  146.7690 C   0  0  0  0  0  0  0  0  0  0  0  0
  160.8400  204.6940  149.9800 N   0  0  0  0  0  0  0  0  0  0  0  0
  160.9070  203.2730  149.7000 C   0  0  0  0  0  0  0  0  0  0  0  0
  161.0480  201.4070  148.1460 C   0  0  0  0  0  0  0  0  0  0  0  0
  161.1940  205.6770  148.9850 C   0  0  0  0  0  0  0  0  0  0  0  0
  161.9040  207.6190  147.1470 N   0  0  0  0  0  0  0  0  0  0  0  0
  160.9090  202.7750  148.3880 C   0  0  0  0  0  3  0  0  0  0  0  0
  162.2870  205.7700  151.6270 C   0  0  2  0  0  3  0  0  0  0  0  0
  160.4320  206.5790  145.1350 Cl  0  0  0  0  0  0  0  0  0  0  0  0
  161.0470  202.8440  152.0790 O   0  0  0  0  0  0  0  0  0  0  0  0
  161.0460  200.8050  146.5030 Cl  0  0  0  0  0  0  0  0  0  0  0  0
  162.5520  206.7960  150.6630 O   0  0  0  0  0  0  0  0  0  0  0  0
  160.8990  205.1770  151.3700 C   0  0  2  0  0  3  0  0  0  0  0  0
  160.6820  205.6350  147.6830 C   0  0  0  0  0  3  0  0  0  0  0  0
  161.2050  200.5210  149.2150 C   0  0  0  0  0  3  0  0  0  0  0  0
  162.0600  206.7210  149.3510 C   0  0  0  0  0  0  0  0  0  0  0  0
  162.4070  207.6890  148.4090 C   0  0  0  0  0  3  0  0  0  0  0  0
  160.4870  204.1130  152.3930 C   0  0  0  0  0  2  0  0  0  0  0  0
  161.0480  202.3690  150.7690 C   0  0  0  0  0  0  0  0  0  0  0  0
  161.2070  201.0020  150.5250 C   0  0  0  0  0  3  0  0  0  0  0  0
  162.3620  206.3060  152.9160 O   0  0  0  0  0  0  0  0  0  0  0  0
  160.4570  205.8910  154.2970 C   0  0  0  0  0  1  0  0  0  0  0  0
  161.0660  206.7490  153.2050 C   0  0  1  0  0  3  0  0  0  0  0  0
  160.6950  210.8420  154.4220 N   0  0  0  0  0  0  0  0  0  0  0  0
  161.2070  208.4870  154.9040 C   0  0  0  0  0  3  0  0  0  0  0  0
  160.8300  208.9910  151.2550 O   0  0  0  0  0  1  0  0  0  0  0  0
  160.3950  212.1980  154.8400 C   0  0  0  0  0  1  0  0  0  0  0  0
  161.2480  209.9060  155.4010 C   0  0  0  0  0  2  0  0  0  0  0  0
  160.8610  209.2740  152.6150 C   0  0  0  0  0  0  0  0  0  0  0  0
  161.0750  208.1930  153.6060 C   0  0  0  0  0  0  0  0  0  0  0  0
  160.6660  210.5270  153.0260 C   0  0  0  0  0  3  0  0  0  0  0  0
  1  6  2  0  0  0  0
  1 14  1  0  0  0  0
  2 13  1  0  0  0  0
  3  2  1  0  0  0  0
  3 19  1  0  0  0  0
  4  7  1  0  0  0  0
  4 15  2  0  0  0  0
  5 16  1  0  0  0  0
  5  2  1  0  0  0  0
  6 17  1  0  0  0  0
  7  3  2  0  0  0  0
  8 21  1  1  0  0  0
  9  1  1  0  0  0  0
 10 18  1  0  0  0  0
 11  4  1  0  0  0  0
 12  8  1  0  0  0  0
 13  8  1  0  0  0  0
 13 18  1  1  0  0  0
 14  5  2  0  0  0  0
 15 20  1  0  0  0  0
 16 12  1  0  0  0  0
 17 16  2  0  0  0  0
 19 10  1  0  0  0  0
 20 19  2  0  0  0  0
 21 23  1  0  0  0  0
 23 30  1  0  0  0  0
 23 22  1  1  0  0  0
 24 27  1  0  0  0  0
 24 28  1  0  0  0  0
 25 28  1  0  0  0  0
 26 29  1  0  0  0  0
 29 31  2  0  0  0  0
 29 30  1  0  0  0  0
 30 25  2  0  0  0  0
 31 24  1  0  0  0  0
M  END
>  <MODEL>
5

>  <REMARK>
 VINA RESULT:      -6.5      4.282      7.156
  Name = 
  3 active torsions:
  status: ('A' for Active; 'I' for Inactive)
    1  A    between atoms: C_5  and  O_16
    2  A    between atoms: C_5  and  C_30
    3  A    between atoms: C_10  and  O_16
                            x       y       z     vdW  Elec       q    Type
                         _______ _______ _______ _____ _____    ______ ____

>  <TORSDO>
F 3

$$$$
=
 OpenBabel11122413113D

 31 35  0  0  1  0  0  0  0  0999 V2000
  161.5680  203.0000  151.7240 C   0  0  0  0  0  0  0  0  0  0  0  0
  161.9280  205.9610  149.4470 N   0  0  0  0  0  0  0  0  0  0  0  0
  161.6530  205.5610  148.0810 C   0  0  0  0  0  0  0  0  0  0  0  0
  161.0980  203.8720  146.4200 C   0  0  0  0  0  0  0  0  0  0  0  0
  161.5810  205.1170  150.5650 C   0  0  0  0  0  0  0  0  0  0  0  0
  160.9010  203.5770  152.7610 N   0  0  0  0  0  0  0  0  0  0  0  0
  161.4330  204.2200  147.7310 C   0  0  0  0  0  3  0  0  0  0  0  0
  160.8310  207.8760  150.4930 C   0  0  2  0  0  3  0  0  0  0  0  0
  161.9830  201.3010  151.7880 Cl  0  0  0  0  0  0  0  0  0  0  0  0
  161.7460  207.8870  147.4150 O   0  0  0  0  0  0  0  0  0  0  0  0
  160.8310  202.1940  146.0030 Cl  0  0  0  0  0  0  0  0  0  0  0  0
  160.5810  207.0560  151.6390 O   0  0  0  0  0  0  0  0  0  0  0  0
  162.0950  207.3850  149.7810 C   0  0  2  0  0  3  0  0  0  0  0  0
  161.9240  203.7610  150.6080 C   0  0  0  0  0  3  0  0  0  0  0  0
  160.9630  204.8650  145.4480 C   0  0  0  0  0  3  0  0  0  0  0  0
  160.9000  205.6900  151.6520 C   0  0  0  0  0  0  0  0  0  0  0  0
  160.5650  204.8950  152.7490 C   0  0  0  0  0  3  0  0  0  0  0  0
  162.4910  208.2420  148.5730 C   0  0  0  0  0  2  0  0  0  0  0  0
  161.5300  206.5500  147.0880 C   0  0  0  0  0  0  0  0  0  0  0  0
  161.1760  206.2030  145.7810 C   0  0  0  0  0  3  0  0  0  0  0  0
  160.9770  209.2090  150.8910 O   0  0  0  0  0  0  0  0  0  0  0  0
  162.8030  209.9530  152.2420 C   0  0  0  0  0  1  0  0  0  0  0  0
  161.5180  209.1480  152.1800 C   0  0  1  0  0  3  0  0  0  0  0  0
  158.9780  210.8300  155.1960 N   0  0  0  0  0  0  0  0  0  0  0  0
  159.7640  210.6880  152.8710 C   0  0  0  0  0  3  0  0  0  0  0  0
  161.1700  207.9040  154.8660 O   0  0  0  0  0  1  0  0  0  0  0  0
  158.2590  211.4950  156.2660 C   0  0  0  0  0  1  0  0  0  0  0  0
  158.7310  211.2420  153.8140 C   0  0  0  0  0  2  0  0  0  0  0  0
  160.4560  209.0540  154.5530 C   0  0  0  0  0  0  0  0  0  0  0  0
  160.5320  209.6430  153.1950 C   0  0  0  0  0  0  0  0  0  0  0  0
  159.7230  209.6440  155.4960 C   0  0  0  0  0  3  0  0  0  0  0  0
  1  9  1  0  0  0  0
  1  6  1  0  0  0  0
  2 13  1  0  0  0  0
  2  5  1  0  0  0  0
  3  2  1  0  0  0  0
  4  7  2  0  0  0  0
  5 14  1  0  0  0  0
  5 16  2  0  0  0  0
  7  3  1  0  0  0  0
  8 21  1  1  0  0  0
  8 12  1  0  0  0  0
 10 18  1  0  0  0  0
 11  4  1  0  0  0  0
 12 16  1  0  0  0  0
 13 18  1  6  0  0  0
 13  8  1  0  0  0  0
 14  1  2  0  0  0  0
 15 20  2  0  0  0  0
 15  4  1  0  0  0  0
 16 17  1  0  0  0  0
 17  6  2  0  0  0  0
 19 10  1  0  0  0  0
 19  3  2  0  0  0  0
 20 19  1  0  0  0  0
 21 23  1  0  0  0  0
 23 22  1  6  0  0  0
 23 30  1  0  0  0  0
 24 31  1  0  0  0  0
 24 27  1  0  0  0  0
 25 30  2  0  0  0  0
 25 28  1  0  0  0  0
 28 24  1  0  0  0  0
 29 26  1  0  0  0  0
 29 31  2  0  0  0  0
 30 29  1  0  0  0  0
M  END
>  <MODEL>
6

>  <REMARK>
 VINA RESULT:      -5.9      3.748      5.870
  Name = 
  3 active torsions:
  status: ('A' for Active; 'I' for Inactive)
    1  A    between atoms: C_5  and  O_16
    2  A    between atoms: C_5  and  C_30
    3  A    between atoms: C_10  and  O_16
                            x       y       z     vdW  Elec       q    Type
                         _______ _______ _______ _____ _____    ______ ____

>  <TORSDO>
F 3

$$$$
=
 OpenBabel11122413113D

 31 35  0  0  1  0  0  0  0  0999 V2000
  161.9410  211.6250  149.0290 C   0  0  0  0  0  0  0  0  0  0  0  0
  162.0770  208.5530  151.1800 N   0  0  0  0  0  0  0  0  0  0  0  0
  161.4700  208.8320  152.4670 C   0  0  0  0  0  0  0  0  0  0  0  0
  160.4010  210.3500  154.0400 C   0  0  0  0  0  0  0  0  0  0  0  0
  161.9040  209.4410  150.0560 C   0  0  0  0  0  0  0  0  0  0  0  0
  161.5790  211.0680  147.8420 N   0  0  0  0  0  0  0  0  0  0  0  0
  161.0490  210.1230  152.8240 C   0  0  0  0  0  3  0  0  0  0  0  0
  161.4300  206.6300  149.8210 C   0  0  2  0  0  3  0  0  0  0  0  0
  162.1930  213.3530  149.1440 Cl  0  0  0  0  0  0  0  0  0  0  0  0
  161.6400  206.4820  153.0220 O   0  0  0  0  0  0  0  0  0  0  0  0
  159.8860  211.9660  154.4680 Cl  0  0  0  0  0  0  0  0  0  0  0  0
  161.3590  207.5040  148.6900 O   0  0  0  0  0  0  0  0  0  0  0  0
  162.4510  207.1740  150.8240 C   0  0  2  0  0  3  0  0  0  0  0  0
  162.1150  210.8210  150.1580 C   0  0  0  0  0  3  0  0  0  0  0  0
  160.1520  209.2830  154.9070 C   0  0  0  0  0  3  0  0  0  0  0  0
  161.5390  208.8900  148.8160 C   0  0  0  0  0  0  0  0  0  0  0  0
  161.3790  209.7280  147.7120 C   0  0  0  0  0  3  0  0  0  0  0  0
  162.6530  206.2730  152.0460 C   0  0  0  0  0  2  0  0  0  0  0  0
  161.2280  207.7700  153.3570 C   0  0  0  0  0  0  0  0  0  0  0  0
  160.5620  207.9940  154.5650 C   0  0  0  0  0  3  0  0  0  0  0  0
  161.7890  205.3460  149.4010 O   0  0  0  0  0  0  0  0  0  0  0  0
  162.6010  205.9110  147.2260 C   0  0  0  0  0  1  0  0  0  0  0  0
  161.4720  205.3050  148.0390 C   0  0  1  0  0  3  0  0  0  0  0  0
  161.0840  201.2260  146.7770 N   0  0  0  0  0  0  0  0  0  0  0  0
  161.1370  202.9450  148.5340 C   0  0  0  0  0  3  0  0  0  0  0  0
  161.0260  204.5370  145.1930 O   0  0  0  0  0  1  0  0  0  0  0  0
  161.1290  199.8460  146.3360 C   0  0  0  0  0  1  0  0  0  0  0  0
  160.8450  201.5080  148.1930 C   0  0  0  0  0  2  0  0  0  0  0  0
  161.0730  203.5450  146.1650 C   0  0  0  0  0  0  0  0  0  0  0  0
  161.1960  203.8980  147.5990 C   0  0  0  0  0  0  0  0  0  0  0  0
  161.0380  202.2660  145.7940 C   0  0  0  0  0  3  0  0  0  0  0  0
  1  9  1  0  0  0  0
  1 14  1  0  0  0  0
  2  3  1  0  0  0  0
  3  7  2  0  0  0  0
  3 19  1  0  0  0  0
  4 11  1  0  0  0  0
  4 15  2  0  0  0  0
  5 14  2  0  0  0  0
  5  2  1  0  0  0  0
  6  1  2  0  0  0  0
  7  4  1  0  0  0  0
  8 21  1  6  0  0  0
  8 13  1  0  0  0  0
 10 19  1  0  0  0  0
 12 16  1  0  0  0  0
 12  8  1  0  0  0  0
 13  2  1  0  0  0  0
 13 18  1  1  0  0  0
 16  5  1  0  0  0  0
 17  6  1  0  0  0  0
 17 16  2  0  0  0  0
 18 10  1  0  0  0  0
 19 20  2  0  0  0  0
 20 15  1  0  0  0  0
 23 22  1  6  0  0  0
 23 21  1  0  0  0  0
 24 28  1  0  0  0  0
 26 29  1  0  0  0  0
 27 24  1  0  0  0  0
 28 25  1  0  0  0  0
 29 30  1  0  0  0  0
 30 23  1  0  0  0  0
 30 25  2  0  0  0  0
 31 29  2  0  0  0  0
 31 24  1  0  0  0  0
M  END
>  <MODEL>
7

>  <REMARK>
 VINA RESULT:      -5.8      4.081      8.031
  Name = 
  3 active torsions:
  status: ('A' for Active; 'I' for Inactive)
    1  A    between atoms: C_5  and  O_16
    2  A    between atoms: C_5  and  C_30
    3  A    between atoms: C_10  and  O_16
                            x       y       z     vdW  Elec       q    Type
                         _______ _______ _______ _____ _____    ______ ____

>  <TORSDO>
F 3

$$$$
=
 OpenBabel11122413113D

 31 35  0  0  1  0  0  0  0  0999 V2000
  160.9200  201.7960  149.4730 C   0  0  0  0  0  0  0  0  0  0  0  0
  161.9900  205.2670  150.4140 N   0  0  0  0  0  0  0  0  0  0  0  0
  161.7490  206.1690  149.3040 C   0  0  0  0  0  0  0  0  0  0  0  0
  161.0180  206.6030  147.0250 C   0  0  0  0  0  0  0  0  0  0  0  0
  161.4110  203.9460  150.4520 C   0  0  0  0  0  0  0  0  0  0  0  0
  160.2960  201.4200  150.6220 N   0  0  0  0  0  0  0  0  0  0  0  0
  161.3120  205.7060  148.0540 C   0  0  0  0  0  3  0  0  0  0  0  0
  161.1910  205.7350  152.6740 C   0  0  2  0  0  3  0  0  0  0  0  0
  161.0080  200.6870  148.1220 Cl  0  0  0  0  0  0  0  0  0  0  0  0
  162.3200  208.0340  150.7380 O   0  0  0  0  0  0  0  0  0  0  0  0
  160.4770  206.0060  145.4730 Cl  0  0  0  0  0  0  0  0  0  0  0  0
  160.7080  204.3890  152.7380 O   0  0  0  0  0  0  0  0  0  0  0  0
  162.3920  205.8010  151.7260 C   0  0  2  0  0  3  0  0  0  0  0  0
  161.4940  203.0660  149.3680 C   0  0  0  0  0  3  0  0  0  0  0  0
  161.1410  207.9770  147.2420 C   0  0  0  0  0  3  0  0  0  0  0  0
  160.7680  203.5300  151.6310 C   0  0  0  0  0  0  0  0  0  0  0  0
  160.2110  202.2520  151.6940 C   0  0  0  0  0  3  0  0  0  0  0  0
  163.0290  207.1920  151.6380 C   0  0  0  0  0  2  0  0  0  0  0  0
  161.8860  207.5550  149.5050 C   0  0  0  0  0  0  0  0  0  0  0  0
  161.5720  208.4540  148.4810 C   0  0  0  0  0  3  0  0  0  0  0  0
  161.5500  206.1670  153.9540 O   0  0  0  0  0  0  0  0  0  0  0  0
  159.5250  206.4570  155.1890 C   0  0  0  0  0  1  0  0  0  0  0  0
  160.5760  207.1070  154.3100 C   0  0  1  0  0  3  0  0  0  0  0  0
  161.9920  210.5360  156.4570 N   0  0  0  0  0  0  0  0  0  0  0  0
  161.6420  208.1120  156.2540 C   0  0  0  0  0  3  0  0  0  0  0  0
  160.8940  209.7830  153.0360 O   0  0  0  0  0  1  0  0  0  0  0  0
  162.3020  211.7250  157.2280 C   0  0  0  0  0  1  0  0  0  0  0  0
  162.3000  209.2240  157.0260 C   0  0  0  0  0  2  0  0  0  0  0  0
  161.2520  209.6180  154.3690 C   0  0  0  0  0  0  0  0  0  0  0  0
  161.1980  208.2810  155.0050 C   0  0  0  0  0  0  0  0  0  0  0  0
  161.6170  210.6820  155.0820 C   0  0  0  0  0  3  0  0  0  0  0  0
  1  6  1  0  0  0  0
  2  5  1  0  0  0  0
  2 13  1  0  0  0  0
  3 19  1  0  0  0  0
  3  2  1  0  0  0  0
  4 15  2  0  0  0  0
  4  7  1  0  0  0  0
  5 16  2  0  0  0  0
  6 17  2  0  0  0  0
  7  3  2  0  0  0  0
  8 12  1  0  0  0  0
  8 21  1  1  0  0  0
  9  1  1  0  0  0  0
 10 18  1  0  0  0  0
 11  4  1  0  0  0  0
 13 18  1  6  0  0  0
 13  8  1  0  0  0  0
 14  1  2  0  0  0  0
 14  5  1  0  0  0  0
 15 20  1  0  0  0  0
 16 17  1  0  0  0  0
 16 12  1  0  0  0  0
 19 10  1  0  0  0  0
 20 19  2  0  0  0  0
 21 23  1  0  0  0  0
 23 30  1  0  0  0  0
 23 22  1  1  0  0  0
 24 28  1  0  0  0  0
 24 27  1  0  0  0  0
 25 28  1  0  0  0  0
 26 29  1  0  0  0  0
 29 30  1  0  0  0  0
 29 31  2  0  0  0  0
 30 25  2  0  0  0  0
 31 24  1  0  0  0  0
M  END
>  <MODEL>
8

>  <REMARK>
 VINA RESULT:      -5.6      4.482      7.223
  Name = 
  3 active torsions:
  status: ('A' for Active; 'I' for Inactive)
    1  A    between atoms: C_5  and  O_16
    2  A    between atoms: C_5  and  C_30
    3  A    between atoms: C_10  and  O_16
                            x       y       z     vdW  Elec       q    Type
                         _______ _______ _______ _____ _____    ______ ____

>  <TORSDO>
F 3

$$$$
=
 OpenBabel11122413113D

 31 35  0  0  1  0  0  0  0  0999 V2000
  161.0010  201.5490  150.2470 C   0  0  0  0  0  0  0  0  0  0  0  0
  161.6060  204.7620  148.4050 N   0  0  0  0  0  0  0  0  0  0  0  0
  161.2480  204.5990  147.0100 C   0  0  0  0  0  0  0  0  0  0  0  0
  160.4620  203.2390  145.1520 C   0  0  0  0  0  0  0  0  0  0  0  0
  161.2060  203.8020  149.4050 C   0  0  0  0  0  0  0  0  0  0  0  0
  160.4330  202.0310  151.3860 N   0  0  0  0  0  0  0  0  0  0  0  0
  160.8730  203.3540  146.4810 C   0  0  0  0  0  3  0  0  0  0  0  0
  160.7560  206.6030  149.7650 C   0  0  2  0  0  3  0  0  0  0  0  0
  161.2320  199.8260  150.0460 Cl  0  0  0  0  0  0  0  0  0  0  0  0
  161.5700  206.9760  146.6820 O   0  0  0  0  0  0  0  0  0  0  0  0
  160.0020  201.6780  144.5100 Cl  0  0  0  0  0  0  0  0  0  0  0  0
  160.4550  205.6520  150.7920 O   0  0  0  0  0  0  0  0  0  0  0  0
  161.9370  206.0970  148.9320 C   0  0  2  0  0  3  0  0  0  0  0  0
  161.4020  202.4260  149.2360 C   0  0  0  0  0  3  0  0  0  0  0  0
  160.4040  204.3740  144.3390 C   0  0  0  0  0  3  0  0  0  0  0  0
  160.6250  204.2740  150.5940 C   0  0  0  0  0  0  0  0  0  0  0  0
  160.2410  203.3640  151.5790 C   0  0  0  0  0  3  0  0  0  0  0  0
  162.3850  207.0770  147.8430 C   0  0  0  0  0  2  0  0  0  0  0  0
  161.2010  205.7310  146.1770 C   0  0  0  0  0  0  0  0  0  0  0  0
  160.7710  205.6200  144.8510 C   0  0  0  0  0  3  0  0  0  0  0  0
  161.0570  207.8400  150.3440 O   0  0  0  0  0  0  0  0  0  0  0  0
  162.7060  207.0650  151.8910 C   0  0  0  0  0  1  0  0  0  0  0  0
  161.2870  207.5650  151.6970 C   0  0  1  0  0  3  0  0  0  0  0  0
  160.1780  211.0320  153.9610 N   0  0  0  0  0  0  0  0  0  0  0  0
  160.5170  208.6060  153.7590 C   0  0  0  0  0  3  0  0  0  0  0  0
  161.8930  210.3390  150.7900 O   0  0  0  0  0  1  0  0  0  0  0  0
  159.6490  212.1980  154.6410 C   0  0  0  0  0  1  0  0  0  0  0  0
  160.2460  209.7620  154.6840 C   0  0  0  0  0  2  0  0  0  0  0  0
  161.2610  210.1470  152.0120 C   0  0  0  0  0  0  0  0  0  0  0  0
  161.0320  208.7800  152.5370 C   0  0  0  0  0  0  0  0  0  0  0  0
  160.8320  211.2060  152.6980 C   0  0  0  0  0  3  0  0  0  0  0  0
  1  6  1  0  0  0  0
  2 13  1  0  0  0  0
  2  5  1  0  0  0  0
  3  2  1  0  0  0  0
  4  7  2  0  0  0  0
  5 16  2  0  0  0  0
  6 17  2  0  0  0  0
  7  3  1  0  0  0  0
  8 21  1  1  0  0  0
  8 12  1  0  0  0  0
  9  1  1  0  0  0  0
 10 18  1  0  0  0  0
 11  4  1  0  0  0  0
 13 18  1  6  0  0  0
 13  8  1  0  0  0  0
 14  5  1  0  0  0  0
 14  1  2  0  0  0  0
 15 20  2  0  0  0  0
 15  4  1  0  0  0  0
 16 12  1  0  0  0  0
 16 17  1  0  0  0  0
 19 10  1  0  0  0  0
 19  3  2  0  0  0  0
 20 19  1  0  0  0  0
 21 23  1  0  0  0  0
 23 22  1  6  0  0  0
 23 30  1  0  0  0  0
 24 27  1  0  0  0  0
 24 28  1  0  0  0  0
 25 28  1  0  0  0  0
 26 29  1  0  0  0  0
 29 30  1  0  0  0  0
 29 31  2  0  0  0  0
 30 25  2  0  0  0  0
 31 24  1  0  0  0  0
M  END
>  <MODEL>
9

>  <REMARK>
 VINA RESULT:      -5.5      3.865      6.711
  Name = 
  3 active torsions:
  status: ('A' for Active; 'I' for Inactive)
    1  A    between atoms: C_5  and  O_16
    2  A    between atoms: C_5  and  C_30
    3  A    between atoms: C_10  and  O_16
                            x       y       z     vdW  Elec       q    Type
                         _______ _______ _______ _____ _____    ______ ____

>  <TORSDO>
F 3

$$$$
