=
 OpenBabel11122413273D

 31 35  0  0  1  0  0  0  0  0999 V2000
  160.8560  207.5300  156.3730 C   0  0  0  0  0  0  0  0  0  0  0  0
  161.9210  208.7990  152.9500 C   0  0  2  0  0  3  0  0  0  0  0  0
  161.5270  207.7270  151.9420 C   0  0  0  0  0  0  0  0  0  0  0  0
  160.8640  205.4430  151.4280 C   0  0  0  0  0  0  0  0  0  0  0  0
  161.1730  208.6820  154.2590 C   0  0  0  0  0  0  0  0  0  0  0  0
  159.7570  208.3420  156.6560 C   0  0  0  0  0  3  0  0  0  0  0  0
  161.1900  206.4290  152.3600 C   0  0  0  0  0  3  0  0  0  0  0  0
  160.3060  210.6150  152.2800 C   0  0  2  0  0  3  0  0  0  0  0  0
  161.2350  206.5730  157.2530 F   0  0  0  0  0  0  0  0  0  0  0  0
  161.9520  209.3040  150.0980 N   0  0  0  0  0  2  0  0  0  0  0  0
  160.5190  204.1680  151.8570 O   0  0  0  0  0  1  0  0  0  0  0  0
  159.6890  210.6720  153.6770 C   0  0  0  0  0  2  0  0  0  0  0  0
  161.7870  210.2230  152.3710 C   0  0  2  0  0  3  0  0  0  0  0  0
  161.5620  207.7000  155.1790 C   0  0  0  0  0  3  0  0  0  0  0  0
  160.8820  205.7380  150.0630 C   0  0  0  0  0  3  0  0  0  0  0  0
  160.0630  209.5060  154.5490 C   0  0  0  0  0  0  0  0  0  0  0  0
  159.3680  209.3330  155.7520 C   0  0  0  0  0  3  0  0  0  0  0  0
  162.4900  210.3040  151.0130 C   0  0  0  0  0  2  0  0  0  0  0  0
  161.5800  208.0030  150.5600 C   0  0  0  0  0  0  0  0  0  0  0  0
  161.2420  207.0160  149.6300 C   0  0  0  0  0  3  0  0  0  0  0  0
  157.8700  212.0800  152.0570 O   0  0  0  0  0  0  0  0  0  0  0  0
  158.9090  212.6000  151.5670 C   0  0  0  0  0  0  0  0  0  0  0  0
  160.1600  211.9140  151.6350 N   0  0  0  0  0  2  0  0  0  0  0  0
  157.4270  213.6540  148.3940 C   0  0  0  0  0  0  0  0  0  0  0  0
  157.4100  214.4530  150.7460 C   0  0  0  0  0  2  0  0  0  0  0  0
  160.8970  213.5050  149.6760 O   0  0  0  0  0  1  0  0  0  0  0  0
  156.8970  213.9070  147.3250 O   0  0  0  0  0  0  0  0  0  0  0  0
  156.6320  213.7030  149.6620 C   0  0  0  0  0  2  0  0  0  0  0  0
  159.5930  213.9860  149.5430 C   0  0  2  0  0  3  0  0  0  0  0  0
  158.8490  213.9390  150.8900 C   0  0  2  0  0  3  0  0  0  0  0  0
  158.8590  213.2190  148.4440 C   0  0  0  0  0  2  0  0  0  0  0  0
  1  6  1  0  0  0  0
  1  9  1  0  0  0  0
  2  3  1  6  0  0  0
  2  5  1  0  0  0  0
  3  7  1  0  0  0  0
  4 11  1  0  0  0  0
  4  7  2  0  0  0  0
  5 16  2  0  0  0  0
  5 14  1  0  0  0  0
  8 23  1  1  0  0  0
  8 13  1  0  0  0  0
  8 12  1  0  0  0  0
 10 19  1  0  0  0  0
 10 18  1  0  0  0  0
 12 16  1  0  0  0  0
 13 18  1  6  0  0  0
 13  2  1  0  0  0  0
 14  1  2  0  0  0  0
 15  4  1  0  0  0  0
 16 17  1  0  0  0  0
 17  6  2  0  0  0  0
 19  3  2  0  0  0  0
 20 15  2  0  0  0  0
 20 19  1  0  0  0  0
 22 23  1  0  0  0  0
 22 21  2  0  0  0  0
 24 31  1  0  0  0  0
 24 28  1  0  0  0  0
 25 30  1  0  0  0  0
 27 24  2  0  0  0  0
 28 25  1  0  0  0  0
 29 26  1  1  0  0  0
 29 30  1  0  0  0  0
 30 22  1  6  0  0  0
 31 29  1  0  0  0  0
M  END
>  <MODEL>
1

>  <REMARK>
 VINA RESULT:      -6.7      0.000      0.000
  Name = 
  2 active torsions:
  status: ('A' for Active; 'I' for Inactive)
    1  A    between atoms: C_5  and  C_30
    2  A    between atoms: C_10  and  N_16
                            x       y       z     vdW  Elec       q    Type
                         _______ _______ _______ _____ _____    ______ ____

>  <TORSDO>
F 2

$$$$
=
 OpenBabel11122413273D

 31 35  0  0  1  0  0  0  0  0999 V2000
  161.0430  204.6590  144.9080 C   0  0  0  0  0  0  0  0  0  0  0  0
  160.4100  204.9640  148.6450 C   0  0  2  0  0  3  0  0  0  0  0  0
  160.8130  203.6340  149.2690 C   0  0  0  0  0  0  0  0  0  0  0  0
  161.3410  201.2680  149.0580 C   0  0  0  0  0  0  0  0  0  0  0  0
  161.0190  205.1840  147.2790 C   0  0  0  0  0  0  0  0  0  0  0  0
  162.1700  205.4640  144.7370 C   0  0  0  0  0  3  0  0  0  0  0  0
  161.0060  202.4920  148.4750 C   0  0  0  0  0  3  0  0  0  0  0  0
  162.2180  206.4370  149.6020 C   0  0  2  0  0  3  0  0  0  0  0  0
  160.5090  204.0090  143.8480 F   0  0  0  0  0  0  0  0  0  0  0  0
  160.6890  204.6470  151.5110 N   0  0  0  0  0  2  0  0  0  0  0  0
  161.5430  200.1500  148.2590 O   0  0  0  0  0  1  0  0  0  0  0  0
  162.7030  206.8560  148.2140 C   0  0  0  0  0  2  0  0  0  0  0  0
  160.7090  206.1590  149.5750 C   0  0  2  0  0  3  0  0  0  0  0  0
  160.4690  204.5210  146.1740 C   0  0  0  0  0  3  0  0  0  0  0  0
  161.4750  201.1670  150.4440 C   0  0  0  0  0  3  0  0  0  0  0  0
  162.1580  206.0020  147.1030 C   0  0  0  0  0  0  0  0  0  0  0  0
  162.7190  206.1400  145.8290 C   0  0  0  0  0  3  0  0  0  0  0  0
  160.1470  205.8890  150.9730 C   0  0  0  0  0  2  0  0  0  0  0  0
  160.9130  203.5120  150.6710 C   0  0  0  0  0  0  0  0  0  0  0  0
  161.2590  202.2870  151.2490 C   0  0  0  0  0  3  0  0  0  0  0  0
  161.4020  209.1600  149.3720 O   0  0  0  0  0  0  0  0  0  0  0  0
  162.0770  208.8380  150.3870 C   0  0  0  0  0  0  0  0  0  0  0  0
  162.5260  207.4930  150.5580 N   0  0  0  0  0  2  0  0  0  0  0  0
  160.0850  210.4430  153.0020 C   0  0  0  0  0  0  0  0  0  0  0  0
  162.2950  209.3160  152.8530 C   0  0  0  0  0  2  0  0  0  0  0  0
  161.7970  211.6810  149.9620 O   0  0  0  0  0  1  0  0  0  0  0  0
  159.3410  210.9160  153.8450 O   0  0  0  0  0  0  0  0  0  0  0  0
  160.8320  209.1740  153.2800 C   0  0  0  0  0  2  0  0  0  0  0  0
  161.6790  211.1950  151.2650 C   0  0  2  0  0  3  0  0  0  0  0  0
  162.4330  209.8630  151.4250 C   0  0  2  0  0  3  0  0  0  0  0  0
  160.2050  211.0820  151.6540 C   0  0  0  0  0  2  0  0  0  0  0  0
  1 14  1  0  0  0  0
  2  5  1  6  0  0  0
  2  3  1  0  0  0  0
  2 13  1  0  0  0  0
  3 19  1  0  0  0  0
  4 15  2  0  0  0  0
  6  1  2  0  0  0  0
  6 17  1  0  0  0  0
  7  4  1  0  0  0  0
  7  3  2  0  0  0  0
  8 23  1  1  0  0  0
  9  1  1  0  0  0  0
 11  4  1  0  0  0  0
 12  8  1  0  0  0  0
 13  8  1  0  0  0  0
 13 18  1  1  0  0  0
 14  5  2  0  0  0  0
 15 20  1  0  0  0  0
 16  5  1  0  0  0  0
 16 12  1  0  0  0  0
 17 16  2  0  0  0  0
 18 10  1  0  0  0  0
 19 20  2  0  0  0  0
 19 10  1  0  0  0  0
 21 22  2  0  0  0  0
 22 23  1  0  0  0  0
 24 28  1  0  0  0  0
 24 27  2  0  0  0  0
 25 28  1  0  0  0  0
 29 26  1  6  0  0  0
 29 30  1  0  0  0  0
 29 31  1  0  0  0  0
 30 22  1  6  0  0  0
 30 25  1  0  0  0  0
 31 24  1  0  0  0  0
M  END
>  <MODEL>
2

>  <REMARK>
 VINA RESULT:      -6.2      3.896      7.058
  Name = 
  2 active torsions:
  status: ('A' for Active; 'I' for Inactive)
    1  A    between atoms: C_5  and  C_30
    2  A    between atoms: C_10  and  N_16
                            x       y       z     vdW  Elec       q    Type
                         _______ _______ _______ _____ _____    ______ ____

>  <TORSDO>
F 2

$$$$
=
 OpenBabel11122413273D

 31 35  0  0  1  0  0  0  0  0999 V2000
  160.8400  206.3120  146.4300 C   0  0  0  0  0  0  0  0  0  0  0  0
  160.2420  205.0240  149.9580 C   0  0  2  0  0  3  0  0  0  0  0  0
  160.7130  203.5760  149.9820 C   0  0  0  0  0  0  0  0  0  0  0  0
  161.3470  201.5330  148.8210 C   0  0  0  0  0  0  0  0  0  0  0  0
  160.8220  205.8140  148.8070 C   0  0  0  0  0  0  0  0  0  0  0  0
  161.9270  207.1680  146.6130 C   0  0  0  0  0  3  0  0  0  0  0  0
  160.9480  202.8710  148.7910 C   0  0  0  0  0  3  0  0  0  0  0  0
  161.9920  206.0580  151.4480 C   0  0  2  0  0  3  0  0  0  0  0  0
  160.3220  206.1300  145.1930 F   0  0  0  0  0  0  0  0  0  0  0  0
  160.5720  203.5710  152.4420 N   0  0  0  0  0  2  0  0  0  0  0  0
  161.5900  200.8540  147.6360 O   0  0  0  0  0  1  0  0  0  0  0  0
  162.4390  207.0320  150.3580 C   0  0  0  0  0  2  0  0  0  0  0  0
  160.4980  205.7450  151.2990 C   0  0  2  0  0  3  0  0  0  0  0  0
  160.2890  205.6390  147.5240 C   0  0  0  0  0  3  0  0  0  0  0  0
  161.5040  200.8790  150.0450 C   0  0  0  0  0  3  0  0  0  0  0  0
  161.9200  206.6850  148.9910 C   0  0  0  0  0  0  0  0  0  0  0  0
  162.4580  207.3610  147.8900 C   0  0  0  0  0  3  0  0  0  0  0  0
  159.9670  204.8980  152.4580 C   0  0  0  0  0  2  0  0  0  0  0  0
  160.8370  202.8940  151.2110 C   0  0  0  0  0  0  0  0  0  0  0  0
  161.2470  201.5570  151.2380 C   0  0  0  0  0  3  0  0  0  0  0  0
  160.6050  208.2740  152.5850 O   0  0  0  0  0  0  0  0  0  0  0  0
  161.5230  207.7480  153.2710 C   0  0  0  0  0  0  0  0  0  0  0  0
  162.2640  206.6410  152.7560 N   0  0  0  0  0  2  0  0  0  0  0  0
  159.5470  209.6270  155.7090 C   0  0  0  0  0  0  0  0  0  0  0  0
  161.0240  207.6300  155.7400 C   0  0  0  0  0  2  0  0  0  0  0  0
  162.5640  210.4060  153.7100 O   0  0  0  0  0  1  0  0  0  0  0  0
  158.8060  210.2450  156.4560 O   0  0  0  0  0  0  0  0  0  0  0  0
  159.5780  208.1300  155.7410 C   0  0  0  0  0  2  0  0  0  0  0  0
  161.8100  209.8180  154.7260 C   0  0  2  0  0  3  0  0  0  0  0  0
  161.8630  208.2820  154.6330 C   0  0  2  0  0  3  0  0  0  0  0  0
  160.3800  210.3540  154.6990 C   0  0  0  0  0  2  0  0  0  0  0  0
  1  6  2  0  0  0  0
  1 14  1  0  0  0  0
  2  5  1  6  0  0  0
  2  3  1  0  0  0  0
  2 13  1  0  0  0  0
  3 19  1  0  0  0  0
  4 15  2  0  0  0  0
  5 16  1  0  0  0  0
  6 17  1  0  0  0  0
  7  4  1  0  0  0  0
  7  3  2  0  0  0  0
  8 23  1  1  0  0  0
  9  1  1  0  0  0  0
 10 18  1  0  0  0  0
 11  4  1  0  0  0  0
 12  8  1  0  0  0  0
 13  8  1  0  0  0  0
 13 18  1  1  0  0  0
 14  5  2  0  0  0  0
 15 20  1  0  0  0  0
 16 12  1  0  0  0  0
 17 16  2  0  0  0  0
 19 20  2  0  0  0  0
 19 10  1  0  0  0  0
 21 22  2  0  0  0  0
 23 22  1  0  0  0  0
 24 28  1  0  0  0  0
 24 27  2  0  0  0  0
 25 28  1  0  0  0  0
 29 26  1  6  0  0  0
 30 22  1  6  0  0  0
 30 29  1  0  0  0  0
 30 25  1  0  0  0  0
 31 29  1  0  0  0  0
 31 24  1  0  0  0  0
M  END
>  <MODEL>
3

>  <REMARK>
 VINA RESULT:      -6.0      4.608      7.065
  Name = 
  2 active torsions:
  status: ('A' for Active; 'I' for Inactive)
    1  A    between atoms: C_5  and  C_30
    2  A    between atoms: C_10  and  N_16
                            x       y       z     vdW  Elec       q    Type
                         _______ _______ _______ _____ _____    ______ ____

>  <TORSDO>
F 2

$$$$
=
 OpenBabel11122413273D

 31 35  0  0  1  0  0  0  0  0999 V2000
  160.6480  209.6860  154.6440 C   0  0  0  0  0  0  0  0  0  0  0  0
  162.1290  210.1150  151.1680 C   0  0  2  0  0  3  0  0  0  0  0  0
  161.7420  208.8760  150.3700 C   0  0  0  0  0  0  0  0  0  0  0  0
  160.9410  206.5790  150.2770 C   0  0  0  0  0  0  0  0  0  0  0  0
  161.2550  210.3310  152.3830 C   0  0  0  0  0  0  0  0  0  0  0  0
  159.5990  210.6070  154.6290 C   0  0  0  0  0  3  0  0  0  0  0  0
  161.2600  207.7230  151.0120 C   0  0  0  0  0  3  0  0  0  0  0  0
  160.7400  211.8380  149.9610 C   0  0  2  0  0  3  0  0  0  0  0  0
  160.8620  208.9220  155.7410 F   0  0  0  0  0  0  0  0  0  0  0  0
  162.4670  209.9860  148.2940 N   0  0  0  0  0  2  0  0  0  0  0  0
  160.4520  205.4520  150.9230 O   0  0  0  0  0  1  0  0  0  0  0  0
  160.0030  212.2350  151.2390 C   0  0  0  0  0  2  0  0  0  0  0  0
  162.1680  211.3850  150.2920 C   0  0  2  0  0  3  0  0  0  0  0  0
  161.4740  209.5500  153.5260 C   0  0  0  0  0  3  0  0  0  0  0  0
  161.1100  206.5700  148.8910 C   0  0  0  0  0  3  0  0  0  0  0  0
  160.1960  211.2650  152.3720 C   0  0  0  0  0  0  0  0  0  0  0  0
  159.3800  211.4000  153.5010 C   0  0  0  0  0  3  0  0  0  0  0  0
  162.9990  211.1250  149.0320 C   0  0  0  0  0  2  0  0  0  0  0  0
  161.9460  208.8420  148.9750 C   0  0  0  0  0  0  0  0  0  0  0  0
  161.6140  207.6990  148.2410 C   0  0  0  0  0  3  0  0  0  0  0  0
  160.0710  211.7360  147.1910 O   0  0  0  0  0  0  0  0  0  0  0  0
  160.4060  212.8540  147.6690 C   0  0  0  0  0  0  0  0  0  0  0  0
  160.7640  212.9720  149.0460 N   0  0  0  0  0  2  0  0  0  0  0  0
  161.2630  213.2940  144.1400 C   0  0  0  0  0  0  0  0  0  0  0  0
  159.4290  214.0120  145.6540 C   0  0  0  0  0  2  0  0  0  0  0  0
  162.7850  214.4530  147.3100 O   0  0  0  0  0  1  0  0  0  0  0  0
  161.5600  213.3350  142.9580 O   0  0  0  0  0  0  0  0  0  0  0  0
  159.8490  213.0310  144.5560 C   0  0  0  0  0  2  0  0  0  0  0  0
  161.8570  214.4090  146.2680 C   0  0  2  0  0  3  0  0  0  0  0  0
  160.4500  214.0760  146.7970 C   0  0  2  0  0  3  0  0  0  0  0  0
  162.3220  213.4290  145.1910 C   0  0  0  0  0  2  0  0  0  0  0  0
  1  9  1  0  0  0  0
  2  3  1  6  0  0  0
  2  5  1  0  0  0  0
  3  7  1  0  0  0  0
  4 11  1  0  0  0  0
  4  7  2  0  0  0  0
  5 14  1  0  0  0  0
  6  1  1  0  0  0  0
  8 23  1  6  0  0  0
  8 13  1  0  0  0  0
  8 12  1  0  0  0  0
 10 19  1  0  0  0  0
 10 18  1  0  0  0  0
 12 16  1  0  0  0  0
 13 18  1  6  0  0  0
 13  2  1  0  0  0  0
 14  1  2  0  0  0  0
 15  4  1  0  0  0  0
 16  5  2  0  0  0  0
 16 17  1  0  0  0  0
 17  6  2  0  0  0  0
 19  3  2  0  0  0  0
 20 15  2  0  0  0  0
 20 19  1  0  0  0  0
 21 22  2  0  0  0  0
 22 23  1  0  0  0  0
 24 28  1  0  0  0  0
 24 31  1  0  0  0  0
 25 30  1  0  0  0  0
 27 24  2  0  0  0  0
 28 25  1  0  0  0  0
 29 30  1  0  0  0  0
 29 26  1  1  0  0  0
 30 22  1  6  0  0  0
 31 29  1  0  0  0  0
M  END
>  <MODEL>
4

>  <REMARK>
 VINA RESULT:      -5.8      2.581      3.472
  Name = 
  2 active torsions:
  status: ('A' for Active; 'I' for Inactive)
    1  A    between atoms: C_5  and  C_30
    2  A    between atoms: C_10  and  N_16
                            x       y       z     vdW  Elec       q    Type
                         _______ _______ _______ _____ _____    ______ ____

>  <TORSDO>
F 2

$$$$
=
 OpenBabel11122413273D

 31 35  0  0  1  0  0  0  0  0999 V2000
  161.0230  203.7810  145.5310 C   0  0  0  0  0  0  0  0  0  0  0  0
  160.4880  205.6290  148.8110 C   0  0  2  0  0  3  0  0  0  0  0  0
  160.8780  204.6670  149.9260 C   0  0  0  0  0  0  0  0  0  0  0  0
  161.3520  202.4130  150.7110 C   0  0  0  0  0  0  0  0  0  0  0  0
  161.0680  205.2440  147.4690 C   0  0  0  0  0  0  0  0  0  0  0  0
  162.1620  204.4080  145.0260 C   0  0  0  0  0  3  0  0  0  0  0  0
  161.0280  203.2930  149.6770 C   0  0  0  0  0  3  0  0  0  0  0  0
  162.3490  207.3130  149.0430 C   0  0  2  0  0  3  0  0  0  0  0  0
  160.4490  202.7640  144.8450 F   0  0  0  0  0  0  0  0  0  0  0  0
  160.8310  206.5230  151.5450 N   0  0  0  0  0  2  0  0  0  0  0  0
  161.5110  201.0590  150.4460 O   0  0  0  0  0  1  0  0  0  0  0  0
  162.8080  207.1030  147.6010 C   0  0  0  0  0  2  0  0  0  0  0  0
  160.8350  207.0930  149.1550 C   0  0  2  0  0  3  0  0  0  0  0  0
  160.4770  204.1980  146.7480 C   0  0  0  0  0  3  0  0  0  0  0  0
  161.5180  202.8930  152.0110 C   0  0  0  0  0  3  0  0  0  0  0  0
  162.2190  205.8810  146.9530 C   0  0  0  0  0  0  0  0  0  0  0  0
  162.7520  205.4610  145.7290 C   0  0  0  0  0  3  0  0  0  0  0  0
  160.3020  207.4440  150.5460 C   0  0  0  0  0  2  0  0  0  0  0  0
  161.0100  205.1360  151.2500 C   0  0  0  0  0  0  0  0  0  0  0  0
  161.3460  204.2530  152.2800 C   0  0  0  0  0  3  0  0  0  0  0  0
  161.3550  209.7220  147.8860 O   0  0  0  0  0  0  0  0  0  0  0  0
  162.1590  209.8280  148.8510 C   0  0  0  0  0  0  0  0  0  0  0  0
  162.7030  208.6610  149.4690 N   0  0  0  0  0  2  0  0  0  0  0  0
  160.8740  213.1810  148.1540 C   0  0  0  0  0  0  0  0  0  0  0  0
  161.4620  211.8590  150.1740 C   0  0  0  0  0  2  0  0  0  0  0  0
  164.1050  211.4910  147.5130 O   0  0  0  0  0  1  0  0  0  0  0  0
  160.3720  214.2530  147.8620 O   0  0  0  0  0  0  0  0  0  0  0  0
  160.3240  212.3720  149.2880 C   0  0  0  0  0  2  0  0  0  0  0  0
  163.1050  212.1170  148.2600 C   0  0  2  0  0  3  0  0  0  0  0  0
  162.5710  211.1800  149.3580 C   0  0  2  0  0  3  0  0  0  0  0  0
  161.9980  212.6250  147.3370 C   0  0  0  0  0  2  0  0  0  0  0  0
  1 14  1  0  0  0  0
  2  5  1  6  0  0  0
  2 13  1  0  0  0  0
  2  3  1  0  0  0  0
  3 19  1  0  0  0  0
  4 15  2  0  0  0  0
  6  1  2  0  0  0  0
  6 17  1  0  0  0  0
  7  3  2  0  0  0  0
  7  4  1  0  0  0  0
  8 13  1  0  0  0  0
  8 23  1  6  0  0  0
  9  1  1  0  0  0  0
 11  4  1  0  0  0  0
 12  8  1  0  0  0  0
 13 18  1  1  0  0  0
 14  5  2  0  0  0  0
 15 20  1  0  0  0  0
 16  5  1  0  0  0  0
 16 12  1  0  0  0  0
 17 16  2  0  0  0  0
 18 10  1  0  0  0  0
 19 10  1  0  0  0  0
 19 20  2  0  0  0  0
 21 22  2  0  0  0  0
 22 23  1  0  0  0  0
 24 28  1  0  0  0  0
 27 24  2  0  0  0  0
 28 25  1  0  0  0  0
 29 26  1  6  0  0  0
 29 30  1  0  0  0  0
 30 22  1  6  0  0  0
 30 25  1  0  0  0  0
 31 24  1  0  0  0  0
 31 29  1  0  0  0  0
M  END
>  <MODEL>
5

>  <REMARK>
 VINA RESULT:      -5.8      4.106      6.398
  Name = 
  2 active torsions:
  status: ('A' for Active; 'I' for Inactive)
    1  A    between atoms: C_5  and  C_30
    2  A    between atoms: C_10  and  N_16
                            x       y       z     vdW  Elec       q    Type
                         _______ _______ _______ _____ _____    ______ ____

>  <TORSDO>
F 2

$$$$
=
 OpenBabel11122413273D

 31 35  0  0  1  0  0  0  0  0999 V2000
  162.2360  213.6750  147.4440 C   0  0  0  0  0  0  0  0  0  0  0  0
  159.7730  214.3410  150.2640 C   0  0  2  0  0  3  0  0  0  0  0  0
  158.3800  214.3080  149.6470 C   0  0  0  0  0  0  0  0  0  0  0  0
  156.9220  214.3840  147.7000 C   0  0  0  0  0  0  0  0  0  0  0  0
  160.8120  213.6490  149.4110 C   0  0  0  0  0  0  0  0  0  0  0  0
  162.6600  212.3760  147.7290 C   0  0  0  0  0  3  0  0  0  0  0  0
  158.2030  214.3800  148.2560 C   0  0  0  0  0  3  0  0  0  0  0  0
  159.6550  212.2550  151.6740 C   0  0  2  0  0  3  0  0  0  0  0  0
  162.7120  214.3180  146.3520 F   0  0  0  0  0  0  0  0  0  0  0  0
  157.3840  214.2510  151.8990 N   0  0  0  0  0  2  0  0  0  0  0  0
  156.7620  214.4420  146.3230 O   0  0  0  0  0  1  0  0  0  0  0  0
  160.8610  211.6330  150.9720 C   0  0  0  0  0  2  0  0  0  0  0  0
  159.7880  213.7830  151.7030 C   0  0  2  0  0  3  0  0  0  0  0  0
  161.3160  214.3090  148.2830 C   0  0  0  0  0  3  0  0  0  0  0  0
  155.8000  214.3280  148.5300 C   0  0  0  0  0  3  0  0  0  0  0  0
  161.2470  212.3360  149.7000 C   0  0  0  0  0  0  0  0  0  0  0  0
  162.1750  211.7130  148.8580 C   0  0  0  0  0  3  0  0  0  0  0  0
  158.6840  214.4440  152.5310 C   0  0  0  0  0  2  0  0  0  0  0  0
  157.2400  214.2900  150.4780 C   0  0  0  0  0  0  0  0  0  0  0  0
  155.9590  214.2830  149.9170 C   0  0  0  0  0  3  0  0  0  0  0  0
  160.1180  209.5420  152.4200 O   0  0  0  0  0  0  0  0  0  0  0  0
  159.8140  210.3540  153.3360 C   0  0  0  0  0  0  0  0  0  0  0  0
  159.5590  211.7250  153.0280 N   0  0  0  0  0  2  0  0  0  0  0  0
  161.7490  211.1940  156.3240 C   0  0  0  0  0  0  0  0  0  0  0  0
  159.3450  211.0410  155.7160 C   0  0  0  0  0  2  0  0  0  0  0  0
  161.2580  208.0810  154.3810 O   0  0  0  0  0  1  0  0  0  0  0  0
  162.4480  211.5430  157.2610 O   0  0  0  0  0  0  0  0  0  0  0  0
  160.5290  211.9810  155.9570 C   0  0  0  0  0  2  0  0  0  0  0  0
  160.9310  209.1150  155.2600 C   0  0  2  0  0  3  0  0  0  0  0  0
  159.7010  209.8940  154.7600 C   0  0  2  0  0  3  0  0  0  0  0  0
  162.1420  210.0200  155.4830 C   0  0  0  0  0  2  0  0  0  0  0  0
  1  6  2  0  0  0  0
  1 14  1  0  0  0  0
  2  5  1  6  0  0  0
  2 13  1  0  0  0  0
  3  2  1  0  0  0  0
  3 19  1  0  0  0  0
  4  7  1  0  0  0  0
  4 15  2  0  0  0  0
  5 16  1  0  0  0  0
  6 17  1  0  0  0  0
  7  3  2  0  0  0  0
  8 13  1  0  0  0  0
  8 23  1  1  0  0  0
  9  1  1  0  0  0  0
 10 18  1  0  0  0  0
 11  4  1  0  0  0  0
 12  8  1  0  0  0  0
 13 18  1  1  0  0  0
 14  5  2  0  0  0  0
 15 20  1  0  0  0  0
 16 12  1  0  0  0  0
 17 16  2  0  0  0  0
 19 10  1  0  0  0  0
 20 19  2  0  0  0  0
 21 22  2  0  0  0  0
 23 22  1  0  0  0  0
 24 27  2  0  0  0  0
 25 28  1  0  0  0  0
 28 24  1  0  0  0  0
 29 26  1  6  0  0  0
 29 31  1  0  0  0  0
 30 22  1  6  0  0  0
 30 29  1  0  0  0  0
 30 25  1  0  0  0  0
 31 24  1  0  0  0  0
M  END
>  <MODEL>
6

>  <REMARK>
 VINA RESULT:      -5.2      3.705      8.028
  Name = 
  2 active torsions:
  status: ('A' for Active; 'I' for Inactive)
    1  A    between atoms: C_5  and  C_30
    2  A    between atoms: C_10  and  N_16
                            x       y       z     vdW  Elec       q    Type
                         _______ _______ _______ _____ _____    ______ ____

>  <TORSDO>
F 2

$$$$
=
 OpenBabel11122413273D

 31 35  0  0  1  0  0  0  0  0999 V2000
  160.7260  201.5500  148.7940 C   0  0  0  0  0  0  0  0  0  0  0  0
  162.2820  204.8280  149.9330 C   0  0  2  0  0  3  0  0  0  0  0  0
  161.7630  205.9100  148.9930 C   0  0  0  0  0  0  0  0  0  0  0  0
  160.7050  206.5750  146.9050 C   0  0  0  0  0  0  0  0  0  0  0  0
  161.4270  203.5810  149.9260 C   0  0  0  0  0  0  0  0  0  0  0  0
  159.7900  201.3070  149.8000 C   0  0  0  0  0  3  0  0  0  0  0  0
  161.1460  205.5770  147.7770 C   0  0  0  0  0  3  0  0  0  0  0  0
  161.1130  205.5230  152.0550 C   0  0  2  0  0  3  0  0  0  0  0  0
  160.8400  200.6910  147.7530 F   0  0  0  0  0  0  0  0  0  0  0  0
  162.6320  207.6440  150.5110 N   0  0  0  0  0  2  0  0  0  0  0  0
  160.0840  206.2300  145.7120 O   0  0  0  0  0  1  0  0  0  0  0  0
  160.4130  204.1720  152.1900 C   0  0  0  0  0  2  0  0  0  0  0  0
  162.4760  205.3490  151.3720 C   0  0  2  0  0  3  0  0  0  0  0  0
  161.5420  202.6830  148.8570 C   0  0  0  0  0  3  0  0  0  0  0  0
  160.8860  207.9190  147.2340 C   0  0  0  0  0  3  0  0  0  0  0  0
  160.4810  203.3310  150.9460 C   0  0  0  0  0  0  0  0  0  0  0  0
  159.6750  202.1890  150.8770 C   0  0  0  0  0  3  0  0  0  0  0  0
  163.2840  206.6490  151.3540 C   0  0  0  0  0  2  0  0  0  0  0  0
  161.9770  207.2710  149.2970 C   0  0  0  0  0  0  0  0  0  0  0  0
  161.5230  208.2670  148.4270 C   0  0  0  0  0  3  0  0  0  0  0  0
  160.4930  208.2210  152.7400 O   0  0  0  0  0  0  0  0  0  0  0  0
  160.9360  207.4750  153.6550 C   0  0  0  0  0  0  0  0  0  0  0  0
  161.2760  206.1160  153.3760 N   0  0  0  0  0  2  0  0  0  0  0  0
  159.0570  209.9370  155.6020 C   0  0  0  0  0  0  0  0  0  0  0  0
  159.9540  207.6490  155.9710 C   0  0  0  0  0  2  0  0  0  0  0  0
  162.5020  209.8270  154.2500 O   0  0  0  0  0  1  0  0  0  0  0  0
  158.3630  210.7630  156.1700 O   0  0  0  0  0  0  0  0  0  0  0  0
  158.7060  208.4820  155.6660 C   0  0  0  0  0  2  0  0  0  0  0  0
  161.4420  209.5090  155.1010 C   0  0  2  0  0  3  0  0  0  0  0  0
  161.1280  208.0030  155.0470 C   0  0  2  0  0  3  0  0  0  0  0  0
  160.2250  210.3710  154.7710 C   0  0  0  0  0  2  0  0  0  0  0  0
  1 14  2  0  0  0  0
  1  6  1  0  0  0  0
  2  3  1  6  0  0  0
  2 13  1  0  0  0  0
  3 19  1  0  0  0  0
  4 15  2  0  0  0  0
  4  7  1  0  0  0  0
  5  2  1  0  0  0  0
  5 16  2  0  0  0  0
  6 17  2  0  0  0  0
  7  3  2  0  0  0  0
  8 12  1  0  0  0  0
  8 23  1  1  0  0  0
  9  1  1  0  0  0  0
 10 18  1  0  0  0  0
 11  4  1  0  0  0  0
 13 18  1  6  0  0  0
 13  8  1  0  0  0  0
 14  5  1  0  0  0  0
 15 20  1  0  0  0  0
 16 12  1  0  0  0  0
 17 16  1  0  0  0  0
 19 10  1  0  0  0  0
 20 19  2  0  0  0  0
 21 22  2  0  0  0  0
 23 22  1  0  0  0  0
 24 28  1  0  0  0  0
 24 27  2  0  0  0  0
 28 25  1  0  0  0  0
 29 26  1  6  0  0  0
 30 22  1  6  0  0  0
 30 29  1  0  0  0  0
 30 25  1  0  0  0  0
 31 29  1  0  0  0  0
 31 24  1  0  0  0  0
M  END
>  <MODEL>
7

>  <REMARK>
 VINA RESULT:      -4.9      4.387      6.736
  Name = 
  2 active torsions:
  status: ('A' for Active; 'I' for Inactive)
    1  A    between atoms: C_5  and  C_30
    2  A    between atoms: C_10  and  N_16
                            x       y       z     vdW  Elec       q    Type
                         _______ _______ _______ _____ _____    ______ ____

>  <TORSDO>
F 2

$$$$
=
 OpenBabel11122413273D

 31 35  0  0  1  0  0  0  0  0999 V2000
  161.8700  203.7830  151.8840 C   0  0  0  0  0  0  0  0  0  0  0  0
  162.5520  207.5090  151.5540 C   0  0  2  0  0  3  0  0  0  0  0  0
  162.0870  207.9190  150.1620 C   0  0  0  0  0  0  0  0  0  0  0  0
  161.4350  207.3410  147.8890 C   0  0  0  0  0  0  0  0  0  0  0  0
  161.9430  206.2070  152.0200 C   0  0  0  0  0  0  0  0  0  0  0  0
  160.7840  203.7630  152.7610 C   0  0  0  0  0  3  0  0  0  0  0  0
  161.8270  206.9560  149.1730 C   0  0  0  0  0  3  0  0  0  0  0  0
  160.8310  208.7200  152.9420 C   0  0  2  0  0  3  0  0  0  0  0  0
  162.3600  202.6230  151.3870 F   0  0  0  0  0  0  0  0  0  0  0  0
  162.2830  210.2920  150.7950 N   0  0  0  0  0  2  0  0  0  0  0  0
  161.1680  206.3780  146.9260 O   0  0  0  0  0  1  0  0  0  0  0  0
  160.3560  207.4260  153.6010 C   0  0  0  0  0  2  0  0  0  0  0  0
  162.3230  208.6230  152.5970 C   0  0  2  0  0  3  0  0  0  0  0  0
  162.4470  205.0010  151.5160 C   0  0  0  0  0  3  0  0  0  0  0  0
  161.3080  208.6950  147.5740 C   0  0  0  0  0  3  0  0  0  0  0  0
  160.8460  206.1830  152.9110 C   0  0  0  0  0  0  0  0  0  0  0  0
  160.2810  204.9580  153.2800 C   0  0  0  0  0  3  0  0  0  0  0  0
  162.8830  209.9500  152.0780 C   0  0  0  0  0  2  0  0  0  0  0  0
  161.9930  209.2850  149.8220 C   0  0  0  0  0  0  0  0  0  0  0  0
  161.5890  209.6660  148.5390 C   0  0  0  0  0  3  0  0  0  0  0  0
  159.0710  210.9030  152.4240 O   0  0  0  0  0  0  0  0  0  0  0  0
  159.6830  210.8970  153.5270 C   0  0  0  0  0  0  0  0  0  0  0  0
  160.5870  209.8380  153.8440 N   0  0  0  0  0  2  0  0  0  0  0  0
  156.6570  212.3170  155.0130 C   0  0  0  0  0  0  0  0  0  0  0  0
  158.8610  211.5110  155.8300 C   0  0  0  0  0  2  0  0  0  0  0  0
  159.2700  213.6490  152.7540 O   0  0  0  0  0  1  0  0  0  0  0  0
  155.5930  212.7160  155.4560 O   0  0  0  0  0  0  0  0  0  0  0  0
  157.3740  211.1810  155.6760 C   0  0  0  0  0  2  0  0  0  0  0  0
  158.7070  213.2100  153.9540 C   0  0  2  0  0  3  0  0  0  0  0  0
  159.4840  212.0070  154.5180 C   0  0  2  0  0  3  0  0  0  0  0  0
  157.2220  212.9050  153.7580 C   0  0  0  0  0  2  0  0  0  0  0  0
  1  6  1  0  0  0  0
  2  3  1  6  0  0  0
  2  5  1  0  0  0  0
  2 13  1  0  0  0  0
  4  7  1  0  0  0  0
  5 16  2  0  0  0  0
  6 17  2  0  0  0  0
  7  3  2  0  0  0  0
  8 12  1  0  0  0  0
  8 23  1  1  0  0  0
  9  1  1  0  0  0  0
 10 18  1  0  0  0  0
 11  4  1  0  0  0  0
 13 18  1  6  0  0  0
 13  8  1  0  0  0  0
 14  1  2  0  0  0  0
 14  5  1  0  0  0  0
 15  4  2  0  0  0  0
 15 20  1  0  0  0  0
 16 17  1  0  0  0  0
 16 12  1  0  0  0  0
 19  3  1  0  0  0  0
 19 10  1  0  0  0  0
 20 19  2  0  0  0  0
 21 22  2  0  0  0  0
 22 23  1  0  0  0  0
 24 27  2  0  0  0  0
 24 28  1  0  0  0  0
 28 25  1  0  0  0  0
 29 26  1  6  0  0  0
 29 30  1  0  0  0  0
 30 22  1  6  0  0  0
 30 25  1  0  0  0  0
 31 29  1  0  0  0  0
 31 24  1  0  0  0  0
M  END
>  <MODEL>
8

>  <REMARK>
 VINA RESULT:      -4.5      3.120      4.417
  Name = 
  2 active torsions:
  status: ('A' for Active; 'I' for Inactive)
    1  A    between atoms: C_5  and  C_30
    2  A    between atoms: C_10  and  N_16
                            x       y       z     vdW  Elec       q    Type
                         _______ _______ _______ _____ _____    ______ ____

>  <TORSDO>
F 2

$$$$
=
 OpenBabel11122413273D

 31 35  0  0  1  0  0  0  0  0999 V2000
  162.5530  212.2240  148.1920 C   0  0  0  0  0  0  0  0  0  0  0  0
  159.8410  213.7740  150.3600 C   0  0  2  0  0  3  0  0  0  0  0  0
  158.5880  213.8630  149.4990 C   0  0  0  0  0  0  0  0  0  0  0  0
  157.5080  213.8350  147.3180 C   0  0  0  0  0  0  0  0  0  0  0  0
  160.8510  212.7810  149.8320 C   0  0  0  0  0  0  0  0  0  0  0  0
  162.6650  210.9440  148.7360 C   0  0  0  0  0  3  0  0  0  0  0  0
  158.6560  213.7180  148.1040 C   0  0  0  0  0  3  0  0  0  0  0  0
  159.0920  212.0180  152.0060 C   0  0  2  0  0  3  0  0  0  0  0  0
  163.3160  212.5770  147.1310 F   0  0  0  0  0  0  0  0  0  0  0  0
  157.2470  214.3690  151.5030 N   0  0  0  0  0  2  0  0  0  0  0  0
  157.5890  213.6750  145.9420 O   0  0  0  0  0  1  0  0  0  0  0  0
  160.2530  211.0910  151.6460 C   0  0  0  0  0  2  0  0  0  0  0  0
  159.5130  213.4830  151.8400 C   0  0  2  0  0  3  0  0  0  0  0  0
  161.6500  213.1390  148.7390 C   0  0  0  0  0  3  0  0  0  0  0  0
  156.2770  214.1120  147.9160 C   0  0  0  0  0  3  0  0  0  0  0  0
  160.9690  211.4850  150.3840 C   0  0  0  0  0  0  0  0  0  0  0  0
  161.8830  210.5790  149.8350 C   0  0  0  0  0  3  0  0  0  0  0  0
  158.4380  214.4530  152.3380 C   0  0  0  0  0  2  0  0  0  0  0  0
  157.3460  214.1810  150.0890 C   0  0  0  0  0  0  0  0  0  0  0  0
  156.1970  214.2860  149.3000 C   0  0  0  0  0  3  0  0  0  0  0  0
  160.8410  211.3740  154.1650 O   0  0  0  0  0  0  0  0  0  0  0  0
  159.6070  211.4500  154.4170 C   0  0  0  0  0  0  0  0  0  0  0  0
  158.6770  211.7580  153.3790 N   0  0  0  0  0  2  0  0  0  0  0  0
  157.3030  213.3490  156.5300 C   0  0  0  0  0  0  0  0  0  0  0  0
  157.5760  210.9790  155.8340 C   0  0  0  0  0  2  0  0  0  0  0  0
  160.8950  212.4880  156.7850 O   0  0  0  0  0  1  0  0  0  0  0  0
  156.5220  214.0480  157.1530 O   0  0  0  0  0  0  0  0  0  0  0  0
  156.7950  212.2770  155.6140 C   0  0  0  0  0  2  0  0  0  0  0  0
  159.5150  212.2800  156.8230 C   0  0  2  0  0  3  0  0  0  0  0  0
  159.0940  211.2030  155.8060 C   0  0  2  0  0  3  0  0  0  0  0  0
  158.7760  213.6010  156.6130 C   0  0  0  0  0  2  0  0  0  0  0  0
  1  6  2  0  0  0  0
  1 14  1  0  0  0  0
  2  3  1  6  0  0  0
  2 13  1  0  0  0  0
  3 19  1  0  0  0  0
  4 15  2  0  0  0  0
  4  7  1  0  0  0  0
  5  2  1  0  0  0  0
  5 16  1  0  0  0  0
  6 17  1  0  0  0  0
  7  3  2  0  0  0  0
  8 23  1  1  0  0  0
  9  1  1  0  0  0  0
 10 18  1  0  0  0  0
 11  4  1  0  0  0  0
 12  8  1  0  0  0  0
 13  8  1  0  0  0  0
 13 18  1  6  0  0  0
 14  5  2  0  0  0  0
 15 20  1  0  0  0  0
 16 12  1  0  0  0  0
 17 16  2  0  0  0  0
 19 10  1  0  0  0  0
 20 19  2  0  0  0  0
 21 22  2  0  0  0  0
 23 22  1  0  0  0  0
 24 31  1  0  0  0  0
 24 27  2  0  0  0  0
 28 25  1  0  0  0  0
 28 24  1  0  0  0  0
 29 26  1  6  0  0  0
 30 22  1  6  0  0  0
 30 25  1  0  0  0  0
 30 29  1  0  0  0  0
 31 29  1  0  0  0  0
M  END
>  <MODEL>
9

>  <REMARK>
 VINA RESULT:      -4.0      3.891      7.399
  Name = 
  2 active torsions:
  status: ('A' for Active; 'I' for Inactive)
    1  A    between atoms: C_5  and  C_30
    2  A    between atoms: C_10  and  N_16
                            x       y       z     vdW  Elec       q    Type
                         _______ _______ _______ _____ _____    ______ ____

>  <TORSDO>
F 2

$$$$
