=
 OpenBabel11122412343D

 30 35  0  0  1  0  0  0  0  0999 V2000
  161.4280  206.4110  150.1070 C   0  0  1  0  0  3  0  0  0  0  0  0
  161.2340  203.8710  149.9000 C   0  0  0  0  0  0  0  0  0  0  0  0
  160.9050  206.0330  154.4000 C   0  0  0  0  0  2  0  0  0  0  0  0
  161.6510  207.5730  151.1090 C   0  0  1  0  0  3  0  0  0  0  0  0
  162.3790  206.4880  149.0720 O   0  0  0  0  0  0  0  0  0  0  0  0
  161.8930  210.1800  148.3850 C   0  0  0  0  0  1  0  0  0  0  0  0
  160.3510  210.3680  152.0640 C   0  0  1  0  0  3  0  0  0  0  0  0
  162.2050  208.9320  149.2100 C   0  0  2  0  0  3  0  0  0  0  0  0
  160.1450  209.5930  153.3650 C   0  0  2  0  0  3  0  0  0  0  0  0
  160.7650  207.4920  154.6240 C   0  0  0  0  0  0  0  0  0  0  0  0
  162.1150  207.6620  148.3280 C   0  0  2  0  0  3  0  0  0  0  0  0
  161.3450  208.8320  150.4080 N   0  0  2  0  0  0  0  0  0  0  0  0
  161.0650  202.6150  150.4830 C   0  0  0  0  0  3  0  0  0  0  0  0
  160.6330  210.5240  154.4560 C   0  0  0  0  0  2  0  0  0  0  0  0
  160.3970  211.8410  152.4430 C   0  0  0  0  0  2  0  0  0  0  0  0
  161.2820  203.9740  148.5150 O   0  0  0  0  0  1  0  0  0  0  0  0
  161.3890  206.0560  152.9710 C   0  0  2  0  0  3  0  0  0  0  0  0
  160.9880  202.5040  151.8720 C   0  0  0  0  0  3  0  0  0  0  0  0
  161.3420  205.0140  150.7130 C   0  0  0  0  0  0  0  0  0  0  0  0
  160.7780  207.2970  152.3410 C   0  0  1  0  0  3  0  0  0  0  0  0
  160.5720  207.9850  155.7680 O   0  0  0  0  0  0  0  0  0  0  0  0
  160.8020  208.2780  153.4260 N   0  0  0  0  0  0  0  0  0  0  0  0
  160.3120  211.9130  153.9560 C   0  0  0  0  0  2  0  0  0  0  0  0
  162.9160  209.9770  152.0390 C   0  0  0  0  0  1  0  0  0  0  0  0
  161.0670  203.6150  152.6520 N   0  0  0  0  0  0  0  0  0  0  0  0
  161.2090  204.8540  152.1090 C   0  0  0  0  0  0  0  0  0  0  0  0
  161.5960  210.0060  151.2560 C   0  0  2  0  0  3  0  0  0  0  0  0
  160.8070  207.5550  147.5350 C   0  0  0  0  0  2  0  0  0  0  0  0
  160.5090  206.3610  145.7060 C   0  0  0  0  0  1  0  0  0  0  0  0
  160.6270  206.2460  147.0890 O   0  0  0  0  0  0  0  0  0  0  0  0
  1  5  1  6  0  0  0
  1 19  1  0  0  0  0
  1  4  1  0  0  0  0
  2 13  2  0  0  0  0
  2 19  1  0  0  0  0
  3 10  1  0  0  0  0
  4 20  1  0  0  0  0
  6  8  1  0  0  0  0
  7 15  1  0  0  0  0
  7  9  1  0  0  0  0
  8 12  1  0  0  0  0
  9 22  1  0  0  0  0
  9 14  1  0  0  0  0
 10 21  2  0  0  0  0
 11  5  1  0  0  0  0
 11  8  1  0  0  0  0
 12  4  1  0  0  0  0
 12 27  1  0  0  0  0
 13 18  1  0  0  0  0
 15 23  1  0  0  0  0
 16  2  1  0  0  0  0
 17  3  1  0  0  0  0
 18 25  2  0  0  0  0
 19 26  2  0  0  0  0
 20 17  1  0  0  0  0
 20 22  1  0  0  0  0
 22 10  1  0  0  0  0
 23 14  1  0  0  0  0
 26 25  1  0  0  0  0
 26 17  1  0  0  0  0
 27 24  1  0  0  0  0
 27  7  1  0  0  0  0
 28 11  1  0  0  0  0
 29 30  1  0  0  0  0
 30 28  1  0  0  0  0
M  END
>  <MODEL>
1

>  <REMARK>
 VINA RESULT:      -7.7      0.000      0.000
  Name = 
  2 active torsions:
  status: ('A' for Active; 'I' for Inactive)
    1  A    between atoms: C_11  and  C_28
    2  A    between atoms: C_28  and  O_30
                            x       y       z     vdW  Elec       q    Type
                         _______ _______ _______ _____ _____    ______ ____

>  <TORSDO>
F 2

$$$$
=
 OpenBabel11122412343D

 30 35  0  0  1  0  0  0  0  0999 V2000
  161.1460  209.5600  151.7540 C   0  0  1  0  0  3  0  0  0  0  0  0
  161.1180  211.8780  150.6780 C   0  0  0  0  0  0  0  0  0  0  0  0
  162.1200  207.8490  147.8850 C   0  0  0  0  0  2  0  0  0  0  0  0
  161.5870  208.0890  151.5490 C   0  0  1  0  0  3  0  0  0  0  0  0
  161.6870  210.0540  152.9570 O   0  0  0  0  0  0  0  0  0  0  0  0
  160.6760  207.0820  155.0740 C   0  0  0  0  0  1  0  0  0  0  0  0
  160.4400  205.0740  151.6310 C   0  0  1  0  0  3  0  0  0  0  0  0
  161.3550  207.8230  153.9220 C   0  0  2  0  0  3  0  0  0  0  0  0
  160.7480  205.1330  150.1350 C   0  0  2  0  0  3  0  0  0  0  0  0
  161.9350  206.4480  148.3330 C   0  0  0  0  0  0  0  0  0  0  0  0
  161.0870  209.3440  154.0240 C   0  0  2  0  0  3  0  0  0  0  0  0
  160.9560  207.2800  152.6060 N   0  0  2  0  0  0  0  0  0  0  0  0
  161.2640  212.6980  149.5590 C   0  0  0  0  0  3  0  0  0  0  0  0
  161.4880  203.8440  149.8370 C   0  0  0  0  0  2  0  0  0  0  0  0
  160.4790  203.6030  152.0210 C   0  0  0  0  0  2  0  0  0  0  0  0
  160.6930  212.4370  151.8770 O   0  0  0  0  0  1  0  0  0  0  0  0
  162.0960  208.5340  149.2290 C   0  0  2  0  0  3  0  0  0  0  0  0
  161.6660  212.1420  148.3430 C   0  0  0  0  0  3  0  0  0  0  0  0
  161.3910  210.5020  150.5790 C   0  0  0  0  0  0  0  0  0  0  0  0
  161.2030  207.6850  150.1180 C   0  0  1  0  0  3  0  0  0  0  0  0
  162.0920  205.4650  147.5610 O   0  0  0  0  0  0  0  0  0  0  0  0
  161.5010  206.3170  149.6930 N   0  0  0  0  0  0  0  0  0  0  0  0
  160.8970  202.8280  150.7860 C   0  0  0  0  0  2  0  0  0  0  0  0
  162.8730  205.6420  152.3280 C   0  0  0  0  0  1  0  0  0  0  0  0
  161.9020  210.8070  148.2470 N   0  0  0  0  0  0  0  0  0  0  0  0
  161.7450  209.9810  149.3160 C   0  0  0  0  0  0  0  0  0  0  0  0
  161.3700  205.8720  152.5410 C   0  0  2  0  0  3  0  0  0  0  0  0
  159.6040  209.7000  154.1860 C   0  0  0  0  0  2  0  0  0  0  0  0
  159.5990  210.5100  156.2370 C   0  0  0  0  0  1  0  0  0  0  0  0
  159.4770  210.8900  154.9020 O   0  0  0  0  0  0  0  0  0  0  0  0
  1 19  1  6  0  0  0
  1  5  1  0  0  0  0
  2 16  1  0  0  0  0
  3 10  1  0  0  0  0
  3 17  1  0  0  0  0
  4  1  1  0  0  0  0
  4 12  1  0  0  0  0
  5 11  1  0  0  0  0
  7 15  1  0  0  0  0
  7 27  1  0  0  0  0
  8 11  1  0  0  0  0
  8  6  1  0  0  0  0
  9  7  1  0  0  0  0
 10 22  1  0  0  0  0
 11 28  1  0  0  0  0
 12  8  1  0  0  0  0
 13  2  2  0  0  0  0
 14  9  1  0  0  0  0
 14 23  1  0  0  0  0
 17 26  1  0  0  0  0
 17 20  1  0  0  0  0
 18 13  1  0  0  0  0
 19  2  1  0  0  0  0
 20  4  1  0  0  0  0
 21 10  2  0  0  0  0
 22 20  1  0  0  0  0
 22  9  1  0  0  0  0
 23 15  1  0  0  0  0
 24 27  1  0  0  0  0
 25 18  2  0  0  0  0
 25 26  1  0  0  0  0
 26 19  2  0  0  0  0
 27 12  1  0  0  0  0
 28 30  1  0  0  0  0
 30 29  1  0  0  0  0
M  END
>  <MODEL>
2

>  <REMARK>
 VINA RESULT:      -7.2      1.958      6.964
  Name = 
  2 active torsions:
  status: ('A' for Active; 'I' for Inactive)
    1  A    between atoms: C_11  and  C_28
    2  A    between atoms: C_28  and  O_30
                            x       y       z     vdW  Elec       q    Type
                         _______ _______ _______ _____ _____    ______ ____

>  <TORSDO>
F 2

$$$$
=
 OpenBabel11122412343D

 30 35  0  0  1  0  0  0  0  0999 V2000
  161.3730  204.4870  147.7520 C   0  0  1  0  0  3  0  0  0  0  0  0
  161.0260  202.2140  146.6380 C   0  0  0  0  0  0  0  0  0  0  0  0
  161.1340  202.5480  151.6290 C   0  0  0  0  0  2  0  0  0  0  0  0
  161.7290  205.1860  149.0890 C   0  0  1  0  0  3  0  0  0  0  0  0
  162.2510  204.9220  146.7410 O   0  0  0  0  0  0  0  0  0  0  0  0
  161.9210  208.6140  147.5140 C   0  0  0  0  0  1  0  0  0  0  0  0
  160.6540  207.4540  151.1180 C   0  0  1  0  0  3  0  0  0  0  0  0
  162.2220  207.1410  147.7880 C   0  0  2  0  0  3  0  0  0  0  0  0
  160.4980  206.2540  152.0520 C   0  0  2  0  0  3  0  0  0  0  0  0
  161.0890  203.8210  152.3880 C   0  0  0  0  0  0  0  0  0  0  0  0
  162.0000  206.2950  146.5100 C   0  0  2  0  0  3  0  0  0  0  0  0
  161.4440  206.6230  148.9330 N   0  0  2  0  0  0  0  0  0  0  0  0
  160.8300  200.8360  146.7270 C   0  0  0  0  0  3  0  0  0  0  0  0
  161.1120  206.6990  153.3650 C   0  0  0  0  0  2  0  0  0  0  0  0
  160.8060  208.6780  152.0100 C   0  0  0  0  0  2  0  0  0  0  0  0
  160.9830  202.8250  145.3900 O   0  0  0  0  0  1  0  0  0  0  0  0
  161.5160  203.0910  150.2740 C   0  0  2  0  0  3  0  0  0  0  0  0
  160.8460  200.2160  147.9780 C   0  0  0  0  0  3  0  0  0  0  0  0
  161.2540  202.9680  147.8030 C   0  0  0  0  0  0  0  0  0  0  0  0
  160.9310  204.4910  150.2020 C   0  0  1  0  0  3  0  0  0  0  0  0
  161.0040  203.8560  153.6440 O   0  0  0  0  0  0  0  0  0  0  0  0
  161.0850  204.9960  151.5660 N   0  0  0  0  0  0  0  0  0  0  0  0
  160.8330  208.1820  153.4430 C   0  0  0  0  0  2  0  0  0  0  0  0
  163.1850  207.0380  150.7320 C   0  0  0  0  0  1  0  0  0  0  0  0
  161.0390  200.9530  149.1030 N   0  0  0  0  0  0  0  0  0  0  0  0
  161.2100  202.3020  149.0470 C   0  0  0  0  0  0  0  0  0  0  0  0
  161.8180  207.3890  150.1310 C   0  0  2  0  0  3  0  0  0  0  0  0
  160.6350  206.5230  145.8490 C   0  0  0  0  0  2  0  0  0  0  0  0
  161.2330  205.8400  143.8400 C   0  0  0  0  0  1  0  0  0  0  0  0
  160.3920  205.5260  144.9050 O   0  0  0  0  0  0  0  0  0  0  0  0
  1  5  1  6  0  0  0
  1 19  1  0  0  0  0
  1  4  1  0  0  0  0
  2 13  2  0  0  0  0
  2 19  1  0  0  0  0
  3 10  1  0  0  0  0
  4 20  1  0  0  0  0
  6  8  1  0  0  0  0
  7 15  1  0  0  0  0
  7  9  1  0  0  0  0
  8 12  1  0  0  0  0
  9 14  1  0  0  0  0
 10 21  2  0  0  0  0
 11  5  1  0  0  0  0
 11  8  1  0  0  0  0
 12  4  1  0  0  0  0
 12 27  1  0  0  0  0
 13 18  1  0  0  0  0
 14 23  1  0  0  0  0
 15 23  1  0  0  0  0
 16  2  1  0  0  0  0
 17  3  1  0  0  0  0
 18 25  2  0  0  0  0
 19 26  2  0  0  0  0
 20 17  1  0  0  0  0
 20 22  1  0  0  0  0
 22  9  1  0  0  0  0
 22 10  1  0  0  0  0
 26 25  1  0  0  0  0
 26 17  1  0  0  0  0
 27 24  1  0  0  0  0
 27  7  1  0  0  0  0
 28 11  1  0  0  0  0
 29 30  1  0  0  0  0
 30 28  1  0  0  0  0
M  END
>  <MODEL>
3

>  <REMARK>
 VINA RESULT:      -6.1      2.256      3.449
  Name = 
  2 active torsions:
  status: ('A' for Active; 'I' for Inactive)
    1  A    between atoms: C_11  and  C_28
    2  A    between atoms: C_28  and  O_30
                            x       y       z     vdW  Elec       q    Type
                         _______ _______ _______ _____ _____    ______ ____

>  <TORSDO>
F 2

$$$$
=
 OpenBabel11122412343D

 30 35  0  0  1  0  0  0  0  0999 V2000
  161.5340  208.2240  149.4450 C   0  0  1  0  0  3  0  0  0  0  0  0
  161.4490  206.1420  147.9660 C   0  0  0  0  0  0  0  0  0  0  0  0
  161.0230  205.6870  152.9300 C   0  0  0  0  0  2  0  0  0  0  0  0
  161.7060  208.7180  150.9040 C   0  0  1  0  0  3  0  0  0  0  0  0
  162.4820  208.8540  148.6160 O   0  0  0  0  0  0  0  0  0  0  0  0
  161.8380  212.3580  149.9000 C   0  0  0  0  0  1  0  0  0  0  0  0
  160.2860  210.5830  153.1230 C   0  0  1  0  0  3  0  0  0  0  0  0
  162.2030  210.8760  149.9780 C   0  0  2  0  0  3  0  0  0  0  0  0
  160.1120  209.2450  153.8400 C   0  0  2  0  0  3  0  0  0  0  0  0
  160.8200  206.8200  153.8640 C   0  0  0  0  0  0  0  0  0  0  0  0
  162.1680  210.2330  148.5700 C   0  0  2  0  0  3  0  0  0  0  0  0
  161.3470  210.1470  150.9380 N   0  0  2  0  0  0  0  0  0  0  0  0
  161.3340  204.7590  147.8220 C   0  0  0  0  0  3  0  0  0  0  0  0
  160.5580  209.5050  155.2650 C   0  0  0  0  0  2  0  0  0  0  0  0
  160.2670  211.6560  154.2010 C   0  0  0  0  0  2  0  0  0  0  0  0
  161.4950  206.9400  146.8290 O   0  0  0  0  0  1  0  0  0  0  0  0
  161.5070  206.4550  151.7250 C   0  0  2  0  0  3  0  0  0  0  0  0
  161.2610  203.9510  148.9580 C   0  0  0  0  0  3  0  0  0  0  0  0
  161.5080  206.7120  149.2500 C   0  0  0  0  0  0  0  0  0  0  0  0
  160.8440  207.8190  151.8030 C   0  0  1  0  0  3  0  0  0  0  0  0
  160.6050  206.6510  155.0940 O   0  0  0  0  0  0  0  0  0  0  0  0
  160.8240  208.1080  153.2360 N   0  0  0  0  0  0  0  0  0  0  0  0
  160.1780  210.9420  155.5370 C   0  0  0  0  0  2  0  0  0  0  0  0
  162.8640  210.3540  152.9610 C   0  0  0  0  0  1  0  0  0  0  0  0
  161.2910  204.5090  150.1960 N   0  0  0  0  0  0  0  0  0  0  0  0
  161.3800  205.8560  150.3660 C   0  0  0  0  0  0  0  0  0  0  0  0
  161.5460  210.7310  152.2720 C   0  0  2  0  0  3  0  0  0  0  0  0
  160.8660  210.4990  147.8040 C   0  0  0  0  0  2  0  0  0  0  0  0
  159.8110  212.2250  146.9290 C   0  0  0  0  0  1  0  0  0  0  0  0
  161.0410  211.5710  146.9290 O   0  0  0  0  0  0  0  0  0  0  0  0
  1  5  1  6  0  0  0
  1  4  1  0  0  0  0
  2 19  1  0  0  0  0
  3 10  1  0  0  0  0
  4 12  1  0  0  0  0
  4 20  1  0  0  0  0
  6  8  1  0  0  0  0
  7  9  1  0  0  0  0
  7 15  1  0  0  0  0
  8 12  1  0  0  0  0
  9 14  1  0  0  0  0
 10 21  2  0  0  0  0
 11  5  1  0  0  0  0
 11  8  1  0  0  0  0
 12 27  1  0  0  0  0
 13  2  2  0  0  0  0
 13 18  1  0  0  0  0
 14 23  1  0  0  0  0
 15 23  1  0  0  0  0
 16  2  1  0  0  0  0
 17 20  1  0  0  0  0
 17  3  1  0  0  0  0
 18 25  2  0  0  0  0
 19  1  1  0  0  0  0
 19 26  2  0  0  0  0
 20 22  1  0  0  0  0
 22  9  1  0  0  0  0
 22 10  1  0  0  0  0
 25 26  1  0  0  0  0
 26 17  1  0  0  0  0
 27 24  1  0  0  0  0
 27  7  1  0  0  0  0
 28 11  1  0  0  0  0
 30 29  1  0  0  0  0
 30 28  1  0  0  0  0
M  END
>  <MODEL>
4

>  <REMARK>
 VINA RESULT:      -5.3      1.749      2.477
  Name = 
  2 active torsions:
  status: ('A' for Active; 'I' for Inactive)
    1  A    between atoms: C_11  and  C_28
    2  A    between atoms: C_28  and  O_30
                            x       y       z     vdW  Elec       q    Type
                         _______ _______ _______ _____ _____    ______ ____

>  <TORSDO>
F 2

$$$$
=
 OpenBabel11122412343D

 30 35  0  0  1  0  0  0  0  0999 V2000
  159.9590  212.2830  151.8460 C   0  0  1  0  0  3  0  0  0  0  0  0
  160.1110  213.3780  149.5420 C   0  0  0  0  0  0  0  0  0  0  0  0
  162.3580  208.9830  150.3620 C   0  0  0  0  0  2  0  0  0  0  0  0
  160.5670  211.1820  152.7530 C   0  0  1  0  0  3  0  0  0  0  0  0
  160.0040  213.5230  152.5100 O   0  0  0  0  0  0  0  0  0  0  0  0
  158.5760  212.2540  155.7790 C   0  0  0  0  0  1  0  0  0  0  0  0
  159.7210  208.6340  154.5430 C   0  0  1  0  0  3  0  0  0  0  0  0
  159.5470  212.3230  154.6020 C   0  0  2  0  0  3  0  0  0  0  0  0
  160.5240  207.8810  153.4830 C   0  0  2  0  0  3  0  0  0  0  0  0
  162.1480  208.1420  151.5650 C   0  0  0  0  0  0  0  0  0  0  0  0
  159.1330  213.4500  153.6230 C   0  0  2  0  0  3  0  0  0  0  0  0
  159.6780  211.0200  153.9160 N   0  0  2  0  0  0  0  0  0  0  0  0
  160.5680  213.3740  148.2240 C   0  0  0  0  0  3  0  0  0  0  0  0
  161.4270  206.9490  154.2660 C   0  0  0  0  0  2  0  0  0  0  0  0
  159.7460  207.7710  155.7970 C   0  0  0  0  0  2  0  0  0  0  0  0
  159.2500  214.3870  149.9580 O   0  0  0  0  0  1  0  0  0  0  0  0
  161.8100  210.2880  150.8840 C   0  0  2  0  0  3  0  0  0  0  0  0
  161.4120  212.3510  147.7900 C   0  0  0  0  0  3  0  0  0  0  0  0
  160.5160  212.3640  150.4290 C   0  0  0  0  0  0  0  0  0  0  0  0
  160.7400  209.9190  151.8970 C   0  0  1  0  0  3  0  0  0  0  0  0
  162.6460  206.9910  151.6800 O   0  0  0  0  0  0  0  0  0  0  0  0
  161.2800  208.7260  152.5460 N   0  0  0  0  0  0  0  0  0  0  0  0
  160.6320  206.5770  155.4950 C   0  0  0  0  0  2  0  0  0  0  0  0
  161.7030  210.1770  155.1910 C   0  0  0  0  0  1  0  0  0  0  0  0
  161.7780  211.3580  148.6430 N   0  0  0  0  0  0  0  0  0  0  0  0
  161.3300  211.3250  149.9270 C   0  0  0  0  0  0  0  0  0  0  0  0
  160.2070  210.0430  154.8780 C   0  0  2  0  0  3  0  0  0  0  0  0
  157.6620  213.3850  153.1960 C   0  0  0  0  0  2  0  0  0  0  0  0
  155.7460  213.9000  154.1560 C   0  0  0  0  0  1  0  0  0  0  0  0
  156.9580  214.4530  153.7510 O   0  0  0  0  0  0  0  0  0  0  0  0
  1 19  1  6  0  0  0
  1  5  1  0  0  0  0
  1  4  1  0  0  0  0
  2 16  1  0  0  0  0
  2 19  1  0  0  0  0
  3 17  1  0  0  0  0
  3 10  1  0  0  0  0
  4 12  1  0  0  0  0
  5 11  1  0  0  0  0
  7 27  1  0  0  0  0
  7 15  1  0  0  0  0
  8  6  1  0  0  0  0
  9 14  1  0  0  0  0
  9  7  1  0  0  0  0
 10 21  2  0  0  0  0
 10 22  1  0  0  0  0
 11  8  1  0  0  0  0
 12  8  1  0  0  0  0
 12 27  1  0  0  0  0
 13  2  2  0  0  0  0
 14 23  1  0  0  0  0
 17 20  1  0  0  0  0
 18 13  1  0  0  0  0
 18 25  2  0  0  0  0
 20 22  1  0  0  0  0
 20  4  1  0  0  0  0
 22  9  1  0  0  0  0
 23 15  1  0  0  0  0
 25 26  1  0  0  0  0
 26 19  2  0  0  0  0
 26 17  1  0  0  0  0
 27 24  1  0  0  0  0
 28 11  1  0  0  0  0
 28 30  1  0  0  0  0
 30 29  1  0  0  0  0
M  END
>  <MODEL>
5

>  <REMARK>
 VINA RESULT:      -5.1      3.152      7.085
  Name = 
  2 active torsions:
  status: ('A' for Active; 'I' for Inactive)
    1  A    between atoms: C_11  and  C_28
    2  A    between atoms: C_28  and  O_30
                            x       y       z     vdW  Elec       q    Type
                         _______ _______ _______ _____ _____    ______ ____

>  <TORSDO>
F 2

$$$$
