=
 OpenBabel11122412583D

 32 37  0  0  1  0  0  0  0  0999 V2000
  160.3180  206.0980  148.4470 C   0  0  0  0  0  2  0  0  0  0  0  0
  161.5420  209.2640  152.1090 C   0  0  0  0  0  0  0  0  0  0  0  0
  160.2130  206.9560  156.1770 C   0  0  0  0  0  3  0  0  0  0  0  0
  159.3800  208.0250  156.5160 C   0  0  0  0  0  3  0  0  0  0  0  0
  160.5930  211.5700  151.5620 C   0  0  0  0  0  0  0  0  0  0  0  0
  159.7010  212.6220  152.0330 C   0  0  0  0  0  0  0  0  0  0  0  0
  161.7070  207.8940  150.1620 N   0  0  2  0  0  0  0  0  0  0  0  0
  162.8100  206.8510  152.5340 S   0  0  0  0  0  0  0  0  0  0  0  0
  158.1980  213.6590  153.3920 C   0  0  0  0  0  0  0  0  0  0  0  0
  161.4710  205.4690  150.5640 C   0  0  0  0  0  2  0  0  0  0  0  0
  160.9610  207.0000  155.0000 C   0  0  0  0  0  3  0  0  0  0  0  0
  161.6450  208.1640  152.9660 C   0  0  0  0  0  0  0  0  0  0  0  0
  160.8850  208.1120  154.1470 C   0  0  0  0  0  0  0  0  0  0  0  0
  159.9600  210.3230  153.6530 C   0  0  0  0  0  0  0  0  0  0  0  0
  158.4240  214.4510  152.3900 N   0  0  0  0  0  0  0  0  0  0  0  0
  161.0210  207.3310  147.8600 C   0  0  0  0  0  2  0  0  0  0  0  0
  162.3490  206.7020  150.7510 C   0  0  1  0  0  3  0  0  0  0  0  0
  159.3740  213.8020  151.5210 C   0  0  0  0  0  3  0  0  0  0  0  0
  162.1020  207.9360  148.7620 C   0  0  0  0  0  2  0  0  0  0  0  0
  161.2930  205.1180  149.0900 C   0  0  1  0  0  3  0  0  0  0  0  0
  159.2970  209.1390  155.6780 C   0  0  0  0  0  3  0  0  0  0  0  0
  160.0440  209.1970  154.4920 C   0  0  0  0  0  0  0  0  0  0  0  0
  159.0840  211.4180  154.0170 N   0  0  0  0  0  0  0  0  0  0  0  0
  162.2020  209.1220  150.7770 C   0  0  0  0  0  2  0  0  0  0  0  0
  161.2190  211.6940  150.4750 O   0  0  0  0  0  0  0  0  0  0  0  0
  157.2720  213.9860  154.5090 C   0  0  0  0  0  1  0  0  0  0  0  0
  160.7160  210.3630  152.4400 C   0  0  0  0  0  0  0  0  0  0  0  0
  158.9820  212.4570  153.2490 C   0  0  0  0  0  0  0  0  0  0  0  0
  160.7630  203.7690  148.9730 N   0  0  0  0  0  2  0  0  0  0  0  0
  161.1420  202.8850  147.9150 C   0  0  0  0  0  0  0  0  0  0  0  0
  161.9460  203.2610  147.0200 O   0  0  0  0  0  0  0  0  0  0  0  0
  160.4580  201.2350  147.8510 S   0  0  0  0  0  1  0  0  0  0  0  0
  1 20  1  0  0  0  0
  2 27  2  0  0  0  0
  2 12  1  0  0  0  0
  3  4  1  0  0  0  0
  5  6  1  0  0  0  0
  5 27  1  0  0  0  0
  6 28  1  0  0  0  0
  7 19  1  6  0  0  0
  7 17  1  0  0  0  0
  7 24  1  0  0  0  0
  8 12  1  0  0  0  0
  9 26  1  0  0  0  0
 11  3  2  0  0  0  0
 12 13  2  0  0  0  0
 13 22  1  0  0  0  0
 13 11  1  0  0  0  0
 14 23  1  0  0  0  0
 14 22  2  0  0  0  0
 15  9  2  0  0  0  0
 16  1  1  0  0  0  0
 16 19  1  0  0  0  0
 17 10  1  1  0  0  0
 17  8  1  0  0  0  0
 18  6  2  0  0  0  0
 18 15  1  0  0  0  0
 20 29  1  1  0  0  0
 20 10  1  0  0  0  0
 21  4  2  0  0  0  0
 22 21  1  0  0  0  0
 24  2  1  0  0  0  0
 25  5  2  0  0  0  0
 27 14  1  0  0  0  0
 28  9  1  0  0  0  0
 28 23  2  0  0  0  0
 30 29  1  0  0  0  0
 31 30  2  0  0  0  0
 32 30  1  0  0  0  0
M  END
>  <MODEL>
1

>  <REMARK>
 VINA RESULT:      -6.8      0.000      0.000
  Name = 
  1 active torsions:
  status: ('A' for Active; 'I' for Inactive)
    1  A    between atoms: C_20  and  N_29
                            x       y       z     vdW  Elec       q    Type
                         _______ _______ _______ _____ _____    ______ ____

>  <TORSDO>
F 1

$$$$
=
 OpenBabel11122412583D

 32 37  0  0  1  0  0  0  0  0999 V2000
  157.9590  210.1220  155.2900 C   0  0  0  0  0  2  0  0  0  0  0  0
  161.7200  207.9550  152.8200 C   0  0  0  0  0  0  0  0  0  0  0  0
  162.1190  210.5550  148.7310 C   0  0  0  0  0  3  0  0  0  0  0  0
  161.9140  209.4000  147.9720 C   0  0  0  0  0  3  0  0  0  0  0  0
  161.3020  205.4390  152.7170 C   0  0  0  0  0  0  0  0  0  0  0  0
  161.1140  204.3090  151.8160 C   0  0  0  0  0  0  0  0  0  0  0  0
  160.4680  208.9850  154.5710 N   0  0  2  0  0  0  0  0  0  0  0  0
  162.3030  210.6240  153.2020 S   0  0  0  0  0  0  0  0  0  0  0  0
  160.8870  203.2060  149.8380 C   0  0  0  0  0  0  0  0  0  0  0  0
  159.8180  211.3310  154.1530 C   0  0  0  0  0  2  0  0  0  0  0  0
  162.1260  210.4830  150.1250 C   0  0  0  0  0  3  0  0  0  0  0  0
  161.9450  209.1770  152.1790 C   0  0  0  0  0  0  0  0  0  0  0  0
  161.9280  209.2560  150.7770 C   0  0  0  0  0  0  0  0  0  0  0  0
  161.5310  206.8450  150.6440 C   0  0  0  0  0  0  0  0  0  0  0  0
  160.7680  202.3280  150.7860 N   0  0  0  0  0  0  0  0  0  0  0  0
  158.5630  208.9940  156.1400 C   0  0  0  0  0  2  0  0  0  0  0  0
  160.9650  210.3710  154.4500 C   0  0  1  0  0  3  0  0  0  0  0  0
  160.9090  203.0170  152.0440 C   0  0  0  0  0  2  0  0  0  0  0  0
  160.0730  208.8000  155.9600 C   0  0  0  0  0  2  0  0  0  0  0  0
  158.8120  211.3850  155.3000 C   0  0  1  0  0  3  0  0  0  0  0  0
  161.7180  208.1720  148.6080 C   0  0  0  0  0  3  0  0  0  0  0  0
  161.7240  208.0840  150.0080 C   0  0  0  0  0  0  0  0  0  0  0  0
  161.3120  205.6590  149.8400 N   0  0  0  0  0  2  0  0  0  0  0  0
  161.5250  208.0170  154.3000 C   0  0  0  0  0  2  0  0  0  0  0  0
  161.2800  205.2780  153.9670 O   0  0  0  0  0  0  0  0  0  0  0  0
  160.8060  202.8730  148.3900 C   0  0  0  0  0  1  0  0  0  0  0  0
  161.5250  206.7720  152.0720 C   0  0  0  0  0  0  0  0  0  0  0  0
  161.1170  204.5100  150.4080 C   0  0  0  0  0  0  0  0  0  0  0  0
  157.9520  212.5460  155.1370 N   0  0  0  0  0  2  0  0  0  0  0  0
  157.0670  212.9950  156.1660 C   0  0  0  0  0  0  0  0  0  0  0  0
  156.9860  212.3750  157.2610 O   0  0  0  0  0  0  0  0  0  0  0  0
  156.0530  214.4410  155.8940 S   0  0  0  0  0  1  0  0  0  0  0  0
  1 20  1  0  0  0  0
  1 16  1  0  0  0  0
  2 24  1  0  0  0  0
  3 11  2  0  0  0  0
  4 21  2  0  0  0  0
  4  3  1  0  0  0  0
  5 25  2  0  0  0  0
  6 18  1  0  0  0  0
  6  5  1  0  0  0  0
  7 24  1  1  0  0  0
  7 19  1  0  0  0  0
  8 17  1  0  0  0  0
  9 28  1  0  0  0  0
  9 15  2  0  0  0  0
 10 20  1  0  0  0  0
 11 13  1  0  0  0  0
 12  2  1  0  0  0  0
 12  8  1  0  0  0  0
 13 12  2  0  0  0  0
 14 27  1  0  0  0  0
 15 18  1  0  0  0  0
 17 10  1  6  0  0  0
 17  7  1  0  0  0  0
 19 16  1  0  0  0  0
 20 29  1  6  0  0  0
 21 22  1  0  0  0  0
 22 14  2  0  0  0  0
 22 13  1  0  0  0  0
 23 28  1  0  0  0  0
 23 14  1  0  0  0  0
 26  9  1  0  0  0  0
 27  5  1  0  0  0  0
 27  2  2  0  0  0  0
 28  6  2  0  0  0  0
 29 30  1  0  0  0  0
 30 31  2  0  0  0  0
 32 30  1  0  0  0  0
M  END
>  <MODEL>
2

>  <REMARK>
 VINA RESULT:      -6.4      3.230      8.653
  Name = 
  1 active torsions:
  status: ('A' for Active; 'I' for Inactive)
    1  A    between atoms: C_20  and  N_29
                            x       y       z     vdW  Elec       q    Type
                         _______ _______ _______ _____ _____    ______ ____

>  <TORSDO>
F 1

$$$$
=
 OpenBabel11122412583D

 32 37  0  0  1  0  0  0  0  0999 V2000
  160.7380  208.6080  152.0540 C   0  0  0  0  0  2  0  0  0  0  0  0
  159.4540  213.2170  150.6240 C   0  0  0  0  0  0  0  0  0  0  0  0
  155.3690  214.1390  153.0960 C   0  0  0  0  0  3  0  0  0  0  0  0
  154.6890  214.3600  151.8960 C   0  0  0  0  0  3  0  0  0  0  0  0
  159.4750  213.3280  148.0740 C   0  0  0  0  0  0  0  0  0  0  0  0
  158.6580  213.5960  146.8970 C   0  0  0  0  0  0  0  0  0  0  0  0
  160.7510  211.3860  151.4370 N   0  0  2  0  0  0  0  0  0  0  0  0
  159.7280  213.1610  153.3690 S   0  0  0  0  0  0  0  0  0  0  0  0
  156.7890  214.0970  145.6970 C   0  0  0  0  0  0  0  0  0  0  0  0
  159.9820  210.4270  153.5790 C   0  0  0  0  0  2  0  0  0  0  0  0
  156.7240  213.8050  153.0780 C   0  0  0  0  0  3  0  0  0  0  0  0
  158.7800  213.3590  151.8420 C   0  0  0  0  0  0  0  0  0  0  0  0
  157.4140  213.6850  151.8620 C   0  0  0  0  0  0  0  0  0  0  0  0
  157.4030  213.8050  149.4180 C   0  0  0  0  0  0  0  0  0  0  0  0
  157.7540  213.9100  144.8500 N   0  0  0  0  0  0  0  0  0  0  0  0
  161.8050  209.1790  151.1090 C   0  0  0  0  0  2  0  0  0  0  0  0
  160.6320  211.6220  152.8900 C   0  0  1  0  0  3  0  0  0  0  0  0
  158.9430  213.5910  145.6000 C   0  0  0  0  0  3  0  0  0  0  0  0
  162.0130  210.6930  151.2250 C   0  0  0  0  0  2  0  0  0  0  0  0
  160.8430  209.1710  153.4660 C   0  0  1  0  0  3  0  0  0  0  0  0
  155.3640  214.2480  150.6790 C   0  0  0  0  0  3  0  0  0  0  0  0
  156.7260  213.9130  150.6460 C   0  0  0  0  0  0  0  0  0  0  0  0
  156.6780  214.0290  148.1830 N   0  0  0  0  0  0  0  0  0  0  0  0
  160.8310  212.6420  150.6990 C   0  0  0  0  0  2  0  0  0  0  0  0
  160.6910  213.0190  147.9580 O   0  0  0  0  0  0  0  0  0  0  0  0
  155.4010  214.4530  145.3010 C   0  0  0  0  0  1  0  0  0  0  0  0
  158.7880  213.4490  149.3990 C   0  0  0  0  0  0  0  0  0  0  0  0
  157.2810  213.9200  147.0420 C   0  0  0  0  0  0  0  0  0  0  0  0
  160.3740  208.1750  154.4160 N   0  0  0  0  0  2  0  0  0  0  0  0
  160.7120  208.2210  155.8040 C   0  0  0  0  0  0  0  0  0  0  0  0
  161.4600  209.1300  156.2540 O   0  0  0  0  0  0  0  0  0  0  0  0
  160.0820  206.9680  156.9110 S   0  0  0  0  0  1  0  0  0  0  0  0
  1 20  1  0  0  0  0
  2 24  1  0  0  0  0
  2 12  1  0  0  0  0
  4  3  1  0  0  0  0
  5 27  1  0  0  0  0
  6 28  1  0  0  0  0
  6  5  1  0  0  0  0
  7 24  1  6  0  0  0
  7 17  1  0  0  0  0
  9 28  1  0  0  0  0
 11  3  2  0  0  0  0
 12 13  2  0  0  0  0
 12  8  1  0  0  0  0
 13 11  1  0  0  0  0
 14 22  2  0  0  0  0
 15 18  1  0  0  0  0
 15  9  2  0  0  0  0
 16 19  1  0  0  0  0
 16  1  1  0  0  0  0
 17  8  1  0  0  0  0
 17 10  1  1  0  0  0
 18  6  2  0  0  0  0
 19  7  1  0  0  0  0
 20 10  1  0  0  0  0
 20 29  1  1  0  0  0
 21  4  2  0  0  0  0
 22 21  1  0  0  0  0
 22 13  1  0  0  0  0
 23 14  1  0  0  0  0
 25  5  2  0  0  0  0
 26  9  1  0  0  0  0
 27 14  1  0  0  0  0
 27  2  2  0  0  0  0
 28 23  2  0  0  0  0
 29 30  1  0  0  0  0
 30 31  2  0  0  0  0
 30 32  1  0  0  0  0
M  END
>  <MODEL>
3

>  <REMARK>
 VINA RESULT:      -4.8      3.939      6.865
  Name = 
  1 active torsions:
  status: ('A' for Active; 'I' for Inactive)
    1  A    between atoms: C_20  and  N_29
                            x       y       z     vdW  Elec       q    Type
                         _______ _______ _______ _____ _____    ______ ____

>  <TORSDO>
F 1

$$$$
=
 OpenBabel11122412583D

 32 37  0  0  1  0  0  0  0  0999 V2000
  158.1680  213.6270  148.1360 C   0  0  0  0  0  2  0  0  0  0  0  0
  161.5530  211.0990  150.8000 C   0  0  0  0  0  0  0  0  0  0  0  0
  162.3330  207.0560  148.2130 C   0  0  0  0  0  3  0  0  0  0  0  0
  161.9540  206.2780  149.3090 C   0  0  0  0  0  3  0  0  0  0  0  0
  160.7570  210.9510  153.2220 C   0  0  0  0  0  0  0  0  0  0  0  0
  160.3980  210.0300  154.2920 C   0  0  0  0  0  0  0  0  0  0  0  0
  160.4740  212.8740  149.6260 N   0  0  2  0  0  0  0  0  0  0  0  0
  162.5340  211.5270  148.2580 S   0  0  0  0  0  0  0  0  0  0  0  0
  160.0030  208.0320  155.3110 C   0  0  0  0  0  0  0  0  0  0  0  0
  160.1870  212.5030  147.2010 C   0  0  0  0  0  2  0  0  0  0  0  0
  162.3320  208.4490  148.3120 C   0  0  0  0  0  3  0  0  0  0  0  0
  161.9590  210.4790  149.6140 C   0  0  0  0  0  0  0  0  0  0  0  0
  161.9510  209.0790  149.5070 C   0  0  0  0  0  0  0  0  0  0  0  0
  161.1930  208.9030  151.8270 C   0  0  0  0  0  0  0  0  0  0  0  0
  159.7540  208.9650  156.1780 N   0  0  0  0  0  0  0  0  0  0  0  0
  158.5960  214.4520  149.3580 C   0  0  0  0  0  2  0  0  0  0  0  0
  161.1750  212.7770  148.3300 C   0  0  1  0  0  3  0  0  0  0  0  0
  160.0000  210.2350  155.5420 C   0  0  0  0  0  2  0  0  0  0  0  0
  160.0590  214.2610  149.7760 C   0  0  0  0  0  2  0  0  0  0  0  0
  159.2030  213.6560  147.0170 C   0  0  1  0  0  3  0  0  0  0  0  0
  161.5760  206.8910  150.5050 C   0  0  0  0  0  3  0  0  0  0  0  0
  161.5700  208.2890  150.6190 C   0  0  0  0  0  0  0  0  0  0  0  0
  160.7950  208.0780  152.9510 N   0  0  0  0  0  2  0  0  0  0  0  0
  161.3720  212.5810  150.7380 C   0  0  0  0  0  2  0  0  0  0  0  0
  160.7130  212.1980  153.4010 O   0  0  0  0  0  0  0  0  0  0  0  0
  159.8700  206.5800  155.5990 C   0  0  0  0  0  1  0  0  0  0  0  0
  161.1790  210.3290  151.9260 C   0  0  0  0  0  0  0  0  0  0  0  0
  160.4290  208.6260  154.0670 C   0  0  0  0  0  0  0  0  0  0  0  0
  158.5280  213.5180  145.7370 N   0  0  0  0  0  2  0  0  0  0  0  0
  159.1280  213.9280  144.5060 C   0  0  0  0  0  0  0  0  0  0  0  0
  160.2750  214.4530  144.4930 O   0  0  0  0  0  0  0  0  0  0  0  0
  158.2400  213.7100  142.9710 S   0  0  0  0  0  1  0  0  0  0  0  0
  1 16  1  0  0  0  0
  2 27  1  0  0  0  0
  3 11  2  0  0  0  0
  3  4  1  0  0  0  0
  4 21  2  0  0  0  0
  5 25  2  0  0  0  0
  5  6  1  0  0  0  0
  6 18  1  0  0  0  0
  7 19  1  1  0  0  0
  7 24  1  0  0  0  0
  8 17  1  0  0  0  0
  8 12  1  0  0  0  0
  9 26  1  0  0  0  0
  9 15  2  0  0  0  0
 11 13  1  0  0  0  0
 12  2  2  0  0  0  0
 13 12  1  0  0  0  0
 13 22  2  0  0  0  0
 14 27  2  0  0  0  0
 14 23  1  0  0  0  0
 16 19  1  0  0  0  0
 17 10  1  6  0  0  0
 17  7  1  0  0  0  0
 18 15  1  0  0  0  0
 20 29  1  6  0  0  0
 20 10  1  0  0  0  0
 20  1  1  0  0  0  0
 21 22  1  0  0  0  0
 22 14  1  0  0  0  0
 23 28  1  0  0  0  0
 24  2  1  0  0  0  0
 27  5  1  0  0  0  0
 28  6  2  0  0  0  0
 28  9  1  0  0  0  0
 30 29  1  0  0  0  0
 31 30  2  0  0  0  0
 32 30  1  0  0  0  0
M  END
>  <MODEL>
4

>  <REMARK>
 VINA RESULT:      -4.8      3.864      6.893
  Name = 
  1 active torsions:
  status: ('A' for Active; 'I' for Inactive)
    1  A    between atoms: C_20  and  N_29
                            x       y       z     vdW  Elec       q    Type
                         _______ _______ _______ _____ _____    ______ ____

>  <TORSDO>
F 1

$$$$
=
 OpenBabel11122412583D

 32 37  0  0  1  0  0  0  0  0999 V2000
  158.2890  208.7730  155.4250 C   0  0  0  0  0  2  0  0  0  0  0  0
  161.9280  207.4670  152.2650 C   0  0  0  0  0  0  0  0  0  0  0  0
  162.1110  211.1300  149.0730 C   0  0  0  0  0  3  0  0  0  0  0  0
  161.8720  210.2360  148.0270 C   0  0  0  0  0  3  0  0  0  0  0  0
  161.5130  205.0770  151.4680 C   0  0  0  0  0  0  0  0  0  0  0  0
  161.2840  204.2470  150.2920 C   0  0  0  0  0  0  0  0  0  0  0  0
  160.7610  207.9330  154.2940 N   0  0  2  0  0  0  0  0  0  0  0  0
  162.5200  209.9260  153.3640 S   0  0  0  0  0  0  0  0  0  0  0  0
  160.9610  203.7490  148.0940 C   0  0  0  0  0  0  0  0  0  0  0  0
  160.0830  210.2890  154.5940 C   0  0  0  0  0  2  0  0  0  0  0  0
  162.1890  210.6640  150.3860 C   0  0  0  0  0  3  0  0  0  0  0  0
  162.1160  208.8250  151.9890 C   0  0  0  0  0  0  0  0  0  0  0  0
  162.0280  209.2990  150.6700 C   0  0  0  0  0  0  0  0  0  0  0  0
  161.6330  207.0190  149.8730 C   0  0  0  0  0  0  0  0  0  0  0  0
  160.8930  202.6360  148.7570 N   0  0  0  0  0  0  0  0  0  0  0  0
  158.9390  207.4610  155.8880 C   0  0  0  0  0  2  0  0  0  0  0  0
  161.2470  209.3040  154.5500 C   0  0  1  0  0  3  0  0  0  0  0  0
  161.0950  202.9410  150.1510 C   0  0  0  0  0  2  0  0  0  0  0  0
  160.4380  207.3530  155.5890 C   0  0  0  0  0  2  0  0  0  0  0  0
  159.1370  209.9960  155.7550 C   0  0  1  0  0  3  0  0  0  0  0  0
  161.7130  208.8740  148.2940 C   0  0  0  0  0  3  0  0  0  0  0  0
  161.7890  208.3910  149.6090 C   0  0  0  0  0  0  0  0  0  0  0  0
  161.3770  206.1070  148.7760 N   0  0  0  0  0  2  0  0  0  0  0  0
  161.8070  207.1010  153.7080 C   0  0  0  0  0  2  0  0  0  0  0  0
  161.5550  204.5660  152.6200 O   0  0  0  0  0  0  0  0  0  0  0  0
  160.8090  203.8410  146.6180 C   0  0  0  0  0  1  0  0  0  0  0  0
  161.6990  206.5420  151.2200 C   0  0  0  0  0  0  0  0  0  0  0  0
  161.2150  204.8410  149.0020 C   0  0  0  0  0  0  0  0  0  0  0  0
  158.2650  211.1400  155.9700 N   0  0  0  0  0  2  0  0  0  0  0  0
  156.8510  211.0740  155.7720 C   0  0  0  0  0  0  0  0  0  0  0  0
  156.3060  210.0080  155.3770 O   0  0  0  0  0  0  0  0  0  0  0  0
  155.8450  212.5200  156.0740 S   0  0  0  0  0  1  0  0  0  0  0  0
  1 20  1  0  0  0  0
  1 16  1  0  0  0  0
  2 24  1  0  0  0  0
  3 11  2  0  0  0  0
  4 21  2  0  0  0  0
  4  3  1  0  0  0  0
  5 25  2  0  0  0  0
  6  5  1  0  0  0  0
  7 24  1  1  0  0  0
  7 17  1  0  0  0  0
  7 19  1  0  0  0  0
  8 17  1  0  0  0  0
  9 15  2  0  0  0  0
  9 28  1  0  0  0  0
 10 20  1  0  0  0  0
 11 13  1  0  0  0  0
 12  2  1  0  0  0  0
 12  8  1  0  0  0  0
 13 12  2  0  0  0  0
 14 27  1  0  0  0  0
 15 18  1  0  0  0  0
 17 10  1  6  0  0  0
 18  6  1  0  0  0  0
 19 16  1  0  0  0  0
 20 29  1  6  0  0  0
 21 22  1  0  0  0  0
 22 14  2  0  0  0  0
 22 13  1  0  0  0  0
 23 28  1  0  0  0  0
 23 14  1  0  0  0  0
 26  9  1  0  0  0  0
 27  5  1  0  0  0  0
 27  2  2  0  0  0  0
 28  6  2  0  0  0  0
 30 29  1  0  0  0  0
 30 32  1  0  0  0  0
 31 30  2  0  0  0  0
M  END
>  <MODEL>
5

>  <REMARK>
 VINA RESULT:      -4.4      3.211      8.347
  Name = 
  1 active torsions:
  status: ('A' for Active; 'I' for Inactive)
    1  A    between atoms: C_20  and  N_29
                            x       y       z     vdW  Elec       q    Type
                         _______ _______ _______ _____ _____    ______ ____

>  <TORSDO>
F 1

$$$$
=
 OpenBabel11122412583D

 32 37  0  0  1  0  0  0  0  0999 V2000
  158.6730  212.9000  146.1660 C   0  0  0  0  0  2  0  0  0  0  0  0
  160.8380  212.3290  150.6290 C   0  0  0  0  0  0  0  0  0  0  0  0
  162.3140  207.6950  150.6570 C   0  0  0  0  0  3  0  0  0  0  0  0
  161.5530  207.4560  151.8040 C   0  0  0  0  0  3  0  0  0  0  0  0
  159.2520  213.1920  152.4350 C   0  0  0  0  0  0  0  0  0  0  0  0
  158.5130  212.8180  153.6340 C   0  0  0  0  0  0  0  0  0  0  0  0
  160.2960  213.2180  148.4830 N   0  0  2  0  0  0  0  0  0  0  0  0
  162.6500  211.6830  148.6520 S   0  0  0  0  0  0  0  0  0  0  0  0
  157.7190  211.4670  155.2850 C   0  0  0  0  0  0  0  0  0  0  0  0
  160.8480  211.7530  146.5720 C   0  0  0  0  0  2  0  0  0  0  0  0
  162.3290  208.9670  150.0830 C   0  0  0  0  0  3  0  0  0  0  0  0
  161.6050  211.2980  150.0770 C   0  0  0  0  0  0  0  0  0  0  0  0
  161.5840  210.0150  150.6460 C   0  0  0  0  0  0  0  0  0  0  0  0
  160.0670  210.8120  152.3930 C   0  0  0  0  0  0  0  0  0  0  0  0
  157.2210  212.6490  155.4790 N   0  0  0  0  0  0  0  0  0  0  0  0
  158.6840  214.2390  146.9180 C   0  0  0  0  0  2  0  0  0  0  0  0
  161.3960  212.6370  147.6870 C   0  0  1  0  0  3  0  0  0  0  0  0
  157.7170  213.5130  154.4370 C   0  0  0  0  0  2  0  0  0  0  0  0
  159.9050  214.4530  147.8190 C   0  0  0  0  0  2  0  0  0  0  0  0
  160.0300  212.5550  145.5630 C   0  0  1  0  0  3  0  0  0  0  0  0
  160.8080  208.4890  152.3770 C   0  0  0  0  0  3  0  0  0  0  0  0
  160.8150  209.7730  151.8100 C   0  0  0  0  0  0  0  0  0  0  0  0
  159.2760  210.5420  153.5770 N   0  0  0  0  0  2  0  0  0  0  0  0
  160.7440  213.5820  149.8220 C   0  0  0  0  0  2  0  0  0  0  0  0
  159.1950  214.3660  151.9810 O   0  0  0  0  0  0  0  0  0  0  0  0
  157.4420  210.3000  156.1650 C   0  0  0  0  0  1  0  0  0  0  0  0
  160.0710  212.1120  151.7970 C   0  0  0  0  0  0  0  0  0  0  0  0
  158.5690  211.4830  154.1200 C   0  0  0  0  0  0  0  0  0  0  0  0
  159.8330  211.7630  144.3600 N   0  0  0  0  0  2  0  0  0  0  0  0
  160.4630  212.0860  143.1180 C   0  0  0  0  0  0  0  0  0  0  0  0
  161.2070  213.1000  143.0190 O   0  0  0  0  0  0  0  0  0  0  0  0
  160.1840  211.0530  141.6870 S   0  0  0  0  0  1  0  0  0  0  0  0
  1 16  1  0  0  0  0
  2 27  1  0  0  0  0
  3  4  1  0  0  0  0
  4 21  2  0  0  0  0
  5  6  1  0  0  0  0
  6 28  2  0  0  0  0
  6 18  1  0  0  0  0
  7 19  1  6  0  0  0
  7 24  1  0  0  0  0
  8 12  1  0  0  0  0
  9 15  2  0  0  0  0
  9 26  1  0  0  0  0
 11 13  1  0  0  0  0
 11  3  2  0  0  0  0
 12  2  2  0  0  0  0
 12 13  1  0  0  0  0
 13 22  2  0  0  0  0
 14 23  1  0  0  0  0
 16 19  1  0  0  0  0
 17 10  1  6  0  0  0
 17  7  1  0  0  0  0
 17  8  1  0  0  0  0
 18 15  1  0  0  0  0
 20 29  1  6  0  0  0
 20  1  1  0  0  0  0
 20 10  1  0  0  0  0
 22 21  1  0  0  0  0
 22 14  1  0  0  0  0
 23 28  1  0  0  0  0
 24  2  1  0  0  0  0
 25  5  2  0  0  0  0
 27 14  2  0  0  0  0
 27  5  1  0  0  0  0
 28  9  1  0  0  0  0
 30 29  1  0  0  0  0
 31 30  2  0  0  0  0
 32 30  1  0  0  0  0
M  END
>  <MODEL>
6

>  <REMARK>
 VINA RESULT:      -4.3      4.108      5.880
  Name = 
  1 active torsions:
  status: ('A' for Active; 'I' for Inactive)
    1  A    between atoms: C_20  and  N_29
                            x       y       z     vdW  Elec       q    Type
                         _______ _______ _______ _____ _____    ______ ____

>  <TORSDO>
F 1

$$$$
