=
 OpenBabel11122414073D

 28 32  0  0  1  0  0  0  0  0999 V2000
  162.1810  211.1580  138.6640 C   0  0  0  0  0  0  0  0  0  0  0  0
  163.0050  212.2060  141.8230 O   0  0  0  0  0  0  0  0  0  0  0  0
  155.9700  211.8250  139.9280 O   0  0  0  0  0  0  0  0  0  0  0  0
  163.2200  213.3920  137.3280 C   0  0  0  0  0  3  0  0  0  0  0  0
  157.3200  213.6530  140.5280 N   0  0  0  0  0  0  0  0  0  0  0  0
  161.6300  209.9380  139.3330 C   0  0  0  0  0  2  0  0  0  0  0  0
  162.7710  214.4530  142.7960 O   0  0  0  0  0  0  0  0  0  0  0  0
  162.0300  213.2410  142.3080 S   0  0  0  0  0  0  0  0  0  0  0  0
  159.6560  212.5410  143.4770 C   0  0  0  0  0  0  0  0  0  0  0  0
  160.9150  213.7170  141.0090 C   0  0  2  0  0  3  0  0  0  0  0  0
  158.3760  209.1620  137.8270 O   0  0  0  0  0  0  0  0  0  0  0  0
  159.3050  213.0340  139.3480 C   0  0  2  0  0  3  0  0  0  0  0  0
  159.0110  213.1710  142.5400 N   0  0  0  0  0  0  0  0  0  0  0  0
  161.0780  212.5940  143.5860 N   0  0  0  0  0  2  0  0  0  0  0  0
  159.1970  209.6580  138.6400 C   0  0  0  0  0  0  0  0  0  0  0  0
  161.7050  212.4460  138.9780 C   0  0  0  0  0  0  0  0  0  0  0  0
  157.0850  212.4110  139.8960 C   0  0  0  0  0  0  0  0  0  0  0  0
  158.8960  211.6940  144.4300 C   0  0  0  0  0  1  0  0  0  0  0  0
  158.6940  210.5450  139.7340 C   0  0  0  0  0  2  0  0  0  0  0  0
  162.2280  213.5570  138.2970 C   0  0  0  0  0  3  0  0  0  0  0  0
  163.1720  211.0000  137.6890 C   0  0  0  0  0  3  0  0  0  0  0  0
  163.6920  212.1140  137.0250 C   0  0  0  0  0  3  0  0  0  0  0  0
  160.5860  209.3430  138.5090 N   0  0  0  0  0  2  0  0  0  0  0  0
  158.6810  214.0950  140.2770 C   0  0  2  0  0  3  0  0  0  0  0  0
  158.2660  211.8980  139.1660 C   0  0  2  0  0  3  0  0  0  0  0  0
  159.5480  214.1190  141.5440 C   0  0  2  0  0  3  0  0  0  0  0  0
  156.3070  214.4530  141.1930 C   0  0  0  0  0  1  0  0  0  0  0  0
  160.6220  212.6210  140.0010 C   0  0  1  0  0  3  0  0  0  0  0  0
  1 16  1  0  0  0  0
  1  6  1  0  0  0  0
  2  8  2  0  0  0  0
  4 20  1  0  0  0  0
  5 27  1  0  0  0  0
  8  7  2  0  0  0  0
  8 14  1  0  0  0  0
  9 14  1  0  0  0  0
  9 18  1  0  0  0  0
 10 26  1  0  0  0  0
 10  8  1  1  0  0  0
 11 15  2  0  0  0  0
 12 28  1  0  0  0  0
 12 24  1  0  0  0  0
 13  9  2  0  0  0  0
 15 19  1  0  0  0  0
 16 28  1  0  0  0  0
 17  3  2  0  0  0  0
 17  5  1  0  0  0  0
 20 16  2  0  0  0  0
 21  1  2  0  0  0  0
 22  4  2  0  0  0  0
 22 21  1  0  0  0  0
 23 15  1  0  0  0  0
 23  6  1  0  0  0  0
 24  5  1  0  0  0  0
 24 26  1  0  0  0  0
 25 12  1  0  0  0  0
 25 19  1  0  0  0  0
 25 17  1  0  0  0  0
 26 13  1  0  0  0  0
 28 10  1  0  0  0  0
M  END
>  <MODEL>
1

>  <REMARK>
 VINA RESULT:      -1.8      0.000      0.000
  Name = 
  0 active torsions:
  status: ('A' for Active; 'I' for Inactive)
                            x       y       z     vdW  Elec       q    Type
                         _______ _______ _______ _____ _____    ______ ____

>  <TORSDO>
F 0

$$$$
=
 OpenBabel11122414073D

 28 32  0  0  1  0  0  0  0  0999 V2000
  159.4370  212.6540  142.8890 C   0  0  0  0  0  0  0  0  0  0  0  0
  158.5200  210.4050  140.4680 O   0  0  0  0  0  0  0  0  0  0  0  0
  164.6680  214.2400  139.6120 O   0  0  0  0  0  0  0  0  0  0  0  0
  157.3360  214.4530  142.4350 C   0  0  0  0  0  3  0  0  0  0  0  0
  162.6750  214.2030  138.3680 N   0  0  0  0  0  0  0  0  0  0  0  0
  160.5640  211.7140  143.1790 C   0  0  0  0  0  2  0  0  0  0  0  0
  157.7480  210.8580  138.1770 O   0  0  0  0  0  0  0  0  0  0  0  0
  158.9260  210.8970  139.1080 S   0  0  0  0  0  0  0  0  0  0  0  0
  161.4460  210.4850  138.1240 C   0  0  0  0  0  0  0  0  0  0  0  0
  159.5490  212.5600  139.1980 C   0  0  2  0  0  3  0  0  0  0  0  0
  163.6320  213.6800  143.6010 O   0  0  0  0  0  0  0  0  0  0  0  0
  161.1210  214.1000  140.1820 C   0  0  2  0  0  3  0  0  0  0  0  0
  161.6200  211.7710  138.0340 N   0  0  0  0  0  0  0  0  0  0  0  0
  160.1890  209.9130  138.4820 N   0  0  0  0  0  2  0  0  0  0  0  0
  162.7560  212.9950  143.0130 C   0  0  0  0  0  0  0  0  0  0  0  0
  159.2680  213.2290  141.6140 C   0  0  0  0  0  0  0  0  0  0  0  0
  163.4110  214.1570  139.5730 C   0  0  0  0  0  0  0  0  0  0  0  0
  162.6060  209.5840  137.9030 C   0  0  0  0  0  1  0  0  0  0  0  0
  162.8780  212.7640  141.5400 C   0  0  0  0  0  2  0  0  0  0  0  0
  158.2170  214.1340  141.4000 C   0  0  0  0  0  3  0  0  0  0  0  0
  158.5520  212.9830  143.9230 C   0  0  0  0  0  3  0  0  0  0  0  0
  157.5030  213.8770  143.6960 C   0  0  0  0  0  3  0  0  0  0  0  0
  161.6800  212.4380  143.7730 N   0  0  0  0  0  2  0  0  0  0  0  0
  161.2500  214.1310  138.6450 C   0  0  2  0  0  3  0  0  0  0  0  0
  162.5540  214.0460  140.7740 C   0  0  2  0  0  3  0  0  0  0  0  0
  160.6030  212.8350  138.1350 C   0  0  2  0  0  3  0  0  0  0  0  0
  163.2430  214.4500  137.0540 C   0  0  0  0  0  1  0  0  0  0  0  0
  160.2290  212.9040  140.5080 C   0  0  1  0  0  3  0  0  0  0  0  0
  1  6  1  0  0  0  0
  1 21  1  0  0  0  0
  4 22  1  0  0  0  0
  5 24  1  0  0  0  0
  5 17  1  0  0  0  0
  6 23  1  0  0  0  0
  7  8  2  0  0  0  0
  8  2  2  0  0  0  0
  9 14  1  0  0  0  0
 10  8  1  1  0  0  0
 10 28  1  0  0  0  0
 12 28  1  0  0  0  0
 12 25  1  0  0  0  0
 13  9  2  0  0  0  0
 13 26  1  0  0  0  0
 14  8  1  0  0  0  0
 15 11  2  0  0  0  0
 15 23  1  0  0  0  0
 16  1  2  0  0  0  0
 17  3  2  0  0  0  0
 17 25  1  0  0  0  0
 18  9  1  0  0  0  0
 19 15  1  0  0  0  0
 20 16  1  0  0  0  0
 20  4  2  0  0  0  0
 22 21  2  0  0  0  0
 24 12  1  0  0  0  0
 25 19  1  0  0  0  0
 26 24  1  0  0  0  0
 26 10  1  0  0  0  0
 27  5  1  0  0  0  0
 28 16  1  0  0  0  0
M  END
>  <MODEL>
2

>  <REMARK>
 VINA RESULT:      -1.7      2.167      6.099
  Name = 
  0 active torsions:
  status: ('A' for Active; 'I' for Inactive)
                            x       y       z     vdW  Elec       q    Type
                         _______ _______ _______ _____ _____    ______ ____

>  <TORSDO>
F 0

$$$$
=
 OpenBabel11122414073D

 28 32  0  0  1  0  0  0  0  0999 V2000
  157.8260  212.9630  154.1830 C   0  0  0  0  0  0  0  0  0  0  0  0
  159.7810  211.7150  156.7090 O   0  0  0  0  0  0  0  0  0  0  0  0
  162.0110  210.9880  149.8010 O   0  0  0  0  0  0  0  0  0  0  0  0
  155.7200  211.1420  154.5100 C   0  0  0  0  0  3  0  0  0  0  0  0
  161.4190  209.3890  151.4180 N   0  0  0  0  0  0  0  0  0  0  0  0
  158.9170  213.9670  153.9850 C   0  0  0  0  0  2  0  0  0  0  0  0
  160.2480  209.3640  157.2600 O   0  0  0  0  0  0  0  0  0  0  0  0
  160.4840  210.4650  156.2660 S   0  0  0  0  0  0  0  0  0  0  0  0
  162.8440  210.5580  154.8820 C   0  0  0  0  0  0  0  0  0  0  0  0
  159.9050  209.9470  154.6670 C   0  0  2  0  0  3  0  0  0  0  0  0
  159.5510  214.2910  150.3860 O   0  0  0  0  0  0  0  0  0  0  0  0
  159.5250  210.5090  152.3530 C   0  0  2  0  0  3  0  0  0  0  0  0
  162.2830  209.9350  153.8870 N   0  0  0  0  0  0  0  0  0  0  0  0
  162.1720  210.7610  156.1240 N   0  0  0  0  0  2  0  0  0  0  0  0
  159.6870  213.8640  151.5610 C   0  0  0  0  0  0  0  0  0  0  0  0
  158.0720  211.5800  154.0810 C   0  0  0  0  0  0  0  0  0  0  0  0
  161.2760  210.6310  150.7600 C   0  0  0  0  0  0  0  0  0  0  0  0
  164.2040  211.1250  154.7010 C   0  0  0  0  0  1  0  0  0  0  0  0
  160.6740  212.7720  151.8320 C   0  0  0  0  0  2  0  0  0  0  0  0
  157.0080  210.6770  154.2400 C   0  0  0  0  0  3  0  0  0  0  0  0
  156.5300  213.4210  154.4500 C   0  0  0  0  0  3  0  0  0  0  0  0
  155.4810  212.5130  154.6160 C   0  0  0  0  0  3  0  0  0  0  0  0
  158.9100  214.4490  152.6100 N   0  0  0  0  0  2  0  0  0  0  0  0
  160.4040  209.2450  152.4470 C   0  0  2  0  0  3  0  0  0  0  0  0
  160.1550  211.4420  151.2870 C   0  0  2  0  0  3  0  0  0  0  0  0
  160.9860  209.2330  153.8680 C   0  0  2  0  0  3  0  0  0  0  0  0
  162.3390  208.3380  151.0200 C   0  0  0  0  0  1  0  0  0  0  0  0
  159.4520  211.0810  153.7670 C   0  0  1  0  0  3  0  0  0  0  0  0
  1 21  1  0  0  0  0
  3 17  2  0  0  0  0
  4 22  1  0  0  0  0
  5 24  1  0  0  0  0
  6  1  1  0  0  0  0
  8  2  2  0  0  0  0
  8  7  2  0  0  0  0
  9 14  1  0  0  0  0
 10  8  1  1  0  0  0
 11 15  2  0  0  0  0
 12 24  1  0  0  0  0
 12 28  1  0  0  0  0
 13  9  2  0  0  0  0
 14  8  1  0  0  0  0
 15 19  1  0  0  0  0
 15 23  1  0  0  0  0
 16  1  2  0  0  0  0
 16 20  1  0  0  0  0
 17 25  1  0  0  0  0
 17  5  1  0  0  0  0
 18  9  1  0  0  0  0
 20  4  2  0  0  0  0
 21 22  2  0  0  0  0
 23  6  1  0  0  0  0
 24 26  1  0  0  0  0
 25 19  1  0  0  0  0
 25 12  1  0  0  0  0
 26 13  1  0  0  0  0
 26 10  1  0  0  0  0
 27  5  1  0  0  0  0
 28 16  1  0  0  0  0
 28 10  1  0  0  0  0
M  END
>  <MODEL>
3

>  <REMARK>
 VINA RESULT:      -0.7     11.402     14.380
  Name = 
  0 active torsions:
  status: ('A' for Active; 'I' for Inactive)
                            x       y       z     vdW  Elec       q    Type
                         _______ _______ _______ _____ _____    ______ ____

>  <TORSDO>
F 0

$$$$
=
 OpenBabel11122414073D

 28 32  0  0  1  0  0  0  0  0999 V2000
  159.0890  213.0030  152.0610 C   0  0  0  0  0  0  0  0  0  0  0  0
  159.6970  214.4530  155.1080 O   0  0  0  0  0  0  0  0  0  0  0  0
  161.5010  207.4590  154.0770 O   0  0  0  0  0  0  0  0  0  0  0  0
  156.2930  213.0580  152.2580 C   0  0  0  0  0  3  0  0  0  0  0  0
  159.9460  208.4650  155.5240 N   0  0  0  0  0  0  0  0  0  0  0  0
  160.5760  212.9700  151.9030 C   0  0  0  0  0  2  0  0  0  0  0  0
  158.5960  214.0020  157.2610 O   0  0  0  0  0  0  0  0  0  0  0  0
  159.5230  213.4520  156.2140 S   0  0  0  0  0  0  0  0  0  0  0  0
  161.5410  211.7550  156.9470 C   0  0  0  0  0  0  0  0  0  0  0  0
  158.8620  211.9260  155.5870 C   0  0  2  0  0  3  0  0  0  0  0  0
  161.5270  209.6900  150.5660 O   0  0  0  0  0  0  0  0  0  0  0  0
  159.0660  210.1030  154.0220 C   0  0  2  0  0  3  0  0  0  0  0  0
  160.7890  210.7360  156.6530 N   0  0  0  0  0  0  0  0  0  0  0  0
  161.0470  213.0930  156.9250 N   0  0  0  0  0  2  0  0  0  0  0  0
  161.2920  210.5750  151.4270 C   0  0  0  0  0  0  0  0  0  0  0  0
  158.4480  212.3570  153.1360 C   0  0  0  0  0  0  0  0  0  0  0  0
  160.6360  208.3490  154.2960 C   0  0  0  0  0  0  0  0  0  0  0  0
  162.9740  211.5250  157.2610 C   0  0  0  0  0  1  0  0  0  0  0  0
  161.3880  210.2250  152.8790 C   0  0  0  0  0  2  0  0  0  0  0  0
  157.0470  212.3840  153.2200 C   0  0  0  0  0  3  0  0  0  0  0  0
  158.3250  213.6730  151.0970 C   0  0  0  0  0  3  0  0  0  0  0  0
  156.9320  213.7030  151.1970 C   0  0  0  0  0  3  0  0  0  0  0  0
  160.9600  211.8980  150.9960 N   0  0  0  0  0  2  0  0  0  0  0  0
  158.9840  209.5520  155.4600 C   0  0  2  0  0  3  0  0  0  0  0  0
  160.2070  209.3480  153.2920 C   0  0  2  0  0  3  0  0  0  0  0  0
  159.3370  210.7230  156.3890 C   0  0  2  0  0  3  0  0  0  0  0  0
  160.0610  207.5350  156.6340 C   0  0  0  0  0  1  0  0  0  0  0  0
  159.2570  211.6120  154.1570 C   0  0  1  0  0  3  0  0  0  0  0  0
  1 16  1  0  0  0  0
  2  8  2  0  0  0  0
  3 17  2  0  0  0  0
  4 20  1  0  0  0  0
  5 27  1  0  0  0  0
  6  1  1  0  0  0  0
  8 14  1  0  0  0  0
  8  7  2  0  0  0  0
  9 18  1  0  0  0  0
 10  8  1  1  0  0  0
 10 26  1  0  0  0  0
 11 15  2  0  0  0  0
 12 28  1  0  0  0  0
 12 24  1  0  0  0  0
 13  9  2  0  0  0  0
 14  9  1  0  0  0  0
 15 19  1  0  0  0  0
 16 20  2  0  0  0  0
 16 28  1  0  0  0  0
 17  5  1  0  0  0  0
 19 25  1  0  0  0  0
 21 22  1  0  0  0  0
 21  1  2  0  0  0  0
 22  4  2  0  0  0  0
 23 15  1  0  0  0  0
 23  6  1  0  0  0  0
 24  5  1  0  0  0  0
 24 26  1  0  0  0  0
 25 12  1  0  0  0  0
 25 17  1  0  0  0  0
 26 13  1  0  0  0  0
 28 10  1  0  0  0  0
M  END
>  <MODEL>
4

>  <REMARK>
 VINA RESULT:      -0.3     11.586     14.633
  Name = 
  0 active torsions:
  status: ('A' for Active; 'I' for Inactive)
                            x       y       z     vdW  Elec       q    Type
                         _______ _______ _______ _____ _____    ______ ____

>  <TORSDO>
F 0

$$$$
=
 OpenBabel11122414073D

 28 32  0  0  1  0  0  0  0  0999 V2000
  158.9740  213.4440  151.9770 C   0  0  0  0  0  0  0  0  0  0  0  0
  159.7180  214.0180  155.2740 O   0  0  0  0  0  0  0  0  0  0  0  0
  161.9890  207.8320  152.1430 O   0  0  0  0  0  0  0  0  0  0  0  0
  156.2100  213.1550  152.3410 C   0  0  0  0  0  3  0  0  0  0  0  0
  160.4860  208.2190  153.9070 N   0  0  0  0  0  0  0  0  0  0  0  0
  160.4400  213.6100  151.7320 C   0  0  0  0  0  2  0  0  0  0  0  0
  158.8430  212.8610  157.2610 O   0  0  0  0  0  0  0  0  0  0  0  0
  159.7190  212.7310  156.0480 S   0  0  0  0  0  0  0  0  0  0  0  0
  161.9230  211.1100  156.1360 C   0  0  0  0  0  0  0  0  0  0  0  0
  159.1340  211.3880  155.0410 C   0  0  2  0  0  3  0  0  0  0  0  0
  161.5380  210.9630  149.4410 O   0  0  0  0  0  0  0  0  0  0  0  0
  159.3520  210.1180  153.0020 C   0  0  2  0  0  3  0  0  0  0  0  0
  161.2340  210.1460  155.6000 N   0  0  0  0  0  0  0  0  0  0  0  0
  161.3220  212.3410  156.5340 N   0  0  0  0  0  2  0  0  0  0  0  0
  161.3060  211.5370  150.5360 C   0  0  0  0  0  0  0  0  0  0  0  0
  158.4810  212.4560  152.8500 C   0  0  0  0  0  0  0  0  0  0  0  0
  161.0770  208.5290  152.6610 C   0  0  0  0  0  0  0  0  0  0  0  0
  163.3920  210.9480  156.2860 C   0  0  0  0  0  1  0  0  0  0  0  0
  161.5520  210.7980  151.8140 C   0  0  0  0  0  2  0  0  0  0  0  0
  157.0950  212.3150  153.0200 C   0  0  0  0  0  3  0  0  0  0  0  0
  158.0800  214.2800  151.2960 C   0  0  0  0  0  3  0  0  0  0  0  0
  156.7020  214.1380  151.4800 C   0  0  0  0  0  3  0  0  0  0  0  0
  160.8320  212.8870  150.5300 N   0  0  0  0  0  2  0  0  0  0  0  0
  159.4370  209.1740  154.2180 C   0  0  2  0  0  3  0  0  0  0  0  0
  160.4850  209.7240  152.0190 C   0  0  2  0  0  3  0  0  0  0  0  0
  159.7710  210.0600  155.4270 C   0  0  2  0  0  3  0  0  0  0  0  0
  160.7690  207.0270  154.6890 C   0  0  0  0  0  1  0  0  0  0  0  0
  159.4310  211.5370  153.5620 C   0  0  1  0  0  3  0  0  0  0  0  0
  1 16  1  0  0  0  0
  2  8  2  0  0  0  0
  3 17  2  0  0  0  0
  4 20  1  0  0  0  0
  5 24  1  0  0  0  0
  5 27  1  0  0  0  0
  6  1  1  0  0  0  0
  8 14  1  0  0  0  0
  8  7  2  0  0  0  0
  9 18  1  0  0  0  0
  9 14  1  0  0  0  0
 10 26  1  0  0  0  0
 10  8  1  1  0  0  0
 11 15  2  0  0  0  0
 12 28  1  0  0  0  0
 12 24  1  0  0  0  0
 13  9  2  0  0  0  0
 15 19  1  0  0  0  0
 16 20  2  0  0  0  0
 16 28  1  0  0  0  0
 17  5  1  0  0  0  0
 19 25  1  0  0  0  0
 21 22  1  0  0  0  0
 21  1  2  0  0  0  0
 22  4  2  0  0  0  0
 23 15  1  0  0  0  0
 23  6  1  0  0  0  0
 24 26  1  0  0  0  0
 25 17  1  0  0  0  0
 25 12  1  0  0  0  0
 26 13  1  0  0  0  0
 28 10  1  0  0  0  0
M  END
>  <MODEL>
5

>  <REMARK>
 VINA RESULT:      -0.0     10.960     14.060
  Name = 
  0 active torsions:
  status: ('A' for Active; 'I' for Inactive)
                            x       y       z     vdW  Elec       q    Type
                         _______ _______ _______ _____ _____    ______ ____

>  <TORSDO>
F 0

$$$$
