=
 OpenBabel11122412563D

 32 37  0  0  1  0  0  0  0  0999 V2000
  159.7180  201.7770  149.3340 C   0  0  0  0  0  2  0  0  0  0  0  0
  161.5370  206.2820  151.7540 C   0  0  2  0  0  3  0  0  0  0  0  0
  162.2250  209.7140  148.3520 C   0  0  0  0  0  3  0  0  0  0  0  0
  162.1470  210.8200  149.3640 C   0  0  0  0  0  2  0  0  0  0  0  0
  161.3250  206.9910  154.1740 C   0  0  0  0  0  0  0  0  0  0  0  0
  160.9350  208.0080  155.1410 C   0  0  0  0  0  0  0  0  0  0  0  0
  161.0990  203.9380  150.9780 C   0  0  2  0  0  3  0  0  0  0  0  0
  161.6420  205.6680  149.3760 C   0  0  0  0  0  2  0  0  0  0  0  0
  160.4870  209.9920  155.9550 N   0  0  0  0  0  0  0  0  0  0  0  0
  161.4960  203.4700  148.6750 C   0  0  0  0  0  2  0  0  0  0  0  0
  162.0550  208.4370  148.7060 C   0  0  0  0  0  3  0  0  0  0  0  0
  161.1790  206.7510  150.3480 C   0  0  2  0  0  3  0  0  0  0  0  0
  161.7600  208.0680  150.0670 N   0  0  0  0  0  0  0  0  0  0  0  0
  160.9010  208.6910  152.3330 C   0  0  2  0  0  3  0  0  0  0  0  0
  160.4940  209.2220  157.0810 O   0  0  0  0  0  0  0  0  0  0  0  0
  160.5390  201.6400  150.4590 O   0  0  0  0  0  0  0  0  0  0  0  0
  160.8900  204.4280  149.5950 N   0  0  1  0  0  0  0  0  0  0  0  0
  160.7320  207.8990  156.6090 C   0  0  0  0  0  2  0  0  0  0  0  0
  160.2070  202.7280  151.2740 C   0  0  0  0  0  2  0  0  0  0  0  0
  160.4760  202.4430  148.1820 C   0  0  1  0  0  3  0  0  0  0  0  0
  161.2330  210.4310  150.5200 C   0  0  0  0  0  2  0  0  0  0  0  0
  161.7330  209.1110  151.1090 C   0  0  2  0  0  3  0  0  0  0  0  0
  161.0700  209.7620  153.4390 C   0  0  0  0  0  2  0  0  0  0  0  0
  160.7320  205.0120  152.0100 C   0  0  0  0  0  2  0  0  0  0  0  0
  161.7030  205.8550  154.5700 O   0  0  0  0  0  0  0  0  0  0  0  0
  159.7480  211.2420  155.9030 C   0  0  0  0  0  1  0  0  0  0  0  0
  161.2780  207.3210  152.7670 N   0  0  0  0  0  0  0  0  0  0  0  0
  160.7440  209.2330  154.7990 C   0  0  0  0  0  0  0  0  0  0  0  0
  161.1620  201.4350  147.3880 N   0  0  0  0  0  2  0  0  0  0  0  0
  160.6940  201.0100  146.1060 C   0  0  0  0  0  0  0  0  0  0  0  0
  159.6620  201.5220  145.5980 O   0  0  0  0  0  1  0  0  0  0  0  0
  161.3870  200.0260  145.4140 O   0  0  0  0  0  0  0  0  0  0  0  0
  1 16  1  0  0  0  0
  2 24  1  1  0  0  0
  2 27  1  0  0  0  0
  3 11  2  0  0  0  0
  3  4  1  0  0  0  0
  4 21  1  0  0  0  0
  5 25  2  0  0  0  0
  5  6  1  0  0  0  0
  6 18  1  0  0  0  0
  7 19  1  1  0  0  0
  7 24  1  0  0  0  0
  8 17  1  0  0  0  0
  9 15  1  0  0  0  0
 11 13  1  0  0  0  0
 12  8  1  6  0  0  0
 12  2  1  0  0  0  0
 13 12  1  0  0  0  0
 13 22  1  0  0  0  0
 14 27  1  0  0  0  0
 14 23  1  1  0  0  0
 16 19  1  0  0  0  0
 17 10  1  6  0  0  0
 17  7  1  0  0  0  0
 18 15  1  0  0  0  0
 20 29  1  1  0  0  0
 20 10  1  0  0  0  0
 20  1  1  0  0  0  0
 22 21  1  6  0  0  0
 22 14  1  0  0  0  0
 23 28  1  0  0  0  0
 26  9  1  0  0  0  0
 27  5  1  0  0  0  0
 28  6  2  0  0  0  0
 28  9  1  0  0  0  0
 30 29  1  0  0  0  0
 31 30  1  0  0  0  0
 32 30  2  0  0  0  0
M  END
>  <MODEL>
1

>  <REMARK>
 VINA RESULT:      -7.2      0.000      0.000
  Name = 
  1 active torsions:
  status: ('A' for Active; 'I' for Inactive)
    1  A    between atoms: C_20  and  N_29
                            x       y       z     vdW  Elec       q    Type
                         _______ _______ _______ _____ _____    ______ ____

>  <TORSDO>
F 1

$$$$
=
 OpenBabel11122412563D

 32 37  0  0  1  0  0  0  0  0999 V2000
  160.3930  210.9210  152.9810 C   0  0  0  0  0  2  0  0  0  0  0  0
  161.8070  206.6260  149.9770 C   0  0  2  0  0  3  0  0  0  0  0  0
  160.9660  202.5690  152.5590 C   0  0  0  0  0  3  0  0  0  0  0  0
  160.9150  201.7190  151.3220 C   0  0  0  0  0  2  0  0  0  0  0  0
  162.0440  206.4430  147.4640 C   0  0  0  0  0  0  0  0  0  0  0  0
  161.7030  205.7460  146.2310 C   0  0  0  0  0  0  0  0  0  0  0  0
  161.6700  208.8230  151.1760 C   0  0  2  0  0  3  0  0  0  0  0  0
  161.4600  206.7510  152.4080 C   0  0  0  0  0  2  0  0  0  0  0  0
  161.0780  204.1150  144.9100 N   0  0  0  0  0  0  0  0  0  0  0  0
  161.5890  208.7530  153.5570 C   0  0  0  0  0  2  0  0  0  0  0  0
  161.1430  203.8910  152.4840 C   0  0  0  0  0  3  0  0  0  0  0  0
  161.0370  206.0100  151.1410 C   0  0  2  0  0  3  0  0  0  0  0  0
  161.2610  204.5630  151.2150 N   0  0  0  0  0  0  0  0  0  0  0  0
  160.8630  204.5920  148.7450 C   0  0  2  0  0  3  0  0  0  0  0  0
  161.5060  205.0510  144.0150 O   0  0  0  0  0  0  0  0  0  0  0  0
  161.4700  211.0550  152.0960 O   0  0  0  0  0  0  0  0  0  0  0  0
  161.0440  208.1560  152.3420 N   0  0  1  0  0  0  0  0  0  0  0  0
  161.8830  206.1670  144.8180 C   0  0  0  0  0  2  0  0  0  0  0  0
  161.1330  210.2480  151.0030 C   0  0  0  0  0  2  0  0  0  0  0  0
  160.7060  209.8900  154.0700 C   0  0  1  0  0  3  0  0  0  0  0  0
  160.4000  202.5240  150.1350 C   0  0  0  0  0  2  0  0  0  0  0  0
  161.2780  203.7660  149.9740 C   0  0  2  0  0  3  0  0  0  0  0  0
  161.0750  203.7330  147.4750 C   0  0  0  0  0  2  0  0  0  0  0  0
  161.3550  208.0790  149.8730 C   0  0  0  0  0  2  0  0  0  0  0  0
  162.7230  207.5040  147.4220 O   0  0  0  0  0  0  0  0  0  0  0  0
  160.1150  203.0950  144.5280 C   0  0  0  0  0  1  0  0  0  0  0  0
  161.5970  205.8840  148.7210 N   0  0  0  0  0  0  0  0  0  0  0  0
  161.1960  204.5640  146.2370 C   0  0  0  0  0  0  0  0  0  0  0  0
  161.3680  210.5380  155.1920 N   0  0  0  0  0  2  0  0  0  0  0  0
  160.6510  211.2090  156.2310 C   0  0  0  0  0  0  0  0  0  0  0  0
  159.3920  211.2420  156.2230 O   0  0  0  0  0  0  0  0  0  0  0  0
  161.3500  211.8250  157.2600 O   0  0  0  0  0  1  0  0  0  0  0  0
  1 20  1  0  0  0  0
  2 24  1  6  0  0  0
  2 12  1  0  0  0  0
  4  3  1  0  0  0  0
  5 27  1  0  0  0  0
  6 28  2  0  0  0  0
  6  5  1  0  0  0  0
  7 24  1  6  0  0  0
  7 17  1  0  0  0  0
  9 28  1  0  0  0  0
 10 20  1  0  0  0  0
 11  3  2  0  0  0  0
 12 13  1  0  0  0  0
 12  8  1  1  0  0  0
 13 11  1  0  0  0  0
 14 23  1  6  0  0  0
 14 22  1  0  0  0  0
 15 18  1  0  0  0  0
 15  9  1  0  0  0  0
 16  1  1  0  0  0  0
 17  8  1  1  0  0  0
 17 10  1  0  0  0  0
 18  6  1  0  0  0  0
 19  7  1  0  0  0  0
 19 16  1  0  0  0  0
 20 29  1  1  0  0  0
 21  4  1  0  0  0  0
 22 21  1  1  0  0  0
 22 13  1  0  0  0  0
 25  5  2  0  0  0  0
 26  9  1  0  0  0  0
 27 14  1  0  0  0  0
 27  2  1  0  0  0  0
 28 23  1  0  0  0  0
 29 30  1  0  0  0  0
 30 32  1  0  0  0  0
 31 30  2  0  0  0  0
M  END
>  <MODEL>
2

>  <REMARK>
 VINA RESULT:      -7.0      2.567      9.167
  Name = 
  1 active torsions:
  status: ('A' for Active; 'I' for Inactive)
    1  A    between atoms: C_20  and  N_29
                            x       y       z     vdW  Elec       q    Type
                         _______ _______ _______ _____ _____    ______ ____

>  <TORSDO>
F 1

$$$$
=
 OpenBabel11122412563D

 32 37  0  0  1  0  0  0  0  0999 V2000
  160.8310  204.2850  149.0060 C   0  0  0  0  0  2  0  0  0  0  0  0
  161.4280  208.8900  151.8180 C   0  0  2  0  0  3  0  0  0  0  0  0
  161.5820  212.6270  148.6800 C   0  0  0  0  0  3  0  0  0  0  0  0
  161.1890  213.6140  149.7410 C   0  0  0  0  0  2  0  0  0  0  0  0
  160.8900  209.3600  154.2460 C   0  0  0  0  0  0  0  0  0  0  0  0
  160.2160  210.1950  155.2300 C   0  0  0  0  0  0  0  0  0  0  0  0
  161.5770  206.5700  150.8790 C   0  0  2  0  0  3  0  0  0  0  0  0
  161.8380  208.4870  149.4270 C   0  0  0  0  0  2  0  0  0  0  0  0
  159.2820  211.9710  156.1090 N   0  0  0  0  0  0  0  0  0  0  0  0
  162.2320  206.3660  148.5970 C   0  0  0  0  0  2  0  0  0  0  0  0
  161.6750  211.3220  148.9480 C   0  0  0  0  0  3  0  0  0  0  0  0
  161.0770  209.3710  150.4140 C   0  0  2  0  0  3  0  0  0  0  0  0
  161.3710  210.7990  150.2560 N   0  0  0  0  0  0  0  0  0  0  0  0
  160.2340  211.0570  152.4700 C   0  0  2  0  0  3  0  0  0  0  0  0
  159.3780  211.1420  157.1880 O   0  0  0  0  0  0  0  0  0  0  0  0
  161.5790  204.2480  150.1890 O   0  0  0  0  0  0  0  0  0  0  0  0
  161.3650  207.1020  149.5120 N   0  0  1  0  0  0  0  0  0  0  0  0
  159.9370  209.9390  156.6660 C   0  0  0  0  0  2  0  0  0  0  0  0
  160.9560  205.1770  151.0300 C   0  0  0  0  0  2  0  0  0  0  0  0
  161.5040  205.1820  147.9620 C   0  0  1  0  0  3  0  0  0  0  0  0
  160.3030  212.9530  150.7910 C   0  0  0  0  0  2  0  0  0  0  0  0
  161.0380  211.7340  151.3480 C   0  0  2  0  0  3  0  0  0  0  0  0
  160.0810  212.0550  153.6440 C   0  0  0  0  0  2  0  0  0  0  0  0
  160.9070  207.4610  151.9330 C   0  0  0  0  0  2  0  0  0  0  0  0
  161.4800  208.3070  154.6090 O   0  0  0  0  0  0  0  0  0  0  0  0
  158.2910  213.0320  156.0620 C   0  0  0  0  0  1  0  0  0  0  0  0
  160.8730  209.7720  152.8600 N   0  0  0  0  0  0  0  0  0  0  0  0
  159.7840  211.3710  154.9400 C   0  0  0  0  0  0  0  0  0  0  0  0
  162.4520  204.4060  147.1760 N   0  0  0  0  0  2  0  0  0  0  0  0
  162.8130  204.7530  145.8380 C   0  0  0  0  0  0  0  0  0  0  0  0
  162.3310  205.7790  145.2890 O   0  0  0  0  0  1  0  0  0  0  0  0
  163.7070  203.9530  145.1390 O   0  0  0  0  0  0  0  0  0  0  0  0
  1 16  1  0  0  0  0
  2 24  1  1  0  0  0
  2 27  1  0  0  0  0
  3 11  2  0  0  0  0
  3  4  1  0  0  0  0
  4 21  1  0  0  0  0
  5 25  2  0  0  0  0
  5  6  1  0  0  0  0
  6 18  1  0  0  0  0
  7 19  1  6  0  0  0
  7 24  1  0  0  0  0
  8 17  1  0  0  0  0
  9 15  1  0  0  0  0
 11 13  1  0  0  0  0
 12  8  1  6  0  0  0
 12  2  1  0  0  0  0
 13 12  1  0  0  0  0
 13 22  1  0  0  0  0
 14 27  1  0  0  0  0
 14 23  1  1  0  0  0
 16 19  1  0  0  0  0
 17 10  1  6  0  0  0
 17  7  1  0  0  0  0
 18 15  1  0  0  0  0
 20 29  1  1  0  0  0
 20 10  1  0  0  0  0
 20  1  1  0  0  0  0
 22 21  1  6  0  0  0
 22 14  1  0  0  0  0
 23 28  1  0  0  0  0
 26  9  1  0  0  0  0
 27  5  1  0  0  0  0
 28  6  2  0  0  0  0
 28  9  1  0  0  0  0
 30 29  1  0  0  0  0
 31 30  1  0  0  0  0
 32 30  2  0  0  0  0
M  END
>  <MODEL>
3

>  <REMARK>
 VINA RESULT:      -6.3      2.226      2.893
  Name = 
  1 active torsions:
  status: ('A' for Active; 'I' for Inactive)
    1  A    between atoms: C_20  and  N_29
                            x       y       z     vdW  Elec       q    Type
                         _______ _______ _______ _____ _____    ______ ____

>  <TORSDO>
F 1

$$$$
=
 OpenBabel11122412563D

 32 37  0  0  1  0  0  0  0  0999 V2000
  162.4620  214.1200  147.2650 C   0  0  0  0  0  2  0  0  0  0  0  0
  160.7380  210.6210  151.0400 C   0  0  2  0  0  3  0  0  0  0  0  0
  161.6930  206.0830  149.5150 C   0  0  0  0  0  3  0  0  0  0  0  0
  161.6330  205.5350  150.9120 C   0  0  0  0  0  2  0  0  0  0  0  0
  160.3070  211.0130  153.5020 C   0  0  0  0  0  0  0  0  0  0  0  0
  160.5390  210.6130  154.8840 C   0  0  0  0  0  0  0  0  0  0  0  0
  161.0100  212.4890  149.3900 C   0  0  2  0  0  3  0  0  0  0  0  0
  161.2720  210.1910  148.6790 C   0  0  0  0  0  2  0  0  0  0  0  0
  161.0300  209.3220  156.5850 N   0  0  0  0  0  0  0  0  0  0  0  0
  161.2700  211.8810  147.1010 C   0  0  0  0  0  2  0  0  0  0  0  0
  161.5370  207.3870  149.2750 C   0  0  0  0  0  3  0  0  0  0  0  0
  161.5820  209.7560  150.1090 C   0  0  2  0  0  3  0  0  0  0  0  0
  161.3360  208.3300  150.3460 N   0  0  0  0  0  0  0  0  0  0  0  0
  161.5450  208.9170  152.7690 C   0  0  2  0  0  3  0  0  0  0  0  0
  160.5530  210.4380  157.2080 O   0  0  0  0  0  0  0  0  0  0  0  0
  161.3230  214.4530  148.0080 O   0  0  0  0  0  0  0  0  0  0  0  0
  161.7100  211.5730  148.4580 N   0  0  1  0  0  0  0  0  0  0  0  0
  160.2610  211.3430  156.1470 C   0  0  0  0  0  2  0  0  0  0  0  0
  161.5600  213.9150  149.2780 C   0  0  0  0  0  2  0  0  0  0  0  0
  162.2130  212.8700  146.4150 C   0  0  1  0  0  3  0  0  0  0  0  0
  162.0720  206.5870  151.9240 C   0  0  0  0  0  2  0  0  0  0  0  0
  161.2090  207.8350  151.7300 C   0  0  2  0  0  3  0  0  0  0  0  0
  161.2200  208.3690  154.1810 C   0  0  0  0  0  2  0  0  0  0  0  0
  161.2100  212.0580  150.8480 C   0  0  0  0  0  2  0  0  0  0  0  0
  159.6480  212.0580  153.2500 O   0  0  0  0  0  0  0  0  0  0  0  0
  161.9400  208.4140  157.2610 C   0  0  0  0  0  1  0  0  0  0  0  0
  160.8370  210.1830  152.4440 N   0  0  0  0  0  0  0  0  0  0  0  0
  161.0220  209.4590  155.1850 C   0  0  0  0  0  0  0  0  0  0  0  0
  161.6500  213.2480  145.1270 N   0  0  0  0  0  2  0  0  0  0  0  0
  162.4560  213.4710  143.9680 C   0  0  0  0  0  0  0  0  0  0  0  0
  163.7050  213.3220  144.0160 O   0  0  0  0  0  1  0  0  0  0  0  0
  161.8530  213.8530  142.7760 O   0  0  0  0  0  0  0  0  0  0  0  0
  1 16  1  0  0  0  0
  2 24  1  1  0  0  0
  2 27  1  0  0  0  0
  3  4  1  0  0  0  0
  4 21  1  0  0  0  0
  5  6  1  0  0  0  0
  6 28  2  0  0  0  0
  6 18  1  0  0  0  0
  7 19  1  1  0  0  0
  7 24  1  0  0  0  0
  9 15  1  0  0  0  0
  9 26  1  0  0  0  0
 11  3  2  0  0  0  0
 11 13  1  0  0  0  0
 12  8  1  6  0  0  0
 12 13  1  0  0  0  0
 12  2  1  0  0  0  0
 13 22  1  0  0  0  0
 14 23  1  1  0  0  0
 16 19  1  0  0  0  0
 17 10  1  6  0  0  0
 17  8  1  0  0  0  0
 17  7  1  0  0  0  0
 18 15  1  0  0  0  0
 20 29  1  6  0  0  0
 20 10  1  0  0  0  0
 20  1  1  0  0  0  0
 22 21  1  6  0  0  0
 22 14  1  0  0  0  0
 23 28  1  0  0  0  0
 25  5  2  0  0  0  0
 27 14  1  0  0  0  0
 27  5  1  0  0  0  0
 28  9  1  0  0  0  0
 30 31  1  0  0  0  0
 30 29  1  0  0  0  0
 32 30  2  0  0  0  0
M  END
>  <MODEL>
4

>  <REMARK>
 VINA RESULT:      -4.7      4.627      7.345
  Name = 
  1 active torsions:
  status: ('A' for Active; 'I' for Inactive)
    1  A    between atoms: C_20  and  N_29
                            x       y       z     vdW  Elec       q    Type
                         _______ _______ _______ _____ _____    ______ ____

>  <TORSDO>
F 1

$$$$
=
 OpenBabel11122412563D

 32 37  0  0  1  0  0  0  0  0999 V2000
  161.6240  209.4350  156.4180 C   0  0  0  0  0  2  0  0  0  0  0  0
  160.9980  208.3310  151.1400 C   0  0  2  0  0  3  0  0  0  0  0  0
  162.3210  212.2550  148.5560 C   0  0  0  0  0  3  0  0  0  0  0  0
  162.5520  211.4380  147.3170 C   0  0  0  0  0  2  0  0  0  0  0  0
  160.9000  206.0840  149.9790 C   0  0  0  0  0  0  0  0  0  0  0  0
  161.3940  205.2070  148.9270 C   0  0  0  0  0  0  0  0  0  0  0  0
  160.7540  208.5940  153.6210 C   0  0  2  0  0  3  0  0  0  0  0  0
  161.2170  210.5220  152.2340 C   0  0  0  0  0  2  0  0  0  0  0  0
  162.3130  204.6000  147.0330 N   0  0  0  0  0  0  0  0  0  0  0  0
  160.7400  210.8180  154.4770 C   0  0  0  0  0  2  0  0  0  0  0  0
  161.9530  211.6830  149.7050 C   0  0  0  0  0  3  0  0  0  0  0  0
  161.8000  209.6280  151.1410 C   0  0  2  0  0  3  0  0  0  0  0  0
  161.7910  210.2550  149.8160 N   0  0  0  0  0  0  0  0  0  0  0  0
  162.2870  207.9560  148.9620 C   0  0  2  0  0  3  0  0  0  0  0  0
  161.7880  203.4230  147.4790 O   0  0  0  0  0  0  0  0  0  0  0  0
  160.5790  208.5860  156.0370 O   0  0  0  0  0  0  0  0  0  0  0  0
  161.4210  209.9160  153.5540 N   0  0  1  0  0  0  0  0  0  0  0  0
  161.2160  203.7440  148.7440 C   0  0  0  0  0  2  0  0  0  0  0  0
  161.0790  207.8800  154.9370 C   0  0  0  0  0  2  0  0  0  0  0  0
  161.4220  210.8410  155.8450 C   0  0  1  0  0  3  0  0  0  0  0  0
  162.9930  210.0240  147.6780 C   0  0  0  0  0  2  0  0  0  0  0  0
  161.9470  209.4150  148.6140 C   0  0  2  0  0  3  0  0  0  0  0  0
  162.2610  207.1160  147.6620 C   0  0  0  0  0  2  0  0  0  0  0  0
  161.2330  207.6710  152.4940 C   0  0  0  0  0  2  0  0  0  0  0  0
  160.0730  205.6510  150.8260 O   0  0  0  0  0  0  0  0  0  0  0  0
  163.4320  204.6220  146.1070 C   0  0  0  0  0  1  0  0  0  0  0  0
  161.3700  207.4510  150.0170 N   0  0  0  0  0  0  0  0  0  0  0  0
  162.0710  205.6560  147.9300 C   0  0  0  0  0  0  0  0  0  0  0  0
  160.6220  211.6410  156.7610 N   0  0  0  0  0  2  0  0  0  0  0  0
  159.8180  212.7400  156.3280 C   0  0  0  0  0  0  0  0  0  0  0  0
  159.7540  213.0460  155.1080 O   0  0  0  0  0  0  0  0  0  0  0  0
  159.0990  213.4750  157.2610 O   0  0  0  0  0  1  0  0  0  0  0  0
  2 12  1  0  0  0  0
  2 24  1  1  0  0  0
  3 11  2  0  0  0  0
  4 21  1  0  0  0  0
  4  3  1  0  0  0  0
  5 27  1  0  0  0  0
  5 25  2  0  0  0  0
  6  5  1  0  0  0  0
  7 24  1  6  0  0  0
  7 19  1  0  0  0  0
  9 15  1  0  0  0  0
  9 28  1  0  0  0  0
 10 20  1  0  0  0  0
 11 13  1  0  0  0  0
 12  8  1  1  0  0  0
 13 12  1  0  0  0  0
 14 23  1  6  0  0  0
 14 27  1  0  0  0  0
 15 18  1  0  0  0  0
 16  1  1  0  0  0  0
 17  8  1  6  0  0  0
 17  7  1  0  0  0  0
 17 10  1  0  0  0  0
 18  6  1  0  0  0  0
 19 16  1  0  0  0  0
 20  1  1  0  0  0  0
 20 29  1  1  0  0  0
 22 21  1  6  0  0  0
 22 14  1  0  0  0  0
 22 13  1  0  0  0  0
 23 28  1  0  0  0  0
 26  9  1  0  0  0  0
 27  2  1  0  0  0  0
 28  6  2  0  0  0  0
 30 29  1  0  0  0  0
 30 32  1  0  0  0  0
 31 30  2  0  0  0  0
M  END
>  <MODEL>
5

>  <REMARK>
 VINA RESULT:      -4.5      2.135      8.457
  Name = 
  1 active torsions:
  status: ('A' for Active; 'I' for Inactive)
    1  A    between atoms: C_20  and  N_29
                            x       y       z     vdW  Elec       q    Type
                         _______ _______ _______ _____ _____    ______ ____

>  <TORSDO>
F 1

$$$$
=
 OpenBabel11122412563D

 32 37  0  0  1  0  0  0  0  0999 V2000
  160.5570  203.3650  148.1210 C   0  0  0  0  0  2  0  0  0  0  0  0
  161.5920  207.4690  151.5200 C   0  0  2  0  0  3  0  0  0  0  0  0
  161.8550  211.6050  148.9410 C   0  0  0  0  0  3  0  0  0  0  0  0
  161.5780  212.4500  150.1510 C   0  0  0  0  0  2  0  0  0  0  0  0
  161.1990  207.6130  154.0160 C   0  0  0  0  0  0  0  0  0  0  0  0
  160.6290  208.3360  155.1450 C   0  0  0  0  0  0  0  0  0  0  0  0
  161.5400  205.3050  150.2560 C   0  0  2  0  0  3  0  0  0  0  0  0
  161.8640  207.3930  149.0780 C   0  0  0  0  0  2  0  0  0  0  0  0
  159.8580  210.0180  156.3170 N   0  0  0  0  0  0  0  0  0  0  0  0
  162.0760  205.3950  147.9350 C   0  0  0  0  0  2  0  0  0  0  0  0
  161.8710  210.2720  149.0160 C   0  0  0  0  0  3  0  0  0  0  0  0
  161.2100  208.1690  150.2200 C   0  0  2  0  0  3  0  0  0  0  0  0
  161.5930  209.5840  150.2510 N   0  0  0  0  0  0  0  0  0  0  0  0
  160.5790  209.5860  152.5390 C   0  0  2  0  0  3  0  0  0  0  0  0
  159.9470  209.0370  157.2610 O   0  0  0  0  0  0  0  0  0  0  0  0
  161.3540  203.1120  149.2440 O   0  0  0  0  0  0  0  0  0  0  0  0
  161.3030  206.0410  148.9910 N   0  0  1  0  0  0  0  0  0  0  0  0
  160.3990  207.8910  156.5430 C   0  0  0  0  0  2  0  0  0  0  0  0
  160.8340  203.9450  150.2420 C   0  0  0  0  0  2  0  0  0  0  0  0
  161.2400  204.3610  147.1800 C   0  0  1  0  0  3  0  0  0  0  0  0
  160.6980  211.6980  151.1440 C   0  0  0  0  0  2  0  0  0  0  0  0
  161.3750  210.3690  151.4810 C   0  0  2  0  0  3  0  0  0  0  0  0
  160.5480  210.4110  153.8480 C   0  0  0  0  0  2  0  0  0  0  0  0
  160.9820  206.0720  151.4600 C   0  0  0  0  0  2  0  0  0  0  0  0
  161.7330  206.4840  154.1940 O   0  0  0  0  0  0  0  0  0  0  0  0
  158.9400  211.1330  156.4760 C   0  0  0  0  0  1  0  0  0  0  0  0
  161.1460  208.2220  152.7060 N   0  0  0  0  0  0  0  0  0  0  0  0
  160.2640  209.5650  155.0490 C   0  0  0  0  0  0  0  0  0  0  0  0
  162.0960  203.6520  146.2410 N   0  0  0  0  0  2  0  0  0  0  0  0
  162.9310  204.3250  145.2950 C   0  0  0  0  0  0  0  0  0  0  0  0
  162.9730  205.5830  145.2580 O   0  0  0  0  0  1  0  0  0  0  0  0
  163.7050  203.5830  144.4130 O   0  0  0  0  0  0  0  0  0  0  0  0
  1 16  1  0  0  0  0
  2 24  1  6  0  0  0
  2 27  1  0  0  0  0
  3 11  2  0  0  0  0
  3  4  1  0  0  0  0
  4 21  1  0  0  0  0
  5 25  2  0  0  0  0
  5  6  1  0  0  0  0
  6 18  1  0  0  0  0
  7 19  1  6  0  0  0
  7 24  1  0  0  0  0
  9 26  1  0  0  0  0
  9 15  1  0  0  0  0
 11 13  1  0  0  0  0
 12  8  1  6  0  0  0
 12 13  1  0  0  0  0
 12  2  1  0  0  0  0
 13 22  1  0  0  0  0
 14 27  1  0  0  0  0
 14 23  1  1  0  0  0
 16 19  1  0  0  0  0
 17 10  1  6  0  0  0
 17  8  1  0  0  0  0
 17  7  1  0  0  0  0
 18 15  1  0  0  0  0
 20 29  1  6  0  0  0
 20 10  1  0  0  0  0
 20  1  1  0  0  0  0
 22 21  1  6  0  0  0
 22 14  1  0  0  0  0
 23 28  1  0  0  0  0
 27  5  1  0  0  0  0
 28  6  2  0  0  0  0
 28  9  1  0  0  0  0
 30 29  1  0  0  0  0
 31 30  1  0  0  0  0
 32 30  2  0  0  0  0
M  END
>  <MODEL>
6

>  <REMARK>
 VINA RESULT:      -4.3      1.812      2.014
  Name = 
  1 active torsions:
  status: ('A' for Active; 'I' for Inactive)
    1  A    between atoms: C_20  and  N_29
                            x       y       z     vdW  Elec       q    Type
                         _______ _______ _______ _____ _____    ______ ____

>  <TORSDO>
F 1

$$$$
