=
 OpenBabel11122412493D

 32 37  0  0  1  0  0  0  0  0999 V2000
  161.6620  201.5700  150.2550 C   0  0  0  0  0  2  0  0  0  0  0  0
  161.0260  206.7120  152.1900 N   0  0  1  0  0  0  0  0  0  0  0  0
  162.0520  209.9490  148.6500 C   0  0  0  0  0  3  0  0  0  0  0  0
  161.9930  210.9880  149.5780 C   0  0  0  0  0  3  0  0  0  0  0  0
  160.7250  207.5050  154.5430 C   0  0  0  0  0  0  0  0  0  0  0  0
  160.8520  208.5720  155.5960 C   0  0  1  0  0  3  0  0  0  0  0  0
  160.6350  204.3350  151.6810 C   0  0  1  0  0  3  0  0  0  0  0  0
  161.1520  205.9730  149.8440 C   0  0  0  0  0  2  0  0  0  0  0  0
  162.5570  210.1480  156.1130 C   0  0  2  0  0  3  0  0  0  0  0  0
  160.5830  203.6400  149.1980 C   0  0  0  0  0  2  0  0  0  0  0  0
  161.9590  208.6240  149.0820 C   0  0  0  0  0  3  0  0  0  0  0  0
  161.7640  206.8860  150.9180 C   0  0  1  0  0  3  0  0  0  0  0  0
  161.7840  208.3230  150.4450 C   0  0  0  0  0  0  0  0  0  0  0  0
  161.6360  209.0500  152.8120 C   0  0  0  0  0  0  0  0  0  0  0  0
  162.3680  209.1730  157.2610 C   0  0  0  0  0  2  0  0  0  0  0  0
  161.9710  202.1440  151.6480 C   0  0  0  0  0  2  0  0  0  0  0  0
  161.2350  204.5140  150.2720 C   0  0  2  0  0  3  0  0  0  0  0  0
  161.5330  208.0680  156.7830 N   0  0  0  0  0  2  0  0  0  0  0  0
  160.8010  202.9210  152.2610 C   0  0  0  0  0  2  0  0  0  0  0  0
  160.4170  202.1660  149.5830 C   0  0  1  0  0  3  0  0  0  0  0  0
  161.8520  210.7010  150.9360 C   0  0  0  0  0  3  0  0  0  0  0  0
  161.7610  209.3690  151.3800 C   0  0  0  0  0  0  0  0  0  0  0  0
  161.7660  210.0140  153.7320 C   0  0  0  0  0  3  0  0  0  0  0  0
  161.2920  205.3340  152.6250 C   0  0  0  0  0  2  0  0  0  0  0  0
  159.9610  206.5740  154.7410 O   0  0  0  0  0  0  0  0  0  0  0  0
  162.2200  211.5530  156.5720 C   0  0  0  0  0  1  0  0  0  0  0  0
  161.5410  207.6000  153.2560 C   0  0  2  0  0  3  0  0  0  0  0  0
  161.6120  209.7110  155.1200 N   0  0  0  0  0  0  0  0  0  0  0  0
  160.0440  201.3680  148.3450 C   0  0  0  0  0  2  0  0  0  0  0  0
  161.2030  201.3010  147.3640 C   0  0  0  0  0  3  0  0  0  0  0  0
  160.8270  201.8510  146.1390 O   0  0  0  0  0  1  0  0  0  0  0  0
  161.5710  199.9700  147.1760 O   0  0  0  0  0  1  0  0  0  0  0  0
  1 16  1  0  0  0  0
  2 24  1  1  0  0  0
  2 27  1  0  0  0  0
  3 11  2  0  0  0  0
  3  4  1  0  0  0  0
  4 21  2  0  0  0  0
  5 25  2  0  0  0  0
  6  5  1  6  0  0  0
  6 18  1  0  0  0  0
  7 19  1  1  0  0  0
  7 24  1  0  0  0  0
  8 17  1  0  0  0  0
  9 26  1  1  0  0  0
  9 15  1  0  0  0  0
 10 20  1  0  0  0  0
 11 13  1  0  0  0  0
 12  8  1  6  0  0  0
 12  2  1  0  0  0  0
 13 12  1  0  0  0  0
 13 22  2  0  0  0  0
 14 23  2  0  0  0  0
 16 19  1  0  0  0  0
 17 10  1  6  0  0  0
 17  7  1  0  0  0  0
 18 15  1  0  0  0  0
 20 29  1  6  0  0  0
 20  1  1  0  0  0  0
 21 22  1  0  0  0  0
 22 14  1  0  0  0  0
 23 28  1  0  0  0  0
 27 14  1  6  0  0  0
 27  5  1  0  0  0  0
 28  6  1  0  0  0  0
 28  9  1  0  0  0  0
 30 29  1  0  0  0  0
 31 30  1  0  0  0  0
 32 30  1  0  0  0  0
M  END
>  <MODEL>
1

>  <REMARK>
 VINA RESULT:      -7.9      0.000      0.000
  Name = 
  2 active torsions:
  status: ('A' for Active; 'I' for Inactive)
    1  A    between atoms: C_20  and  C_29
    2  A    between atoms: C_29  and  C_30
                            x       y       z     vdW  Elec       q    Type
                         _______ _______ _______ _____ _____    ______ ____

>  <TORSDO>
F 2

$$$$
=
 OpenBabel11122412493D

 32 37  0  0  1  0  0  0  0  0999 V2000
  159.7090  208.3920  156.5930 C   0  0  0  0  0  2  0  0  0  0  0  0
  161.3850  206.0020  151.8950 N   0  0  1  0  0  0  0  0  0  0  0  0
  162.1500  209.4350  148.4760 C   0  0  0  0  0  3  0  0  0  0  0  0
  162.3070  208.4420  147.5090 C   0  0  0  0  0  3  0  0  0  0  0  0
  161.3850  203.5860  151.2450 C   0  0  0  0  0  0  0  0  0  0  0  0
  161.3490  202.5070  150.1970 C   0  0  1  0  0  3  0  0  0  0  0  0
  161.1640  206.5890  154.2760 C   0  0  1  0  0  3  0  0  0  0  0  0
  161.5630  208.3700  152.5460 C   0  0  0  0  0  2  0  0  0  0  0  0
  160.1100  202.2410  148.1840 C   0  0  2  0  0  3  0  0  0  0  0  0
  161.5510  209.0510  154.9370 C   0  0  0  0  0  2  0  0  0  0  0  0
  161.7540  209.0890  149.7700 C   0  0  0  0  0  3  0  0  0  0  0  0
  161.0260  207.3820  151.4980 C   0  0  1  0  0  3  0  0  0  0  0  0
  161.5320  207.7450  150.1190 C   0  0  0  0  0  0  0  0  0  0  0  0
  161.3670  205.3520  149.4850 C   0  0  0  0  0  0  0  0  0  0  0  0
  159.7510  201.1520  149.1780 C   0  0  0  0  0  2  0  0  0  0  0  0
  159.2860  207.0540  155.9610 C   0  0  0  0  0  2  0  0  0  0  0  0
  160.9650  208.0750  153.9140 C   0  0  2  0  0  3  0  0  0  0  0  0
  160.3090  201.5260  150.4800 N   0  0  0  0  0  2  0  0  0  0  0  0
  160.4680  206.1590  155.5780 C   0  0  0  0  0  2  0  0  0  0  0  0
  161.1890  208.7480  156.3950 C   0  0  1  0  0  3  0  0  0  0  0  0
  162.0580  207.1080  147.8340 C   0  0  0  0  0  3  0  0  0  0  0  0
  161.6560  206.7520  149.1340 C   0  0  0  0  0  0  0  0  0  0  0  0
  161.3270  204.4110  148.5340 C   0  0  0  0  0  3  0  0  0  0  0  0
  160.6390  205.7310  153.1320 C   0  0  0  0  0  2  0  0  0  0  0  0
  161.7800  203.3030  152.3650 O   0  0  0  0  0  0  0  0  0  0  0  0
  160.7360  201.6230  146.9490 C   0  0  0  0  0  1  0  0  0  0  0  0
  160.9330  205.0040  150.9000 C   0  0  2  0  0  3  0  0  0  0  0  0
  161.0790  203.0470  148.8790 N   0  0  0  0  0  0  0  0  0  0  0  0
  161.5730  209.9360  157.2610 C   0  0  0  0  0  2  0  0  0  0  0  0
  162.0980  211.0850  156.4150 C   0  0  0  0  0  3  0  0  0  0  0  0
  163.3900  211.4250  156.8170 O   0  0  0  0  0  1  0  0  0  0  0  0
  161.2630  212.1900  156.5700 O   0  0  0  0  0  1  0  0  0  0  0  0
  2 24  1  1  0  0  0
  3 11  1  0  0  0  0
  4 21  1  0  0  0  0
  4  3  2  0  0  0  0
  5 25  2  0  0  0  0
  6 18  1  1  0  0  0
  6  5  1  0  0  0  0
  7 24  1  6  0  0  0
  7 19  1  0  0  0  0
  9 26  1  6  0  0  0
  9 28  1  0  0  0  0
  9 15  1  0  0  0  0
 10 20  1  0  0  0  0
 11 13  2  0  0  0  0
 12  2  1  0  0  0  0
 12  8  1  1  0  0  0
 13 12  1  0  0  0  0
 15 18  1  0  0  0  0
 16  1  1  0  0  0  0
 17  8  1  6  0  0  0
 17  7  1  0  0  0  0
 17 10  1  0  0  0  0
 19 16  1  0  0  0  0
 20  1  1  0  0  0  0
 20 29  1  1  0  0  0
 21 22  2  0  0  0  0
 22 14  1  0  0  0  0
 22 13  1  0  0  0  0
 23 28  1  0  0  0  0
 23 14  2  0  0  0  0
 27 14  1  6  0  0  0
 27  5  1  0  0  0  0
 27  2  1  0  0  0  0
 28  6  1  0  0  0  0
 30 32  1  0  0  0  0
 30 31  1  0  0  0  0
 30 29  1  0  0  0  0
M  END
>  <MODEL>
2

>  <REMARK>
 VINA RESULT:      -6.1      2.413      7.980
  Name = 
  2 active torsions:
  status: ('A' for Active; 'I' for Inactive)
    1  A    between atoms: C_20  and  C_29
    2  A    between atoms: C_29  and  C_30
                            x       y       z     vdW  Elec       q    Type
                         _______ _______ _______ _____ _____    ______ ____

>  <TORSDO>
F 2

$$$$
=
 OpenBabel11122412493D

 32 37  0  0  1  0  0  0  0  0999 V2000
  160.9320  213.2720  147.5260 C   0  0  0  0  0  2  0  0  0  0  0  0
  161.6390  209.4400  151.4500 N   0  0  1  0  0  0  0  0  0  0  0  0
  161.4380  204.9660  149.4480 C   0  0  0  0  0  3  0  0  0  0  0  0
  161.4270  204.3930  150.7200 C   0  0  0  0  0  3  0  0  0  0  0  0
  161.6220  209.6830  153.9400 C   0  0  0  0  0  0  0  0  0  0  0  0
  161.4100  209.1100  155.3150 C   0  0  1  0  0  3  0  0  0  0  0  0
  161.9260  211.4540  150.0640 C   0  0  1  0  0  3  0  0  0  0  0  0
  161.8330  209.1730  149.0100 C   0  0  0  0  0  2  0  0  0  0  0  0
  159.7680  207.6510  156.2300 C   0  0  2  0  0  3  0  0  0  0  0  0
  162.3190  211.1180  147.5390 C   0  0  0  0  0  2  0  0  0  0  0  0
  161.3600  206.3540  149.3100 C   0  0  0  0  0  3  0  0  0  0  0  0
  161.1280  208.6830  150.2850 C   0  0  1  0  0  3  0  0  0  0  0  0
  161.2930  207.1870  150.4410 C   0  0  0  0  0  0  0  0  0  0  0  0
  161.1170  207.4750  152.8980 C   0  0  0  0  0  0  0  0  0  0  0  0
  159.6980  209.0150  156.8930 C   0  0  0  0  0  2  0  0  0  0  0  0
  160.4490  213.2560  148.9870 C   0  0  0  0  0  2  0  0  0  0  0  0
  161.5720  210.6570  148.7930 C   0  0  2  0  0  3  0  0  0  0  0  0
  160.5130  209.9430  156.1060 N   0  0  0  0  0  2  0  0  0  0  0  0
  161.5620  212.9470  149.9940 C   0  0  0  0  0  2  0  0  0  0  0  0
  162.3090  212.6320  147.3040 C   0  0  1  0  0  3  0  0  0  0  0  0
  161.3280  205.2070  151.8480 C   0  0  0  0  0  3  0  0  0  0  0  0
  161.2470  206.6050  151.7170 C   0  0  0  0  0  0  0  0  0  0  0  0
  160.9150  206.9430  154.1100 C   0  0  0  0  0  3  0  0  0  0  0  0
  161.2040  210.8290  151.2520 C   0  0  0  0  0  2  0  0  0  0  0  0
  162.2710  210.7100  153.8270 O   0  0  0  0  0  0  0  0  0  0  0  0
  160.1340  206.5980  157.2580 C   0  0  0  0  0  1  0  0  0  0  0  0
  161.0300  208.9820  152.7190 C   0  0  2  0  0  3  0  0  0  0  0  0
  160.8240  207.7850  155.2610 N   0  0  0  0  0  0  0  0  0  0  0  0
  162.8130  212.9220  145.9010 C   0  0  0  0  0  2  0  0  0  0  0  0
  161.7120  213.5070  145.0320 C   0  0  0  0  0  3  0  0  0  0  0  0
  161.0850  212.4950  144.3050 O   0  0  0  0  0  1  0  0  0  0  0  0
  162.2650  214.4320  144.1480 O   0  0  0  0  0  1  0  0  0  0  0  0
  1 16  1  0  0  0  0
  2 24  1  6  0  0  0
  2 27  1  0  0  0  0
  3  4  1  0  0  0  0
  4 21  2  0  0  0  0
  6  5  1  6  0  0  0
  6 18  1  0  0  0  0
  7 19  1  6  0  0  0
  7 24  1  0  0  0  0
  9 15  1  0  0  0  0
  9 26  1  1  0  0  0
 11  3  2  0  0  0  0
 11 13  1  0  0  0  0
 12  8  1  6  0  0  0
 12 13  1  0  0  0  0
 12  2  1  0  0  0  0
 13 22  2  0  0  0  0
 14 23  2  0  0  0  0
 16 19  1  0  0  0  0
 17 10  1  6  0  0  0
 17  8  1  0  0  0  0
 17  7  1  0  0  0  0
 18 15  1  0  0  0  0
 20 29  1  6  0  0  0
 20  1  1  0  0  0  0
 20 10  1  0  0  0  0
 22 21  1  0  0  0  0
 22 14  1  0  0  0  0
 23 28  1  0  0  0  0
 25  5  2  0  0  0  0
 27 14  1  1  0  0  0
 27  5  1  0  0  0  0
 28  6  1  0  0  0  0
 28  9  1  0  0  0  0
 30 29  1  0  0  0  0
 31 30  1  0  0  0  0
 32 30  1  0  0  0  0
M  END
>  <MODEL>
3

>  <REMARK>
 VINA RESULT:      -5.5      3.602      7.016
  Name = 
  2 active torsions:
  status: ('A' for Active; 'I' for Inactive)
    1  A    between atoms: C_20  and  C_29
    2  A    between atoms: C_29  and  C_30
                            x       y       z     vdW  Elec       q    Type
                         _______ _______ _______ _____ _____    ______ ____

>  <TORSDO>
F 2

$$$$
=
 OpenBabel11122412493D

 32 37  0  0  1  0  0  0  0  0999 V2000
  159.1510  210.3730  156.6340 C   0  0  0  0  0  2  0  0  0  0  0  0
  161.3720  207.5590  152.4230 N   0  0  1  0  0  0  0  0  0  0  0  0
  162.2030  210.5950  148.6620 C   0  0  0  0  0  3  0  0  0  0  0  0
  162.5050  209.5060  147.8440 C   0  0  0  0  0  3  0  0  0  0  0  0
  161.5840  205.0880  152.0900 C   0  0  0  0  0  0  0  0  0  0  0  0
  161.7080  203.8900  151.1890 C   0  0  1  0  0  3  0  0  0  0  0  0
  160.9120  208.4140  154.6860 C   0  0  1  0  0  3  0  0  0  0  0  0
  161.3410  209.9950  152.7770 C   0  0  0  0  0  2  0  0  0  0  0  0
  160.6650  203.2870  149.1370 C   0  0  2  0  0  3  0  0  0  0  0  0
  161.0800  210.9610  155.0540 C   0  0  0  0  0  2  0  0  0  0  0  0
  161.7210  210.3810  149.9550 C   0  0  0  0  0  3  0  0  0  0  0  0
  160.9600  208.8490  151.8270 C   0  0  1  0  0  3  0  0  0  0  0  0
  161.5580  209.0770  150.4550 C   0  0  0  0  0  0  0  0  0  0  0  0
  161.6020  206.6200  150.1230 C   0  0  0  0  0  0  0  0  0  0  0  0
  160.2930  202.3040  150.2320 C   0  0  0  0  0  2  0  0  0  0  0  0
  158.8700  208.9400  156.1490 C   0  0  0  0  0  2  0  0  0  0  0  0
  160.6490  209.8250  154.1230 C   0  0  2  0  0  3  0  0  0  0  0  0
  160.7130  202.8760  151.5140 N   0  0  0  0  0  2  0  0  0  0  0  0
  160.1370  208.0960  155.9750 C   0  0  0  0  0  2  0  0  0  0  0  0
  160.6160  210.8120  156.5070 C   0  0  1  0  0  3  0  0  0  0  0  0
  162.3160  208.2070  148.3180 C   0  0  0  0  0  3  0  0  0  0  0  0
  161.8290  207.9840  149.6180 C   0  0  0  0  0  0  0  0  0  0  0  0
  161.7040  205.5690  149.2990 C   0  0  0  0  0  3  0  0  0  0  0  0
  160.5430  207.3860  153.6240 C   0  0  0  0  0  2  0  0  0  0  0  0
  161.8990  204.9740  153.2630 O   0  0  0  0  0  0  0  0  0  0  0  0
  161.4320  202.5710  148.0430 C   0  0  0  0  0  1  0  0  0  0  0  0
  161.0730  206.4150  151.5330 C   0  0  2  0  0  3  0  0  0  0  0  0
  161.5170  204.2420  149.7950 N   0  0  0  0  0  0  0  0  0  0  0  0
  160.8470  212.1220  157.2400 C   0  0  0  0  0  2  0  0  0  0  0  0
  159.7880  213.1500  156.8750 C   0  0  0  0  0  3  0  0  0  0  0  0
  159.3760  212.9650  155.5550 O   0  0  0  0  0  1  0  0  0  0  0  0
  160.3210  214.4300  157.0140 O   0  0  0  0  0  1  0  0  0  0  0  0
  2 24  1  1  0  0  0
  3 11  1  0  0  0  0
  4 21  1  0  0  0  0
  4  3  2  0  0  0  0
  5 25  2  0  0  0  0
  6 18  1  1  0  0  0
  6  5  1  0  0  0  0
  7 24  1  6  0  0  0
  7 19  1  0  0  0  0
  9 26  1  6  0  0  0
  9 28  1  0  0  0  0
  9 15  1  0  0  0  0
 10 20  1  0  0  0  0
 11 13  2  0  0  0  0
 12  2  1  0  0  0  0
 12  8  1  1  0  0  0
 13 12  1  0  0  0  0
 15 18  1  0  0  0  0
 16  1  1  0  0  0  0
 17  8  1  6  0  0  0
 17  7  1  0  0  0  0
 17 10  1  0  0  0  0
 19 16  1  0  0  0  0
 20  1  1  0  0  0  0
 20 29  1  1  0  0  0
 21 22  2  0  0  0  0
 22 14  1  0  0  0  0
 22 13  1  0  0  0  0
 23 28  1  0  0  0  0
 23 14  2  0  0  0  0
 27 14  1  6  0  0  0
 27  5  1  0  0  0  0
 27  2  1  0  0  0  0
 28  6  1  0  0  0  0
 30 32  1  0  0  0  0
 30 29  1  0  0  0  0
 31 30  1  0  0  0  0
M  END
>  <MODEL>
4

>  <REMARK>
 VINA RESULT:      -5.0      2.541      8.150
  Name = 
  2 active torsions:
  status: ('A' for Active; 'I' for Inactive)
    1  A    between atoms: C_20  and  C_29
    2  A    between atoms: C_29  and  C_30
                            x       y       z     vdW  Elec       q    Type
                         _______ _______ _______ _____ _____    ______ ____

>  <TORSDO>
F 2

$$$$
