=
 OpenBabel11122413283D

 31 35  0  0  1  0  0  0  0  0999 V2000
  160.8080  204.7270  145.2970 C   0  0  0  0  0  0  0  0  0  0  0  0
  160.4750  205.8850  148.8640 C   0  0  2  0  0  3  0  0  0  0  0  0
  160.8580  204.8100  149.8650 C   0  0  0  0  0  0  0  0  0  0  0  0
  161.0950  202.4480  150.4040 C   0  0  0  0  0  0  0  0  0  0  0  0
  161.0390  205.6280  147.4960 C   0  0  0  0  0  0  0  0  0  0  0  0
  162.1250  205.2230  144.8930 C   0  0  0  0  0  3  0  0  0  0  0  0
  160.8220  203.4590  149.4810 C   0  0  0  0  0  3  0  0  0  0  0  0
  162.3000  207.6740  149.1080 C   0  0  2  0  0  3  0  0  0  0  0  0
  160.0970  204.0840  144.4820 O   0  0  0  0  0  0  0  0  0  0  0  0
  161.1830  206.5500  151.6980 C   0  0  0  0  0  2  0  0  0  0  0  0
  161.0690  201.0250  149.9760 C   0  0  0  0  0  1  0  0  0  0  0  0
  162.6890  207.4790  147.6430 C   0  0  0  0  0  2  0  0  0  0  0  0
  160.8180  207.3160  149.3310 C   0  0  2  0  0  3  0  0  0  0  0  0
  160.3190  205.0040  146.6120 N   0  0  0  0  0  0  0  0  0  0  0  0
  161.3890  202.7740  151.7290 C   0  0  0  0  0  3  0  0  0  0  0  0
  162.4740  206.0330  147.2190 C   0  0  2  0  0  3  0  0  0  0  0  0
  162.8910  205.8520  145.7830 C   0  0  0  0  0  3  0  0  0  0  0  0
  160.4040  207.4980  150.7920 C   0  0  0  0  0  2  0  0  0  0  0  0
  161.1180  205.1300  151.2180 C   0  0  0  0  0  0  0  0  0  0  0  0
  161.4010  204.1100  152.1330 C   0  0  0  0  0  3  0  0  0  0  0  0
  161.2640  209.9650  147.7660 O   0  0  0  0  0  0  0  0  0  0  0  0
  161.9900  210.1620  148.7780 C   0  0  0  0  0  0  0  0  0  0  0  0
  162.5440  209.0570  149.4940 N   0  0  0  0  0  2  0  0  0  0  0  0
  160.8190  213.4750  147.7920 C   0  0  1  0  0  3  0  0  0  0  0  0
  161.1500  212.2030  149.8300 O   0  0  0  0  0  0  0  0  0  0  0  0
  164.1260  211.7790  147.7170 C   0  0  0  0  0  1  0  0  0  0  0  0
  159.8970  213.7090  146.7730 O   0  0  0  0  0  1  0  0  0  0  0  0
  160.2190  212.5160  148.8130 C   0  0  0  0  0  2  0  0  0  0  0  0
  162.9680  212.4490  148.2940 N   0  0  0  0  0  0  0  0  0  0  0  0
  162.2800  211.5670  149.2600 C   0  0  2  0  0  3  0  0  0  0  0  0
  162.0650  212.8240  147.2100 C   0  0  0  0  0  2  0  0  0  0  0  0
  1 14  1  0  0  0  0
  2  5  1  6  0  0  0
  2 13  1  0  0  0  0
  2  3  1  0  0  0  0
  3 19  1  0  0  0  0
  4 15  2  0  0  0  0
  6  1  1  0  0  0  0
  6 17  2  0  0  0  0
  7  3  2  0  0  0  0
  7  4  1  0  0  0  0
  8 13  1  0  0  0  0
  8 23  1  6  0  0  0
  9  1  2  0  0  0  0
 11  4  1  0  0  0  0
 12  8  1  0  0  0  0
 13 18  1  1  0  0  0
 14  5  2  0  0  0  0
 15 20  1  0  0  0  0
 16 17  1  6  0  0  0
 16  5  1  0  0  0  0
 16 12  1  0  0  0  0
 18 10  1  0  0  0  0
 19 10  1  0  0  0  0
 19 20  2  0  0  0  0
 21 22  2  0  0  0  0
 22 23  1  0  0  0  0
 24 27  1  6  0  0  0
 24 28  1  0  0  0  0
 26 29  1  0  0  0  0
 28 25  1  0  0  0  0
 29 30  1  0  0  0  0
 30 22  1  6  0  0  0
 30 25  1  0  0  0  0
 31 24  1  0  0  0  0
 31 29  1  0  0  0  0
M  END
>  <MODEL>
1

>  <REMARK>
 VINA RESULT:      -7.2      0.000      0.000
  Name = 
  2 active torsions:
  status: ('A' for Active; 'I' for Inactive)
    1  A    between atoms: C_5  and  C_30
    2  A    between atoms: C_10  and  N_16
                            x       y       z     vdW  Elec       q    Type
                         _______ _______ _______ _____ _____    ______ ____

>  <TORSDO>
F 2

$$$$
=
 OpenBabel11122413283D

 31 35  0  0  1  0  0  0  0  0999 V2000
  160.5300  206.2540  146.4290 C   0  0  0  0  0  0  0  0  0  0  0  0
  160.3890  205.6050  150.1350 C   0  0  2  0  0  3  0  0  0  0  0  0
  160.8500  204.2060  150.5000 C   0  0  0  0  0  0  0  0  0  0  0  0
  161.1630  201.8770  149.8650 C   0  0  0  0  0  0  0  0  0  0  0  0
  160.8760  206.0400  148.7810 C   0  0  0  0  0  0  0  0  0  0  0  0
  161.8120  206.9380  146.2440 C   0  0  0  0  0  3  0  0  0  0  0  0
  160.8160  203.1890  149.5320 C   0  0  0  0  0  3  0  0  0  0  0  0
  162.1930  207.1540  151.1040 C   0  0  2  0  0  3  0  0  0  0  0  0
  159.7840  206.0330  145.4400 O   0  0  0  0  0  0  0  0  0  0  0  0
  161.2520  204.9070  152.9170 C   0  0  0  0  0  2  0  0  0  0  0  0
  161.1360  200.8170  148.8240 C   0  0  0  0  0  1  0  0  0  0  0  0
  162.4970  207.6800  149.7020 C   0  0  0  0  0  2  0  0  0  0  0  0
  160.7330  206.6690  151.1990 C   0  0  2  0  0  3  0  0  0  0  0  0
  160.1150  205.8660  147.7410 N   0  0  0  0  0  0  0  0  0  0  0  0
  161.5290  201.5630  151.1740 C   0  0  0  0  0  3  0  0  0  0  0  0
  162.2830  206.5880  148.6630 C   0  0  2  0  0  3  0  0  0  0  0  0
  162.6180  207.1140  147.2910 C   0  0  0  0  0  3  0  0  0  0  0  0
  160.4030  206.1330  152.5930 C   0  0  0  0  0  2  0  0  0  0  0  0
  161.1850  203.8720  151.8340 C   0  0  0  0  0  0  0  0  0  0  0  0
  161.5400  202.5570  152.1540 C   0  0  0  0  0  3  0  0  0  0  0  0
  160.4410  209.3400  151.6330 O   0  0  0  0  0  0  0  0  0  0  0  0
  161.5100  209.2760  152.2990 C   0  0  0  0  0  0  0  0  0  0  0  0
  162.4330  208.2090  152.0790 N   0  0  0  0  0  2  0  0  0  0  0  0
  160.0620  210.1620  155.5290 C   0  0  1  0  0  3  0  0  0  0  0  0
  162.2550  209.7620  154.5760 O   0  0  0  0  0  0  0  0  0  0  0  0
  160.3820  211.9280  152.2750 C   0  0  0  0  0  1  0  0  0  0  0  0
  158.9720  209.5110  156.1040 O   0  0  0  0  0  1  0  0  0  0  0  0
  161.1570  209.1480  155.2200 C   0  0  0  0  0  2  0  0  0  0  0  0
  160.8070  211.3660  153.5500 N   0  0  0  0  0  0  0  0  0  0  0  0
  161.8320  210.3210  153.3450 C   0  0  2  0  0  3  0  0  0  0  0  0
  159.6360  210.8080  154.2200 C   0  0  0  0  0  2  0  0  0  0  0  0
  1 14  1  0  0  0  0
  2  5  1  6  0  0  0
  2  3  1  0  0  0  0
  2 13  1  0  0  0  0
  3 19  1  0  0  0  0
  4 15  2  0  0  0  0
  6  1  1  0  0  0  0
  6 17  2  0  0  0  0
  7  4  1  0  0  0  0
  7  3  2  0  0  0  0
  8 13  1  0  0  0  0
  8 23  1  1  0  0  0
  9  1  2  0  0  0  0
 11  4  1  0  0  0  0
 12  8  1  0  0  0  0
 13 18  1  1  0  0  0
 14  5  2  0  0  0  0
 15 20  1  0  0  0  0
 16 17  1  6  0  0  0
 16  5  1  0  0  0  0
 16 12  1  0  0  0  0
 18 10  1  0  0  0  0
 19 20  2  0  0  0  0
 19 10  1  0  0  0  0
 21 22  2  0  0  0  0
 23 22  1  0  0  0  0
 24 27  1  6  0  0  0
 25 28  1  0  0  0  0
 26 29  1  0  0  0  0
 28 24  1  0  0  0  0
 29 31  1  0  0  0  0
 30 22  1  6  0  0  0
 30 29  1  0  0  0  0
 30 25  1  0  0  0  0
 31 24  1  0  0  0  0
M  END
>  <MODEL>
2

>  <REMARK>
 VINA RESULT:      -6.8      2.874      4.011
  Name = 
  2 active torsions:
  status: ('A' for Active; 'I' for Inactive)
    1  A    between atoms: C_5  and  C_30
    2  A    between atoms: C_10  and  N_16
                            x       y       z     vdW  Elec       q    Type
                         _______ _______ _______ _____ _____    ______ ____

>  <TORSDO>
F 2

$$$$
=
 OpenBabel11122413283D

 31 35  0  0  1  0  0  0  0  0999 V2000
  160.8350  205.1090  145.1730 C   0  0  0  0  0  0  0  0  0  0  0  0
  160.5160  205.2810  148.9200 C   0  0  2  0  0  3  0  0  0  0  0  0
  160.9070  203.9820  149.5990 C   0  0  0  0  0  0  0  0  0  0  0  0
  161.1540  201.5620  149.4940 C   0  0  0  0  0  0  0  0  0  0  0  0
  161.0750  205.3980  147.5300 C   0  0  0  0  0  0  0  0  0  0  0  0
  162.1490  205.6990  144.9080 C   0  0  0  0  0  3  0  0  0  0  0  0
  160.8730  202.7810  148.8720 C   0  0  0  0  0  3  0  0  0  0  0  0
  162.3380  206.9500  149.6210 C   0  0  2  0  0  3  0  0  0  0  0  0
  160.1220  204.7010  144.2190 O   0  0  0  0  0  0  0  0  0  0  0  0
  161.2370  205.1770  151.8260 C   0  0  0  0  0  2  0  0  0  0  0  0
  161.1290  200.3030  148.7060 C   0  0  0  0  0  1  0  0  0  0  0  0
  162.7190  207.1510  148.1540 C   0  0  0  0  0  2  0  0  0  0  0  0
  160.8570  206.5400  149.7470 C   0  0  2  0  0  3  0  0  0  0  0  0
  160.3520  205.0260  146.5160 N   0  0  0  0  0  0  0  0  0  0  0  0
  161.4540  201.5280  150.8570 C   0  0  0  0  0  3  0  0  0  0  0  0
  162.5060  205.8670  147.3650 C   0  0  2  0  0  3  0  0  0  0  0  0
  162.9170  206.0730  145.9300 C   0  0  0  0  0  3  0  0  0  0  0  0
  160.4500  206.3280  151.2060 C   0  0  0  0  0  2  0  0  0  0  0  0
  161.1730  203.9340  150.9880 C   0  0  0  0  0  0  0  0  0  0  0  0
  161.4630  202.7100  151.6000 C   0  0  0  0  0  3  0  0  0  0  0  0
  161.6100  209.5620  148.7430 O   0  0  0  0  0  0  0  0  0  0  0  0
  162.1840  209.4630  149.8610 C   0  0  0  0  0  0  0  0  0  0  0  0
  162.5790  208.1830  150.3570 N   0  0  0  0  0  2  0  0  0  0  0  0
  160.2390  211.3540  152.3010 C   0  0  1  0  0  3  0  0  0  0  0  0
  162.4670  210.4220  152.0920 O   0  0  0  0  0  0  0  0  0  0  0  0
  161.6440  212.1440  148.9520 C   0  0  0  0  0  1  0  0  0  0  0  0
  158.9380  211.0320  152.6860 O   0  0  0  0  0  1  0  0  0  0  0  0
  161.1510  210.1550  152.5310 C   0  0  0  0  0  2  0  0  0  0  0  0
  161.6430  211.8830  150.3850 N   0  0  0  0  0  0  0  0  0  0  0  0
  162.4590  210.6910  150.7010 C   0  0  2  0  0  3  0  0  0  0  0  0
  160.2620  211.6850  150.8170 C   0  0  0  0  0  2  0  0  0  0  0  0
  1 14  1  0  0  0  0
  2  5  1  6  0  0  0
  2  3  1  0  0  0  0
  2 13  1  0  0  0  0
  3 19  1  0  0  0  0
  4 15  2  0  0  0  0
  6  1  1  0  0  0  0
  6 17  2  0  0  0  0
  7  4  1  0  0  0  0
  7  3  2  0  0  0  0
  8 13  1  0  0  0  0
  8 23  1  1  0  0  0
  9  1  2  0  0  0  0
 11  4  1  0  0  0  0
 12  8  1  0  0  0  0
 13 18  1  1  0  0  0
 14  5  2  0  0  0  0
 15 20  1  0  0  0  0
 16 17  1  6  0  0  0
 16  5  1  0  0  0  0
 16 12  1  0  0  0  0
 18 10  1  0  0  0  0
 19 20  2  0  0  0  0
 19 10  1  0  0  0  0
 21 22  2  0  0  0  0
 22 23  1  0  0  0  0
 24 28  1  0  0  0  0
 24 27  1  6  0  0  0
 25 28  1  0  0  0  0
 26 29  1  0  0  0  0
 29 30  1  0  0  0  0
 29 31  1  0  0  0  0
 30 22  1  6  0  0  0
 30 25  1  0  0  0  0
 31 24  1  0  0  0  0
M  END
>  <MODEL>
3

>  <REMARK>
 VINA RESULT:      -6.5      1.594      2.242
  Name = 
  2 active torsions:
  status: ('A' for Active; 'I' for Inactive)
    1  A    between atoms: C_5  and  C_30
    2  A    between atoms: C_10  and  N_16
                            x       y       z     vdW  Elec       q    Type
                         _______ _______ _______ _____ _____    ______ ____

>  <TORSDO>
F 2

$$$$
=
 OpenBabel11122413283D

 31 35  0  0  1  0  0  0  0  0999 V2000
  161.3330  210.2180  154.8730 C   0  0  0  0  0  0  0  0  0  0  0  0
  162.2280  209.9180  151.2290 C   0  0  2  0  0  3  0  0  0  0  0  0
  161.7460  208.6170  150.6140 C   0  0  0  0  0  0  0  0  0  0  0  0
  161.1140  206.2820  150.8960 C   0  0  0  0  0  0  0  0  0  0  0  0
  161.4940  210.2680  152.4920 C   0  0  0  0  0  0  0  0  0  0  0  0
  160.1010  211.0120  154.8640 C   0  0  0  0  0  3  0  0  0  0  0  0
  161.4840  207.5130  151.4430 C   0  0  0  0  0  3  0  0  0  0  0  0
  160.8120  211.7320  150.0910 C   0  0  2  0  0  3  0  0  0  0  0  0
  161.8240  209.8260  155.9630 O   0  0  0  0  0  0  0  0  0  0  0  0
  161.9400  209.5850  148.2650 C   0  0  0  0  0  2  0  0  0  0  0  0
  160.8260  205.1300  151.7880 C   0  0  0  0  0  1  0  0  0  0  0  0
  160.2520  212.1500  151.4510 C   0  0  0  0  0  2  0  0  0  0  0  0
  162.2130  211.1090  150.2470 C   0  0  2  0  0  3  0  0  0  0  0  0
  161.9920  209.9180  153.6400 N   0  0  0  0  0  0  0  0  0  0  0  0
  161.0190  206.1350  149.5110 C   0  0  0  0  0  3  0  0  0  0  0  0
  160.1440  210.9470  152.3770 C   0  0  2  0  0  3  0  0  0  0  0  0
  159.5610  211.3700  153.7000 C   0  0  0  0  0  3  0  0  0  0  0  0
  162.7950  210.6780  148.9000 C   0  0  0  0  0  2  0  0  0  0  0  0
  161.6850  208.4490  149.2110 C   0  0  0  0  0  0  0  0  0  0  0  0
  161.3030  207.2150  148.6730 C   0  0  0  0  0  3  0  0  0  0  0  0
  159.7960  211.8530  147.4300 O   0  0  0  0  0  0  0  0  0  0  0  0
  160.3430  212.8910  147.8920 C   0  0  0  0  0  0  0  0  0  0  0  0
  160.8770  212.8950  149.2160 N   0  0  0  0  0  2  0  0  0  0  0  0
  161.0140  213.5570  144.3670 C   0  0  1  0  0  3  0  0  0  0  0  0
  159.4280  214.2390  146.0690 O   0  0  0  0  0  0  0  0  0  0  0  0
  162.7980  214.3560  147.5280 C   0  0  0  0  0  1  0  0  0  0  0  0
  161.2560  212.5680  143.4150 O   0  0  0  0  0  1  0  0  0  0  0  0
  159.6780  213.2920  145.0510 C   0  0  0  0  0  2  0  0  0  0  0  0
  161.7720  214.4530  146.4990 N   0  0  0  0  0  0  0  0  0  0  0  0
  160.4380  214.1500  147.0580 C   0  0  2  0  0  3  0  0  0  0  0  0
  162.1020  213.5160  145.4290 C   0  0  0  0  0  2  0  0  0  0  0  0
  1  9  2  0  0  0  0
  2  3  1  6  0  0  0
  2  5  1  0  0  0  0
  3  7  1  0  0  0  0
  4  7  2  0  0  0  0
  4 11  1  0  0  0  0
  5 14  2  0  0  0  0
  6  1  1  0  0  0  0
  8 23  1  6  0  0  0
  8 13  1  0  0  0  0
  8 12  1  0  0  0  0
 10 18  1  0  0  0  0
 10 19  1  0  0  0  0
 13 18  1  6  0  0  0
 13  2  1  0  0  0  0
 14  1  1  0  0  0  0
 15  4  1  0  0  0  0
 16 12  1  6  0  0  0
 16  5  1  0  0  0  0
 16 17  1  0  0  0  0
 17  6  2  0  0  0  0
 19  3  2  0  0  0  0
 20 19  1  0  0  0  0
 20 15  2  0  0  0  0
 21 22  2  0  0  0  0
 22 23  1  0  0  0  0
 24 27  1  6  0  0  0
 24 28  1  0  0  0  0
 24 31  1  0  0  0  0
 25 30  1  0  0  0  0
 28 25  1  0  0  0  0
 29 30  1  0  0  0  0
 29 26  1  0  0  0  0
 30 22  1  6  0  0  0
 31 29  1  0  0  0  0
M  END
>  <MODEL>
4

>  <REMARK>
 VINA RESULT:      -6.1      3.107      5.992
  Name = 
  2 active torsions:
  status: ('A' for Active; 'I' for Inactive)
    1  A    between atoms: C_5  and  C_30
    2  A    between atoms: C_10  and  N_16
                            x       y       z     vdW  Elec       q    Type
                         _______ _______ _______ _____ _____    ______ ____

>  <TORSDO>
F 2

$$$$
=
 OpenBabel11122413283D

 31 35  0  0  1  0  0  0  0  0999 V2000
  161.3140  208.2800  156.3040 C   0  0  0  0  0  0  0  0  0  0  0  0
  161.9150  208.7860  152.6220 C   0  0  2  0  0  3  0  0  0  0  0  0
  161.5230  207.5750  151.7950 C   0  0  0  0  0  0  0  0  0  0  0  0
  161.1710  205.1710  151.6490 C   0  0  0  0  0  0  0  0  0  0  0  0
  161.2600  208.7990  153.9740 C   0  0  0  0  0  0  0  0  0  0  0  0
  160.0080  208.9050  156.5320 C   0  0  0  0  0  3  0  0  0  0  0  0
  161.4540  206.3110  152.4040 C   0  0  0  0  0  3  0  0  0  0  0  0
  160.2180  210.5960  151.9590 C   0  0  2  0  0  3  0  0  0  0  0  0
  161.9370  207.7530  157.2610 O   0  0  0  0  0  0  0  0  0  0  0  0
  161.4070  208.9860  149.6760 C   0  0  0  0  0  2  0  0  0  0  0  0
  161.0870  203.8440  152.3130 C   0  0  0  0  0  1  0  0  0  0  0  0
  159.7380  210.6780  153.4080 C   0  0  0  0  0  2  0  0  0  0  0  0
  161.6860  210.1300  151.8980 C   0  0  2  0  0  3  0  0  0  0  0  0
  161.8910  208.3010  154.9960 N   0  0  0  0  0  0  0  0  0  0  0  0
  160.9720  205.2770  150.2720 C   0  0  0  0  0  3  0  0  0  0  0  0
  159.8400  209.3170  154.0840 C   0  0  2  0  0  3  0  0  0  0  0  0
  159.3330  209.4090  155.4990 C   0  0  0  0  0  3  0  0  0  0  0  0
  162.1910  210.0360  150.4580 C   0  0  0  0  0  2  0  0  0  0  0  0
  161.3580  207.6690  150.3930 C   0  0  0  0  0  0  0  0  0  0  0  0
  161.0650  206.5230  149.6470 C   0  0  0  0  0  3  0  0  0  0  0  0
  157.8460  212.1760  151.9390 O   0  0  0  0  0  0  0  0  0  0  0  0
  158.8630  212.6460  151.3600 C   0  0  0  0  0  0  0  0  0  0  0  0
  160.0820  211.9030  151.3300 N   0  0  0  0  0  2  0  0  0  0  0  0
  157.7520  213.8350  148.0940 C   0  0  1  0  0  3  0  0  0  0  0  0
  157.4960  214.4450  150.4270 O   0  0  0  0  0  0  0  0  0  0  0  0
  161.0450  213.7180  149.8130 C   0  0  0  0  0  1  0  0  0  0  0  0
  157.2180  213.0150  147.1010 O   0  0  0  0  0  1  0  0  0  0  0  0
  156.9450  213.6770  149.3770 C   0  0  0  0  0  2  0  0  0  0  0  0
  159.6940  214.1770  149.5200 N   0  0  0  0  0  0  0  0  0  0  0  0
  158.8150  214.0040  150.6960 C   0  0  2  0  0  3  0  0  0  0  0  0
  159.1840  213.4140  148.3850 C   0  0  0  0  0  2  0  0  0  0  0  0
  1  6  1  0  0  0  0
  1  9  2  0  0  0  0
  2  3  1  6  0  0  0
  2  5  1  0  0  0  0
  3  7  1  0  0  0  0
  4 11  1  0  0  0  0
  4  7  2  0  0  0  0
  5 16  1  0  0  0  0
  5 14  2  0  0  0  0
  8 23  1  1  0  0  0
  8 12  1  0  0  0  0
 10 19  1  0  0  0  0
 10 18  1  0  0  0  0
 13 18  1  6  0  0  0
 13  8  1  0  0  0  0
 13  2  1  0  0  0  0
 14  1  1  0  0  0  0
 15  4  1  0  0  0  0
 16 12  1  1  0  0  0
 16 17  1  0  0  0  0
 17  6  2  0  0  0  0
 19  3  2  0  0  0  0
 20 15  2  0  0  0  0
 20 19  1  0  0  0  0
 22 21  2  0  0  0  0
 23 22  1  0  0  0  0
 24 27  1  6  0  0  0
 24 31  1  0  0  0  0
 24 28  1  0  0  0  0
 25 30  1  0  0  0  0
 28 25  1  0  0  0  0
 29 26  1  0  0  0  0
 29 30  1  0  0  0  0
 30 22  1  6  0  0  0
 31 29  1  0  0  0  0
M  END
>  <MODEL>
5

>  <REMARK>
 VINA RESULT:      -5.6      3.594      6.184
  Name = 
  2 active torsions:
  status: ('A' for Active; 'I' for Inactive)
    1  A    between atoms: C_5  and  C_30
    2  A    between atoms: C_10  and  N_16
                            x       y       z     vdW  Elec       q    Type
                         _______ _______ _______ _____ _____    ______ ____

>  <TORSDO>
F 2

$$$$
=
 OpenBabel11122413283D

 31 35  0  0  1  0  0  0  0  0999 V2000
  160.9230  208.6120  155.5940 C   0  0  0  0  0  0  0  0  0  0  0  0
  162.0580  208.9010  152.0160 C   0  0  2  0  0  3  0  0  0  0  0  0
  161.5740  207.7480  151.1550 C   0  0  0  0  0  0  0  0  0  0  0  0
  160.8420  205.4330  150.9850 C   0  0  0  0  0  0  0  0  0  0  0  0
  161.2510  209.0630  153.2720 C   0  0  0  0  0  0  0  0  0  0  0  0
  159.7240  209.4520  155.6470 C   0  0  0  0  0  3  0  0  0  0  0  0
  161.2170  206.5320  151.7600 C   0  0  0  0  0  3  0  0  0  0  0  0
  160.7890  210.9480  151.1260 C   0  0  2  0  0  3  0  0  0  0  0  0
  161.3230  208.0170  156.6270 O   0  0  0  0  0  0  0  0  0  0  0  0
  161.9650  209.0950  149.0270 C   0  0  0  0  0  2  0  0  0  0  0  0
  160.4520  204.1590  151.6430 C   0  0  0  0  0  1  0  0  0  0  0  0
  160.1510  211.1510  152.5000 C   0  0  0  0  0  2  0  0  0  0  0  0
  162.1530  210.2430  151.2580 C   0  0  2  0  0  3  0  0  0  0  0  0
  161.6550  208.4970  154.3710 N   0  0  0  0  0  0  0  0  0  0  0  0
  160.8380  205.5300  149.5920 C   0  0  0  0  0  3  0  0  0  0  0  0
  159.9360  209.8140  153.1940 C   0  0  2  0  0  3  0  0  0  0  0  0
  159.2790  210.0300  154.5320 C   0  0  0  0  0  3  0  0  0  0  0  0
  162.8110  210.0230  149.8950 C   0  0  0  0  0  2  0  0  0  0  0  0
  161.6050  207.8270  149.7430 C   0  0  0  0  0  0  0  0  0  0  0  0
  161.2180  206.7230  148.9750 C   0  0  0  0  0  3  0  0  0  0  0  0
  160.5010  211.4320  148.3320 O   0  0  0  0  0  0  0  0  0  0  0  0
  160.7920  212.4150  149.0660 C   0  0  0  0  0  0  0  0  0  0  0  0
  160.9550  212.2400  150.4740 N   0  0  0  0  0  2  0  0  0  0  0  0
  159.9740  213.9170  145.8420 C   0  0  1  0  0  3  0  0  0  0  0  0
  159.7360  214.4420  148.1970 O   0  0  0  0  0  0  0  0  0  0  0  0
  163.1570  213.2270  147.6330 C   0  0  0  0  0  1  0  0  0  0  0  0
  159.3570  213.2360  144.7940 O   0  0  0  0  0  1  0  0  0  0  0  0
  159.1110  213.8170  147.0950 C   0  0  0  0  0  2  0  0  0  0  0  0
  161.8990  213.8960  147.3310 N   0  0  0  0  0  0  0  0  0  0  0  0
  160.9660  213.7970  148.4740 C   0  0  2  0  0  3  0  0  0  0  0  0
  161.3180  213.2740  146.1440 C   0  0  0  0  0  2  0  0  0  0  0  0
  1  6  1  0  0  0  0
  1  9  2  0  0  0  0
  2  3  1  6  0  0  0
  2  5  1  0  0  0  0
  3  7  1  0  0  0  0
  4 11  1  0  0  0  0
  4  7  2  0  0  0  0
  5 14  2  0  0  0  0
  8 23  1  1  0  0  0
  8 13  1  0  0  0  0
  8 12  1  0  0  0  0
 10 19  1  0  0  0  0
 10 18  1  0  0  0  0
 13 18  1  6  0  0  0
 13  2  1  0  0  0  0
 14  1  1  0  0  0  0
 15  4  1  0  0  0  0
 16 12  1  1  0  0  0
 16  5  1  0  0  0  0
 16 17  1  0  0  0  0
 17  6  2  0  0  0  0
 19  3  2  0  0  0  0
 20 15  2  0  0  0  0
 20 19  1  0  0  0  0
 21 22  2  0  0  0  0
 22 23  1  0  0  0  0
 24 27  1  6  0  0  0
 24 31  1  0  0  0  0
 24 28  1  0  0  0  0
 25 30  1  0  0  0  0
 28 25  1  0  0  0  0
 29 26  1  0  0  0  0
 29 30  1  0  0  0  0
 30 22  1  6  0  0  0
 31 29  1  0  0  0  0
M  END
>  <MODEL>
6

>  <REMARK>
 VINA RESULT:      -5.0      2.941      5.629
  Name = 
  2 active torsions:
  status: ('A' for Active; 'I' for Inactive)
    1  A    between atoms: C_5  and  C_30
    2  A    between atoms: C_10  and  N_16
                            x       y       z     vdW  Elec       q    Type
                         _______ _______ _______ _____ _____    ______ ____

>  <TORSDO>
F 2

$$$$
=
 OpenBabel11122413283D

 31 35  0  0  1  0  0  0  0  0999 V2000
  162.4120  213.4890  148.0650 C   0  0  0  0  0  0  0  0  0  0  0  0
  159.6560  214.1070  150.5530 C   0  0  2  0  0  3  0  0  0  0  0  0
  158.2760  214.0390  149.9250 C   0  0  0  0  0  0  0  0  0  0  0  0
  156.8660  214.2570  147.9520 C   0  0  0  0  0  0  0  0  0  0  0  0
  160.7020  213.4130  149.7290 C   0  0  0  0  0  0  0  0  0  0  0  0
  162.7200  212.0660  148.2330 C   0  0  0  0  0  3  0  0  0  0  0  0
  158.1320  214.2380  148.5420 C   0  0  0  0  0  3  0  0  0  0  0  0
  159.7570  212.0680  152.1110 C   0  0  2  0  0  3  0  0  0  0  0  0
  163.0480  214.1770  147.2260 O   0  0  0  0  0  0  0  0  0  0  0  0
  157.1910  213.6880  152.2040 C   0  0  0  0  0  2  0  0  0  0  0  0
  156.7350  214.4530  146.4850 C   0  0  0  0  0  1  0  0  0  0  0  0
  160.9470  211.5230  151.3210 C   0  0  0  0  0  2  0  0  0  0  0  0
  159.6970  213.6050  152.0130 C   0  0  2  0  0  3  0  0  0  0  0  0
  161.4090  214.0990  148.8800 N   0  0  0  0  0  0  0  0  0  0  0  0
  155.7270  214.0950  148.7410 C   0  0  0  0  0  3  0  0  0  0  0  0
  160.8370  211.9080  149.8530 C   0  0  2  0  0  3  0  0  0  0  0  0
  162.0000  211.3360  149.0840 C   0  0  0  0  0  3  0  0  0  0  0  0
  158.5110  214.1770  152.7920 C   0  0  0  0  0  2  0  0  0  0  0  0
  157.1140  213.9140  150.7230 C   0  0  0  0  0  0  0  0  0  0  0  0
  155.8510  213.9240  150.1210 C   0  0  0  0  0  3  0  0  0  0  0  0
  160.1630  209.3960  153.0170 O   0  0  0  0  0  0  0  0  0  0  0  0
  160.0810  210.3010  153.8910 C   0  0  0  0  0  0  0  0  0  0  0  0
  159.8730  211.6600  153.5040 N   0  0  0  0  0  2  0  0  0  0  0  0
  159.4760  212.1590  156.9740 C   0  0  1  0  0  3  0  0  0  0  0  0
  158.9660  209.9790  156.0440 O   0  0  0  0  0  0  0  0  0  0  0  0
  162.5080  210.7050  155.3910 C   0  0  0  0  0  1  0  0  0  0  0  0
  159.0190  213.4760  157.0190 O   0  0  0  0  0  1  0  0  0  0  0  0
  158.5030  211.3080  156.1660 C   0  0  0  0  0  2  0  0  0  0  0  0
  161.2390  210.7240  156.1060 N   0  0  0  0  0  0  0  0  0  0  0  0
  160.2080  209.9700  155.3620 C   0  0  2  0  0  3  0  0  0  0  0  0
  160.8280  212.1140  156.2800 C   0  0  0  0  0  2  0  0  0  0  0  0
  1  6  1  0  0  0  0
  1 14  1  0  0  0  0
  2  5  1  6  0  0  0
  2 13  1  0  0  0  0
  3  2  1  0  0  0  0
  3 19  1  0  0  0  0
  4  7  1  0  0  0  0
  4 15  2  0  0  0  0
  5 16  1  0  0  0  0
  6 17  2  0  0  0  0
  7  3  2  0  0  0  0
  8 23  1  1  0  0  0
  9  1  2  0  0  0  0
 10 18  1  0  0  0  0
 11  4  1  0  0  0  0
 12  8  1  0  0  0  0
 13  8  1  0  0  0  0
 13 18  1  1  0  0  0
 14  5  2  0  0  0  0
 15 20  1  0  0  0  0
 16 17  1  6  0  0  0
 16 12  1  0  0  0  0
 19 10  1  0  0  0  0
 20 19  2  0  0  0  0
 21 22  2  0  0  0  0
 23 22  1  0  0  0  0
 24 27  1  6  0  0  0
 25 28  1  0  0  0  0
 26 29  1  0  0  0  0
 28 24  1  0  0  0  0
 29 31  1  0  0  0  0
 30 22  1  6  0  0  0
 30 25  1  0  0  0  0
 30 29  1  0  0  0  0
 31 24  1  0  0  0  0
M  END
>  <MODEL>
7

>  <REMARK>
 VINA RESULT:      -4.7      5.810      8.876
  Name = 
  2 active torsions:
  status: ('A' for Active; 'I' for Inactive)
    1  A    between atoms: C_5  and  C_30
    2  A    between atoms: C_10  and  N_16
                            x       y       z     vdW  Elec       q    Type
                         _______ _______ _______ _____ _____    ______ ____

>  <TORSDO>
F 2

$$$$
