=
 OpenBabel11122413393D

 37 42  0  0  1  0  0  0  0  0999 V2000
  160.4080  208.4980  154.8960 C   0  0  0  0  0  0  0  0  0  0  0  0
  161.6950  206.5910  151.4070 C   0  0  0  0  0  0  0  0  0  0  0  0
  159.6880  206.8500  149.2240 C   0  0  0  0  0  1  0  0  0  0  0  0
  160.9350  206.3240  153.6600 C   0  0  0  0  0  0  0  0  0  0  0  0
  161.7970  207.6800  150.3880 C   0  0  1  0  0  3  0  0  0  0  0  0
  161.2750  207.1190  152.5810 C   0  0  0  0  0  0  0  0  0  0  0  0
  161.1390  207.2980  149.0570 C   0  0  1  0  0  3  0  0  0  0  0  0
  161.0480  204.9700  153.5290 N   0  0  0  0  0  0  0  0  0  0  0  0
  161.0100  208.4950  152.5020 N   0  0  0  0  0  0  0  0  0  0  0  0
  161.7840  208.8740  155.4160 C   0  0  0  0  0  1  0  0  0  0  0  0
  161.9910  204.5920  149.8900 C   0  0  0  0  0  2  0  0  0  0  0  0
  161.4650  204.4000  152.3520 C   0  0  0  0  0  3  0  0  0  0  0  0
  160.1820  209.1470  153.5120 C   0  0  0  0  0  2  0  0  0  0  0  0
  161.7940  205.2060  151.2450 C   0  0  0  0  0  0  0  0  0  0  0  0
  161.1600  208.9110  151.1060 C   0  0  1  0  0  3  0  0  0  0  0  0
  160.2730  206.9550  154.8570 C   0  0  0  0  0  2  0  0  0  0  0  0
  162.0130  206.2670  148.3020 C   0  0  1  0  0  3  0  0  0  0  0  0
  159.3740  209.0440  155.8580 C   0  0  0  0  0  1  0  0  0  0  0  0
  162.8170  205.3960  149.0810 O   0  0  0  0  0  0  0  0  0  0  0  0
  162.4880  210.5900  149.6240 C   0  0  0  0  0  2  0  0  0  0  0  0
  162.1010  211.9580  149.2860 N   0  0  0  0  0  0  0  0  0  0  0  0
  160.0620  212.5700  150.4220 C   0  0  0  0  0  0  0  0  0  0  0  0
  160.6520  211.9970  149.1710 C   0  0  0  0  0  2  0  0  0  0  0  0
  160.2670  211.9330  151.7690 C   0  0  1  0  0  3  0  0  0  0  0  0
  159.2340  211.0460  152.0710 O   0  0  0  0  0  1  0  0  0  0  0  0
  161.6450  211.2990  152.0010 C   0  0  0  0  0  2  0  0  0  0  0  0
  159.3640  213.5670  150.3400 O   0  0  0  0  0  0  0  0  0  0  0  0
  162.0350  210.1710  151.0350 C   0  0  1  0  0  3  0  0  0  0  0  0
  162.3940  213.6820  147.5990 C   0  0  0  0  0  1  0  0  0  0  0  0
  162.6300  212.2280  147.9600 C   0  0  0  0  0  2  0  0  0  0  0  0
  160.7580  206.4490  146.1110 C   0  0  0  0  0  3  0  0  0  0  0  0
  161.4460  205.6650  147.0480 C   0  0  0  0  0  0  0  0  0  0  0  0
  161.6320  204.3000  146.8060 C   0  0  0  0  0  3  0  0  0  0  0  0
  161.3090  202.3950  145.4080 F   0  0  0  0  0  0  0  0  0  0  0  0
  160.4390  204.5010  144.7070 C   0  0  0  0  0  3  0  0  0  0  0  0
  161.1290  203.7180  145.6390 C   0  0  0  0  0  0  0  0  0  0  0  0
  160.2540  205.8660  144.9440 C   0  0  0  0  0  3  0  0  0  0  0  0
  1 10  1  0  0  0  0
  1 18  1  0  0  0  0
  2  6  1  0  0  0  0
  4 16  1  0  0  0  0
  5 15  1  0  0  0  0
  5  2  1  1  0  0  0
  6  4  2  0  0  0  0
  7  3  1  1  0  0  0
  7  5  1  0  0  0  0
  8  4  1  0  0  0  0
  9  6  1  0  0  0  0
  9 13  1  0  0  0  0
 11 14  1  0  0  0  0
 12  8  2  0  0  0  0
 13  1  1  0  0  0  0
 14  2  2  0  0  0  0
 14 12  1  0  0  0  0
 15  9  1  1  0  0  0
 16  1  1  0  0  0  0
 17 32  1  1  0  0  0
 17  7  1  0  0  0  0
 17 19  1  0  0  0  0
 19 11  1  0  0  0  0
 21 20  1  0  0  0  0
 22 24  1  0  0  0  0
 23 21  1  0  0  0  0
 23 22  1  0  0  0  0
 24 26  1  0  0  0  0
 24 25  1  6  0  0  0
 27 22  2  0  0  0  0
 28 20  1  6  0  0  0
 28 15  1  0  0  0  0
 28 26  1  0  0  0  0
 29 30  1  0  0  0  0
 30 21  1  0  0  0  0
 31 32  1  0  0  0  0
 33 32  2  0  0  0  0
 34 36  1  0  0  0  0
 35 37  1  0  0  0  0
 35 36  2  0  0  0  0
 36 33  1  0  0  0  0
 37 31  2  0  0  0  0
M  END
>  <MODEL>
1

>  <REMARK>
 VINA RESULT:      -4.3      0.000      0.000
  Name = 
  3 active torsions:
  status: ('A' for Active; 'I' for Inactive)
    1  A    between atoms: N_4  and  C_37
    2  A    between atoms: C_21  and  C_27
    3  A    between atoms: C_23  and  C_30
                            x       y       z     vdW  Elec       q    Type
                         _______ _______ _______ _____ _____    ______ ____

>  <TORSDO>
F 3

$$$$
=
 OpenBabel11122413393D

 37 42  0  0  1  0  0  0  0  0999 V2000
  159.5950  210.7470  155.0070 C   0  0  0  0  0  0  0  0  0  0  0  0
  161.6250  208.1780  152.4100 C   0  0  0  0  0  0  0  0  0  0  0  0
  159.9370  207.4400  150.0720 C   0  0  0  0  0  1  0  0  0  0  0  0
  160.5940  208.4380  154.5530 C   0  0  0  0  0  0  0  0  0  0  0  0
  161.7200  208.9290  151.1210 C   0  0  1  0  0  3  0  0  0  0  0  0
  160.9710  208.9370  153.3200 C   0  0  0  0  0  0  0  0  0  0  0  0
  161.3210  208.0700  149.9150 C   0  0  1  0  0  3  0  0  0  0  0  0
  160.9130  207.1460  154.8550 N   0  0  0  0  0  0  0  0  0  0  0  0
  160.5300  210.1640  152.7980 N   0  0  0  0  0  0  0  0  0  0  0  0
  160.8160  211.4930  155.5150 C   0  0  0  0  0  1  0  0  0  0  0  0
  162.4140  205.9120  151.6140 C   0  0  0  0  0  2  0  0  0  0  0  0
  161.5710  206.3450  153.9550 C   0  0  0  0  0  3  0  0  0  0  0  0
  159.4820  210.9210  153.4760 C   0  0  0  0  0  2  0  0  0  0  0  0
  161.9400  206.8440  152.6900 C   0  0  0  0  0  0  0  0  0  0  0  0
  160.8200  210.1810  151.3630 C   0  0  1  0  0  3  0  0  0  0  0  0
  159.6850  209.2590  155.4300 C   0  0  0  0  0  2  0  0  0  0  0  0
  162.4290  207.0380  149.5990 C   0  0  1  0  0  3  0  0  0  0  0  0
  158.3670  211.3540  155.6510 C   0  0  0  0  0  1  0  0  0  0  0  0
  163.2270  206.5830  150.6810 O   0  0  0  0  0  0  0  0  0  0  0  0
  162.2430  211.5150  149.6380 C   0  0  0  0  0  2  0  0  0  0  0  0
  161.7760  212.5780  148.7500 N   0  0  0  0  0  0  0  0  0  0  0  0
  159.4560  213.0830  149.1770 C   0  0  0  0  0  0  0  0  0  0  0  0
  160.4090  212.2670  148.3610 C   0  0  0  0  0  2  0  0  0  0  0  0
  159.3990  212.9880  150.6770 C   0  0  1  0  0  3  0  0  0  0  0  0
  158.4500  212.0530  151.0890 O   0  0  0  0  0  1  0  0  0  0  0  0
  160.7460  212.7760  151.3800 C   0  0  0  0  0  2  0  0  0  0  0  0
  158.6750  213.8240  148.6020 O   0  0  0  0  0  0  0  0  0  0  0  0
  161.5110  211.5020  150.9930 C   0  0  1  0  0  3  0  0  0  0  0  0
  162.0070  213.4210  146.4830 C   0  0  0  0  0  1  0  0  0  0  0  0
  162.5790  212.4990  147.5420 C   0  0  0  0  0  2  0  0  0  0  0  0
  161.6540  204.7390  148.8770 C   0  0  0  0  0  3  0  0  0  0  0  0
  162.1380  206.0110  148.5420 C   0  0  0  0  0  0  0  0  0  0  0  0
  162.3330  206.3460  147.1980 C   0  0  0  0  0  3  0  0  0  0  0  0
  162.2460  205.7410  144.8930 F   0  0  0  0  0  0  0  0  0  0  0  0
  161.5750  204.1440  146.5310 C   0  0  0  0  0  3  0  0  0  0  0  0
  162.0540  205.4140  146.1940 C   0  0  0  0  0  0  0  0  0  0  0  0
  161.3750  203.8070  147.8730 C   0  0  0  0  0  3  0  0  0  0  0  0
  1 16  1  0  0  0  0
  1 10  1  0  0  0  0
  1 18  1  0  0  0  0
  2 14  2  0  0  0  0
  2  6  1  0  0  0  0
  4  8  1  0  0  0  0
  4 16  1  0  0  0  0
  5 15  1  0  0  0  0
  5  2  1  1  0  0  0
  6  4  2  0  0  0  0
  7  3  1  1  0  0  0
  7  5  1  0  0  0  0
  9  6  1  0  0  0  0
  9 13  1  0  0  0  0
 11 14  1  0  0  0  0
 12  8  2  0  0  0  0
 13  1  1  0  0  0  0
 14 12  1  0  0  0  0
 15  9  1  1  0  0  0
 17 32  1  1  0  0  0
 17  7  1  0  0  0  0
 17 19  1  0  0  0  0
 19 11  1  0  0  0  0
 21 20  1  0  0  0  0
 22 24  1  0  0  0  0
 23 21  1  0  0  0  0
 23 22  1  0  0  0  0
 24 25  1  6  0  0  0
 24 26  1  0  0  0  0
 27 22  2  0  0  0  0
 28 20  1  6  0  0  0
 28 15  1  0  0  0  0
 28 26  1  0  0  0  0
 29 30  1  0  0  0  0
 30 21  1  0  0  0  0
 32 31  1  0  0  0  0
 33 32  2  0  0  0  0
 34 36  1  0  0  0  0
 35 37  1  0  0  0  0
 36 35  2  0  0  0  0
 36 33  1  0  0  0  0
 37 31  2  0  0  0  0
M  END
>  <MODEL>
2

>  <REMARK>
 VINA RESULT:      -4.2      1.450      2.055
  Name = 
  3 active torsions:
  status: ('A' for Active; 'I' for Inactive)
    1  A    between atoms: N_4  and  C_37
    2  A    between atoms: C_21  and  C_27
    3  A    between atoms: C_23  and  C_30
                            x       y       z     vdW  Elec       q    Type
                         _______ _______ _______ _____ _____    ______ ____

>  <TORSDO>
F 3

$$$$
=
 OpenBabel11122413393D

 37 42  0  0  1  0  0  0  0  0999 V2000
  158.1740  213.4330  156.2450 C   0  0  0  0  0  0  0  0  0  0  0  0
  160.5840  210.5390  154.4340 C   0  0  0  0  0  0  0  0  0  0  0  0
  159.0560  208.9510  152.4320 C   0  0  0  0  0  1  0  0  0  0  0  0
  159.4870  211.2480  156.4380 C   0  0  0  0  0  0  0  0  0  0  0  0
  160.5990  210.9020  152.9830 C   0  0  1  0  0  3  0  0  0  0  0  0
  159.8150  211.4270  155.1060 C   0  0  0  0  0  0  0  0  0  0  0  0
  160.3430  209.6940  152.0760 C   0  0  1  0  0  3  0  0  0  0  0  0
  159.9740  210.1490  157.0840 N   0  0  0  0  0  0  0  0  0  0  0  0
  159.2210  212.3850  154.2700 N   0  0  0  0  0  0  0  0  0  0  0  0
  159.2720  214.4500  156.4980 C   0  0  0  0  0  1  0  0  0  0  0  0
  161.6890  208.2700  154.2900 C   0  0  0  0  0  2  0  0  0  0  0  0
  160.7510  209.2250  156.4320 C   0  0  0  0  0  3  0  0  0  0  0  0
  158.0670  213.1520  154.7290 C   0  0  0  0  0  2  0  0  0  0  0  0
  161.0720  209.3930  155.0710 C   0  0  0  0  0  0  0  0  0  0  0  0
  159.5330  212.0370  152.8830 C   0  0  1  0  0  3  0  0  0  0  0  0
  158.4580  212.1500  157.0670 C   0  0  0  0  0  2  0  0  0  0  0  0
  161.5880  208.7750  152.0400 C   0  0  1  0  0  3  0  0  0  0  0  0
  156.8630  214.0240  156.7180 C   0  0  0  0  0  1  0  0  0  0  0  0
  162.4200  208.7550  153.1890 O   0  0  0  0  0  0  0  0  0  0  0  0
  160.9130  213.0100  150.9010 C   0  0  0  0  0  2  0  0  0  0  0  0
  160.3880  213.6370  149.6900 N   0  0  0  0  0  0  0  0  0  0  0  0
  157.9840  213.8090  149.7960 C   0  0  0  0  0  0  0  0  0  0  0  0
  159.1410  212.9720  149.3470 C   0  0  0  0  0  2  0  0  0  0  0  0
  157.7730  214.1760  151.2390 C   0  0  1  0  0  3  0  0  0  0  0  0
  156.9430  213.2560  151.8790 O   0  0  0  0  0  1  0  0  0  0  0  0
  159.0480  214.4480  152.0480 C   0  0  0  0  0  2  0  0  0  0  0  0
  157.1660  214.1760  148.9680 O   0  0  0  0  0  0  0  0  0  0  0  0
  160.0430  213.2820  152.1420 C   0  0  1  0  0  3  0  0  0  0  0  0
  161.9360  211.9680  148.8430 C   0  0  0  0  0  1  0  0  0  0  0  0
  161.3250  213.3380  148.6210 C   0  0  0  0  0  2  0  0  0  0  0  0
  161.6530  206.2450  151.9880 C   0  0  0  0  0  3  0  0  0  0  0  0
  161.4600  207.4630  151.3210 C   0  0  0  0  0  0  0  0  0  0  0  0
  161.1150  207.4620  149.9650 C   0  0  0  0  0  3  0  0  0  0  0  0
  160.6420  206.2570  147.9620 F   0  0  0  0  0  0  0  0  0  0  0  0
  161.1710  205.0410  149.9430 C   0  0  0  0  0  3  0  0  0  0  0  0
  160.9730  206.2540  149.2760 C   0  0  0  0  0  0  0  0  0  0  0  0
  161.5110  205.0370  151.2990 C   0  0  0  0  0  3  0  0  0  0  0  0
  1 10  1  0  0  0  0
  1 18  1  0  0  0  0
  1 16  1  0  0  0  0
  2 14  2  0  0  0  0
  2  6  1  0  0  0  0
  4 16  1  0  0  0  0
  4  8  1  0  0  0  0
  5  2  1  1  0  0  0
  6  4  2  0  0  0  0
  7  3  1  1  0  0  0
  7  5  1  0  0  0  0
  9 13  1  0  0  0  0
  9  6  1  0  0  0  0
 11 14  1  0  0  0  0
 12  8  2  0  0  0  0
 13  1  1  0  0  0  0
 14 12  1  0  0  0  0
 15  5  1  0  0  0  0
 15  9  1  1  0  0  0
 17 32  1  1  0  0  0
 17  7  1  0  0  0  0
 17 19  1  0  0  0  0
 19 11  1  0  0  0  0
 21 20  1  0  0  0  0
 22 24  1  0  0  0  0
 23 21  1  0  0  0  0
 23 22  1  0  0  0  0
 24 25  1  1  0  0  0
 24 26  1  0  0  0  0
 26 28  1  0  0  0  0
 27 22  2  0  0  0  0
 28 20  1  6  0  0  0
 28 15  1  0  0  0  0
 30 29  1  0  0  0  0
 30 21  1  0  0  0  0
 32 31  1  0  0  0  0
 33 32  2  0  0  0  0
 34 36  1  0  0  0  0
 35 37  1  0  0  0  0
 36 35  2  0  0  0  0
 36 33  1  0  0  0  0
 37 31  2  0  0  0  0
M  END
>  <MODEL>
3

>  <REMARK>
 VINA RESULT:      -2.7      2.749      4.681
  Name = 
  3 active torsions:
  status: ('A' for Active; 'I' for Inactive)
    1  A    between atoms: N_4  and  C_37
    2  A    between atoms: C_21  and  C_27
    3  A    between atoms: C_23  and  C_30
                            x       y       z     vdW  Elec       q    Type
                         _______ _______ _______ _____ _____    ______ ____

>  <TORSDO>
F 3

$$$$
