=
 OpenBabel11122414273D

 34 41  0  0  1  0  0  0  0  0999 V2000
  161.1640  209.3390  151.2220 C   0  0  2  0  0  3  0  0  0  0  0  0
  161.2680  211.1610  152.8210 C   0  0  0  0  0  2  0  0  0  0  0  0
  161.0170  202.7150  149.6850 C   0  0  0  0  0  0  0  0  0  0  0  0
  161.0330  207.3250  149.7100 C   0  0  1  0  0  3  0  0  0  0  0  0
  161.0280  204.9960  150.7660 C   0  0  1  0  0  3  0  0  0  0  0  0
  161.1830  202.7440  151.8690 C   0  0  0  0  0  2  0  0  0  0  0  0
  160.5540  201.8630  150.8450 C   0  0  0  0  0  2  0  0  0  0  0  0
  161.6910  204.0520  147.4470 S   0  0  0  0  0  0  0  0  0  0  0  0
  160.8370  209.0570  153.5170 C   0  0  1  0  0  3  0  0  0  0  0  0
  160.0690  208.2550  156.6020 C   0  0  0  0  0  2  0  0  0  0  0  0
  161.4830  205.7060  152.0480 C   0  0  0  0  0  2  0  0  0  0  0  0
  160.6940  205.3350  148.2610 C   0  0  0  0  0  2  0  0  0  0  0  0
  161.1840  207.5650  153.4860 C   0  0  2  0  0  3  0  0  0  0  0  0
  161.0730  211.2490  154.3340 C   0  0  0  0  0  2  0  0  0  0  0  0
  161.4030  205.8460  149.5190 C   0  0  1  0  0  3  0  0  0  0  0  0
  160.8810  202.7470  148.3640 C   0  0  0  0  0  3  0  0  0  0  0  0
  159.8560  209.5190  155.7560 C   0  0  2  0  0  3  0  0  0  0  0  0
  161.4900  207.8360  151.0820 C   0  0  2  0  0  3  0  0  0  0  0  0
  161.6670  203.5940  150.7370 C   0  0  1  0  0  3  0  0  0  0  0  0
  160.8700  207.0270  152.1480 N   0  0  1  0  0  0  0  0  0  0  0  0
  162.4980  209.3160  149.0180 C   0  0  0  0  0  2  0  0  0  0  0  0
  160.8650  207.1310  155.9350 C   0  0  0  0  0  2  0  0  0  0  0  0
  161.5710  208.1920  148.5530 C   0  0  0  0  0  2  0  0  0  0  0  0
  160.3570  206.8160  154.5370 C   0  0  0  0  0  2  0  0  0  0  0  0
  161.0340  209.8040  154.8160 C   0  0  1  0  0  3  0  0  0  0  0  0
  161.8290  210.1680  150.1020 C   0  0  0  0  0  2  0  0  0  0  0  0
  161.6220  209.7770  152.5370 N   0  0  1  0  0  0  0  0  0  0  0  0
  159.6210  210.5970  156.6130 O   0  0  0  0  0  0  0  0  0  0  0  0
  158.2290  210.7040  156.6830 C   0  0  0  0  0  2  0  0  0  0  0  0
  155.5750  212.2810  155.6590 O   0  0  0  0  0  0  0  0  0  0  0  0
  157.8660  212.7320  155.3180 C   0  0  0  0  0  2  0  0  0  0  0  0
  157.6840  211.2420  155.3730 C   0  0  2  0  0  3  0  0  0  0  0  0
  156.4600  213.2650  155.1960 C   0  0  0  0  0  2  0  0  0  0  0  0
  156.1850  211.0590  155.3380 C   0  0  0  0  0  2  0  0  0  0  0  0
  1 26  1  6  0  0  0
  1 27  1  0  0  0  0
  2 14  1  0  0  0  0
  3 19  1  0  0  0  0
  3  7  1  0  0  0  0
  4 23  1  6  0  0  0
  4 18  1  0  0  0  0
  5 11  1  1  0  0  0
  7  6  1  0  0  0  0
  8 12  1  0  0  0  0
  8 16  1  0  0  0  0
  9 25  1  0  0  0  0
 11 20  1  0  0  0  0
 12 15  1  0  0  0  0
 13  9  1  0  0  0  0
 13 24  1  0  0  0  0
 14 25  1  0  0  0  0
 15  4  1  0  0  0  0
 15  5  1  0  0  0  0
 16  3  2  0  0  0  0
 17 10  1  0  0  0  0
 17 28  1  0  0  0  0
 18  1  1  0  0  0  0
 18 20  1  0  0  0  0
 19  5  1  0  0  0  0
 19  6  1  0  0  0  0
 20 13  1  0  0  0  0
 21 26  1  0  0  0  0
 22 10  1  0  0  0  0
 23 21  1  0  0  0  0
 24 22  1  0  0  0  0
 25 17  1  0  0  0  0
 27  2  1  0  0  0  0
 27  9  1  0  0  0  0
 28 29  1  0  0  0  0
 31 32  1  0  0  0  0
 32 29  1  0  0  0  0
 33 31  1  0  0  0  0
 33 30  1  0  0  0  0
 34 32  1  0  0  0  0
 34 30  1  0  0  0  0
M  END
>  <MODEL>
1

>  <REMARK>
 VINA RESULT:      -8.9      0.000      0.000
  Name = 
  3 active torsions:
  status: ('A' for Active; 'I' for Inactive)
    1  A    between atoms: C_17  and  O_28
    2  A    between atoms: O_28  and  C_29
    3  A    between atoms: C_29  and  C_32
                            x       y       z     vdW  Elec       q    Type
                         _______ _______ _______ _____ _____    ______ ____

>  <TORSDO>
F 3

$$$$
=
 OpenBabel11122414273D

 34 41  0  0  1  0  0  0  0  0999 V2000
  161.2050  209.2760  151.2090 C   0  0  2  0  0  3  0  0  0  0  0  0
  161.3110  211.0700  152.8380 C   0  0  0  0  0  2  0  0  0  0  0  0
  161.0300  202.6790  149.5620 C   0  0  0  0  0  0  0  0  0  0  0  0
  161.0710  207.2880  149.6630 C   0  0  1  0  0  3  0  0  0  0  0  0
  161.0480  204.9420  150.6810 C   0  0  1  0  0  3  0  0  0  0  0  0
  161.1840  202.6710  151.7470 C   0  0  0  0  0  2  0  0  0  0  0  0
  160.5560  201.8110  150.7050 C   0  0  0  0  0  2  0  0  0  0  0  0
  161.7220  204.0490  147.3490 S   0  0  0  0  0  0  0  0  0  0  0  0
  160.8650  208.9580  153.4970 C   0  0  1  0  0  3  0  0  0  0  0  0
  160.0760  208.1100  156.5650 C   0  0  0  0  0  2  0  0  0  0  0  0
  161.5000  205.6280  151.9760 C   0  0  0  0  0  2  0  0  0  0  0  0
  160.7280  205.3240  148.1800 C   0  0  0  0  0  2  0  0  0  0  0  0
  161.2040  207.4650  153.4430 C   0  0  2  0  0  3  0  0  0  0  0  0
  161.1080  211.1350  154.3510 C   0  0  0  0  0  2  0  0  0  0  0  0
  161.4340  205.8100  149.4500 C   0  0  1  0  0  3  0  0  0  0  0  0
  160.9010  202.7330  148.2420 C   0  0  0  0  0  3  0  0  0  0  0  0
  159.8750  209.3890  155.7380 C   0  0  2  0  0  3  0  0  0  0  0  0
  161.5230  207.7740  151.0460 C   0  0  2  0  0  3  0  0  0  0  0  0
  161.6790  203.5370  150.6320 C   0  0  1  0  0  3  0  0  0  0  0  0
  160.8940  206.9510  152.0950 N   0  0  1  0  0  0  0  0  0  0  0  0
  162.5500  209.2820  149.0110 C   0  0  0  0  0  2  0  0  0  0  0  0
  160.8710  206.9930  155.8830 C   0  0  0  0  0  2  0  0  0  0  0  0
  161.6190  208.1710  148.5230 C   0  0  0  0  0  2  0  0  0  0  0  0
  160.3680  206.7030  154.4780 C   0  0  0  0  0  2  0  0  0  0  0  0
  161.0590  209.6820  154.8090 C   0  0  1  0  0  3  0  0  0  0  0  0
  161.8800  210.1200  150.1050 C   0  0  0  0  0  2  0  0  0  0  0  0
  161.6590  209.6900  152.5330 N   0  0  1  0  0  0  0  0  0  0  0  0
  159.6420  210.4540  156.6120 O   0  0  0  0  0  0  0  0  0  0  0  0
  158.3710  210.9270  156.2700 C   0  0  0  0  0  2  0  0  0  0  0  0
  159.9860  213.7500  156.2470 O   0  0  0  0  0  0  0  0  0  0  0  0
  157.7430  213.2510  155.7110 C   0  0  0  0  0  2  0  0  0  0  0  0
  158.1770  212.3300  156.8150 C   0  0  2  0  0  3  0  0  0  0  0  0
  158.8370  214.2880  155.6520 C   0  0  0  0  0  2  0  0  0  0  0  0
  159.5130  212.8900  157.2490 C   0  0  0  0  0  2  0  0  0  0  0  0
  1 26  1  6  0  0  0
  1 27  1  0  0  0  0
  2 14  1  0  0  0  0
  3 19  1  0  0  0  0
  3  7  1  0  0  0  0
  4 23  1  6  0  0  0
  4 18  1  0  0  0  0
  5 11  1  1  0  0  0
  7  6  1  0  0  0  0
  8 12  1  0  0  0  0
  8 16  1  0  0  0  0
  9 25  1  0  0  0  0
 11 20  1  0  0  0  0
 12 15  1  0  0  0  0
 13  9  1  0  0  0  0
 13 24  1  0  0  0  0
 14 25  1  0  0  0  0
 15  4  1  0  0  0  0
 15  5  1  0  0  0  0
 16  3  2  0  0  0  0
 17 10  1  0  0  0  0
 17 28  1  0  0  0  0
 18  1  1  0  0  0  0
 18 20  1  0  0  0  0
 19  5  1  0  0  0  0
 19  6  1  0  0  0  0
 20 13  1  0  0  0  0
 21 26  1  0  0  0  0
 22 10  1  0  0  0  0
 23 21  1  0  0  0  0
 24 22  1  0  0  0  0
 25 17  1  0  0  0  0
 27  2  1  0  0  0  0
 27  9  1  0  0  0  0
 29 28  1  0  0  0  0
 29 32  1  0  0  0  0
 30 34  1  0  0  0  0
 31 32  1  0  0  0  0
 32 34  1  0  0  0  0
 33 31  1  0  0  0  0
 33 30  1  0  0  0  0
M  END
>  <MODEL>
2

>  <REMARK>
 VINA RESULT:      -8.7      0.951      1.230
  Name = 
  3 active torsions:
  status: ('A' for Active; 'I' for Inactive)
    1  A    between atoms: C_17  and  O_28
    2  A    between atoms: O_28  and  C_29
    3  A    between atoms: C_29  and  C_32
                            x       y       z     vdW  Elec       q    Type
                         _______ _______ _______ _____ _____    ______ ____

>  <TORSDO>
F 3

$$$$
=
 OpenBabel11122414273D

 34 41  0  0  1  0  0  0  0  0999 V2000
  160.5310  207.6590  154.1380 C   0  0  2  0  0  3  0  0  0  0  0  0
  161.5280  205.5100  153.6140 C   0  0  0  0  0  2  0  0  0  0  0  0
  158.9110  214.0650  152.5300 C   0  0  0  0  0  0  0  0  0  0  0  0
  159.5220  209.9420  154.4980 C   0  0  1  0  0  3  0  0  0  0  0  0
  159.6650  211.6580  152.6070 C   0  0  1  0  0  3  0  0  0  0  0  0
  159.9800  213.3350  150.7630 C   0  0  0  0  0  2  0  0  0  0  0  0
  158.8730  214.2940  151.0360 C   0  0  0  0  0  2  0  0  0  0  0  0
  158.7460  213.8360  155.2080 S   0  0  0  0  0  0  0  0  0  0  0  0
  161.1660  207.0260  151.9810 C   0  0  1  0  0  3  0  0  0  0  0  0
  161.6690  206.4590  148.7910 C   0  0  0  0  0  2  0  0  0  0  0  0
  160.7020  210.7130  151.9870 C   0  0  0  0  0  2  0  0  0  0  0  0
  158.3560  212.1210  154.7450 C   0  0  0  0  0  2  0  0  0  0  0  0
  161.2740  208.4700  151.4800 C   0  0  2  0  0  3  0  0  0  0  0  0
  161.9990  204.8540  152.3170 C   0  0  0  0  0  2  0  0  0  0  0  0
  159.5860  211.4360  154.1440 C   0  0  1  0  0  3  0  0  0  0  0  0
  158.2380  214.4530  153.6070 C   0  0  0  0  0  3  0  0  0  0  0  0
  161.2830  205.5600  149.9750 C   0  0  2  0  0  3  0  0  0  0  0  0
  160.5740  209.1430  153.7170 C   0  0  2  0  0  3  0  0  0  0  0  0
  160.0480  213.1040  152.2400 C   0  0  1  0  0  3  0  0  0  0  0  0
  160.3620  209.3210  152.2690 N   0  0  1  0  0  0  0  0  0  0  0  0
  160.8010  208.8220  156.4210 C   0  0  0  0  0  2  0  0  0  0  0  0
  161.9610  207.9230  149.1320 C   0  0  0  0  0  2  0  0  0  0  0  0
  159.6300  209.7200  156.0210 C   0  0  0  0  0  2  0  0  0  0  0  0
  160.8780  208.5400  150.0010 C   0  0  0  0  0  2  0  0  0  0  0  0
  161.9830  205.9680  151.2780 C   0  0  1  0  0  3  0  0  0  0  0  0
  160.7640  207.4950  155.6560 C   0  0  0  0  0  2  0  0  0  0  0  0
  161.5510  206.9460  153.3740 N   0  0  1  0  0  0  0  0  0  0  0  0
  161.5690  204.2340  149.6420 O   0  0  0  0  0  0  0  0  0  0  0  0
  160.8250  203.9860  148.4840 C   0  0  0  0  0  2  0  0  0  0  0  0
  160.2210  201.5930  146.3660 O   0  0  0  0  0  0  0  0  0  0  0  0
  161.4530  203.5900  146.1270 C   0  0  0  0  0  2  0  0  0  0  0  0
  161.6190  203.1040  147.5370 C   0  0  2  0  0  3  0  0  0  0  0  0
  160.8260  202.4200  145.4100 C   0  0  0  0  0  2  0  0  0  0  0  0
  161.0150  201.7190  147.5160 C   0  0  0  0  0  2  0  0  0  0  0  0
  1 26  1  1  0  0  0
  3 16  2  0  0  0  0
  4 23  1  1  0  0  0
  5 11  1  1  0  0  0
  5 15  1  0  0  0  0
  6  7  1  0  0  0  0
  6 19  1  0  0  0  0
  7  3  1  0  0  0  0
  9 27  1  0  0  0  0
 10 22  1  0  0  0  0
 10 17  1  0  0  0  0
 11 20  1  0  0  0  0
 12  8  1  0  0  0  0
 13  9  1  0  0  0  0
 13 20  1  0  0  0  0
 14  2  1  0  0  0  0
 15  4  1  0  0  0  0
 15 12  1  0  0  0  0
 16  8  1  0  0  0  0
 17 25  1  0  0  0  0
 18  1  1  0  0  0  0
 18  4  1  0  0  0  0
 19  3  1  0  0  0  0
 19  5  1  0  0  0  0
 20 18  1  0  0  0  0
 22 24  1  0  0  0  0
 23 21  1  0  0  0  0
 24 13  1  0  0  0  0
 25  9  1  0  0  0  0
 25 14  1  0  0  0  0
 26 21  1  0  0  0  0
 27  2  1  0  0  0  0
 27  1  1  0  0  0  0
 28 17  1  0  0  0  0
 29 28  1  0  0  0  0
 30 34  1  0  0  0  0
 31 32  1  0  0  0  0
 32 29  1  0  0  0  0
 33 31  1  0  0  0  0
 33 30  1  0  0  0  0
 34 32  1  0  0  0  0
M  END
>  <MODEL>
3

>  <REMARK>
 VINA RESULT:      -7.6      3.987      9.020
  Name = 
  3 active torsions:
  status: ('A' for Active; 'I' for Inactive)
    1  A    between atoms: C_17  and  O_28
    2  A    between atoms: O_28  and  C_29
    3  A    between atoms: C_29  and  C_32
                            x       y       z     vdW  Elec       q    Type
                         _______ _______ _______ _____ _____    ______ ____

>  <TORSDO>
F 3

$$$$
=
 OpenBabel11122414273D

 34 41  0  0  1  0  0  0  0  0999 V2000
  162.0340  208.7370  150.0130 C   0  0  2  0  0  3  0  0  0  0  0  0
  162.0150  207.7080  147.8170 C   0  0  0  0  0  2  0  0  0  0  0  0
  160.6910  208.6570  156.6800 C   0  0  0  0  0  0  0  0  0  0  0  0
  161.9980  209.6370  152.3690 C   0  0  1  0  0  3  0  0  0  0  0  0
  161.0350  208.1670  154.2280 C   0  0  1  0  0  3  0  0  0  0  0  0
  159.9350  206.7290  155.9700 C   0  0  0  0  0  2  0  0  0  0  0  0
  160.5440  207.2540  157.2240 C   0  0  0  0  0  2  0  0  0  0  0  0
  161.0880  211.2230  155.9640 S   0  0  0  0  0  0  0  0  0  0  0  0
  161.6080  206.4690  149.6580 C   0  0  1  0  0  3  0  0  0  0  0  0
  161.2130  203.2130  149.6430 C   0  0  0  0  0  2  0  0  0  0  0  0
  160.4630  207.3100  153.0920 C   0  0  0  0  0  2  0  0  0  0  0  0
  162.1420  210.4100  154.7260 C   0  0  0  0  0  2  0  0  0  0  0  0
  160.8690  206.2950  150.9900 C   0  0  2  0  0  3  0  0  0  0  0  0
  161.7940  206.2790  147.3230 C   0  0  0  0  0  2  0  0  0  0  0  0
  161.2870  209.6190  153.7310 C   0  0  1  0  0  3  0  0  0  0  0  0
  161.1960  209.8220  157.0720 C   0  0  0  0  0  3  0  0  0  0  0  0
  162.0100  204.1850  148.7590 C   0  0  2  0  0  3  0  0  0  0  0  0
  161.3420  208.6530  151.3910 C   0  0  2  0  0  3  0  0  0  0  0  0
  160.0540  208.1140  155.4150 C   0  0  1  0  0  3  0  0  0  0  0  0
  161.3770  207.2910  151.9530 N   0  0  1  0  0  0  0  0  0  0  0  0
  161.4260  211.2070  150.4220 C   0  0  0  0  0  2  0  0  0  0  0  0
  160.3470  203.8560  150.7290 C   0  0  0  0  0  2  0  0  0  0  0  0
  162.0810  211.0660  151.7960 C   0  0  0  0  0  2  0  0  0  0  0  0
  161.1140  204.8870  151.5430 C   0  0  0  0  0  2  0  0  0  0  0  0
  161.2780  205.5140  148.5350 C   0  0  1  0  0  3  0  0  0  0  0  0
  161.9790  210.1700  149.4390 C   0  0  0  0  0  2  0  0  0  0  0  0
  161.3720  207.7920  149.1200 N   0  0  1  0  0  0  0  0  0  0  0  0
  162.2950  203.5540  147.5450 O   0  0  0  0  0  0  0  0  0  0  0  0
  161.1070  202.9080  147.1890 C   0  0  0  0  0  2  0  0  0  0  0  0
  159.0020  201.8880  144.9290 O   0  0  0  0  0  0  0  0  0  0  0  0
  160.5630  203.6570  144.8980 C   0  0  0  0  0  2  0  0  0  0  0  0
  161.1390  202.5390  145.7170 C   0  0  2  0  0  3  0  0  0  0  0  0
  159.3790  203.0280  144.2060 C   0  0  0  0  0  2  0  0  0  0  0  0
  160.1960  201.3840  145.4680 C   0  0  0  0  0  2  0  0  0  0  0  0
  1 26  1  6  0  0  0
  1 18  1  0  0  0  0
  2 27  1  0  0  0  0
  3 16  2  0  0  0  0
  3  7  1  0  0  0  0
  4 23  1  6  0  0  0
  4 15  1  0  0  0  0
  5 11  1  6  0  0  0
  5 19  1  0  0  0  0
  6  7  1  0  0  0  0
  8 16  1  0  0  0  0
  9 13  1  0  0  0  0
 10 22  1  0  0  0  0
 12  8  1  0  0  0  0
 13 24  1  0  0  0  0
 13 20  1  0  0  0  0
 14  2  1  0  0  0  0
 14 25  1  0  0  0  0
 15  5  1  0  0  0  0
 15 12  1  0  0  0  0
 17 10  1  0  0  0  0
 18 20  1  0  0  0  0
 18  4  1  0  0  0  0
 19  6  1  0  0  0  0
 19  3  1  0  0  0  0
 20 11  1  0  0  0  0
 21 23  1  0  0  0  0
 22 24  1  0  0  0  0
 25 17  1  0  0  0  0
 25  9  1  0  0  0  0
 26 21  1  0  0  0  0
 27  9  1  0  0  0  0
 27  1  1  0  0  0  0
 28 17  1  0  0  0  0
 29 28  1  0  0  0  0
 30 34  1  0  0  0  0
 31 32  1  0  0  0  0
 32 29  1  0  0  0  0
 33 31  1  0  0  0  0
 33 30  1  0  0  0  0
 34 32  1  0  0  0  0
M  END
>  <MODEL>
4

>  <REMARK>
 VINA RESULT:      -7.3      4.189      8.459
  Name = 
  3 active torsions:
  status: ('A' for Active; 'I' for Inactive)
    1  A    between atoms: C_17  and  O_28
    2  A    between atoms: O_28  and  C_29
    3  A    between atoms: C_29  and  C_32
                            x       y       z     vdW  Elec       q    Type
                         _______ _______ _______ _____ _____    ______ ____

>  <TORSDO>
F 3

$$$$
=
 OpenBabel11122414273D

 34 41  0  0  1  0  0  0  0  0999 V2000
  161.3310  204.9850  152.0320 C   0  0  2  0  0  3  0  0  0  0  0  0
  161.2030  206.3670  154.0220 C   0  0  0  0  0  2  0  0  0  0  0  0
  161.2090  204.1750  145.2810 C   0  0  0  0  0  0  0  0  0  0  0  0
  161.4660  203.7110  149.8600 C   0  0  1  0  0  3  0  0  0  0  0  0
  161.2440  205.0040  147.6640 C   0  0  1  0  0  3  0  0  0  0  0  0
  160.8640  206.3200  145.5580 C   0  0  0  0  0  2  0  0  0  0  0  0
  161.5220  205.4550  144.5390 C   0  0  0  0  0  2  0  0  0  0  0  0
  160.8050  201.7570  146.3940 S   0  0  0  0  0  0  0  0  0  0  0  0
  161.4480  207.3170  151.9900 C   0  0  1  0  0  3  0  0  0  0  0  0
  161.9070  210.5260  151.4950 C   0  0  0  0  0  2  0  0  0  0  0  0
  160.7270  206.1580  148.5330 C   0  0  0  0  0  2  0  0  0  0  0  0
  161.8060  202.5170  147.7080 C   0  0  0  0  0  2  0  0  0  0  0  0
  161.0160  207.4130  150.5220 C   0  0  2  0  0  3  0  0  0  0  0  0
  161.2760  207.8730  154.2660 C   0  0  0  0  0  2  0  0  0  0  0  0
  161.0260  203.6460  148.3890 C   0  0  1  0  0  3  0  0  0  0  0  0
  161.4560  202.8760  145.1590 C   0  0  0  0  0  3  0  0  0  0  0  0
  162.2650  209.5730  152.6450 C   0  0  2  0  0  3  0  0  0  0  0  0
  160.9290  204.9760  150.5420 C   0  0  2  0  0  3  0  0  0  0  0  0
  160.5270  205.0660  146.3020 C   0  0  1  0  0  3  0  0  0  0  0  0
  161.4080  206.1720  149.8250 N   0  0  1  0  0  0  0  0  0  0  0  0
  160.1860  202.6850  151.8340 C   0  0  0  0  0  2  0  0  0  0  0  0
  161.1030  209.9130  150.3460 C   0  0  0  0  0  2  0  0  0  0  0  0
  161.0800  202.4260  150.6200 C   0  0  0  0  0  2  0  0  0  0  0  0
  161.7060  208.6070  149.8530 C   0  0  0  0  0  2  0  0  0  0  0  0
  161.1880  208.5070  152.8830 C   0  0  1  0  0  3  0  0  0  0  0  0
  160.8120  203.7280  152.7650 C   0  0  0  0  0  2  0  0  0  0  0  0
  160.7910  206.2000  152.6350 N   0  0  1  0  0  0  0  0  0  0  0  0
  162.4910  210.3290  153.7980 O   0  0  0  0  0  0  0  0  0  0  0  0
  161.3160  211.0650  153.9810 C   0  0  0  0  0  2  0  0  0  0  0  0
  160.1570  209.8210  156.7530 O   0  0  0  0  0  0  0  0  0  0  0  0
  162.2430  210.8070  156.2570 C   0  0  0  0  0  2  0  0  0  0  0  0
  161.1930  211.4920  155.4320 C   0  0  2  0  0  3  0  0  0  0  0  0
  161.4510  210.0060  157.2610 C   0  0  0  0  0  2  0  0  0  0  0  0
  159.8910  210.9740  155.9990 C   0  0  0  0  0  2  0  0  0  0  0  0
  1 27  1  0  0  0  0
  1 26  1  1  0  0  0
  2 14  1  0  0  0  0
  3 19  1  0  0  0  0
  4 18  1  0  0  0  0
  4 23  1  1  0  0  0
  5 15  1  0  0  0  0
  5 11  1  1  0  0  0
  6 19  1  0  0  0  0
  7  3  1  0  0  0  0
  7  6  1  0  0  0  0
  8 12  1  0  0  0  0
  9 27  1  0  0  0  0
  9 25  1  0  0  0  0
 10 17  1  0  0  0  0
 11 20  1  0  0  0  0
 12 15  1  0  0  0  0
 13  9  1  0  0  0  0
 15  4  1  0  0  0  0
 16  3  2  0  0  0  0
 16  8  1  0  0  0  0
 17 25  1  0  0  0  0
 17 28  1  0  0  0  0
 18  1  1  0  0  0  0
 19  5  1  0  0  0  0
 20 13  1  0  0  0  0
 20 18  1  0  0  0  0
 21 26  1  0  0  0  0
 22 10  1  0  0  0  0
 23 21  1  0  0  0  0
 24 22  1  0  0  0  0
 24 13  1  0  0  0  0
 25 14  1  0  0  0  0
 27  2  1  0  0  0  0
 28 29  1  0  0  0  0
 29 32  1  0  0  0  0
 30 33  1  0  0  0  0
 31 33  1  0  0  0  0
 32 34  1  0  0  0  0
 32 31  1  0  0  0  0
 34 30  1  0  0  0  0
M  END
>  <MODEL>
5

>  <REMARK>
 VINA RESULT:      -7.2      1.960      4.656
  Name = 
  3 active torsions:
  status: ('A' for Active; 'I' for Inactive)
    1  A    between atoms: C_17  and  O_28
    2  A    between atoms: O_28  and  C_29
    3  A    between atoms: C_29  and  C_32
                            x       y       z     vdW  Elec       q    Type
                         _______ _______ _______ _____ _____    ______ ____

>  <TORSDO>
F 3

$$$$
=
 OpenBabel11122414273D

 34 41  0  0  1  0  0  0  0  0999 V2000
  160.6050  207.4160  154.1400 C   0  0  2  0  0  3  0  0  0  0  0  0
  161.7860  205.5660  153.1070 C   0  0  0  0  0  2  0  0  0  0  0  0
  158.4180  213.8550  154.1790 C   0  0  0  0  0  0  0  0  0  0  0  0
  159.3990  209.4360  155.0480 C   0  0  1  0  0  3  0  0  0  0  0  0
  159.3820  211.5820  153.6570 C   0  0  1  0  0  3  0  0  0  0  0  0
  159.5410  213.6940  152.3060 C   0  0  0  0  0  2  0  0  0  0  0  0
  158.3540  214.4530  152.7920 C   0  0  0  0  0  2  0  0  0  0  0  0
  158.2840  212.9390  156.7080 S   0  0  0  0  0  0  0  0  0  0  0  0
  161.2850  207.4100  151.9060 C   0  0  1  0  0  3  0  0  0  0  0  0
  161.8250  207.7190  148.6860 C   0  0  0  0  0  2  0  0  0  0  0  0
  160.4970  210.9190  152.8380 C   0  0  0  0  0  2  0  0  0  0  0  0
  158.0450  211.3710  155.8180 C   0  0  0  0  0  2  0  0  0  0  0  0
  161.2630  208.9380  151.7900 C   0  0  2  0  0  3  0  0  0  0  0  0
  162.3090  205.3050  151.6950 C   0  0  0  0  0  2  0  0  0  0  0  0
  159.3290  210.9700  155.0860 C   0  0  1  0  0  3  0  0  0  0  0  0
  157.7170  213.8960  155.3060 C   0  0  0  0  0  3  0  0  0  0  0  0
  161.5240  206.5180  149.5960 C   0  0  2  0  0  3  0  0  0  0  0  0
  160.5140  208.9570  154.1100 C   0  0  2  0  0  3  0  0  0  0  0  0
  159.6350  213.1020  153.6770 C   0  0  1  0  0  3  0  0  0  0  0  0
  160.2820  209.4780  152.7510 N   0  0  1  0  0  0  0  0  0  0  0  0
  160.7790  207.9790  156.6480 C   0  0  0  0  0  2  0  0  0  0  0  0
  161.9880  209.0670  149.3930 C   0  0  0  0  0  2  0  0  0  0  0  0
  159.5310  208.8440  156.4670 C   0  0  0  0  0  2  0  0  0  0  0  0
  160.8570  209.3470  150.3700 C   0  0  0  0  0  2  0  0  0  0  0  0
  162.1900  206.6410  150.9730 C   0  0  1  0  0  3  0  0  0  0  0  0
  160.8560  206.8920  155.5710 C   0  0  0  0  0  2  0  0  0  0  0  0
  161.6810  207.0120  153.2400 N   0  0  1  0  0  0  0  0  0  0  0  0
  161.9260  205.3500  148.9430 O   0  0  0  0  0  0  0  0  0  0  0  0
  162.1040  205.7290  147.6080 C   0  0  0  0  0  2  0  0  0  0  0  0
  161.0260  206.0030  144.5520 O   0  0  0  0  0  0  0  0  0  0  0  0
  161.6150  204.1000  145.8160 C   0  0  0  0  0  2  0  0  0  0  0  0
  161.0160  205.1140  146.7470 C   0  0  2  0  0  3  0  0  0  0  0  0
  161.2880  204.6300  144.4420 C   0  0  0  0  0  2  0  0  0  0  0  0
  160.4520  206.1670  145.8210 C   0  0  0  0  0  2  0  0  0  0  0  0
  1 26  1  1  0  0  0
  2 27  1  0  0  0  0
  3 16  2  0  0  0  0
  4 15  1  0  0  0  0
  4 23  1  1  0  0  0
  5 11  1  6  0  0  0
  5 19  1  0  0  0  0
  5 15  1  0  0  0  0
  6  7  1  0  0  0  0
  6 19  1  0  0  0  0
  7  3  1  0  0  0  0
  9 27  1  0  0  0  0
 10 22  1  0  0  0  0
 10 17  1  0  0  0  0
 12  8  1  0  0  0  0
 13  9  1  0  0  0  0
 13 20  1  0  0  0  0
 14  2  1  0  0  0  0
 15 12  1  0  0  0  0
 16  8  1  0  0  0  0
 17 25  1  0  0  0  0
 18  1  1  0  0  0  0
 18  4  1  0  0  0  0
 19  3  1  0  0  0  0
 20 11  1  0  0  0  0
 20 18  1  0  0  0  0
 22 24  1  0  0  0  0
 23 21  1  0  0  0  0
 24 13  1  0  0  0  0
 25 14  1  0  0  0  0
 25  9  1  0  0  0  0
 26 21  1  0  0  0  0
 27  1  1  0  0  0  0
 28 17  1  0  0  0  0
 29 28  1  0  0  0  0
 30 34  1  0  0  0  0
 31 32  1  0  0  0  0
 32 29  1  0  0  0  0
 33 30  1  0  0  0  0
 33 31  1  0  0  0  0
 34 32  1  0  0  0  0
M  END
>  <MODEL>
6

>  <REMARK>
 VINA RESULT:      -6.2      3.923      8.991
  Name = 
  3 active torsions:
  status: ('A' for Active; 'I' for Inactive)
    1  A    between atoms: C_17  and  O_28
    2  A    between atoms: O_28  and  C_29
    3  A    between atoms: C_29  and  C_32
                            x       y       z     vdW  Elec       q    Type
                         _______ _______ _______ _____ _____    ______ ____

>  <TORSDO>
F 3

$$$$
