=
 OpenBabel11122413163D

 31 35  0  0  1  0  0  0  0  0999 V2000
  160.5050  207.7100  156.2690 C   0  0  0  0  0  0  0  0  0  0  0  0
  161.9060  208.8080  152.9040 C   0  0  2  0  0  3  0  0  0  0  0  0
  161.4460  207.7970  151.8620 C   0  0  0  0  0  0  0  0  0  0  0  0
  158.2210  212.6090  152.2070 O   0  0  0  0  0  0  0  0  0  0  0  0
  159.1790  212.8140  151.4140 C   0  0  0  0  0  0  0  0  0  0  0  0
  160.7870  205.5180  151.3140 C   0  0  0  0  0  0  0  0  0  0  0  0
  161.0770  208.7590  154.1600 C   0  0  0  0  0  0  0  0  0  0  0  0
  159.4340  208.5950  156.4210 C   0  0  0  0  0  3  0  0  0  0  0  0
  161.1410  206.4850  152.2570 C   0  0  0  0  0  3  0  0  0  0  0  0
  160.6410  210.9680  152.4130 C   0  0  0  0  0  0  0  0  0  0  0  0
  160.7520  206.7470  157.2380 O   0  0  0  0  0  1  0  0  0  0  0  0
  161.7580  209.4890  149.9810 C   0  0  0  0  0  2  0  0  0  0  0  0
  160.4730  204.2300  151.7250 O   0  0  0  0  0  1  0  0  0  0  0  0
  159.7860  210.6910  153.3550 N   0  0  0  0  0  0  0  0  0  0  0  0
  161.9800  210.2540  152.3610 C   0  0  2  0  0  3  0  0  0  0  0  0
  160.3820  212.0370  151.4920 N   0  0  0  0  0  2  0  0  0  0  0  0
  161.3240  207.7880  155.1380 C   0  0  0  0  0  3  0  0  0  0  0  0
  160.7540  205.8450  149.9590 C   0  0  0  0  0  3  0  0  0  0  0  0
  160.0100  209.6600  154.3240 C   0  0  0  0  0  0  0  0  0  0  0  0
  159.1880  209.5700  155.4500 C   0  0  0  0  0  3  0  0  0  0  0  0
  162.6120  210.2730  150.9690 C   0  0  0  0  0  2  0  0  0  0  0  0
  161.4490  208.1090  150.4810 C   0  0  0  0  0  0  0  0  0  0  0  0
  161.0820  207.1370  149.5450 C   0  0  0  0  0  3  0  0  0  0  0  0
  157.6850  213.1420  147.7940 C   0  0  1  0  0  3  0  0  0  0  0  0
  157.5610  214.1460  150.0620 C   0  0  0  0  0  2  0  0  0  0  0  0
  161.0620  213.5730  149.1190 O   0  0  0  0  0  0  0  0  0  0  0  0
  157.2100  212.1420  146.9670 F   0  0  0  0  0  0  0  0  0  0  0  0
  156.9670  213.0890  149.1360 C   0  0  0  0  0  2  0  0  0  0  0  0
  159.8060  213.5000  149.1200 C   0  0  0  0  0  0  0  0  0  0  0  0
  159.0380  213.8680  150.3610 C   0  0  2  0  0  3  0  0  0  0  0  0
  159.1260  212.9930  147.9670 N   0  0  0  0  0  2  0  0  0  0  0  0
  1  8  1  0  0  0  0
  1 11  1  0  0  0  0
  2  3  1  6  0  0  0
  2  7  1  0  0  0  0
  3  9  1  0  0  0  0
  5 16  1  0  0  0  0
  5  4  2  0  0  0  0
  6 13  1  0  0  0  0
  6  9  2  0  0  0  0
  7 19  2  0  0  0  0
  7 17  1  0  0  0  0
 10 14  2  0  0  0  0
 12 22  1  0  0  0  0
 12 21  1  0  0  0  0
 14 19  1  0  0  0  0
 15 21  1  6  0  0  0
 15 10  1  0  0  0  0
 15  2  1  0  0  0  0
 16 10  1  0  0  0  0
 17  1  2  0  0  0  0
 18  6  1  0  0  0  0
 19 20  1  0  0  0  0
 20  8  2  0  0  0  0
 22  3  2  0  0  0  0
 23 18  2  0  0  0  0
 23 22  1  0  0  0  0
 24 27  1  6  0  0  0
 24 31  1  0  0  0  0
 24 28  1  0  0  0  0
 25 30  1  0  0  0  0
 26 29  2  0  0  0  0
 28 25  1  0  0  0  0
 29 30  1  0  0  0  0
 30  5  1  1  0  0  0
 31 29  1  0  0  0  0
M  END
>  <MODEL>
1

>  <REMARK>
 VINA RESULT:      -7.8      0.000      0.000
  Name = 
  1 active torsions:
  status: ('A' for Active; 'I' for Inactive)
    1  A    between atoms: C_5  and  C_30
                            x       y       z     vdW  Elec       q    Type
                         _______ _______ _______ _____ _____    ______ ____

>  <TORSDO>
F 1

$$$$
=
 OpenBabel11122413163D

 31 35  0  0  1  0  0  0  0  0999 V2000
  160.6650  208.0380  155.0950 C   0  0  0  0  0  0  0  0  0  0  0  0
  162.0400  208.9800  151.6720 C   0  0  2  0  0  3  0  0  0  0  0  0
  161.5000  207.9730  150.6660 C   0  0  0  0  0  0  0  0  0  0  0  0
  158.5470  212.9580  150.9690 O   0  0  0  0  0  0  0  0  0  0  0  0
  159.4940  213.0930  150.1500 C   0  0  0  0  0  0  0  0  0  0  0  0
  160.7070  205.7200  150.1890 C   0  0  0  0  0  0  0  0  0  0  0  0
  161.2400  209.0050  152.9480 C   0  0  0  0  0  0  0  0  0  0  0  0
  159.6470  208.9830  155.2500 C   0  0  0  0  0  3  0  0  0  0  0  0
  161.1350  206.6880  151.1000 C   0  0  0  0  0  3  0  0  0  0  0  0
  160.8800  211.1940  151.1590 C   0  0  0  0  0  0  0  0  0  0  0  0
  160.8840  207.0850  156.0810 O   0  0  0  0  0  1  0  0  0  0  0  0
  161.8550  209.6010  148.7370 C   0  0  0  0  0  2  0  0  0  0  0  0
  160.3340  204.4610  150.6390 O   0  0  0  0  0  1  0  0  0  0  0  0
  160.0350  210.9850  152.1270 N   0  0  0  0  0  0  0  0  0  0  0  0
  162.1770  210.4070  151.0930 C   0  0  2  0  0  3  0  0  0  0  0  0
  160.6550  212.2540  150.2180 N   0  0  0  0  0  2  0  0  0  0  0  0
  161.4590  208.0460  153.9440 C   0  0  0  0  0  3  0  0  0  0  0  0
  160.6570  206.0180  148.8280 C   0  0  0  0  0  3  0  0  0  0  0  0
  160.2280  209.9660  153.1150 C   0  0  0  0  0  0  0  0  0  0  0  0
  159.4300  209.9470  154.2620 C   0  0  0  0  0  3  0  0  0  0  0  0
  162.7750  210.3610  149.6860 C   0  0  0  0  0  2  0  0  0  0  0  0
  161.4850  208.2520  149.2780 C   0  0  0  0  0  0  0  0  0  0  0  0
  161.0440  207.2800  148.3750 C   0  0  0  0  0  3  0  0  0  0  0  0
  159.0710  213.2120  146.2440 C   0  0  1  0  0  3  0  0  0  0  0  0
  158.0370  214.0230  148.3530 C   0  0  0  0  0  2  0  0  0  0  0  0
  161.6810  214.4480  148.4830 O   0  0  0  0  0  0  0  0  0  0  0  0
  159.1410  212.1700  145.3410 F   0  0  0  0  0  0  0  0  0  0  0  0
  158.0410  212.8980  147.3200 C   0  0  0  0  0  2  0  0  0  0  0  0
  160.5460  214.0460  148.1210 C   0  0  0  0  0  0  0  0  0  0  0  0
  159.3840  214.1290  149.0750 C   0  0  2  0  0  3  0  0  0  0  0  0
  160.3870  213.4410  146.8330 N   0  0  0  0  0  2  0  0  0  0  0  0
  1  8  1  0  0  0  0
  1 11  1  0  0  0  0
  2  3  1  6  0  0  0
  2  7  1  0  0  0  0
  3  9  1  0  0  0  0
  5 16  1  0  0  0  0
  5  4  2  0  0  0  0
  6 13  1  0  0  0  0
  6  9  2  0  0  0  0
  7 19  2  0  0  0  0
  7 17  1  0  0  0  0
 10 14  2  0  0  0  0
 12 22  1  0  0  0  0
 12 21  1  0  0  0  0
 14 19  1  0  0  0  0
 15 21  1  6  0  0  0
 15 10  1  0  0  0  0
 15  2  1  0  0  0  0
 16 10  1  0  0  0  0
 17  1  2  0  0  0  0
 18  6  1  0  0  0  0
 19 20  1  0  0  0  0
 20  8  2  0  0  0  0
 22  3  2  0  0  0  0
 23 18  2  0  0  0  0
 23 22  1  0  0  0  0
 24 27  1  6  0  0  0
 24 31  1  0  0  0  0
 24 28  1  0  0  0  0
 25 30  1  0  0  0  0
 28 25  1  0  0  0  0
 29 26  2  0  0  0  0
 29 30  1  0  0  0  0
 30  5  1  1  0  0  0
 31 29  1  0  0  0  0
M  END
>  <MODEL>
2

>  <REMARK>
 VINA RESULT:      -6.2      1.202      1.416
  Name = 
  1 active torsions:
  status: ('A' for Active; 'I' for Inactive)
    1  A    between atoms: C_5  and  C_30
                            x       y       z     vdW  Elec       q    Type
                         _______ _______ _______ _____ _____    ______ ____

>  <TORSDO>
F 1

$$$$
=
 OpenBabel11122413163D

 31 35  0  0  1  0  0  0  0  0999 V2000
  162.2950  213.8140  146.7800 C   0  0  0  0  0  0  0  0  0  0  0  0
  159.9370  214.4500  149.7010 C   0  0  2  0  0  3  0  0  0  0  0  0
  158.5160  214.2380  149.2000 C   0  0  0  0  0  0  0  0  0  0  0  0
  160.8550  209.6900  151.9410 O   0  0  0  0  0  0  0  0  0  0  0  0
  160.3170  210.4470  152.7910 C   0  0  0  0  0  0  0  0  0  0  0  0
  156.9220  214.2940  147.3590 C   0  0  0  0  0  0  0  0  0  0  0  0
  160.9660  213.8080  148.8070 C   0  0  0  0  0  0  0  0  0  0  0  0
  162.7710  212.5360  147.0870 C   0  0  0  0  0  3  0  0  0  0  0  0
  158.2290  214.4100  147.8360 C   0  0  0  0  0  3  0  0  0  0  0  0
  160.4310  212.5160  151.2900 C   0  0  0  0  0  0  0  0  0  0  0  0
  162.7140  214.4520  145.6200 O   0  0  0  0  0  1  0  0  0  0  0  0
  157.6700  213.8030  151.5650 C   0  0  0  0  0  2  0  0  0  0  0  0
  156.6600  214.4520  146.0050 O   0  0  0  0  0  1  0  0  0  0  0  0
  161.0740  211.8930  150.3450 N   0  0  0  0  0  0  0  0  0  0  0  0
  160.1410  214.0010  151.1670 C   0  0  2  0  0  3  0  0  0  0  0  0
  160.1020  211.8380  152.5110 N   0  0  0  0  0  2  0  0  0  0  0  0
  161.3900  214.4490  147.6370 C   0  0  0  0  0  3  0  0  0  0  0  0
  155.8790  214.0240  148.2440 C   0  0  0  0  0  3  0  0  0  0  0  0
  161.4600  212.5300  149.1220 C   0  0  0  0  0  0  0  0  0  0  0  0
  162.3560  211.8960  148.2570 C   0  0  0  0  0  3  0  0  0  0  0  0
  158.9660  214.4530  152.0350 C   0  0  0  0  0  2  0  0  0  0  0  0
  157.4450  214.0030  150.0960 C   0  0  0  0  0  0  0  0  0  0  0  0
  156.1410  213.8780  149.6080 C   0  0  0  0  0  3  0  0  0  0  0  0
  161.6420  210.2300  156.4850 C   0  0  1  0  0  3  0  0  0  0  0  0
  159.6880  210.9770  155.1450 C   0  0  0  0  0  2  0  0  0  0  0  0
  160.8220  207.6780  154.0030 O   0  0  0  0  0  0  0  0  0  0  0  0
  162.8850  210.5810  156.9740 F   0  0  0  0  0  0  0  0  0  0  0  0
  161.0220  211.4090  155.7470 C   0  0  0  0  0  2  0  0  0  0  0  0
  160.8190  208.8000  154.5700 C   0  0  0  0  0  0  0  0  0  0  0  0
  159.8730  209.8730  154.1000 C   0  0  2  0  0  3  0  0  0  0  0  0
  161.7680  209.0720  155.6060 N   0  0  0  0  0  2  0  0  0  0  0  0
  1  8  2  0  0  0  0
  1 17  1  0  0  0  0
  2  7  1  6  0  0  0
  2 15  1  0  0  0  0
  3  2  1  0  0  0  0
  3 22  1  0  0  0  0
  4  5  2  0  0  0  0
  6  9  1  0  0  0  0
  6 18  2  0  0  0  0
  7 19  1  0  0  0  0
  8 20  1  0  0  0  0
  9  3  2  0  0  0  0
 10 16  1  0  0  0  0
 11  1  1  0  0  0  0
 12 21  1  0  0  0  0
 13  6  1  0  0  0  0
 14 10  2  0  0  0  0
 15 10  1  0  0  0  0
 15 21  1  1  0  0  0
 16  5  1  0  0  0  0
 17  7  2  0  0  0  0
 18 23  1  0  0  0  0
 19 14  1  0  0  0  0
 20 19  2  0  0  0  0
 22 12  1  0  0  0  0
 23 22  2  0  0  0  0
 24 27  1  6  0  0  0
 25 28  1  0  0  0  0
 26 29  2  0  0  0  0
 28 24  1  0  0  0  0
 29 31  1  0  0  0  0
 30  5  1  6  0  0  0
 30 29  1  0  0  0  0
 30 25  1  0  0  0  0
 31 24  1  0  0  0  0
M  END
>  <MODEL>
3

>  <REMARK>
 VINA RESULT:      -5.7      3.408      8.152
  Name = 
  1 active torsions:
  status: ('A' for Active; 'I' for Inactive)
    1  A    between atoms: C_5  and  C_30
                            x       y       z     vdW  Elec       q    Type
                         _______ _______ _______ _____ _____    ______ ____

>  <TORSDO>
F 1

$$$$
=
 OpenBabel11122413163D

 31 35  0  0  1  0  0  0  0  0999 V2000
  161.6360  206.0990  152.3660 C   0  0  0  0  0  0  0  0  0  0  0  0
  159.9680  209.4220  153.1870 C   0  0  2  0  0  3  0  0  0  0  0  0
  160.7100  210.0280  154.3700 C   0  0  0  0  0  0  0  0  0  0  0  0
  162.3460  212.0140  149.1690 O   0  0  0  0  0  0  0  0  0  0  0  0
  161.3710  212.6970  149.5790 C   0  0  0  0  0  0  0  0  0  0  0  0
  162.0210  209.7100  156.3970 C   0  0  0  0  0  0  0  0  0  0  0  0
  160.7750  208.3610  152.4830 C   0  0  0  0  0  0  0  0  0  0  0  0
  162.3930  206.4430  151.2420 C   0  0  0  0  0  3  0  0  0  0  0  0
  161.3940  209.1890  155.2630 C   0  0  0  0  0  3  0  0  0  0  0  0
  160.5290  210.8780  151.1690 C   0  0  0  0  0  0  0  0  0  0  0  0
  161.6890  204.8060  152.8690 O   0  0  0  0  0  1  0  0  0  0  0  0
  159.9050  212.3700  153.7640 C   0  0  0  0  0  2  0  0  0  0  0  0
  162.7070  208.8660  157.2610 O   0  0  0  0  0  1  0  0  0  0  0  0
  161.4280  210.0170  150.7870 N   0  0  0  0  0  0  0  0  0  0  0  0
  159.4650  210.4770  152.1750 C   0  0  2  0  0  3  0  0  0  0  0  0
  160.4560  212.1700  150.5500 N   0  0  0  0  0  2  0  0  0  0  0  0
  160.8310  207.0570  152.9890 C   0  0  0  0  0  3  0  0  0  0  0  0
  161.9540  211.0760  156.6640 C   0  0  0  0  0  3  0  0  0  0  0  0
  161.5230  208.7010  151.3430 C   0  0  0  0  0  0  0  0  0  0  0  0
  162.3350  207.7420  150.7300 C   0  0  0  0  0  3  0  0  0  0  0  0
  158.8550  211.6730  152.9060 C   0  0  0  0  0  2  0  0  0  0  0  0
  160.6130  211.4090  154.6710 C   0  0  0  0  0  0  0  0  0  0  0  0
  161.2530  211.9220  155.8030 C   0  0  0  0  0  3  0  0  0  0  0  0
  159.9690  214.4530  146.3540 C   0  0  1  0  0  3  0  0  0  0  0  0
  159.7060  214.3940  148.8240 C   0  0  0  0  0  2  0  0  0  0  0  0
  163.2660  214.4520  147.9290 O   0  0  0  0  0  0  0  0  0  0  0  0
  159.5910  213.8760  145.1570 F   0  0  0  0  0  0  0  0  0  0  0  0
  159.2160  213.8000  147.5050 C   0  0  0  0  0  2  0  0  0  0  0  0
  162.0190  214.3220  147.8270 C   0  0  0  0  0  0  0  0  0  0  0  0
  161.1890  214.0900  149.0610 C   0  0  2  0  0  3  0  0  0  0  0  0
  161.4110  214.3180  146.5310 N   0  0  0  0  0  2  0  0  0  0  0  0
  1 11  1  0  0  0  0
  1 17  1  0  0  0  0
  2  7  1  6  0  0  0
  2  3  1  0  0  0  0
  3 22  2  0  0  0  0
  3  9  1  0  0  0  0
  4  5  2  0  0  0  0
  5 16  1  0  0  0  0
  6 18  1  0  0  0  0
  6 13  1  0  0  0  0
  7 17  2  0  0  0  0
  8  1  2  0  0  0  0
  9  6  2  0  0  0  0
 10 15  1  0  0  0  0
 12 22  1  0  0  0  0
 14 10  2  0  0  0  0
 14 19  1  0  0  0  0
 15 21  1  1  0  0  0
 15  2  1  0  0  0  0
 16 10  1  0  0  0  0
 19  7  1  0  0  0  0
 20  8  1  0  0  0  0
 20 19  2  0  0  0  0
 21 12  1  0  0  0  0
 22 23  1  0  0  0  0
 23 18  2  0  0  0  0
 24 27  1  6  0  0  0
 24 31  1  0  0  0  0
 24 28  1  0  0  0  0
 25 30  1  0  0  0  0
 28 25  1  0  0  0  0
 29 26  2  0  0  0  0
 29 30  1  0  0  0  0
 30  5  1  6  0  0  0
 31 29  1  0  0  0  0
M  END
>  <MODEL>
4

>  <REMARK>
 VINA RESULT:      -5.1      2.139      4.410
  Name = 
  1 active torsions:
  status: ('A' for Active; 'I' for Inactive)
    1  A    between atoms: C_5  and  C_30
                            x       y       z     vdW  Elec       q    Type
                         _______ _______ _______ _____ _____    ______ ____

>  <TORSDO>
F 1

$$$$
