=
 OpenBabel11122412363D

 30 34  0  0  1  0  0  0  0  0999 V2000
  161.7110  209.7780  150.1390 N   0  0  0  0  0  0  0  0  0  0  0  0
  162.0340  211.9140  148.8580 C   0  0  0  0  0  0  0  0  0  0  0  0
  159.5630  211.8010  153.1750 C   0  0  0  0  0  2  0  0  0  0  0  0
  161.5770  209.1980  151.4940 C   0  0  2  0  0  3  0  0  0  0  0  0
  162.0880  208.9180  149.0140 C   0  0  0  0  0  2  0  0  0  0  0  0
  160.4080  205.8330  150.3070 O   0  0  0  0  0  1  0  0  0  0  0  0
  160.6600  207.2070  150.2720 C   0  0  2  0  0  3  0  0  0  0  0  0
  159.2640  210.6560  154.1290 C   0  0  2  0  0  3  0  0  0  0  0  0
  161.1690  207.6940  148.8980 C   0  0  2  0  0  3  0  0  0  0  0  0
  161.5250  207.6630  151.4560 C   0  0  1  0  0  3  0  0  0  0  0  0
  161.7760  213.2810  148.7210 C   0  0  0  0  0  3  0  0  0  0  0  0
  162.8490  211.3010  147.9140 O   0  0  0  0  0  1  0  0  0  0  0  0
  160.1620  211.1700  152.0130 N   0  0  0  0  0  0  0  0  0  0  0  0
  160.9910  213.9510  149.6590 C   0  0  0  0  0  3  0  0  0  0  0  0
  161.4860  211.1940  149.9480 C   0  0  0  0  0  0  0  0  0  0  0  0
  160.3090  209.7350  152.1790 C   0  0  2  0  0  3  0  0  0  0  0  0
  159.4730  211.0440  155.4540 O   0  0  0  0  0  1  0  0  0  0  0  0
  160.1740  209.4960  153.6920 C   0  0  1  0  0  3  0  0  0  0  0  0
  160.4580  213.2560  150.7430 C   0  0  0  0  0  3  0  0  0  0  0  0
  160.7010  211.8850  150.8930 C   0  0  0  0  0  0  0  0  0  0  0  0
  161.4050  208.8290  155.7030 O   0  0  0  0  0  0  0  0  0  0  0  0
  161.5060  209.5040  154.4740 C   0  0  0  0  0  3  0  0  0  0  0  0
  161.9770  210.8080  154.6600 O   0  0  0  0  0  0  0  0  0  0  0  0
  162.3090  209.4840  156.5350 C   0  0  0  0  0  2  0  0  0  0  0  0
  162.7560  210.7200  155.8080 C   0  0  0  0  0  2  0  0  0  0  0  0
  162.9830  205.7440  152.1210 C   0  0  0  0  0  1  0  0  0  0  0  0
  162.9370  207.0850  151.4150 C   0  0  0  0  0  2  0  0  0  0  0  0
  161.8900  206.5960  148.1200 C   0  0  0  0  0  2  0  0  0  0  0  0
  162.1180  205.9200  145.8410 O   0  0  0  0  0  1  0  0  0  0  0  0
  161.1840  206.2980  146.8070 C   0  0  0  0  0  2  0  0  0  0  0  0
  2 15  1  0  0  0  0
  3  8  1  0  0  0  0
  4  1  1  6  0  0  0
  4 16  1  0  0  0  0
  5  1  1  0  0  0  0
  7  6  1  6  0  0  0
  7 10  1  0  0  0  0
  8 17  1  1  0  0  0
  9 28  1  1  0  0  0
  9  5  1  0  0  0  0
  9  7  1  0  0  0  0
 10 27  1  6  0  0  0
 10  4  1  0  0  0  0
 11  2  2  0  0  0  0
 11 14  1  0  0  0  0
 12  2  1  0  0  0  0
 13  3  1  0  0  0  0
 14 19  2  0  0  0  0
 15  1  1  0  0  0  0
 15 20  2  0  0  0  0
 16 13  1  1  0  0  0
 16 18  1  0  0  0  0
 18  8  1  0  0  0  0
 18 22  1  1  0  0  0
 19 20  1  0  0  0  0
 20 13  1  0  0  0  0
 21 24  1  0  0  0  0
 22 23  1  0  0  0  0
 22 21  1  0  0  0  0
 23 25  1  0  0  0  0
 25 24  1  0  0  0  0
 27 26  1  0  0  0  0
 29 30  1  0  0  0  0
 30 28  1  0  0  0  0
M  END
>  <MODEL>
1

>  <REMARK>
 VINA RESULT:      -5.1      0.000      0.000
  Name = 
  4 active torsions:
  status: ('A' for Active; 'I' for Inactive)
    1  A    between atoms: C_9  and  C_22
    2  A    between atoms: C_11  and  C_28
    3  A    between atoms: C_12  and  C_27
    4  A    between atoms: C_28  and  C_30
                            x       y       z     vdW  Elec       q    Type
                         _______ _______ _______ _____ _____    ______ ____

>  <TORSDO>
F 4

$$$$
=
 OpenBabel11122412363D

 30 34  0  0  1  0  0  0  0  0999 V2000
  160.0550  211.3390  153.0990 N   0  0  0  0  0  0  0  0  0  0  0  0
  158.7990  213.3130  152.1860 C   0  0  0  0  0  0  0  0  0  0  0  0
  161.8620  210.6190  149.3380 C   0  0  0  0  0  2  0  0  0  0  0  0
  160.6120  210.0100  152.7630 C   0  0  2  0  0  3  0  0  0  0  0  0
  159.8100  211.6920  154.5000 C   0  0  0  0  0  2  0  0  0  0  0  0
  162.6480  209.6950  155.9020 O   0  0  0  0  0  1  0  0  0  0  0  0
  161.9350  210.3160  154.8730 C   0  0  2  0  0  3  0  0  0  0  0  0
  162.6970  209.3880  149.6510 C   0  0  2  0  0  3  0  0  0  0  0  0
  161.0600  211.4890  155.3660 C   0  0  2  0  0  3  0  0  0  0  0  0
  161.1840  209.3010  154.0000 C   0  0  1  0  0  3  0  0  0  0  0  0
  158.5410  214.1840  151.1230 C   0  0  0  0  0  3  0  0  0  0  0  0
  158.0960  213.4960  153.3700 O   0  0  0  0  0  1  0  0  0  0  0  0
  161.3270  211.0400  150.6200 N   0  0  0  0  0  0  0  0  0  0  0  0
  159.1960  214.0240  149.9030 C   0  0  0  0  0  3  0  0  0  0  0  0
  159.7410  212.2660  152.0340 C   0  0  0  0  0  0  0  0  0  0  0  0
  161.7150  210.1490  151.6990 C   0  0  2  0  0  3  0  0  0  0  0  0
  162.5990  208.4460  148.6250 O   0  0  0  0  0  1  0  0  0  0  0  0
  162.1840  208.8620  151.0010 C   0  0  1  0  0  3  0  0  0  0  0  0
  160.1150  212.9900  149.7370 C   0  0  0  0  0  3  0  0  0  0  0  0
  160.3900  212.1110  150.7920 C   0  0  0  0  0  0  0  0  0  0  0  0
  161.3340  206.6330  151.5600 O   0  0  0  0  0  0  0  0  0  0  0  0
  161.0870  207.7920  150.8040 C   0  0  0  0  0  3  0  0  0  0  0  0
  160.9220  207.4780  149.4500 O   0  0  0  0  0  0  0  0  0  0  0  0
  160.7790  205.6020  150.8070 C   0  0  0  0  0  2  0  0  0  0  0  0
  160.4200  206.1820  149.4690 C   0  0  0  0  0  2  0  0  0  0  0  0
  160.4430  207.1220  154.9780 C   0  0  0  0  0  1  0  0  0  0  0  0
  160.0740  208.5760  154.7550 C   0  0  0  0  0  2  0  0  0  0  0  0
  160.6400  211.3310  156.8260 C   0  0  0  0  0  2  0  0  0  0  0  0
  160.4210  213.6690  157.2610 O   0  0  0  0  0  1  0  0  0  0  0  0
  159.7220  212.4620  157.2600 C   0  0  0  0  0  2  0  0  0  0  0  0
  1  5  1  0  0  0  0
  2 12  1  0  0  0  0
  3  8  1  0  0  0  0
  3 13  1  0  0  0  0
  4  1  1  1  0  0  0
  4 10  1  0  0  0  0
  5  9  1  0  0  0  0
  7  9  1  0  0  0  0
  7  6  1  1  0  0  0
  8 17  1  6  0  0  0
  8 18  1  0  0  0  0
  9 28  1  1  0  0  0
 10 27  1  1  0  0  0
 10  7  1  0  0  0  0
 11  2  2  0  0  0  0
 13 20  1  0  0  0  0
 14 11  1  0  0  0  0
 15  2  1  0  0  0  0
 15  1  1  0  0  0  0
 16 13  1  6  0  0  0
 16  4  1  0  0  0  0
 18 22  1  6  0  0  0
 18 16  1  0  0  0  0
 19 14  2  0  0  0  0
 19 20  1  0  0  0  0
 20 15  2  0  0  0  0
 22 21  1  0  0  0  0
 23 25  1  0  0  0  0
 23 22  1  0  0  0  0
 24 21  1  0  0  0  0
 25 24  1  0  0  0  0
 27 26  1  0  0  0  0
 28 30  1  0  0  0  0
 30 29  1  0  0  0  0
M  END
>  <MODEL>
2

>  <REMARK>
 VINA RESULT:      -4.4      1.850      6.139
  Name = 
  4 active torsions:
  status: ('A' for Active; 'I' for Inactive)
    1  A    between atoms: C_9  and  C_22
    2  A    between atoms: C_11  and  C_28
    3  A    between atoms: C_12  and  C_27
    4  A    between atoms: C_28  and  C_30
                            x       y       z     vdW  Elec       q    Type
                         _______ _______ _______ _____ _____    ______ ____

>  <TORSDO>
F 4

$$$$
=
 OpenBabel11122412363D

 30 34  0  0  1  0  0  0  0  0999 V2000
  161.1340  211.1050  151.3550 N   0  0  0  0  0  0  0  0  0  0  0  0
  161.5490  212.5980  149.3770 C   0  0  0  0  0  0  0  0  0  0  0  0
  157.7660  213.3960  152.5070 C   0  0  0  0  0  2  0  0  0  0  0  0
  160.6240  211.0650  152.7420 C   0  0  2  0  0  3  0  0  0  0  0  0
  162.0130  210.0370  150.8710 C   0  0  0  0  0  2  0  0  0  0  0  0
  160.4900  207.3180  152.9440 O   0  0  0  0  0  1  0  0  0  0  0  0
  160.5200  208.5870  152.3600 C   0  0  2  0  0  3  0  0  0  0  0  0
  157.3330  212.6600  153.7640 C   0  0  2  0  0  3  0  0  0  0  0  0
  161.3980  208.6490  151.0910 C   0  0  2  0  0  3  0  0  0  0  0  0
  160.8290  209.6860  153.3870 C   0  0  1  0  0  3  0  0  0  0  0  0
  161.1460  213.6730  148.5800 C   0  0  0  0  0  3  0  0  0  0  0  0
  162.7300  211.9430  149.0480 O   0  0  0  0  0  1  0  0  0  0  0  0
  158.8270  212.5800  151.9450 N   0  0  0  0  0  0  0  0  0  0  0  0
  159.9870  214.3840  148.8860 C   0  0  0  0  0  3  0  0  0  0  0  0
  160.7730  212.2130  150.4980 C   0  0  0  0  0  0  0  0  0  0  0  0
  159.1290  211.4240  152.7700 C   0  0  2  0  0  3  0  0  0  0  0  0
  156.9980  213.5600  154.7790 O   0  0  0  0  0  1  0  0  0  0  0  0
  158.5080  211.7420  154.1400 C   0  0  1  0  0  3  0  0  0  0  0  0
  159.2210  214.0240  149.9930 C   0  0  0  0  0  3  0  0  0  0  0  0
  159.6070  212.9460  150.8000 C   0  0  0  0  0  0  0  0  0  0  0  0
  159.2590  211.9860  156.4600 O   0  0  0  0  0  0  0  0  0  0  0  0
  159.4600  212.4320  155.1420 C   0  0  0  0  0  3  0  0  0  0  0  0
  159.3530  213.8250  155.0650 O   0  0  0  0  0  0  0  0  0  0  0  0
  159.5830  213.0850  157.2510 C   0  0  0  0  0  2  0  0  0  0  0  0
  159.7430  214.2580  156.3270 C   0  0  0  0  0  2  0  0  0  0  0  0
  162.4430  210.6030  155.0630 C   0  0  0  0  0  1  0  0  0  0  0  0
  162.2370  209.5750  153.9670 C   0  0  0  0  0  2  0  0  0  0  0  0
  162.5090  207.6010  151.0990 C   0  0  0  0  0  2  0  0  0  0  0  0
  161.2420  205.7870  150.2010 O   0  0  0  0  0  1  0  0  0  0  0  0
  162.3410  206.6120  149.9570 C   0  0  0  0  0  2  0  0  0  0  0  0
  2 15  1  0  0  0  0
  3  8  1  0  0  0  0
  4  1  1  6  0  0  0
  4 16  1  0  0  0  0
  4 10  1  0  0  0  0
  5  9  1  0  0  0  0
  5  1  1  0  0  0  0
  7  6  1  1  0  0  0
  7 10  1  0  0  0  0
  8 18  1  0  0  0  0
  8 17  1  1  0  0  0
  9 28  1  1  0  0  0
  9  7  1  0  0  0  0
 10 27  1  6  0  0  0
 11 14  1  0  0  0  0
 11  2  2  0  0  0  0
 12  2  1  0  0  0  0
 13  3  1  0  0  0  0
 14 19  2  0  0  0  0
 15 20  2  0  0  0  0
 15  1  1  0  0  0  0
 16 13  1  6  0  0  0
 16 18  1  0  0  0  0
 18 22  1  1  0  0  0
 19 20  1  0  0  0  0
 20 13  1  0  0  0  0
 21 24  1  0  0  0  0
 22 21  1  0  0  0  0
 23 22  1  0  0  0  0
 23 25  1  0  0  0  0
 25 24  1  0  0  0  0
 27 26  1  0  0  0  0
 30 29  1  0  0  0  0
 30 28  1  0  0  0  0
M  END
>  <MODEL>
3

>  <REMARK>
 VINA RESULT:      -4.2      1.892      3.020
  Name = 
  4 active torsions:
  status: ('A' for Active; 'I' for Inactive)
    1  A    between atoms: C_9  and  C_22
    2  A    between atoms: C_11  and  C_28
    3  A    between atoms: C_12  and  C_27
    4  A    between atoms: C_28  and  C_30
                            x       y       z     vdW  Elec       q    Type
                         _______ _______ _______ _____ _____    ______ ____

>  <TORSDO>
F 4

$$$$
=
 OpenBabel11122412363D

 30 34  0  0  1  0  0  0  0  0999 V2000
  158.9650  211.1060  138.1340 N   0  0  0  0  0  0  0  0  0  0  0  0
  159.8210  208.8710  137.3710 C   0  0  0  0  0  0  0  0  0  0  0  0
  162.9080  212.5970  138.5270 C   0  0  0  0  0  2  0  0  0  0  0  0
  159.2560  212.2740  138.9950 C   0  0  2  0  0  3  0  0  0  0  0  0
  157.5920  210.8550  137.6890 C   0  0  0  0  0  2  0  0  0  0  0  0
  156.5750  214.4530  137.5250 O   0  0  0  0  0  1  0  0  0  0  0  0
  157.5030  213.4110  137.6070 C   0  0  2  0  0  3  0  0  0  0  0  0
  162.6350  214.0060  139.0260 C   0  0  2  0  0  3  0  0  0  0  0  0
  156.9770  212.0860  137.0110 C   0  0  2  0  0  3  0  0  0  0  0  0
  158.0890  213.2720  139.0190 C   0  0  1  0  0  3  0  0  0  0  0  0
  160.9010  208.0590  137.0120 C   0  0  0  0  0  3  0  0  0  0  0  0
  158.5470  208.3160  137.3560 O   0  0  0  0  0  1  0  0  0  0  0  0
  161.6000  212.0560  138.2060 N   0  0  0  0  0  0  0  0  0  0  0  0
  162.2020  208.5570  137.0420 C   0  0  0  0  0  3  0  0  0  0  0  0
  160.0420  210.2150  137.7580 C   0  0  0  0  0  0  0  0  0  0  0  0
  160.5290  212.9890  138.5090 C   0  0  2  0  0  3  0  0  0  0  0  0
  163.5090  214.3460  140.0610 O   0  0  0  0  0  1  0  0  0  0  0  0
  161.1600  214.0220  139.4570 C   0  0  1  0  0  3  0  0  0  0  0  0
  162.4330  209.8740  137.4340 C   0  0  0  0  0  3  0  0  0  0  0  0
  161.3630  210.7040  137.7930 C   0  0  0  0  0  0  0  0  0  0  0  0
  160.8310  212.3270  141.1960 O   0  0  0  0  0  0  0  0  0  0  0  0
  161.0110  213.7010  140.9610 C   0  0  0  0  0  3  0  0  0  0  0  0
  159.9760  214.4450  141.5380 O   0  0  0  0  0  0  0  0  0  0  0  0
  160.0440  212.2710  142.3430 C   0  0  0  0  0  2  0  0  0  0  0  0
  159.5720  213.6700  142.6190 C   0  0  0  0  0  2  0  0  0  0  0  0
  156.3530  214.0600  140.6370 C   0  0  0  0  0  1  0  0  0  0  0  0
  157.0490  212.8460  140.0520 C   0  0  0  0  0  2  0  0  0  0  0  0
  155.4550  211.9840  137.0670 C   0  0  0  0  0  2  0  0  0  0  0  0
  153.8930  211.1070  138.6470 O   0  0  0  0  0  1  0  0  0  0  0  0
  155.0130  210.7790  137.8830 C   0  0  0  0  0  2  0  0  0  0  0  0
  2 15  1  0  0  0  0
  3  8  1  0  0  0  0
  4  1  1  6  0  0  0
  4 10  1  0  0  0  0
  5  1  1  0  0  0  0
  7  6  1  1  0  0  0
  7 10  1  0  0  0  0
  8 18  1  0  0  0  0
  8 17  1  1  0  0  0
  9 28  1  1  0  0  0
  9  7  1  0  0  0  0
  9  5  1  0  0  0  0
 10 27  1  1  0  0  0
 11 14  1  0  0  0  0
 11  2  2  0  0  0  0
 12  2  1  0  0  0  0
 13  3  1  0  0  0  0
 14 19  2  0  0  0  0
 15 20  2  0  0  0  0
 15  1  1  0  0  0  0
 16 13  1  1  0  0  0
 16  4  1  0  0  0  0
 16 18  1  0  0  0  0
 18 22  1  1  0  0  0
 19 20  1  0  0  0  0
 20 13  1  0  0  0  0
 21 24  1  0  0  0  0
 22 21  1  0  0  0  0
 22 23  1  0  0  0  0
 23 25  1  0  0  0  0
 24 25  1  0  0  0  0
 27 26  1  0  0  0  0
 28 30  1  0  0  0  0
 30 29  1  0  0  0  0
M  END
>  <MODEL>
4

>  <REMARK>
 VINA RESULT:      -3.2     10.647     13.864
  Name = 
  4 active torsions:
  status: ('A' for Active; 'I' for Inactive)
    1  A    between atoms: C_9  and  C_22
    2  A    between atoms: C_11  and  C_28
    3  A    between atoms: C_12  and  C_27
    4  A    between atoms: C_28  and  C_30
                            x       y       z     vdW  Elec       q    Type
                         _______ _______ _______ _____ _____    ______ ____

>  <TORSDO>
F 4

$$$$
=
 OpenBabel11122412363D

 30 34  0  0  1  0  0  0  0  0999 V2000
  160.1840  210.7340  152.0090 N   0  0  0  0  0  0  0  0  0  0  0  0
  160.8630  208.3480  152.3990 C   0  0  0  0  0  0  0  0  0  0  0  0
  159.9230  211.4500  156.1730 C   0  0  0  0  0  2  0  0  0  0  0  0
  159.3800  211.8560  152.5400 C   0  0  2  0  0  3  0  0  0  0  0  0
  160.5940  210.7350  150.6020 C   0  0  0  0  0  2  0  0  0  0  0  0
  160.8970  214.4530  150.2920 O   0  0  0  0  0  1  0  0  0  0  0  0
  160.7860  213.2560  151.0030 C   0  0  2  0  0  3  0  0  0  0  0  0
  159.4800  212.9040  156.1880 C   0  0  2  0  0  3  0  0  0  0  0  0
  161.3150  212.0350  150.2190 C   0  0  2  0  0  3  0  0  0  0  0  0
  159.3790  213.0610  151.5870 C   0  0  1  0  0  3  0  0  0  0  0  0
  161.2050  207.3290  153.2940 C   0  0  0  0  0  3  0  0  0  0  0  0
  160.8330  208.0490  151.0430 O   0  0  0  0  0  1  0  0  0  0  0  0
  160.1980  211.1600  154.7780 N   0  0  0  0  0  0  0  0  0  0  0  0
  161.2180  207.5670  154.6670 C   0  0  0  0  0  3  0  0  0  0  0  0
  160.5380  209.6380  152.8840 C   0  0  0  0  0  0  0  0  0  0  0  0
  159.9180  212.2930  153.9140 C   0  0  2  0  0  3  0  0  0  0  0  0
  158.4760  213.1090  157.1370 O   0  0  0  0  0  1  0  0  0  0  0  0
  159.0260  213.2210  154.7550 C   0  0  1  0  0  3  0  0  0  0  0  0
  160.8880  208.8290  155.1560 C   0  0  0  0  0  3  0  0  0  0  0  0
  160.5480  209.8640  154.2750 C   0  0  0  0  0  0  0  0  0  0  0  0
  156.7510  214.0750  155.0710 O   0  0  0  0  0  0  0  0  0  0  0  0
  157.5070  212.9940  154.5850 C   0  0  0  0  0  3  0  0  0  0  0  0
  157.1040  211.7950  155.1830 O   0  0  0  0  0  0  0  0  0  0  0  0
  155.5630  213.4970  155.5110 C   0  0  0  0  0  2  0  0  0  0  0  0
  155.7650  212.0090  155.4860 C   0  0  0  0  0  2  0  0  0  0  0  0
  157.3120  214.0260  150.5620 C   0  0  0  0  0  1  0  0  0  0  0  0
  158.3110  212.8860  150.5110 C   0  0  0  0  0  2  0  0  0  0  0  0
  161.2280  212.2310  148.7070 C   0  0  0  0  0  2  0  0  0  0  0  0
  163.0720  213.5080  147.8860 O   0  0  0  0  0  1  0  0  0  0  0  0
  162.6080  212.2050  148.0680 C   0  0  0  0  0  2  0  0  0  0  0  0
  1 15  1  0  0  0  0
  2 15  2  0  0  0  0
  2 11  1  0  0  0  0
  3  8  1  0  0  0  0
  4  1  1  6  0  0  0
  4 16  1  0  0  0  0
  5  1  1  0  0  0  0
  7  6  1  6  0  0  0
  7 10  1  0  0  0  0
  8 17  1  1  0  0  0
  9 28  1  6  0  0  0
  9  5  1  0  0  0  0
  9  7  1  0  0  0  0
 10 27  1  6  0  0  0
 10  4  1  0  0  0  0
 11 14  2  0  0  0  0
 12  2  1  0  0  0  0
 13  3  1  0  0  0  0
 14 19  1  0  0  0  0
 15 20  1  0  0  0  0
 16 18  1  0  0  0  0
 16 13  1  1  0  0  0
 18 22  1  1  0  0  0
 18  8  1  0  0  0  0
 20 13  1  0  0  0  0
 20 19  2  0  0  0  0
 21 24  1  0  0  0  0
 22 21  1  0  0  0  0
 22 23  1  0  0  0  0
 23 25  1  0  0  0  0
 25 24  1  0  0  0  0
 27 26  1  0  0  0  0
 29 30  1  0  0  0  0
 30 28  1  0  0  0  0
M  END
>  <MODEL>
5

>  <REMARK>
 VINA RESULT:      -3.2      2.742      5.783
  Name = 
  4 active torsions:
  status: ('A' for Active; 'I' for Inactive)
    1  A    between atoms: C_9  and  C_22
    2  A    between atoms: C_11  and  C_28
    3  A    between atoms: C_12  and  C_27
    4  A    between atoms: C_28  and  C_30
                            x       y       z     vdW  Elec       q    Type
                         _______ _______ _______ _____ _____    ______ ____

>  <TORSDO>
F 4

$$$$
=
 OpenBabel11122412363D

 30 34  0  0  1  0  0  0  0  0999 V2000
  158.9630  212.3400  153.7030 N   0  0  0  0  0  0  0  0  0  0  0  0
  157.6820  213.6480  151.9850 C   0  0  0  0  0  0  0  0  0  0  0  0
  161.5830  210.8220  150.7440 C   0  0  0  0  0  2  0  0  0  0  0  0
  159.7420  211.1040  153.9370 C   0  0  2  0  0  3  0  0  0  0  0  0
  158.3920  213.0650  154.8410 C   0  0  0  0  0  2  0  0  0  0  0  0
  161.1100  212.1900  157.2610 O   0  0  0  0  0  1  0  0  0  0  0  0
  160.5520  212.3060  155.9850 C   0  0  2  0  0  3  0  0  0  0  0  0
  162.4860  209.9350  151.5860 C   0  0  2  0  0  3  0  0  0  0  0  0
  159.4520  213.3880  155.9030 C   0  0  2  0  0  3  0  0  0  0  0  0
  160.1320  210.9440  155.4140 C   0  0  1  0  0  3  0  0  0  0  0  0
  157.5400  214.0720  150.6600 C   0  0  0  0  0  3  0  0  0  0  0  0
  156.7320  214.0600  152.9120 O   0  0  0  0  0  1  0  0  0  0  0  0
  160.7460  211.5180  151.7040 N   0  0  0  0  0  0  0  0  0  0  0  0
  158.4470  213.6610  149.6850 C   0  0  0  0  0  3  0  0  0  0  0  0
  158.7600  212.8050  152.3490 C   0  0  0  0  0  0  0  0  0  0  0  0
  161.0140  211.1050  153.0710 C   0  0  2  0  0  3  0  0  0  0  0  0
  162.7220  208.7150  150.9480 O   0  0  0  0  0  1  0  0  0  0  0  0
  161.7760  209.7760  152.9400 C   0  0  1  0  0  3  0  0  0  0  0  0
  159.5040  212.8210  150.0280 C   0  0  0  0  0  3  0  0  0  0  0  0
  159.6650  212.3900  151.3510 C   0  0  0  0  0  0  0  0  0  0  0  0
  161.0580  207.7650  154.1420 O   0  0  0  0  0  0  0  0  0  0  0  0
  160.8880  208.5110  152.9630 C   0  0  0  0  0  3  0  0  0  0  0  0
  161.1110  207.7160  151.8330 O   0  0  0  0  0  0  0  0  0  0  0  0
  160.8290  206.4470  153.7540 C   0  0  0  0  0  2  0  0  0  0  0  0
  160.7640  206.4380  152.2540 C   0  0  0  0  0  2  0  0  0  0  0  0
  158.0680  209.5420  155.2630 C   0  0  0  0  0  1  0  0  0  0  0  0
  158.9920  210.3000  156.1970 C   0  0  0  0  0  2  0  0  0  0  0  0
  158.7640  213.6230  157.2450 C   0  0  0  0  0  2  0  0  0  0  0  0
  156.3960  213.3130  157.2610 O   0  0  0  0  0  1  0  0  0  0  0  0
  157.3980  214.2640  157.0590 C   0  0  0  0  0  2  0  0  0  0  0  0
  1  5  1  0  0  0  0
  2 15  1  0  0  0  0
  2 12  1  0  0  0  0
  3  8  1  0  0  0  0
  3 13  1  0  0  0  0
  4  1  1  1  0  0  0
  4 10  1  0  0  0  0
  5  9  1  0  0  0  0
  7  6  1  1  0  0  0
  8 17  1  6  0  0  0
  8 18  1  0  0  0  0
  9  7  1  0  0  0  0
  9 28  1  1  0  0  0
 10  7  1  0  0  0  0
 10 27  1  1  0  0  0
 11  2  2  0  0  0  0
 14 19  2  0  0  0  0
 14 11  1  0  0  0  0
 15  1  1  0  0  0  0
 16 13  1  6  0  0  0
 16  4  1  0  0  0  0
 18 22  1  6  0  0  0
 18 16  1  0  0  0  0
 19 20  1  0  0  0  0
 20 13  1  0  0  0  0
 20 15  2  0  0  0  0
 22 21  1  0  0  0  0
 23 25  1  0  0  0  0
 23 22  1  0  0  0  0
 24 21  1  0  0  0  0
 25 24  1  0  0  0  0
 26 27  1  0  0  0  0
 30 28  1  0  0  0  0
 30 29  1  0  0  0  0
M  END
>  <MODEL>
6

>  <REMARK>
 VINA RESULT:      -2.7      2.678      6.599
  Name = 
  4 active torsions:
  status: ('A' for Active; 'I' for Inactive)
    1  A    between atoms: C_9  and  C_22
    2  A    between atoms: C_11  and  C_28
    3  A    between atoms: C_12  and  C_27
    4  A    between atoms: C_28  and  C_30
                            x       y       z     vdW  Elec       q    Type
                         _______ _______ _______ _____ _____    ______ ____

>  <TORSDO>
F 4

$$$$
=
 OpenBabel11122412363D

 30 34  0  0  1  0  0  0  0  0999 V2000
  159.5720  211.3540  139.0900 N   0  0  0  0  0  0  0  0  0  0  0  0
  157.2950  212.0060  138.2520 C   0  0  0  0  0  0  0  0  0  0  0  0
  158.9810  213.5150  142.6820 C   0  0  0  0  0  2  0  0  0  0  0  0
  160.7200  211.7940  139.9120 C   0  0  2  0  0  3  0  0  0  0  0  0
  159.7520  210.2890  138.0990 C   0  0  0  0  0  2  0  0  0  0  0  0
  162.3750  208.4250  140.0110 O   0  0  0  0  0  1  0  0  0  0  0  0
  161.3510  209.3660  139.8710 C   0  0  2  0  0  3  0  0  0  0  0  0
  160.3080  213.2760  143.3830 C   0  0  2  0  0  3  0  0  0  0  0  0
  160.3770  209.0320  138.7200 C   0  0  2  0  0  3  0  0  0  0  0  0
  161.8910  210.8030  139.8360 C   0  0  1  0  0  3  0  0  0  0  0  0
  156.0690  212.6380  138.4790 C   0  0  0  0  0  3  0  0  0  0  0  0
  157.5100  211.4130  137.0140 O   0  0  0  0  0  1  0  0  0  0  0  0
  159.0270  212.6720  141.5020 N   0  0  0  0  0  0  0  0  0  0  0  0
  155.8150  213.2760  139.6920 C   0  0  0  0  0  3  0  0  0  0  0  0
  158.2870  211.9980  139.2620 C   0  0  0  0  0  0  0  0  0  0  0  0
  160.2900  211.9640  141.3790 C   0  0  2  0  0  3  0  0  0  0  0  0
  160.7830  214.4530  143.9670 O   0  0  0  0  0  1  0  0  0  0  0  0
  161.2560  212.7130  142.3120 C   0  0  1  0  0  3  0  0  0  0  0  0
  156.7890  213.2860  140.6890 C   0  0  0  0  0  3  0  0  0  0  0  0
  158.0210  212.6530  140.4820 C   0  0  0  0  0  0  0  0  0  0  0  0
  161.7180  214.0160  140.2880 O   0  0  0  0  0  0  0  0  0  0  0  0
  162.0710  213.8390  141.6370 C   0  0  0  0  0  3  0  0  0  0  0  0
  163.4460  213.6160  141.7670 O   0  0  0  0  0  0  0  0  0  0  0  0
  162.8900  214.4530  139.6760 C   0  0  0  0  0  2  0  0  0  0  0  0
  163.9950  214.2850  140.6790 C   0  0  0  0  0  2  0  0  0  0  0  0
  164.1730  211.3990  139.0050 C   0  0  0  0  0  1  0  0  0  0  0  0
  162.7450  211.0840  138.6020 C   0  0  0  0  0  2  0  0  0  0  0  0
  161.0340  208.2020  137.6210 C   0  0  0  0  0  2  0  0  0  0  0  0
  162.7500  206.6030  137.1730 O   0  0  0  0  0  1  0  0  0  0  0  0
  162.0250  207.2060  138.2010 C   0  0  0  0  0  2  0  0  0  0  0  0
  1 15  1  0  0  0  0
  2 11  2  0  0  0  0
  2 15  1  0  0  0  0
  3  8  1  0  0  0  0
  4  1  1  6  0  0  0
  4 16  1  0  0  0  0
  5  9  1  0  0  0  0
  5  1  1  0  0  0  0
  7  6  1  6  0  0  0
  8 17  1  6  0  0  0
  9 28  1  6  0  0  0
  9  7  1  0  0  0  0
 10 27  1  6  0  0  0
 10  7  1  0  0  0  0
 10  4  1  0  0  0  0
 11 14  1  0  0  0  0
 12  2  1  0  0  0  0
 13  3  1  0  0  0  0
 14 19  2  0  0  0  0
 15 20  2  0  0  0  0
 16 13  1  6  0  0  0
 16 18  1  0  0  0  0
 18 22  1  6  0  0  0
 18  8  1  0  0  0  0
 20 19  1  0  0  0  0
 20 13  1  0  0  0  0
 21 22  1  0  0  0  0
 22 23  1  0  0  0  0
 24 21  1  0  0  0  0
 24 25  1  0  0  0  0
 25 23  1  0  0  0  0
 27 26  1  0  0  0  0
 28 30  1  0  0  0  0
 29 30  1  0  0  0  0
M  END
>  <MODEL>
7

>  <REMARK>
 VINA RESULT:      -2.5      9.643     12.066
  Name = 
  4 active torsions:
  status: ('A' for Active; 'I' for Inactive)
    1  A    between atoms: C_9  and  C_22
    2  A    between atoms: C_11  and  C_28
    3  A    between atoms: C_12  and  C_27
    4  A    between atoms: C_28  and  C_30
                            x       y       z     vdW  Elec       q    Type
                         _______ _______ _______ _____ _____    ______ ____

>  <TORSDO>
F 4

$$$$
=
 OpenBabel11122412363D

 30 34  0  0  1  0  0  0  0  0999 V2000
  159.8660  211.7660  152.4470 N   0  0  0  0  0  0  0  0  0  0  0  0
  159.4020  213.3110  150.5210 C   0  0  0  0  0  0  0  0  0  0  0  0
  156.1760  212.7620  154.2680 C   0  0  0  0  0  2  0  0  0  0  0  0
  159.6490  211.5530  153.8950 C   0  0  2  0  0  3  0  0  0  0  0  0
  160.9560  211.0640  151.7640 C   0  0  0  0  0  2  0  0  0  0  0  0
  160.8250  207.9870  153.8910 O   0  0  0  0  0  1  0  0  0  0  0  0
  160.3220  209.1900  153.3870 C   0  0  2  0  0  3  0  0  0  0  0  0
  156.2430  211.9220  155.5330 C   0  0  2  0  0  3  0  0  0  0  0  0
  160.8930  209.5490  151.9970 C   0  0  2  0  0  3  0  0  0  0  0  0
  160.4160  210.3270  154.4140 C   0  0  1  0  0  3  0  0  0  0  0  0
  158.5270  214.1830  149.8670 C   0  0  0  0  0  3  0  0  0  0  0  0
  160.6580  213.1010  149.9660 O   0  0  0  0  0  1  0  0  0  0  0  0
  157.3350  212.3600  153.4930 N   0  0  0  0  0  0  0  0  0  0  0  0
  157.2680  214.4530  150.3990 C   0  0  0  0  0  3  0  0  0  0  0  0
  159.0080  212.6830  151.7280 C   0  0  0  0  0  0  0  0  0  0  0  0
  158.1480  211.3770  154.1870 C   0  0  2  0  0  3  0  0  0  0  0  0
  155.8050  212.6520  156.6400 O   0  0  0  0  0  1  0  0  0  0  0  0
  157.7050  211.4620  155.6570 C   0  0  1  0  0  3  0  0  0  0  0  0
  156.8740  213.8520  151.5930 C   0  0  0  0  0  3  0  0  0  0  0  0
  157.7350  212.9720  152.2600 C   0  0  0  0  0  0  0  0  0  0  0  0
  158.8730  213.6090  155.8350 O   0  0  0  0  0  0  0  0  0  0  0  0
  158.5270  212.4370  156.5290 C   0  0  0  0  0  3  0  0  0  0  0  0
  159.6650  211.8120  157.0520 O   0  0  0  0  0  0  0  0  0  0  0  0
  160.0910  213.9940  156.3900 C   0  0  0  0  0  2  0  0  0  0  0  0
  160.5530  212.8610  157.2610 C   0  0  0  0  0  2  0  0  0  0  0  0
  162.3210  209.9790  155.9950 C   0  0  0  0  0  1  0  0  0  0  0  0
  161.8560  210.7070  154.7480 C   0  0  0  0  0  2  0  0  0  0  0  0
  162.2760  208.9470  151.7610 C   0  0  0  0  0  2  0  0  0  0  0  0
  161.2780  207.1440  150.5540 O   0  0  0  0  0  1  0  0  0  0  0  0
  162.2980  208.0940  150.5020 C   0  0  0  0  0  2  0  0  0  0  0  0
  2 15  1  0  0  0  0
  3  8  1  0  0  0  0
  4  1  1  6  0  0  0
  4 16  1  0  0  0  0
  4 10  1  0  0  0  0
  5  9  1  0  0  0  0
  5  1  1  0  0  0  0
  7  6  1  1  0  0  0
  7 10  1  0  0  0  0
  8 18  1  0  0  0  0
  8 17  1  1  0  0  0
  9 28  1  1  0  0  0
  9  7  1  0  0  0  0
 10 27  1  6  0  0  0
 11 14  1  0  0  0  0
 11  2  2  0  0  0  0
 12  2  1  0  0  0  0
 13  3  1  0  0  0  0
 14 19  2  0  0  0  0
 15 20  2  0  0  0  0
 15  1  1  0  0  0  0
 16 13  1  6  0  0  0
 16 18  1  0  0  0  0
 18 22  1  1  0  0  0
 19 20  1  0  0  0  0
 20 13  1  0  0  0  0
 21 24  1  0  0  0  0
 21 22  1  0  0  0  0
 22 23  1  0  0  0  0
 23 25  1  0  0  0  0
 24 25  1  0  0  0  0
 27 26  1  0  0  0  0
 30 29  1  0  0  0  0
 30 28  1  0  0  0  0
M  END
>  <MODEL>
8

>  <REMARK>
 VINA RESULT:      -2.4      2.438      4.050
  Name = 
  4 active torsions:
  status: ('A' for Active; 'I' for Inactive)
    1  A    between atoms: C_9  and  C_22
    2  A    between atoms: C_11  and  C_28
    3  A    between atoms: C_12  and  C_27
    4  A    between atoms: C_28  and  C_30
                            x       y       z     vdW  Elec       q    Type
                         _______ _______ _______ _____ _____    ______ ____

>  <TORSDO>
F 4

$$$$
