=
 OpenBabel11122412423D

 30 35  0  0  1  0  0  0  0  0999 V2000
  161.6330  207.7460  151.3620 C   0  0  2  0  0  3  0  0  0  0  0  0
  161.7190  210.2890  150.8890 C   0  0  0  0  0  0  0  0  0  0  0  0
  162.2810  206.9570  147.2890 N   0  0  0  0  0  0  0  0  0  0  0  0
  161.0950  206.4450  150.7200 C   0  0  2  0  0  3  0  0  0  0  0  0
  160.8280  207.9680  152.6260 C   0  0  0  0  0  2  0  0  0  0  0  0
  161.3420  204.5400  153.8620 O   0  0  0  0  0  0  0  0  0  0  0  0
  160.4420  203.5970  149.9560 C   0  0  1  0  0  3  0  0  0  0  0  0
  161.2730  205.5200  153.0700 C   0  0  0  0  0  0  0  0  0  0  0  0
  161.1680  203.8930  148.7410 N   0  0  0  0  0  0  0  0  0  0  0  0
  162.0720  205.6500  147.2390 N   0  0  0  0  0  0  0  0  0  0  0  0
  161.2220  206.9140  153.6550 C   0  0  2  0  0  3  0  0  0  0  0  0
  161.3140  205.3010  151.6350 N   0  0  0  0  0  0  0  0  0  0  0  0
  161.9010  211.3480  149.9960 C   0  0  0  0  0  3  0  0  0  0  0  0
  161.2350  202.7660  147.8340 C   0  0  0  0  0  2  0  0  0  0  0  0
  160.1100  202.1140  149.8950 C   0  0  0  0  0  2  0  0  0  0  0  0
  161.5670  210.5860  152.2380 O   0  0  0  0  0  1  0  0  0  0  0  0
  162.0410  207.3450  148.5570 C   0  0  0  0  0  0  0  0  0  0  0  0
  162.1150  211.1060  148.6400 C   0  0  0  0  0  3  0  0  0  0  0  0
  161.7120  208.9520  150.4180 C   0  0  0  0  0  0  0  0  0  0  0  0
  161.6890  206.2730  149.3400 C   0  0  0  0  0  0  0  0  0  0  0  0
  162.1730  204.8880  146.0070 C   0  0  0  0  0  1  0  0  0  0  0  0
  161.6750  205.2070  148.4550 C   0  0  0  0  0  0  0  0  0  0  0  0
  160.3900  201.6740  148.4650 C   0  0  0  0  0  2  0  0  0  0  0  0
  162.0060  203.0650  151.6900 O   0  0  0  0  0  0  0  0  0  0  0  0
  162.1650  209.7960  148.1660 C   0  0  0  0  0  3  0  0  0  0  0  0
  161.9820  208.7240  149.0460 C   0  0  0  0  0  0  0  0  0  0  0  0
  161.2810  203.9450  151.1500 C   0  0  0  0  0  0  0  0  0  0  0  0
  160.2610  206.9730  154.8370 C   0  0  0  0  0  2  0  0  0  0  0  0
  161.5900  208.1530  156.3590 C   0  0  0  0  0  1  0  0  0  0  0  0
  160.3960  208.2420  155.5370 N   0  0  0  0  0  2  0  0  0  0  0  0
  1  5  1  1  0  0  0
  2 16  1  0  0  0  0
  3 17  2  0  0  0  0
  4 20  1  6  0  0  0
  4  1  1  0  0  0  0
  4 12  1  0  0  0  0
  5 11  1  0  0  0  0
  7 15  1  1  0  0  0
  7 27  1  0  0  0  0
  8 11  1  0  0  0  0
  8  6  2  0  0  0  0
  9  7  1  0  0  0  0
 10  3  1  0  0  0  0
 10 22  1  0  0  0  0
 11 28  1  1  0  0  0
 12  8  1  0  0  0  0
 13  2  2  0  0  0  0
 14 23  1  0  0  0  0
 14  9  1  0  0  0  0
 17 26  1  0  0  0  0
 17 20  1  0  0  0  0
 18 13  1  0  0  0  0
 19  2  1  0  0  0  0
 19  1  1  0  0  0  0
 21 10  1  0  0  0  0
 22  9  1  0  0  0  0
 22 20  2  0  0  0  0
 23 15  1  0  0  0  0
 25 18  2  0  0  0  0
 25 26  1  0  0  0  0
 26 19  2  0  0  0  0
 27 12  1  0  0  0  0
 27 24  2  0  0  0  0
 28 30  1  0  0  0  0
 30 29  1  0  0  0  0
M  END
>  <MODEL>
1

>  <REMARK>
 VINA RESULT:      -9.2      0.000      0.000
  Name = 
  2 active torsions:
  status: ('A' for Active; 'I' for Inactive)
    1  A    between atoms: C_11  and  C_28
    2  A    between atoms: C_28  and  N_30
                            x       y       z     vdW  Elec       q    Type
                         _______ _______ _______ _____ _____    ______ ____

>  <TORSDO>
F 2

$$$$
=
 OpenBabel11122412423D

 30 35  0  0  1  0  0  0  0  0999 V2000
  161.4290  205.6780  149.8390 C   0  0  2  0  0  3  0  0  0  0  0  0
  161.0210  203.1280  149.6810 C   0  0  0  0  0  0  0  0  0  0  0  0
  161.1870  205.4670  154.0250 N   0  0  0  0  0  0  0  0  0  0  0  0
  160.9510  206.9010  150.6590 C   0  0  2  0  0  3  0  0  0  0  0  0
  160.9280  205.8870  148.4240 C   0  0  0  0  0  2  0  0  0  0  0  0
  162.2270  209.3220  148.1950 O   0  0  0  0  0  0  0  0  0  0  0  0
  160.5640  209.6030  151.9510 C   0  0  1  0  0  3  0  0  0  0  0  0
  161.8250  208.2340  148.6920 C   0  0  0  0  0  0  0  0  0  0  0  0
  160.9240  208.9240  153.1770 N   0  0  0  0  0  0  0  0  0  0  0  0
  161.1690  206.7510  154.3510 N   0  0  0  0  0  0  0  0  0  0  0  0
  161.7100  207.0290  147.7850 C   0  0  2  0  0  3  0  0  0  0  0  0
  161.5510  208.1410  150.1150 N   0  0  0  0  0  0  0  0  0  0  0  0
  160.8220  201.8930  150.3040 C   0  0  0  0  0  3  0  0  0  0  0  0
  160.9360  209.8040  154.3270 C   0  0  0  0  0  2  0  0  0  0  0  0
  160.4510  211.0760  152.3060 C   0  0  0  0  0  2  0  0  0  0  0  0
  161.1550  203.1510  148.2980 O   0  0  0  0  0  1  0  0  0  0  0  0
  161.2040  205.4050  152.6790 C   0  0  0  0  0  0  0  0  0  0  0  0
  160.7380  201.8040  151.6930 C   0  0  0  0  0  3  0  0  0  0  0  0
  161.0990  204.3130  150.4540 C   0  0  0  0  0  0  0  0  0  0  0  0
  161.2150  206.6630  152.1290 C   0  0  0  0  0  0  0  0  0  0  0  0
  161.0820  207.2080  155.7270 C   0  0  0  0  0  1  0  0  0  0  0  0
  161.1460  207.5050  153.2270 C   0  0  0  0  0  0  0  0  0  0  0  0
  160.4410  211.1480  153.8270 C   0  0  0  0  0  2  0  0  0  0  0  0
  162.5610  210.1550  150.7500 O   0  0  0  0  0  0  0  0  0  0  0  0
  160.8660  202.9520  152.4730 C   0  0  0  0  0  3  0  0  0  0  0  0
  161.0610  204.1950  151.8650 C   0  0  0  0  0  0  0  0  0  0  0  0
  161.6040  209.3470  150.9010 C   0  0  0  0  0  0  0  0  0  0  0  0
  161.0650  207.4070  146.4570 C   0  0  0  0  0  2  0  0  0  0  0  0
  161.0030  205.7850  144.7730 C   0  0  0  0  0  1  0  0  0  0  0  0
  160.2910  206.2920  145.9330 N   0  0  0  0  0  2  0  0  0  0  0  0
  1  5  1  6  0  0  0
  1 19  1  0  0  0  0
  1  4  1  0  0  0  0
  2 13  2  0  0  0  0
  2 19  1  0  0  0  0
  3 10  1  0  0  0  0
  4 20  1  1  0  0  0
  6  8  2  0  0  0  0
  7 15  1  1  0  0  0
  7  9  1  0  0  0  0
  8 12  1  0  0  0  0
  9 22  1  0  0  0  0
  9 14  1  0  0  0  0
 10 21  1  0  0  0  0
 11 28  1  6  0  0  0
 11  5  1  0  0  0  0
 11  8  1  0  0  0  0
 12  4  1  0  0  0  0
 12 27  1  0  0  0  0
 13 18  1  0  0  0  0
 15 23  1  0  0  0  0
 16  2  1  0  0  0  0
 17  3  2  0  0  0  0
 18 25  2  0  0  0  0
 19 26  2  0  0  0  0
 20 17  1  0  0  0  0
 20 22  2  0  0  0  0
 22 10  1  0  0  0  0
 23 14  1  0  0  0  0
 24 27  2  0  0  0  0
 26 25  1  0  0  0  0
 26 17  1  0  0  0  0
 27  7  1  0  0  0  0
 29 30  1  0  0  0  0
 30 28  1  0  0  0  0
M  END
>  <MODEL>
2

>  <REMARK>
 VINA RESULT:      -8.6      2.033      7.343
  Name = 
  2 active torsions:
  status: ('A' for Active; 'I' for Inactive)
    1  A    between atoms: C_11  and  C_28
    2  A    between atoms: C_28  and  N_30
                            x       y       z     vdW  Elec       q    Type
                         _______ _______ _______ _____ _____    ______ ____

>  <TORSDO>
F 2

$$$$
=
 OpenBabel11122412423D

 30 35  0  0  1  0  0  0  0  0999 V2000
  161.3090  208.5140  151.3070 C   0  0  2  0  0  3  0  0  0  0  0  0
  161.3620  208.9780  153.8520 C   0  0  0  0  0  0  0  0  0  0  0  0
  160.6570  204.4340  152.0550 N   0  0  0  0  0  0  0  0  0  0  0  0
  161.7840  207.4450  150.2930 C   0  0  2  0  0  3  0  0  0  0  0  0
  162.1140  209.7650  151.0220 C   0  0  0  0  0  2  0  0  0  0  0  0
  161.4080  209.7060  147.4100 O   0  0  0  0  0  0  0  0  0  0  0  0
  162.2920  205.7110  147.8730 C   0  0  1  0  0  3  0  0  0  0  0  0
  161.5360  209.3140  148.6030 C   0  0  0  0  0  0  0  0  0  0  0  0
  161.5940  204.6890  148.6210 N   0  0  0  0  0  0  0  0  0  0  0  0
  160.7970  203.9200  150.8420 N   0  0  0  0  0  0  0  0  0  0  0  0
  161.6560  210.3560  149.6930 C   0  0  2  0  0  3  0  0  0  0  0  0
  161.4960  207.8960  148.9120 N   0  0  0  0  0  0  0  0  0  0  0  0
  161.2450  208.5220  155.1680 C   0  0  0  0  0  3  0  0  0  0  0  0
  161.4750  203.4400  147.8960 C   0  0  0  0  0  2  0  0  0  0  0  0
  162.5460  205.1230  146.4950 C   0  0  0  0  0  2  0  0  0  0  0  0
  161.5180  210.3430  153.6420 O   0  0  0  0  0  1  0  0  0  0  0  0
  160.9060  205.7540  151.9520 C   0  0  0  0  0  0  0  0  0  0  0  0
  161.0300  207.1710  155.4360 C   0  0  0  0  0  3  0  0  0  0  0  0
  161.3030  208.0620  152.7720 C   0  0  0  0  0  0  0  0  0  0  0  0
  161.1930  206.1010  150.6550 C   0  0  0  0  0  0  0  0  0  0  0  0
  160.6670  202.4980  150.5750 C   0  0  0  0  0  1  0  0  0  0  0  0
  161.1600  204.8940  149.9750 C   0  0  0  0  0  0  0  0  0  0  0  0
  162.2550  203.6330  146.6070 C   0  0  0  0  0  2  0  0  0  0  0  0
  160.6860  207.1580  146.8430 O   0  0  0  0  0  0  0  0  0  0  0  0
  160.9150  206.2630  154.3850 C   0  0  0  0  0  3  0  0  0  0  0  0
  161.0340  206.7020  153.0620 C   0  0  0  0  0  0  0  0  0  0  0  0
  161.4620  206.9590  147.8170 C   0  0  0  0  0  0  0  0  0  0  0  0
  162.6070  211.4720  149.2770 C   0  0  0  0  0  2  0  0  0  0  0  0
  162.6160  213.0910  147.5880 C   0  0  0  0  0  1  0  0  0  0  0  0
  161.8640  212.5950  148.7270 N   0  0  0  0  0  2  0  0  0  0  0  0
  1  5  1  1  0  0  0
  1 19  1  0  0  0  0
  2 13  1  0  0  0  0
  4 20  1  1  0  0  0
  4  1  1  0  0  0  0
  6  8  2  0  0  0  0
  7 15  1  6  0  0  0
  7  9  1  0  0  0  0
  8 12  1  0  0  0  0
  8 11  1  0  0  0  0
  9 22  1  0  0  0  0
 10  3  1  0  0  0  0
 11 28  1  6  0  0  0
 11  5  1  0  0  0  0
 12  4  1  0  0  0  0
 13 18  2  0  0  0  0
 14  9  1  0  0  0  0
 15 23  1  0  0  0  0
 16  2  1  0  0  0  0
 17  3  2  0  0  0  0
 17 26  1  0  0  0  0
 19 26  1  0  0  0  0
 19  2  2  0  0  0  0
 20 17  1  0  0  0  0
 21 10  1  0  0  0  0
 22 20  2  0  0  0  0
 22 10  1  0  0  0  0
 23 14  1  0  0  0  0
 24 27  2  0  0  0  0
 25 18  1  0  0  0  0
 26 25  2  0  0  0  0
 27  7  1  0  0  0  0
 27 12  1  0  0  0  0
 29 30  1  0  0  0  0
 30 28  1  0  0  0  0
M  END
>  <MODEL>
3

>  <REMARK>
 VINA RESULT:      -7.4      2.151      5.110
  Name = 
  2 active torsions:
  status: ('A' for Active; 'I' for Inactive)
    1  A    between atoms: C_11  and  C_28
    2  A    between atoms: C_28  and  N_30
                            x       y       z     vdW  Elec       q    Type
                         _______ _______ _______ _____ _____    ______ ____

>  <TORSDO>
F 2

$$$$
=
 OpenBabel11122412423D

 30 35  0  0  1  0  0  0  0  0999 V2000
  161.2660  209.3030  151.6980 C   0  0  2  0  0  3  0  0  0  0  0  0
  161.0990  211.7610  150.9080 C   0  0  0  0  0  0  0  0  0  0  0  0
  162.1920  208.0990  147.7830 N   0  0  0  0  0  0  0  0  0  0  0  0
  160.9030  207.8800  151.2080 C   0  0  2  0  0  3  0  0  0  0  0  0
  160.3800  209.5850  152.8940 C   0  0  0  0  0  2  0  0  0  0  0  0
  161.2010  206.4150  154.5740 O   0  0  0  0  0  0  0  0  0  0  0  0
  160.6000  204.9040  150.7910 C   0  0  1  0  0  3  0  0  0  0  0  0
  161.0660  207.2770  153.6620 C   0  0  0  0  0  0  0  0  0  0  0  0
  161.3480  205.1300  149.5740 N   0  0  0  0  0  0  0  0  0  0  0  0
  162.1290  206.7810  147.8930 N   0  0  0  0  0  0  0  0  0  0  0  0
  160.8350  208.7170  154.0620 C   0  0  2  0  0  3  0  0  0  0  0  0
  161.1990  206.8900  152.2690 N   0  0  0  0  0  0  0  0  0  0  0  0
  161.2080  212.7170  149.8940 C   0  0  0  0  0  3  0  0  0  0  0  0
  161.5800  203.9150  148.8200 C   0  0  0  0  0  2  0  0  0  0  0  0
  160.4330  203.3980  150.9070 C   0  0  0  0  0  2  0  0  0  0  0  0
  160.8490  212.2030  152.2020 O   0  0  0  0  0  1  0  0  0  0  0  0
  161.8500  208.6090  148.9830 C   0  0  0  0  0  0  0  0  0  0  0  0
  161.5130  212.3360  148.5880 C   0  0  0  0  0  3  0  0  0  0  0  0
  161.2590  210.3850  150.6110 C   0  0  0  0  0  0  0  0  0  0  0  0
  161.5790  207.6090  149.8830 C   0  0  0  0  0  0  0  0  0  0  0  0
  162.3710  205.8900  146.7720 C   0  0  0  0  0  1  0  0  0  0  0  0
  161.7230  206.4470  149.1410 C   0  0  0  0  0  0  0  0  0  0  0  0
  160.8290  202.8200  149.5560 C   0  0  0  0  0  2  0  0  0  0  0  0
  162.1260  204.7700  152.6310 O   0  0  0  0  0  0  0  0  0  0  0  0
  161.7270  210.9920  148.2880 C   0  0  0  0  0  3  0  0  0  0  0  0
  161.6180  210.0230  149.2900 C   0  0  0  0  0  0  0  0  0  0  0  0
  161.3370  205.4890  151.9590 C   0  0  0  0  0  0  0  0  0  0  0  0
  159.8180  208.8120  155.1930 C   0  0  0  0  0  2  0  0  0  0  0  0
  160.0910  210.0140  157.1810 C   0  0  0  0  0  1  0  0  0  0  0  0
  159.8140  210.1500  155.7620 N   0  0  0  0  0  2  0  0  0  0  0  0
  1  5  1  1  0  0  0
  2 16  1  0  0  0  0
  3 10  1  0  0  0  0
  3 17  2  0  0  0  0
  4 20  1  6  0  0  0
  4  1  1  0  0  0  0
  4 12  1  0  0  0  0
  5 11  1  0  0  0  0
  7 15  1  1  0  0  0
  7 27  1  0  0  0  0
  8 11  1  0  0  0  0
  8  6  2  0  0  0  0
  9  7  1  0  0  0  0
 10 22  1  0  0  0  0
 11 28  1  1  0  0  0
 12  8  1  0  0  0  0
 13  2  2  0  0  0  0
 14 23  1  0  0  0  0
 14  9  1  0  0  0  0
 17 26  1  0  0  0  0
 17 20  1  0  0  0  0
 18 13  1  0  0  0  0
 19  2  1  0  0  0  0
 19  1  1  0  0  0  0
 21 10  1  0  0  0  0
 22  9  1  0  0  0  0
 22 20  2  0  0  0  0
 23 15  1  0  0  0  0
 25 18  2  0  0  0  0
 25 26  1  0  0  0  0
 26 19  2  0  0  0  0
 27 12  1  0  0  0  0
 27 24  2  0  0  0  0
 28 30  1  0  0  0  0
 30 29  1  0  0  0  0
M  END
>  <MODEL>
4

>  <REMARK>
 VINA RESULT:      -6.4      1.378      1.653
  Name = 
  2 active torsions:
  status: ('A' for Active; 'I' for Inactive)
    1  A    between atoms: C_11  and  C_28
    2  A    between atoms: C_28  and  N_30
                            x       y       z     vdW  Elec       q    Type
                         _______ _______ _______ _____ _____    ______ ____

>  <TORSDO>
F 2

$$$$
