=
 OpenBabel11122413413D

 37 42  0  0  1  0  0  0  0  0999 V2000
  160.8370  207.8610  156.1550 C   0  0  1  0  0  0  0  0  0  0  0  0
  160.2550  210.4020  152.8910 C   0  0  0  0  0  0  0  0  0  0  0  0
  162.7090  210.9270  151.5150 C   0  0  0  0  0  1  0  0  0  0  0  0
  160.2830  210.1950  155.2720 C   0  0  0  0  0  0  0  0  0  0  0  0
  160.6650  209.6040  151.6930 C   0  0  1  0  0  3  0  0  0  0  0  0
  160.4080  209.6510  154.0060 C   0  0  0  0  0  0  0  0  0  0  0  0
  161.5780  210.3320  150.7940 N   0  0  0  0  0  0  0  0  0  0  0  0
  159.9800  211.5230  155.3800 N   0  0  0  0  0  0  0  0  0  0  0  0
  160.9470  208.3810  153.7430 N   0  0  0  0  0  0  0  0  0  0  0  0
  159.4640  207.2110  156.1130 C   0  0  0  0  0  1  0  0  0  0  0  0
  160.0880  212.6380  151.7690 C   0  0  0  0  0  2  0  0  0  0  0  0
  159.8290  212.3140  154.2680 C   0  0  0  0  0  3  0  0  0  0  0  0
  161.5660  207.6080  154.8160 C   0  0  0  0  0  2  0  0  0  0  0  0
  159.9760  211.7640  152.9800 C   0  0  0  0  0  0  0  0  0  0  0  0
  161.3100  208.3330  152.3240 C   0  0  1  0  0  3  0  0  0  0  0  0
  160.6810  209.3700  156.4670 C   0  0  0  0  0  2  0  0  0  0  0  0
  160.8320  211.3370  149.9960 C   0  0  1  0  0  3  0  0  0  0  0  0
  161.5730  207.2680  157.1800 O   0  0  0  0  0  1  0  0  0  0  0  0
  159.6980  211.9360  150.6130 O   0  0  0  0  0  0  0  0  0  0  0  0
  161.6750  206.6240  150.4790 C   0  0  0  0  0  2  0  0  0  0  0  0
  161.0270  205.5240  149.6950 C   0  0  0  0  0  0  0  0  0  0  0  0
  161.2410  203.8440  151.4810 C   0  0  0  0  0  0  0  0  0  0  0  0
  160.8930  204.3190  150.1690 N   0  0  0  0  0  0  0  0  0  0  0  0
  161.5850  204.7520  152.6260 C   0  0  1  0  0  3  0  0  0  0  0  0
  162.9110  205.1450  152.5780 F   0  0  0  0  0  0  0  0  0  0  0  0
  160.6280  205.9420  152.7360 C   0  0  0  0  0  2  0  0  0  0  0  0
  161.2410  202.6030  151.6920 O   0  0  0  0  0  0  0  0  0  0  0  0
  160.8160  207.0380  151.6760 C   0  0  1  0  0  3  0  0  0  0  0  0
  160.7000  207.0210  147.8170 O   0  0  0  0  0  1  0  0  0  0  0  0
  160.5770  205.7900  148.3670 N   0  0  0  0  0  2  0  0  0  0  0  0
  161.4390  213.6280  149.0940 C   0  0  0  0  0  3  0  0  0  0  0  0
  161.6590  212.2430  149.1240 C   0  0  0  0  0  0  0  0  0  0  0  0
  162.6880  211.6900  148.3550 C   0  0  0  0  0  3  0  0  0  0  0  0
  164.4780  211.9700  146.8060 F   0  0  0  0  0  0  0  0  0  0  0  0
  163.2590  213.8900  147.5190 C   0  0  0  0  0  3  0  0  0  0  0  0
  163.4850  212.5120  147.5510 C   0  0  0  0  0  0  0  0  0  0  0  0
  162.2350  214.4490  148.2910 C   0  0  0  0  0  3  0  0  0  0  0  0
  1 10  1  6  0  0  0
  1 16  1  0  0  0  0
  1 18  1  0  0  0  0
  2 14  2  0  0  0  0
  2  6  1  0  0  0  0
  4  8  1  0  0  0  0
  4 16  1  0  0  0  0
  5 15  1  0  0  0  0
  5  2  1  1  0  0  0
  6  4  2  0  0  0  0
  7  3  1  0  0  0  0
  7  5  1  0  0  0  0
  9  6  1  0  0  0  0
  9 13  1  0  0  0  0
 11 14  1  0  0  0  0
 12  8  2  0  0  0  0
 13  1  1  0  0  0  0
 14 12  1  0  0  0  0
 15  9  1  1  0  0  0
 17 32  1  1  0  0  0
 17 19  1  0  0  0  0
 17  7  1  0  0  0  0
 19 11  1  0  0  0  0
 21 23  2  0  0  0  0
 21 20  1  0  0  0  0
 22 27  2  0  0  0  0
 22 24  1  0  0  0  0
 23 22  1  0  0  0  0
 24 25  1  6  0  0  0
 24 26  1  0  0  0  0
 28 20  1  6  0  0  0
 28 15  1  0  0  0  0
 28 26  1  0  0  0  0
 29 30  1  0  0  0  0
 30 21  1  0  0  0  0
 31 32  1  0  0  0  0
 33 32  2  0  0  0  0
 34 36  1  0  0  0  0
 35 36  2  0  0  0  0
 35 37  1  0  0  0  0
 36 33  1  0  0  0  0
 37 31  2  0  0  0  0
M  END
>  <MODEL>
1

>  <REMARK>
 VINA RESULT:      -5.0      0.000      0.000
  Name = 
  2 active torsions:
  status: ('A' for Active; 'I' for Inactive)
    1  A    between atoms: C_21  and  C_27
    2  A    between atoms: C_23  and  C_30
                            x       y       z     vdW  Elec       q    Type
                         _______ _______ _______ _____ _____    ______ ____

>  <TORSDO>
F 2

$$$$
=
 OpenBabel11122413413D

 37 42  0  0  1  0  0  0  0  0999 V2000
  161.5460  210.2780  154.2680 C   0  0  1  0  0  0  0  0  0  0  0  0
  160.5070  211.5450  150.4250 C   0  0  0  0  0  0  0  0  0  0  0  0
  162.7650  212.6030  149.0200 C   0  0  0  0  0  1  0  0  0  0  0  0
  160.3130  211.9470  152.7740 C   0  0  0  0  0  0  0  0  0  0  0  0
  161.3190  210.6960  149.4980 C   0  0  1  0  0  3  0  0  0  0  0  0
  160.7780  211.2000  151.7050 C   0  0  0  0  0  0  0  0  0  0  0  0
  162.0180  211.4730  148.4580 N   0  0  0  0  0  0  0  0  0  0  0  0
  159.5480  213.0470  152.5120 N   0  0  0  0  0  0  0  0  0  0  0  0
  161.7610  210.2020  151.8090 N   0  0  0  0  0  0  0  0  0  0  0  0
  160.5100  209.1710  154.3690 C   0  0  0  0  0  1  0  0  0  0  0  0
  159.6980  213.2130  148.7370 C   0  0  0  0  0  2  0  0  0  0  0  0
  159.2650  213.4300  151.2240 C   0  0  0  0  0  3  0  0  0  0  0  0
  162.4770  210.0010  153.0650 C   0  0  0  0  0  2  0  0  0  0  0  0
  159.7550  212.6820  150.1360 C   0  0  0  0  0  0  0  0  0  0  0  0
  162.2890  209.9520  150.4640 C   0  0  1  0  0  3  0  0  0  0  0  0
  160.8280  211.6460  154.1570 C   0  0  0  0  0  2  0  0  0  0  0  0
  161.0680  211.8990  147.4000 C   0  0  1  0  0  3  0  0  0  0  0  0
  162.3120  210.2710  155.4330 O   0  0  0  0  0  1  0  0  0  0  0  0
  159.7280  212.1590  147.8050 O   0  0  0  0  0  0  0  0  0  0  0  0
  161.0860  207.7160  150.5650 C   0  0  0  0  0  2  0  0  0  0  0  0
  161.2780  206.2300  150.5400 C   0  0  0  0  0  0  0  0  0  0  0  0
  161.5940  206.1040  148.1020 C   0  0  0  0  0  0  0  0  0  0  0  0
  161.4630  205.5730  149.4320 N   0  0  0  0  0  0  0  0  0  0  0  0
  161.8000  207.5620  147.8110 C   0  0  1  0  0  3  0  0  0  0  0  0
  160.6000  208.2520  147.8090 F   0  0  0  0  0  0  0  0  0  0  0  0
  162.8390  208.2020  148.7350 C   0  0  0  0  0  2  0  0  0  0  0  0
  161.5520  205.3080  147.1290 O   0  0  0  0  0  0  0  0  0  0  0  0
  162.3710  208.4510  150.1780 C   0  0  1  0  0  3  0  0  0  0  0  0
  161.0120  206.1300  152.9470 O   0  0  0  0  0  1  0  0  0  0  0  0
  161.2140  205.5010  151.7650 N   0  0  0  0  0  2  0  0  0  0  0  0
  162.7620  213.5930  146.5660 C   0  0  0  0  0  3  0  0  0  0  0  0
  161.6200  212.8100  146.3370 C   0  0  0  0  0  0  0  0  0  0  0  0
  160.9970  212.8480  145.0850 C   0  0  0  0  0  3  0  0  0  0  0  0
  160.8910  213.7060  142.8640 F   0  0  0  0  0  0  0  0  0  0  0  0
  162.6350  214.4530  144.3070 C   0  0  0  0  0  3  0  0  0  0  0  0
  161.5010  213.6710  144.0730 C   0  0  0  0  0  0  0  0  0  0  0  0
  163.2650  214.4140  145.5550 C   0  0  0  0  0  3  0  0  0  0  0  0
  1 10  1  1  0  0  0
  1 18  1  0  0  0  0
  2  6  1  0  0  0  0
  4 16  1  0  0  0  0
  5  2  1  1  0  0  0
  5 15  1  0  0  0  0
  6  9  1  0  0  0  0
  6  4  2  0  0  0  0
  7  3  1  0  0  0  0
  7  5  1  0  0  0  0
  8  4  1  0  0  0  0
  9 13  1  0  0  0  0
 11 14  1  0  0  0  0
 12  8  2  0  0  0  0
 13  1  1  0  0  0  0
 14  2  2  0  0  0  0
 14 12  1  0  0  0  0
 15  9  1  1  0  0  0
 16  1  1  0  0  0  0
 17 32  1  1  0  0  0
 17 19  1  0  0  0  0
 17  7  1  0  0  0  0
 19 11  1  0  0  0  0
 21 20  1  0  0  0  0
 21 30  1  0  0  0  0
 22 23  1  0  0  0  0
 23 21  2  0  0  0  0
 24 25  1  1  0  0  0
 24 22  1  0  0  0  0
 24 26  1  0  0  0  0
 27 22  2  0  0  0  0
 28 26  1  6  0  0  0
 28 15  1  0  0  0  0
 28 20  1  0  0  0  0
 30 29  1  0  0  0  0
 32 31  1  0  0  0  0
 33 32  2  0  0  0  0
 34 36  1  0  0  0  0
 35 37  1  0  0  0  0
 36 35  2  0  0  0  0
 36 33  1  0  0  0  0
 37 31  2  0  0  0  0
M  END
>  <MODEL>
2

>  <REMARK>
 VINA RESULT:      -3.5      2.453      3.519
  Name = 
  2 active torsions:
  status: ('A' for Active; 'I' for Inactive)
    1  A    between atoms: C_21  and  C_27
    2  A    between atoms: C_23  and  C_30
                            x       y       z     vdW  Elec       q    Type
                         _______ _______ _______ _____ _____    ______ ____

>  <TORSDO>
F 2

$$$$
=
 OpenBabel11122413413D

 37 42  0  0  1  0  0  0  0  0999 V2000
  162.1470  206.6450  147.8520 C   0  0  1  0  0  0  0  0  0  0  0  0
  160.8740  208.3010  151.4700 C   0  0  0  0  0  0  0  0  0  0  0  0
  162.9920  209.7040  152.7880 C   0  0  0  0  0  1  0  0  0  0  0  0
  161.3840  206.2990  150.2680 C   0  0  0  0  0  0  0  0  0  0  0  0
  161.0510  209.7790  151.3100 C   0  0  1  0  0  3  0  0  0  0  0  0
  161.2620  207.6760  150.3350 C   0  0  0  0  0  0  0  0  0  0  0  0
  161.7510  210.4070  152.4450 N   0  0  0  0  0  0  0  0  0  0  0  0
  161.0840  205.5670  151.3820 N   0  0  0  0  0  0  0  0  0  0  0  0
  161.7610  208.5600  149.3640 N   0  0  0  0  0  0  0  0  0  0  0  0
  160.8070  206.7320  147.1430 C   0  0  0  0  0  1  0  0  0  0  0  0
  160.4440  208.2760  153.9400 C   0  0  0  0  0  2  0  0  0  0  0  0
  160.6980  206.1720  152.5520 C   0  0  0  0  0  3  0  0  0  0  0  0
  162.5970  208.0620  148.2750 C   0  0  0  0  0  2  0  0  0  0  0  0
  160.5940  207.5750  152.6260 C   0  0  0  0  0  0  0  0  0  0  0  0
  161.8320  209.8940  149.9670 C   0  0  1  0  0  3  0  0  0  0  0  0
  162.0290  205.6780  149.0570 C   0  0  0  0  0  2  0  0  0  0  0  0
  160.8410  210.5390  153.6100 C   0  0  1  0  0  3  0  0  0  0  0  0
  163.0850  206.1300  146.9590 O   0  0  0  0  0  1  0  0  0  0  0  0
  159.8430  209.5360  153.7640 O   0  0  0  0  0  0  0  0  0  0  0  0
  161.0340  212.2950  149.7300 C   0  0  0  0  0  2  0  0  0  0  0  0
  160.2110  213.2250  148.8930 C   0  0  0  0  0  0  0  0  0  0  0  0
  161.9090  213.4730  147.1290 C   0  0  0  0  0  0  0  0  0  0  0  0
  160.6560  213.7370  147.7820 N   0  0  0  0  0  0  0  0  0  0  0  0
  162.8160  212.3380  147.5070 C   0  0  1  0  0  3  0  0  0  0  0  0
  163.6170  212.6690  148.5860 F   0  0  0  0  0  0  0  0  0  0  0  0
  162.0540  211.0290  147.7270 C   0  0  0  0  0  2  0  0  0  0  0  0
  162.2620  214.2180  146.1780 O   0  0  0  0  0  0  0  0  0  0  0  0
  161.2430  210.9510  149.0300 C   0  0  1  0  0  3  0  0  0  0  0  0
  158.4000  213.1090  150.5000 O   0  0  0  0  0  1  0  0  0  0  0  0
  158.9110  213.6000  149.3460 N   0  0  0  0  0  2  0  0  0  0  0  0
  160.7170  211.8030  155.8050 C   0  0  0  0  0  3  0  0  0  0  0  0
  161.4590  211.0500  154.8830 C   0  0  0  0  0  0  0  0  0  0  0  0
  162.7940  210.7380  155.1620 C   0  0  0  0  0  3  0  0  0  0  0  0
  164.6820  210.8810  156.6100 F   0  0  0  0  0  0  0  0  0  0  0  0
  162.6470  211.9380  157.2600 C   0  0  0  0  0  3  0  0  0  0  0  0
  163.3880  211.1840  156.3470 C   0  0  0  0  0  0  0  0  0  0  0  0
  161.3110  212.2480  156.9890 C   0  0  0  0  0  3  0  0  0  0  0  0
  1 10  1  6  0  0  0
  1 13  1  0  0  0  0
  1 16  1  0  0  0  0
  2 14  1  0  0  0  0
  4  6  1  0  0  0  0
  4  8  2  0  0  0  0
  5  2  1  1  0  0  0
  5  7  1  0  0  0  0
  6  2  2  0  0  0  0
  7  3  1  0  0  0  0
  7 17  1  0  0  0  0
  8 12  1  0  0  0  0
  9  6  1  0  0  0  0
 12 14  2  0  0  0  0
 13  9  1  0  0  0  0
 14 11  1  0  0  0  0
 15  9  1  6  0  0  0
 15  5  1  0  0  0  0
 16  4  1  0  0  0  0
 17 19  1  0  0  0  0
 17 32  1  1  0  0  0
 18  1  1  0  0  0  0
 19 11  1  0  0  0  0
 21 30  1  0  0  0  0
 21 20  1  0  0  0  0
 22 24  1  0  0  0  0
 22 23  1  0  0  0  0
 23 21  2  0  0  0  0
 24 26  1  0  0  0  0
 24 25  1  1  0  0  0
 27 22  2  0  0  0  0
 28 26  1  6  0  0  0
 28 20  1  0  0  0  0
 28 15  1  0  0  0  0
 30 29  1  0  0  0  0
 31 37  1  0  0  0  0
 32 33  1  0  0  0  0
 32 31  2  0  0  0  0
 33 36  2  0  0  0  0
 36 34  1  0  0  0  0
 36 35  1  0  0  0  0
 37 35  2  0  0  0  0
M  END
>  <MODEL>
3

>  <REMARK>
 VINA RESULT:      -2.5      2.611      7.252
  Name = 
  2 active torsions:
  status: ('A' for Active; 'I' for Inactive)
    1  A    between atoms: C_21  and  C_27
    2  A    between atoms: C_23  and  C_30
                            x       y       z     vdW  Elec       q    Type
                         _______ _______ _______ _____ _____    ______ ____

>  <TORSDO>
F 2

$$$$
