=
 OpenBabel11122413063D

 31 35  0  0  1  0  0  0  0  0999 V2000
  160.5970  207.4090  155.0790 C   0  0  0  0  0  0  0  0  0  0  0  0
  161.6780  207.8840  151.5080 N   0  0  0  0  0  0  0  0  0  0  0  0
  161.3740  206.6650  150.7920 C   0  0  0  0  0  0  0  0  0  0  0  0
  160.0030  212.8500  151.0930 O   0  0  0  0  0  0  0  0  0  0  0  0
  160.7460  212.5840  150.1120 C   0  0  0  0  0  0  0  0  0  0  0  0
  160.8350  204.3460  150.8030 C   0  0  0  0  0  0  0  0  0  0  0  0
  161.1760  208.1290  152.8360 C   0  0  0  0  0  0  0  0  0  0  0  0
  160.1360  208.6950  155.3750 C   0  0  0  0  0  3  0  0  0  0  0  0
  161.1290  205.5020  151.4580 N   0  0  0  0  0  0  0  0  0  0  0  0
  161.4170  210.2870  151.0170 C   0  0  0  0  0  0  0  0  0  0  0  0
  160.5380  206.4350  156.0200 F   0  0  0  0  0  0  0  0  0  0  0  0
  161.5210  207.9560  148.6480 C   0  0  0  0  0  2  0  0  0  0  0  0
  160.5780  203.1010  151.5750 C   0  0  0  0  0  1  0  0  0  0  0  0
  160.7730  210.4460  152.1400 N   0  0  0  0  0  0  0  0  0  0  0  0
  162.2600  209.0490  150.8070 C   0  0  2  0  0  3  0  0  0  0  0  0
  161.4560  211.3390  150.0430 N   0  0  0  0  0  2  0  0  0  0  0  0
  161.1130  207.1240  153.8120 C   0  0  0  0  0  3  0  0  0  0  0  0
  160.7680  204.3280  149.4090 C   0  0  0  0  0  3  0  0  0  0  0  0
  160.7230  209.4230  153.1430 C   0  0  0  0  0  0  0  0  0  0  0  0
  160.1970  209.7020  154.4080 C   0  0  0  0  0  3  0  0  0  0  0  0
  162.6040  208.7760  149.3340 C   0  0  0  0  0  2  0  0  0  0  0  0
  161.3220  206.6780  149.3890 C   0  0  0  0  0  0  0  0  0  0  0  0
  161.0080  205.5060  148.7000 C   0  0  0  0  0  3  0  0  0  0  0  0
  158.9320  213.0360  146.8970 C   0  0  1  0  0  3  0  0  0  0  0  0
  159.6020  214.4510  148.8610 C   0  0  0  0  0  2  0  0  0  0  0  0
  162.4500  212.2110  147.8120 C   0  0  0  0  0  1  0  0  0  0  0  0
  157.8760  212.1990  146.3600 N   0  0  0  0  0  1  0  0  0  0  0  0
  158.4680  213.6580  148.2100 C   0  0  0  0  0  2  0  0  0  0  0  0
  161.2490  213.0260  147.6850 N   0  0  0  0  0  0  0  0  0  0  0  0
  160.8670  213.5930  148.9950 C   0  0  2  0  0  3  0  0  0  0  0  0
  160.1800  212.1900  147.1370 C   0  0  0  0  0  2  0  0  0  0  0  0
  1  8  1  0  0  0  0
  1 11  1  0  0  0  0
  2  7  1  0  0  0  0
  3  9  1  0  0  0  0
  3  2  1  0  0  0  0
  5  4  2  0  0  0  0
  6  9  2  0  0  0  0
  6 13  1  0  0  0  0
  7 19  2  0  0  0  0
  7 17  1  0  0  0  0
 10 14  2  0  0  0  0
 12 21  1  0  0  0  0
 12 22  1  0  0  0  0
 14 19  1  0  0  0  0
 15 21  1  6  0  0  0
 15 10  1  0  0  0  0
 15  2  1  0  0  0  0
 16  5  1  0  0  0  0
 16 10  1  0  0  0  0
 17  1  2  0  0  0  0
 18  6  1  0  0  0  0
 19 20  1  0  0  0  0
 20  8  2  0  0  0  0
 22  3  2  0  0  0  0
 23 22  1  0  0  0  0
 23 18  2  0  0  0  0
 24 27  1  1  0  0  0
 24 31  1  0  0  0  0
 24 28  1  0  0  0  0
 25 30  1  0  0  0  0
 28 25  1  0  0  0  0
 29 26  1  0  0  0  0
 29 30  1  0  0  0  0
 30  5  1  1  0  0  0
 31 29  1  0  0  0  0
M  END
>  <MODEL>
1

>  <REMARK>
 VINA RESULT:      -9.0      0.000      0.000
  Name = 
  1 active torsions:
  status: ('A' for Active; 'I' for Inactive)
    1  A    between atoms: C_5  and  C_30
                            x       y       z     vdW  Elec       q    Type
                         _______ _______ _______ _____ _____    ______ ____

>  <TORSDO>
F 1

$$$$
=
 OpenBabel11122413063D

 31 35  0  0  1  0  0  0  0  0999 V2000
  161.1520  202.1780  150.6880 C   0  0  0  0  0  0  0  0  0  0  0  0
  161.9280  205.6140  149.3700 N   0  0  0  0  0  0  0  0  0  0  0  0
  161.4970  205.6620  147.9900 C   0  0  0  0  0  0  0  0  0  0  0  0
  160.4840  208.1980  153.7140 O   0  0  0  0  0  0  0  0  0  0  0  0
  161.1210  208.9830  152.9630 C   0  0  0  0  0  0  0  0  0  0  0  0
  160.8410  204.5430  145.9940 C   0  0  0  0  0  0  0  0  0  0  0  0
  161.5620  204.5270  150.2400 C   0  0  0  0  0  0  0  0  0  0  0  0
  160.7870  202.4900  152.0010 C   0  0  0  0  0  3  0  0  0  0  0  0
  161.2530  204.5190  147.2900 N   0  0  0  0  0  0  0  0  0  0  0  0
  161.7500  207.1520  151.2900 C   0  0  0  0  0  0  0  0  0  0  0  0
  161.1270  200.8900  150.2650 F   0  0  0  0  0  0  0  0  0  0  0  0
  161.5170  208.1660  148.1320 C   0  0  0  0  0  2  0  0  0  0  0  0
  160.5900  203.2680  145.2710 C   0  0  0  0  0  1  0  0  0  0  0  0
  161.2200  206.1970  152.0040 N   0  0  0  0  0  0  0  0  0  0  0  0
  162.5050  206.8080  150.0250 C   0  0  2  0  0  3  0  0  0  0  0  0
  161.7550  208.5030  151.7690 N   0  0  0  0  0  2  0  0  0  0  0  0
  161.5350  203.1940  149.8070 C   0  0  0  0  0  3  0  0  0  0  0  0
  160.6470  205.7630  145.3430 C   0  0  0  0  0  3  0  0  0  0  0  0
  161.2070  204.8320  151.5650 C   0  0  0  0  0  0  0  0  0  0  0  0
  160.8120  203.8160  152.4400 C   0  0  0  0  0  3  0  0  0  0  0  0
  162.6990  208.0010  149.0760 C   0  0  0  0  0  2  0  0  0  0  0  0
  161.3190  206.9050  147.3610 C   0  0  0  0  0  0  0  0  0  0  0  0
  160.8830  206.9510  146.0360 C   0  0  0  0  0  3  0  0  0  0  0  0
  160.2270  210.8690  156.0400 C   0  0  1  0  0  3  0  0  0  0  0  0
  162.1830  210.6990  154.4740 C   0  0  0  0  0  2  0  0  0  0  0  0
  158.9470  210.8330  152.5400 C   0  0  0  0  0  1  0  0  0  0  0  0
  159.6510  210.3370  157.2610 N   0  0  0  0  0  1  0  0  0  0  0  0
  161.6010  210.2480  155.8140 C   0  0  0  0  0  2  0  0  0  0  0  0
  159.8880  211.0750  153.6250 N   0  0  0  0  0  0  0  0  0  0  0  0
  161.1920  210.4450  153.3300 C   0  0  2  0  0  3  0  0  0  0  0  0
  159.3120  210.5460  154.8620 C   0  0  0  0  0  2  0  0  0  0  0  0
  1  8  1  0  0  0  0
  2 15  1  0  0  0  0
  2  7  1  0  0  0  0
  3  2  1  0  0  0  0
  5  4  2  0  0  0  0
  6  9  1  0  0  0  0
  7 19  2  0  0  0  0
  8 20  2  0  0  0  0
  9  3  2  0  0  0  0
 10 16  1  0  0  0  0
 10 14  2  0  0  0  0
 11  1  1  0  0  0  0
 12 21  1  0  0  0  0
 13  6  1  0  0  0  0
 15 21  1  6  0  0  0
 15 10  1  0  0  0  0
 16  5  1  0  0  0  0
 17  7  1  0  0  0  0
 17  1  2  0  0  0  0
 18  6  2  0  0  0  0
 18 23  1  0  0  0  0
 19 14  1  0  0  0  0
 19 20  1  0  0  0  0
 22  3  1  0  0  0  0
 22 12  1  0  0  0  0
 23 22  2  0  0  0  0
 24 27  1  1  0  0  0
 25 28  1  0  0  0  0
 26 29  1  0  0  0  0
 28 24  1  0  0  0  0
 29 31  1  0  0  0  0
 30  5  1  1  0  0  0
 30 29  1  0  0  0  0
 30 25  1  0  0  0  0
 31 24  1  0  0  0  0
M  END
>  <MODEL>
2

>  <REMARK>
 VINA RESULT:      -7.8      3.581      5.736
  Name = 
  1 active torsions:
  status: ('A' for Active; 'I' for Inactive)
    1  A    between atoms: C_5  and  C_30
                            x       y       z     vdW  Elec       q    Type
                         _______ _______ _______ _____ _____    ______ ____

>  <TORSDO>
F 1

$$$$
=
 OpenBabel11122413063D

 31 35  0  0  1  0  0  0  0  0999 V2000
  161.2050  205.3060  153.3910 C   0  0  0  0  0  0  0  0  0  0  0  0
  161.8120  207.6810  150.5380 N   0  0  0  0  0  0  0  0  0  0  0  0
  161.5940  206.9530  149.3070 C   0  0  0  0  0  0  0  0  0  0  0  0
  159.4600  211.8190  152.7700 O   0  0  0  0  0  0  0  0  0  0  0  0
  160.1190  212.2120  151.7710 C   0  0  0  0  0  0  0  0  0  0  0  0
  161.3700  204.8880  148.1450 C   0  0  0  0  0  0  0  0  0  0  0  0
  161.4320  207.1390  151.8170 C   0  0  0  0  0  0  0  0  0  0  0  0
  160.6140  206.1720  154.3160 C   0  0  0  0  0  3  0  0  0  0  0  0
  161.5800  205.5910  149.2910 N   0  0  0  0  0  0  0  0  0  0  0  0
  161.1830  209.9230  151.3540 C   0  0  0  0  0  0  0  0  0  0  0  0
  161.3790  203.9990  153.7010 F   0  0  0  0  0  0  0  0  0  0  0  0
  161.3310  209.1480  148.1230 C   0  0  0  0  0  2  0  0  0  0  0  0
  161.3670  203.4020  148.1770 C   0  0  0  0  0  1  0  0  0  0  0  0
  160.6530  209.3860  152.4170 N   0  0  0  0  0  0  0  0  0  0  0  0
  162.1540  209.1200  150.5160 C   0  0  2  0  0  3  0  0  0  0  0  0
  160.9750  211.3100  151.0550 N   0  0  0  0  0  2  0  0  0  0  0  0
  161.6110  205.7860  152.1420 C   0  0  0  0  0  3  0  0  0  0  0  0
  161.1530  205.5590  146.9400 C   0  0  0  0  0  3  0  0  0  0  0  0
  160.8490  208.0060  152.7560 C   0  0  0  0  0  0  0  0  0  0  0  0
  160.4340  207.5200  153.9990 C   0  0  0  0  0  3  0  0  0  0  0  0
  162.3660  209.6840  149.1020 C   0  0  0  0  0  2  0  0  0  0  0  0
  161.3860  207.6580  148.1110 C   0  0  0  0  0  0  0  0  0  0  0  0
  161.1550  206.9550  146.9280 C   0  0  0  0  0  3  0  0  0  0  0  0
  157.2470  214.2090  150.5110 C   0  0  1  0  0  3  0  0  0  0  0  0
  159.0470  214.4440  152.2460 C   0  0  0  0  0  2  0  0  0  0  0  0
  160.4740  213.0670  149.0380 C   0  0  0  0  0  1  0  0  0  0  0  0
  155.8900  213.7490  150.2820 N   0  0  0  0  0  1  0  0  0  0  0  0
  157.5840  214.0790  151.9920 C   0  0  0  0  0  2  0  0  0  0  0  0
  159.5890  213.8230  149.9120 N   0  0  0  0  0  0  0  0  0  0  0  0
  159.9810  213.6470  151.3260 C   0  0  2  0  0  3  0  0  0  0  0  0
  158.2160  213.3690  149.6830 C   0  0  0  0  0  2  0  0  0  0  0  0
  1 11  1  0  0  0  0
  1  8  1  0  0  0  0
  2  7  1  0  0  0  0
  3  2  1  0  0  0  0
  5  4  2  0  0  0  0
  6 13  1  0  0  0  0
  6  9  2  0  0  0  0
  7 17  1  0  0  0  0
  7 19  2  0  0  0  0
  9  3  1  0  0  0  0
 10 14  2  0  0  0  0
 12 21  1  0  0  0  0
 14 19  1  0  0  0  0
 15 21  1  6  0  0  0
 15  2  1  0  0  0  0
 15 10  1  0  0  0  0
 16 10  1  0  0  0  0
 16  5  1  0  0  0  0
 17  1  2  0  0  0  0
 18  6  1  0  0  0  0
 19 20  1  0  0  0  0
 20  8  2  0  0  0  0
 22 12  1  0  0  0  0
 22  3  2  0  0  0  0
 23 18  2  0  0  0  0
 23 22  1  0  0  0  0
 24 27  1  1  0  0  0
 24 28  1  0  0  0  0
 26 29  1  0  0  0  0
 28 25  1  0  0  0  0
 29 30  1  0  0  0  0
 30  5  1  1  0  0  0
 30 25  1  0  0  0  0
 31 29  1  0  0  0  0
 31 24  1  0  0  0  0
M  END
>  <MODEL>
3

>  <REMARK>
 VINA RESULT:      -6.6      1.967      2.519
  Name = 
  1 active torsions:
  status: ('A' for Active; 'I' for Inactive)
    1  A    between atoms: C_5  and  C_30
                            x       y       z     vdW  Elec       q    Type
                         _______ _______ _______ _____ _____    ______ ____

>  <TORSDO>
F 1

$$$$
=
 OpenBabel11122413063D

 31 35  0  0  1  0  0  0  0  0999 V2000
  160.9480  201.8300  150.4370 C   0  0  0  0  0  0  0  0  0  0  0  0
  161.8770  205.3930  149.6700 N   0  0  0  0  0  0  0  0  0  0  0  0
  161.4550  205.6740  148.3150 C   0  0  0  0  0  0  0  0  0  0  0  0
  160.5210  207.3270  154.3660 O   0  0  0  0  0  0  0  0  0  0  0  0
  161.1940  208.1920  153.7460 C   0  0  0  0  0  0  0  0  0  0  0  0
  160.7630  204.9100  146.1700 C   0  0  0  0  0  0  0  0  0  0  0  0
  161.4590  204.2010  150.3610 C   0  0  0  0  0  0  0  0  0  0  0  0
  160.5890  201.9490  151.7830 C   0  0  0  0  0  3  0  0  0  0  0  0
  161.1670  204.6660  147.4460 N   0  0  0  0  0  0  0  0  0  0  0  0
  161.7530  206.6190  151.8070 C   0  0  0  0  0  0  0  0  0  0  0  0
  160.8700  200.6270  149.8180 F   0  0  0  0  0  0  0  0  0  0  0  0
  161.5810  208.1220  148.8460 C   0  0  0  0  0  2  0  0  0  0  0  0
  160.4620  203.7750  145.2580 C   0  0  0  0  0  1  0  0  0  0  0  0
  161.1800  205.5890  152.3640 N   0  0  0  0  0  0  0  0  0  0  0  0
  162.5000  206.4450  150.5030 C   0  0  2  0  0  3  0  0  0  0  0  0
  161.8140  207.8780  152.4900 N   0  0  0  0  0  2  0  0  0  0  0  0
  161.3790  202.9530  149.7250 C   0  0  0  0  0  3  0  0  0  0  0  0
  160.6240  206.2230  145.7170 C   0  0  0  0  0  3  0  0  0  0  0  0
  161.1110  204.3100  151.7180 C   0  0  0  0  0  0  0  0  0  0  0  0
  160.6690  203.1880  152.4230 C   0  0  0  0  0  3  0  0  0  0  0  0
  162.7500  207.7620  149.7510 C   0  0  0  0  0  2  0  0  0  0  0  0
  161.3340  207.0070  147.8880 C   0  0  0  0  0  0  0  0  0  0  0  0
  160.9070  207.2770  146.5870 C   0  0  0  0  0  3  0  0  0  0  0  0
  158.7770  210.9710  154.2550 C   0  0  1  0  0  3  0  0  0  0  0  0
  160.4890  209.7330  155.6120 C   0  0  0  0  0  2  0  0  0  0  0  0
  161.8430  210.5300  152.1840 C   0  0  0  0  0  1  0  0  0  0  0  0
  157.3770  210.9990  153.8740 N   0  0  0  0  0  1  0  0  0  0  0  0
  159.0020  209.8650  155.2800 C   0  0  0  0  0  2  0  0  0  0  0  0
  161.0500  210.6800  153.3960 N   0  0  0  0  0  0  0  0  0  0  0  0
  161.3260  209.5750  154.3370 C   0  0  2  0  0  3  0  0  0  0  0  0
  159.6360  210.7150  153.0200 C   0  0  0  0  0  2  0  0  0  0  0  0
  1  8  1  0  0  0  0
  2  7  1  0  0  0  0
  2 15  1  0  0  0  0
  3  2  1  0  0  0  0
  5  4  2  0  0  0  0
  6  9  1  0  0  0  0
  7 19  2  0  0  0  0
  8 20  2  0  0  0  0
  9  3  2  0  0  0  0
 10 14  2  0  0  0  0
 10 16  1  0  0  0  0
 11  1  1  0  0  0  0
 12 21  1  0  0  0  0
 13  6  1  0  0  0  0
 15 21  1  6  0  0  0
 15 10  1  0  0  0  0
 16  5  1  0  0  0  0
 17  7  1  0  0  0  0
 17  1  2  0  0  0  0
 18  6  2  0  0  0  0
 18 23  1  0  0  0  0
 19 14  1  0  0  0  0
 19 20  1  0  0  0  0
 22  3  1  0  0  0  0
 22 12  1  0  0  0  0
 23 22  2  0  0  0  0
 24 27  1  6  0  0  0
 24 28  1  0  0  0  0
 26 29  1  0  0  0  0
 28 25  1  0  0  0  0
 29 30  1  0  0  0  0
 30  5  1  6  0  0  0
 30 25  1  0  0  0  0
 31 29  1  0  0  0  0
 31 24  1  0  0  0  0
M  END
>  <MODEL>
4

>  <REMARK>
 VINA RESULT:      -6.4      3.665      5.588
  Name = 
  1 active torsions:
  status: ('A' for Active; 'I' for Inactive)
    1  A    between atoms: C_5  and  C_30
                            x       y       z     vdW  Elec       q    Type
                         _______ _______ _______ _____ _____    ______ ____

>  <TORSDO>
F 1

$$$$
