=
 OpenBabel11122414143D

 28 32  0  0  1  0  0  0  0  0999 V2000
  159.0290  213.0140  141.6870 C   0  0  0  0  0  0  0  0  0  0  0  0
  161.6060  214.4530  140.1440 O   0  0  0  0  0  0  0  0  0  0  0  0
  159.6830  208.3620  137.7220 C   0  0  0  0  0  1  0  0  0  0  0  0
  159.8320  212.3300  144.2860 C   0  0  0  0  0  3  0  0  0  0  0  0
  161.4900  210.1460  137.8270 C   0  0  0  0  0  0  0  0  0  0  0  0
  158.5160  213.3870  140.3380 C   0  0  0  0  0  2  0  0  0  0  0  0
  162.8110  214.1590  142.2620 O   0  0  0  0  0  0  0  0  0  0  0  0
  162.7230  213.7150  140.8290 S   0  0  0  0  0  0  0  0  0  0  0  0
  164.2720  213.3680  138.6660 C   0  0  1  0  0  3  0  0  0  0  0  0
  162.4630  211.9320  140.7610 C   0  0  2  0  0  3  0  0  0  0  0  0
  156.1350  211.7180  138.2350 O   0  0  0  0  0  0  0  0  0  0  0  0
  160.5130  211.6930  139.3150 C   0  0  1  0  0  3  0  0  0  0  0  0
  164.2650  211.8600  138.8850 C   0  0  0  0  0  2  0  0  0  0  0  0
  164.2480  214.0890  140.0010 C   0  0  0  0  0  2  0  0  0  0  0  0
  157.2520  211.8090  138.8060 C   0  0  0  0  0  0  0  0  0  0  0  0
  160.1490  212.1630  141.8760 C   0  0  0  0  0  0  0  0  0  0  0  0
  160.2170  209.6380  138.1690 N   0  0  0  0  0  0  0  0  0  0  0  0
  165.4720  213.7420  137.9420 N   0  0  0  0  0  1  0  0  0  0  0  0
  158.3760  211.1280  138.2360 N   0  0  0  0  0  2  0  0  0  0  0  0
  160.5270  211.8280  143.1840 C   0  0  0  0  0  3  0  0  0  0  0  0
  158.3390  213.5110  142.8000 C   0  0  0  0  0  3  0  0  0  0  0  0
  158.7390  213.1740  144.0940 C   0  0  0  0  0  3  0  0  0  0  0  0
  157.3520  212.5810  140.0060 N   0  0  0  0  0  2  0  0  0  0  0  0
  161.7660  211.4570  138.4500 C   0  0  1  0  0  3  0  0  0  0  0  0
  159.4970  210.5850  138.9960 C   0  0  2  0  0  3  0  0  0  0  0  0
  162.9290  211.3430  139.4310 C   0  0  2  0  0  3  0  0  0  0  0  0
  162.2880  209.5450  137.0610 O   0  0  0  0  0  0  0  0  0  0  0  0
  160.9850  211.5650  140.7600 C   0  0  2  0  0  3  0  0  0  0  0  0
  1 16  2  0  0  0  0
  1 21  1  0  0  0  0
  2  8  2  0  0  0  0
  3 17  1  0  0  0  0
  5 17  1  0  0  0  0
  5 24  1  0  0  0  0
  6  1  1  0  0  0  0
  8  7  2  0  0  0  0
  9 18  1  1  0  0  0
  9 13  1  0  0  0  0
  9 14  1  0  0  0  0
 10  8  1  6  0  0  0
 11 15  2  0  0  0  0
 12 28  1  0  0  0  0
 13 26  1  0  0  0  0
 14  8  1  0  0  0  0
 15 23  1  0  0  0  0
 16 20  1  0  0  0  0
 17 25  1  0  0  0  0
 19 15  1  0  0  0  0
 19 25  1  0  0  0  0
 20  4  2  0  0  0  0
 21 22  2  0  0  0  0
 22  4  1  0  0  0  0
 23  6  1  0  0  0  0
 24 12  1  0  0  0  0
 24 26  1  0  0  0  0
 25 12  1  0  0  0  0
 26 10  1  0  0  0  0
 27  5  2  0  0  0  0
 28 10  1  0  0  0  0
 28 16  1  0  0  0  0
M  END
>  <MODEL>
1

>  <REMARK>
 VINA RESULT:      -5.1      0.000      0.000
  Name = 
  0 active torsions:
  status: ('A' for Active; 'I' for Inactive)
                            x       y       z     vdW  Elec       q    Type
                         _______ _______ _______ _____ _____    ______ ____

>  <TORSDO>
F 0

$$$$
=
 OpenBabel11122414143D

 28 32  0  0  1  0  0  0  0  0999 V2000
  161.0460  208.8650  155.2200 C   0  0  0  0  0  0  0  0  0  0  0  0
  158.0660  210.3530  155.2120 O   0  0  0  0  0  0  0  0  0  0  0  0
  162.0140  211.5160  149.7600 C   0  0  0  0  0  1  0  0  0  0  0  0
  162.5930  210.0110  157.2590 C   0  0  0  0  0  3  0  0  0  0  0  0
  160.0000  212.2360  151.1310 C   0  0  0  0  0  0  0  0  0  0  0  0
  160.2710  208.1770  154.1480 C   0  0  0  0  0  2  0  0  0  0  0  0
  158.9000  211.6400  157.1270 O   0  0  0  0  0  0  0  0  0  0  0  0
  158.4900  211.7160  155.6830 S   0  0  0  0  0  0  0  0  0  0  0  0
  156.9160  213.1430  154.0450 C   0  0  1  0  0  3  0  0  0  0  0  0
  159.8600  212.3500  154.6960 C   0  0  2  0  0  3  0  0  0  0  0  0
  161.3760  206.8140  151.0190 O   0  0  0  0  0  0  0  0  0  0  0  0
  160.0950  210.6980  152.9160 C   0  0  1  0  0  3  0  0  0  0  0  0
  158.1320  213.8770  153.4930 C   0  0  0  0  0  2  0  0  0  0  0  0
  157.1200  212.8310  155.5160 C   0  0  0  0  0  2  0  0  0  0  0  0
  161.1370  207.7700  151.7990 C   0  0  0  0  0  0  0  0  0  0  0  0
  161.2850  210.2640  155.2200 C   0  0  0  0  0  0  0  0  0  0  0  0
  161.0980  211.3850  150.8800 N   0  0  0  0  0  0  0  0  0  0  0  0
  155.7400  213.9790  153.8920 N   0  0  0  0  0  1  0  0  0  0  0  0
  160.8430  209.0580  151.2440 N   0  0  0  0  0  2  0  0  0  0  0  0
  162.0680  210.8130  156.2450 C   0  0  0  0  0  3  0  0  0  0  0  0
  161.5790  208.0700  156.2420 C   0  0  0  0  0  3  0  0  0  0  0  0
  162.3470  208.6390  157.2590 C   0  0  0  0  0  3  0  0  0  0  0  0
  161.1780  207.5360  153.2090 N   0  0  0  0  0  2  0  0  0  0  0  0
  159.2640  211.8700  152.3590 C   0  0  1  0  0  3  0  0  0  0  0  0
  161.1640  210.3330  151.8750 C   0  0  2  0  0  3  0  0  0  0  0  0
  159.3740  212.9840  153.3950 C   0  0  2  0  0  3  0  0  0  0  0  0
  159.6820  213.1920  150.3750 O   0  0  0  0  0  0  0  0  0  0  0  0
  160.7610  211.2360  154.1790 C   0  0  2  0  0  3  0  0  0  0  0  0
  1 21  1  0  0  0  0
  2  8  2  0  0  0  0
  3 17  1  0  0  0  0
  5 24  1  0  0  0  0
  6  1  1  0  0  0  0
  8  7  2  0  0  0  0
  9 18  1  1  0  0  0
  9 14  1  0  0  0  0
 10  8  1  6  0  0  0
 11 15  2  0  0  0  0
 12 28  1  0  0  0  0
 13  9  1  0  0  0  0
 14  8  1  0  0  0  0
 15 23  1  0  0  0  0
 16  1  2  0  0  0  0
 16 20  1  0  0  0  0
 17  5  1  0  0  0  0
 17 25  1  0  0  0  0
 19 15  1  0  0  0  0
 19 25  1  0  0  0  0
 20  4  2  0  0  0  0
 21 22  2  0  0  0  0
 22  4  1  0  0  0  0
 23  6  1  0  0  0  0
 24 12  1  0  0  0  0
 24 26  1  0  0  0  0
 25 12  1  0  0  0  0
 26 13  1  0  0  0  0
 26 10  1  0  0  0  0
 27  5  2  0  0  0  0
 28 10  1  0  0  0  0
 28 16  1  0  0  0  0
M  END
>  <MODEL>
2

>  <REMARK>
 VINA RESULT:      -5.1     11.398     14.618
  Name = 
  0 active torsions:
  status: ('A' for Active; 'I' for Inactive)
                            x       y       z     vdW  Elec       q    Type
                         _______ _______ _______ _____ _____    ______ ____

>  <TORSDO>
F 0

$$$$
=
 OpenBabel11122414143D

 28 32  0  0  1  0  0  0  0  0999 V2000
  161.0310  208.8330  154.2820 C   0  0  0  0  0  0  0  0  0  0  0  0
  158.1380  210.4130  153.8030 O   0  0  0  0  0  0  0  0  0  0  0  0
  162.9930  211.5640  149.1360 C   0  0  0  0  0  1  0  0  0  0  0  0
  162.2370  209.8880  156.5840 C   0  0  0  0  0  3  0  0  0  0  0  0
  160.7940  212.3180  150.1620 C   0  0  0  0  0  0  0  0  0  0  0  0
  160.4330  208.1920  153.0770 C   0  0  0  0  0  2  0  0  0  0  0  0
  158.6660  211.6340  155.8640 O   0  0  0  0  0  0  0  0  0  0  0  0
  158.5120  211.7520  154.3740 S   0  0  0  0  0  0  0  0  0  0  0  0
  157.2810  213.2610  152.5290 C   0  0  1  0  0  3  0  0  0  0  0  0
  160.0480  212.3630  153.6520 C   0  0  2  0  0  3  0  0  0  0  0  0
  162.0200  206.8580  150.1480 O   0  0  0  0  0  0  0  0  0  0  0  0
  160.5390  210.7410  151.8960 C   0  0  1  0  0  3  0  0  0  0  0  0
  158.5940  213.9680  152.2110 C   0  0  0  0  0  2  0  0  0  0  0  0
  157.2210  212.9130  154.0040 C   0  0  0  0  0  2  0  0  0  0  0  0
  161.6770  207.8060  150.9000 C   0  0  0  0  0  0  0  0  0  0  0  0
  161.3050  210.2230  154.3580 C   0  0  0  0  0  0  0  0  0  0  0  0
  161.8950  211.4390  150.0800 N   0  0  0  0  0  0  0  0  0  0  0  0
  156.1730  214.1360  152.1980 N   0  0  0  0  0  1  0  0  0  0  0  0
  161.5170  209.1130  150.3360 N   0  0  0  0  0  2  0  0  0  0  0  0
  161.9150  210.7270  155.5160 C   0  0  0  0  0  3  0  0  0  0  0  0
  161.3590  208.0010  155.3600 C   0  0  0  0  0  3  0  0  0  0  0  0
  161.9560  208.5250  156.5070 C   0  0  0  0  0  3  0  0  0  0  0  0
  161.4690  207.5420  152.2900 N   0  0  0  0  0  2  0  0  0  0  0  0
  159.8480  211.9500  151.2360 C   0  0  1  0  0  3  0  0  0  0  0  0
  161.7600  210.3640  151.0450 C   0  0  2  0  0  3  0  0  0  0  0  0
  159.8090  213.0390  152.3040 C   0  0  2  0  0  3  0  0  0  0  0  0
  160.6360  213.2980  149.3870 O   0  0  0  0  0  0  0  0  0  0  0  0
  160.9930  211.2320  153.2680 C   0  0  2  0  0  3  0  0  0  0  0  0
  1 16  2  0  0  0  0
  1 21  1  0  0  0  0
  2  8  2  0  0  0  0
  3 17  1  0  0  0  0
  5 24  1  0  0  0  0
  6  1  1  0  0  0  0
  8  7  2  0  0  0  0
  9 18  1  1  0  0  0
  9 14  1  0  0  0  0
 10  8  1  6  0  0  0
 11 15  2  0  0  0  0
 12 28  1  0  0  0  0
 13 26  1  0  0  0  0
 13  9  1  0  0  0  0
 14  8  1  0  0  0  0
 15 23  1  0  0  0  0
 16 20  1  0  0  0  0
 17  5  1  0  0  0  0
 17 25  1  0  0  0  0
 19 15  1  0  0  0  0
 19 25  1  0  0  0  0
 20  4  2  0  0  0  0
 21 22  2  0  0  0  0
 22  4  1  0  0  0  0
 23  6  1  0  0  0  0
 24 12  1  0  0  0  0
 24 26  1  0  0  0  0
 25 12  1  0  0  0  0
 26 10  1  0  0  0  0
 27  5  2  0  0  0  0
 28 10  1  0  0  0  0
 28 16  1  0  0  0  0
M  END
>  <MODEL>
3

>  <REMARK>
 VINA RESULT:      -3.4     10.456     13.629
  Name = 
  0 active torsions:
  status: ('A' for Active; 'I' for Inactive)
                            x       y       z     vdW  Elec       q    Type
                         _______ _______ _______ _____ _____    ______ ____

>  <TORSDO>
F 0

$$$$
=
 OpenBabel11122414143D

 28 32  0  0  1  0  0  0  0  0999 V2000
  160.5230  210.2970  155.1260 C   0  0  0  0  0  0  0  0  0  0  0  0
  157.2740  210.9830  154.8720 O   0  0  0  0  0  0  0  0  0  0  0  0
  161.2030  213.1310  149.7130 C   0  0  0  0  0  1  0  0  0  0  0  0
  161.5720  211.7890  157.2570 C   0  0  0  0  0  3  0  0  0  0  0  0
  158.9740  213.3110  150.9190 C   0  0  0  0  0  0  0  0  0  0  0  0
  160.0320  209.4410  154.0090 C   0  0  0  0  0  2  0  0  0  0  0  0
  157.6070  212.4310  156.8240 O   0  0  0  0  0  0  0  0  0  0  0  0
  157.3030  212.4070  155.3530 S   0  0  0  0  0  0  0  0  0  0  0  0
  155.5480  213.3960  153.5810 C   0  0  1  0  0  3  0  0  0  0  0  0
  158.5390  213.3710  154.4620 C   0  0  2  0  0  3  0  0  0  0  0  0
  161.6800  208.4140  150.9920 O   0  0  0  0  0  0  0  0  0  0  0  0
  159.3180  211.8400  152.7290 C   0  0  1  0  0  3  0  0  0  0  0  0
  156.5780  214.4170  153.1100 C   0  0  0  0  0  2  0  0  0  0  0  0
  155.7120  213.1400  155.0680 C   0  0  0  0  0  2  0  0  0  0  0  0
  161.1480  209.2750  151.7380 C   0  0  0  0  0  0  0  0  0  0  0  0
  160.4010  211.7110  155.1210 C   0  0  0  0  0  0  0  0  0  0  0  0
  160.2670  212.7670  150.7640 N   0  0  0  0  0  0  0  0  0  0  0  0
  154.2150  213.9080  153.3280 N   0  0  0  0  0  1  0  0  0  0  0  0
  160.5810  210.4490  151.1430 N   0  0  0  0  0  2  0  0  0  0  0  0
  160.9390  212.4370  156.1940 C   0  0  0  0  0  3  0  0  0  0  0  0
  161.1610  209.6590  156.1960 C   0  0  0  0  0  3  0  0  0  0  0  0
  161.6800  210.3990  157.2590 C   0  0  0  0  0  3  0  0  0  0  0  0
  161.1390  209.0540  153.1500 N   0  0  0  0  0  2  0  0  0  0  0  0
  158.2630  212.7660  152.0940 C   0  0  1  0  0  3  0  0  0  0  0  0
  160.5210  211.7620  151.7770 C   0  0  2  0  0  3  0  0  0  0  0  0
  158.0090  213.8670  153.1190 C   0  0  2  0  0  3  0  0  0  0  0  0
  158.4830  214.1590  150.1270 O   0  0  0  0  0  0  0  0  0  0  0  0
  159.7290  212.5240  154.0300 C   0  0  2  0  0  3  0  0  0  0  0  0
  1 21  1  0  0  0  0
  2  8  2  0  0  0  0
  3 17  1  0  0  0  0
  4 22  1  0  0  0  0
  5 24  1  0  0  0  0
  6  1  1  0  0  0  0
  8  7  2  0  0  0  0
  9 18  1  1  0  0  0
  9 14  1  0  0  0  0
 10  8  1  6  0  0  0
 11 15  2  0  0  0  0
 12 28  1  0  0  0  0
 13 26  1  0  0  0  0
 13  9  1  0  0  0  0
 14  8  1  0  0  0  0
 15 23  1  0  0  0  0
 16  1  2  0  0  0  0
 16 20  1  0  0  0  0
 17  5  1  0  0  0  0
 17 25  1  0  0  0  0
 19 15  1  0  0  0  0
 19 25  1  0  0  0  0
 20  4  2  0  0  0  0
 21 22  2  0  0  0  0
 23  6  1  0  0  0  0
 24 12  1  0  0  0  0
 24 26  1  0  0  0  0
 25 12  1  0  0  0  0
 26 10  1  0  0  0  0
 27  5  2  0  0  0  0
 28 10  1  0  0  0  0
 28 16  1  0  0  0  0
M  END
>  <MODEL>
4

>  <REMARK>
 VINA RESULT:      -3.3     11.098     14.531
  Name = 
  0 active torsions:
  status: ('A' for Active; 'I' for Inactive)
                            x       y       z     vdW  Elec       q    Type
                         _______ _______ _______ _____ _____    ______ ____

>  <TORSDO>
F 0

$$$$
=
 OpenBabel11122414143D

 28 32  0  0  1  0  0  0  0  0999 V2000
  159.0970  213.6520  149.7950 C   0  0  0  0  0  0  0  0  0  0  0  0
  159.6930  214.4170  152.9820 O   0  0  0  0  0  0  0  0  0  0  0  0
  161.7010  208.2080  150.9620 C   0  0  0  0  0  1  0  0  0  0  0  0
  156.3210  213.4600  149.4430 C   0  0  0  0  0  3  0  0  0  0  0  0
  161.1660  209.7520  152.9080 C   0  0  0  0  0  0  0  0  0  0  0  0
  160.5790  213.7790  149.8930 C   0  0  0  0  0  2  0  0  0  0  0  0
  157.2540  214.4530  153.2460 O   0  0  0  0  0  0  0  0  0  0  0  0
  158.5160  213.7220  153.6080 S   0  0  0  0  0  0  0  0  0  0  0  0
  159.8050  212.7390  155.7460 C   0  0  1  0  0  3  0  0  0  0  0  0
  158.4040  212.0080  153.0580 C   0  0  2  0  0  3  0  0  0  0  0  0
  163.1660  211.9790  148.1800 O   0  0  0  0  0  0  0  0  0  0  0  0
  160.4490  211.6860  151.7660 C   0  0  1  0  0  3  0  0  0  0  0  0
  159.3740  211.3250  155.3730 C   0  0  0  0  0  2  0  0  0  0  0  0
  158.7190  213.7300  155.3710 C   0  0  0  0  0  2  0  0  0  0  0  0
  162.2210  212.0630  149.0050 C   0  0  0  0  0  0  0  0  0  0  0  0
  158.3490  212.7390  150.5840 C   0  0  0  0  0  0  0  0  0  0  0  0
  161.2840  209.4790  151.5280 N   0  0  0  0  0  0  0  0  0  0  0  0
  160.0420  212.8070  157.1750 N   0  0  0  0  0  1  0  0  0  0  0  0
  162.1840  211.1500  150.1090 N   0  0  0  0  0  2  0  0  0  0  0  0
  156.9640  212.6550  150.3850 C   0  0  0  0  0  3  0  0  0  0  0  0
  158.4410  214.4530  148.8530 C   0  0  0  0  0  3  0  0  0  0  0  0
  157.0590  214.3620  148.6790 C   0  0  0  0  0  3  0  0  0  0  0  0
  161.2160  213.0600  148.8030 N   0  0  0  0  0  2  0  0  0  0  0  0
  160.6970  211.1270  153.1800 C   0  0  1  0  0  3  0  0  0  0  0  0
  160.9680  210.6600  150.7480 C   0  0  2  0  0  3  0  0  0  0  0  0
  159.3300  211.0950  153.8580 C   0  0  2  0  0  3  0  0  0  0  0  0
  161.4500  208.9120  153.8030 O   0  0  0  0  0  0  0  0  0  0  0  0
  158.9340  211.8210  151.6420 C   0  0  2  0  0  3  0  0  0  0  0  0
  1  6  1  0  0  0  0
  1 16  1  0  0  0  0
  2  8  2  0  0  0  0
  3 17  1  0  0  0  0
  4 20  1  0  0  0  0
  5 24  1  0  0  0  0
  5 27  2  0  0  0  0
  7  8  2  0  0  0  0
  8 14  1  0  0  0  0
  9 18  1  1  0  0  0
 10  8  1  1  0  0  0
 10 26  1  0  0  0  0
 11 15  2  0  0  0  0
 12 24  1  0  0  0  0
 13  9  1  0  0  0  0
 14  9  1  0  0  0  0
 15 19  1  0  0  0  0
 16 28  1  0  0  0  0
 17  5  1  0  0  0  0
 19 25  1  0  0  0  0
 20 16  2  0  0  0  0
 21  1  2  0  0  0  0
 22 21  1  0  0  0  0
 22  4  2  0  0  0  0
 23 15  1  0  0  0  0
 23  6  1  0  0  0  0
 24 26  1  0  0  0  0
 25 17  1  0  0  0  0
 25 12  1  0  0  0  0
 26 13  1  0  0  0  0
 28 12  1  0  0  0  0
 28 10  1  0  0  0  0
M  END
>  <MODEL>
5

>  <REMARK>
 VINA RESULT:      -2.3      9.630     12.823
  Name = 
  0 active torsions:
  status: ('A' for Active; 'I' for Inactive)
                            x       y       z     vdW  Elec       q    Type
                         _______ _______ _______ _____ _____    ______ ____

>  <TORSDO>
F 0

$$$$
=
 OpenBabel11122414143D

 28 32  0  0  1  0  0  0  0  0999 V2000
  161.1790  208.5410  155.1140 C   0  0  0  0  0  0  0  0  0  0  0  0
  158.9010  210.5730  153.7830 O   0  0  0  0  0  0  0  0  0  0  0  0
  163.2940  207.7160  149.4020 C   0  0  0  0  0  1  0  0  0  0  0  0
  162.9160  210.0810  156.6890 C   0  0  0  0  0  3  0  0  0  0  0  0
  161.5810  209.5450  149.8220 C   0  0  0  0  0  0  0  0  0  0  0  0
  160.2740  207.6510  154.3340 C   0  0  0  0  0  2  0  0  0  0  0  0
  160.0230  212.3620  155.0320 O   0  0  0  0  0  0  0  0  0  0  0  0
  159.7430  211.8130  153.6620 S   0  0  0  0  0  0  0  0  0  0  0  0
  158.8470  212.5930  151.2570 C   0  0  1  0  0  3  0  0  0  0  0  0
  161.2980  211.4640  152.8190 C   0  0  2  0  0  3  0  0  0  0  0  0
  161.0070  204.6610  152.4910 O   0  0  0  0  0  0  0  0  0  0  0  0
  161.0440  209.1510  152.0830 C   0  0  1  0  0  3  0  0  0  0  0  0
  160.2700  212.5870  150.7090 C   0  0  0  0  0  2  0  0  0  0  0  0
  158.8520  213.0190  152.7130 C   0  0  0  0  0  2  0  0  0  0  0  0
  161.0700  205.9030  152.6780 C   0  0  0  0  0  0  0  0  0  0  0  0
  161.8860  209.6240  154.5290 C   0  0  0  0  0  0  0  0  0  0  0  0
  162.3300  208.4200  150.2300 N   0  0  0  0  0  0  0  0  0  0  0  0
  158.0420  213.5240  150.4890 N   0  0  0  0  0  1  0  0  0  0  0  0
  161.2680  206.7620  151.5490 N   0  0  0  0  0  2  0  0  0  0  0  0
  162.7550  210.3750  155.3340 C   0  0  0  0  0  3  0  0  0  0  0  0
  161.3510  208.2560  156.4740 C   0  0  0  0  0  3  0  0  0  0  0  0
  162.2110  209.0230  157.2600 C   0  0  0  0  0  3  0  0  0  0  0  0
  160.9530  206.4070  154.0110 N   0  0  0  0  0  2  0  0  0  0  0  0
  160.6990  210.0610  150.8890 C   0  0  1  0  0  3  0  0  0  0  0  0
  161.9760  208.0370  151.5830 C   0  0  2  0  0  3  0  0  0  0  0  0
  161.1310  211.4650  151.3010 C   0  0  2  0  0  3  0  0  0  0  0  0
  161.6530  210.0370  148.6650 O   0  0  0  0  0  0  0  0  0  0  0  0
  161.7860  210.0440  153.0740 C   0  0  2  0  0  3  0  0  0  0  0  0
  1 21  1  0  0  0  0
  3 17  1  0  0  0  0
  4 22  1  0  0  0  0
  5 17  1  0  0  0  0
  5 24  1  0  0  0  0
  6  1  1  0  0  0  0
  8  2  2  0  0  0  0
  8  7  2  0  0  0  0
  9 18  1  6  0  0  0
  9 14  1  0  0  0  0
 10 28  1  0  0  0  0
 10  8  1  1  0  0  0
 11 15  2  0  0  0  0
 12 28  1  0  0  0  0
 13  9  1  0  0  0  0
 13 26  1  0  0  0  0
 14  8  1  0  0  0  0
 15 23  1  0  0  0  0
 16  1  2  0  0  0  0
 16 20  1  0  0  0  0
 17 25  1  0  0  0  0
 19 25  1  0  0  0  0
 19 15  1  0  0  0  0
 20  4  2  0  0  0  0
 21 22  2  0  0  0  0
 23  6  1  0  0  0  0
 24 26  1  0  0  0  0
 24 12  1  0  0  0  0
 25 12  1  0  0  0  0
 26 10  1  0  0  0  0
 27  5  2  0  0  0  0
 28 16  1  0  0  0  0
M  END
>  <MODEL>
6

>  <REMARK>
 VINA RESULT:      -2.2     10.815     13.576
  Name = 
  0 active torsions:
  status: ('A' for Active; 'I' for Inactive)
                            x       y       z     vdW  Elec       q    Type
                         _______ _______ _______ _____ _____    ______ ____

>  <TORSDO>
F 0

$$$$
