=
 OpenBabel11122413453D

 37 43  0  0  1  0  0  0  0  0999 V2000
  160.6020  208.4140  155.9870 C   0  0  0  0  0  0  0  0  0  0  0  0
  160.4130  211.1770  152.8160 C   0  0  2  0  0  3  0  0  0  0  0  0
  162.2600  210.3700  149.4900 O   0  0  0  0  0  0  0  0  0  0  0  0
  159.4550  210.2080  154.9690 C   0  0  2  0  0  3  0  0  0  0  0  0
  160.9150  210.3060  151.6890 C   0  0  1  0  0  3  0  0  0  0  0  0
  160.6140  210.3040  154.0270 C   0  0  1  0  0  3  0  0  0  0  0  0
  161.5790  211.1220  150.5140 C   0  0  2  0  0  3  0  0  0  0  0  0
  158.9110  211.4940  155.1250 O   0  0  0  0  0  0  0  0  0  0  0  0
  160.9030  208.9600  153.6070 N   0  0  2  0  0  0  0  0  0  0  0  0
  159.5530  207.3220  155.8350 C   0  0  0  0  0  1  0  0  0  0  0  0
  158.7460  212.6910  151.6060 C   0  0  0  0  0  2  0  0  0  0  0  0
  158.1850  211.8040  153.9390 C   0  0  0  0  0  2  0  0  0  0  0  0
  161.5800  208.3820  154.7610 C   0  0  0  0  0  2  0  0  0  0  0  0
  162.6070  208.0180  149.0670 O   0  0  0  0  0  0  0  0  0  0  0  0
  161.7850  209.0590  149.5280 C   0  0  1  0  0  3  0  0  0  0  0  0
  158.9450  211.5410  152.6060 C   0  0  2  0  0  3  0  0  0  0  0  0
  161.7110  209.1990  152.4260 C   0  0  1  0  0  3  0  0  0  0  0  0
  159.9600  209.6870  156.1900 O   0  0  0  0  0  0  0  0  0  0  0  0
  160.5270  212.0590  149.8690 C   0  0  1  0  0  3  0  0  0  0  0  0
  161.4140  208.0940  157.2240 C   0  0  0  0  0  1  0  0  0  0  0  0
  162.7960  208.4040  150.4060 C   0  0  1  0  0  3  0  0  0  0  0  0
  161.9460  207.9200  151.5810 C   0  0  2  0  0  3  0  0  0  0  0  0
  160.0060  213.1290  150.8400 C   0  0  0  0  0  2  0  0  0  0  0  0
  161.9290  213.8100  148.7630 C   0  0  0  0  0  3  0  0  0  0  0  0
  161.0540  212.7270  148.6330 C   0  0  0  0  0  0  0  0  0  0  0  0
  160.6790  212.2870  147.3530 C   0  0  0  0  0  3  0  0  0  0  0  0
  160.8170  212.5030  144.9840 F   0  0  0  0  0  0  0  0  0  0  0  0
  162.0540  214.0110  146.3530 C   0  0  0  0  0  3  0  0  0  0  0  0
  161.1800  212.9290  146.2160 C   0  0  0  0  0  0  0  0  0  0  0  0
  162.4290  214.4520  147.6260 C   0  0  0  0  0  3  0  0  0  0  0  0
  160.7420  207.3020  151.1870 O   0  0  0  0  0  0  0  0  0  0  0  0
  161.0580  205.9620  150.9280 C   0  0  1  0  0  3  0  0  0  0  0  0
  161.5640  203.9440  152.1140 O   0  0  0  0  0  1  0  0  0  0  0  0
  160.8070  205.1140  152.1680 C   0  0  0  0  0  2  0  0  0  0  0  0
  160.2630  205.4230  149.7350 C   0  0  0  0  0  2  0  0  0  0  0  0
  161.1400  204.7480  148.6860 C   0  0  0  0  0  2  0  0  0  0  0  0
  161.1150  203.3650  148.8550 O   0  0  0  0  0  1  0  0  0  0  0  0
  1 18  1  0  0  0  0
  1 20  1  0  0  0  0
  2  6  1  0  0  0  0
  3 15  1  0  0  0  0
  3  7  1  0  0  0  0
  4  8  1  0  0  0  0
  4 18  1  0  0  0  0
  5 17  1  0  0  0  0
  5  2  1  0  0  0  0
  6  4  1  0  0  0  0
  7  5  1  0  0  0  0
  9  6  1  0  0  0  0
  9 13  1  0  0  0  0
 10  1  1  0  0  0  0
 11 16  1  0  0  0  0
 12  8  1  0  0  0  0
 13  1  1  0  0  0  0
 14 15  1  0  0  0  0
 14 21  1  0  0  0  0
 15 21  1  0  0  0  0
 16  2  1  0  0  0  0
 16 12  1  0  0  0  0
 17  9  1  0  0  0  0
 19  7  1  0  0  0  0
 19 23  1  0  0  0  0
 21 22  1  0  0  0  0
 22 17  1  0  0  0  0
 23 11  1  0  0  0  0
 25 24  1  0  0  0  0
 25 19  1  0  0  0  0
 26 25  2  0  0  0  0
 27 29  1  0  0  0  0
 28 30  1  0  0  0  0
 29 28  2  0  0  0  0
 29 26  1  0  0  0  0
 30 24  2  0  0  0  0
 31 22  1  0  0  0  0
 32 31  1  0  0  0  0
 32 34  1  0  0  0  0
 33 34  1  0  0  0  0
 35 32  1  0  0  0  0
 36 37  1  0  0  0  0
 36 35  1  0  0  0  0
M  END
>  <MODEL>
1

>  <REMARK>
 VINA RESULT:      -6.5      0.000      0.000
  Name = 
  6 active torsions:
  status: ('A' for Active; 'I' for Inactive)
    1  A    between atoms: O_1  and  C_4
    2  A    between atoms: O_1  and  C_27
    3  A    between atoms: C_4  and  C_12
    4  A    between atoms: C_4  and  C_37
    5  A    between atoms: C_8  and  C_12
    6  A    between atoms: C_23  and  C_30
                            x       y       z     vdW  Elec       q    Type
                         _______ _______ _______ _____ _____    ______ ____

>  <TORSDO>
F 6

$$$$
=
 OpenBabel11122413453D

 37 43  0  0  1  0  0  0  0  0999 V2000
  159.1170  211.9750  155.8450 C   0  0  0  0  0  0  0  0  0  0  0  0
  159.3830  213.2640  151.8460 C   0  0  2  0  0  3  0  0  0  0  0  0
  161.9420  211.5500  149.4710 O   0  0  0  0  0  0  0  0  0  0  0  0
  158.0720  213.0490  154.0220 C   0  0  2  0  0  3  0  0  0  0  0  0
  160.1750  212.1190  151.2620 C   0  0  1  0  0  3  0  0  0  0  0  0
  159.3920  212.9580  153.3210 C   0  0  1  0  0  3  0  0  0  0  0  0
  161.0050  212.5190  149.9820 C   0  0  2  0  0  3  0  0  0  0  0  0
  157.4110  214.1970  153.5570 O   0  0  0  0  0  0  0  0  0  0  0  0
  159.8660  211.6160  153.5290 N   0  0  2  0  0  0  0  0  0  0  0  0
  158.2100  210.7590  155.9780 C   0  0  0  0  0  1  0  0  0  0  0  0
  157.8940  213.9300  149.8780 C   0  0  0  0  0  2  0  0  0  0  0  0
  156.9270  213.9190  152.2460 C   0  0  0  0  0  2  0  0  0  0  0  0
  160.3290  211.6310  154.9110 C   0  0  0  0  0  2  0  0  0  0  0  0
  162.5500  209.2970  150.0920 O   0  0  0  0  0  0  0  0  0  0  0  0
  161.5720  210.2950  149.9570 C   0  0  1  0  0  3  0  0  0  0  0  0
  157.9670  213.2910  151.2730 C   0  0  2  0  0  3  0  0  0  0  0  0
  160.8830  211.5110  152.5000 C   0  0  1  0  0  3  0  0  0  0  0  0
  158.3500  213.1150  155.4130 O   0  0  0  0  0  0  0  0  0  0  0  0
  160.0430  212.9690  148.8540 C   0  0  1  0  0  3  0  0  0  0  0  0
  159.6740  212.2770  157.2200 C   0  0  0  0  0  1  0  0  0  0  0  0
  162.4250  210.1860  151.1740 C   0  0  1  0  0  3  0  0  0  0  0  0
  161.3870  210.0600  152.2900 C   0  0  2  0  0  3  0  0  0  0  0  0
  159.2480  214.2330  149.2150 C   0  0  0  0  0  2  0  0  0  0  0  0
  161.8660  214.0490  147.5270 C   0  0  0  0  0  3  0  0  0  0  0  0
  160.7630  213.1900  147.5560 C   0  0  0  0  0  0  0  0  0  0  0  0
  160.3450  212.5550  146.3760 C   0  0  0  0  0  3  0  0  0  0  0  0
  160.6260  212.1680  144.0410 F   0  0  0  0  0  0  0  0  0  0  0  0
  162.1320  213.6420  145.1550 C   0  0  0  0  0  3  0  0  0  0  0  0
  161.0310  212.7820  145.1780 C   0  0  0  0  0  0  0  0  0  0  0  0
  162.5500  214.2750  146.3290 C   0  0  0  0  0  3  0  0  0  0  0  0
  160.3440  209.1610  151.9890 O   0  0  0  0  0  0  0  0  0  0  0  0
  160.5070  208.0700  152.8540 C   0  0  1  0  0  3  0  0  0  0  0  0
  160.8460  206.7620  150.8770 O   0  0  0  0  0  1  0  0  0  0  0  0
  161.3180  206.9770  152.1710 C   0  0  0  0  0  2  0  0  0  0  0  0
  161.1710  208.4960  154.1670 C   0  0  0  0  0  2  0  0  0  0  0  0
  161.0180  207.4620  155.2770 C   0  0  0  0  0  2  0  0  0  0  0  0
  160.3780  208.0290  156.3790 O   0  0  0  0  0  1  0  0  0  0  0  0
  1 10  1  0  0  0  0
  1 20  1  0  0  0  0
  2  6  1  0  0  0  0
  3 15  1  0  0  0  0
  3  7  1  0  0  0  0
  4 18  1  0  0  0  0
  5  2  1  0  0  0  0
  5 17  1  0  0  0  0
  6  9  1  0  0  0  0
  6  4  1  0  0  0  0
  7  5  1  0  0  0  0
  8  4  1  0  0  0  0
  9 13  1  0  0  0  0
 11 16  1  0  0  0  0
 12  8  1  0  0  0  0
 13  1  1  0  0  0  0
 14 21  1  0  0  0  0
 15 14  1  0  0  0  0
 15 21  1  0  0  0  0
 16  2  1  0  0  0  0
 16 12  1  0  0  0  0
 17  9  1  0  0  0  0
 18  1  1  0  0  0  0
 19 23  1  0  0  0  0
 19  7  1  0  0  0  0
 21 22  1  0  0  0  0
 22 17  1  0  0  0  0
 23 11  1  0  0  0  0
 24 25  1  0  0  0  0
 25 19  1  0  0  0  0
 26 25  2  0  0  0  0
 27 29  1  0  0  0  0
 28 29  2  0  0  0  0
 28 30  1  0  0  0  0
 29 26  1  0  0  0  0
 30 24  2  0  0  0  0
 31 22  1  0  0  0  0
 31 32  1  0  0  0  0
 32 35  1  0  0  0  0
 33 34  1  0  0  0  0
 34 32  1  0  0  0  0
 35 36  1  0  0  0  0
 36 37  1  0  0  0  0
M  END
>  <MODEL>
2

>  <REMARK>
 VINA RESULT:      -4.9      1.763      3.174
  Name = 
  6 active torsions:
  status: ('A' for Active; 'I' for Inactive)
    1  A    between atoms: O_1  and  C_4
    2  A    between atoms: O_1  and  C_27
    3  A    between atoms: C_4  and  C_12
    4  A    between atoms: C_4  and  C_37
    5  A    between atoms: C_8  and  C_12
    6  A    between atoms: C_23  and  C_30
                            x       y       z     vdW  Elec       q    Type
                         _______ _______ _______ _____ _____    ______ ____

>  <TORSDO>
F 6

$$$$
