=
 OpenBabel11122412343D

 30 36  0  0  1  0  0  0  0  0999 V2000
  160.4360  211.9660  150.8810 C   0  0  1  0  0  3  0  0  0  0  0  0
  161.9580  210.6630  149.3170 C   0  0  0  0  0  0  0  0  0  0  0  0
  160.9910  209.1910  154.0390 N   0  0  0  0  0  2  0  0  0  0  0  0
  160.1320  212.3730  152.3460 C   0  0  1  0  0  3  0  0  0  0  0  0
  160.4410  213.1000  150.0540 O   0  0  0  0  0  0  0  0  0  0  0  0
  157.2930  214.4530  151.2080 O   0  0  0  0  0  1  0  0  0  0  0  0
  157.3170  212.2690  153.8930 C   0  0  1  0  0  3  0  0  0  0  0  0
  158.2060  213.3940  151.1710 C   0  0  1  0  0  3  0  0  0  0  0  0
  157.9590  211.0920  154.6380 C   0  0  2  0  0  3  0  0  0  0  0  0
  160.0330  209.7100  154.9520 C   0  0  0  0  0  0  0  0  0  0  0  0
  159.0980  213.5510  149.9150 C   0  0  2  0  0  3  0  0  0  0  0  0
  159.0390  213.3860  152.3850 N   0  0  1  0  0  0  0  0  0  0  0  0
  162.0360  209.2390  148.9550 C   0  0  0  0  0  3  0  0  0  0  0  0
  157.4870  211.2140  156.0710 C   0  0  0  0  0  2  0  0  0  0  0  0
  156.1300  212.7080  154.7360 C   0  0  0  0  0  2  0  0  0  0  0  0
  162.1610  211.5320  148.4310 O   0  0  0  0  0  0  0  0  0  0  0  0
  161.2020  210.2720  153.0980 C   0  0  2  0  0  3  0  0  0  0  0  0
  161.8900  208.2910  149.8780 C   0  0  0  0  0  3  0  0  0  0  0  0
  161.6980  211.0850  150.7450 C   0  0  2  0  0  3  0  0  0  0  0  0
  159.9000  211.0520  153.0870 C   0  0  1  0  0  3  0  0  0  0  0  0
  159.7220  209.1090  156.0130 O   0  0  0  0  0  0  0  0  0  0  0  0
  159.4810  211.0410  154.5440 C   0  0  1  0  0  3  0  0  0  0  0  0
  156.1100  211.8270  155.9710 C   0  0  0  0  0  2  0  0  0  0  0  0
  159.0280  214.0120  154.8020 C   0  0  0  0  0  1  0  0  0  0  0  0
  161.6390  208.6300  151.2880 C   0  0  0  0  0  3  0  0  0  0  0  0
  161.5640  209.9030  151.6960 C   0  0  0  0  0  0  0  0  0  0  0  0
  158.2310  213.4810  153.6150 C   0  0  2  0  0  3  0  0  0  0  0  0
  158.3940  213.0760  148.6340 C   0  0  2  0  0  3  0  0  0  0  0  0
  158.8300  213.8330  147.4370 C   0  0  0  0  0  2  0  0  0  0  0  0
  157.6080  214.1050  148.0800 O   0  0  0  0  0  0  0  0  0  0  0  0
  1  5  1  6  0  0  0
  1  4  1  0  0  0  0
  2 19  1  0  0  0  0
  3 10  1  0  0  0  0
  4 12  1  0  0  0  0
  4 20  1  0  0  0  0
  7  9  1  0  0  0  0
  7 15  1  0  0  0  0
  8  6  1  0  0  0  0
  8 12  1  0  0  0  0
  9 14  1  0  0  0  0
 10 21  2  0  0  0  0
 11  5  1  0  0  0  0
 11  8  1  0  0  0  0
 12 27  1  0  0  0  0
 13  2  1  0  0  0  0
 13 18  2  0  0  0  0
 15 23  1  0  0  0  0
 16  2  2  0  0  0  0
 17  3  1  0  0  0  0
 18 25  1  0  0  0  0
 19  1  1  0  0  0  0
 19 26  1  0  0  0  0
 20 17  1  0  0  0  0
 20 22  1  0  0  0  0
 22  9  1  0  0  0  0
 22 10  1  0  0  0  0
 23 14  1  0  0  0  0
 25 26  2  0  0  0  0
 26 17  1  0  0  0  0
 27  7  1  0  0  0  0
 27 24  1  0  0  0  0
 28 11  1  0  0  0  0
 29 30  1  0  0  0  0
 29 28  1  0  0  0  0
 30 28  1  0  0  0  0
M  END
>  <MODEL>
1

>  <REMARK>
 VINA RESULT:      -5.7      0.000      0.000
  Name = 
  1 active torsions:
  status: ('A' for Active; 'I' for Inactive)
    1  A    between atoms: C_11  and  C_28
                            x       y       z     vdW  Elec       q    Type
                         _______ _______ _______ _____ _____    ______ ____

>  <TORSDO>
F 1

$$$$
=
 OpenBabel11122412343D

 30 36  0  0  1  0  0  0  0  0999 V2000
  161.3160  209.1410  153.7850 C   0  0  1  0  0  3  0  0  0  0  0  0
  160.7290  211.4380  154.7020 C   0  0  0  0  0  0  0  0  0  0  0  0
  161.4860  210.5690  149.7960 N   0  0  0  0  0  2  0  0  0  0  0  0
  162.0760  208.3400  152.6970 C   0  0  1  0  0  3  0  0  0  0  0  0
  161.6150  208.6330  155.0590 O   0  0  0  0  0  0  0  0  0  0  0  0
  161.0120  205.1590  154.2550 O   0  0  0  0  0  1  0  0  0  0  0  0
  160.9810  205.9250  150.8810 C   0  0  1  0  0  3  0  0  0  0  0  0
  160.9220  206.5090  153.9010 C   0  0  1  0  0  3  0  0  0  0  0  0
  161.0240  206.9700  149.7590 C   0  0  2  0  0  3  0  0  0  0  0  0
  161.6390  209.3230  149.1280 C   0  0  0  0  0  0  0  0  0  0  0  0
  160.9780  207.3660  155.1890 C   0  0  2  0  0  3  0  0  0  0  0  0
  162.0250  206.8810  152.9980 N   0  0  1  0  0  0  0  0  0  0  0  0
  159.7350  212.4480  154.3060 C   0  0  0  0  0  3  0  0  0  0  0  0
  161.4900  206.2230  148.5270 C   0  0  0  0  0  2  0  0  0  0  0  0
  160.9060  204.5700  150.1960 C   0  0  0  0  0  2  0  0  0  0  0  0
  160.9630  211.2550  155.9240 O   0  0  0  0  0  0  0  0  0  0  0  0
  161.8290  210.2740  151.1720 C   0  0  2  0  0  3  0  0  0  0  0  0
  159.5070  212.7150  153.0220 C   0  0  0  0  0  3  0  0  0  0  0  0
  161.5080  210.6690  153.6600 C   0  0  2  0  0  3  0  0  0  0  0  0
  161.4780  208.8100  151.3660 C   0  0  1  0  0  3  0  0  0  0  0  0
  161.5840  209.2220  147.8750 O   0  0  0  0  0  0  0  0  0  0  0  0
  161.9070  208.1780  150.0560 C   0  0  1  0  0  3  0  0  0  0  0  0
  160.9470  204.8230  148.7000 C   0  0  0  0  0  2  0  0  0  0  0  0
  163.5600  205.9590  151.2580 C   0  0  0  0  0  1  0  0  0  0  0  0
  160.2330  212.0080  151.9550 C   0  0  0  0  0  3  0  0  0  0  0  0
  161.1590  211.0830  152.2360 C   0  0  0  0  0  0  0  0  0  0  0  0
  162.1640  205.9390  151.8720 C   0  0  2  0  0  3  0  0  0  0  0  0
  159.6290  207.4030  155.9260 C   0  0  2  0  0  3  0  0  0  0  0  0
  159.6990  208.1730  157.1900 C   0  0  0  0  0  2  0  0  0  0  0  0
  159.7230  206.7650  157.1790 O   0  0  0  0  0  0  0  0  0  0  0  0
  1  5  1  1  0  0  0
  2 16  2  0  0  0  0
  3 17  1  0  0  0  0
  4 12  1  0  0  0  0
  4  1  1  0  0  0  0
  5 11  1  0  0  0  0
  7 27  1  0  0  0  0
  8  6  1  0  0  0  0
  8 11  1  0  0  0  0
  9 22  1  0  0  0  0
  9  7  1  0  0  0  0
 10  3  1  0  0  0  0
 10 22  1  0  0  0  0
 11 28  1  0  0  0  0
 12  8  1  0  0  0  0
 13  2  1  0  0  0  0
 14 23  1  0  0  0  0
 14  9  1  0  0  0  0
 15  7  1  0  0  0  0
 17 20  1  0  0  0  0
 17 26  1  0  0  0  0
 18 13  2  0  0  0  0
 19  1  1  0  0  0  0
 19  2  1  0  0  0  0
 20  4  1  0  0  0  0
 21 10  2  0  0  0  0
 22 20  1  0  0  0  0
 23 15  1  0  0  0  0
 24 27  1  0  0  0  0
 25 26  2  0  0  0  0
 25 18  1  0  0  0  0
 26 19  1  0  0  0  0
 27 12  1  0  0  0  0
 28 30  1  0  0  0  0
 28 29  1  0  0  0  0
 30 29  1  0  0  0  0
M  END
>  <MODEL>
2

>  <REMARK>
 VINA RESULT:      -5.6      2.995      7.571
  Name = 
  1 active torsions:
  status: ('A' for Active; 'I' for Inactive)
    1  A    between atoms: C_11  and  C_28
                            x       y       z     vdW  Elec       q    Type
                         _______ _______ _______ _____ _____    ______ ____

>  <TORSDO>
F 1

$$$$
=
 OpenBabel11122412343D

 30 36  0  0  1  0  0  0  0  0999 V2000
  161.8670  209.0040  150.7300 C   0  0  1  0  0  3  0  0  0  0  0  0
  162.2010  207.2710  148.9000 C   0  0  0  0  0  0  0  0  0  0  0  0
  160.8970  206.0480  153.6120 N   0  0  0  0  0  2  0  0  0  0  0  0
  161.9720  209.3200  152.2440 C   0  0  1  0  0  3  0  0  0  0  0  0
  162.4830  210.0170  149.9790 O   0  0  0  0  0  0  0  0  0  0  0  0
  160.8440  212.7880  151.6260 O   0  0  0  0  0  1  0  0  0  0  0  0
  159.7650  210.6770  154.1460 C   0  0  1  0  0  3  0  0  0  0  0  0
  160.9460  211.4110  151.4020 C   0  0  1  0  0  3  0  0  0  0  0  0
  159.6360  209.2630  154.7260 C   0  0  2  0  0  3  0  0  0  0  0  0
  160.5040  206.9060  154.6750 C   0  0  0  0  0  0  0  0  0  0  0  0
  161.6630  211.1790  150.0500 C   0  0  2  0  0  3  0  0  0  0  0  0
  161.6980  210.7650  152.4910 N   0  0  1  0  0  0  0  0  0  0  0  0
  161.3940  206.1290  148.4460 C   0  0  0  0  0  3  0  0  0  0  0  0
  159.4350  209.4520  156.2140 C   0  0  0  0  0  2  0  0  0  0  0  0
  159.1350  211.6130  155.1660 C   0  0  0  0  0  2  0  0  0  0  0  0
  162.8150  207.9650  148.0490 O   0  0  0  0  0  0  0  0  0  0  0  0
  161.6390  206.9140  152.7180 C   0  0  2  0  0  3  0  0  0  0  0  0
  160.7820  205.3340  149.3220 C   0  0  0  0  0  3  0  0  0  0  0  0
  162.3480  207.5800  150.3730 C   0  0  2  0  0  3  0  0  0  0  0  0
  161.0560  208.3000  152.9290 C   0  0  1  0  0  3  0  0  0  0  0  0
  159.9760  206.4680  155.7310 O   0  0  0  0  0  0  0  0  0  0  0  0
  160.8200  208.3490  154.4260 C   0  0  1  0  0  3  0  0  0  0  0  0
  158.6860  210.7580  156.3370 C   0  0  0  0  0  2  0  0  0  0  0  0
  162.2370  210.9650  154.9210 C   0  0  0  0  0  1  0  0  0  0  0  0
  160.8850  205.5720  150.7700 C   0  0  0  0  0  3  0  0  0  0  0  0
  161.6090  206.5860  151.2600 C   0  0  0  0  0  0  0  0  0  0  0  0
  161.1960  211.1540  153.8220 C   0  0  2  0  0  3  0  0  0  0  0  0
  160.7230  211.3710  148.8480 C   0  0  2  0  0  3  0  0  0  0  0  0
  161.4090  211.9910  147.6900 C   0  0  0  0  0  2  0  0  0  0  0  0
  160.5720  212.7370  148.5410 O   0  0  0  0  0  0  0  0  0  0  0  0
  1  5  1  6  0  0  0
  1  4  1  0  0  0  0
  2 19  1  0  0  0  0
  3 10  1  0  0  0  0
  4 12  1  0  0  0  0
  4 20  1  0  0  0  0
  5 11  1  0  0  0  0
  7  9  1  0  0  0  0
  7 15  1  0  0  0  0
  8  6  1  0  0  0  0
  8 12  1  0  0  0  0
  9 14  1  0  0  0  0
 10 21  2  0  0  0  0
 11  8  1  0  0  0  0
 12 27  1  0  0  0  0
 13  2  1  0  0  0  0
 13 18  2  0  0  0  0
 14 23  1  0  0  0  0
 15 23  1  0  0  0  0
 16  2  2  0  0  0  0
 17 20  1  0  0  0  0
 17  3  1  0  0  0  0
 18 25  1  0  0  0  0
 19  1  1  0  0  0  0
 19 26  1  0  0  0  0
 20 22  1  0  0  0  0
 22 10  1  0  0  0  0
 22  9  1  0  0  0  0
 25 26  2  0  0  0  0
 26 17  1  0  0  0  0
 27  7  1  0  0  0  0
 27 24  1  0  0  0  0
 28 11  1  0  0  0  0
 29 30  1  0  0  0  0
 29 28  1  0  0  0  0
 30 28  1  0  0  0  0
M  END
>  <MODEL>
3

>  <REMARK>
 VINA RESULT:      -5.6      2.246      3.309
  Name = 
  1 active torsions:
  status: ('A' for Active; 'I' for Inactive)
    1  A    between atoms: C_11  and  C_28
                            x       y       z     vdW  Elec       q    Type
                         _______ _______ _______ _____ _____    ______ ____

>  <TORSDO>
F 1

$$$$
=
 OpenBabel11122412343D

 30 36  0  0  1  0  0  0  0  0999 V2000
  161.7920  206.0920  150.1030 C   0  0  1  0  0  3  0  0  0  0  0  0
  161.5080  203.5820  149.8230 C   0  0  0  0  0  0  0  0  0  0  0  0
  160.8770  205.9250  154.2400 N   0  0  0  0  0  2  0  0  0  0  0  0
  162.2150  207.2470  151.0480 C   0  0  1  0  0  3  0  0  0  0  0  0
  162.4240  206.2300  148.8570 O   0  0  0  0  0  0  0  0  0  0  0  0
  161.5810  209.7110  148.3630 O   0  0  0  0  0  1  0  0  0  0  0  0
  160.6340  209.9730  151.6810 C   0  0  1  0  0  3  0  0  0  0  0  0
  161.4140  208.5230  149.0820 C   0  0  1  0  0  3  0  0  0  0  0  0
  160.3800  209.3140  153.0420 C   0  0  2  0  0  3  0  0  0  0  0  0
  160.8250  207.3210  154.5050 C   0  0  0  0  0  0  0  0  0  0  0  0
  161.8320  207.3350  148.1820 C   0  0  2  0  0  3  0  0  0  0  0  0
  162.2300  208.5410  150.3080 N   0  0  1  0  0  0  0  0  0  0  0  0
  160.4560  202.6430  150.2410 C   0  0  0  0  0  3  0  0  0  0  0  0
  160.4800  210.4310  154.0580 C   0  0  0  0  0  2  0  0  0  0  0  0
  160.3570  211.4560  151.8690 C   0  0  0  0  0  2  0  0  0  0  0  0
  162.0660  203.4190  148.7080 O   0  0  0  0  0  0  0  0  0  0  0  0
  161.5810  205.8330  152.9770 C   0  0  2  0  0  3  0  0  0  0  0  0
  159.8870  202.7450  151.4410 C   0  0  0  0  0  3  0  0  0  0  0  0
  161.9620  204.6950  150.7400 C   0  0  2  0  0  3  0  0  0  0  0  0
  161.2800  207.1350  152.2570 C   0  0  1  0  0  3  0  0  0  0  0  0
  160.4280  207.7810  155.6070 O   0  0  0  0  0  0  0  0  0  0  0  0
  161.3250  208.1620  153.3710 C   0  0  1  0  0  3  0  0  0  0  0  0
  159.9890  211.6590  153.3270 C   0  0  0  0  0  2  0  0  0  0  0  0
  163.2170  210.0770  152.0110 C   0  0  0  0  0  1  0  0  0  0  0  0
  160.2830  203.8010  152.3860 C   0  0  0  0  0  3  0  0  0  0  0  0
  161.2390  204.6870  152.0810 C   0  0  0  0  0  0  0  0  0  0  0  0
  162.0440  209.7820  151.0830 C   0  0  2  0  0  3  0  0  0  0  0  0
  160.7390  206.9530  147.1710 C   0  0  2  0  0  3  0  0  0  0  0  0
  160.8310  205.5360  146.7490 C   0  0  0  0  0  2  0  0  0  0  0  0
  161.3030  206.5830  145.9350 O   0  0  0  0  0  0  0  0  0  0  0  0
  1  5  1  6  0  0  0
  1 19  1  0  0  0  0
  1  4  1  0  0  0  0
  2 13  1  0  0  0  0
  2 19  1  0  0  0  0
  3 10  1  0  0  0  0
  4 20  1  0  0  0  0
  6  8  1  0  0  0  0
  7 15  1  0  0  0  0
  7  9  1  0  0  0  0
  8 12  1  0  0  0  0
  9 22  1  0  0  0  0
  9 14  1  0  0  0  0
 10 21  2  0  0  0  0
 11  5  1  0  0  0  0
 11  8  1  0  0  0  0
 12  4  1  0  0  0  0
 12 27  1  0  0  0  0
 13 18  2  0  0  0  0
 15 23  1  0  0  0  0
 16  2  2  0  0  0  0
 17  3  1  0  0  0  0
 18 25  1  0  0  0  0
 19 26  1  0  0  0  0
 20 17  1  0  0  0  0
 20 22  1  0  0  0  0
 22 10  1  0  0  0  0
 23 14  1  0  0  0  0
 26 25  2  0  0  0  0
 26 17  1  0  0  0  0
 27  7  1  0  0  0  0
 27 24  1  0  0  0  0
 28 11  1  0  0  0  0
 29 28  1  0  0  0  0
 30 29  1  0  0  0  0
 30 28  1  0  0  0  0
M  END
>  <MODEL>
4

>  <REMARK>
 VINA RESULT:      -5.1      3.573      5.853
  Name = 
  1 active torsions:
  status: ('A' for Active; 'I' for Inactive)
    1  A    between atoms: C_11  and  C_28
                            x       y       z     vdW  Elec       q    Type
                         _______ _______ _______ _____ _____    ______ ____

>  <TORSDO>
F 1

$$$$
=
 OpenBabel11122412343D

 30 36  0  0  1  0  0  0  0  0999 V2000
  161.4640  204.7020  148.4900 C   0  0  1  0  0  3  0  0  0  0  0  0
  160.9280  202.3230  147.7730 C   0  0  0  0  0  0  0  0  0  0  0  0
  161.0460  203.7580  152.6020 N   0  0  0  0  0  2  0  0  0  0  0  0
  162.0990  205.6130  149.5720 C   0  0  1  0  0  3  0  0  0  0  0  0
  161.9500  205.0500  147.2190 O   0  0  0  0  0  0  0  0  0  0  0  0
  161.3640  208.6040  147.5250 O   0  0  0  0  0  1  0  0  0  0  0  0
  160.8530  208.2470  150.9290 C   0  0  1  0  0  3  0  0  0  0  0  0
  161.1810  207.3080  148.0170 C   0  0  1  0  0  3  0  0  0  0  0  0
  160.7080  207.3430  152.1590 C   0  0  2  0  0  3  0  0  0  0  0  0
  161.1500  205.0710  153.1360 C   0  0  0  0  0  0  0  0  0  0  0  0
  161.3800  206.3030  146.8570 C   0  0  2  0  0  3  0  0  0  0  0  0
  162.1380  207.0270  149.1010 N   0  0  1  0  0  0  0  0  0  0  0  0
  159.8560  201.3870  148.1410 C   0  0  0  0  0  3  0  0  0  0  0  0
  161.0290  208.2230  153.3480 C   0  0  0  0  0  2  0  0  0  0  0  0
  160.7330  209.6760  151.4350 C   0  0  0  0  0  2  0  0  0  0  0  0
  161.3300  202.3550  146.5810 O   0  0  0  0  0  0  0  0  0  0  0  0
  161.5810  203.8800  151.2610 C   0  0  2  0  0  3  0  0  0  0  0  0
  159.4470  201.2790  149.4040 C   0  0  0  0  0  3  0  0  0  0  0  0
  161.5860  203.1970  148.8160 C   0  0  2  0  0  3  0  0  0  0  0  0
  161.3110  205.3170  150.8530 C   0  0  1  0  0  3  0  0  0  0  0  0
  160.9310  205.3220  154.3500 O   0  0  0  0  0  0  0  0  0  0  0  0
  161.5810  206.0920  152.1280 C   0  0  1  0  0  3  0  0  0  0  0  0
  160.5630  209.6020  152.9410 C   0  0  0  0  0  2  0  0  0  0  0  0
  163.4560  208.1210  150.9170 C   0  0  0  0  0  1  0  0  0  0  0  0
  160.0470  202.0940  150.4720 C   0  0  0  0  0  3  0  0  0  0  0  0
  161.0330  202.9620  150.2160 C   0  0  0  0  0  0  0  0  0  0  0  0
  162.1570  208.0930  150.1180 C   0  0  2  0  0  3  0  0  0  0  0  0
  160.1430  206.2030  145.9500 C   0  0  2  0  0  3  0  0  0  0  0  0
  160.3130  205.2000  144.8730 C   0  0  0  0  0  2  0  0  0  0  0  0
  160.4560  206.5780  144.6290 O   0  0  0  0  0  0  0  0  0  0  0  0
  1  5  1  6  0  0  0
  1 19  1  0  0  0  0
  1  4  1  0  0  0  0
  2 13  1  0  0  0  0
  2 19  1  0  0  0  0
  3 10  1  0  0  0  0
  4 20  1  0  0  0  0
  6  8  1  0  0  0  0
  7 15  1  0  0  0  0
  7  9  1  0  0  0  0
  8 12  1  0  0  0  0
  9 14  1  0  0  0  0
 10 21  2  0  0  0  0
 11  5  1  0  0  0  0
 11  8  1  0  0  0  0
 12  4  1  0  0  0  0
 12 27  1  0  0  0  0
 13 18  2  0  0  0  0
 15 23  1  0  0  0  0
 16  2  2  0  0  0  0
 17  3  1  0  0  0  0
 18 25  1  0  0  0  0
 19 26  1  0  0  0  0
 20 17  1  0  0  0  0
 20 22  1  0  0  0  0
 22  9  1  0  0  0  0
 22 10  1  0  0  0  0
 23 14  1  0  0  0  0
 26 25  2  0  0  0  0
 26 17  1  0  0  0  0
 27 24  1  0  0  0  0
 27  7  1  0  0  0  0
 28 11  1  0  0  0  0
 29 28  1  0  0  0  0
 30 29  1  0  0  0  0
 30 28  1  0  0  0  0
M  END
>  <MODEL>
5

>  <REMARK>
 VINA RESULT:      -4.5      4.766      7.290
  Name = 
  1 active torsions:
  status: ('A' for Active; 'I' for Inactive)
    1  A    between atoms: C_11  and  C_28
                            x       y       z     vdW  Elec       q    Type
                         _______ _______ _______ _____ _____    ______ ____

>  <TORSDO>
F 1

$$$$
=
 OpenBabel11122412343D

 30 36  0  0  1  0  0  0  0  0999 V2000
  161.4130  210.2300  151.0410 C   0  0  1  0  0  3  0  0  0  0  0  0
  161.2220  212.4720  149.8580 C   0  0  0  0  0  0  0  0  0  0  0  0
  162.1590  208.1660  147.4130 N   0  0  0  0  0  2  0  0  0  0  0  0
  162.0800  208.8310  151.0580 C   0  0  1  0  0  3  0  0  0  0  0  0
  161.5100  210.8280  152.3070 O   0  0  0  0  0  0  0  0  0  0  0  0
  160.2980  207.9860  154.1870 O   0  0  0  0  0  1  0  0  0  0  0  0
  160.6710  205.9630  151.4040 C   0  0  1  0  0  3  0  0  0  0  0  0
  160.5020  208.6150  152.9540 C   0  0  1  0  0  3  0  0  0  0  0  0
  161.0030  205.8060  149.9150 C   0  0  2  0  0  3  0  0  0  0  0  0
  162.1130  206.8350  147.9100 C   0  0  0  0  0  0  0  0  0  0  0  0
  160.6280  210.1400  153.1890 C   0  0  2  0  0  3  0  0  0  0  0  0
  161.7210  208.1000  152.3070 N   0  0  1  0  0  0  0  0  0  0  0  0
  160.4780  212.9130  148.6690 C   0  0  0  0  0  3  0  0  0  0  0  0
  161.4030  204.3570  149.7400 C   0  0  0  0  0  2  0  0  0  0  0  0
  160.3830  204.5640  151.9250 C   0  0  0  0  0  2  0  0  0  0  0  0
  161.3220  213.2500  150.8410 O   0  0  0  0  0  0  0  0  0  0  0  0
  162.3320  208.9780  148.6000 C   0  0  2  0  0  3  0  0  0  0  0  0
  160.4040  212.1430  147.5850 C   0  0  0  0  0  3  0  0  0  0  0  0
  161.9110  211.1270  149.8860 C   0  0  2  0  0  3  0  0  0  0  0  0
  161.6880  208.1870  149.7240 C   0  0  1  0  0  3  0  0  0  0  0  0
  162.1340  205.8320  147.1490 O   0  0  0  0  0  0  0  0  0  0  0  0
  162.0810  206.7570  149.4060 C   0  0  1  0  0  3  0  0  0  0  0  0
  160.5850  203.6060  150.7650 C   0  0  0  0  0  2  0  0  0  0  0  0
  163.1710  206.0760  152.1350 C   0  0  0  0  0  1  0  0  0  0  0  0
  161.0540  210.8240  147.5400 C   0  0  0  0  0  3  0  0  0  0  0  0
  161.7560  210.3570  148.5800 C   0  0  0  0  0  0  0  0  0  0  0  0
  161.7560  206.6270  152.2780 C   0  0  2  0  0  3  0  0  0  0  0  0
  159.2620  210.8180  153.3820 C   0  0  2  0  0  3  0  0  0  0  0  0
  159.3580  212.0620  154.1810 C   0  0  0  0  0  2  0  0  0  0  0  0
  158.9060  210.8540  154.7450 O   0  0  0  0  0  0  0  0  0  0  0  0
  1  4  1  0  0  0  0
  1  5  1  1  0  0  0
  2 19  1  0  0  0  0
  2 16  2  0  0  0  0
  3 10  1  0  0  0  0
  3 17  1  0  0  0  0
  4 12  1  0  0  0  0
  5 11  1  0  0  0  0
  7 15  1  0  0  0  0
  7 27  1  0  0  0  0
  8 11  1  0  0  0  0
  8  6  1  0  0  0  0
  9  7  1  0  0  0  0
 10 22  1  0  0  0  0
 11 28  1  0  0  0  0
 12  8  1  0  0  0  0
 13  2  1  0  0  0  0
 14  9  1  0  0  0  0
 14 23  1  0  0  0  0
 17 20  1  0  0  0  0
 18 13  2  0  0  0  0
 19  1  1  0  0  0  0
 20  4  1  0  0  0  0
 21 10  2  0  0  0  0
 22 20  1  0  0  0  0
 22  9  1  0  0  0  0
 23 15  1  0  0  0  0
 24 27  1  0  0  0  0
 25 18  1  0  0  0  0
 25 26  2  0  0  0  0
 26 17  1  0  0  0  0
 26 19  1  0  0  0  0
 27 12  1  0  0  0  0
 28 29  1  0  0  0  0
 28 30  1  0  0  0  0
 29 30  1  0  0  0  0
M  END
>  <MODEL>
6

>  <REMARK>
 VINA RESULT:      -4.0      2.757      6.521
  Name = 
  1 active torsions:
  status: ('A' for Active; 'I' for Inactive)
    1  A    between atoms: C_11  and  C_28
                            x       y       z     vdW  Elec       q    Type
                         _______ _______ _______ _____ _____    ______ ____

>  <TORSDO>
F 1

$$$$
=
 OpenBabel11122412343D

 30 36  0  0  1  0  0  0  0  0999 V2000
  158.2720  212.3640  153.7190 C   0  0  1  0  0  3  0  0  0  0  0  0
  156.6080  214.1530  153.0200 C   0  0  0  0  0  0  0  0  0  0  0  0
  160.3380  212.5740  150.0220 N   0  0  0  0  0  2  0  0  0  0  0  0
  159.7240  211.8330  153.6000 C   0  0  1  0  0  3  0  0  0  0  0  0
  157.8930  212.4400  155.0680 O   0  0  0  0  0  0  0  0  0  0  0  0
  158.9480  209.1010  155.9700 O   0  0  0  0  0  1  0  0  0  0  0  0
  160.6960  208.8300  152.9960 C   0  0  1  0  0  3  0  0  0  0  0  0
  158.6900  210.0550  154.9800 C   0  0  1  0  0  3  0  0  0  0  0  0
  161.0830  209.4070  151.6290 C   0  0  2  0  0  3  0  0  0  0  0  0
  161.2170  211.4720  150.2040 C   0  0  0  0  0  0  0  0  0  0  0  0
  157.7150  211.1130  155.5520 C   0  0  2  0  0  3  0  0  0  0  0  0
  159.9410  210.7020  154.5470 N   0  0  1  0  0  0  0  0  0  0  0  0
  155.7980  214.3450  151.8080 C   0  0  0  0  0  3  0  0  0  0  0  0
  162.3820  208.7270  151.2540 C   0  0  0  0  0  2  0  0  0  0  0  0
  161.4480  207.5150  153.1290 C   0  0  0  0  0  2  0  0  0  0  0  0
  156.1130  214.4450  154.1390 O   0  0  0  0  0  0  0  0  0  0  0  0
  159.8670  212.8730  151.3590 C   0  0  2  0  0  3  0  0  0  0  0  0
  156.3080  214.1080  150.6010 C   0  0  0  0  0  3  0  0  0  0  0  0
  158.0370  213.6700  152.9280 C   0  0  2  0  0  3  0  0  0  0  0  0
  159.9250  211.5530  152.1070 C   0  0  1  0  0  3  0  0  0  0  0  0
  161.9490  211.0360  149.2770 O   0  0  0  0  0  0  0  0  0  0  0  0
  161.2090  210.9270  151.5990 C   0  0  1  0  0  3  0  0  0  0  0  0
  162.2890  207.3530  151.8760 C   0  0  0  0  0  2  0  0  0  0  0  0
  162.3950  210.3120  154.3040 C   0  0  0  0  0  1  0  0  0  0  0  0
  157.6930  213.6400  150.4370 C   0  0  0  0  0  3  0  0  0  0  0  0
  158.4950  213.4510  151.4910 C   0  0  0  0  0  0  0  0  0  0  0  0
  160.9910  209.7200  154.2210 C   0  0  2  0  0  3  0  0  0  0  0  0
  156.2570  210.6250  155.5540 C   0  0  2  0  0  3  0  0  0  0  0  0
  155.2970  211.7170  155.8370 C   0  0  0  0  0  2  0  0  0  0  0  0
  155.6730  210.7870  156.8250 O   0  0  0  0  0  0  0  0  0  0  0  0
  1  5  1  1  0  0  0
  2 16  2  0  0  0  0
  3 10  1  0  0  0  0
  3 17  1  0  0  0  0
  4  1  1  0  0  0  0
  4 12  1  0  0  0  0
  5 11  1  0  0  0  0
  7 15  1  0  0  0  0
  7 27  1  0  0  0  0
  8 11  1  0  0  0  0
  8  6  1  0  0  0  0
  9  7  1  0  0  0  0
 10 22  1  0  0  0  0
 11 28  1  0  0  0  0
 12  8  1  0  0  0  0
 13  2  1  0  0  0  0
 14  9  1  0  0  0  0
 14 23  1  0  0  0  0
 17 26  1  0  0  0  0
 17 20  1  0  0  0  0
 18 13  2  0  0  0  0
 19  2  1  0  0  0  0
 19  1  1  0  0  0  0
 20  4  1  0  0  0  0
 21 10  2  0  0  0  0
 22  9  1  0  0  0  0
 22 20  1  0  0  0  0
 23 15  1  0  0  0  0
 25 18  1  0  0  0  0
 25 26  2  0  0  0  0
 26 19  1  0  0  0  0
 27 24  1  0  0  0  0
 27 12  1  0  0  0  0
 28 29  1  0  0  0  0
 28 30  1  0  0  0  0
 29 30  1  0  0  0  0
M  END
>  <MODEL>
7

>  <REMARK>
 VINA RESULT:      -3.8      1.888      6.294
  Name = 
  1 active torsions:
  status: ('A' for Active; 'I' for Inactive)
    1  A    between atoms: C_11  and  C_28
                            x       y       z     vdW  Elec       q    Type
                         _______ _______ _______ _____ _____    ______ ____

>  <TORSDO>
F 1

$$$$
=
 OpenBabel11122412343D

 30 36  0  0  1  0  0  0  0  0999 V2000
  159.9210  212.0120  139.6730 C   0  0  1  0  0  3  0  0  0  0  0  0
  161.8690  212.5850  141.2020 C   0  0  0  0  0  0  0  0  0  0  0  0
  157.2360  214.4520  141.8670 N   0  0  0  0  0  2  0  0  0  0  0  0
  158.5990  212.5000  139.0270 C   0  0  1  0  0  3  0  0  0  0  0  0
  160.7620  211.4580  138.6950 O   0  0  0  0  0  0  0  0  0  0  0  0
  158.2740  209.2980  137.2050 O   0  0  0  0  0  1  0  0  0  0  0  0
  155.7710  210.9780  138.9040 C   0  0  1  0  0  3  0  0  0  0  0  0
  158.6600  210.1520  138.2440 C   0  0  1  0  0  3  0  0  0  0  0  0
  155.3450  212.0360  139.9300 C   0  0  2  0  0  3  0  0  0  0  0  0
  156.0290  214.0850  141.2130 C   0  0  0  0  0  0  0  0  0  0  0  0
  160.2060  210.2120  138.2900 C   0  0  2  0  0  3  0  0  0  0  0  0
  158.1070  211.5010  138.0370 N   0  0  1  0  0  0  0  0  0  0  0  0
  162.0200  212.6020  142.6650 C   0  0  0  0  0  3  0  0  0  0  0  0
  153.9190  212.3950  139.5740 C   0  0  0  0  0  2  0  0  0  0  0  0
  154.4860  210.3890  138.3430 C   0  0  0  0  0  2  0  0  0  0  0  0
  162.8310  212.1920  140.4920 O   0  0  0  0  0  0  0  0  0  0  0  0
  158.2750  214.0150  140.9580 C   0  0  2  0  0  3  0  0  0  0  0  0
  161.0480  213.0710  143.4460 C   0  0  0  0  0  3  0  0  0  0  0  0
  160.6030  213.0880  140.5470 C   0  0  2  0  0  3  0  0  0  0  0  0
  157.6810  212.8370  140.2080 C   0  0  1  0  0  3  0  0  0  0  0  0
  154.8990  214.4530  141.6300 O   0  0  0  0  0  0  0  0  0  0  0  0
  156.2450  213.2670  139.9770 C   0  0  1  0  0  3  0  0  0  0  0  0
  153.3340  211.1240  139.0040 C   0  0  0  0  0  2  0  0  0  0  0  0
  156.1850  212.7210  137.0110 C   0  0  0  0  0  1  0  0  0  0  0  0
  159.7910  213.5810  142.8760 C   0  0  0  0  0  3  0  0  0  0  0  0
  159.5840  213.6060  141.5540 C   0  0  0  0  0  0  0  0  0  0  0  0
  156.6620  211.4720  137.7450 C   0  0  2  0  0  3  0  0  0  0  0  0
  160.8190  208.9840  138.9830 C   0  0  2  0  0  3  0  0  0  0  0  0
  161.9130  208.3770  138.1900 C   0  0  0  0  0  2  0  0  0  0  0  0
  160.6200  207.8210  138.2150 O   0  0  0  0  0  0  0  0  0  0  0  0
  1  5  1  6  0  0  0
  1 19  1  0  0  0  0
  2 13  1  0  0  0  0
  4  1  1  0  0  0  0
  4 20  1  0  0  0  0
  6  8  1  0  0  0  0
  7  9  1  0  0  0  0
  8 11  1  0  0  0  0
  9 22  1  0  0  0  0
 10 21  2  0  0  0  0
 10  3  1  0  0  0  0
 11  5  1  0  0  0  0
 11 28  1  0  0  0  0
 12  8  1  0  0  0  0
 12  4  1  0  0  0  0
 13 18  2  0  0  0  0
 14  9  1  0  0  0  0
 15  7  1  0  0  0  0
 15 23  1  0  0  0  0
 16  2  2  0  0  0  0
 17 26  1  0  0  0  0
 17  3  1  0  0  0  0
 19  2  1  0  0  0  0
 19 26  1  0  0  0  0
 20 17  1  0  0  0  0
 22 20  1  0  0  0  0
 22 10  1  0  0  0  0
 23 14  1  0  0  0  0
 24 27  1  0  0  0  0
 25 18  1  0  0  0  0
 26 25  2  0  0  0  0
 27 12  1  0  0  0  0
 27  7  1  0  0  0  0
 29 30  1  0  0  0  0
 29 28  1  0  0  0  0
 30 28  1  0  0  0  0
M  END
>  <MODEL>
8

>  <REMARK>
 VINA RESULT:      -3.7     10.067     13.294
  Name = 
  1 active torsions:
  status: ('A' for Active; 'I' for Inactive)
    1  A    between atoms: C_11  and  C_28
                            x       y       z     vdW  Elec       q    Type
                         _______ _______ _______ _____ _____    ______ ____

>  <TORSDO>
F 1

$$$$
=
 OpenBabel11122412343D

 30 36  0  0  1  0  0  0  0  0999 V2000
  157.2250  212.9870  140.1300 C   0  0  1  0  0  3  0  0  0  0  0  0
  154.7050  213.2830  140.2720 C   0  0  0  0  0  0  0  0  0  0  0  0
  156.8750  209.6260  137.5690 N   0  0  0  0  0  2  0  0  0  0  0  0
  158.4260  212.5360  139.2590 C   0  0  1  0  0  3  0  0  0  0  0  0
  157.4750  214.2540  140.6810 O   0  0  0  0  0  0  0  0  0  0  0  0
  160.7740  213.4950  141.9510 O   0  0  0  0  0  1  0  0  0  0  0  0
  160.8490  210.5890  140.0740 C   0  0  1  0  0  3  0  0  0  0  0  0
  159.5690  213.0550  141.3940 C   0  0  1  0  0  3  0  0  0  0  0  0
  160.1460  209.5960  139.1400 C   0  0  2  0  0  3  0  0  0  0  0  0
  158.2410  209.2330  137.5430 C   0  0  0  0  0  0  0  0  0  0  0  0
  158.4730  214.1090  141.6860 C   0  0  2  0  0  3  0  0  0  0  0  0
  159.7110  212.8630  139.9410 N   0  0  1  0  0  0  0  0  0  0  0  0
  153.6020  212.3470  140.5390 C   0  0  0  0  0  3  0  0  0  0  0  0
  161.2560  208.8630  138.4190 C   0  0  0  0  0  2  0  0  0  0  0  0
  162.2650  210.0670  140.2600 C   0  0  0  0  0  2  0  0  0  0  0  0
  154.6450  214.4490  140.7410 O   0  0  0  0  0  0  0  0  0  0  0  0
  156.9110  210.9870  138.0630 C   0  0  2  0  0  3  0  0  0  0  0  0
  153.5990  211.1260  140.0080 C   0  0  0  0  0  3  0  0  0  0  0  0
  155.8690  212.8790  139.3980 C   0  0  2  0  0  3  0  0  0  0  0  0
  158.1520  211.0640  138.9350 C   0  0  1  0  0  3  0  0  0  0  0  0
  158.6210  208.1570  137.0110 O   0  0  0  0  0  0  0  0  0  0  0  0
  159.1630  210.2360  138.1650 C   0  0  1  0  0  3  0  0  0  0  0  0
  162.3930  208.8140  139.4130 C   0  0  0  0  0  2  0  0  0  0  0  0
  161.3740  212.2880  138.1690 C   0  0  0  0  0  1  0  0  0  0  0  0
  154.6980  210.6680  139.1430 C   0  0  0  0  0  3  0  0  0  0  0  0
  155.7310  211.4650  138.8470 C   0  0  0  0  0  0  0  0  0  0  0  0
  160.8970  212.0560  139.5990 C   0  0  2  0  0  3  0  0  0  0  0  0
  157.9260  214.0030  143.1190 C   0  0  2  0  0  3  0  0  0  0  0  0
  158.9080  214.4530  144.1320 C   0  0  0  0  0  2  0  0  0  0  0  0
  158.6800  213.0880  143.8790 O   0  0  0  0  0  0  0  0  0  0  0  0
  1  5  1  6  0  0  0
  2 13  1  0  0  0  0
  2 16  2  0  0  0  0
  3 17  1  0  0  0  0
  4 12  1  0  0  0  0
  4  1  1  0  0  0  0
  5 11  1  0  0  0  0
  7 15  1  0  0  0  0
  8 11  1  0  0  0  0
  8  6  1  0  0  0  0
  9  7  1  0  0  0  0
 10  3  1  0  0  0  0
 10 22  1  0  0  0  0
 11 28  1  0  0  0  0
 12  8  1  0  0  0  0
 14  9  1  0  0  0  0
 14 23  1  0  0  0  0
 17 26  1  0  0  0  0
 17 20  1  0  0  0  0
 18 13  2  0  0  0  0
 19  1  1  0  0  0  0
 19  2  1  0  0  0  0
 20  4  1  0  0  0  0
 21 10  2  0  0  0  0
 22 20  1  0  0  0  0
 22  9  1  0  0  0  0
 23 15  1  0  0  0  0
 24 27  1  0  0  0  0
 25 18  1  0  0  0  0
 26 25  2  0  0  0  0
 26 19  1  0  0  0  0
 27 12  1  0  0  0  0
 27  7  1  0  0  0  0
 28 30  1  0  0  0  0
 28 29  1  0  0  0  0
 30 29  1  0  0  0  0
M  END
>  <MODEL>
9

>  <REMARK>
 VINA RESULT:      -3.4      9.462     13.624
  Name = 
  1 active torsions:
  status: ('A' for Active; 'I' for Inactive)
    1  A    between atoms: C_11  and  C_28
                            x       y       z     vdW  Elec       q    Type
                         _______ _______ _______ _____ _____    ______ ____

>  <TORSDO>
F 1

$$$$
