=
 OpenBabel11122412383D

 30 35  0  0  1  0  0  0  0  0999 V2000
  161.4580  208.1780  151.2490 C   0  0  0  0  0  0  0  0  0  0  0  0
  161.3150  208.6450  153.7310 C   0  0  0  0  0  0  0  0  0  0  0  0
  160.5730  204.1000  151.4880 C   0  0  0  0  0  3  0  0  0  0  0  0
  161.3550  207.3260  150.0930 C   0  0  0  0  0  0  0  0  0  0  0  0
  161.7180  209.5340  151.0520 C   0  0  0  0  0  3  0  0  0  0  0  0
  162.0280  209.6950  147.5290 O   0  0  0  0  0  0  0  0  0  0  0  0
  162.5590  205.8180  147.7540 C   0  0  1  0  0  3  0  0  0  0  0  0
  161.8390  209.2060  148.6800 C   0  0  0  0  0  0  0  0  0  0  0  0
  161.8430  204.7160  148.3810 N   0  0  0  0  0  0  0  0  0  0  0  0
  160.4890  203.7610  150.2080 C   0  0  0  0  0  0  0  0  0  0  0  0
  161.8960  210.0580  149.7810 C   0  0  0  0  0  0  0  0  0  0  0  0
  161.5930  207.8630  148.8340 N   0  0  0  0  0  0  0  0  0  0  0  0
  161.5010  207.9140  155.0360 C   0  0  0  0  0  3  0  0  0  0  0  0
  161.8980  203.5990  147.5080 C   0  0  0  0  0  3  0  0  0  0  0  0
  163.0200  205.2870  146.4000 C   0  0  0  0  0  2  0  0  0  0  0  0
  160.0130  209.4240  153.7950 C   0  0  0  0  0  1  0  0  0  0  0  0
  160.8950  205.4750  151.5880 N   0  0  0  0  0  0  0  0  0  0  0  0
  161.3630  206.5900  155.1470 C   0  0  0  0  0  3  0  0  0  0  0  0
  161.3060  207.7180  152.5250 C   0  0  0  0  0  0  0  0  0  0  0  0
  161.0290  206.0140  150.2870 C   0  0  0  0  0  0  0  0  0  0  0  0
  160.0760  202.4020  149.7640 C   0  0  0  0  0  1  0  0  0  0  0  0
  160.7170  204.9370  149.2880 C   0  0  1  0  0  3  0  0  0  0  0  0
  162.5640  203.8670  146.4030 C   0  0  0  0  0  3  0  0  0  0  0  0
  160.2990  206.8180  146.9810 C   0  0  0  0  0  1  0  0  0  0  0  0
  161.0910  205.7490  153.9700 C   0  0  0  0  0  3  0  0  0  0  0  0
  161.0670  206.2780  152.7450 C   0  0  2  0  0  3  0  0  0  0  0  0
  161.6720  207.0600  147.6000 C   0  0  2  0  0  3  0  0  0  0  0  0
  162.1420  211.4220  149.5960 O   0  0  0  0  0  0  0  0  0  0  0  0
  161.4840  213.1700  148.3060 C   0  0  0  0  0  1  0  0  0  0  0  0
  161.1150  212.3240  149.4250 N   0  0  0  0  0  2  0  0  0  0  0  0
  1 19  2  0  0  0  0
  2 16  1  0  0  0  0
  2 13  2  0  0  0  0
  3 17  1  0  0  0  0
  4 20  2  0  0  0  0
  4  1  1  0  0  0  0
  5  1  1  0  0  0  0
  6  8  2  0  0  0  0
  7 15  1  6  0  0  0
  7  9  1  0  0  0  0
  8 12  1  0  0  0  0
  8 11  1  0  0  0  0
  9 22  1  0  0  0  0
 10  3  2  0  0  0  0
 11  5  2  0  0  0  0
 12  4  1  0  0  0  0
 13 18  1  0  0  0  0
 14  9  1  0  0  0  0
 15 23  1  0  0  0  0
 17 26  1  0  0  0  0
 19 26  1  0  0  0  0
 19  2  1  0  0  0  0
 20 17  1  0  0  0  0
 21 10  1  0  0  0  0
 22 10  1  1  0  0  0
 22 20  1  0  0  0  0
 23 14  2  0  0  0  0
 25 18  2  0  0  0  0
 26 25  1  6  0  0  0
 27 24  1  1  0  0  0
 27  7  1  0  0  0  0
 27 12  1  0  0  0  0
 28 11  1  0  0  0  0
 29 30  1  0  0  0  0
 30 28  1  0  0  0  0
M  END
>  <MODEL>
1

>  <REMARK>
 VINA RESULT:      -6.7      0.000      0.000
  Name = 
  2 active torsions:
  status: ('A' for Active; 'I' for Inactive)
    1  A    between atoms: C_11  and  O_28
    2  A    between atoms: O_28  and  N_30
                            x       y       z     vdW  Elec       q    Type
                         _______ _______ _______ _____ _____    ______ ____

>  <TORSDO>
F 2

$$$$
=
 OpenBabel11122412383D

 30 35  0  0  1  0  0  0  0  0999 V2000
  161.4720  207.5310  151.3830 C   0  0  0  0  0  0  0  0  0  0  0  0
  161.7160  210.0390  151.1650 C   0  0  0  0  0  0  0  0  0  0  0  0
  162.3320  206.6300  147.3920 C   0  0  0  0  0  3  0  0  0  0  0  0
  161.5220  206.1860  150.8730 C   0  0  0  0  0  0  0  0  0  0  0  0
  161.2150  207.7160  152.7410 C   0  0  0  0  0  3  0  0  0  0  0  0
  160.7670  204.3820  153.8420 O   0  0  0  0  0  0  0  0  0  0  0  0
  160.2140  203.5790  150.0460 C   0  0  1  0  0  3  0  0  0  0  0  0
  160.9980  205.3500  153.0620 C   0  0  0  0  0  0  0  0  0  0  0  0
  160.9450  203.8570  148.8170 N   0  0  0  0  0  0  0  0  0  0  0  0
  162.3620  205.3040  147.4110 C   0  0  0  0  0  0  0  0  0  0  0  0
  160.9920  206.6410  153.5860 C   0  0  0  0  0  0  0  0  0  0  0  0
  161.2380  205.1280  151.7280 N   0  0  0  0  0  0  0  0  0  0  0  0
  161.5770  211.1070  150.1110 C   0  0  0  0  0  3  0  0  0  0  0  0
  160.8460  202.7180  147.9760 C   0  0  0  0  0  3  0  0  0  0  0  0
  159.6950  202.1510  149.8960 C   0  0  0  0  0  2  0  0  0  0  0  0
  163.0270  210.2580  151.9030 C   0  0  0  0  0  1  0  0  0  0  0  0
  162.0250  207.1090  148.6890 N   0  0  0  0  0  0  0  0  0  0  0  0
  161.7070  210.8520  148.8050 C   0  0  0  0  0  3  0  0  0  0  0  0
  161.6710  208.6290  150.5970 C   0  0  0  0  0  0  0  0  0  0  0  0
  161.8440  206.0070  149.5570 C   0  0  0  0  0  0  0  0  0  0  0  0
  162.7460  204.4950  146.2220 C   0  0  0  0  0  1  0  0  0  0  0  0
  162.1070  204.7430  148.7900 C   0  0  1  0  0  3  0  0  0  0  0  0
  160.1400  201.7540  148.5300 C   0  0  0  0  0  3  0  0  0  0  0  0
  162.4500  203.0110  151.2220 C   0  0  0  0  0  1  0  0  0  0  0  0
  161.9270  209.4830  148.3120 C   0  0  0  0  0  3  0  0  0  0  0  0
  161.9060  208.4450  149.1510 C   0  0  2  0  0  3  0  0  0  0  0  0
  161.1040  203.7280  151.2860 C   0  0  2  0  0  3  0  0  0  0  0  0
  160.7500  206.8400  154.9490 O   0  0  0  0  0  0  0  0  0  0  0  0
  161.6420  208.2000  156.5330 C   0  0  0  0  0  1  0  0  0  0  0  0
  160.6420  208.1040  155.4860 N   0  0  0  0  0  2  0  0  0  0  0  0
  1  5  1  0  0  0  0
  2 16  1  0  0  0  0
  3 10  2  0  0  0  0
  3 17  1  0  0  0  0
  4  1  1  0  0  0  0
  4 12  1  0  0  0  0
  5 11  2  0  0  0  0
  7 15  1  6  0  0  0
  7 27  1  0  0  0  0
  8 11  1  0  0  0  0
  8  6  2  0  0  0  0
  9  7  1  0  0  0  0
 11 28  1  0  0  0  0
 12  8  1  0  0  0  0
 13  2  2  0  0  0  0
 14 23  2  0  0  0  0
 14  9  1  0  0  0  0
 17 26  1  0  0  0  0
 17 20  1  0  0  0  0
 18 13  1  0  0  0  0
 19  2  1  0  0  0  0
 19  1  2  0  0  0  0
 20  4  2  0  0  0  0
 21 10  1  0  0  0  0
 22 10  1  6  0  0  0
 22  9  1  0  0  0  0
 22 20  1  0  0  0  0
 23 15  1  0  0  0  0
 25 18  2  0  0  0  0
 26 25  1  6  0  0  0
 26 19  1  0  0  0  0
 27 24  1  6  0  0  0
 27 12  1  0  0  0  0
 28 30  1  0  0  0  0
 30 29  1  0  0  0  0
M  END
>  <MODEL>
2

>  <REMARK>
 VINA RESULT:      -5.8      2.476      4.997
  Name = 
  2 active torsions:
  status: ('A' for Active; 'I' for Inactive)
    1  A    between atoms: C_11  and  O_28
    2  A    between atoms: O_28  and  N_30
                            x       y       z     vdW  Elec       q    Type
                         _______ _______ _______ _____ _____    ______ ____

>  <TORSDO>
F 2

$$$$
=
 OpenBabel11122412383D

 30 35  0  0  1  0  0  0  0  0999 V2000
  160.3110  209.4750  153.6940 C   0  0  0  0  0  0  0  0  0  0  0  0
  159.4200  211.4720  154.9660 C   0  0  0  0  0  0  0  0  0  0  0  0
  161.3350  211.5550  150.2160 C   0  0  0  0  0  3  0  0  0  0  0  0
  160.9290  208.8490  152.5550 C   0  0  0  0  0  0  0  0  0  0  0  0
  160.0490  208.6950  154.8200 C   0  0  0  0  0  3  0  0  0  0  0  0
  161.1520  205.5070  153.7490 O   0  0  0  0  0  0  0  0  0  0  0  0
  160.8710  207.0150  150.1420 C   0  0  1  0  0  3  0  0  0  0  0  0
  160.9050  206.7460  153.7160 C   0  0  0  0  0  0  0  0  0  0  0  0
  161.3610  208.2210  149.4890 N   0  0  0  0  0  0  0  0  0  0  0  0
  161.9460  210.6170  149.5040 C   0  0  0  0  0  0  0  0  0  0  0  0
  160.3510  207.3430  154.8470 C   0  0  0  0  0  0  0  0  0  0  0  0
  161.1710  207.4800  152.5860 N   0  0  0  0  0  0  0  0  0  0  0  0
  158.7880  212.8110  154.6800 C   0  0  0  0  0  3  0  0  0  0  0  0
  161.7420  207.8840  148.1650 C   0  0  0  0  0  3  0  0  0  0  0  0
  161.0280  205.9010  149.1090 C   0  0  0  0  0  2  0  0  0  0  0  0
  160.5270  211.6700  155.9880 C   0  0  0  0  0  1  0  0  0  0  0  0
  160.8960  211.0010  151.4430 N   0  0  0  0  0  0  0  0  0  0  0  0
  158.9700  213.4630  153.5280 C   0  0  0  0  0  3  0  0  0  0  0  0
  159.9790  210.7990  153.7210 C   0  0  0  0  0  0  0  0  0  0  0  0
  161.2490  209.6320  151.4830 C   0  0  0  0  0  0  0  0  0  0  0  0
  162.6030  210.9010  148.1990 C   0  0  0  0  0  1  0  0  0  0  0  0
  162.0130  209.2960  150.2350 C   0  0  1  0  0  3  0  0  0  0  0  0
  161.5520  206.6060  147.9050 C   0  0  0  0  0  3  0  0  0  0  0  0
  163.1700  206.7350  151.3010 C   0  0  0  0  0  1  0  0  0  0  0  0
  159.7510  212.8720  152.4300 C   0  0  0  0  0  3  0  0  0  0  0  0
  160.2180  211.6250  152.5210 C   0  0  2  0  0  3  0  0  0  0  0  0
  161.6500  206.7050  151.4260 C   0  0  2  0  0  3  0  0  0  0  0  0
  160.0960  206.5750  155.9870 O   0  0  0  0  0  0  0  0  0  0  0  0
  161.4450  207.8830  157.2610 C   0  0  0  0  0  1  0  0  0  0  0  0
  160.2240  207.0990  157.2550 N   0  0  0  0  0  2  0  0  0  0  0  0
  1 19  2  0  0  0  0
  1  5  1  0  0  0  0
  2 16  1  0  0  0  0
  3 17  1  0  0  0  0
  4 12  1  0  0  0  0
  4  1  1  0  0  0  0
  5 11  2  0  0  0  0
  7 15  1  6  0  0  0
  7 27  1  0  0  0  0
  8  6  2  0  0  0  0
  8 11  1  0  0  0  0
  9  7  1  0  0  0  0
  9 22  1  0  0  0  0
 10  3  2  0  0  0  0
 11 28  1  0  0  0  0
 12  8  1  0  0  0  0
 13  2  2  0  0  0  0
 14  9  1  0  0  0  0
 17 20  1  0  0  0  0
 17 26  1  0  0  0  0
 18 13  1  0  0  0  0
 19  2  1  0  0  0  0
 20  4  2  0  0  0  0
 21 10  1  0  0  0  0
 22 10  1  6  0  0  0
 22 20  1  0  0  0  0
 23 14  2  0  0  0  0
 23 15  1  0  0  0  0
 25 18  2  0  0  0  0
 26 25  1  6  0  0  0
 26 19  1  0  0  0  0
 27 24  1  6  0  0  0
 27 12  1  0  0  0  0
 28 30  1  0  0  0  0
 30 29  1  0  0  0  0
M  END
>  <MODEL>
3

>  <REMARK>
 VINA RESULT:      -5.7      2.982      5.801
  Name = 
  2 active torsions:
  status: ('A' for Active; 'I' for Inactive)
    1  A    between atoms: C_11  and  O_28
    2  A    between atoms: O_28  and  N_30
                            x       y       z     vdW  Elec       q    Type
                         _______ _______ _______ _____ _____    ______ ____

>  <TORSDO>
F 2

$$$$
=
 OpenBabel11122412383D

 30 35  0  0  1  0  0  0  0  0999 V2000
  161.5620  207.9550  149.8600 C   0  0  0  0  0  0  0  0  0  0  0  0
  161.6970  206.0140  148.2440 C   0  0  2  0  0  3  0  0  0  0  0  0
  160.9260  205.6590  153.2950 C   0  0  0  0  0  3  0  0  0  0  0  0
  161.4320  208.5250  151.1750 C   0  0  0  0  0  0  0  0  0  0  0  0
  161.8130  208.8110  148.7880 C   0  0  0  0  0  3  0  0  0  0  0  0
  161.8130  211.9700  150.3830 O   0  0  0  0  0  0  0  0  0  0  0  0
  159.9280  210.1130  153.2750 C   0  0  1  0  0  3  0  0  0  0  0  0
  161.7400  210.7160  150.2410 C   0  0  0  0  0  0  0  0  0  0  0  0
  160.1650  208.9000  154.0450 N   0  0  0  0  0  0  0  0  0  0  0  0
  160.9680  206.5780  154.2510 C   0  0  0  0  0  0  0  0  0  0  0  0
  161.9170  210.1810  148.9670 C   0  0  0  0  0  0  0  0  0  0  0  0
  161.4830  209.9070  151.3210 N   0  0  0  0  0  0  0  0  0  0  0  0
  161.1800  204.6040  148.1160 C   0  0  0  0  0  3  0  0  0  0  0  0
  159.7740  209.1440  155.3870 C   0  0  0  0  0  3  0  0  0  0  0  0
  159.3990  211.1350  154.2780 C   0  0  0  0  0  2  0  0  0  0  0  0
  163.1840  206.0120  147.9320 C   0  0  0  0  0  1  0  0  0  0  0  0
  161.1070  206.2840  152.0370 N   0  0  0  0  0  0  0  0  0  0  0  0
  160.8310  203.8660  149.1740 C   0  0  0  0  0  3  0  0  0  0  0  0
  161.4570  206.6160  149.6200 C   0  0  0  0  0  0  0  0  0  0  0  0
  161.2580  207.6770  152.2310 C   0  0  0  0  0  0  0  0  0  0  0  0
  160.9010  206.2330  155.6970 C   0  0  0  0  0  1  0  0  0  0  0  0
  161.2330  207.9610  153.7060 C   0  0  1  0  0  3  0  0  0  0  0  0
  159.3210  210.3700  155.5560 C   0  0  0  0  0  3  0  0  0  0  0  0
  162.4420  210.7030  153.4770 C   0  0  0  0  0  1  0  0  0  0  0  0
  160.8650  204.4190  150.5360 C   0  0  0  0  0  3  0  0  0  0  0  0
  161.1540  205.7060  150.7430 C   0  0  0  0  0  0  0  0  0  0  0  0
  161.2060  210.6100  152.5870 C   0  0  2  0  0  3  0  0  0  0  0  0
  162.1830  211.0260  147.8860 O   0  0  0  0  0  0  0  0  0  0  0  0
  161.8580  213.0540  146.9170 C   0  0  0  0  0  1  0  0  0  0  0  0
  161.2060  211.8280  147.3380 N   0  0  0  0  0  2  0  0  0  0  0  0
  1  4  1  0  0  0  0
  2 16  1  1  0  0  0
  2 19  1  0  0  0  0
  3 10  2  0  0  0  0
  4 12  1  0  0  0  0
  4 20  2  0  0  0  0
  5 11  2  0  0  0  0
  5  1  1  0  0  0  0
  7  9  1  0  0  0  0
  7 15  1  1  0  0  0
  8  6  2  0  0  0  0
  8 12  1  0  0  0  0
  9 14  1  0  0  0  0
 10 21  1  0  0  0  0
 11  8  1  0  0  0  0
 12 27  1  0  0  0  0
 13  2  1  0  0  0  0
 13 18  2  0  0  0  0
 14 23  2  0  0  0  0
 15 23  1  0  0  0  0
 17 20  1  0  0  0  0
 17  3  1  0  0  0  0
 18 25  1  0  0  0  0
 19  1  2  0  0  0  0
 19 26  1  0  0  0  0
 22 20  1  6  0  0  0
 22  9  1  0  0  0  0
 22 10  1  0  0  0  0
 25 26  2  0  0  0  0
 26 17  1  0  0  0  0
 27  7  1  0  0  0  0
 27 24  1  1  0  0  0
 28 11  1  0  0  0  0
 29 30  1  0  0  0  0
 30 28  1  0  0  0  0
M  END
>  <MODEL>
4

>  <REMARK>
 VINA RESULT:      -5.6      1.526      5.600
  Name = 
  2 active torsions:
  status: ('A' for Active; 'I' for Inactive)
    1  A    between atoms: C_11  and  O_28
    2  A    between atoms: O_28  and  N_30
                            x       y       z     vdW  Elec       q    Type
                         _______ _______ _______ _____ _____    ______ ____

>  <TORSDO>
F 2

$$$$
=
 OpenBabel11122412383D

 30 35  0  0  1  0  0  0  0  0999 V2000
  161.1150  205.7160  149.9320 C   0  0  0  0  0  0  0  0  0  0  0  0
  160.8080  203.2360  149.5450 C   0  0  2  0  0  3  0  0  0  0  0  0
  161.0900  205.5440  154.1090 C   0  0  0  0  0  3  0  0  0  0  0  0
  161.2920  206.8740  150.7680 C   0  0  0  0  0  0  0  0  0  0  0  0
  161.1810  205.8810  148.5490 C   0  0  0  0  0  3  0  0  0  0  0  0
  161.6790  209.3740  148.2710 O   0  0  0  0  0  0  0  0  0  0  0  0
  160.3450  209.4990  151.9540 C   0  0  1  0  0  3  0  0  0  0  0  0
  161.5130  208.2410  148.8070 C   0  0  0  0  0  0  0  0  0  0  0  0
  160.6730  208.8050  153.1910 N   0  0  0  0  0  0  0  0  0  0  0  0
  161.3790  206.7970  154.4370 C   0  0  0  0  0  0  0  0  0  0  0  0
  161.3910  207.1270  147.9800 C   0  0  0  0  0  0  0  0  0  0  0  0
  161.4450  208.1210  150.1730 N   0  0  0  0  0  0  0  0  0  0  0  0
  160.2020  202.0440  150.2410 C   0  0  0  0  0  3  0  0  0  0  0  0
  160.5840  209.7360  154.2580 C   0  0  0  0  0  3  0  0  0  0  0  0
  160.0910  210.9500  152.3560 C   0  0  0  0  0  2  0  0  0  0  0  0
  162.1950  202.8550  149.0560 C   0  0  0  0  0  1  0  0  0  0  0  0
  161.0370  205.4310  152.6980 N   0  0  0  0  0  0  0  0  0  0  0  0
  160.0430  201.9880  151.5670 C   0  0  0  0  0  3  0  0  0  0  0  0
  160.8920  204.4670  150.4340 C   0  0  0  0  0  0  0  0  0  0  0  0
  161.2980  206.6960  152.1230 C   0  0  0  0  0  0  0  0  0  0  0  0
  161.5970  207.2270  155.8450 C   0  0  0  0  0  1  0  0  0  0  0  0
  161.5960  207.6720  153.2250 C   0  0  1  0  0  3  0  0  0  0  0  0
  160.2420  210.9380  153.8390 C   0  0  0  0  0  3  0  0  0  0  0  0
  162.8730  209.7230  151.4370 C   0  0  0  0  0  1  0  0  0  0  0  0
  160.3890  203.1300  152.4270 C   0  0  0  0  0  3  0  0  0  0  0  0
  160.7830  204.2890  151.8960 C   0  0  0  0  0  0  0  0  0  0  0  0
  161.4750  209.3900  150.9230 C   0  0  2  0  0  3  0  0  0  0  0  0
  161.4700  207.2760  146.5910 O   0  0  0  0  0  0  0  0  0  0  0  0
  160.3900  206.0000  145.0550 C   0  0  0  0  0  1  0  0  0  0  0  0
  161.6450  206.1930  145.7580 N   0  0  0  0  0  2  0  0  0  0  0  0
  1 19  2  0  0  0  0
  1  4  1  0  0  0  0
  2 16  1  1  0  0  0
  2 13  1  0  0  0  0
  2 19  1  0  0  0  0
  3 10  2  0  0  0  0
  4 20  2  0  0  0  0
  5  1  1  0  0  0  0
  6  8  2  0  0  0  0
  7 15  1  1  0  0  0
  7  9  1  0  0  0  0
  8 12  1  0  0  0  0
  9 22  1  0  0  0  0
  9 14  1  0  0  0  0
 10 21  1  0  0  0  0
 11  5  2  0  0  0  0
 11  8  1  0  0  0  0
 12  4  1  0  0  0  0
 12 27  1  0  0  0  0
 13 18  2  0  0  0  0
 15 23  1  0  0  0  0
 17  3  1  0  0  0  0
 18 25  1  0  0  0  0
 19 26  1  0  0  0  0
 20 17  1  0  0  0  0
 22 20  1  6  0  0  0
 22 10  1  0  0  0  0
 23 14  2  0  0  0  0
 26 25  2  0  0  0  0
 26 17  1  0  0  0  0
 27 24  1  1  0  0  0
 27  7  1  0  0  0  0
 28 11  1  0  0  0  0
 29 30  1  0  0  0  0
 30 28  1  0  0  0  0
M  END
>  <MODEL>
5

>  <REMARK>
 VINA RESULT:      -5.3      1.791      5.646
  Name = 
  2 active torsions:
  status: ('A' for Active; 'I' for Inactive)
    1  A    between atoms: C_11  and  O_28
    2  A    between atoms: O_28  and  N_30
                            x       y       z     vdW  Elec       q    Type
                         _______ _______ _______ _____ _____    ______ ____

>  <TORSDO>
F 2

$$$$
=
 OpenBabel11122412383D

 30 35  0  0  1  0  0  0  0  0999 V2000
  161.2500  208.4380  151.9560 C   0  0  0  0  0  0  0  0  0  0  0  0
  161.9760  208.2160  149.5430 C   0  0  2  0  0  3  0  0  0  0  0  0
  160.1960  212.4780  151.7560 C   0  0  0  0  0  3  0  0  0  0  0  0
  160.7060  209.1650  153.0720 C   0  0  0  0  0  0  0  0  0  0  0  0
  161.5300  207.0810  152.1210 C   0  0  0  0  0  3  0  0  0  0  0  0
  160.6620  206.5830  155.5150 O   0  0  0  0  0  0  0  0  0  0  0  0
  160.9480  210.4820  155.7920 C   0  0  1  0  0  3  0  0  0  0  0  0
  160.8300  207.1760  154.4120 C   0  0  0  0  0  0  0  0  0  0  0  0
  160.4020  211.6090  155.0500 N   0  0  0  0  0  0  0  0  0  0  0  0
  159.6660  212.6830  152.9550 C   0  0  0  0  0  0  0  0  0  0  0  0
  161.3130  206.4420  153.3310 C   0  0  0  0  0  0  0  0  0  0  0  0
  160.5510  208.5150  154.2910 N   0  0  0  0  0  0  0  0  0  0  0  0
  162.5300  209.0800  148.4390 C   0  0  0  0  0  3  0  0  0  0  0  0
  160.0810  212.6350  155.9770 C   0  0  0  0  0  3  0  0  0  0  0  0
  160.8920  210.8950  157.2610 C   0  0  0  0  0  2  0  0  0  0  0  0
  160.8310  207.3910  148.9800 C   0  0  0  0  0  1  0  0  0  0  0  0
  160.6330  211.1340  151.6620 N   0  0  0  0  0  0  0  0  0  0  0  0
  162.3400  210.4020  148.3950 C   0  0  0  0  0  3  0  0  0  0  0  0
  161.4970  209.0160  150.7440 C   0  0  0  0  0  0  0  0  0  0  0  0
  160.3670  210.4750  152.8840 C   0  0  0  0  0  0  0  0  0  0  0  0
  159.0290  213.9720  153.3410 C   0  0  0  0  0  1  0  0  0  0  0  0
  159.6620  211.4320  153.8020 C   0  0  1  0  0  3  0  0  0  0  0  0
  160.3590  212.2870  157.2170 C   0  0  0  0  0  3  0  0  0  0  0  0
  158.6400  209.3140  155.6740 C   0  0  0  0  0  1  0  0  0  0  0  0
  161.6300  211.1090  149.4720 C   0  0  0  0  0  3  0  0  0  0  0  0
  161.2400  210.4600  150.5710 C   0  0  0  0  0  0  0  0  0  0  0  0
  160.1550  209.1940  155.5390 C   0  0  2  0  0  3  0  0  0  0  0  0
  161.5840  205.0780  153.4780 O   0  0  0  0  0  0  0  0  0  0  0  0
  161.5820  203.7140  151.6630 C   0  0  0  0  0  1  0  0  0  0  0  0
  160.8310  204.1190  152.8370 N   0  0  0  0  0  2  0  0  0  0  0  0
  1  5  1  0  0  0  0
  1  4  1  0  0  0  0
  2 16  1  6  0  0  0
  2 19  1  0  0  0  0
  3 10  2  0  0  0  0
  4 12  1  0  0  0  0
  5 11  2  0  0  0  0
  7 15  1  1  0  0  0
  8  6  2  0  0  0  0
  9  7  1  0  0  0  0
  9 14  1  0  0  0  0
 10 21  1  0  0  0  0
 10 22  1  0  0  0  0
 11 28  1  0  0  0  0
 11  8  1  0  0  0  0
 12  8  1  0  0  0  0
 12 27  1  0  0  0  0
 13  2  1  0  0  0  0
 14 23  2  0  0  0  0
 17  3  1  0  0  0  0
 17 20  1  0  0  0  0
 18 13  2  0  0  0  0
 18 25  1  0  0  0  0
 19  1  2  0  0  0  0
 20  4  2  0  0  0  0
 22 20  1  6  0  0  0
 22  9  1  0  0  0  0
 23 15  1  0  0  0  0
 25 26  2  0  0  0  0
 26 19  1  0  0  0  0
 26 17  1  0  0  0  0
 27 24  1  6  0  0  0
 27  7  1  0  0  0  0
 29 30  1  0  0  0  0
 30 28  1  0  0  0  0
M  END
>  <MODEL>
6

>  <REMARK>
 VINA RESULT:      -5.0      3.182      8.012
  Name = 
  2 active torsions:
  status: ('A' for Active; 'I' for Inactive)
    1  A    between atoms: C_11  and  O_28
    2  A    between atoms: O_28  and  N_30
                            x       y       z     vdW  Elec       q    Type
                         _______ _______ _______ _____ _____    ______ ____

>  <TORSDO>
F 2

$$$$
=
 OpenBabel11122412383D

 30 35  0  0  1  0  0  0  0  0999 V2000
  161.6270  207.5870  151.2260 C   0  0  0  0  0  0  0  0  0  0  0  0
  162.2000  207.9020  148.7830 C   0  0  2  0  0  3  0  0  0  0  0  0
  160.6690  211.5810  152.0010 C   0  0  0  0  0  3  0  0  0  0  0  0
  161.1700  208.0520  152.5090 C   0  0  0  0  0  0  0  0  0  0  0  0
  161.8800  206.2240  151.0660 C   0  0  0  0  0  3  0  0  0  0  0  0
  161.2050  204.9880  154.3130 O   0  0  0  0  0  0  0  0  0  0  0  0
  161.6100  208.7220  155.4340 C   0  0  1  0  0  3  0  0  0  0  0  0
  161.3220  205.8110  153.3610 C   0  0  0  0  0  0  0  0  0  0  0  0
  161.0500  209.9940  154.9980 N   0  0  0  0  0  0  0  0  0  0  0  0
  160.2180  211.5180  153.2480 C   0  0  0  0  0  0  0  0  0  0  0  0
  161.7190  205.3320  152.1150 C   0  0  0  0  0  0  0  0  0  0  0  0
  161.0710  207.1470  153.5610 N   0  0  0  0  0  0  0  0  0  0  0  0
  162.7100  208.9850  147.8670 C   0  0  0  0  0  3  0  0  0  0  0  0
  160.8120  210.7890  156.1490 C   0  0  0  0  0  3  0  0  0  0  0  0
  161.6530  208.7960  156.9580 C   0  0  0  0  0  2  0  0  0  0  0  0
  161.0020  207.2390  148.1260 C   0  0  0  0  0  1  0  0  0  0  0  0
  161.0650  210.2880  151.5820 N   0  0  0  0  0  0  0  0  0  0  0  0
  162.5520  210.2860  148.1300 C   0  0  0  0  0  3  0  0  0  0  0  0
  161.8150  208.4190  150.1610 C   0  0  0  0  0  0  0  0  0  0  0  0
  160.8550  209.3740  152.6410 C   0  0  0  0  0  0  0  0  0  0  0  0
  159.6400  212.6960  153.9510 C   0  0  0  0  0  1  0  0  0  0  0  0
  160.2310  210.1100  153.7920 C   0  0  1  0  0  3  0  0  0  0  0  0
  161.1550  210.1690  157.2600 C   0  0  0  0  0  3  0  0  0  0  0  0
  159.2690  207.6390  155.2070 C   0  0  0  0  0  1  0  0  0  0  0  0
  161.9270  210.7410  149.3820 C   0  0  0  0  0  3  0  0  0  0  0  0
  161.5860  209.8670  150.3310 C   0  0  0  0  0  0  0  0  0  0  0  0
  160.7690  207.5340  154.9510 C   0  0  2  0  0  3  0  0  0  0  0  0
  161.9620  203.9670  151.9370 O   0  0  0  0  0  0  0  0  0  0  0  0
  160.8190  202.9800  150.2420 C   0  0  0  0  0  1  0  0  0  0  0  0
  160.9400  203.0780  151.6840 N   0  0  0  0  0  2  0  0  0  0  0  0
  1  4  1  0  0  0  0
  2 16  1  6  0  0  0
  2 19  1  0  0  0  0
  3 10  2  0  0  0  0
  4 20  2  0  0  0  0
  4 12  1  0  0  0  0
  5  1  1  0  0  0  0
  5 11  2  0  0  0  0
  7 15  1  1  0  0  0
  8 12  1  0  0  0  0
  8  6  2  0  0  0  0
  9  7  1  0  0  0  0
  9 14  1  0  0  0  0
 10 22  1  0  0  0  0
 10 21  1  0  0  0  0
 11  8  1  0  0  0  0
 12 27  1  0  0  0  0
 13 18  2  0  0  0  0
 13  2  1  0  0  0  0
 14 23  2  0  0  0  0
 15 23  1  0  0  0  0
 17  3  1  0  0  0  0
 17 20  1  0  0  0  0
 18 25  1  0  0  0  0
 19 26  1  0  0  0  0
 19  1  2  0  0  0  0
 22 20  1  6  0  0  0
 22  9  1  0  0  0  0
 25 26  2  0  0  0  0
 26 17  1  0  0  0  0
 27 24  1  6  0  0  0
 27  7  1  0  0  0  0
 28 11  1  0  0  0  0
 29 30  1  0  0  0  0
 30 28  1  0  0  0  0
M  END
>  <MODEL>
7

>  <REMARK>
 VINA RESULT:      -4.8      2.810      7.527
  Name = 
  2 active torsions:
  status: ('A' for Active; 'I' for Inactive)
    1  A    between atoms: C_11  and  O_28
    2  A    between atoms: O_28  and  N_30
                            x       y       z     vdW  Elec       q    Type
                         _______ _______ _______ _____ _____    ______ ____

>  <TORSDO>
F 2

$$$$
=
 OpenBabel11122412383D

 30 35  0  0  1  0  0  0  0  0999 V2000
  161.4850  210.7330  150.0700 C   0  0  0  0  0  0  0  0  0  0  0  0
  161.6080  212.0020  147.8850 C   0  0  2  0  0  3  0  0  0  0  0  0
  159.5800  213.7460  152.2530 C   0  0  0  0  0  3  0  0  0  0  0  0
  161.0980  210.5820  151.4480 C   0  0  0  0  0  0  0  0  0  0  0  0
  162.0790  209.6490  149.4250 C   0  0  0  0  0  3  0  0  0  0  0  0
  162.2220  207.2600  152.0330 O   0  0  0  0  0  0  0  0  0  0  0  0
  161.7340  210.3440  154.4030 C   0  0  1  0  0  3  0  0  0  0  0  0
  161.9770  208.3470  151.4350 C   0  0  0  0  0  0  0  0  0  0  0  0
  160.7910  211.4520  154.4690 N   0  0  0  0  0  0  0  0  0  0  0  0
  159.3390  213.1390  153.4070 C   0  0  0  0  0  0  0  0  0  0  0  0
  162.3150  208.4550  150.0880 C   0  0  0  0  0  0  0  0  0  0  0  0
  161.3980  209.3960  152.1080 N   0  0  0  0  0  0  0  0  0  0  0  0
  161.6690  213.4280  147.4020 C   0  0  0  0  0  3  0  0  0  0  0  0
  160.5040  211.7060  155.8350 C   0  0  0  0  0  3  0  0  0  0  0  0
  161.9630  209.9170  155.8500 C   0  0  0  0  0  2  0  0  0  0  0  0
  160.5600  211.2610  147.0710 C   0  0  0  0  0  1  0  0  0  0  0  0
  160.2550  212.8530  151.3860 N   0  0  0  0  0  0  0  0  0  0  0  0
  161.1970  214.4530  148.1180 C   0  0  0  0  0  3  0  0  0  0  0  0
  161.2890  211.8870  149.3680 C   0  0  0  0  0  0  0  0  0  0  0  0
  160.4530  211.6220  152.0540 C   0  0  0  0  0  0  0  0  0  0  0  0
  158.5610  213.7790  154.5030 C   0  0  0  0  0  1  0  0  0  0  0  0
  159.8150  211.7050  153.4110 C   0  0  1  0  0  3  0  0  0  0  0  0
  161.1530  210.8890  156.6390 C   0  0  0  0  0  3  0  0  0  0  0  0
  159.7730  208.7360  153.8760 C   0  0  0  0  0  1  0  0  0  0  0  0
  160.6480  214.2520  149.4690 C   0  0  0  0  0  3  0  0  0  0  0  0
  160.6960  213.0530  150.0520 C   0  0  0  0  0  0  0  0  0  0  0  0
  161.1950  209.1860  153.5530 C   0  0  2  0  0  3  0  0  0  0  0  0
  162.8980  207.3710  149.4260 O   0  0  0  0  0  0  0  0  0  0  0  0
  161.4660  206.0060  148.3120 C   0  0  0  0  0  1  0  0  0  0  0  0
  162.5070  207.0050  148.1560 N   0  0  0  0  0  2  0  0  0  0  0  0
  1  4  1  0  0  0  0
  2 16  1  6  0  0  0
  2 19  1  0  0  0  0
  3 10  2  0  0  0  0
  4 20  2  0  0  0  0
  4 12  1  0  0  0  0
  5  1  1  0  0  0  0
  5 11  2  0  0  0  0
  7  9  1  0  0  0  0
  7 15  1  1  0  0  0
  8  6  2  0  0  0  0
  8 12  1  0  0  0  0
  9 14  1  0  0  0  0
 10 22  1  0  0  0  0
 10 21  1  0  0  0  0
 11  8  1  0  0  0  0
 12 27  1  0  0  0  0
 13  2  1  0  0  0  0
 13 18  2  0  0  0  0
 14 23  2  0  0  0  0
 15 23  1  0  0  0  0
 17 20  1  0  0  0  0
 17  3  1  0  0  0  0
 18 25  1  0  0  0  0
 19 26  1  0  0  0  0
 19  1  2  0  0  0  0
 22 20  1  6  0  0  0
 22  9  1  0  0  0  0
 25 26  2  0  0  0  0
 26 17  1  0  0  0  0
 27 24  1  6  0  0  0
 27  7  1  0  0  0  0
 28 11  1  0  0  0  0
 30 29  1  0  0  0  0
 30 28  1  0  0  0  0
M  END
>  <MODEL>
8

>  <REMARK>
 VINA RESULT:      -4.2      2.610      7.722
  Name = 
  2 active torsions:
  status: ('A' for Active; 'I' for Inactive)
    1  A    between atoms: C_11  and  O_28
    2  A    between atoms: O_28  and  N_30
                            x       y       z     vdW  Elec       q    Type
                         _______ _______ _______ _____ _____    ______ ____

>  <TORSDO>
F 2

$$$$
