=
 OpenBabel11122414073D

 28 32  0  0  1  0  0  0  0  0999 V2000
  161.2230  208.6160  155.4120 C   0  0  0  0  0  0  0  0  0  0  0  0
  158.7350  211.2570  155.2110 O   0  0  0  0  0  0  0  0  0  0  0  0
  161.3480  208.6460  149.0720 O   0  0  0  0  0  0  0  0  0  0  0  0
  163.0340  210.3670  156.6410 C   0  0  0  0  0  3  0  0  0  0  0  0
  161.9910  210.7240  150.0790 C   0  0  0  0  0  0  0  0  0  0  0  0
  160.3300  207.6110  154.7600 C   0  0  0  0  0  2  0  0  0  0  0  0
  159.1710  213.5810  154.5790 O   0  0  0  0  0  0  0  0  0  0  0  0
  159.0700  212.1720  154.0660 S   0  0  0  0  0  0  0  0  0  0  0  0
  158.6240  212.7140  151.3500 C   0  0  2  0  0  3  0  0  0  0  0  0
  160.6470  211.6960  153.3560 C   0  0  2  0  0  3  0  0  0  0  0  0
  162.2410  206.0000  152.0880 O   0  0  0  0  0  0  0  0  0  0  0  0
  161.9520  209.9280  152.3350 C   0  0  2  0  0  3  0  0  0  0  0  0
  159.6660  211.7370  151.0940 N   0  0  0  0  0  2  0  0  0  0  0  0
  157.5360  212.0760  152.6500 S   0  0  0  0  0  0  0  0  0  0  0  0
  161.3940  206.7590  152.6270 C   0  0  0  0  0  0  0  0  0  0  0  0
  161.5440  209.8390  154.7880 C   0  0  0  0  0  0  0  0  0  0  0  0
  161.6070  209.3400  150.0910 C   0  0  0  0  0  0  0  0  0  0  0  0
  157.8180  212.9280  150.0860 C   0  0  0  0  0  1  0  0  0  0  0  0
  160.6510  207.7420  151.7850 C   0  0  0  0  0  2  0  0  0  0  0  0
  162.4660  210.7010  155.4100 C   0  0  0  0  0  3  0  0  0  0  0  0
  161.8010  208.2890  156.6430 C   0  0  0  0  0  3  0  0  0  0  0  0
  162.6980  209.1630  157.2600 C   0  0  0  0  0  3  0  0  0  0  0  0
  161.1390  206.6470  154.0280 N   0  0  0  0  0  2  0  0  0  0  0  0
  162.0540  211.2200  151.4870 C   0  0  2  0  0  3  0  0  0  0  0  0
  161.5060  208.8650  151.4210 N   0  0  0  0  0  0  0  0  0  0  0  0
  160.8460  212.0830  151.8940 C   0  0  2  0  0  3  0  0  0  0  0  0
  162.1890  211.4190  149.0490 O   0  0  0  0  0  0  0  0  0  0  0  0
  160.9490  210.2070  153.4510 C   0  0  1  0  0  3  0  0  0  0  0  0
  1 21  1  0  0  0  0
  3 17  2  0  0  0  0
  4 22  1  0  0  0  0
  5 17  1  0  0  0  0
  6  1  1  0  0  0  0
  8  7  2  0  0  0  0
  8  2  2  0  0  0  0
  9 18  1  6  0  0  0
  9 14  1  0  0  0  0
 10 28  1  0  0  0  0
 10  8  1  6  0  0  0
 11 15  2  0  0  0  0
 12 25  1  6  0  0  0
 12 28  1  0  0  0  0
 13  9  1  0  0  0  0
 14  8  1  0  0  0  0
 15 23  1  0  0  0  0
 16 20  1  0  0  0  0
 16  1  2  0  0  0  0
 17 25  1  0  0  0  0
 19 15  1  0  0  0  0
 20  4  2  0  0  0  0
 21 22  2  0  0  0  0
 23  6  1  0  0  0  0
 24  5  1  6  0  0  0
 24 26  1  0  0  0  0
 24 12  1  0  0  0  0
 25 19  1  0  0  0  0
 26 13  1  6  0  0  0
 26 10  1  0  0  0  0
 27  5  2  0  0  0  0
 28 16  1  1  0  0  0
M  END
>  <MODEL>
1

>  <REMARK>
 VINA RESULT:      -3.0      0.000      0.000
  Name = 
  0 active torsions:
  status: ('A' for Active; 'I' for Inactive)
                            x       y       z     vdW  Elec       q    Type
                         _______ _______ _______ _____ _____    ______ ____

>  <TORSDO>
F 0

$$$$
=
 OpenBabel11122414073D

 28 32  0  0  1  0  0  0  0  0999 V2000
  160.7910  212.5230  148.2680 C   0  0  0  0  0  0  0  0  0  0  0  0
  161.1450  208.9570  147.6680 O   0  0  0  0  0  0  0  0  0  0  0  0
  159.5680  211.0900  154.3240 O   0  0  0  0  0  0  0  0  0  0  0  0
  163.5000  212.9280  147.6700 C   0  0  0  0  0  3  0  0  0  0  0  0
  161.7350  210.3990  153.5660 C   0  0  0  0  0  0  0  0  0  0  0  0
  159.3410  212.4070  148.6070 C   0  0  0  0  0  2  0  0  0  0  0  0
  163.0220  207.5670  148.4000 O   0  0  0  0  0  0  0  0  0  0  0  0
  161.8010  208.3130  148.8580 S   0  0  0  0  0  0  0  0  0  0  0  0
  161.3550  206.9930  151.2930 C   0  0  2  0  0  3  0  0  0  0  0  0
  162.2940  209.5770  150.0300 C   0  0  2  0  0  3  0  0  0  0  0  0
  158.7900  214.1990  151.7490 O   0  0  0  0  0  0  0  0  0  0  0  0
  161.5880  211.4360  151.4160 C   0  0  2  0  0  3  0  0  0  0  0  0
  161.2320  208.3200  151.8670 N   0  0  0  0  0  2  0  0  0  0  0  0
  160.4620  206.9570  149.7180 S   0  0  0  0  0  0  0  0  0  0  0  0
  158.9320  213.2210  150.9690 C   0  0  0  0  0  0  0  0  0  0  0  0
  161.7770  211.7880  148.9590 C   0  0  0  0  0  0  0  0  0  0  0  0
  160.4620  211.0520  153.4370 C   0  0  0  0  0  0  0  0  0  0  0  0
  160.7410  205.9810  152.2370 C   0  0  0  0  0  1  0  0  0  0  0  0
  159.0200  211.8410  151.5310 C   0  0  0  0  0  2  0  0  0  0  0  0
  163.1320  212.0130  148.6580 C   0  0  0  0  0  3  0  0  0  0  0  0
  161.1700  213.4420  147.2840 C   0  0  0  0  0  3  0  0  0  0  0  0
  162.5180  213.6400  146.9800 C   0  0  0  0  0  3  0  0  0  0  0  0
  158.9810  213.4480  149.5600 N   0  0  0  0  0  2  0  0  0  0  0  0
  162.4390  210.4460  152.2490 C   0  0  2  0  0  3  0  0  0  0  0  0
  160.3230  211.6120  152.1440 N   0  0  0  0  0  0  0  0  0  0  0  0
  162.4040  209.1140  151.4800 C   0  0  2  0  0  3  0  0  0  0  0  0
  162.1630  209.8320  154.6050 O   0  0  0  0  0  0  0  0  0  0  0  0
  161.3950  210.8050  150.0390 C   0  0  1  0  0  3  0  0  0  0  0  0
  1  6  1  0  0  0  0
  1 16  1  0  0  0  0
  2  8  2  0  0  0  0
  4 20  1  0  0  0  0
  5 27  2  0  0  0  0
  6 23  1  0  0  0  0
  7  8  2  0  0  0  0
  8 14  1  0  0  0  0
  9 13  1  0  0  0  0
  9 18  1  1  0  0  0
 10  8  1  6  0  0  0
 10 28  1  0  0  0  0
 10 26  1  0  0  0  0
 12 25  1  1  0  0  0
 12 24  1  0  0  0  0
 14  9  1  0  0  0  0
 15 19  1  0  0  0  0
 15 11  2  0  0  0  0
 17  5  1  0  0  0  0
 17  3  2  0  0  0  0
 19 25  1  0  0  0  0
 20 16  2  0  0  0  0
 21  1  2  0  0  0  0
 22 21  1  0  0  0  0
 22  4  2  0  0  0  0
 23 15  1  0  0  0  0
 24  5  1  1  0  0  0
 25 17  1  0  0  0  0
 26 13  1  1  0  0  0
 26 24  1  0  0  0  0
 28 16  1  6  0  0  0
 28 12  1  0  0  0  0
M  END
>  <MODEL>
2

>  <REMARK>
 VINA RESULT:      -1.4      2.732      6.766
  Name = 
  0 active torsions:
  status: ('A' for Active; 'I' for Inactive)
                            x       y       z     vdW  Elec       q    Type
                         _______ _______ _______ _____ _____    ______ ____

>  <TORSDO>
F 0

$$$$
=
 OpenBabel11122414073D

 28 32  0  0  1  0  0  0  0  0999 V2000
  160.4830  212.8810  147.0680 C   0  0  0  0  0  0  0  0  0  0  0  0
  161.8880  210.2910  149.1940 O   0  0  0  0  0  0  0  0  0  0  0  0
  156.0880  213.7740  151.5510 O   0  0  0  0  0  0  0  0  0  0  0  0
  162.8040  214.4270  147.3590 C   0  0  0  0  0  3  0  0  0  0  0  0
  158.3360  214.1710  152.2830 C   0  0  0  0  0  0  0  0  0  0  0  0
  159.2080  212.1330  146.8570 C   0  0  0  0  0  2  0  0  0  0  0  0
  163.1370  210.6680  151.2650 O   0  0  0  0  0  0  0  0  0  0  0  0
  161.7740  210.7100  150.6340 S   0  0  0  0  0  0  0  0  0  0  0  0
  160.2010  210.5670  152.9510 C   0  0  2  0  0  3  0  0  0  0  0  0
  161.1410  212.3860  150.7240 C   0  0  2  0  0  3  0  0  0  0  0  0
  156.4470  214.4420  147.5110 O   0  0  0  0  0  0  0  0  0  0  0  0
  159.3470  213.9040  150.1320 C   0  0  2  0  0  3  0  0  0  0  0  0
  159.4660  211.6870  152.3920 N   0  0  0  0  0  2  0  0  0  0  0  0
  160.5230  209.3680  151.6340 S   0  0  0  0  0  0  0  0  0  0  0  0
  157.2510  213.4940  147.7080 C   0  0  0  0  0  0  0  0  0  0  0  0
  160.9490  213.2070  148.3590 C   0  0  0  0  0  0  0  0  0  0  0  0
  157.3210  213.8670  151.3120 C   0  0  0  0  0  0  0  0  0  0  0  0
  159.3660  209.9110  154.0300 C   0  0  0  0  0  1  0  0  0  0  0  0
  157.2610  212.8050  149.0320 C   0  0  0  0  0  2  0  0  0  0  0  0
  162.1060  213.9950  148.4880 C   0  0  0  0  0  3  0  0  0  0  0  0
  161.1870  213.3230  145.9420 C   0  0  0  0  0  3  0  0  0  0  0  0
  162.3460  214.0880  146.0860 C   0  0  0  0  0  3  0  0  0  0  0  0
  158.1190  213.0780  146.6530 N   0  0  0  0  0  2  0  0  0  0  0  0
  159.6770  214.0340  151.6400 C   0  0  2  0  0  3  0  0  0  0  0  0
  157.9050  213.6330  150.0440 N   0  0  0  0  0  0  0  0  0  0  0  0
  160.4170  212.7390  152.0190 C   0  0  2  0  0  3  0  0  0  0  0  0
  158.1290  214.4530  153.4920 O   0  0  0  0  0  0  0  0  0  0  0  0
  160.1980  212.7580  149.5890 C   0  0  1  0  0  3  0  0  0  0  0  0
  1 16  1  0  0  0  0
  2  8  2  0  0  0  0
  4 20  1  0  0  0  0
  5 27  2  0  0  0  0
  6  1  1  0  0  0  0
  8  7  2  0  0  0  0
  8 14  1  0  0  0  0
  9 18  1  1  0  0  0
 10  8  1  1  0  0  0
 10 26  1  0  0  0  0
 11 15  2  0  0  0  0
 12 25  1  1  0  0  0
 12 24  1  0  0  0  0
 13  9  1  0  0  0  0
 14  9  1  0  0  0  0
 15 19  1  0  0  0  0
 16 20  2  0  0  0  0
 17  3  2  0  0  0  0
 17  5  1  0  0  0  0
 19 25  1  0  0  0  0
 21 22  1  0  0  0  0
 21  1  2  0  0  0  0
 22  4  2  0  0  0  0
 23  6  1  0  0  0  0
 23 15  1  0  0  0  0
 24 26  1  0  0  0  0
 24  5  1  1  0  0  0
 25 17  1  0  0  0  0
 26 13  1  6  0  0  0
 28 16  1  6  0  0  0
 28 12  1  0  0  0  0
 28 10  1  0  0  0  0
M  END
>  <MODEL>
3

>  <REMARK>
 VINA RESULT:      -1.3      3.284      7.277
  Name = 
  0 active torsions:
  status: ('A' for Active; 'I' for Inactive)
                            x       y       z     vdW  Elec       q    Type
                         _______ _______ _______ _____ _____    ______ ____

>  <TORSDO>
F 0

$$$$
=
 OpenBabel11122414073D

 28 32  0  0  1  0  0  0  0  0999 V2000
  161.0510  209.1130  155.4230 C   0  0  0  0  0  0  0  0  0  0  0  0
  157.8580  210.4130  156.5710 O   0  0  0  0  0  0  0  0  0  0  0  0
  159.8250  211.8390  149.8300 O   0  0  0  0  0  0  0  0  0  0  0  0
  162.4110  210.7360  157.2600 C   0  0  0  0  0  3  0  0  0  0  0  0
  159.9550  213.3740  151.6670 C   0  0  0  0  0  0  0  0  0  0  0  0
  160.4170  208.2150  154.4110 C   0  0  0  0  0  2  0  0  0  0  0  0
  157.3730  212.7560  157.0810 O   0  0  0  0  0  0  0  0  0  0  0  0
  157.6290  211.7730  155.9740 S   0  0  0  0  0  0  0  0  0  0  0  0
  156.4710  213.1830  153.8440 C   0  0  2  0  0  3  0  0  0  0  0  0
  159.0890  212.2850  155.0660 C   0  0  2  0  0  3  0  0  0  0  0  0
  162.1410  208.7430  151.2280 O   0  0  0  0  0  0  0  0  0  0  0  0
  160.6510  211.7600  153.2900 C   0  0  2  0  0  3  0  0  0  0  0  0
  157.6950  212.8880  153.1230 N   0  0  0  0  0  2  0  0  0  0  0  0
  155.9480  211.6960  154.7340 S   0  0  0  0  0  0  0  0  0  0  0  0
  161.2260  208.8160  152.0890 C   0  0  0  0  0  0  0  0  0  0  0  0
  160.8200  210.5040  155.4310 C   0  0  0  0  0  0  0  0  0  0  0  0
  160.0520  212.0820  151.0450 C   0  0  0  0  0  0  0  0  0  0  0  0
  155.3930  213.5790  152.8570 C   0  0  0  0  0  1  0  0  0  0  0  0
  160.0450  209.6920  151.8320 C   0  0  0  0  0  2  0  0  0  0  0  0
  161.5200  211.3070  156.3490 C   0  0  0  0  0  3  0  0  0  0  0  0
  161.9490  208.5510  156.3370 C   0  0  0  0  0  3  0  0  0  0  0  0
  162.6230  209.3570  157.2570 C   0  0  0  0  0  3  0  0  0  0  0  0
  161.3220  208.0400  153.2840 N   0  0  0  0  0  2  0  0  0  0  0  0
  160.1480  213.2170  153.1400 C   0  0  2  0  0  3  0  0  0  0  0  0
  160.3930  211.0970  152.0030 N   0  0  0  0  0  0  0  0  0  0  0  0
  158.8400  213.2920  153.9470 C   0  0  2  0  0  3  0  0  0  0  0  0
  159.6960  214.4530  151.0730 O   0  0  0  0  0  0  0  0  0  0  0  0
  159.8710  211.1360  154.4440 C   0  0  1  0  0  3  0  0  0  0  0  0
  1 16  2  0  0  0  0
  1 21  1  0  0  0  0
  3 17  2  0  0  0  0
  6  1  1  0  0  0  0
  8  2  2  0  0  0  0
  8  7  2  0  0  0  0
  9 18  1  6  0  0  0
  9 14  1  0  0  0  0
 10  8  1  6  0  0  0
 11 15  2  0  0  0  0
 12 25  1  6  0  0  0
 12 28  1  0  0  0  0
 13  9  1  0  0  0  0
 14  8  1  0  0  0  0
 15 23  1  0  0  0  0
 16 20  1  0  0  0  0
 17  5  1  0  0  0  0
 17 25  1  0  0  0  0
 19 25  1  0  0  0  0
 19 15  1  0  0  0  0
 20  4  2  0  0  0  0
 21 22  2  0  0  0  0
 22  4  1  0  0  0  0
 23  6  1  0  0  0  0
 24  5  1  6  0  0  0
 24 12  1  0  0  0  0
 24 26  1  0  0  0  0
 26 13  1  6  0  0  0
 26 10  1  0  0  0  0
 27  5  2  0  0  0  0
 28 10  1  0  0  0  0
 28 16  1  1  0  0  0
M  END
>  <MODEL>
4

>  <REMARK>
 VINA RESULT:      -0.4      2.052      2.565
  Name = 
  0 active torsions:
  status: ('A' for Active; 'I' for Inactive)
                            x       y       z     vdW  Elec       q    Type
                         _______ _______ _______ _____ _____    ______ ____

>  <TORSDO>
F 0

$$$$
=
 OpenBabel11122414073D

 28 32  0  0  1  0  0  0  0  0999 V2000
  158.6990  213.6700  152.0680 C   0  0  0  0  0  0  0  0  0  0  0  0
  159.5980  213.7070  155.5880 O   0  0  0  0  0  0  0  0  0  0  0  0
  162.6340  208.7400  151.4110 O   0  0  0  0  0  0  0  0  0  0  0  0
  156.0550  212.9980  152.7140 C   0  0  0  0  0  3  0  0  0  0  0  0
  160.8170  208.3550  152.9260 C   0  0  0  0  0  0  0  0  0  0  0  0
  160.0810  214.0230  151.6250 C   0  0  0  0  0  2  0  0  0  0  0  0
  158.8780  212.0720  157.2610 O   0  0  0  0  0  0  0  0  0  0  0  0
  159.7720  212.2950  156.0740 S   0  0  0  0  0  0  0  0  0  0  0  0
  161.6130  210.2230  156.5030 C   0  0  2  0  0  3  0  0  0  0  0  0
  159.3110  211.1500  154.7730 C   0  0  2  0  0  3  0  0  0  0  0  0
  161.0400  211.6630  148.9990 O   0  0  0  0  0  0  0  0  0  0  0  0
  159.6910  210.4210  152.4930 C   0  0  2  0  0  3  0  0  0  0  0  0
  161.4070  209.8950  155.1040 N   0  0  0  0  0  2  0  0  0  0  0  0
  161.7590  212.0210  156.6620 S   0  0  0  0  0  0  0  0  0  0  0  0
  161.0100  212.1970  150.1380 C   0  0  0  0  0  0  0  0  0  0  0  0
  158.4420  212.5400  152.8710 C   0  0  0  0  0  0  0  0  0  0  0  0
  161.5630  209.1130  151.9600 C   0  0  0  0  0  0  0  0  0  0  0  0
  162.8940  209.5740  156.9840 C   0  0  0  0  0  1  0  0  0  0  0  0
  161.7070  211.5310  151.2790 C   0  0  0  0  0  2  0  0  0  0  0  0
  157.1100  212.2070  153.1750 C   0  0  0  0  0  3  0  0  0  0  0  0
  157.6350  214.4530  151.6060 C   0  0  0  0  0  3  0  0  0  0  0  0
  156.3180  214.1230  151.9330 C   0  0  0  0  0  3  0  0  0  0  0  0
  160.3340  213.4420  150.3140 N   0  0  0  0  0  2  0  0  0  0  0  0
  159.7030  209.2020  153.4490 C   0  0  2  0  0  3  0  0  0  0  0  0
  160.9540  210.3720  151.7420 N   0  0  0  0  0  0  0  0  0  0  0  0
  159.9670  209.7750  154.8530 C   0  0  2  0  0  3  0  0  0  0  0  0
  161.0910  207.1880  153.3090 O   0  0  0  0  0  0  0  0  0  0  0  0
  159.5700  211.6680  153.3650 C   0  0  1  0  0  3  0  0  0  0  0  0
  1 16  1  0  0  0  0
  2  8  2  0  0  0  0
  3 17  2  0  0  0  0
  4 20  1  0  0  0  0
  5 27  2  0  0  0  0
  6  1  1  0  0  0  0
  8 14  1  0  0  0  0
  8  7  2  0  0  0  0
  9 14  1  0  0  0  0
  9 18  1  6  0  0  0
 10 26  1  0  0  0  0
 10  8  1  1  0  0  0
 11 15  2  0  0  0  0
 12 25  1  1  0  0  0
 12 28  1  0  0  0  0
 12 24  1  0  0  0  0
 13  9  1  0  0  0  0
 15 23  1  0  0  0  0
 15 19  1  0  0  0  0
 16 20  2  0  0  0  0
 17  5  1  0  0  0  0
 19 25  1  0  0  0  0
 21 22  1  0  0  0  0
 21  1  2  0  0  0  0
 22  4  2  0  0  0  0
 23  6  1  0  0  0  0
 24  5  1  6  0  0  0
 24 26  1  0  0  0  0
 25 17  1  0  0  0  0
 26 13  1  6  0  0  0
 28 16  1  6  0  0  0
 28 10  1  0  0  0  0
M  END
>  <MODEL>
5

>  <REMARK>
 VINA RESULT:      -0.3      1.985      5.551
  Name = 
  0 active torsions:
  status: ('A' for Active; 'I' for Inactive)
                            x       y       z     vdW  Elec       q    Type
                         _______ _______ _______ _____ _____    ______ ____

>  <TORSDO>
F 0

$$$$
