=
 OpenBabel11122412553D

 32 37  0  0  1  0  0  0  0  0999 V2000
  160.0040  201.6790  149.1780 C   0  0  0  0  0  2  0  0  0  0  0  0
  161.5960  206.4570  151.3880 C   0  0  2  0  0  3  0  0  0  0  0  0
  162.8980  209.9860  148.5850 C   0  0  0  0  0  2  0  0  0  0  0  0
  161.7320  210.9130  148.9650 C   0  0  0  0  0  2  0  0  0  0  0  0
  161.4310  207.0540  153.8480 C   0  0  0  0  0  0  0  0  0  0  0  0
  160.9850  207.9910  154.8630 C   0  0  0  0  0  0  0  0  0  0  0  0
  161.3240  204.0740  150.5980 C   0  0  2  0  0  3  0  0  0  0  0  0
  161.3890  205.9400  148.9000 C   0  0  0  0  0  2  0  0  0  0  0  0
  160.3400  209.9070  155.6840 N   0  0  0  0  0  0  0  0  0  0  0  0
  161.3100  203.6090  148.1160 C   0  0  0  0  0  2  0  0  0  0  0  0
  162.5830  208.5000  148.8670 C   0  0  0  0  0  2  0  0  0  0  0  0
  161.0650  206.9330  150.0210 C   0  0  2  0  0  3  0  0  0  0  0  0
  161.3670  208.3420  149.6800 N   0  0  1  0  0  0  0  0  0  0  0  0
  160.7300  208.7570  152.0730 C   0  0  2  0  0  3  0  0  0  0  0  0
  160.4880  209.0810  156.7100 N   0  0  0  0  0  0  0  0  0  0  0  0
  161.0540  201.7270  150.1030 O   0  0  0  0  0  0  0  0  0  0  0  0
  160.8330  204.5540  149.2140 C   0  0  1  0  0  3  0  0  0  0  0  0
  160.8930  207.8770  156.2380 C   0  0  0  0  0  3  0  0  0  0  0  0
  160.6880  202.7420  150.9930 C   0  0  0  0  0  2  0  0  0  0  0  0
  160.3620  202.4240  147.8900 C   0  0  1  0  0  3  0  0  0  0  0  0
  161.2450  210.6760  150.4040 C   0  0  0  0  0  2  0  0  0  0  0  0
  161.5060  209.2300  150.8410 C   0  0  2  0  0  3  0  0  0  0  0  0
  160.8230  209.8320  153.1880 C   0  0  0  0  0  2  0  0  0  0  0  0
  160.9590  205.0940  151.6720 C   0  0  0  0  0  2  0  0  0  0  0  0
  161.9630  205.9610  154.1820 O   0  0  0  0  0  0  0  0  0  0  0  0
  159.9850  211.3090  155.8130 C   0  0  0  0  0  1  0  0  0  0  0  0
  161.2670  207.4220  152.4560 N   0  0  0  0  0  0  0  0  0  0  0  0
  160.6210  209.2540  154.5470 C   0  0  0  0  0  0  0  0  0  0  0  0
  160.9770  201.4480  146.8990 C   0  0  0  0  0  2  0  0  0  0  0  0
  160.5150  201.7400  145.5120 C   0  0  0  0  0  0  0  0  0  0  0  0
  160.6910  203.0080  144.9740 O   0  0  0  0  0  1  0  0  0  0  0  0
  159.9870  200.8320  144.8190 O   0  0  0  0  0  0  0  0  0  0  0  0
  1 16  1  0  0  0  0
  2 24  1  1  0  0  0
  2 27  1  0  0  0  0
  3 11  1  0  0  0  0
  3  4  1  0  0  0  0
  4 21  1  0  0  0  0
  5 25  2  0  0  0  0
  5  6  1  0  0  0  0
  6 18  1  0  0  0  0
  7 19  1  1  0  0  0
  7 24  1  0  0  0  0
  8 17  1  0  0  0  0
  9 26  1  0  0  0  0
  9 15  1  0  0  0  0
 12  8  1  6  0  0  0
 12  2  1  0  0  0  0
 13 11  1  1  0  0  0
 13 12  1  0  0  0  0
 13 22  1  0  0  0  0
 14 27  1  0  0  0  0
 14 23  1  1  0  0  0
 16 19  1  0  0  0  0
 17 10  1  6  0  0  0
 17  7  1  0  0  0  0
 18 15  2  0  0  0  0
 20 29  1  6  0  0  0
 20 10  1  0  0  0  0
 20  1  1  0  0  0  0
 22 21  1  6  0  0  0
 22 14  1  0  0  0  0
 23 28  1  0  0  0  0
 27  5  1  0  0  0  0
 28  6  2  0  0  0  0
 28  9  1  0  0  0  0
 30 29  1  0  0  0  0
 31 30  1  0  0  0  0
 32 30  2  0  0  0  0
M  END
>  <MODEL>
1

>  <REMARK>
 VINA RESULT:      -9.0      0.000      0.000
  Name = 
  2 active torsions:
  status: ('A' for Active; 'I' for Inactive)
    1  A    between atoms: C_20  and  C_29
    2  A    between atoms: C_29  and  C_30
                            x       y       z     vdW  Elec       q    Type
                         _______ _______ _______ _____ _____    ______ ____

>  <TORSDO>
F 2

$$$$
=
 OpenBabel11122412553D

 32 37  0  0  1  0  0  0  0  0999 V2000
  160.5390  210.6050  153.2470 C   0  0  0  0  0  2  0  0  0  0  0  0
  161.7610  206.2710  150.0900 C   0  0  2  0  0  3  0  0  0  0  0  0
  161.9200  201.9880  151.9970 C   0  0  0  0  0  2  0  0  0  0  0  0
  160.7190  201.4330  151.2130 C   0  0  0  0  0  2  0  0  0  0  0  0
  161.9880  206.3230  147.5640 C   0  0  0  0  0  0  0  0  0  0  0  0
  161.6060  205.7650  146.2790 C   0  0  0  0  0  0  0  0  0  0  0  0
  161.7180  208.4020  151.4450 C   0  0  2  0  0  3  0  0  0  0  0  0
  161.1570  206.2120  152.5660 C   0  0  0  0  0  2  0  0  0  0  0  0
  160.8410  204.2700  144.8860 N   0  0  0  0  0  0  0  0  0  0  0  0
  161.2930  208.2550  153.9300 C   0  0  0  0  0  2  0  0  0  0  0  0
  161.9040  203.5300  152.0830 C   0  0  0  0  0  2  0  0  0  0  0  0
  160.9050  205.6010  151.1840 C   0  0  2  0  0  3  0  0  0  0  0  0
  160.9090  204.1200  151.1730 N   0  0  1  0  0  0  0  0  0  0  0  0
  160.6950  204.4250  148.6890 C   0  0  2  0  0  3  0  0  0  0  0  0
  161.3140  205.2690  144.1540 N   0  0  0  0  0  0  0  0  0  0  0  0
  161.7290  210.5680  152.5090 O   0  0  0  0  0  0  0  0  0  0  0  0
  160.8970  207.7160  152.5590 C   0  0  1  0  0  3  0  0  0  0  0  0
  161.8030  206.2190  144.9880 C   0  0  0  0  0  3  0  0  0  0  0  0
  161.3890  209.8890  151.3340 C   0  0  0  0  0  2  0  0  0  0  0  0
  160.5180  209.5190  154.3240 C   0  0  1  0  0  3  0  0  0  0  0  0
  160.5650  202.0990  149.8350 C   0  0  0  0  0  2  0  0  0  0  0  0
  161.1310  203.5240  149.8480 C   0  0  2  0  0  3  0  0  0  0  0  0
  160.8330  203.6490  147.3520 C   0  0  0  0  0  2  0  0  0  0  0  0
  161.4140  207.7620  150.0930 C   0  0  0  0  0  2  0  0  0  0  0  0
  162.7390  207.3330  147.6200 O   0  0  0  0  0  0  0  0  0  0  0  0
  160.3020  203.0400  144.3320 C   0  0  0  0  0  1  0  0  0  0  0  0
  161.4990  205.6750  148.7640 N   0  0  0  0  0  0  0  0  0  0  0  0
  160.9940  204.5630  146.1850 C   0  0  0  0  0  0  0  0  0  0  0  0
  161.0730  210.0860  155.6220 C   0  0  0  0  0  2  0  0  0  0  0  0
  161.2030  209.0180  156.6540 C   0  0  0  0  0  0  0  0  0  0  0  0
  160.0860  208.2920  157.0470 O   0  0  0  0  0  0  0  0  0  0  0  0
  162.3280  208.7560  157.1510 O   0  0  0  0  0  1  0  0  0  0  0  0
  1 20  1  0  0  0  0
  2 24  1  6  0  0  0
  2 12  1  0  0  0  0
  3 11  1  0  0  0  0
  4  3  1  0  0  0  0
  5 25  2  0  0  0  0
  5 27  1  0  0  0  0
  6  5  1  0  0  0  0
  7 24  1  6  0  0  0
  7 17  1  0  0  0  0
  9 28  1  0  0  0  0
 10 20  1  0  0  0  0
 12  8  1  1  0  0  0
 13 12  1  0  0  0  0
 13 11  1  1  0  0  0
 14 23  1  6  0  0  0
 14 27  1  0  0  0  0
 14 22  1  0  0  0  0
 15  9  1  0  0  0  0
 15 18  2  0  0  0  0
 16  1  1  0  0  0  0
 17  8  1  1  0  0  0
 17 10  1  0  0  0  0
 18  6  1  0  0  0  0
 19  7  1  0  0  0  0
 19 16  1  0  0  0  0
 20 29  1  1  0  0  0
 21  4  1  0  0  0  0
 22 21  1  1  0  0  0
 22 13  1  0  0  0  0
 26  9  1  0  0  0  0
 27  2  1  0  0  0  0
 28  6  2  0  0  0  0
 28 23  1  0  0  0  0
 29 30  1  0  0  0  0
 30 31  2  0  0  0  0
 30 32  1  0  0  0  0
M  END
>  <MODEL>
2

>  <REMARK>
 VINA RESULT:      -7.3      3.187      8.902
  Name = 
  2 active torsions:
  status: ('A' for Active; 'I' for Inactive)
    1  A    between atoms: C_20  and  C_29
    2  A    between atoms: C_29  and  C_30
                            x       y       z     vdW  Elec       q    Type
                         _______ _______ _______ _____ _____    ______ ____

>  <TORSDO>
F 2

$$$$
=
 OpenBabel11122412553D

 32 37  0  0  1  0  0  0  0  0999 V2000
  160.4800  202.9200  150.8890 C   0  0  0  0  0  2  0  0  0  0  0  0
  161.5580  208.1090  152.3550 C   0  0  2  0  0  3  0  0  0  0  0  0
  162.4710  211.3090  149.0490 C   0  0  0  0  0  2  0  0  0  0  0  0
  161.2130  212.1530  149.3100 C   0  0  0  0  0  2  0  0  0  0  0  0
  161.3350  209.0380  154.7050 C   0  0  0  0  0  0  0  0  0  0  0  0
  160.7930  210.0600  155.5820 C   0  0  0  0  0  0  0  0  0  0  0  0
  161.5400  205.6210  151.9240 C   0  0  2  0  0  3  0  0  0  0  0  0
  161.4030  207.2160  149.9730 C   0  0  0  0  0  2  0  0  0  0  0  0
  159.9490  211.9970  156.1280 N   0  0  0  0  0  0  0  0  0  0  0  0
  161.5710  204.8000  149.5360 C   0  0  0  0  0  2  0  0  0  0  0  0
  162.3170  209.8560  149.5490 C   0  0  0  0  0  2  0  0  0  0  0  0
  160.9760  208.3220  150.9440 C   0  0  2  0  0  3  0  0  0  0  0  0
  161.1260  209.6900  150.3970 N   0  0  1  0  0  0  0  0  0  0  0  0
  160.4530  210.3800  152.7150 C   0  0  2  0  0  3  0  0  0  0  0  0
  160.1860  211.3500  157.2600 N   0  0  0  0  0  0  0  0  0  0  0  0
  161.5210  203.2120  151.7790 O   0  0  0  0  0  0  0  0  0  0  0  0
  160.9980  205.8400  150.4940 C   0  0  1  0  0  3  0  0  0  0  0  0
  160.7160  210.1390  156.9600 C   0  0  0  0  0  3  0  0  0  0  0  0
  161.0510  204.3020  152.5190 C   0  0  0  0  0  2  0  0  0  0  0  0
  160.7550  203.5020  149.5010 C   0  0  1  0  0  3  0  0  0  0  0  0
  160.7570  212.0790  150.7770 C   0  0  0  0  0  2  0  0  0  0  0  0
  161.1720  210.7480  151.4150 C   0  0  2  0  0  3  0  0  0  0  0  0
  160.4330  211.6110  153.6610 C   0  0  0  0  0  2  0  0  0  0  0  0
  161.0700  206.7430  152.8450 C   0  0  0  0  0  2  0  0  0  0  0  0
  161.9800  208.0670  155.1860 O   0  0  0  0  0  0  0  0  0  0  0  0
  159.4470  213.3580  156.0580 C   0  0  0  0  0  1  0  0  0  0  0  0
  161.1300  209.1800  153.2790 N   0  0  0  0  0  0  0  0  0  0  0  0
  160.2960  211.2190  155.0930 C   0  0  0  0  0  0  0  0  0  0  0  0
  161.4680  202.4620  148.6510 C   0  0  0  0  0  2  0  0  0  0  0  0
  161.0870  202.5990  147.2160 C   0  0  0  0  0  0  0  0  0  0  0  0
  161.4690  203.7260  146.5000 O   0  0  0  0  0  0  0  0  0  0  0  0
  160.4410  201.6820  146.6460 O   0  0  0  0  0  1  0  0  0  0  0  0
  1 16  1  0  0  0  0
  2 24  1  1  0  0  0
  2 27  1  0  0  0  0
  3  4  1  0  0  0  0
  3 11  1  0  0  0  0
  4 21  1  0  0  0  0
  5 25  2  0  0  0  0
  5  6  1  0  0  0  0
  6 18  1  0  0  0  0
  7 19  1  1  0  0  0
  7 24  1  0  0  0  0
  8 17  1  0  0  0  0
  9 15  1  0  0  0  0
 12  8  1  6  0  0  0
 12  2  1  0  0  0  0
 13 11  1  1  0  0  0
 13 12  1  0  0  0  0
 13 22  1  0  0  0  0
 14 27  1  0  0  0  0
 14 23  1  1  0  0  0
 16 19  1  0  0  0  0
 17 10  1  6  0  0  0
 17  7  1  0  0  0  0
 18 15  2  0  0  0  0
 20 29  1  6  0  0  0
 20 10  1  0  0  0  0
 20  1  1  0  0  0  0
 22 21  1  6  0  0  0
 22 14  1  0  0  0  0
 23 28  1  0  0  0  0
 26  9  1  0  0  0  0
 27  5  1  0  0  0  0
 28  6  2  0  0  0  0
 28  9  1  0  0  0  0
 30 29  1  0  0  0  0
 31 30  2  0  0  0  0
 32 30  1  0  0  0  0
M  END
>  <MODEL>
3

>  <REMARK>
 VINA RESULT:      -7.3      1.457      1.962
  Name = 
  2 active torsions:
  status: ('A' for Active; 'I' for Inactive)
    1  A    between atoms: C_20  and  C_29
    2  A    between atoms: C_29  and  C_30
                            x       y       z     vdW  Elec       q    Type
                         _______ _______ _______ _____ _____    ______ ____

>  <TORSDO>
F 2

$$$$
