=
 OpenBabel11122414003D

 37 43  0  0  1  0  0  0  0  0999 V2000
  160.7720  206.2690  150.1040 C   0  0  1  0  0  3  0  0  0  0  0  0
  160.4880  209.0250  152.0230 O   0  0  0  0  0  0  0  0  0  0  0  0
  160.8580  205.5470  147.5760 C   0  0  2  0  0  3  0  0  0  0  0  0
  161.5420  207.4730  150.5380 C   0  0  2  0  0  3  0  0  0  0  0  0
  160.5640  206.6330  148.6280 C   0  0  2  0  0  3  0  0  0  0  0  0
  161.3350  207.9040  151.9920 C   0  0  2  0  0  3  0  0  0  0  0  0
  161.8180  204.4770  148.0640 C   0  0  0  0  0  2  0  0  0  0  0  0
  161.2190  207.8560  148.3800 O   0  0  0  0  0  0  0  0  0  0  0  0
  161.2280  204.6000  151.7040 C   0  0  0  0  0  2  0  0  0  0  0  0
  161.3670  204.0250  149.4380 C   0  0  0  0  0  2  0  0  0  0  0  0
  162.7380  210.2370  151.9320 C   0  0  0  0  0  2  0  0  0  0  0  0
  161.2170  210.2510  152.0660 C   0  0  1  0  0  3  0  0  0  0  0  0
  161.6160  205.1010  150.3860 N   0  0  1  0  0  0  0  0  0  0  0  0
  161.1790  208.5030  149.5820 N   0  0  2  0  0  0  0  0  0  0  0  0
  160.8470  206.7850  152.9320 C   0  0  1  0  0  3  0  0  0  0  0  0
  161.8980  210.6130  150.7220 C   0  0  2  0  0  3  0  0  0  0  0  0
  162.2030  209.5490  149.6430 C   0  0  2  0  0  3  0  0  0  0  0  0
  161.7120  205.5220  152.8270 C   0  0  0  0  0  2  0  0  0  0  0  0
  159.8600  206.7150  155.2250 C   0  0  0  0  0  3  0  0  0  0  0  0
  160.8010  207.2630  154.3510 C   0  0  0  0  0  0  0  0  0  0  0  0
  161.6790  208.2540  154.8140 C   0  0  0  0  0  3  0  0  0  0  0  0
  162.4800  209.6780  156.6250 N   0  0  0  0  0  1  0  0  0  0  0  0
  160.6720  208.1250  156.9750 N   0  0  0  0  0  0  0  0  0  0  0  0
  161.5970  208.6740  156.1420 C   0  0  0  0  0  0  0  0  0  0  0  0
  159.8100  207.1630  156.5470 C   0  0  0  0  0  3  0  0  0  0  0  0
  162.3580  210.2700  148.3050 C   0  0  0  0  0  2  0  0  0  0  0  0
  162.0900  211.7590  148.4630 C   0  0  0  0  0  0  0  0  0  0  0  0
  163.3170  212.6380  148.4040 C   0  0  0  0  0  2  0  0  0  0  0  0
  162.3470  212.5920  147.2300 C   0  0  0  0  0  2  0  0  0  0  0  0
  160.9630  212.2690  149.3550 C   0  0  0  0  0  2  0  0  0  0  0  0
  160.3840  213.5770  148.8380 C   0  0  0  0  0  2  0  0  0  0  0  0
  159.1110  213.3630  148.3090 O   0  0  0  0  0  1  0  0  0  0  0  0
  161.3300  206.1100  146.3760 O   0  0  0  0  0  0  0  0  0  0  0  0
  160.5900  205.5600  145.3100 C   0  0  0  0  0  0  0  0  0  0  0  0
  160.6210  204.1740  145.3510 F   0  0  0  0  0  0  0  0  0  0  0  0
  159.2750  206.0020  145.3430 F   0  0  0  0  0  0  0  0  0  0  0  0
  161.1580  205.9740  144.1210 F   0  0  0  0  0  0  0  0  0  0  0  0
  1 13  1  0  0  0  0
  1  4  1  0  0  0  0
  2 12  1  0  0  0  0
  3  7  1  0  0  0  0
  3  5  1  0  0  0  0
  4  6  1  0  0  0  0
  5  1  1  0  0  0  0
  6  2  1  0  0  0  0
  6 15  1  0  0  0  0
  7 10  1  0  0  0  0
  8  5  1  0  0  0  0
  8 14  1  0  0  0  0
  9 18  1  0  0  0  0
 10 13  1  0  0  0  0
 11 12  1  0  0  0  0
 13  9  1  0  0  0  0
 14 17  1  0  0  0  0
 14  4  1  0  0  0  0
 15 20  1  0  0  0  0
 16 11  1  0  0  0  0
 16 12  1  0  0  0  0
 17 16  1  0  0  0  0
 18 15  1  0  0  0  0
 19 25  1  0  0  0  0
 20 21  1  0  0  0  0
 20 19  2  0  0  0  0
 21 24  2  0  0  0  0
 24 22  1  0  0  0  0
 24 23  1  0  0  0  0
 25 23  2  0  0  0  0
 26 27  1  0  0  0  0
 26 17  1  0  0  0  0
 27 30  1  0  0  0  0
 28 27  1  0  0  0  0
 29 28  1  0  0  0  0
 29 27  1  0  0  0  0
 31 30  1  0  0  0  0
 32 31  1  0  0  0  0
 33  3  1  0  0  0  0
 34 36  1  0  0  0  0
 34 35  1  0  0  0  0
 34 33  1  0  0  0  0
 37 34  1  0  0  0  0
M  END
>  <MODEL>
1

>  <REMARK>
 VINA RESULT:      -8.1      0.000      0.000
  Name = 
  7 active torsions:
  status: ('A' for Active; 'I' for Inactive)
    1  A    between atoms: C_1  and  C_4
    2  A    between atoms: C_1  and  C_27
    3  A    between atoms: C_2  and  O_22
    4  A    between atoms: C_4  and  C_12
    5  A    between atoms: C_6  and  O_22
    6  A    between atoms: C_8  and  C_12
    7  A    between atoms: C_23  and  C_30
                            x       y       z     vdW  Elec       q    Type
                         _______ _______ _______ _____ _____    ______ ____

>  <TORSDO>
F 7

$$$$
=
 OpenBabel11122414003D

 37 43  0  0  1  0  0  0  0  0999 V2000
  161.4460  211.6130  150.6160 C   0  0  1  0  0  3  0  0  0  0  0  0
  162.5550  208.8690  152.2290 O   0  0  0  0  0  0  0  0  0  0  0  0
  161.4790  212.7280  148.2340 C   0  0  2  0  0  3  0  0  0  0  0  0
  161.2010  210.1430  150.7230 C   0  0  2  0  0  3  0  0  0  0  0  0
  162.0290  211.6600  149.1970 C   0  0  2  0  0  3  0  0  0  0  0  0
  161.3290  209.5490  152.1280 C   0  0  2  0  0  3  0  0  0  0  0  0
  160.0890  213.2160  148.6020 C   0  0  0  0  0  2  0  0  0  0  0  0
  162.0060  210.3530  148.6700 O   0  0  0  0  0  0  0  0  0  0  0  0
  160.0690  212.6170  152.2430 C   0  0  0  0  0  2  0  0  0  0  0  0
  160.0720  213.5270  150.0850 C   0  0  0  0  0  2  0  0  0  0  0  0
  161.0820  206.9150  151.4840 C   0  0  0  0  0  2  0  0  0  0  0  0
  162.4200  207.4730  151.9640 C   0  0  1  0  0  3  0  0  0  0  0  0
  160.1530  212.2760  150.8230 N   0  0  1  0  0  0  0  0  0  0  0  0
  162.1200  209.5500  149.7680 N   0  0  2  0  0  0  0  0  0  0  0  0
  161.1340  210.5600  153.2740 C   0  0  1  0  0  3  0  0  0  0  0  0
  162.1880  207.1470  150.4670 C   0  0  2  0  0  3  0  0  0  0  0  0
  161.6420  208.1960  149.4730 C   0  0  2  0  0  3  0  0  0  0  0  0
  159.8450  211.3760  153.1130 C   0  0  0  0  0  2  0  0  0  0  0  0
  161.9890  210.3390  155.6100 C   0  0  0  0  0  3  0  0  0  0  0  0
  161.1450  209.8680  154.6030 C   0  0  0  0  0  0  0  0  0  0  0  0
  160.3300  208.7540  154.8490 C   0  0  0  0  0  3  0  0  0  0  0  0
  159.5570  207.0040  156.3630 N   0  0  0  0  0  1  0  0  0  0  0  0
  161.2070  208.6130  157.0650 N   0  0  0  0  0  0  0  0  0  0  0  0
  160.3770  208.1350  156.0990 C   0  0  0  0  0  0  0  0  0  0  0  0
  162.0070  209.6920  156.8480 C   0  0  0  0  0  3  0  0  0  0  0  0
  162.0300  207.7530  148.0630 C   0  0  0  0  0  2  0  0  0  0  0  0
  161.4000  206.4090  147.7290 C   0  0  0  0  0  0  0  0  0  0  0  0
  160.9300  206.2620  146.3020 C   0  0  0  0  0  2  0  0  0  0  0  0
  162.1910  205.5490  146.7730 C   0  0  0  0  0  2  0  0  0  0  0  0
  160.5930  205.6360  148.7670 C   0  0  0  0  0  2  0  0  0  0  0  0
  160.9700  204.1620  148.7890 C   0  0  0  0  0  2  0  0  0  0  0  0
  160.9980  203.6940  150.1030 O   0  0  0  0  0  1  0  0  0  0  0  0
  161.4940  212.2750  146.9030 O   0  0  0  0  0  0  0  0  0  0  0  0
  161.9420  213.3310  146.0830 C   0  0  0  0  0  0  0  0  0  0  0  0
  162.6930  212.8490  145.0230 F   0  0  0  0  0  0  0  0  0  0  0  0
  160.8710  214.0700  145.6020 F   0  0  0  0  0  0  0  0  0  0  0  0
  162.7410  214.1660  146.8400 F   0  0  0  0  0  0  0  0  0  0  0  0
  1  4  1  0  0  0  0
  1 13  1  0  0  0  0
  3  7  1  0  0  0  0
  3  5  1  0  0  0  0
  4  6  1  0  0  0  0
  5  1  1  0  0  0  0
  6  2  1  0  0  0  0
  6 15  1  0  0  0  0
  7 10  1  0  0  0  0
  8  5  1  0  0  0  0
  8 14  1  0  0  0  0
  9 18  1  0  0  0  0
 10 13  1  0  0  0  0
 11 12  1  0  0  0  0
 12  2  1  0  0  0  0
 13  9  1  0  0  0  0
 14  4  1  0  0  0  0
 15 20  1  0  0  0  0
 16 11  1  0  0  0  0
 16 12  1  0  0  0  0
 17 14  1  0  0  0  0
 17 16  1  0  0  0  0
 18 15  1  0  0  0  0
 19 25  1  0  0  0  0
 20 21  1  0  0  0  0
 20 19  2  0  0  0  0
 21 24  2  0  0  0  0
 24 22  1  0  0  0  0
 24 23  1  0  0  0  0
 25 23  2  0  0  0  0
 26 17  1  0  0  0  0
 27 26  1  0  0  0  0
 27 30  1  0  0  0  0
 28 29  1  0  0  0  0
 28 27  1  0  0  0  0
 29 27  1  0  0  0  0
 30 31  1  0  0  0  0
 31 32  1  0  0  0  0
 33  3  1  0  0  0  0
 34 37  1  0  0  0  0
 34 33  1  0  0  0  0
 35 34  1  0  0  0  0
 36 34  1  0  0  0  0
M  END
>  <MODEL>
2

>  <REMARK>
 VINA RESULT:      -8.0      2.871      5.851
  Name = 
  7 active torsions:
  status: ('A' for Active; 'I' for Inactive)
    1  A    between atoms: C_1  and  C_4
    2  A    between atoms: C_1  and  C_27
    3  A    between atoms: C_2  and  O_22
    4  A    between atoms: C_4  and  C_12
    5  A    between atoms: C_6  and  O_22
    6  A    between atoms: C_8  and  C_12
    7  A    between atoms: C_23  and  C_30
                            x       y       z     vdW  Elec       q    Type
                         _______ _______ _______ _____ _____    ______ ____

>  <TORSDO>
F 7

$$$$
=
 OpenBabel11122414003D

 37 43  0  0  1  0  0  0  0  0999 V2000
  159.8670  213.1930  150.7860 C   0  0  1  0  0  3  0  0  0  0  0  0
  160.4430  212.1670  153.9440 O   0  0  0  0  0  0  0  0  0  0  0  0
  160.9140  213.0560  148.3760 C   0  0  2  0  0  3  0  0  0  0  0  0
  159.8460  211.9650  151.6360 C   0  0  2  0  0  3  0  0  0  0  0  0
  161.0700  212.8520  149.8960 C   0  0  2  0  0  3  0  0  0  0  0  0
  159.3440  212.1580  153.0690 C   0  0  2  0  0  3  0  0  0  0  0  0
  159.4710  213.0300  147.9080 C   0  0  0  0  0  2  0  0  0  0  0  0
  161.5310  211.5690  150.2530 O   0  0  0  0  0  0  0  0  0  0  0  0
  157.7140  214.1340  150.9590 C   0  0  0  0  0  2  0  0  0  0  0  0
  158.6570  213.9190  148.8260 C   0  0  0  0  0  2  0  0  0  0  0  0
  159.8910  209.6720  154.0340 C   0  0  0  0  0  2  0  0  0  0  0  0
  160.6910  210.8810  154.5120 C   0  0  1  0  0  3  0  0  0  0  0  0
  158.5570  213.2760  150.1280 N   0  0  1  0  0  0  0  0  0  0  0  0
  161.2040  211.4550  151.5740 N   0  0  2  0  0  0  0  0  0  0  0  0
  158.4330  213.3850  153.2720 C   0  0  1  0  0  3  0  0  0  0  0  0
  161.3040  209.8710  153.5090 C   0  0  2  0  0  3  0  0  0  0  0  0
  161.1710  210.0470  151.9800 C   0  0  2  0  0  3  0  0  0  0  0  0
  157.2880  213.4310  152.2520 C   0  0  0  0  0  2  0  0  0  0  0  0
  158.3070  214.4200  155.5410 C   0  0  0  0  0  3  0  0  0  0  0  0
  157.8860  213.4170  154.6660 C   0  0  0  0  0  0  0  0  0  0  0  0
  156.9660  212.4560  155.1080 C   0  0  0  0  0  3  0  0  0  0  0  0
  155.5530  211.5510  156.8800 N   0  0  0  0  0  1  0  0  0  0  0  0
  156.9110  213.5070  157.2510 N   0  0  0  0  0  0  0  0  0  0  0  0
  156.4860  212.5190  156.4170 C   0  0  0  0  0  0  0  0  0  0  0  0
  157.8040  214.4490  156.8430 C   0  0  0  0  0  3  0  0  0  0  0  0
  162.2840  209.2390  151.3160 C   0  0  0  0  0  2  0  0  0  0  0  0
  161.7500  207.9110  150.8000 C   0  0  0  0  0  0  0  0  0  0  0  0
  162.4470  206.6880  151.3450 C   0  0  0  0  0  2  0  0  0  0  0  0
  161.0500  207.0570  151.8290 C   0  0  0  0  0  2  0  0  0  0  0  0
  161.2080  207.7770  149.3800 C   0  0  0  0  0  2  0  0  0  0  0  0
  160.6450  206.3870  149.1230 C   0  0  0  0  0  2  0  0  0  0  0  0
  160.4700  206.1870  147.7540 O   0  0  0  0  0  1  0  0  0  0  0  0
  161.6740  212.1190  147.6530 O   0  0  0  0  0  0  0  0  0  0  0  0
  162.8320  212.7660  147.1770 C   0  0  0  0  0  0  0  0  0  0  0  0
  162.9290  214.0490  147.6920 F   0  0  0  0  0  0  0  0  0  0  0  0
  163.9700  212.0420  147.5020 F   0  0  0  0  0  0  0  0  0  0  0  0
  162.7520  212.8530  145.8000 F   0  0  0  0  0  0  0  0  0  0  0  0
  1  4  1  0  0  0  0
  2 12  1  0  0  0  0
  3  5  1  0  0  0  0
  4  6  1  0  0  0  0
  5  8  1  0  0  0  0
  5  1  1  0  0  0  0
  6 15  1  0  0  0  0
  6  2  1  0  0  0  0
  7  3  1  0  0  0  0
  7 10  1  0  0  0  0
  8 14  1  0  0  0  0
  9 18  1  0  0  0  0
 10 13  1  0  0  0  0
 11 12  1  0  0  0  0
 13  1  1  0  0  0  0
 13  9  1  0  0  0  0
 14  4  1  0  0  0  0
 14 17  1  0  0  0  0
 15 20  1  0  0  0  0
 16 11  1  0  0  0  0
 16 12  1  0  0  0  0
 17 16  1  0  0  0  0
 18 15  1  0  0  0  0
 19 25  1  0  0  0  0
 20 21  1  0  0  0  0
 20 19  2  0  0  0  0
 21 24  2  0  0  0  0
 24 22  1  0  0  0  0
 24 23  1  0  0  0  0
 25 23  2  0  0  0  0
 26 17  1  0  0  0  0
 27 26  1  0  0  0  0
 27 28  1  0  0  0  0
 27 29  1  0  0  0  0
 28 29  1  0  0  0  0
 30 27  1  0  0  0  0
 31 30  1  0  0  0  0
 32 31  1  0  0  0  0
 33  3  1  0  0  0  0
 34 36  1  0  0  0  0
 34 33  1  0  0  0  0
 34 35  1  0  0  0  0
 37 34  1  0  0  0  0
M  END
>  <MODEL>
3

>  <REMARK>
 VINA RESULT:      -7.5      4.135      6.753
  Name = 
  7 active torsions:
  status: ('A' for Active; 'I' for Inactive)
    1  A    between atoms: C_1  and  C_4
    2  A    between atoms: C_1  and  C_27
    3  A    between atoms: C_2  and  O_22
    4  A    between atoms: C_4  and  C_12
    5  A    between atoms: C_6  and  O_22
    6  A    between atoms: C_8  and  C_12
    7  A    between atoms: C_23  and  C_30
                            x       y       z     vdW  Elec       q    Type
                         _______ _______ _______ _____ _____    ______ ____

>  <TORSDO>
F 7

$$$$
=
 OpenBabel11122414003D

 37 43  0  0  1  0  0  0  0  0999 V2000
  160.9270  204.6810  150.7710 C   0  0  1  0  0  3  0  0  0  0  0  0
  160.7440  207.7560  149.4020 O   0  0  0  0  0  0  0  0  0  0  0  0
  161.1020  202.1490  150.0780 C   0  0  2  0  0  3  0  0  0  0  0  0
  161.7610  205.6880  150.0470 C   0  0  2  0  0  3  0  0  0  0  0  0
  160.8310  203.6120  149.6740 C   0  0  2  0  0  3  0  0  0  0  0  0
  161.5050  207.1510  150.4180 C   0  0  2  0  0  3  0  0  0  0  0  0
  161.9480  202.0140  151.3300 C   0  0  0  0  0  2  0  0  0  0  0  0
  161.5910  204.0460  148.5700 O   0  0  0  0  0  0  0  0  0  0  0  0
  161.1630  205.1760  153.0630 C   0  0  0  0  0  2  0  0  0  0  0  0
  161.3880  202.9450  152.3860 C   0  0  0  0  0  2  0  0  0  0  0  0
  163.0810  208.3320  148.5380 C   0  0  0  0  0  2  0  0  0  0  0  0
  161.5610  208.4400  148.4520 C   0  0  1  0  0  3  0  0  0  0  0  0
  161.6620  204.3180  151.9890 N   0  0  1  0  0  0  0  0  0  0  0  0
  161.5310  205.4090  148.6410 N   0  0  2  0  0  0  0  0  0  0  0  0
  160.8800  207.3630  151.8100 C   0  0  1  0  0  3  0  0  0  0  0  0
  162.3430  207.4890  147.5110 C   0  0  2  0  0  3  0  0  0  0  0  0
  162.6270  206.0160  147.8820 C   0  0  2  0  0  3  0  0  0  0  0  0
  161.6510  206.6200  152.9100 C   0  0  0  0  0  2  0  0  0  0  0  0
  161.5870  209.7280  151.4350 C   0  0  0  0  0  3  0  0  0  0  0  0
  160.7900  208.8220  152.1380 C   0  0  0  0  0  0  0  0  0  0  0  0
  159.9280  209.2910  153.1380 C   0  0  0  0  0  3  0  0  0  0  0  0
  159.0120  211.1480  154.4280 N   0  0  0  0  0  1  0  0  0  0  0  0
  160.6660  211.5220  152.7170 N   0  0  0  0  0  0  0  0  0  0  0  0
  159.8810  210.6580  153.4150 C   0  0  0  0  0  0  0  0  0  0  0  0
  161.5100  211.0880  151.7420 C   0  0  0  0  0  3  0  0  0  0  0  0
  162.9120  205.2540  146.5890 C   0  0  0  0  0  2  0  0  0  0  0  0
  161.6200  204.9610  145.8420 C   0  0  0  0  0  0  0  0  0  0  0  0
  160.5780  206.0510  145.9160 C   0  0  0  0  0  2  0  0  0  0  0  0
  161.3660  205.8280  144.6320 C   0  0  0  0  0  2  0  0  0  0  0  0
  161.0740  203.5400  145.7360 C   0  0  0  0  0  2  0  0  0  0  0  0
  160.0810  203.4030  144.5910 C   0  0  0  0  0  2  0  0  0  0  0  0
  159.6200  202.0890  144.5110 O   0  0  0  0  0  1  0  0  0  0  0  0
  161.6830  201.4260  149.0210 O   0  0  0  0  0  0  0  0  0  0  0  0
  160.6520  200.7680  148.3190 C   0  0  0  0  0  0  0  0  0  0  0  0
  160.0810  201.6110  147.3780 F   0  0  0  0  0  0  0  0  0  0  0  0
  161.1310  199.6250  147.6960 F   0  0  0  0  0  0  0  0  0  0  0  0
  159.6750  200.3950  149.2210 F   0  0  0  0  0  0  0  0  0  0  0  0
  1 13  1  0  0  0  0
  2  6  1  0  0  0  0
  3  7  1  0  0  0  0
  4  6  1  0  0  0  0
  4  1  1  0  0  0  0
  5  3  1  0  0  0  0
  5  1  1  0  0  0  0
  6 15  1  0  0  0  0
  7 10  1  0  0  0  0
  8 14  1  0  0  0  0
  8  5  1  0  0  0  0
 12 11  1  0  0  0  0
 12  2  1  0  0  0  0
 13 10  1  0  0  0  0
 13  9  1  0  0  0  0
 14  4  1  0  0  0  0
 15 20  1  0  0  0  0
 15 18  1  0  0  0  0
 16 17  1  0  0  0  0
 16 12  1  0  0  0  0
 16 11  1  0  0  0  0
 17 14  1  0  0  0  0
 18  9  1  0  0  0  0
 19 25  2  0  0  0  0
 19 20  1  0  0  0  0
 20 21  2  0  0  0  0
 21 24  1  0  0  0  0
 23 24  2  0  0  0  0
 24 22  1  0  0  0  0
 25 23  1  0  0  0  0
 26 17  1  0  0  0  0
 27 28  1  0  0  0  0
 27 26  1  0  0  0  0
 29 27  1  0  0  0  0
 29 28  1  0  0  0  0
 30 27  1  0  0  0  0
 31 30  1  0  0  0  0
 32 31  1  0  0  0  0
 33  3  1  0  0  0  0
 34 33  1  0  0  0  0
 34 37  1  0  0  0  0
 35 34  1  0  0  0  0
 36 34  1  0  0  0  0
M  END
>  <MODEL>
4

>  <REMARK>
 VINA RESULT:      -6.2      2.919      5.315
  Name = 
  7 active torsions:
  status: ('A' for Active; 'I' for Inactive)
    1  A    between atoms: C_1  and  C_4
    2  A    between atoms: C_1  and  C_27
    3  A    between atoms: C_2  and  O_22
    4  A    between atoms: C_4  and  C_12
    5  A    between atoms: C_6  and  O_22
    6  A    between atoms: C_8  and  C_12
    7  A    between atoms: C_23  and  C_30
                            x       y       z     vdW  Elec       q    Type
                         _______ _______ _______ _____ _____    ______ ____

>  <TORSDO>
F 7

$$$$
=
 OpenBabel11122414003D

 37 43  0  0  1  0  0  0  0  0999 V2000
  162.0220  207.0040  150.1370 C   0  0  1  0  0  3  0  0  0  0  0  0
  162.5570  210.0310  151.5180 O   0  0  0  0  0  0  0  0  0  0  0  0
  161.7840  204.4710  150.8070 C   0  0  2  0  0  3  0  0  0  0  0  0
  161.3470  208.0400  150.9750 C   0  0  2  0  0  3  0  0  0  0  0  0
  162.1900  205.9060  151.1960 C   0  0  2  0  0  3  0  0  0  0  0  0
  161.6420  209.4940  150.5980 C   0  0  2  0  0  3  0  0  0  0  0  0
  160.7810  204.4140  149.6700 C   0  0  0  0  0  2  0  0  0  0  0  0
  161.6020  206.3590  152.3940 O   0  0  0  0  0  0  0  0  0  0  0  0
  161.5310  207.5640  147.9010 C   0  0  0  0  0  2  0  0  0  0  0  0
  161.2600  205.3350  148.5660 C   0  0  0  0  0  2  0  0  0  0  0  0
  160.3860  210.7210  152.6790 C   0  0  0  0  0  2  0  0  0  0  0  0
  161.9080  210.7400  152.5740 C   0  0  1  0  0  3  0  0  0  0  0  0
  161.1200  206.7110  149.0150 N   0  0  1  0  0  0  0  0  0  0  0  0
  161.7330  207.7170  152.3360 N   0  0  2  0  0  0  0  0  0  0  0  0
  162.0990  209.7010  149.1410 C   0  0  1  0  0  3  0  0  0  0  0  0
  161.1950  209.8150  153.5920 C   0  0  2  0  0  3  0  0  0  0  0  0
  160.7790  208.3690  153.2370 C   0  0  2  0  0  3  0  0  0  0  0  0
  161.1540  209.0300  148.1360 C   0  0  0  0  0  2  0  0  0  0  0  0
  163.3620  211.6060  148.1350 C   0  0  0  0  0  3  0  0  0  0  0  0
  162.2340  211.1600  148.8270 C   0  0  0  0  0  0  0  0  0  0  0  0
  161.2550  212.0820  149.2210 C   0  0  0  0  0  3  0  0  0  0  0  0
  160.4400  214.3810  149.3070 N   0  0  0  0  0  1  0  0  0  0  0  0
  162.5320  213.8450  148.2380 N   0  0  0  0  0  0  0  0  0  0  0  0
  161.4250  213.4340  148.9130 C   0  0  0  0  0  0  0  0  0  0  0  0
  163.4950  212.9670  147.8470 C   0  0  0  0  0  3  0  0  0  0  0  0
  160.6130  207.5950  154.5440 C   0  0  0  0  0  2  0  0  0  0  0  0
  160.4990  208.5500  155.7230 C   0  0  0  0  0  0  0  0  0  0  0  0
  160.9290  207.9760  157.0520 C   0  0  0  0  0  2  0  0  0  0  0  0
  161.8130  208.9830  156.3280 C   0  0  0  0  0  2  0  0  0  0  0  0
  159.3890  209.5940  155.7890 C   0  0  0  0  0  2  0  0  0  0  0  0
  159.7010  210.6820  156.8050 C   0  0  0  0  0  2  0  0  0  0  0  0
  159.6950  211.9320  156.1860 O   0  0  0  0  0  1  0  0  0  0  0  0
  161.2980  203.7590  151.9180 O   0  0  0  0  0  0  0  0  0  0  0  0
  161.3600  202.3820  151.6190 C   0  0  0  0  0  0  0  0  0  0  0  0
  161.1960  202.1650  150.2600 F   0  0  0  0  0  0  0  0  0  0  0  0
  162.5650  201.8400  152.0400 F   0  0  0  0  0  0  0  0  0  0  0  0
  160.3370  201.7410  152.2900 F   0  0  0  0  0  0  0  0  0  0  0  0
  1  4  1  0  0  0  0
  1  5  1  0  0  0  0
  2 12  1  0  0  0  0
  3  5  1  0  0  0  0
  3 33  1  0  0  0  0
  4 14  1  0  0  0  0
  5  8  1  0  0  0  0
  6  4  1  0  0  0  0
  6  2  1  0  0  0  0
  7  3  1  0  0  0  0
  9 18  1  0  0  0  0
  9 13  1  0  0  0  0
 10 13  1  0  0  0  0
 10  7  1  0  0  0  0
 11 16  1  0  0  0  0
 12 11  1  0  0  0  0
 12 16  1  0  0  0  0
 13  1  1  0  0  0  0
 14  8  1  0  0  0  0
 14 17  1  0  0  0  0
 15  6  1  0  0  0  0
 17 16  1  0  0  0  0
 17 26  1  0  0  0  0
 18 15  1  0  0  0  0
 19 20  1  0  0  0  0
 20 15  1  0  0  0  0
 20 21  2  0  0  0  0
 23 24  2  0  0  0  0
 24 21  1  0  0  0  0
 24 22  1  0  0  0  0
 25 19  2  0  0  0  0
 25 23  1  0  0  0  0
 26 27  1  0  0  0  0
 27 30  1  0  0  0  0
 27 29  1  0  0  0  0
 27 28  1  0  0  0  0
 29 28  1  0  0  0  0
 30 31  1  0  0  0  0
 32 31  1  0  0  0  0
 34 33  1  0  0  0  0
 34 36  1  0  0  0  0
 34 37  1  0  0  0  0
 35 34  1  0  0  0  0
M  END
>  <MODEL>
5

>  <REMARK>
 VINA RESULT:      -6.2      2.992      6.437
  Name = 
  7 active torsions:
  status: ('A' for Active; 'I' for Inactive)
    1  A    between atoms: C_1  and  C_4
    2  A    between atoms: C_1  and  C_27
    3  A    between atoms: C_2  and  O_22
    4  A    between atoms: C_4  and  C_12
    5  A    between atoms: C_6  and  O_22
    6  A    between atoms: C_8  and  C_12
    7  A    between atoms: C_23  and  C_30
                            x       y       z     vdW  Elec       q    Type
                         _______ _______ _______ _____ _____    ______ ____

>  <TORSDO>
F 7

$$$$
=
 OpenBabel11122414003D

 37 43  0  0  1  0  0  0  0  0999 V2000
  161.5820  210.4870  151.9150 C   0  0  1  0  0  3  0  0  0  0  0  0
  160.9940  213.5260  150.5800 O   0  0  0  0  0  0  0  0  0  0  0  0
  161.5040  209.2250  154.2220 C   0  0  2  0  0  3  0  0  0  0  0  0
  160.4610  211.4070  151.5550 C   0  0  2  0  0  3  0  0  0  0  0  0
  161.4720  210.5550  153.4440 C   0  0  2  0  0  3  0  0  0  0  0  0
  160.6440  212.2030  150.2610 C   0  0  2  0  0  3  0  0  0  0  0  0
  161.0880  208.0270  153.3880 C   0  0  0  0  0  2  0  0  0  0  0  0
  160.3740  211.3770  153.7690 O   0  0  0  0  0  0  0  0  0  0  0  0
  161.9800  209.1760  149.9970 C   0  0  0  0  0  2  0  0  0  0  0  0
  161.8250  208.0890  152.0660 C   0  0  0  0  0  2  0  0  0  0  0  0
  158.4560  213.8110  150.4540 C   0  0  0  0  0  2  0  0  0  0  0  0
  159.8590  214.3910  150.6110 C   0  0  1  0  0  3  0  0  0  0  0  0
  161.2880  209.1930  151.2850 N   0  0  1  0  0  0  0  0  0  0  0  0
  160.2940  212.2520  152.7230 N   0  0  2  0  0  0  0  0  0  0  0  0
  161.6250  211.5740  149.2520 C   0  0  1  0  0  3  0  0  0  0  0  0
  158.9490  214.1730  151.8450 C   0  0  2  0  0  3  0  0  0  0  0  0
  158.9600  212.8540  152.6520 C   0  0  2  0  0  3  0  0  0  0  0  0
  161.3060  210.0980  148.9770 C   0  0  0  0  0  2  0  0  0  0  0  0
  162.7170  213.1900  147.6930 C   0  0  0  0  0  3  0  0  0  0  0  0
  161.6390  212.3470  147.9690 C   0  0  0  0  0  0  0  0  0  0  0  0
  160.5870  212.2460  147.0470 C   0  0  0  0  0  3  0  0  0  0  0  0
  159.5790  212.8970  144.9240 N   0  0  0  0  0  1  0  0  0  0  0  0
  161.6990  213.8040  145.6200 N   0  0  0  0  0  0  0  0  0  0  0  0
  160.6380  212.9900  145.8670 C   0  0  0  0  0  0  0  0  0  0  0  0
  162.7300  213.9180  146.5010 C   0  0  0  0  0  3  0  0  0  0  0  0
  158.3950  213.1490  154.0400 C   0  0  0  0  0  2  0  0  0  0  0  0
  156.9590  212.6600  154.1510 C   0  0  0  0  0  0  0  0  0  0  0  0
  156.0030  213.6310  154.8020 C   0  0  0  0  0  2  0  0  0  0  0  0
  155.9600  213.4030  153.2960 C   0  0  0  0  0  2  0  0  0  0  0  0
  156.6410  211.1840  154.3680 C   0  0  0  0  0  2  0  0  0  0  0  0
  155.7710  210.9710  155.5980 C   0  0  0  0  0  2  0  0  0  0  0  0
  154.8570  209.9440  155.3670 O   0  0  0  0  0  1  0  0  0  0  0  0
  160.7240  209.2960  155.3890 O   0  0  0  0  0  0  0  0  0  0  0  0
  161.5850  209.5270  156.4810 C   0  0  0  0  0  0  0  0  0  0  0  0
  161.7100  208.3880  157.2610 F   0  0  0  0  0  0  0  0  0  0  0  0
  162.8360  209.9380  156.0440 F   0  0  0  0  0  0  0  0  0  0  0  0
  161.0450  210.5320  157.2610 F   0  0  0  0  0  0  0  0  0  0  0  0
  1  5  1  0  0  0  0
  2 12  1  0  0  0  0
  3 33  1  0  0  0  0
  4  1  1  0  0  0  0
  4 14  1  0  0  0  0
  5  8  1  0  0  0  0
  5  3  1  0  0  0  0
  6  2  1  0  0  0  0
  6  4  1  0  0  0  0
  7  3  1  0  0  0  0
  9 13  1  0  0  0  0
 10  7  1  0  0  0  0
 11 12  1  0  0  0  0
 11 16  1  0  0  0  0
 12 16  1  0  0  0  0
 13  1  1  0  0  0  0
 13 10  1  0  0  0  0
 14  8  1  0  0  0  0
 15  6  1  0  0  0  0
 16 17  1  0  0  0  0
 17 14  1  0  0  0  0
 17 26  1  0  0  0  0
 18 15  1  0  0  0  0
 18  9  1  0  0  0  0
 19 20  1  0  0  0  0
 20 15  1  0  0  0  0
 21 20  2  0  0  0  0
 22 24  1  0  0  0  0
 23 24  2  0  0  0  0
 23 25  1  0  0  0  0
 24 21  1  0  0  0  0
 25 19  2  0  0  0  0
 26 27  1  0  0  0  0
 27 30  1  0  0  0  0
 27 28  1  0  0  0  0
 29 27  1  0  0  0  0
 29 28  1  0  0  0  0
 30 31  1  0  0  0  0
 32 31  1  0  0  0  0
 33 34  1  0  0  0  0
 34 35  1  0  0  0  0
 34 37  1  0  0  0  0
 36 34  1  0  0  0  0
M  END
>  <MODEL>
6

>  <REMARK>
 VINA RESULT:      -5.9      4.935      8.390
  Name = 
  7 active torsions:
  status: ('A' for Active; 'I' for Inactive)
    1  A    between atoms: C_1  and  C_4
    2  A    between atoms: C_1  and  C_27
    3  A    between atoms: C_2  and  O_22
    4  A    between atoms: C_4  and  C_12
    5  A    between atoms: C_6  and  O_22
    6  A    between atoms: C_8  and  C_12
    7  A    between atoms: C_23  and  C_30
                            x       y       z     vdW  Elec       q    Type
                         _______ _______ _______ _____ _____    ______ ____

>  <TORSDO>
F 7

$$$$
=
 OpenBabel11122414003D

 37 43  0  0  1  0  0  0  0  0999 V2000
  160.6910  203.2490  149.3470 C   0  0  1  0  0  3  0  0  0  0  0  0
  160.6310  206.6170  149.2350 O   0  0  0  0  0  0  0  0  0  0  0  0
  160.6980  201.1570  147.7520 C   0  0  2  0  0  3  0  0  0  0  0  0
  161.5520  204.4210  149.0060 C   0  0  2  0  0  3  0  0  0  0  0  0
  160.4950  202.6730  147.9380 C   0  0  2  0  0  3  0  0  0  0  0  0
  161.3930  205.6470  149.9080 C   0  0  2  0  0  3  0  0  0  0  0  0
  161.5810  200.5300  148.8150 C   0  0  0  0  0  2  0  0  0  0  0  0
  161.2360  203.4610  147.0350 O   0  0  0  0  0  0  0  0  0  0  0  0
  161.0380  202.8400  151.6410 C   0  0  0  0  0  2  0  0  0  0  0  0
  161.1130  201.0180  150.1710 C   0  0  0  0  0  2  0  0  0  0  0  0
  162.9630  207.3860  148.5200 C   0  0  0  0  0  2  0  0  0  0  0  0
  161.4490  207.5760  148.5650 C   0  0  1  0  0  3  0  0  0  0  0  0
  161.4490  202.4280  150.3000 N   0  0  1  0  0  0  0  0  0  0  0  0
  161.2560  204.6980  147.6120 N   0  0  2  0  0  0  0  0  0  0  0  0
  160.8320  205.3450  151.3110 C   0  0  1  0  0  3  0  0  0  0  0  0
  162.1410  207.0190  147.2950 C   0  0  2  0  0  3  0  0  0  0  0  0
  162.3560  205.5040  147.0740 C   0  0  2  0  0  3  0  0  0  0  0  0
  161.6010  204.2160  152.0110 C   0  0  0  0  0  2  0  0  0  0  0  0
  160.8340  206.4450  153.5540 C   0  0  0  0  0  3  0  0  0  0  0  0
  160.8370  206.5780  152.1630 C   0  0  0  0  0  0  0  0  0  0  0  0
  160.8350  207.8570  151.5910 C   0  0  0  0  0  3  0  0  0  0  0  0
  160.8300  210.2820  151.8570 N   0  0  0  0  0  1  0  0  0  0  0  0
  160.8310  208.8240  153.7740 N   0  0  0  0  0  0  0  0  0  0  0  0
  160.8320  208.9790  152.4230 C   0  0  0  0  0  0  0  0  0  0  0  0
  160.8310  207.5910  154.3510 C   0  0  0  0  0  3  0  0  0  0  0  0
  162.5490  205.2720  145.5770 C   0  0  0  0  0  2  0  0  0  0  0  0
  161.3690  205.8220  144.7900 C   0  0  0  0  0  0  0  0  0  0  0  0
  160.1460  204.9370  144.7720 C   0  0  0  0  0  2  0  0  0  0  0  0
  160.1660  206.2030  145.6200 C   0  0  0  0  0  2  0  0  0  0  0  0
  161.5810  206.6730  143.5420 C   0  0  0  0  0  2  0  0  0  0  0  0
  161.5810  205.8250  142.2780 C   0  0  0  0  0  2  0  0  0  0  0  0
  161.9560  206.6000  141.1810 O   0  0  0  0  0  1  0  0  0  0  0  0
  161.1980  200.8610  146.4710 O   0  0  0  0  0  0  0  0  0  0  0  0
  160.1340  200.9530  145.5510 C   0  0  0  0  0  0  0  0  0  0  0  0
  159.9700  199.7590  144.8660 F   0  0  0  0  0  0  0  0  0  0  0  0
  158.9530  201.2930  146.1940 F   0  0  0  0  0  0  0  0  0  0  0  0
  160.4310  201.9450  144.6350 F   0  0  0  0  0  0  0  0  0  0  0  0
  1 13  1  0  0  0  0
  2  6  1  0  0  0  0
  3  5  1  0  0  0  0
  3  7  1  0  0  0  0
  4  1  1  0  0  0  0
  4  6  1  0  0  0  0
  5  1  1  0  0  0  0
  6 15  1  0  0  0  0
  7 10  1  0  0  0  0
  8 14  1  0  0  0  0
  8  5  1  0  0  0  0
  9 18  1  0  0  0  0
 10 13  1  0  0  0  0
 11 12  1  0  0  0  0
 12  2  1  0  0  0  0
 13  9  1  0  0  0  0
 14  4  1  0  0  0  0
 15 18  1  0  0  0  0
 15 20  1  0  0  0  0
 16 11  1  0  0  0  0
 16 12  1  0  0  0  0
 17 16  1  0  0  0  0
 17 14  1  0  0  0  0
 19 25  1  0  0  0  0
 20 19  2  0  0  0  0
 21 20  1  0  0  0  0
 21 24  2  0  0  0  0
 22 24  1  0  0  0  0
 23 25  2  0  0  0  0
 24 23  1  0  0  0  0
 26 17  1  0  0  0  0
 27 26  1  0  0  0  0
 27 29  1  0  0  0  0
 28 27  1  0  0  0  0
 28 29  1  0  0  0  0
 30 27  1  0  0  0  0
 31 30  1  0  0  0  0
 32 31  1  0  0  0  0
 33  3  1  0  0  0  0
 34 36  1  0  0  0  0
 34 33  1  0  0  0  0
 35 34  1  0  0  0  0
 37 34  1  0  0  0  0
M  END
>  <MODEL>
7

>  <REMARK>
 VINA RESULT:      -5.8      3.005      4.996
  Name = 
  7 active torsions:
  status: ('A' for Active; 'I' for Inactive)
    1  A    between atoms: C_1  and  C_4
    2  A    between atoms: C_1  and  C_27
    3  A    between atoms: C_2  and  O_22
    4  A    between atoms: C_4  and  C_12
    5  A    between atoms: C_6  and  O_22
    6  A    between atoms: C_8  and  C_12
    7  A    between atoms: C_23  and  C_30
                            x       y       z     vdW  Elec       q    Type
                         _______ _______ _______ _____ _____    ______ ____

>  <TORSDO>
F 7

$$$$
=
 OpenBabel11122414003D

 37 43  0  0  1  0  0  0  0  0999 V2000
  161.7310  207.2410  152.6190 C   0  0  1  0  0  3  0  0  0  0  0  0
  162.7250  206.9110  149.4160 O   0  0  0  0  0  0  0  0  0  0  0  0
  161.8350  208.9460  154.6200 C   0  0  2  0  0  3  0  0  0  0  0  0
  161.4360  207.7530  151.2470 C   0  0  2  0  0  3  0  0  0  0  0  0
  162.3370  208.5120  153.2290 C   0  0  2  0  0  3  0  0  0  0  0  0
  161.5240  206.7210  150.1200 C   0  0  2  0  0  3  0  0  0  0  0  0
  160.4570  208.4090  154.9600 C   0  0  0  0  0  2  0  0  0  0  0  0
  162.2790  209.5340  152.2600 O   0  0  0  0  0  0  0  0  0  0  0  0
  160.3610  205.3450  152.9070 C   0  0  0  0  0  2  0  0  0  0  0  0
  160.4270  206.9310  154.6290 C   0  0  0  0  0  2  0  0  0  0  0  0
  161.2020  208.3990  148.0010 C   0  0  0  0  0  2  0  0  0  0  0  0
  162.5490  207.7300  148.2610 C   0  0  1  0  0  3  0  0  0  0  0  0
  160.4560  206.7780  153.1820 N   0  0  1  0  0  0  0  0  0  0  0  0
  162.3500  208.8670  151.0700 N   0  0  2  0  0  0  0  0  0  0  0  0
  161.3440  205.2580  150.5710 C   0  0  1  0  0  3  0  0  0  0  0  0
  162.3300  209.2280  148.5930 C   0  0  2  0  0  3  0  0  0  0  0  0
  161.8340  209.6980  149.9790 C   0  0  2  0  0  3  0  0  0  0  0  0
  160.0850  205.0670  151.4260 C   0  0  0  0  0  2  0  0  0  0  0  0
  160.9800  202.9940  149.5830 C   0  0  0  0  0  3  0  0  0  0  0  0
  161.3120  204.3370  149.3910 C   0  0  0  0  0  0  0  0  0  0  0  0
  161.6160  204.7960  148.1010 C   0  0  0  0  0  3  0  0  0  0  0  0
  161.8870  204.3520  145.7180 N   0  0  0  0  0  1  0  0  0  0  0  0
  161.2540  202.5970  147.2430 N   0  0  0  0  0  0  0  0  0  0  0  0
  161.5810  203.9010  147.0310 C   0  0  0  0  0  0  0  0  0  0  0  0
  160.9560  202.1310  148.4860 C   0  0  0  0  0  3  0  0  0  0  0  0
  162.2290  211.1640  150.1460 C   0  0  0  0  0  2  0  0  0  0  0  0
  161.9320  211.9490  148.8770 C   0  0  0  0  0  0  0  0  0  0  0  0
  160.5150  211.8270  148.3690 C   0  0  0  0  0  2  0  0  0  0  0  0
  160.9810  213.1090  149.0480 C   0  0  0  0  0  2  0  0  0  0  0  0
  162.9980  212.1480  147.8040 C   0  0  0  0  0  2  0  0  0  0  0  0
  162.7070  213.3690  146.9440 C   0  0  0  0  0  2  0  0  0  0  0  0
  162.4500  212.9790  145.6290 O   0  0  0  0  0  1  0  0  0  0  0  0
  161.8570  210.3450  154.7590 O   0  0  0  0  0  0  0  0  0  0  0  0
  162.5800  210.6610  155.9270 C   0  0  0  0  0  0  0  0  0  0  0  0
  161.9640  211.6880  156.6260 F   0  0  0  0  0  0  0  0  0  0  0  0
  162.7070  209.5470  156.7440 F   0  0  0  0  0  0  0  0  0  0  0  0
  163.8450  211.0780  155.5620 F   0  0  0  0  0  0  0  0  0  0  0  0
  1 13  1  0  0  0  0
  1  5  1  0  0  0  0
  2  6  1  0  0  0  0
  3 33  1  0  0  0  0
  3  7  1  0  0  0  0
  4  1  1  0  0  0  0
  5  3  1  0  0  0  0
  6 15  1  0  0  0  0
  6  4  1  0  0  0  0
  8  5  1  0  0  0  0
  9 13  1  0  0  0  0
 10  7  1  0  0  0  0
 11 12  1  0  0  0  0
 11 16  1  0  0  0  0
 12 16  1  0  0  0  0
 12  2  1  0  0  0  0
 13 10  1  0  0  0  0
 14  4  1  0  0  0  0
 14  8  1  0  0  0  0
 15 18  1  0  0  0  0
 16 17  1  0  0  0  0
 17 26  1  0  0  0  0
 17 14  1  0  0  0  0
 18  9  1  0  0  0  0
 20 19  1  0  0  0  0
 20 15  1  0  0  0  0
 21 20  2  0  0  0  0
 22 24  1  0  0  0  0
 23 25  1  0  0  0  0
 24 23  2  0  0  0  0
 24 21  1  0  0  0  0
 25 19  2  0  0  0  0
 27 29  1  0  0  0  0
 27 26  1  0  0  0  0
 28 27  1  0  0  0  0
 28 29  1  0  0  0  0
 30 27  1  0  0  0  0
 31 30  1  0  0  0  0
 32 31  1  0  0  0  0
 33 34  1  0  0  0  0
 34 35  1  0  0  0  0
 34 36  1  0  0  0  0
 37 34  1  0  0  0  0
M  END
>  <MODEL>
8

>  <REMARK>
 VINA RESULT:      -5.7      4.070      6.814
  Name = 
  7 active torsions:
  status: ('A' for Active; 'I' for Inactive)
    1  A    between atoms: C_1  and  C_4
    2  A    between atoms: C_1  and  C_27
    3  A    between atoms: C_2  and  O_22
    4  A    between atoms: C_4  and  C_12
    5  A    between atoms: C_6  and  O_22
    6  A    between atoms: C_8  and  C_12
    7  A    between atoms: C_23  and  C_30
                            x       y       z     vdW  Elec       q    Type
                         _______ _______ _______ _____ _____    ______ ____

>  <TORSDO>
F 7

$$$$
=
 OpenBabel11122414003D

 37 43  0  0  1  0  0  0  0  0999 V2000
  161.7330  207.2350  152.6240 C   0  0  1  0  0  3  0  0  0  0  0  0
  162.7170  206.8680  149.4220 O   0  0  0  0  0  0  0  0  0  0  0  0
  161.8530  208.9590  154.6080 C   0  0  2  0  0  3  0  0  0  0  0  0
  161.4380  207.7360  151.2480 C   0  0  2  0  0  3  0  0  0  0  0  0
  162.3480  208.5080  153.2200 C   0  0  2  0  0  3  0  0  0  0  0  0
  161.5170  206.6930  150.1310 C   0  0  2  0  0  3  0  0  0  0  0  0
  160.4720  208.4330  154.9570 C   0  0  0  0  0  2  0  0  0  0  0  0
  162.2950  209.5210  152.2420 O   0  0  0  0  0  0  0  0  0  0  0  0
  160.3520  205.3500  152.9340 C   0  0  0  0  0  2  0  0  0  0  0  0
  160.4320  206.9530  154.6400 C   0  0  0  0  0  2  0  0  0  0  0  0
  161.2000  208.3520  147.9960 C   0  0  0  0  0  2  0  0  0  0  0  0
  162.5440  207.6780  148.2590 C   0  0  1  0  0  3  0  0  0  0  0  0
  160.4560  206.7850  153.1950 N   0  0  1  0  0  0  0  0  0  0  0  0
  162.3580  208.8430  151.0580 N   0  0  2  0  0  0  0  0  0  0  0  0
  161.3290  205.2360  150.5960 C   0  0  1  0  0  3  0  0  0  0  0  0
  162.3350  209.1790  148.5780 C   0  0  2  0  0  3  0  0  0  0  0  0
  161.8440  209.6660  149.9600 C   0  0  2  0  0  3  0  0  0  0  0  0
  160.0700  205.0600  151.4560 C   0  0  0  0  0  2  0  0  0  0  0  0
  160.9140  202.9730  149.6250 C   0  0  0  0  0  3  0  0  0  0  0  0
  161.2880  204.3030  149.4250 C   0  0  0  0  0  0  0  0  0  0  0  0
  161.6260  204.7390  148.1360 C   0  0  0  0  0  3  0  0  0  0  0  0
  161.9210  204.2620  145.7620 N   0  0  0  0  0  1  0  0  0  0  0  0
  161.2120  202.5430  147.2940 N   0  0  0  0  0  0  0  0  0  0  0  0
  161.5810  203.8340  147.0740 C   0  0  0  0  0  0  0  0  0  0  0  0
  160.8810  202.0990  148.5360 C   0  0  0  0  0  3  0  0  0  0  0  0
  162.2490  211.1310  150.1120 C   0  0  0  0  0  2  0  0  0  0  0  0
  161.1810  212.0470  149.5350 C   0  0  0  0  0  0  0  0  0  0  0  0
  161.6990  213.1440  148.6350 C   0  0  0  0  0  2  0  0  0  0  0  0
  160.9800  211.9390  148.0420 C   0  0  0  0  0  2  0  0  0  0  0  0
  159.9230  212.3900  150.3260 C   0  0  0  0  0  2  0  0  0  0  0  0
  160.1530  212.2720  151.8260 C   0  0  0  0  0  2  0  0  0  0  0  0
  159.2250  211.3940  152.3860 O   0  0  0  0  0  1  0  0  0  0  0  0
  161.8830  210.3590  154.7330 O   0  0  0  0  0  0  0  0  0  0  0  0
  162.6380  210.6820  155.8800 C   0  0  0  0  0  0  0  0  0  0  0  0
  162.6990  209.6050  156.7500 F   0  0  0  0  0  0  0  0  0  0  0  0
  163.9200  211.0780  155.5310 F   0  0  0  0  0  0  0  0  0  0  0  0
  162.0200  211.7330  156.5300 F   0  0  0  0  0  0  0  0  0  0  0  0
  1 13  1  0  0  0  0
  1  5  1  0  0  0  0
  2  6  1  0  0  0  0
  3 33  1  0  0  0  0
  3  7  1  0  0  0  0
  4  1  1  0  0  0  0
  5  3  1  0  0  0  0
  6 15  1  0  0  0  0
  6  4  1  0  0  0  0
  8  5  1  0  0  0  0
  9 13  1  0  0  0  0
 10  7  1  0  0  0  0
 11 12  1  0  0  0  0
 11 16  1  0  0  0  0
 12 16  1  0  0  0  0
 12  2  1  0  0  0  0
 13 10  1  0  0  0  0
 14  4  1  0  0  0  0
 14  8  1  0  0  0  0
 15 18  1  0  0  0  0
 16 17  1  0  0  0  0
 17 26  1  0  0  0  0
 17 14  1  0  0  0  0
 18  9  1  0  0  0  0
 20 19  1  0  0  0  0
 20 15  1  0  0  0  0
 21 20  2  0  0  0  0
 22 24  1  0  0  0  0
 23 25  1  0  0  0  0
 24 23  2  0  0  0  0
 24 21  1  0  0  0  0
 25 19  2  0  0  0  0
 27 26  1  0  0  0  0
 27 30  1  0  0  0  0
 28 27  1  0  0  0  0
 29 28  1  0  0  0  0
 29 27  1  0  0  0  0
 30 31  1  0  0  0  0
 31 32  1  0  0  0  0
 33 34  1  0  0  0  0
 34 37  1  0  0  0  0
 34 35  1  0  0  0  0
 36 34  1  0  0  0  0
M  END
>  <MODEL>
9

>  <REMARK>
 VINA RESULT:      -5.6      4.097      6.794
  Name = 
  7 active torsions:
  status: ('A' for Active; 'I' for Inactive)
    1  A    between atoms: C_1  and  C_4
    2  A    between atoms: C_1  and  C_27
    3  A    between atoms: C_2  and  O_22
    4  A    between atoms: C_4  and  C_12
    5  A    between atoms: C_6  and  O_22
    6  A    between atoms: C_8  and  C_12
    7  A    between atoms: C_23  and  C_30
                            x       y       z     vdW  Elec       q    Type
                         _______ _______ _______ _____ _____    ______ ____

>  <TORSDO>
F 7

$$$$
