=
 OpenBabel11122412413D

 30 35  0  0  1  0  0  0  0  0999 V2000
  161.6660  205.1140  149.3310 C   0  0  2  0  0  3  0  0  0  0  0  0
  160.9910  202.6480  149.2850 C   0  0  0  0  0  0  0  0  0  0  0  0
  161.0720  205.0310  153.5910 N   0  0  0  0  0  2  0  0  0  0  0  0
  161.8920  206.3670  150.2540 C   0  0  1  0  0  3  0  0  0  0  0  0
  160.7470  205.4400  148.1490 C   0  0  0  0  0  2  0  0  0  0  0  0
  163.3180  207.7150  148.0070 O   0  0  0  0  0  1  0  0  0  0  0  0
  160.7490  209.3910  151.2790 C   0  0  1  0  0  3  0  0  0  0  0  0
  161.9240  207.7180  148.0880 C   0  0  1  0  0  3  0  0  0  0  0  0
  160.3930  208.4500  152.4440 C   0  0  2  0  0  3  0  0  0  0  0  0
  161.0410  206.4250  153.8540 C   0  0  0  0  0  0  0  0  0  0  0  0
  161.3610  206.5420  147.2770 C   0  0  2  0  0  3  0  0  0  0  0  0
  161.4700  207.6770  149.5510 C   0  0  2  0  0  3  0  0  0  0  0  0
  160.5910  201.4720  149.9240 C   0  0  0  0  0  3  0  0  0  0  0  0
  160.3940  209.3730  153.6310 C   0  0  0  0  0  2  0  0  0  0  0  0
  161.0330  210.6740  151.7780 O   0  0  0  0  0  0  0  0  0  0  0  0
  161.1480  202.6350  147.9380 F   0  0  0  0  0  0  0  0  0  0  0  0
  161.5720  204.9340  152.2340 C   0  0  2  0  0  3  0  0  0  0  0  0
  160.4560  201.4320  151.3120 C   0  0  0  0  0  3  0  0  0  0  0  0
  161.2340  203.8190  150.0330 C   0  0  0  0  0  0  0  0  0  0  0  0
  161.1360  206.2120  151.5660 C   0  0  1  0  0  3  0  0  0  0  0  0
  160.8310  206.8820  155.0080 O   0  0  0  0  0  0  0  0  0  0  0  0
  161.3510  207.2640  152.6490 C   0  0  1  0  0  3  0  0  0  0  0  0
  160.3770  210.7460  153.0130 C   0  0  0  0  0  2  0  0  0  0  0  0
  163.0970  208.8620  150.9160 O   0  0  0  0  0  1  0  0  0  0  0  0
  160.7330  202.5690  152.0710 C   0  0  0  0  0  3  0  0  0  0  0  0
  161.1090  203.7610  151.4420 C   0  0  0  0  0  0  0  0  0  0  0  0
  161.8470  208.9550  150.2980 C   0  0  2  0  0  3  0  0  0  0  0  0
  160.3340  207.0570  146.2790 C   0  0  0  0  0  2  0  0  0  0  0  0
  161.2780  205.5560  144.5230 C   0  0  0  0  0  1  0  0  0  0  0  0
  160.0110  206.0090  145.2250 C   0  0  0  0  0  2  0  0  0  0  0  0
  1  5  1  6  0  0  0
  1 19  1  0  0  0  0
  1  4  1  0  0  0  0
  2 13  2  0  0  0  0
  2 19  1  0  0  0  0
  3 10  1  0  0  0  0
  4 20  1  0  0  0  0
  6  8  1  0  0  0  0
  7 15  1  0  0  0  0
  7  9  1  0  0  0  0
  8 12  1  0  0  0  0
  9 22  1  0  0  0  0
  9 14  1  0  0  0  0
 10 21  2  0  0  0  0
 11  8  1  0  0  0  0
 11  5  1  0  0  0  0
 12  4  1  0  0  0  0
 12 27  1  0  0  0  0
 13 18  1  0  0  0  0
 15 23  1  0  0  0  0
 16  2  1  0  0  0  0
 17  3  1  0  0  0  0
 18 25  2  0  0  0  0
 19 26  2  0  0  0  0
 20 17  1  0  0  0  0
 20 22  1  0  0  0  0
 22 10  1  0  0  0  0
 23 14  1  0  0  0  0
 26 25  1  0  0  0  0
 26 17  1  0  0  0  0
 27 24  1  0  0  0  0
 27  7  1  0  0  0  0
 28 11  1  0  0  0  0
 29 30  1  0  0  0  0
 30 28  1  0  0  0  0
M  END
>  <MODEL>
1

>  <REMARK>
 VINA RESULT:      -7.6      0.000      0.000
  Name = 
  2 active torsions:
  status: ('A' for Active; 'I' for Inactive)
    1  A    between atoms: C_11  and  C_28
    2  A    between atoms: C_28  and  C_30
                            x       y       z     vdW  Elec       q    Type
                         _______ _______ _______ _____ _____    ______ ____

>  <TORSDO>
F 2

$$$$
=
 OpenBabel11122412413D

 30 35  0  0  1  0  0  0  0  0999 V2000
  161.8900  208.0960  151.7260 C   0  0  2  0  0  3  0  0  0  0  0  0
  161.7530  210.5210  150.9260 C   0  0  0  0  0  0  0  0  0  0  0  0
  162.1050  206.9150  147.5950 N   0  0  0  0  0  2  0  0  0  0  0  0
  162.0080  206.5960  151.2670 C   0  0  1  0  0  3  0  0  0  0  0  0
  160.7240  208.2980  152.7000 C   0  0  0  0  0  2  0  0  0  0  0  0
  162.6880  205.8330  154.0700 O   0  0  0  0  0  1  0  0  0  0  0  0
  160.4570  203.6050  150.8800 C   0  0  1  0  0  3  0  0  0  0  0  0
  161.3630  206.0090  153.6660 C   0  0  1  0  0  3  0  0  0  0  0  0
  160.5240  204.1720  149.4500 C   0  0  2  0  0  3  0  0  0  0  0  0
  161.8280  205.5290  147.7290 C   0  0  0  0  0  0  0  0  0  0  0  0
  160.9240  207.4500  153.9630 C   0  0  2  0  0  3  0  0  0  0  0  0
  161.2000  205.6520  152.1850 C   0  0  2  0  0  3  0  0  0  0  0  0
  161.7330  211.4800  149.9100 C   0  0  0  0  0  3  0  0  0  0  0  0
  160.5440  202.9310  148.6010 C   0  0  0  0  0  2  0  0  0  0  0  0
  160.5490  202.2030  150.8370 O   0  0  0  0  0  0  0  0  0  0  0  0
  161.6640  210.9360  152.2140 F   0  0  0  0  0  0  0  0  0  0  0  0
  162.3620  207.3600  148.9500 C   0  0  2  0  0  3  0  0  0  0  0  0
  161.8620  211.0980  148.5750 C   0  0  0  0  0  3  0  0  0  0  0  0
  161.8740  209.1500  150.6110 C   0  0  0  0  0  0  0  0  0  0  0  0
  161.5510  206.4380  149.8230 C   0  0  1  0  0  3  0  0  0  0  0  0
  161.7390  204.7660  146.7310 O   0  0  0  0  0  0  0  0  0  0  0  0
  161.7320  205.0770  149.1570 C   0  0  1  0  0  3  0  0  0  0  0  0
  160.1260  201.8420  149.5520 C   0  0  0  0  0  2  0  0  0  0  0  0
  162.7590  203.8710  151.6260 O   0  0  0  0  0  1  0  0  0  0  0  0
  162.0250  209.7520  148.2480 C   0  0  0  0  0  3  0  0  0  0  0  0
  162.0210  208.7780  149.2540 C   0  0  0  0  0  0  0  0  0  0  0  0
  161.4260  204.1630  151.9320 C   0  0  2  0  0  3  0  0  0  0  0  0
  159.6490  207.4340  154.7920 C   0  0  0  0  0  2  0  0  0  0  0  0
  161.2070  208.0950  156.6250 C   0  0  0  0  0  1  0  0  0  0  0  0
  159.9550  207.3130  156.2770 C   0  0  0  0  0  2  0  0  0  0  0  0
  1  5  1  6  0  0  0
  2 16  1  0  0  0  0
  3 10  1  0  0  0  0
  3 17  1  0  0  0  0
  4  1  1  0  0  0  0
  4 12  1  0  0  0  0
  5 11  1  0  0  0  0
  7 27  1  0  0  0  0
  8 11  1  0  0  0  0
  8  6  1  0  0  0  0
  9  7  1  0  0  0  0
 10 22  1  0  0  0  0
 11 28  1  0  0  0  0
 12  8  1  0  0  0  0
 13  2  2  0  0  0  0
 14  9  1  0  0  0  0
 14 23  1  0  0  0  0
 15  7  1  0  0  0  0
 17 26  1  0  0  0  0
 17 20  1  0  0  0  0
 18 13  1  0  0  0  0
 19  2  1  0  0  0  0
 19  1  1  0  0  0  0
 20  4  1  0  0  0  0
 21 10  2  0  0  0  0
 22  9  1  0  0  0  0
 22 20  1  0  0  0  0
 23 15  1  0  0  0  0
 24 27  1  0  0  0  0
 25 18  2  0  0  0  0
 25 26  1  0  0  0  0
 26 19  2  0  0  0  0
 27 12  1  0  0  0  0
 28 30  1  0  0  0  0
 30 29  1  0  0  0  0
M  END
>  <MODEL>
2

>  <REMARK>
 VINA RESULT:      -7.4      2.974      7.178
  Name = 
  2 active torsions:
  status: ('A' for Active; 'I' for Inactive)
    1  A    between atoms: C_11  and  C_28
    2  A    between atoms: C_28  and  C_30
                            x       y       z     vdW  Elec       q    Type
                         _______ _______ _______ _____ _____    ______ ____

>  <TORSDO>
F 2

$$$$
=
 OpenBabel11122412413D

 30 35  0  0  1  0  0  0  0  0999 V2000
  161.1710  210.4800  152.0610 C   0  0  2  0  0  3  0  0  0  0  0  0
  160.7770  212.6030  150.6920 C   0  0  0  0  0  0  0  0  0  0  0  0
  162.2080  208.4960  148.3870 N   0  0  0  0  0  2  0  0  0  0  0  0
  161.5950  208.9670  151.9920 C   0  0  1  0  0  3  0  0  0  0  0  0
  159.8520  210.6620  152.8190 C   0  0  0  0  0  2  0  0  0  0  0  0
  161.9460  208.9720  154.9550 O   0  0  0  0  0  1  0  0  0  0  0  0
  160.6180  205.7250  152.1620 C   0  0  1  0  0  3  0  0  0  0  0  0
  160.6880  208.8010  154.3730 C   0  0  1  0  0  3  0  0  0  0  0  0
  160.8140  205.9700  150.6540 C   0  0  2  0  0  3  0  0  0  0  0  0
  162.1370  207.1460  148.8180 C   0  0  0  0  0  0  0  0  0  0  0  0
  159.9860  210.1620  154.2620 C   0  0  2  0  0  3  0  0  0  0  0  0
  160.8150  208.1080  153.0120 C   0  0  2  0  0  3  0  0  0  0  0  0
  160.7620  213.2980  149.4800 C   0  0  0  0  0  3  0  0  0  0  0  0
  161.1620  204.6020  150.1360 C   0  0  0  0  0  2  0  0  0  0  0  0
  160.9360  204.3900  152.4670 O   0  0  0  0  0  0  0  0  0  0  0  0
  160.4240  213.2620  151.8240 F   0  0  0  0  0  0  0  0  0  0  0  0
  162.1770  209.2650  149.6150 C   0  0  2  0  0  3  0  0  0  0  0  0
  161.1550  212.6690  148.2990 C   0  0  0  0  0  3  0  0  0  0  0  0
  161.1610  211.2460  150.7310 C   0  0  0  0  0  0  0  0  0  0  0  0
  161.3990  208.4170  150.5870 C   0  0  1  0  0  3  0  0  0  0  0  0
  162.3260  206.1830  148.0280 O   0  0  0  0  0  0  0  0  0  0  0  0
  161.8940  207.0040  150.2920 C   0  0  1  0  0  3  0  0  0  0  0  0
  160.7800  203.6850  151.2680 C   0  0  0  0  0  2  0  0  0  0  0  0
  162.7050  206.5780  153.0790 O   0  0  0  0  0  1  0  0  0  0  0  0
  161.5780  211.3400  148.3260 C   0  0  0  0  0  3  0  0  0  0  0  0
  161.5730  210.6240  149.5290 C   0  0  0  0  0  0  0  0  0  0  0  0
  161.3110  206.6700  153.1520 C   0  0  2  0  0  3  0  0  0  0  0  0
  158.6160  210.0830  154.9210 C   0  0  0  0  0  2  0  0  0  0  0  0
  156.3670  211.1560  155.0340 C   0  0  0  0  0  1  0  0  0  0  0  0
  157.8390  211.3780  154.7410 C   0  0  0  0  0  2  0  0  0  0  0  0
  1  5  1  6  0  0  0
  2 19  1  0  0  0  0
  2 16  1  0  0  0  0
  3 10  1  0  0  0  0
  3 17  1  0  0  0  0
  4  1  1  0  0  0  0
  4 12  1  0  0  0  0
  5 11  1  0  0  0  0
  7 15  1  0  0  0  0
  7 27  1  0  0  0  0
  8  6  1  0  0  0  0
  9  7  1  0  0  0  0
 10 22  1  0  0  0  0
 11  8  1  0  0  0  0
 11 28  1  0  0  0  0
 12 27  1  0  0  0  0
 12  8  1  0  0  0  0
 13  2  2  0  0  0  0
 14  9  1  0  0  0  0
 14 23  1  0  0  0  0
 17 20  1  0  0  0  0
 18 25  2  0  0  0  0
 18 13  1  0  0  0  0
 19  1  1  0  0  0  0
 20  4  1  0  0  0  0
 21 10  2  0  0  0  0
 22 20  1  0  0  0  0
 22  9  1  0  0  0  0
 23 15  1  0  0  0  0
 24 27  1  0  0  0  0
 25 26  1  0  0  0  0
 26 17  1  0  0  0  0
 26 19  2  0  0  0  0
 30 28  1  0  0  0  0
 30 29  1  0  0  0  0
M  END
>  <MODEL>
3

>  <REMARK>
 VINA RESULT:      -6.4      3.204      7.483
  Name = 
  2 active torsions:
  status: ('A' for Active; 'I' for Inactive)
    1  A    between atoms: C_11  and  C_28
    2  A    between atoms: C_28  and  C_30
                            x       y       z     vdW  Elec       q    Type
                         _______ _______ _______ _____ _____    ______ ____

>  <TORSDO>
F 2

$$$$
=
 OpenBabel11122412413D

 30 35  0  0  1  0  0  0  0  0999 V2000
  160.0170  211.9610  153.3440 C   0  0  2  0  0  3  0  0  0  0  0  0
  159.3940  213.7860  151.6650 C   0  0  0  0  0  0  0  0  0  0  0  0
  162.0300  209.9210  150.1360 N   0  0  0  0  0  2  0  0  0  0  0  0
  160.7660  210.5910  153.5340 C   0  0  1  0  0  3  0  0  0  0  0  0
  158.5870  211.9040  153.8900 C   0  0  0  0  0  2  0  0  0  0  0  0
  160.6310  210.9730  156.4900 O   0  0  0  0  0  1  0  0  0  0  0  0
  160.5020  207.2430  154.0030 C   0  0  1  0  0  3  0  0  0  0  0  0
  159.5500  210.4550  155.7750 C   0  0  1  0  0  3  0  0  0  0  0  0
  160.8770  207.3770  152.5150 C   0  0  2  0  0  3  0  0  0  0  0  0
  162.1870  208.6410  150.7290 C   0  0  0  0  0  0  0  0  0  0  0  0
  158.5950  211.5950  155.3920 C   0  0  2  0  0  3  0  0  0  0  0  0
  160.0380  209.6790  154.5470 C   0  0  2  0  0  3  0  0  0  0  0  0
  159.4210  214.3340  150.3800 C   0  0  0  0  0  3  0  0  0  0  0  0
  161.5920  206.0850  152.2340 C   0  0  0  0  0  2  0  0  0  0  0  0
  161.0500  206.0580  154.5230 O   0  0  0  0  0  0  0  0  0  0  0  0
  158.7310  214.4530  152.6430 F   0  0  0  0  0  0  0  0  0  0  0  0
  161.6390  210.7790  151.2360 C   0  0  2  0  0  3  0  0  0  0  0  0
  160.1240  213.7000  149.3560 C   0  0  0  0  0  3  0  0  0  0  0  0
  160.0520  212.5680  151.9350 C   0  0  0  0  0  0  0  0  0  0  0  0
  160.9190  209.8730  152.2010 C   0  0  1  0  0  3  0  0  0  0  0  0
  162.7030  207.6760  150.1070 O   0  0  0  0  0  0  0  0  0  0  0  0
  161.7500  208.5940  152.1640 C   0  0  1  0  0  3  0  0  0  0  0  0
  161.2430  205.2210  153.4170 C   0  0  0  0  0  2  0  0  0  0  0  0
  162.1810  208.6490  155.0650 O   0  0  0  0  0  1  0  0  0  0  0  0
  160.8160  212.5170  149.6150 C   0  0  0  0  0  3  0  0  0  0  0  0
  160.7750  211.9430  150.8910 C   0  0  0  0  0  0  0  0  0  0  0  0
  160.8070  208.4190  154.9410 C   0  0  2  0  0  3  0  0  0  0  0  0
  157.1890  211.2630  155.8690 C   0  0  0  0  0  2  0  0  0  0  0  0
  155.1280  210.2030  154.9430 C   0  0  0  0  0  1  0  0  0  0  0  0
  156.1990  211.2530  154.7140 C   0  0  0  0  0  2  0  0  0  0  0  0
  1  4  1  0  0  0  0
  1  5  1  6  0  0  0
  2 19  1  0  0  0  0
  2 16  1  0  0  0  0
  3 10  1  0  0  0  0
  3 17  1  0  0  0  0
  4 12  1  0  0  0  0
  5 11  1  0  0  0  0
  7 15  1  0  0  0  0
  7 27  1  0  0  0  0
  8  6  1  0  0  0  0
  9  7  1  0  0  0  0
 10 22  1  0  0  0  0
 11  8  1  0  0  0  0
 11 28  1  0  0  0  0
 12 27  1  0  0  0  0
 12  8  1  0  0  0  0
 13  2  2  0  0  0  0
 14  9  1  0  0  0  0
 14 23  1  0  0  0  0
 17 20  1  0  0  0  0
 18 25  2  0  0  0  0
 18 13  1  0  0  0  0
 19  1  1  0  0  0  0
 20  4  1  0  0  0  0
 21 10  2  0  0  0  0
 22 20  1  0  0  0  0
 22  9  1  0  0  0  0
 23 15  1  0  0  0  0
 25 26  1  0  0  0  0
 26 17  1  0  0  0  0
 26 19  2  0  0  0  0
 27 24  1  0  0  0  0
 30 29  1  0  0  0  0
 30 28  1  0  0  0  0
M  END
>  <MODEL>
4

>  <REMARK>
 VINA RESULT:      -6.1      4.092      8.212
  Name = 
  2 active torsions:
  status: ('A' for Active; 'I' for Inactive)
    1  A    between atoms: C_11  and  C_28
    2  A    between atoms: C_28  and  C_30
                            x       y       z     vdW  Elec       q    Type
                         _______ _______ _______ _____ _____    ______ ____

>  <TORSDO>
F 2

$$$$
=
 OpenBabel11122412413D

 30 35  0  0  1  0  0  0  0  0999 V2000
  162.0010  207.5940  151.0100 C   0  0  2  0  0  3  0  0  0  0  0  0
  161.6160  205.3430  149.8580 C   0  0  0  0  0  0  0  0  0  0  0  0
  160.4600  205.8280  154.6180 N   0  0  0  0  0  2  0  0  0  0  0  0
  161.8770  208.3810  152.3670 C   0  0  1  0  0  3  0  0  0  0  0  0
  161.3470  208.3560  149.8530 C   0  0  0  0  0  2  0  0  0  0  0  0
  163.6300  210.5170  151.2410 O   0  0  0  0  0  1  0  0  0  0  0  0
  160.2200  210.7450  154.1450 C   0  0  1  0  0  3  0  0  0  0  0  0
  162.2620  210.4790  150.9640 C   0  0  1  0  0  3  0  0  0  0  0  0
  159.7070  209.4180  154.7320 C   0  0  2  0  0  3  0  0  0  0  0  0
  160.2230  207.0040  155.3770 C   0  0  0  0  0  0  0  0  0  0  0  0
  162.0260  209.7160  149.6520 C   0  0  2  0  0  3  0  0  0  0  0  0
  161.4920  209.8600  152.1350 C   0  0  2  0  0  3  0  0  0  0  0  0
  161.2060  204.0080  149.8780 C   0  0  0  0  0  3  0  0  0  0  0  0
  159.3400  209.7960  156.1410 C   0  0  0  0  0  2  0  0  0  0  0  0
  160.2460  211.7270  155.1500 O   0  0  0  0  0  0  0  0  0  0  0  0
  162.0780  205.8650  148.6950 F   0  0  0  0  0  0  0  0  0  0  0  0
  161.2650  206.2790  153.5010 C   0  0  2  0  0  3  0  0  0  0  0  0
  160.7620  203.4210  151.0630 C   0  0  0  0  0  3  0  0  0  0  0  0
  161.5580  206.1250  151.0320 C   0  0  0  0  0  0  0  0  0  0  0  0
  160.8610  207.7150  153.2840 C   0  0  1  0  0  3  0  0  0  0  0  0
  159.7090  206.9660  156.5250 O   0  0  0  0  0  0  0  0  0  0  0  0
  160.7120  208.2540  154.7040 C   0  0  1  0  0  3  0  0  0  0  0  0
  159.3210  211.3010  156.1110 C   0  0  0  0  0  2  0  0  0  0  0  0
  162.6310  210.4170  154.2110 O   0  0  0  0  0  1  0  0  0  0  0  0
  160.7370  204.1670  152.2420 C   0  0  0  0  0  3  0  0  0  0  0  0
  161.1200  205.5130  152.2310 C   0  0  0  0  0  0  0  0  0  0  0  0
  161.5520  210.7400  153.3820 C   0  0  2  0  0  3  0  0  0  0  0  0
  161.2060  210.5780  148.7030 C   0  0  0  0  0  2  0  0  0  0  0  0
  161.2090  213.0710  148.5950 C   0  0  0  0  0  1  0  0  0  0  0  0
  161.9830  211.8090  148.2620 C   0  0  0  0  0  2  0  0  0  0  0  0
  1  5  1  6  0  0  0
  1 19  1  0  0  0  0
  1  4  1  0  0  0  0
  2 13  2  0  0  0  0
  2 19  1  0  0  0  0
  3 10  1  0  0  0  0
  4 20  1  0  0  0  0
  7  9  1  0  0  0  0
  7 15  1  0  0  0  0
  8  6  1  0  0  0  0
  8 12  1  0  0  0  0
  9 14  1  0  0  0  0
 10 21  2  0  0  0  0
 11  5  1  0  0  0  0
 11  8  1  0  0  0  0
 12  4  1  0  0  0  0
 12 27  1  0  0  0  0
 13 18  1  0  0  0  0
 15 23  1  0  0  0  0
 16  2  1  0  0  0  0
 17  3  1  0  0  0  0
 18 25  2  0  0  0  0
 19 26  2  0  0  0  0
 20 17  1  0  0  0  0
 20 22  1  0  0  0  0
 22  9  1  0  0  0  0
 22 10  1  0  0  0  0
 23 14  1  0  0  0  0
 26 25  1  0  0  0  0
 26 17  1  0  0  0  0
 27  7  1  0  0  0  0
 27 24  1  0  0  0  0
 28 11  1  0  0  0  0
 30 29  1  0  0  0  0
 30 28  1  0  0  0  0
M  END
>  <MODEL>
5

>  <REMARK>
 VINA RESULT:      -6.1      2.270      3.521
  Name = 
  2 active torsions:
  status: ('A' for Active; 'I' for Inactive)
    1  A    between atoms: C_11  and  C_28
    2  A    between atoms: C_28  and  C_30
                            x       y       z     vdW  Elec       q    Type
                         _______ _______ _______ _____ _____    ______ ____

>  <TORSDO>
F 2

$$$$
=
 OpenBabel11122412413D

 30 35  0  0  1  0  0  0  0  0999 V2000
  160.2240  212.2430  152.0210 C   0  0  2  0  0  3  0  0  0  0  0  0
  159.9110  213.5060  149.8200 C   0  0  0  0  0  0  0  0  0  0  0  0
  162.4360  209.2820  149.8210 N   0  0  0  0  0  2  0  0  0  0  0  0
  160.8540  210.9680  152.6930 C   0  0  1  0  0  3  0  0  0  0  0  0
  158.7410  212.3940  152.3780 C   0  0  0  0  0  2  0  0  0  0  0  0
  160.4220  212.2130  155.3700 O   0  0  0  0  0  1  0  0  0  0  0  0
  160.3190  207.9200  154.0780 C   0  0  1  0  0  3  0  0  0  0  0  0
  159.3940  211.5400  154.7070 C   0  0  1  0  0  3  0  0  0  0  0  0
  160.8620  207.5940  152.6740 C   0  0  2  0  0  3  0  0  0  0  0  0
  162.4420  208.2310  150.7750 C   0  0  0  0  0  0  0  0  0  0  0  0
  158.5640  212.5450  153.8940 C   0  0  2  0  0  3  0  0  0  0  0  0
  159.9610  210.4200  153.8290 C   0  0  2  0  0  3  0  0  0  0  0  0
  160.1150  213.6470  148.4450 C   0  0  0  0  0  3  0  0  0  0  0  0
  161.5160  206.2550  152.8720 C   0  0  0  0  0  2  0  0  0  0  0  0
  160.7260  206.9250  154.9840 O   0  0  0  0  0  0  0  0  0  0  0  0
  159.1910  214.4530  150.4710 F   0  0  0  0  0  0  0  0  0  0  0  0
  161.9850  210.4390  150.5670 C   0  0  2  0  0  3  0  0  0  0  0  0
  160.8820  212.7170  147.7450 C   0  0  0  0  0  3  0  0  0  0  0  0
  160.4530  212.4030  150.5120 C   0  0  0  0  0  0  0  0  0  0  0  0
  161.1040  209.8820  151.6560 C   0  0  1  0  0  3  0  0  0  0  0  0
  162.9580  207.1090  150.5300 O   0  0  0  0  0  0  0  0  0  0  0  0
  161.8470  208.6240  152.0960 C   0  0  1  0  0  3  0  0  0  0  0  0
  160.9840  205.7920  154.2020 C   0  0  0  0  0  2  0  0  0  0  0  0
  161.9600  209.5240  154.8860 O   0  0  0  0  0  1  0  0  0  0  0  0
  161.4610  211.6420  148.4210 C   0  0  0  0  0  3  0  0  0  0  0  0
  161.2430  211.4740  149.7930 C   0  0  0  0  0  0  0  0  0  0  0  0
  160.5960  209.3100  154.6640 C   0  0  2  0  0  3  0  0  0  0  0  0
  157.0960  212.4130  154.2680 C   0  0  0  0  0  2  0  0  0  0  0  0
  155.6500  210.6000  155.1910 C   0  0  0  0  0  1  0  0  0  0  0  0
  156.9010  211.4290  155.4120 C   0  0  0  0  0  2  0  0  0  0  0  0
  1  5  1  6  0  0  0
  1  4  1  0  0  0  0
  2 16  1  0  0  0  0
  2 19  1  0  0  0  0
  3 17  1  0  0  0  0
  3 10  1  0  0  0  0
  4 12  1  0  0  0  0
  5 11  1  0  0  0  0
  7 27  1  0  0  0  0
  7 15  1  0  0  0  0
  8  6  1  0  0  0  0
  9 14  1  0  0  0  0
  9  7  1  0  0  0  0
 10 22  1  0  0  0  0
 11 28  1  0  0  0  0
 11  8  1  0  0  0  0
 12 27  1  0  0  0  0
 12  8  1  0  0  0  0
 13  2  2  0  0  0  0
 14 23  1  0  0  0  0
 17 20  1  0  0  0  0
 18 25  2  0  0  0  0
 18 13  1  0  0  0  0
 19  1  1  0  0  0  0
 20 22  1  0  0  0  0
 20  4  1  0  0  0  0
 21 10  2  0  0  0  0
 22  9  1  0  0  0  0
 23 15  1  0  0  0  0
 25 26  1  0  0  0  0
 26 19  2  0  0  0  0
 26 17  1  0  0  0  0
 27 24  1  0  0  0  0
 28 30  1  0  0  0  0
 29 30  1  0  0  0  0
M  END
>  <MODEL>
6

>  <REMARK>
 VINA RESULT:      -5.9      4.139      7.887
  Name = 
  2 active torsions:
  status: ('A' for Active; 'I' for Inactive)
    1  A    between atoms: C_11  and  C_28
    2  A    between atoms: C_28  and  C_30
                            x       y       z     vdW  Elec       q    Type
                         _______ _______ _______ _____ _____    ______ ____

>  <TORSDO>
F 2

$$$$
=
 OpenBabel11122412413D

 30 35  0  0  1  0  0  0  0  0999 V2000
  161.6100  203.5380  148.2850 C   0  0  2  0  0  3  0  0  0  0  0  0
  160.4510  201.3810  149.0220 C   0  0  0  0  0  0  0  0  0  0  0  0
  161.2060  204.9460  152.3300 N   0  0  0  0  0  2  0  0  0  0  0  0
  162.1250  204.9460  148.7590 C   0  0  1  0  0  3  0  0  0  0  0  0
  160.7230  203.6500  147.0410 C   0  0  0  0  0  2  0  0  0  0  0  0
  163.6900  205.1820  146.2300 O   0  0  0  0  0  1  0  0  0  0  0  0
  161.6620  208.3050  148.7290 C   0  0  1  0  0  3  0  0  0  0  0  0
  162.3300  205.4960  146.2750 C   0  0  1  0  0  3  0  0  0  0  0  0
  161.1770  207.8810  150.1270 C   0  0  2  0  0  3  0  0  0  0  0  0
  161.4680  206.3270  152.1290 C   0  0  0  0  0  0  0  0  0  0  0  0
  161.5060  204.2640  145.8740 C   0  0  2  0  0  3  0  0  0  0  0  0
  161.9440  206.0190  147.6620 C   0  0  2  0  0  3  0  0  0  0  0  0
  159.8530  200.5790  149.9970 C   0  0  0  0  0  3  0  0  0  0  0  0
  161.4180  209.1140  150.9520 C   0  0  0  0  0  2  0  0  0  0  0  0
  162.2200  209.5940  148.7940 O   0  0  0  0  0  0  0  0  0  0  0  0
  160.5410  200.9050  147.7550 F   0  0  0  0  0  0  0  0  0  0  0  0
  161.6150  204.3200  151.0890 C   0  0  2  0  0  3  0  0  0  0  0  0
  159.7750  201.0140  151.3200 C   0  0  0  0  0  3  0  0  0  0  0  0
  160.9590  202.6540  149.3570 C   0  0  0  0  0  0  0  0  0  0  0  0
  161.4140  205.3770  150.0340 C   0  0  1  0  0  3  0  0  0  0  0  0
  161.4070  207.1620  153.0690 O   0  0  0  0  0  0  0  0  0  0  0  0
  161.8860  206.6530  150.7250 C   0  0  1  0  0  3  0  0  0  0  0  0
  161.6490  210.1900  149.9250 C   0  0  0  0  0  2  0  0  0  0  0  0
  163.8370  207.2190  148.6080 O   0  0  0  0  0  1  0  0  0  0  0  0
  160.3100  202.2520  151.6780 C   0  0  0  0  0  3  0  0  0  0  0  0
  160.8890  203.0760  150.7060 C   0  0  0  0  0  0  0  0  0  0  0  0
  162.6040  207.3630  147.9660 C   0  0  2  0  0  3  0  0  0  0  0  0
  160.5590  204.6320  144.7410 C   0  0  0  0  0  2  0  0  0  0  0  0
  161.5830  205.8270  142.8050 C   0  0  0  0  0  1  0  0  0  0  0  0
  160.9020  205.9910  144.1510 C   0  0  0  0  0  2  0  0  0  0  0  0
  1  5  1  6  0  0  0
  1  4  1  0  0  0  0
  1 19  1  0  0  0  0
  2 19  2  0  0  0  0
  2 13  1  0  0  0  0
  4 20  1  0  0  0  0
  6  8  1  0  0  0  0
  7 15  1  0  0  0  0
  7  9  1  0  0  0  0
  8 12  1  0  0  0  0
  9 22  1  0  0  0  0
  9 14  1  0  0  0  0
 10  3  1  0  0  0  0
 10 21  2  0  0  0  0
 11  8  1  0  0  0  0
 11  5  1  0  0  0  0
 12 27  1  0  0  0  0
 12  4  1  0  0  0  0
 13 18  2  0  0  0  0
 15 23  1  0  0  0  0
 16  2  1  0  0  0  0
 17  3  1  0  0  0  0
 18 25  1  0  0  0  0
 19 26  1  0  0  0  0
 20 22  1  0  0  0  0
 20 17  1  0  0  0  0
 22 10  1  0  0  0  0
 23 14  1  0  0  0  0
 26 17  1  0  0  0  0
 26 25  2  0  0  0  0
 27 24  1  0  0  0  0
 27  7  1  0  0  0  0
 28 11  1  0  0  0  0
 29 30  1  0  0  0  0
 30 28  1  0  0  0  0
M  END
>  <MODEL>
7

>  <REMARK>
 VINA RESULT:      -4.8      1.544      2.233
  Name = 
  2 active torsions:
  status: ('A' for Active; 'I' for Inactive)
    1  A    between atoms: C_11  and  C_28
    2  A    between atoms: C_28  and  C_30
                            x       y       z     vdW  Elec       q    Type
                         _______ _______ _______ _____ _____    ______ ____

>  <TORSDO>
F 2

$$$$
