=
 OpenBabel11122413173D

 31 35  0  0  1  0  0  0  0  0999 V2000
  160.9560  206.3880  146.5450 C   0  0  0  0  0  0  0  0  0  0  0  0
  160.2940  204.9910  149.9620 C   0  0  2  0  0  3  0  0  0  0  0  0
  160.7430  203.5380  149.8840 C   0  0  0  0  0  0  0  0  0  0  0  0
  161.1690  201.5490  148.5450 C   0  0  0  0  0  0  0  0  0  0  0  0
  160.8780  205.8510  148.8640 C   0  0  0  0  0  0  0  0  0  0  0  0
  161.9680  207.3230  146.7680 C   0  0  0  0  0  3  0  0  0  0  0  0
  160.8360  202.9010  148.6360 C   0  0  0  0  0  3  0  0  0  0  0  0
  161.9700  206.0430  151.5380 C   0  0  2  0  0  3  0  0  0  0  0  0
  160.4900  206.1820  145.2900 F   0  0  0  0  0  0  0  0  0  0  0  0
  160.8620  203.3730  152.4270 C   0  0  0  0  0  2  0  0  0  0  0  0
  161.2990  200.7840  146.9760 Cl  0  0  0  0  0  0  0  0  0  0  0  0
  162.3320  207.1260  150.5230 C   0  0  0  0  0  2  0  0  0  0  0  0
  160.5060  205.6200  151.3530 C   0  0  2  0  0  3  0  0  0  0  0  0
  160.4380  205.6830  147.5850 N   0  0  0  0  0  0  0  0  0  0  0  0
  161.3940  200.8070  149.7040 C   0  0  0  0  0  3  0  0  0  0  0  0
  161.9000  206.7890  149.1270 C   0  0  0  0  0  0  0  0  0  0  0  0
  162.4320  207.5260  148.0680 C   0  0  0  0  0  3  0  0  0  0  0  0
  160.0340  204.6550  152.4420 C   0  0  0  0  0  2  0  0  0  0  0  0
  160.9340  202.7670  151.0570 C   0  0  0  0  0  0  0  0  0  0  0  0
  161.2780  201.4150  150.9550 C   0  0  0  0  0  3  0  0  0  0  0  0
  160.5170  208.1850  152.7500 O   0  0  0  0  0  0  0  0  0  0  0  0
  161.4160  207.6280  153.4340 C   0  0  0  0  0  0  0  0  0  0  0  0
  162.1820  206.5530  152.8840 N   0  0  0  0  0  2  0  0  0  0  0  0
  159.4160  209.6690  155.9150 C   0  0  1  0  0  3  0  0  0  0  0  0
  160.7140  207.5210  155.8400 C   0  0  0  0  0  2  0  0  0  0  0  0
  162.6680  210.3020  153.9510 C   0  0  0  0  0  1  0  0  0  0  0  0
  158.1440  210.2250  155.8020 O   0  0  0  0  0  1  0  0  0  0  0  0
  159.3270  208.1560  155.7340 C   0  0  0  0  0  2  0  0  0  0  0  0
  161.7270  209.6610  154.9540 C   0  0  2  0  0  3  0  0  0  0  0  0
  161.6900  208.1270  154.8250 C   0  0  2  0  0  3  0  0  0  0  0  0
  160.3320  210.2770  154.8570 C   0  0  0  0  0  2  0  0  0  0  0  0
  1  6  2  0  0  0  0
  1 14  1  0  0  0  0
  2  5  1  6  0  0  0
  2 13  1  0  0  0  0
  3  2  1  0  0  0  0
  3 19  1  0  0  0  0
  4  7  1  0  0  0  0
  4 15  2  0  0  0  0
  5 16  1  0  0  0  0
  6 17  1  0  0  0  0
  7  3  2  0  0  0  0
  8 23  1  1  0  0  0
  9  1  1  0  0  0  0
 10 18  1  0  0  0  0
 11  4  1  0  0  0  0
 12  8  1  0  0  0  0
 13  8  1  0  0  0  0
 13 18  1  1  0  0  0
 14  5  2  0  0  0  0
 15 20  1  0  0  0  0
 16 12  1  0  0  0  0
 17 16  2  0  0  0  0
 19 10  1  0  0  0  0
 20 19  2  0  0  0  0
 21 22  2  0  0  0  0
 23 22  1  0  0  0  0
 24 27  1  6  0  0  0
 28 25  1  0  0  0  0
 28 24  1  0  0  0  0
 29 26  1  6  0  0  0
 30 22  1  6  0  0  0
 30 29  1  0  0  0  0
 30 25  1  0  0  0  0
 31 29  1  0  0  0  0
 31 24  1  0  0  0  0
M  END
>  <MODEL>
1

>  <REMARK>
 VINA RESULT:      -7.6      0.000      0.000
  Name = 
  2 active torsions:
  status: ('A' for Active; 'I' for Inactive)
    1  A    between atoms: C_5  and  C_30
    2  A    between atoms: C_10  and  N_16
                            x       y       z     vdW  Elec       q    Type
                         _______ _______ _______ _____ _____    ______ ____

>  <TORSDO>
F 2

$$$$
=
 OpenBabel11122413173D

 31 35  0  0  1  0  0  0  0  0999 V2000
  160.7330  207.6000  156.3710 C   0  0  0  0  0  0  0  0  0  0  0  0
  161.8580  208.7060  152.9680 C   0  0  2  0  0  3  0  0  0  0  0  0
  161.4500  207.5750  152.0350 C   0  0  0  0  0  0  0  0  0  0  0  0
  160.9260  205.2190  151.7060 C   0  0  0  0  0  0  0  0  0  0  0  0
  161.1150  208.6840  154.2860 C   0  0  0  0  0  0  0  0  0  0  0  0
  159.7280  208.5120  156.6910 C   0  0  0  0  0  3  0  0  0  0  0  0
  161.2240  206.2890  152.5520 C   0  0  0  0  0  3  0  0  0  0  0  0
  160.3560  210.6180  152.2690 C   0  0  2  0  0  3  0  0  0  0  0  0
  161.0470  206.6060  157.2360 F   0  0  0  0  0  0  0  0  0  0  0  0
  161.6520  209.0980  149.9980 C   0  0  0  0  0  2  0  0  0  0  0  0
  160.6280  203.6310  152.3780 Cl  0  0  0  0  0  0  0  0  0  0  0  0
  159.8370  210.8080  153.6930 C   0  0  0  0  0  2  0  0  0  0  0  0
  161.8000  210.0950  152.3030 C   0  0  2  0  0  3  0  0  0  0  0  0
  161.3990  207.7060  155.1900 N   0  0  0  0  0  0  0  0  0  0  0  0
  160.8700  205.4150  150.3270 C   0  0  0  0  0  3  0  0  0  0  0  0
  160.1030  209.6250  154.5770 C   0  0  0  0  0  0  0  0  0  0  0  0
  159.4210  209.5320  155.7910 C   0  0  0  0  0  3  0  0  0  0  0  0
  162.4330  210.0370  150.9130 C   0  0  0  0  0  2  0  0  0  0  0  0
  161.4300  207.7550  150.6300 C   0  0  0  0  0  0  0  0  0  0  0  0
  161.1210  206.6790  149.7920 C   0  0  0  0  0  3  0  0  0  0  0  0
  157.9940  212.1660  151.8310 O   0  0  0  0  0  0  0  0  0  0  0  0
  159.0790  212.6170  151.3800 C   0  0  0  0  0  0  0  0  0  0  0  0
  160.2960  211.8880  151.5610 N   0  0  0  0  0  2  0  0  0  0  0  0
  157.6410  213.6890  148.0490 C   0  0  1  0  0  3  0  0  0  0  0  0
  157.6490  214.4510  150.4410 C   0  0  0  0  0  2  0  0  0  0  0  0
  161.2260  213.3250  149.4110 C   0  0  0  0  0  1  0  0  0  0  0  0
  156.9340  212.9570  147.0980 O   0  0  0  0  0  1  0  0  0  0  0  0
  156.8860  213.6640  149.3750 C   0  0  0  0  0  2  0  0  0  0  0  0
  159.8150  213.8690  149.2750 C   0  0  2  0  0  3  0  0  0  0  0  0
  159.0730  213.9160  150.6240 C   0  0  2  0  0  3  0  0  0  0  0  0
  159.0340  213.0890  148.2190 C   0  0  0  0  0  2  0  0  0  0  0  0
  1  6  1  0  0  0  0
  1  9  1  0  0  0  0
  2  3  1  6  0  0  0
  2  5  1  0  0  0  0
  3  7  1  0  0  0  0
  4 11  1  0  0  0  0
  4  7  2  0  0  0  0
  5 16  2  0  0  0  0
  5 14  1  0  0  0  0
  8 23  1  6  0  0  0
  8 13  1  0  0  0  0
  8 12  1  0  0  0  0
 10 19  1  0  0  0  0
 10 18  1  0  0  0  0
 12 16  1  0  0  0  0
 13 18  1  6  0  0  0
 13  2  1  0  0  0  0
 14  1  2  0  0  0  0
 15  4  1  0  0  0  0
 16 17  1  0  0  0  0
 17  6  2  0  0  0  0
 19  3  2  0  0  0  0
 20 15  2  0  0  0  0
 20 19  1  0  0  0  0
 22 23  1  0  0  0  0
 22 21  2  0  0  0  0
 24 27  1  6  0  0  0
 24 31  1  0  0  0  0
 24 28  1  0  0  0  0
 25 30  1  0  0  0  0
 28 25  1  0  0  0  0
 29 26  1  1  0  0  0
 29 30  1  0  0  0  0
 30 22  1  6  0  0  0
 31 29  1  0  0  0  0
M  END
>  <MODEL>
2

>  <REMARK>
 VINA RESULT:      -7.5      4.661      7.053
  Name = 
  2 active torsions:
  status: ('A' for Active; 'I' for Inactive)
    1  A    between atoms: C_5  and  C_30
    2  A    between atoms: C_10  and  N_16
                            x       y       z     vdW  Elec       q    Type
                         _______ _______ _______ _____ _____    ______ ____

>  <TORSDO>
F 2

$$$$
=
 OpenBabel11122413173D

 31 35  0  0  1  0  0  0  0  0999 V2000
  161.1240  203.9300  145.6430 C   0  0  0  0  0  0  0  0  0  0  0  0
  160.5200  205.7860  148.8470 C   0  0  2  0  0  3  0  0  0  0  0  0
  160.8990  204.8020  149.9450 C   0  0  0  0  0  0  0  0  0  0  0  0
  161.1850  202.4990  150.6840 C   0  0  0  0  0  0  0  0  0  0  0  0
  161.1040  205.4220  147.5000 C   0  0  0  0  0  0  0  0  0  0  0  0
  162.1850  204.6260  145.0620 C   0  0  0  0  0  3  0  0  0  0  0  0
  160.9180  203.4240  149.6740 C   0  0  0  0  0  3  0  0  0  0  0  0
  162.2990  207.5760  149.0210 C   0  0  2  0  0  3  0  0  0  0  0  0
  160.6050  202.8450  145.0220 F   0  0  0  0  0  0  0  0  0  0  0  0
  161.1010  206.6870  151.6520 C   0  0  0  0  0  2  0  0  0  0  0  0
  161.2230  200.7880  150.3150 Cl  0  0  0  0  0  0  0  0  0  0  0  0
  162.6740  207.4290  147.5470 C   0  0  0  0  0  2  0  0  0  0  0  0
  160.8110  207.2530  149.2180 C   0  0  2  0  0  3  0  0  0  0  0  0
  160.6110  204.3400  146.8340 N   0  0  0  0  0  0  0  0  0  0  0  0
  161.4160  202.9360  151.9880 C   0  0  0  0  0  3  0  0  0  0  0  0
  162.1770  206.1500  146.9410 C   0  0  0  0  0  0  0  0  0  0  0  0
  162.7040  205.7440  145.7140 C   0  0  0  0  0  3  0  0  0  0  0  0
  160.3340  207.5370  150.6430 C   0  0  0  0  0  2  0  0  0  0  0  0
  161.0960  205.2340  151.2800 C   0  0  0  0  0  0  0  0  0  0  0  0
  161.3730  204.3000  152.2830 C   0  0  0  0  0  3  0  0  0  0  0  0
  161.2610  209.9540  147.8220 O   0  0  0  0  0  0  0  0  0  0  0  0
  162.0260  210.0860  148.8140 C   0  0  0  0  0  0  0  0  0  0  0  0
  162.5820  208.9360  149.4560 N   0  0  0  0  0  2  0  0  0  0  0  0
  160.8610  213.5500  147.8370 C   0  0  1  0  0  3  0  0  0  0  0  0
  161.1480  212.1640  149.9110 C   0  0  0  0  0  2  0  0  0  0  0  0
  164.2310  211.7030  147.5860 C   0  0  0  0  0  1  0  0  0  0  0  0
  159.9500  213.9500  146.8620 O   0  0  0  0  0  1  0  0  0  0  0  0
  160.1650  212.6290  148.8350 C   0  0  0  0  0  2  0  0  0  0  0  0
  163.0290  212.3660  148.2340 C   0  0  2  0  0  3  0  0  0  0  0  0
  162.3670  211.4680  149.2960 C   0  0  2  0  0  3  0  0  0  0  0  0
  162.0310  212.8300  147.1740 C   0  0  0  0  0  2  0  0  0  0  0  0
  1 14  1  0  0  0  0
  2  5  1  6  0  0  0
  2 13  1  0  0  0  0
  2  3  1  0  0  0  0
  3 19  1  0  0  0  0
  4 15  2  0  0  0  0
  6  1  2  0  0  0  0
  6 17  1  0  0  0  0
  7  3  2  0  0  0  0
  7  4  1  0  0  0  0
  8 13  1  0  0  0  0
  8 23  1  6  0  0  0
  9  1  1  0  0  0  0
 11  4  1  0  0  0  0
 12  8  1  0  0  0  0
 13 18  1  1  0  0  0
 14  5  2  0  0  0  0
 15 20  1  0  0  0  0
 16  5  1  0  0  0  0
 16 12  1  0  0  0  0
 17 16  2  0  0  0  0
 18 10  1  0  0  0  0
 19 10  1  0  0  0  0
 19 20  2  0  0  0  0
 21 22  2  0  0  0  0
 22 23  1  0  0  0  0
 24 27  1  6  0  0  0
 24 28  1  0  0  0  0
 28 25  1  0  0  0  0
 29 26  1  6  0  0  0
 29 30  1  0  0  0  0
 30 22  1  6  0  0  0
 30 25  1  0  0  0  0
 31 24  1  0  0  0  0
 31 29  1  0  0  0  0
M  END
>  <MODEL>
3

>  <REMARK>
 VINA RESULT:      -7.1      3.416      4.855
  Name = 
  2 active torsions:
  status: ('A' for Active; 'I' for Inactive)
    1  A    between atoms: C_5  and  C_30
    2  A    between atoms: C_10  and  N_16
                            x       y       z     vdW  Elec       q    Type
                         _______ _______ _______ _____ _____    ______ ____

>  <TORSDO>
F 2

$$$$
=
 OpenBabel11122413173D

 31 35  0  0  1  0  0  0  0  0999 V2000
  160.9710  204.5270  145.0450 C   0  0  0  0  0  0  0  0  0  0  0  0
  160.4900  205.1750  148.7080 C   0  0  2  0  0  3  0  0  0  0  0  0
  160.9180  203.8840  149.3920 C   0  0  0  0  0  0  0  0  0  0  0  0
  161.2450  201.4720  149.2950 C   0  0  0  0  0  0  0  0  0  0  0  0
  161.0200  205.3000  147.2960 C   0  0  0  0  0  0  0  0  0  0  0  0
  162.0030  205.3970  144.6950 C   0  0  0  0  0  3  0  0  0  0  0  0
  160.9320  202.6800  148.6690 C   0  0  0  0  0  3  0  0  0  0  0  0
  162.2650  206.8330  149.4130 C   0  0  2  0  0  3  0  0  0  0  0  0
  160.4320  203.7070  144.1120 F   0  0  0  0  0  0  0  0  0  0  0  0
  161.1800  205.0830  151.6280 C   0  0  0  0  0  2  0  0  0  0  0  0
  161.2770  199.9900  148.3660 Cl  0  0  0  0  0  0  0  0  0  0  0  0
  162.5800  207.2010  147.9640 C   0  0  0  0  0  2  0  0  0  0  0  0
  160.7870  206.4350  149.5440 C   0  0  2  0  0  3  0  0  0  0  0  0
  160.5050  204.4990  146.3220 N   0  0  0  0  0  0  0  0  0  0  0  0
  161.5280  201.4470  150.6600 C   0  0  0  0  0  3  0  0  0  0  0  0
  162.0650  206.1940  146.9790 C   0  0  0  0  0  0  0  0  0  0  0  0
  162.5430  206.2380  145.6680 C   0  0  0  0  0  3  0  0  0  0  0  0
  160.3680  206.2110  150.9970 C   0  0  0  0  0  2  0  0  0  0  0  0
  161.1670  203.8420  150.7860 C   0  0  0  0  0  0  0  0  0  0  0  0
  161.4900  202.6280  151.4020 C   0  0  0  0  0  3  0  0  0  0  0  0
  161.4680  209.5350  148.9270 O   0  0  0  0  0  0  0  0  0  0  0  0
  162.1260  209.3000  149.9740 C   0  0  0  0  0  0  0  0  0  0  0  0
  162.5590  207.9700  150.2740 N   0  0  0  0  0  2  0  0  0  0  0  0
  160.1810  211.2430  152.5730 C   0  0  1  0  0  3  0  0  0  0  0  0
  162.3670  210.0260  152.3630 C   0  0  0  0  0  2  0  0  0  0  0  0
  161.7420  212.1630  149.1750 C   0  0  0  0  0  1  0  0  0  0  0  0
  158.8540  211.1200  152.9790 O   0  0  0  0  0  1  0  0  0  0  0  0
  160.9090  209.9230  152.8130 C   0  0  0  0  0  2  0  0  0  0  0  0
  161.6780  211.7310  150.6290 C   0  0  2  0  0  3  0  0  0  0  0  0
  162.4740  210.4390  150.8910 C   0  0  2  0  0  3  0  0  0  0  0  0
  160.2270  211.6140  151.0940 C   0  0  0  0  0  2  0  0  0  0  0  0
  1 14  1  0  0  0  0
  2  5  1  6  0  0  0
  2  3  1  0  0  0  0
  2 13  1  0  0  0  0
  3 19  1  0  0  0  0
  4 15  2  0  0  0  0
  6  1  2  0  0  0  0
  6 17  1  0  0  0  0
  7  4  1  0  0  0  0
  7  3  2  0  0  0  0
  8 13  1  0  0  0  0
  8 23  1  1  0  0  0
  9  1  1  0  0  0  0
 11  4  1  0  0  0  0
 12  8  1  0  0  0  0
 13 18  1  1  0  0  0
 14  5  2  0  0  0  0
 15 20  1  0  0  0  0
 16  5  1  0  0  0  0
 16 12  1  0  0  0  0
 17 16  2  0  0  0  0
 18 10  1  0  0  0  0
 19 20  2  0  0  0  0
 19 10  1  0  0  0  0
 21 22  2  0  0  0  0
 22 23  1  0  0  0  0
 24 28  1  0  0  0  0
 24 27  1  6  0  0  0
 25 28  1  0  0  0  0
 29 26  1  6  0  0  0
 29 30  1  0  0  0  0
 29 31  1  0  0  0  0
 30 22  1  6  0  0  0
 30 25  1  0  0  0  0
 31 24  1  0  0  0  0
M  END
>  <MODEL>
4

>  <REMARK>
 VINA RESULT:      -7.0      2.218      2.902
  Name = 
  2 active torsions:
  status: ('A' for Active; 'I' for Inactive)
    1  A    between atoms: C_5  and  C_30
    2  A    between atoms: C_10  and  N_16
                            x       y       z     vdW  Elec       q    Type
                         _______ _______ _______ _____ _____    ______ ____

>  <TORSDO>
F 2

$$$$
=
 OpenBabel11122413173D

 31 35  0  0  1  0  0  0  0  0999 V2000
  160.9290  208.5190  154.6600 C   0  0  0  0  0  0  0  0  0  0  0  0
  162.1450  209.4690  151.2410 C   0  0  2  0  0  3  0  0  0  0  0  0
  161.6460  208.3590  150.3270 C   0  0  0  0  0  0  0  0  0  0  0  0
  160.9290  206.0490  150.0370 C   0  0  0  0  0  0  0  0  0  0  0  0
  161.4010  209.5310  152.5570 C   0  0  0  0  0  0  0  0  0  0  0  0
  160.0020  209.5170  154.9620 C   0  0  0  0  0  3  0  0  0  0  0  0
  161.3140  207.1050  150.8650 C   0  0  0  0  0  3  0  0  0  0  0  0
  160.8080  211.4860  150.5050 C   0  0  2  0  0  3  0  0  0  0  0  0
  161.1580  207.5180  155.5430 F   0  0  0  0  0  0  0  0  0  0  0  0
  161.9750  209.8240  148.2640 C   0  0  0  0  0  2  0  0  0  0  0  0
  160.5000  204.5030  150.7360 Cl  0  0  0  0  0  0  0  0  0  0  0  0
  160.3040  211.7420  151.9240 C   0  0  0  0  0  2  0  0  0  0  0  0
  162.2030  210.8460  150.5520 C   0  0  2  0  0  3  0  0  0  0  0  0
  161.6020  208.5490  153.4790 N   0  0  0  0  0  0  0  0  0  0  0  0
  160.8910  206.2250  148.6550 C   0  0  0  0  0  3  0  0  0  0  0  0
  160.4710  210.5570  152.8290 C   0  0  0  0  0  0  0  0  0  0  0  0
  159.7820  210.5430  154.0430 C   0  0  0  0  0  3  0  0  0  0  0  0
  162.8310  210.7110  149.1640 C   0  0  0  0  0  2  0  0  0  0  0  0
  161.6430  208.5150  148.9180 C   0  0  0  0  0  0  0  0  0  0  0  0
  161.2460  207.4540  148.0980 C   0  0  0  0  0  3  0  0  0  0  0  0
  159.9100  211.8820  147.8210 O   0  0  0  0  0  0  0  0  0  0  0  0
  160.3830  212.8770  148.4310 C   0  0  0  0  0  0  0  0  0  0  0  0
  160.8540  212.7440  149.7750 N   0  0  0  0  0  2  0  0  0  0  0  0
  160.8220  213.8600  144.8040 C   0  0  1  0  0  3  0  0  0  0  0  0
  159.3090  214.3840  146.7390 C   0  0  0  0  0  2  0  0  0  0  0  0
  163.0010  214.2590  147.9560 C   0  0  0  0  0  1  0  0  0  0  0  0
  160.9720  213.0660  143.6700 O   0  0  0  0  0  1  0  0  0  0  0  0
  159.4930  213.5340  145.4810 C   0  0  0  0  0  2  0  0  0  0  0  0
  161.8200  214.4530  147.0210 C   0  0  2  0  0  3  0  0  0  0  0  0
  160.4720  214.1980  147.7190 C   0  0  2  0  0  3  0  0  0  0  0  0
  161.9830  213.6040  145.7610 C   0  0  0  0  0  2  0  0  0  0  0  0
  1  6  1  0  0  0  0
  1  9  1  0  0  0  0
  2  3  1  6  0  0  0
  2  5  1  0  0  0  0
  3  7  1  0  0  0  0
  4 11  1  0  0  0  0
  4  7  2  0  0  0  0
  5 16  2  0  0  0  0
  5 14  1  0  0  0  0
  8 23  1  6  0  0  0
  8 13  1  0  0  0  0
  8 12  1  0  0  0  0
 10 19  1  0  0  0  0
 10 18  1  0  0  0  0
 12 16  1  0  0  0  0
 13 18  1  6  0  0  0
 13  2  1  0  0  0  0
 14  1  2  0  0  0  0
 15  4  1  0  0  0  0
 16 17  1  0  0  0  0
 17  6  2  0  0  0  0
 19  3  2  0  0  0  0
 20 15  2  0  0  0  0
 20 19  1  0  0  0  0
 21 22  2  0  0  0  0
 22 23  1  0  0  0  0
 24 27  1  6  0  0  0
 24 28  1  0  0  0  0
 24 31  1  0  0  0  0
 25 30  1  0  0  0  0
 28 25  1  0  0  0  0
 29 30  1  0  0  0  0
 29 26  1  1  0  0  0
 30 22  1  6  0  0  0
 31 29  1  0  0  0  0
M  END
>  <MODEL>
5

>  <REMARK>
 VINA RESULT:      -5.8      5.033      7.801
  Name = 
  2 active torsions:
  status: ('A' for Active; 'I' for Inactive)
    1  A    between atoms: C_5  and  C_30
    2  A    between atoms: C_10  and  N_16
                            x       y       z     vdW  Elec       q    Type
                         _______ _______ _______ _____ _____    ______ ____

>  <TORSDO>
F 2

$$$$
=
 OpenBabel11122413173D

 31 35  0  0  1  0  0  0  0  0999 V2000
  161.6860  202.8450  151.7310 C   0  0  0  0  0  0  0  0  0  0  0  0
  162.3180  206.3040  150.4250 C   0  0  2  0  0  3  0  0  0  0  0  0
  161.7430  206.3000  149.0150 C   0  0  0  0  0  0  0  0  0  0  0  0
  161.1100  205.0600  147.0170 C   0  0  0  0  0  0  0  0  0  0  0  0
  161.7800  205.1820  151.2870 C   0  0  0  0  0  0  0  0  0  0  0  0
  160.7660  203.0510  152.7600 C   0  0  0  0  0  3  0  0  0  0  0  0
  161.5610  205.0830  148.3380 C   0  0  0  0  0  3  0  0  0  0  0  0
  160.7820  207.8700  151.6840 C   0  0  2  0  0  3  0  0  0  0  0  0
  162.0980  201.5900  151.4330 F   0  0  0  0  0  0  0  0  0  0  0  0
  161.6790  208.8490  148.9670 C   0  0  0  0  0  2  0  0  0  0  0  0
  160.8720  203.5290  146.2020 Cl  0  0  0  0  0  0  0  0  0  0  0  0
  160.4870  206.8180  152.7520 C   0  0  0  0  0  2  0  0  0  0  0  0
  162.1990  207.6700  151.1270 C   0  0  2  0  0  3  0  0  0  0  0  0
  162.1700  203.9030  151.0270 N   0  0  0  0  0  0  0  0  0  0  0  0
  160.8530  206.2550  146.3460 C   0  0  0  0  0  3  0  0  0  0  0  0
  160.8510  205.4280  152.3200 C   0  0  0  0  0  0  0  0  0  0  0  0
  160.3560  204.3500  153.0570 C   0  0  0  0  0  3  0  0  0  0  0  0
  162.6150  208.7890  150.1710 C   0  0  0  0  0  2  0  0  0  0  0  0
  161.5170  207.5090  148.3130 C   0  0  0  0  0  0  0  0  0  0  0  0
  161.0550  207.4750  146.9930 C   0  0  0  0  0  3  0  0  0  0  0  0
  161.5310  208.5970  154.3450 O   0  0  0  0  0  0  0  0  0  0  0  0
  161.0510  209.4970  153.6070 C   0  0  0  0  0  0  0  0  0  0  0  0
  160.6520  209.1980  152.2670 N   0  0  0  0  0  2  0  0  0  0  0  0
  158.0700  211.4260  154.9150 C   0  0  1  0  0  3  0  0  0  0  0  0
  160.4090  210.8460  155.6220 C   0  0  0  0  0  2  0  0  0  0  0  0
  160.3830  211.8420  151.8630 C   0  0  0  0  0  1  0  0  0  0  0  0
  156.7320  211.0510  155.0180 O   0  0  0  0  0  1  0  0  0  0  0  0
  158.9320  210.4640  155.7290 C   0  0  0  0  0  2  0  0  0  0  0  0
  159.9640  211.7940  153.3220 C   0  0  2  0  0  3  0  0  0  0  0  0
  160.8760  210.8830  154.1630 C   0  0  2  0  0  3  0  0  0  0  0  0
  158.4920  211.4060  153.4490 C   0  0  0  0  0  2  0  0  0  0  0  0
  1  6  1  0  0  0  0
  2  3  1  6  0  0  0
  2 13  1  0  0  0  0
  2  5  1  0  0  0  0
  4  7  2  0  0  0  0
  5 16  2  0  0  0  0
  6 17  2  0  0  0  0
  7  3  1  0  0  0  0
  8 23  1  1  0  0  0
  8 12  1  0  0  0  0
  9  1  1  0  0  0  0
 10 18  1  0  0  0  0
 11  4  1  0  0  0  0
 13 18  1  6  0  0  0
 13  8  1  0  0  0  0
 14  5  1  0  0  0  0
 14  1  2  0  0  0  0
 15 20  2  0  0  0  0
 15  4  1  0  0  0  0
 16 12  1  0  0  0  0
 16 17  1  0  0  0  0
 19 10  1  0  0  0  0
 19  3  2  0  0  0  0
 20 19  1  0  0  0  0
 22 21  2  0  0  0  0
 23 22  1  0  0  0  0
 24 27  1  6  0  0  0
 24 28  1  0  0  0  0
 25 28  1  0  0  0  0
 29 26  1  6  0  0  0
 29 31  1  0  0  0  0
 29 30  1  0  0  0  0
 30 22  1  6  0  0  0
 30 25  1  0  0  0  0
 31 24  1  0  0  0  0
M  END
>  <MODEL>
6

>  <REMARK>
 VINA RESULT:      -5.5      2.391      4.306
  Name = 
  2 active torsions:
  status: ('A' for Active; 'I' for Inactive)
    1  A    between atoms: C_5  and  C_30
    2  A    between atoms: C_10  and  N_16
                            x       y       z     vdW  Elec       q    Type
                         _______ _______ _______ _____ _____    ______ ____

>  <TORSDO>
F 2

$$$$
=
 OpenBabel11122413173D

 31 35  0  0  1  0  0  0  0  0999 V2000
  161.9690  206.6950  147.5310 C   0  0  0  0  0  0  0  0  0  0  0  0
  162.3370  209.2720  150.2320 C   0  0  2  0  0  3  0  0  0  0  0  0
  161.6970  210.5290  149.6610 C   0  0  0  0  0  0  0  0  0  0  0  0
  161.0430  211.8500  147.7220 C   0  0  0  0  0  0  0  0  0  0  0  0
  161.9060  208.0110  149.5150 C   0  0  0  0  0  0  0  0  0  0  0  0
  161.0880  205.7670  148.0870 C   0  0  0  0  0  3  0  0  0  0  0  0
  161.5540  210.6730  148.2720 C   0  0  0  0  0  3  0  0  0  0  0  0
  160.7740  208.6150  152.1100 C   0  0  2  0  0  3  0  0  0  0  0  0
  162.4380  206.5130  146.2740 F   0  0  0  0  0  0  0  0  0  0  0  0
  161.4830  211.5520  151.9880 C   0  0  0  0  0  2  0  0  0  0  0  0
  160.8550  211.9950  145.9880 Cl  0  0  0  0  0  0  0  0  0  0  0  0
  160.5920  207.2070  151.5440 C   0  0  0  0  0  2  0  0  0  0  0  0
  162.1730  209.1440  151.7590 C   0  0  2  0  0  3  0  0  0  0  0  0
  162.3560  207.7820  148.2490 N   0  0  0  0  0  0  0  0  0  0  0  0
  160.6860  212.9110  148.5540 C   0  0  0  0  0  3  0  0  0  0  0  0
  161.0140  207.0930  150.1090 C   0  0  0  0  0  0  0  0  0  0  0  0
  160.6180  205.9670  149.3850 C   0  0  0  0  0  3  0  0  0  0  0  0
  162.4770  210.4820  152.4320 C   0  0  0  0  0  2  0  0  0  0  0  0
  161.3690  211.6270  150.4950 C   0  0  0  0  0  0  0  0  0  0  0  0
  160.8480  212.7980  149.9350 C   0  0  0  0  0  3  0  0  0  0  0  0
  159.1830  210.4390  153.6300 O   0  0  0  0  0  0  0  0  0  0  0  0
  159.7800  209.5230  154.2550 C   0  0  0  0  0  0  0  0  0  0  0  0
  160.5950  208.5810  153.5540 N   0  0  0  0  0  2  0  0  0  0  0  0
  162.1790  210.1150  157.1200 C   0  0  1  0  0  3  0  0  0  0  0  0
  159.8790  210.8190  156.4000 C   0  0  0  0  0  2  0  0  0  0  0  0
  160.3370  207.0070  155.7860 C   0  0  0  0  0  1  0  0  0  0  0  0
  163.5260  210.4700  157.1050 O   0  0  0  0  0  1  0  0  0  0  0  0
  161.3620  211.1910  156.4090 C   0  0  0  0  0  2  0  0  0  0  0  0
  160.5240  208.3750  156.4160 C   0  0  2  0  0  3  0  0  0  0  0  0
  159.6450  209.4510  155.7510 C   0  0  2  0  0  3  0  0  0  0  0  0
  162.0010  208.7680  156.4260 C   0  0  0  0  0  2  0  0  0  0  0  0
  1  6  2  0  0  0  0
  1 14  1  0  0  0  0
  2  5  1  6  0  0  0
  2 13  1  0  0  0  0
  3  2  1  0  0  0  0
  3 19  1  0  0  0  0
  4  7  1  0  0  0  0
  4 15  2  0  0  0  0
  5 16  1  0  0  0  0
  6 17  1  0  0  0  0
  7  3  2  0  0  0  0
  8 23  1  1  0  0  0
  9  1  1  0  0  0  0
 10 18  1  0  0  0  0
 11  4  1  0  0  0  0
 12  8  1  0  0  0  0
 13  8  1  0  0  0  0
 13 18  1  1  0  0  0
 14  5  2  0  0  0  0
 15 20  1  0  0  0  0
 16 12  1  0  0  0  0
 17 16  2  0  0  0  0
 19 10  1  0  0  0  0
 20 19  2  0  0  0  0
 21 22  2  0  0  0  0
 23 22  1  0  0  0  0
 24 27  1  6  0  0  0
 25 28  1  0  0  0  0
 28 24  1  0  0  0  0
 29 26  1  6  0  0  0
 29 31  1  0  0  0  0
 30 22  1  6  0  0  0
 30 25  1  0  0  0  0
 30 29  1  0  0  0  0
 31 24  1  0  0  0  0
M  END
>  <MODEL>
7

>  <REMARK>
 VINA RESULT:      -5.5      3.353      5.744
  Name = 
  2 active torsions:
  status: ('A' for Active; 'I' for Inactive)
    1  A    between atoms: C_5  and  C_30
    2  A    between atoms: C_10  and  N_16
                            x       y       z     vdW  Elec       q    Type
                         _______ _______ _______ _____ _____    ______ ____

>  <TORSDO>
F 2

$$$$
=
 OpenBabel11122413173D

 31 35  0  0  1  0  0  0  0  0999 V2000
  160.7290  201.5990  148.9420 C   0  0  0  0  0  0  0  0  0  0  0  0
  162.2570  204.8700  149.9600 C   0  0  2  0  0  3  0  0  0  0  0  0
  161.7190  205.8810  148.9570 C   0  0  0  0  0  0  0  0  0  0  0  0
  160.8120  206.3570  146.7470 C   0  0  0  0  0  0  0  0  0  0  0  0
  161.4340  203.6010  150.0210 C   0  0  0  0  0  0  0  0  0  0  0  0
  159.8810  201.2930  150.0070 C   0  0  0  0  0  3  0  0  0  0  0  0
  161.2370  205.4430  147.7130 C   0  0  0  0  0  3  0  0  0  0  0  0
  161.1640  205.5600  152.1350 C   0  0  2  0  0  3  0  0  0  0  0  0
  160.8050  200.7670  147.8760 F   0  0  0  0  0  0  0  0  0  0  0  0
  162.3210  207.8240  150.4960 C   0  0  0  0  0  2  0  0  0  0  0  0
  160.1950  205.7830  145.2130 Cl  0  0  0  0  0  0  0  0  0  0  0  0
  160.5920  204.1620  152.3590 C   0  0  0  0  0  2  0  0  0  0  0  0
  162.4880  205.4680  151.3620 C   0  0  2  0  0  3  0  0  0  0  0  0
  161.4810  202.7310  148.9730 N   0  0  0  0  0  0  0  0  0  0  0  0
  160.8840  207.7250  147.0020 C   0  0  0  0  0  3  0  0  0  0  0  0
  160.5870  203.3240  151.1150 C   0  0  0  0  0  0  0  0  0  0  0  0
  159.8190  202.1580  151.0990 C   0  0  0  0  0  3  0  0  0  0  0  0
  163.1930  206.8190  151.2450 C   0  0  0  0  0  2  0  0  0  0  0  0
  161.8260  207.2740  149.1910 C   0  0  0  0  0  0  0  0  0  0  0  0
  161.3880  208.1820  148.2210 C   0  0  0  0  0  3  0  0  0  0  0  0
  160.3460  208.2130  152.8160 O   0  0  0  0  0  0  0  0  0  0  0  0
  160.9370  207.5390  153.7010 C   0  0  0  0  0  0  0  0  0  0  0  0
  161.3760  206.2060  153.4220 N   0  0  0  0  0  2  0  0  0  0  0  0
  159.0510  210.0350  155.8290 C   0  0  1  0  0  3  0  0  0  0  0  0
  160.1200  207.7740  156.0600 C   0  0  0  0  0  2  0  0  0  0  0  0
  162.4370  210.1170  153.9950 C   0  0  0  0  0  1  0  0  0  0  0  0
  157.8500  210.6970  155.5840 O   0  0  0  0  0  1  0  0  0  0  0  0
  158.8130  208.5270  155.8080 C   0  0  0  0  0  2  0  0  0  0  0  0
  161.3890  209.6900  155.0070 C   0  0  2  0  0  3  0  0  0  0  0  0
  161.1990  208.1630  155.0430 C   0  0  2  0  0  3  0  0  0  0  0  0
  160.0720  210.4260  154.7650 C   0  0  0  0  0  2  0  0  0  0  0  0
  1 14  2  0  0  0  0
  1  6  1  0  0  0  0
  2  3  1  6  0  0  0
  2  5  1  0  0  0  0
  2 13  1  0  0  0  0
  3 19  1  0  0  0  0
  4 15  2  0  0  0  0
  4  7  1  0  0  0  0
  5 16  2  0  0  0  0
  6 17  2  0  0  0  0
  7  3  2  0  0  0  0
  8 12  1  0  0  0  0
  8 23  1  1  0  0  0
  9  1  1  0  0  0  0
 10 18  1  0  0  0  0
 11  4  1  0  0  0  0
 13 18  1  6  0  0  0
 13  8  1  0  0  0  0
 14  5  1  0  0  0  0
 15 20  1  0  0  0  0
 16 12  1  0  0  0  0
 17 16  1  0  0  0  0
 19 10  1  0  0  0  0
 20 19  2  0  0  0  0
 21 22  2  0  0  0  0
 23 22  1  0  0  0  0
 24 27  1  6  0  0  0
 28 24  1  0  0  0  0
 28 25  1  0  0  0  0
 29 26  1  6  0  0  0
 29 30  1  0  0  0  0
 30 22  1  6  0  0  0
 30 25  1  0  0  0  0
 31 29  1  0  0  0  0
 31 24  1  0  0  0  0
M  END
>  <MODEL>
8

>  <REMARK>
 VINA RESULT:      -5.3      1.793      3.895
  Name = 
  2 active torsions:
  status: ('A' for Active; 'I' for Inactive)
    1  A    between atoms: C_5  and  C_30
    2  A    between atoms: C_10  and  N_16
                            x       y       z     vdW  Elec       q    Type
                         _______ _______ _______ _____ _____    ______ ____

>  <TORSDO>
F 2

$$$$
=
 OpenBabel11122413173D

 31 35  0  0  1  0  0  0  0  0999 V2000
  162.0690  213.4250  147.3580 C   0  0  0  0  0  0  0  0  0  0  0  0
  159.7290  214.2420  150.1730 C   0  0  2  0  0  3  0  0  0  0  0  0
  158.3380  214.1690  149.5590 C   0  0  0  0  0  0  0  0  0  0  0  0
  156.9090  214.3130  147.5910 C   0  0  0  0  0  0  0  0  0  0  0  0
  160.7760  213.5180  149.3560 C   0  0  0  0  0  0  0  0  0  0  0  0
  162.6250  212.2050  147.7440 C   0  0  0  0  0  3  0  0  0  0  0  0
  158.1800  214.2980  148.1690 C   0  0  0  0  0  3  0  0  0  0  0  0
  159.7700  212.2820  151.7720 C   0  0  2  0  0  3  0  0  0  0  0  0
  162.4250  213.9890  146.1800 F   0  0  0  0  0  0  0  0  0  0  0  0
  157.2610  213.9690  151.8620 C   0  0  0  0  0  2  0  0  0  0  0  0
  156.7410  214.4530  145.8550 Cl  0  0  0  0  0  0  0  0  0  0  0  0
  161.0380  211.7150  151.1370 C   0  0  0  0  0  2  0  0  0  0  0  0
  159.7630  213.8130  151.6530 C   0  0  2  0  0  3  0  0  0  0  0  0
  161.1700  214.0490  148.1640 N   0  0  0  0  0  0  0  0  0  0  0  0
  155.7750  214.2210  148.3970 C   0  0  0  0  0  3  0  0  0  0  0  0
  161.3180  212.2850  149.7780 C   0  0  0  0  0  0  0  0  0  0  0  0
  162.2510  211.6410  148.9630 C   0  0  0  0  0  3  0  0  0  0  0  0
  158.6000  214.4530  152.4120 C   0  0  0  0  0  2  0  0  0  0  0  0
  157.1790  214.1160  150.3720 C   0  0  0  0  0  0  0  0  0  0  0  0
  155.9110  214.1210  149.7830 C   0  0  0  0  0  3  0  0  0  0  0  0
  160.0850  209.6170  152.7560 O   0  0  0  0  0  0  0  0  0  0  0  0
  159.8840  210.5300  153.5990 C   0  0  0  0  0  0  0  0  0  0  0  0
  159.7130  211.8840  153.1710 N   0  0  0  0  0  2  0  0  0  0  0  0
  159.1160  212.5160  156.7260 C   0  0  1  0  0  3  0  0  0  0  0  0
  158.3820  210.3940  155.6030 C   0  0  0  0  0  2  0  0  0  0  0  0
  162.2550  210.7020  155.4250 C   0  0  0  0  0  1  0  0  0  0  0  0
  158.8280  213.8700  156.8820 O   0  0  0  0  0  1  0  0  0  0  0  0
  158.0810  211.8800  155.8030 C   0  0  0  0  0  2  0  0  0  0  0  0
  160.8400  210.8790  155.9450 C   0  0  2  0  0  3  0  0  0  0  0  0
  159.7970  210.1740  155.0570 C   0  0  2  0  0  3  0  0  0  0  0  0
  160.5170  212.3590  156.1420 C   0  0  0  0  0  2  0  0  0  0  0  0
  1  6  2  0  0  0  0
  1 14  1  0  0  0  0
  2  5  1  6  0  0  0
  2 13  1  0  0  0  0
  3  2  1  0  0  0  0
  3 19  1  0  0  0  0
  4  7  1  0  0  0  0
  4 15  2  0  0  0  0
  5 16  1  0  0  0  0
  6 17  1  0  0  0  0
  7  3  2  0  0  0  0
  8 23  1  1  0  0  0
  9  1  1  0  0  0  0
 10 18  1  0  0  0  0
 11  4  1  0  0  0  0
 12  8  1  0  0  0  0
 13  8  1  0  0  0  0
 13 18  1  1  0  0  0
 14  5  2  0  0  0  0
 15 20  1  0  0  0  0
 16 12  1  0  0  0  0
 17 16  2  0  0  0  0
 19 10  1  0  0  0  0
 20 19  2  0  0  0  0
 21 22  2  0  0  0  0
 23 22  1  0  0  0  0
 24 27  1  6  0  0  0
 25 28  1  0  0  0  0
 28 24  1  0  0  0  0
 29 26  1  6  0  0  0
 29 31  1  0  0  0  0
 30 22  1  6  0  0  0
 30 25  1  0  0  0  0
 30 29  1  0  0  0  0
 31 24  1  0  0  0  0
M  END
>  <MODEL>
9

>  <REMARK>
 VINA RESULT:      -5.2      6.473      8.192
  Name = 
  2 active torsions:
  status: ('A' for Active; 'I' for Inactive)
    1  A    between atoms: C_5  and  C_30
    2  A    between atoms: C_10  and  N_16
                            x       y       z     vdW  Elec       q    Type
                         _______ _______ _______ _____ _____    ______ ____

>  <TORSDO>
F 2

$$$$
