=
 OpenBabel11122412543D

 32 38  0  0  1  0  0  0  0  0999 V2000
  161.7700  203.2760  147.6450 C   0  0  1  0  0  3  0  0  0  0  0  0
  161.7760  206.7480  151.5300 C   0  0  2  0  0  3  0  0  0  0  0  0
  162.4460  211.1390  149.2000 C   0  0  0  0  0  2  0  0  0  0  0  0
  161.3310  211.8020  150.0040 C   0  0  0  0  0  2  0  0  0  0  0  0
  161.0940  206.9010  154.0520 C   0  0  0  0  0  0  0  0  0  0  0  0
  160.2480  207.6950  154.9960 C   0  0  1  0  0  3  0  0  0  0  0  0
  161.4790  204.6690  150.2060 C   0  0  2  0  0  3  0  0  0  0  0  0
  162.2410  206.7690  149.1370 N   0  0  0  0  0  2  0  0  0  0  0  0
  160.1200  209.6070  156.1790 C   0  0  1  0  0  3  0  0  0  0  0  0
  161.9730  204.8010  147.7050 C   0  0  2  0  0  3  0  0  0  0  0  0
  162.1060  209.6730  148.9800 C   0  0  0  0  0  2  0  0  0  0  0  0
  161.6000  207.5180  150.2130 C   0  0  2  0  0  3  0  0  0  0  0  0
  162.0980  208.9600  150.3330 C   0  0  2  0  0  3  0  0  0  0  0  0
  160.6450  208.8820  152.5020 C   0  0  2  0  0  3  0  0  0  0  0  0
  159.9980  208.5330  157.1700 N   0  0  0  0  0  2  0  0  0  0  0  0
  161.2090  202.5810  148.9040 C   0  0  0  0  0  2  0  0  0  0  0  0
  161.4620  205.5420  148.9420 C   0  0  1  0  0  3  0  0  0  0  0  0
  160.2650  207.2960  156.4430 C   0  0  0  0  0  2  0  0  0  0  0  0
  160.5780  203.4850  149.9560 C   0  0  0  0  0  2  0  0  0  0  0  0
  160.7680  204.2020  146.9900 C   0  0  1  0  0  3  0  0  0  0  0  0
  160.9180  210.9880  151.2040 C   0  0  0  0  0  3  0  0  0  0  0  0
  161.2290  209.6850  151.3530 C   0  0  0  0  0  0  0  0  0  0  0  0
  160.2980  209.7160  153.7700 C   0  0  0  0  0  2  0  0  0  0  0  0
  160.9670  205.4600  151.4140 C   0  0  0  0  0  2  0  0  0  0  0  0
  161.4780  205.7720  154.3190 O   0  0  0  0  0  0  0  0  0  0  0  0
  161.1340  210.9130  156.8390 Cl  0  0  0  0  0  0  0  0  0  0  0  0
  161.4990  207.6120  152.7810 C   0  0  2  0  0  3  0  0  0  0  0  0
  160.7460  209.0490  154.9940 N   0  0  2  0  0  0  0  0  0  0  0  0
  160.9970  204.2230  145.5650 N   0  0  0  0  0  0  0  0  0  0  0  0
  160.8150  205.2720  144.8390 C   0  0  0  0  0  0  0  0  0  0  0  0
  160.3470  206.5720  145.4210 C   0  0  0  0  0  1  0  0  0  0  0  0
  161.0790  205.1980  143.3770 C   0  0  0  0  0  1  0  0  0  0  0  0
  1 10  1  0  0  0  0
  1 16  1  1  0  0  0
  2 24  1  6  0  0  0
  2 27  1  0  0  0  0
  3  4  1  0  0  0  0
  4 21  1  0  0  0  0
  5 25  2  0  0  0  0
  5  6  1  0  0  0  0
  6 18  1  1  0  0  0
  7 19  1  6  0  0  0
  7 24  1  0  0  0  0
  8 12  1  0  0  0  0
  9 26  1  1  0  0  0
  9 15  1  0  0  0  0
 10 17  1  0  0  0  0
 11  3  1  0  0  0  0
 11 13  1  0  0  0  0
 12 13  1  0  0  0  0
 12  2  1  0  0  0  0
 13 22  1  0  0  0  0
 14 27  1  0  0  0  0
 14 23  1  0  0  0  0
 16 19  1  0  0  0  0
 17  8  1  0  0  0  0
 17  7  1  0  0  0  0
 18 15  1  0  0  0  0
 20  1  1  0  0  0  0
 20 10  1  0  0  0  0
 21 22  2  0  0  0  0
 22 14  1  0  0  0  0
 23 28  1  0  0  0  0
 27  5  1  0  0  0  0
 28  6  1  0  0  0  0
 28  9  1  0  0  0  0
 29 20  1  0  0  0  0
 30 31  1  0  0  0  0
 30 29  2  0  0  0  0
 32 30  1  0  0  0  0
M  END
>  <MODEL>
1

>  <REMARK>
 VINA RESULT:      -8.6      0.000      0.000
  Name = 
  1 active torsions:
  status: ('A' for Active; 'I' for Inactive)
    1  A    between atoms: C_20  and  N_29
                            x       y       z     vdW  Elec       q    Type
                         _______ _______ _______ _____ _____    ______ ____

>  <TORSDO>
F 1

$$$$
=
 OpenBabel11122412543D

 32 38  0  0  1  0  0  0  0  0999 V2000
  161.4240  203.3530  149.2900 C   0  0  1  0  0  3  0  0  0  0  0  0
  161.3960  207.6220  152.2760 C   0  0  2  0  0  3  0  0  0  0  0  0
  162.5680  211.3110  149.0860 C   0  0  0  0  0  2  0  0  0  0  0  0
  161.4480  212.2040  149.6150 C   0  0  0  0  0  2  0  0  0  0  0  0
  160.5390  208.3920  154.6260 C   0  0  0  0  0  0  0  0  0  0  0  0
  159.6870  209.4280  155.2850 C   0  0  1  0  0  3  0  0  0  0  0  0
  161.0450  205.3140  151.4330 C   0  0  2  0  0  3  0  0  0  0  0  0
  162.0410  207.0630  149.9920 N   0  0  0  0  0  2  0  0  0  0  0  0
  159.6140  211.5660  155.9900 C   0  0  1  0  0  3  0  0  0  0  0  0
  161.7360  204.8360  149.0220 C   0  0  2  0  0  3  0  0  0  0  0  0
  162.1370  209.8550  149.1720 C   0  0  0  0  0  2  0  0  0  0  0  0
  161.3790  208.0760  150.8080 C   0  0  2  0  0  3  0  0  0  0  0  0
  161.9740  209.4760  150.6450 C   0  0  2  0  0  3  0  0  0  0  0  0
  160.3590  209.9820  152.6340 C   0  0  2  0  0  3  0  0  0  0  0  0
  159.3360  210.7580  157.1830 N   0  0  0  0  0  2  0  0  0  0  0  0
  160.7190  203.0000  150.6170 C   0  0  0  0  0  2  0  0  0  0  0  0
  161.1890  205.8700  150.0090 C   0  0  1  0  0  3  0  0  0  0  0  0
  159.5650  209.3740  156.7800 C   0  0  0  0  0  2  0  0  0  0  0  0
  160.0790  204.1550  151.3760 C   0  0  0  0  0  2  0  0  0  0  0  0
  160.5470  204.1560  148.3540 C   0  0  1  0  0  3  0  0  0  0  0  0
  160.8870  211.7130  150.9260 C   0  0  0  0  0  3  0  0  0  0  0  0
  161.0860  210.4640  151.3920 C   0  0  0  0  0  0  0  0  0  0  0  0
  159.9800  211.1050  153.6450 C   0  0  0  0  0  2  0  0  0  0  0  0
  160.5040  206.3890  152.3800 C   0  0  0  0  0  2  0  0  0  0  0  0
  160.8160  207.3350  155.1740 O   0  0  0  0  0  0  0  0  0  0  0  0
  160.6700  212.9310  156.4280 Cl  0  0  0  0  0  0  0  0  0  0  0  0
  161.0910  208.7660  153.2690 C   0  0  2  0  0  3  0  0  0  0  0  0
  160.2840  210.7150  155.0230 N   0  0  2  0  0  0  0  0  0  0  0  0
  160.8830  203.8350  146.9890 N   0  0  0  0  0  0  0  0  0  0  0  0
  161.0170  204.7280  146.0690 C   0  0  0  0  0  0  0  0  0  0  0  0
  160.8350  206.1890  146.3450 C   0  0  0  0  0  1  0  0  0  0  0  0
  161.3680  204.2990  144.6870 C   0  0  0  0  0  1  0  0  0  0  0  0
  1 16  1  1  0  0  0
  2 24  1  6  0  0  0
  2 27  1  0  0  0  0
  3 11  1  0  0  0  0
  3  4  1  0  0  0  0
  4 21  1  0  0  0  0
  5 25  2  0  0  0  0
  5  6  1  0  0  0  0
  6 18  1  1  0  0  0
  7 19  1  6  0  0  0
  7 24  1  0  0  0  0
  8 17  1  0  0  0  0
  8 12  1  0  0  0  0
  9 26  1  1  0  0  0
  9 15  1  0  0  0  0
 10  1  1  0  0  0  0
 10 17  1  0  0  0  0
 11 13  1  0  0  0  0
 12  2  1  0  0  0  0
 13 12  1  0  0  0  0
 13 22  1  0  0  0  0
 14 27  1  0  0  0  0
 14 23  1  0  0  0  0
 16 19  1  0  0  0  0
 17  7  1  0  0  0  0
 18 15  1  0  0  0  0
 20 10  1  0  0  0  0
 20  1  1  0  0  0  0
 21 22  2  0  0  0  0
 22 14  1  0  0  0  0
 23 28  1  0  0  0  0
 27  5  1  0  0  0  0
 28  6  1  0  0  0  0
 28  9  1  0  0  0  0
 29 20  1  0  0  0  0
 30 31  1  0  0  0  0
 30 29  2  0  0  0  0
 32 30  1  0  0  0  0
M  END
>  <MODEL>
2

>  <REMARK>
 VINA RESULT:      -6.8      1.240      1.457
  Name = 
  1 active torsions:
  status: ('A' for Active; 'I' for Inactive)
    1  A    between atoms: C_20  and  N_29
                            x       y       z     vdW  Elec       q    Type
                         _______ _______ _______ _____ _____    ______ ____

>  <TORSDO>
F 1

$$$$
=
 OpenBabel11122412543D

 32 38  0  0  1  0  0  0  0  0999 V2000
  161.7530  212.5860  149.0710 C   0  0  1  0  0  3  0  0  0  0  0  0
  162.0830  207.3890  148.8920 C   0  0  2  0  0  3  0  0  0  0  0  0
  161.7790  206.0110  153.7050 C   0  0  0  0  0  2  0  0  0  0  0  0
  160.7660  204.9150  153.3880 C   0  0  0  0  0  2  0  0  0  0  0  0
  161.8760  205.4490  147.1470 C   0  0  0  0  0  0  0  0  0  0  0  0
  161.1370  204.1770  146.8850 C   0  0  1  0  0  3  0  0  0  0  0  0
  161.7880  209.7710  148.2580 C   0  0  2  0  0  3  0  0  0  0  0  0
  162.0820  209.1040  150.6250 N   0  0  0  0  0  2  0  0  0  0  0  0
  161.0110  201.9880  147.4050 C   0  0  1  0  0  3  0  0  0  0  0  0
  161.7820  211.4870  150.1490 C   0  0  2  0  0  3  0  0  0  0  0  0
  161.5790  207.1760  152.7470 C   0  0  0  0  0  2  0  0  0  0  0  0
  161.5720  207.7790  150.2870 C   0  0  2  0  0  3  0  0  0  0  0  0
  161.9110  206.7110  151.3290 C   0  0  2  0  0  3  0  0  0  0  0  0
  160.9130  205.1430  149.4940 C   0  0  2  0  0  3  0  0  0  0  0  0
  161.2050  202.0280  145.9520 N   0  0  0  0  0  2  0  0  0  0  0  0
  161.5250  212.1450  147.6090 C   0  0  0  0  0  2  0  0  0  0  0  0
  161.4300  210.0600  149.7240 C   0  0  1  0  0  3  0  0  0  0  0  0
  161.4740  203.4260  145.6300 C   0  0  0  0  0  2  0  0  0  0  0  0
  161.0020  210.7300  147.3980 C   0  0  0  0  0  2  0  0  0  0  0  0
  160.5430  212.3510  149.9500 C   0  0  1  0  0  3  0  0  0  0  0  0
  160.6870  204.6080  151.9130 C   0  0  0  0  0  3  0  0  0  0  0  0
  161.1710  205.4300  150.9620 C   0  0  0  0  0  0  0  0  0  0  0  0
  160.7160  203.6380  149.1490 C   0  0  0  0  0  2  0  0  0  0  0  0
  161.4240  208.3310  147.8880 C   0  0  0  0  0  2  0  0  0  0  0  0
  162.4340  206.0700  146.2540 O   0  0  0  0  0  0  0  0  0  0  0  0
  161.9700  200.6580  148.0980 Cl  0  0  0  0  0  0  0  0  0  0  0  0
  161.9470  205.8790  148.5950 C   0  0  2  0  0  3  0  0  0  0  0  0
  161.4630  203.2570  147.9480 N   0  0  2  0  0  0  0  0  0  0  0  0
  160.4940  213.3630  150.9770 N   0  0  0  0  0  0  0  0  0  0  0  0
  159.6220  213.3610  151.9250 C   0  0  0  0  0  0  0  0  0  0  0  0
  158.5750  212.2950  152.0430 C   0  0  0  0  0  1  0  0  0  0  0  0
  159.6520  214.4480  152.9420 C   0  0  0  0  0  1  0  0  0  0  0  0
  1 16  1  6  0  0  0
  1 20  1  0  0  0  0
  1 10  1  0  0  0  0
  2 24  1  6  0  0  0
  2 12  1  0  0  0  0
  4  3  1  0  0  0  0
  5 27  1  0  0  0  0
  6 18  1  6  0  0  0
  6  5  1  0  0  0  0
  6 28  1  0  0  0  0
  7 19  1  6  0  0  0
  7 17  1  0  0  0  0
  9 28  1  0  0  0  0
  9 26  1  1  0  0  0
 11  3  1  0  0  0  0
 12  8  1  0  0  0  0
 12 13  1  0  0  0  0
 13 11  1  0  0  0  0
 14 22  1  0  0  0  0
 15  9  1  0  0  0  0
 17 10  1  0  0  0  0
 17  8  1  0  0  0  0
 18 15  1  0  0  0  0
 19 16  1  0  0  0  0
 20 10  1  0  0  0  0
 20 29  1  0  0  0  0
 21  4  1  0  0  0  0
 22 13  1  0  0  0  0
 22 21  2  0  0  0  0
 23 14  1  0  0  0  0
 24  7  1  0  0  0  0
 25  5  2  0  0  0  0
 27  2  1  0  0  0  0
 27 14  1  0  0  0  0
 28 23  1  0  0  0  0
 29 30  2  0  0  0  0
 30 31  1  0  0  0  0
 30 32  1  0  0  0  0
M  END
>  <MODEL>
3

>  <REMARK>
 VINA RESULT:      -5.9      3.611      8.174
  Name = 
  1 active torsions:
  status: ('A' for Active; 'I' for Inactive)
    1  A    between atoms: C_20  and  N_29
                            x       y       z     vdW  Elec       q    Type
                         _______ _______ _______ _____ _____    ______ ____

>  <TORSDO>
F 1

$$$$
