=
 OpenBabel11122413003D

 32 37  0  0  1  0  0  0  0  0999 V2000
  160.8790  209.9050  152.2000 C   0  0  1  0  0  3  0  0  0  0  0  0
  160.5100  206.5230  149.6270 C   0  0  0  0  0  2  0  0  0  0  0  0
  161.2590  207.3800  148.6130 C   0  0  0  0  0  2  0  0  0  0  0  0
  160.7830  211.8600  150.5360 C   0  0  0  0  0  0  0  0  0  0  0  0
  161.1860  212.3980  149.3220 C   0  0  0  0  0  0  0  0  0  0  0  0
  161.6160  210.3910  154.6330 C   0  0  2  0  0  3  0  0  0  0  0  0
  161.1720  208.0490  153.6750 C   0  0  0  0  0  2  0  0  0  0  0  0
  162.1820  212.5300  147.2570 C   0  0  1  0  0  3  0  0  0  0  0  0
  160.3890  207.3060  150.9230 C   0  0  0  0  0  2  0  0  0  0  0  0
  161.7200  208.7290  152.5040 N   0  0  1  0  0  0  0  0  0  0  0  0
  161.7770  207.7930  151.3750 C   0  0  2  0  0  3  0  0  0  0  0  0
  162.0690  209.8670  149.9350 C   0  0  0  0  0  0  0  0  0  0  0  0
  161.3720  213.7130  147.5850 N   0  0  0  0  0  0  0  0  0  0  0  0
  161.3420  208.9060  154.9360 C   0  0  2  0  0  3  0  0  0  0  0  0
  160.8190  213.6300  148.7330 N   0  0  0  0  0  0  0  0  0  0  0  0
  162.5740  207.6380  149.0570 O   0  0  0  0  0  0  0  0  0  0  0  0
  162.5360  208.4580  150.2150 C   0  0  2  0  0  3  0  0  0  0  0  0
  162.4260  210.4580  148.7540 N   0  0  0  0  0  0  0  0  0  0  0  0
  160.8710  210.8910  153.3890 C   0  0  0  0  0  2  0  0  0  0  0  0
  159.9020  212.5650  151.3480 O   0  0  0  0  0  1  0  0  0  0  0  0
  163.6380  212.9340  147.1150 C   0  0  0  0  0  1  0  0  0  0  0  0
  161.2810  210.5790  150.8950 C   0  0  0  0  0  0  0  0  0  0  0  0
  161.9990  211.7140  148.4820 C   0  0  0  0  0  0  0  0  0  0  0  0
  160.5320  208.5260  157.2560 C   0  0  0  0  0  2  0  0  0  0  0  0
  160.1130  208.7670  155.8180 C   0  0  1  0  0  3  0  0  0  0  0  0
  160.0870  209.9060  156.8200 C   0  0  1  0  0  3  0  0  0  0  0  0
  158.6550  210.1390  157.2610 C   0  0  0  0  0  2  0  0  0  0  0  0
  158.1960  211.4780  156.7980 C   0  0  0  0  0  0  0  0  0  0  0  0
  156.8370  211.8640  156.9720 N   0  0  0  0  0  1  0  0  0  0  0  0
  159.0000  212.2560  156.2230 O   0  0  0  0  0  0  0  0  0  0  0  0
  163.6570  210.9900  155.7230 O   0  0  0  0  0  1  0  0  0  0  0  0
  163.1090  210.6460  154.4870 C   0  0  0  0  0  2  0  0  0  0  0  0
  1 10  1  0  0  0  0
  1 19  1  1  0  0  0
  2  9  1  0  0  0  0
  3 16  1  0  0  0  0
  3  2  1  0  0  0  0
  4 22  1  0  0  0  0
  4 20  1  0  0  0  0
  5  4  2  0  0  0  0
  6 32  1  6  0  0  0
  6 14  1  0  0  0  0
  8 21  1  1  0  0  0
  8 13  1  0  0  0  0
  8 23  1  0  0  0  0
 10  7  1  1  0  0  0
 11  9  1  6  0  0  0
 11 10  1  0  0  0  0
 12 17  1  0  0  0  0
 12 22  2  0  0  0  0
 13 15  2  0  0  0  0
 14  7  1  6  0  0  0
 14 25  1  0  0  0  0
 15  5  1  0  0  0  0
 17 16  1  6  0  0  0
 17 11  1  0  0  0  0
 18 12  1  0  0  0  0
 19  6  1  0  0  0  0
 22  1  1  0  0  0  0
 23 18  2  0  0  0  0
 23  5  1  0  0  0  0
 25 26  1  0  0  0  0
 25 24  1  1  0  0  0
 26 24  1  0  0  0  0
 26 27  1  1  0  0  0
 28 29  1  0  0  0  0
 28 27  1  0  0  0  0
 30 28  2  0  0  0  0
 32 31  1  0  0  0  0
M  END
>  <MODEL>
1

>  <REMARK>
 VINA RESULT:      -3.8      0.000      0.000
  Name = 
  4 active torsions:
  status: ('A' for Active; 'I' for Inactive)
    1  A    between atoms: C_7  and  C_19
    2  A    between atoms: C_10  and  C_17
    3  A    between atoms: C_20  and  C_29
    4  A    between atoms: C_29  and  C_30
                            x       y       z     vdW  Elec       q    Type
                         _______ _______ _______ _____ _____    ______ ____

>  <TORSDO>
F 4

$$$$
=
 OpenBabel11122413003D

 32 37  0  0  1  0  0  0  0  0999 V2000
  160.6540  205.3430  150.5510 C   0  0  1  0  0  3  0  0  0  0  0  0
  159.4950  201.2390  150.5030 C   0  0  0  0  0  2  0  0  0  0  0  0
  160.1600  201.2040  149.1320 C   0  0  0  0  0  2  0  0  0  0  0  0
  160.5100  205.9710  148.0640 C   0  0  0  0  0  0  0  0  0  0  0  0
  160.7690  205.6320  146.7430 C   0  0  0  0  0  0  0  0  0  0  0  0
  161.8260  206.9840  152.1730 C   0  0  2  0  0  3  0  0  0  0  0  0
  160.9720  204.6480  152.8140 C   0  0  0  0  0  2  0  0  0  0  0  0
  161.4250  204.3720  144.9390 C   0  0  1  0  0  3  0  0  0  0  0  0
  159.6740  202.6280  151.0900 C   0  0  0  0  0  2  0  0  0  0  0  0
  161.3960  204.4200  151.4350 N   0  0  1  0  0  0  0  0  0  0  0  0
  161.1630  203.0160  151.0760 C   0  0  2  0  0  3  0  0  0  0  0  0
  161.4490  203.7960  148.6740 C   0  0  0  0  0  0  0  0  0  0  0  0
  160.8170  205.6560  144.5580 N   0  0  0  0  0  0  0  0  0  0  0  0
  161.4400  206.0220  153.3110 C   0  0  2  0  0  3  0  0  0  0  0  0
  160.4520  206.3490  145.5670 N   0  0  0  0  0  0  0  0  0  0  0  0
  161.5510  201.4190  149.2510 O   0  0  0  0  0  0  0  0  0  0  0  0
  161.7940  202.7430  149.7000 C   0  0  2  0  0  3  0  0  0  0  0  0
  161.6740  203.5270  147.3520 N   0  0  0  0  0  0  0  0  0  0  0  0
  160.9510  206.8120  150.9250 C   0  0  0  0  0  2  0  0  0  0  0  0
  159.8570  207.1640  148.3590 O   0  0  0  0  0  1  0  0  0  0  0  0
  162.8750  204.3420  144.4910 C   0  0  0  0  0  1  0  0  0  0  0  0
  160.9130  205.0610  149.0760 C   0  0  0  0  0  0  0  0  0  0  0  0
  161.3530  204.4540  146.4190 C   0  0  0  0  0  0  0  0  0  0  0  0
  160.8280  206.6940  155.6260 C   0  0  0  0  0  2  0  0  0  0  0  0
  160.3630  206.6450  154.1830 C   0  0  1  0  0  3  0  0  0  0  0  0
  160.8840  207.9420  154.7720 C   0  0  1  0  0  3  0  0  0  0  0  0
  159.7080  208.8380  155.1050 C   0  0  0  0  0  2  0  0  0  0  0  0
  159.9880  210.2290  154.6520 C   0  0  0  0  0  0  0  0  0  0  0  0
  161.3050  210.5990  154.2610 N   0  0  0  0  0  1  0  0  0  0  0  0
  159.0670  211.0860  154.6460 O   0  0  0  0  0  0  0  0  0  0  0  0
  163.4720  207.0570  150.4410 O   0  0  0  0  0  1  0  0  0  0  0  0
  163.2940  206.8270  151.8060 C   0  0  0  0  0  2  0  0  0  0  0  0
  1 19  1  1  0  0  0
  1 10  1  0  0  0  0
  2  9  1  0  0  0  0
  3 16  1  0  0  0  0
  3  2  1  0  0  0  0
  4 20  1  0  0  0  0
  4 22  1  0  0  0  0
  5  4  2  0  0  0  0
  6 32  1  6  0  0  0
  6 14  1  0  0  0  0
  8 21  1  1  0  0  0
  8 23  1  0  0  0  0
 10  7  1  1  0  0  0
 11  9  1  6  0  0  0
 11 10  1  0  0  0  0
 12 22  2  0  0  0  0
 13  8  1  0  0  0  0
 13 15  2  0  0  0  0
 14  7  1  6  0  0  0
 14 25  1  0  0  0  0
 15  5  1  0  0  0  0
 16 17  1  0  0  0  0
 17 12  1  6  0  0  0
 17 11  1  0  0  0  0
 18 12  1  0  0  0  0
 19  6  1  0  0  0  0
 22  1  1  0  0  0  0
 23  5  1  0  0  0  0
 23 18  2  0  0  0  0
 25 26  1  0  0  0  0
 25 24  1  1  0  0  0
 26 27  1  1  0  0  0
 26 24  1  0  0  0  0
 28 27  1  0  0  0  0
 29 28  1  0  0  0  0
 30 28  2  0  0  0  0
 31 32  1  0  0  0  0
M  END
>  <MODEL>
2

>  <REMARK>
 VINA RESULT:      -2.9      3.892      5.689
  Name = 
  4 active torsions:
  status: ('A' for Active; 'I' for Inactive)
    1  A    between atoms: C_7  and  C_19
    2  A    between atoms: C_10  and  C_17
    3  A    between atoms: C_20  and  C_29
    4  A    between atoms: C_29  and  C_30
                            x       y       z     vdW  Elec       q    Type
                         _______ _______ _______ _____ _____    ______ ____

>  <TORSDO>
F 4

$$$$
=
 OpenBabel11122413003D

 32 37  0  0  1  0  0  0  0  0999 V2000
  159.3840  210.6070  153.5690 C   0  0  1  0  0  3  0  0  0  0  0  0
  158.1060  212.9930  150.2730 C   0  0  0  0  0  2  0  0  0  0  0  0
  157.3730  213.8160  151.3240 C   0  0  0  0  0  2  0  0  0  0  0  0
  157.3780  210.7770  155.1650 C   0  0  0  0  0  0  0  0  0  0  0  0
  156.4100  211.5700  155.7640 C   0  0  0  0  0  0  0  0  0  0  0  0
  161.5960  209.6080  154.4690 C   0  0  2  0  0  3  0  0  0  0  0  0
  161.2990  210.6550  152.1410 C   0  0  0  0  0  2  0  0  0  0  0  0
  155.1480  213.4300  156.2350 C   0  0  1  0  0  3  0  0  0  0  0  0
  158.8790  211.8910  150.9770 C   0  0  0  0  0  2  0  0  0  0  0  0
  160.3930  211.4810  152.9360 N   0  0  1  0  0  0  0  0  0  0  0  0
  159.7720  212.4950  152.0750 C   0  0  2  0  0  3  0  0  0  0  0  0
  158.1010  212.7840  153.9690 C   0  0  0  0  0  0  0  0  0  0  0  0
  154.6720  212.2190  156.9220 N   0  0  0  0  0  0  0  0  0  0  0  0
  162.1610  209.7630  153.0450 C   0  0  2  0  0  3  0  0  0  0  0  0
  155.3770  211.1890  156.6520 N   0  0  0  0  0  0  0  0  0  0  0  0
  158.2930  214.4520  152.1870 O   0  0  0  0  0  0  0  0  0  0  0  0
  158.9810  213.4780  152.9540 C   0  0  2  0  0  3  0  0  0  0  0  0
  157.1220  213.5060  154.5950 N   0  0  0  0  0  0  0  0  0  0  0  0
  160.0620  209.5770  154.5000 C   0  0  0  0  0  2  0  0  0  0  0  0
  157.4120  209.4100  155.4220 O   0  0  0  0  0  1  0  0  0  0  0  0
  155.6080  214.4490  157.2610 C   0  0  0  0  0  1  0  0  0  0  0  0
  158.2990  211.4020  154.2840 C   0  0  0  0  0  0  0  0  0  0  0  0
  156.3150  212.8930  155.4930 C   0  0  0  0  0  0  0  0  0  0  0  0
  161.0090  207.6730  152.3480 C   0  0  0  0  0  2  0  0  0  0  0  0
  162.3390  208.4000  152.3980 C   0  0  1  0  0  3  0  0  0  0  0  0
  161.5460  208.3520  151.1070 C   0  0  1  0  0  3  0  0  0  0  0  0
  162.1640  207.3170  150.1890 C   0  0  0  0  0  2  0  0  0  0  0  0
  162.2130  207.8400  148.7950 C   0  0  0  0  0  0  0  0  0  0  0  0
  162.3460  206.9410  147.7010 N   0  0  0  0  0  1  0  0  0  0  0  0
  162.1700  209.0800  148.5870 O   0  0  0  0  0  0  0  0  0  0  0  0
  161.2740  210.8500  156.4860 O   0  0  0  0  0  1  0  0  0  0  0  0
  162.1150  210.7100  155.3800 C   0  0  0  0  0  2  0  0  0  0  0  0
  1 22  1  0  0  0  0
  1 19  1  1  0  0  0
  2  9  1  0  0  0  0
  2  3  1  0  0  0  0
  3 16  1  0  0  0  0
  4 20  1  0  0  0  0
  4  5  1  0  0  0  0
  5 15  1  0  0  0  0
  6 19  1  0  0  0  0
  6 32  1  1  0  0  0
  8 13  1  0  0  0  0
  8 21  1  1  0  0  0
 10  7  1  6  0  0  0
 10  1  1  0  0  0  0
 11  9  1  6  0  0  0
 11 10  1  0  0  0  0
 11 17  1  0  0  0  0
 12 22  1  0  0  0  0
 12 18  2  0  0  0  0
 14  7  1  6  0  0  0
 14  6  1  0  0  0  0
 15 13  2  0  0  0  0
 17 16  1  6  0  0  0
 17 12  1  0  0  0  0
 18 23  1  0  0  0  0
 22  4  2  0  0  0  0
 23  5  2  0  0  0  0
 23  8  1  0  0  0  0
 25 24  1  1  0  0  0
 25 14  1  0  0  0  0
 26 27  1  6  0  0  0
 26 24  1  0  0  0  0
 26 25  1  0  0  0  0
 28 27  1  0  0  0  0
 29 28  1  0  0  0  0
 30 28  2  0  0  0  0
 32 31  1  0  0  0  0
M  END
>  <MODEL>
3

>  <REMARK>
 VINA RESULT:      -1.9      2.723      7.214
  Name = 
  4 active torsions:
  status: ('A' for Active; 'I' for Inactive)
    1  A    between atoms: C_7  and  C_19
    2  A    between atoms: C_10  and  C_17
    3  A    between atoms: C_20  and  C_29
    4  A    between atoms: C_29  and  C_30
                            x       y       z     vdW  Elec       q    Type
                         _______ _______ _______ _____ _____    ______ ____

>  <TORSDO>
F 4

$$$$
=
 OpenBabel11122413003D

 32 37  0  0  1  0  0  0  0  0999 V2000
  161.0330  207.9130  150.2730 C   0  0  1  0  0  3  0  0  0  0  0  0
  160.3690  208.1210  154.4820 C   0  0  0  0  0  2  0  0  0  0  0  0
  160.8280  206.6680  154.4920 C   0  0  0  0  0  2  0  0  0  0  0  0
  160.4560  205.4630  149.7590 C   0  0  0  0  0  0  0  0  0  0  0  0
  160.5590  204.1260  150.1150 C   0  0  0  0  0  0  0  0  0  0  0  0
  162.2270  209.3090  148.4510 C   0  0  2  0  0  3  0  0  0  0  0  0
  161.7550  210.1180  150.8430 C   0  0  0  0  0  2  0  0  0  0  0  0
  161.0900  202.2700  151.3590 C   0  0  1  0  0  3  0  0  0  0  0  0
  160.4670  208.6470  153.0600 C   0  0  0  0  0  2  0  0  0  0  0  0
  161.9990  208.6950  151.0720 N   0  0  1  0  0  0  0  0  0  0  0  0
  161.8820  208.4040  152.5060 C   0  0  2  0  0  3  0  0  0  0  0  0
  161.7230  205.9700  151.7890 C   0  0  0  0  0  0  0  0  0  0  0  0
  160.2860  201.9580  150.1680 N   0  0  0  0  0  0  0  0  0  0  0  0
  162.1260  210.5120  149.4070 C   0  0  2  0  0  3  0  0  0  0  0  0
  159.9920  202.9950  149.4840 N   0  0  0  0  0  0  0  0  0  0  0  0
  162.1870  206.5740  154.1160 O   0  0  0  0  0  0  0  0  0  0  0  0
  162.3350  206.9550  152.7580 C   0  0  2  0  0  3  0  0  0  0  0  0
  161.7830  204.6350  152.0800 N   0  0  0  0  0  0  0  0  0  0  0  0
  161.2060  208.2090  148.7670 C   0  0  0  0  0  2  0  0  0  0  0  0
  159.7180  205.8270  148.6380 O   0  0  0  0  0  1  0  0  0  0  0  0
  162.4520  201.6120  151.2420 C   0  0  0  0  0  1  0  0  0  0  0  0
  161.1060  206.4220  150.5790 C   0  0  0  0  0  0  0  0  0  0  0  0
  161.2230  203.7420  151.2310 C   0  0  0  0  0  0  0  0  0  0  0  0
  161.8040  212.8540  148.6360 C   0  0  0  0  0  2  0  0  0  0  0  0
  161.1210  211.5210  148.8780 C   0  0  1  0  0  3  0  0  0  0  0  0
  161.5160  211.9300  147.4720 C   0  0  1  0  0  3  0  0  0  0  0  0
  160.2820  212.4110  146.7350 C   0  0  0  0  0  2  0  0  0  0  0  0
  160.5900  212.5780  145.2880 C   0  0  0  0  0  0  0  0  0  0  0  0
  159.6290  212.2050  144.3070 N   0  0  0  0  0  1  0  0  0  0  0  0
  161.7130  213.0200  144.9300 O   0  0  0  0  0  0  0  0  0  0  0  0
  163.5830  207.3480  148.2820 O   0  0  0  0  0  1  0  0  0  0  0  0
  163.6350  208.7320  148.4540 C   0  0  0  0  0  2  0  0  0  0  0  0
  1 19  1  6  0  0  0
  1 22  1  0  0  0  0
  1 10  1  0  0  0  0
  2  3  1  0  0  0  0
  4  5  2  0  0  0  0
  4 22  1  0  0  0  0
  5 23  1  0  0  0  0
  6 32  1  1  0  0  0
  6 19  1  0  0  0  0
  6 14  1  0  0  0  0
  8 21  1  6  0  0  0
  9  2  1  0  0  0  0
 10  7  1  1  0  0  0
 10 11  1  0  0  0  0
 11 17  1  0  0  0  0
 11  9  1  6  0  0  0
 12 18  1  0  0  0  0
 13  8  1  0  0  0  0
 14  7  1  1  0  0  0
 15  5  1  0  0  0  0
 15 13  2  0  0  0  0
 16  3  1  0  0  0  0
 17 12  1  6  0  0  0
 17 16  1  0  0  0  0
 20  4  1  0  0  0  0
 22 12  2  0  0  0  0
 23  8  1  0  0  0  0
 23 18  2  0  0  0  0
 25 24  1  1  0  0  0
 25 14  1  0  0  0  0
 26 27  1  6  0  0  0
 26 24  1  0  0  0  0
 26 25  1  0  0  0  0
 28 27  1  0  0  0  0
 29 28  1  0  0  0  0
 30 28  2  0  0  0  0
 31 32  1  0  0  0  0
M  END
>  <MODEL>
4

>  <REMARK>
 VINA RESULT:      -1.4      3.268      7.892
  Name = 
  4 active torsions:
  status: ('A' for Active; 'I' for Inactive)
    1  A    between atoms: C_7  and  C_19
    2  A    between atoms: C_10  and  C_17
    3  A    between atoms: C_20  and  C_29
    4  A    between atoms: C_29  and  C_30
                            x       y       z     vdW  Elec       q    Type
                         _______ _______ _______ _____ _____    ______ ____

>  <TORSDO>
F 4

$$$$
