=
 OpenBabel11122412463D

 32 38  0  0  1  0  0  0  0  0999 V2000
  160.5360  209.6320  153.8130 C   0  0  1  0  0  3  0  0  0  0  0  0
  161.2520  212.6830  149.5570 C   0  0  1  0  0  3  0  0  0  0  0  0
  156.5010  214.4530  149.8690 C   0  0  0  0  0  2  0  0  0  0  0  0
  156.2770  213.8700  148.4880 C   0  0  0  0  0  2  0  0  0  0  0  0
  162.4280  212.9120  147.2760 C   0  0  0  0  0  0  0  0  0  0  0  0
  162.3090  213.2330  145.8590 C   0  0  0  0  0  0  0  0  0  0  0  0
  161.4680  210.8530  151.2340 C   0  0  1  0  0  3  0  0  0  0  0  0
  160.1490  212.9250  151.7660 C   0  0  0  0  0  2  0  0  0  0  0  0
  161.3740  213.8640  143.9340 C   0  0  0  0  0  0  0  0  0  0  0  0
  160.2530  211.1040  153.5090 C   0  0  2  0  0  3  0  0  0  0  0  0
  157.6190  213.6770  150.5510 C   0  0  0  0  0  2  0  0  0  0  0  0
  160.1040  213.1760  150.3270 N   0  0  0  0  0  0  0  0  0  0  0  0
  158.8600  213.5370  149.6940 C   0  0  0  0  0  0  0  0  0  0  0  0
  160.0220  213.4720  147.5260 C   0  0  0  0  0  0  0  0  0  0  0  0
  162.6240  213.5940  143.7260 N   0  0  0  0  0  0  0  0  0  0  0  0
  160.7740  208.7580  152.5600 C   0  0  0  0  0  2  0  0  0  0  0  0
  160.2580  211.4210  152.0000 C   0  0  2  0  0  3  0  0  0  0  0  0
  163.2170  213.1940  144.9400 N   0  0  0  0  0  0  0  0  0  0  0  0
  161.6690  209.3540  151.4610 C   0  0  0  0  0  2  0  0  0  0  0  0
  161.6110  210.6790  154.0620 C   0  0  1  0  0  3  0  0  0  0  0  0
  157.5290  214.0990  147.6540 C   0  0  0  0  0  2  0  0  0  0  0  0
  158.7990  213.6490  148.3470 C   0  0  0  0  0  0  0  0  0  0  0  0
  159.9560  213.7880  146.0620 C   0  0  0  0  0  3  0  0  0  0  0  0
  161.3720  211.1710  149.7430 C   0  0  0  0  0  2  0  0  0  0  0  0
  163.5240  212.5410  147.7750 O   0  0  0  0  0  0  0  0  0  0  0  0
  160.4770  214.3010  142.9190 N   0  0  0  0  0  1  0  0  0  0  0  0
  161.1890  213.0480  148.0980 C   0  0  0  0  0  0  0  0  0  0  0  0
  161.0570  213.6560  145.3270 C   0  0  0  0  0  0  0  0  0  0  0  0
  161.6650  210.9780  155.4490 O   0  0  0  0  0  0  0  0  0  0  0  0
  162.6150  210.4060  156.2990 C   0  0  0  0  0  0  0  0  0  0  0  0
  162.3280  209.1550  157.0620 C   0  0  0  0  0  1  0  0  0  0  0  0
  163.7380  210.9560  156.4270 O   0  0  0  0  0  0  0  0  0  0  0  0
  1 16  1  6  0  0  0
  1 20  1  0  0  0  0
  2 24  1  6  0  0  0
  2 12  1  0  0  0  0
  3 11  1  0  0  0  0
  4  3  1  0  0  0  0
  5 25  2  0  0  0  0
  5 27  1  0  0  0  0
  6  5  1  0  0  0  0
  7 24  1  6  0  0  0
  7 19  1  0  0  0  0
  7 17  1  0  0  0  0
  8 17  1  0  0  0  0
  9 28  1  0  0  0  0
 10  1  1  0  0  0  0
 10 20  1  0  0  0  0
 12  8  1  0  0  0  0
 13 12  1  0  0  0  0
 13 11  1  0  0  0  0
 14 27  2  0  0  0  0
 14 22  1  0  0  0  0
 15  9  2  0  0  0  0
 15 18  1  0  0  0  0
 17 10  1  0  0  0  0
 18  6  2  0  0  0  0
 19 16  1  0  0  0  0
 20 29  1  0  0  0  0
 21 22  1  0  0  0  0
 21  4  1  0  0  0  0
 22 13  2  0  0  0  0
 23 14  1  0  0  0  0
 26  9  1  0  0  0  0
 27  2  1  0  0  0  0
 28  6  1  0  0  0  0
 28 23  2  0  0  0  0
 29 30  1  0  0  0  0
 30 32  2  0  0  0  0
 30 31  1  0  0  0  0
M  END
>  <MODEL>
1

>  <REMARK>
 VINA RESULT:      -6.8      0.000      0.000
  Name = 
  2 active torsions:
  status: ('A' for Active; 'I' for Inactive)
    1  A    between atoms: C_20  and  O_29
    2  A    between atoms: O_29  and  C_30
                            x       y       z     vdW  Elec       q    Type
                         _______ _______ _______ _____ _____    ______ ____

>  <TORSDO>
F 2

$$$$
=
 OpenBabel11122412463D

 32 38  0  0  1  0  0  0  0  0999 V2000
  160.4020  213.3240  147.1340 C   0  0  1  0  0  3  0  0  0  0  0  0
  161.5550  210.7140  151.5830 C   0  0  1  0  0  3  0  0  0  0  0  0
  161.8610  206.3090  149.0710 C   0  0  0  0  0  2  0  0  0  0  0  0
  160.7360  205.8160  149.9590 C   0  0  0  0  0  2  0  0  0  0  0  0
  161.1760  210.5750  154.1280 C   0  0  0  0  0  0  0  0  0  0  0  0
  160.8530  209.7390  155.2780 C   0  0  0  0  0  0  0  0  0  0  0  0
  160.6980  212.4190  149.9810 C   0  0  1  0  0  3  0  0  0  0  0  0
  162.3360  210.6670  149.2290 C   0  0  0  0  0  2  0  0  0  0  0  0
  160.3630  207.9080  156.4550 C   0  0  0  0  0  0  0  0  0  0  0  0
  161.4810  212.3070  147.5140 C   0  0  2  0  0  3  0  0  0  0  0  0
  161.7790  207.8270  148.9780 C   0  0  0  0  0  2  0  0  0  0  0  0
  161.9640  209.9130  150.4240 N   0  0  0  0  0  0  0  0  0  0  0  0
  161.6680  208.5050  150.3280 C   0  0  0  0  0  0  0  0  0  0  0  0
  161.0750  208.5350  152.7150 C   0  0  0  0  0  0  0  0  0  0  0  0
  160.4020  208.9260  157.2570 N   0  0  0  0  0  0  0  0  0  0  0  0
  159.2080  213.3790  148.1150 C   0  0  0  0  0  2  0  0  0  0  0  0
  161.1530  211.5320  148.8050 C   0  0  2  0  0  3  0  0  0  0  0  0
  160.7110  210.0840  156.5160 N   0  0  0  0  0  2  0  0  0  0  0  0
  159.5410  213.3500  149.6150 C   0  0  0  0  0  2  0  0  0  0  0  0
  161.7210  213.8000  147.7250 C   0  0  1  0  0  3  0  0  0  0  0  0
  160.9580  206.3460  151.3680 C   0  0  0  0  0  2  0  0  0  0  0  0
  161.2090  207.8390  151.4120 C   0  0  0  0  0  0  0  0  0  0  0  0
  160.7440  207.7240  153.9330 C   0  0  0  0  0  2  0  0  0  0  0  0
  160.3480  211.5720  151.2040 C   0  0  0  0  0  2  0  0  0  0  0  0
  161.3670  211.8140  154.2510 O   0  0  0  0  0  0  0  0  0  0  0  0
  160.0790  206.5780  156.8750 N   0  0  0  0  0  1  0  0  0  0  0  0
  161.2700  209.8850  152.8070 C   0  0  0  0  0  0  0  0  0  0  0  0
  160.6500  208.3390  155.1080 C   0  0  0  0  0  0  0  0  0  0  0  0
  162.5530  214.2910  146.6840 O   0  0  0  0  0  0  0  0  0  0  0  0
  162.3990  213.8910  145.3550 C   0  0  0  0  0  0  0  0  0  0  0  0
  161.3210  214.4530  144.4890 C   0  0  0  0  0  1  0  0  0  0  0  0
  163.1860  213.0360  144.8740 O   0  0  0  0  0  0  0  0  0  0  0  0
  1 10  1  0  0  0  0
  1 20  1  0  0  0  0
  1 16  1  1  0  0  0
  2 24  1  6  0  0  0
  2 27  1  0  0  0  0
  3  4  1  0  0  0  0
  4 21  1  0  0  0  0
  5 25  2  0  0  0  0
  5  6  1  0  0  0  0
  6 18  1  0  0  0  0
  7 19  1  6  0  0  0
  7 24  1  0  0  0  0
  8 12  1  0  0  0  0
  9 26  1  0  0  0  0
  9 15  2  0  0  0  0
 10 20  1  0  0  0  0
 10 17  1  0  0  0  0
 11  3  1  0  0  0  0
 11 13  1  0  0  0  0
 12  2  1  0  0  0  0
 13 12  1  0  0  0  0
 13 22  2  0  0  0  0
 14 27  2  0  0  0  0
 14 23  1  0  0  0  0
 16 19  1  0  0  0  0
 17  8  1  0  0  0  0
 17  7  1  0  0  0  0
 18 15  1  0  0  0  0
 21 22  1  0  0  0  0
 22 14  1  0  0  0  0
 23 28  1  0  0  0  0
 27  5  1  0  0  0  0
 28  6  2  0  0  0  0
 28  9  1  0  0  0  0
 29 20  1  0  0  0  0
 30 29  1  0  0  0  0
 31 30  1  0  0  0  0
 32 30  2  0  0  0  0
M  END
>  <MODEL>
2

>  <REMARK>
 VINA RESULT:      -6.5      3.094      8.914
  Name = 
  2 active torsions:
  status: ('A' for Active; 'I' for Inactive)
    1  A    between atoms: C_20  and  O_29
    2  A    between atoms: O_29  and  C_30
                            x       y       z     vdW  Elec       q    Type
                         _______ _______ _______ _____ _____    ______ ____

>  <TORSDO>
F 2

$$$$
=
 OpenBabel11122412463D

 32 38  0  0  1  0  0  0  0  0999 V2000
  160.1410  211.1190  155.9610 C   0  0  1  0  0  3  0  0  0  0  0  0
  161.7340  207.4680  152.4880 C   0  0  1  0  0  3  0  0  0  0  0  0
  162.4500  211.0010  148.9090 C   0  0  0  0  0  2  0  0  0  0  0  0
  161.4190  210.2600  148.0820 C   0  0  0  0  0  2  0  0  0  0  0  0
  161.4600  205.0370  151.6790 C   0  0  0  0  0  0  0  0  0  0  0  0
  161.2730  204.1300  150.5530 C   0  0  0  0  0  0  0  0  0  0  0  0
  160.6340  208.5900  154.4220 C   0  0  1  0  0  3  0  0  0  0  0  0
  162.4340  209.7630  153.1170 C   0  0  0  0  0  2  0  0  0  0  0  0
  161.0340  203.4450  148.4430 C   0  0  0  0  0  0  0  0  0  0  0  0
  161.3400  211.0100  155.0170 C   0  0  2  0  0  3  0  0  0  0  0  0
  162.1940  210.7120  150.3820 C   0  0  0  0  0  2  0  0  0  0  0  0
  162.1910  208.7930  152.0520 N   0  0  0  0  0  0  0  0  0  0  0  0
  162.0530  209.2350  150.6870 C   0  0  0  0  0  0  0  0  0  0  0  0
  161.5420  206.9130  150.0550 C   0  0  0  0  0  0  0  0  0  0  0  0
  160.9840  202.4150  149.2280 N   0  0  0  0  0  0  0  0  0  0  0  0
  158.9820  210.1510  155.6310 C   0  0  0  0  0  2  0  0  0  0  0  0
  161.1470  209.9520  153.9140 C   0  0  2  0  0  3  0  0  0  0  0  0
  161.1340  202.8450  150.5620 N   0  0  0  0  0  2  0  0  0  0  0  0
  159.3680  208.7060  155.2720 C   0  0  0  0  0  2  0  0  0  0  0  0
  161.4170  210.4340  156.4290 C   0  0  1  0  0  3  0  0  0  0  0  0
  161.6280  208.7640  148.2690 C   0  0  0  0  0  2  0  0  0  0  0  0
  161.7090  208.3500  149.7240 C   0  0  0  0  0  0  0  0  0  0  0  0
  161.3470  205.9350  148.9350 C   0  0  0  0  0  2  0  0  0  0  0  0
  160.4250  207.6160  153.2640 C   0  0  0  0  0  2  0  0  0  0  0  0
  161.5130  204.6100  152.8630 O   0  0  0  0  0  0  0  0  0  0  0  0
  160.9160  203.3690  147.0270 N   0  0  0  0  0  1  0  0  0  0  0  0
  161.5860  206.4880  151.3540 C   0  0  0  0  0  0  0  0  0  0  0  0
  161.2230  204.6440  149.2250 C   0  0  0  0  0  0  0  0  0  0  0  0
  162.1520  211.3240  157.2570 O   0  0  0  0  0  0  0  0  0  0  0  0
  163.5480  211.3690  157.2490 C   0  0  0  0  0  0  0  0  0  0  0  0
  164.2880  212.6660  157.2260 C   0  0  0  0  0  1  0  0  0  0  0  0
  164.2000  210.2940  157.2610 O   0  0  0  0  0  0  0  0  0  0  0  0
  1 16  1  6  0  0  0
  1 20  1  0  0  0  0
  2 24  1  6  0  0  0
  3 11  1  0  0  0  0
  4 21  1  0  0  0  0
  4  3  1  0  0  0  0
  5 25  2  0  0  0  0
  6 18  1  0  0  0  0
  6  5  1  0  0  0  0
  7 24  1  6  0  0  0
  7 19  1  0  0  0  0
  8 17  1  0  0  0  0
  9 28  1  0  0  0  0
  9 15  2  0  0  0  0
 10  1  1  0  0  0  0
 10 20  1  0  0  0  0
 11 13  1  0  0  0  0
 12  2  1  0  0  0  0
 12  8  1  0  0  0  0
 13 12  1  0  0  0  0
 14 27  2  0  0  0  0
 15 18  1  0  0  0  0
 17  7  1  0  0  0  0
 17 10  1  0  0  0  0
 19 16  1  0  0  0  0
 20 29  1  0  0  0  0
 21 22  1  0  0  0  0
 22 14  1  0  0  0  0
 22 13  2  0  0  0  0
 23 28  1  0  0  0  0
 23 14  1  0  0  0  0
 26  9  1  0  0  0  0
 27  5  1  0  0  0  0
 27  2  1  0  0  0  0
 28  6  2  0  0  0  0
 30 29  1  0  0  0  0
 30 32  2  0  0  0  0
 31 30  1  0  0  0  0
M  END
>  <MODEL>
3

>  <REMARK>
 VINA RESULT:      -6.1      4.777      6.973
  Name = 
  2 active torsions:
  status: ('A' for Active; 'I' for Inactive)
    1  A    between atoms: C_20  and  O_29
    2  A    between atoms: O_29  and  C_30
                            x       y       z     vdW  Elec       q    Type
                         _______ _______ _______ _____ _____    ______ ____

>  <TORSDO>
F 2

$$$$
=
 OpenBabel11122412463D

 32 38  0  0  1  0  0  0  0  0999 V2000
  159.5980  212.7750  145.2290 C   0  0  1  0  0  3  0  0  0  0  0  0
  160.4500  212.6050  150.4420 C   0  0  1  0  0  3  0  0  0  0  0  0
  162.6500  208.0420  150.0620 C   0  0  0  0  0  2  0  0  0  0  0  0
  161.5590  207.5270  150.9790 C   0  0  0  0  0  2  0  0  0  0  0  0
  159.5640  213.2750  152.7670 C   0  0  0  0  0  0  0  0  0  0  0  0
  159.2590  212.8630  154.1310 C   0  0  0  0  0  0  0  0  0  0  0  0
  159.5000  213.1540  148.2050 C   0  0  1  0  0  3  0  0  0  0  0  0
  161.7220  211.9950  148.4010 C   0  0  0  0  0  2  0  0  0  0  0  0
  159.0980  211.5490  155.9270 C   0  0  0  0  0  0  0  0  0  0  0  0
  160.8190  212.4480  146.0900 C   0  0  2  0  0  3  0  0  0  0  0  0
  162.1320  209.2730  149.3300 C   0  0  0  0  0  2  0  0  0  0  0  0
  161.3370  211.6500  149.7680 N   0  0  0  0  0  0  0  0  0  0  0  0
  161.5150  210.3040  150.2530 C   0  0  0  0  0  0  0  0  0  0  0  0
  160.4150  210.9810  152.3450 C   0  0  0  0  0  0  0  0  0  0  0  0
  158.6400  212.7250  156.2240 N   0  0  0  0  0  0  0  0  0  0  0  0
  158.2540  212.7370  145.9920 C   0  0  0  0  0  2  0  0  0  0  0  0
  160.4600  212.1370  147.5560 C   0  0  2  0  0  3  0  0  0  0  0  0
  158.7400  213.5570  155.0910 N   0  0  0  0  0  2  0  0  0  0  0  0
  158.2300  213.3850  147.3860 C   0  0  0  0  0  2  0  0  0  0  0  0
  160.5370  213.8880  145.6690 C   0  0  1  0  0  3  0  0  0  0  0  0
  161.2820  208.5770  152.0450 C   0  0  0  0  0  2  0  0  0  0  0  0
  161.0470  209.9600  151.4740 C   0  0  0  0  0  0  0  0  0  0  0  0
  160.0800  210.6110  153.7600 C   0  0  0  0  0  2  0  0  0  0  0  0
  159.1590  212.7490  149.6380 C   0  0  0  0  0  2  0  0  0  0  0  0
  159.3330  214.4490  152.3690 O   0  0  0  0  0  0  0  0  0  0  0  0
  159.1460  210.4620  156.8450 N   0  0  0  0  0  1  0  0  0  0  0  0
  160.1620  212.2390  151.8740 C   0  0  0  0  0  0  0  0  0  0  0  0
  159.5370  211.5310  154.5520 C   0  0  0  0  0  0  0  0  0  0  0  0
  161.3930  214.2360  144.5900 O   0  0  0  0  0  0  0  0  0  0  0  0
  162.4180  213.3960  144.1500 C   0  0  0  0  0  0  0  0  0  0  0  0
  162.2800  212.5790  142.9080 C   0  0  0  0  0  1  0  0  0  0  0  0
  163.4830  213.3220  144.8140 O   0  0  0  0  0  0  0  0  0  0  0  0
  1 20  1  0  0  0  0
  1 16  1  1  0  0  0
  1 10  1  0  0  0  0
  2 24  1  6  0  0  0
  2 27  1  0  0  0  0
  3  4  1  0  0  0  0
  4 21  1  0  0  0  0
  5  6  1  0  0  0  0
  6 28  2  0  0  0  0
  6 18  1  0  0  0  0
  7 19  1  6  0  0  0
  7 24  1  0  0  0  0
  8 12  1  0  0  0  0
  9 15  2  0  0  0  0
  9 26  1  0  0  0  0
 10 17  1  0  0  0  0
 11  3  1  0  0  0  0
 11 13  1  0  0  0  0
 12 13  1  0  0  0  0
 12  2  1  0  0  0  0
 13 22  2  0  0  0  0
 14 23  1  0  0  0  0
 16 19  1  0  0  0  0
 17  7  1  0  0  0  0
 17  8  1  0  0  0  0
 18 15  1  0  0  0  0
 20 10  1  0  0  0  0
 22 21  1  0  0  0  0
 22 14  1  0  0  0  0
 23 28  1  0  0  0  0
 25  5  2  0  0  0  0
 27 14  2  0  0  0  0
 27  5  1  0  0  0  0
 28  9  1  0  0  0  0
 29 20  1  0  0  0  0
 30 29  1  0  0  0  0
 30 32  2  0  0  0  0
 31 30  1  0  0  0  0
M  END
>  <MODEL>
4

>  <REMARK>
 VINA RESULT:      -5.0      2.992      8.603
  Name = 
  2 active torsions:
  status: ('A' for Active; 'I' for Inactive)
    1  A    between atoms: C_20  and  O_29
    2  A    between atoms: O_29  and  C_30
                            x       y       z     vdW  Elec       q    Type
                         _______ _______ _______ _____ _____    ______ ____

>  <TORSDO>
F 2

$$$$
=
 OpenBabel11122412463D

 32 38  0  0  1  0  0  0  0  0999 V2000
  162.4650  210.4830  153.9270 C   0  0  1  0  0  3  0  0  0  0  0  0
  160.8150  207.4110  149.9550 C   0  0  1  0  0  3  0  0  0  0  0  0
  160.7690  203.3220  152.9680 C   0  0  0  0  0  2  0  0  0  0  0  0
  161.7870  202.7130  152.0250 C   0  0  0  0  0  2  0  0  0  0  0  0
  160.9100  206.9810  147.4170 C   0  0  0  0  0  0  0  0  0  0  0  0
  161.1010  206.0160  146.3400 C   0  0  0  0  0  0  0  0  0  0  0  0
  161.8520  209.2700  151.2510 C   0  0  1  0  0  3  0  0  0  0  0  0
  160.2990  207.6420  152.3700 C   0  0  0  0  0  2  0  0  0  0  0  0
  161.4490  204.0570  145.3310 C   0  0  0  0  0  0  0  0  0  0  0  0
  161.3460  209.4490  153.7850 C   0  0  2  0  0  3  0  0  0  0  0  0
  160.8670  204.8390  152.8790 C   0  0  0  0  0  2  0  0  0  0  0  0
  160.5330  206.7520  151.2350 N   0  0  0  0  0  0  0  0  0  0  0  0
  160.8310  205.3590  151.4570 C   0  0  0  0  0  0  0  0  0  0  0  0
  161.1580  205.1110  149.0320 C   0  0  0  0  0  0  0  0  0  0  0  0
  161.3270  204.9790  144.4290 N   0  0  0  0  0  0  0  0  0  0  0  0
  163.5440  210.4080  152.8220 C   0  0  0  0  0  2  0  0  0  0  0  0
  161.5260  208.5280  152.5620 C   0  0  2  0  0  3  0  0  0  0  0  0
  161.1070  206.2170  145.0630 N   0  0  0  0  0  0  0  0  0  0  0  0
  163.0460  210.2170  151.3800 C   0  0  0  0  0  2  0  0  0  0  0  0
  161.0910  210.9120  153.4330 C   0  0  1  0  0  3  0  0  0  0  0  0
  161.4130  203.0850  150.5970 C   0  0  0  0  0  2  0  0  0  0  0  0
  161.1660  204.5680  150.4120 C   0  0  0  0  0  0  0  0  0  0  0  0
  161.3480  204.1630  147.8850 C   0  0  0  0  0  3  0  0  0  0  0  0
  162.0610  208.2850  150.1010 C   0  0  0  0  0  2  0  0  0  0  0  0
  160.7130  208.2020  147.1760 O   0  0  0  0  0  0  0  0  0  0  0  0
  161.6790  202.6830  145.0370 N   0  0  0  0  0  1  0  0  0  0  0  0
  160.9600  206.4460  148.8090 C   0  0  0  0  0  0  0  0  0  0  0  0
  161.3150  204.6410  146.6450 C   0  0  0  0  0  0  0  0  0  0  0  0
  160.3810  211.5310  154.4970 O   0  0  0  0  0  0  0  0  0  0  0  0
  159.0480  211.2270  154.7810 C   0  0  0  0  0  0  0  0  0  0  0  0
  157.9460  211.5920  153.8410 C   0  0  0  0  0  1  0  0  0  0  0  0
  158.7660  210.6320  155.8520 O   0  0  0  0  0  0  0  0  0  0  0  0
  1 16  1  6  0  0  0
  2 24  1  1  0  0  0
  2 12  1  0  0  0  0
  4  3  1  0  0  0  0
  5 27  1  0  0  0  0
  6 28  1  0  0  0  0
  6  5  1  0  0  0  0
  7 24  1  6  0  0  0
  7 19  1  0  0  0  0
  7 17  1  0  0  0  0
  8 17  1  0  0  0  0
  9 28  1  0  0  0  0
 10  1  1  0  0  0  0
 11  3  1  0  0  0  0
 12 13  1  0  0  0  0
 12  8  1  0  0  0  0
 13 11  1  0  0  0  0
 14 22  1  0  0  0  0
 15 18  1  0  0  0  0
 15  9  2  0  0  0  0
 17 10  1  0  0  0  0
 18  6  2  0  0  0  0
 19 16  1  0  0  0  0
 20 10  1  0  0  0  0
 20  1  1  0  0  0  0
 20 29  1  0  0  0  0
 21  4  1  0  0  0  0
 22 21  1  0  0  0  0
 22 13  2  0  0  0  0
 23 14  1  0  0  0  0
 25  5  2  0  0  0  0
 26  9  1  0  0  0  0
 27 14  2  0  0  0  0
 27  2  1  0  0  0  0
 28 23  2  0  0  0  0
 29 30  1  0  0  0  0
 30 32  2  0  0  0  0
 31 30  1  0  0  0  0
M  END
>  <MODEL>
5

>  <REMARK>
 VINA RESULT:      -4.0      4.939      7.357
  Name = 
  2 active torsions:
  status: ('A' for Active; 'I' for Inactive)
    1  A    between atoms: C_20  and  O_29
    2  A    between atoms: O_29  and  C_30
                            x       y       z     vdW  Elec       q    Type
                         _______ _______ _______ _____ _____    ______ ____

>  <TORSDO>
F 2

$$$$
