=
 OpenBabel11122414193D

 34 41  0  0  1  0  0  0  0  0999 V2000
  160.8840  207.8130  154.1510 C   0  0  0  0  0  0  0  0  0  0  0  0
  162.2240  206.1740  152.8750 N   0  0  0  0  0  2  0  0  0  0  0  0
  159.1400  213.5300  155.7390 C   0  0  2  0  0  3  0  0  0  0  0  0
  159.2420  209.3000  155.0950 C   0  0  0  0  0  0  0  0  0  0  0  0
  158.7670  211.5620  154.0540 C   0  0  1  0  0  3  0  0  0  0  0  0
  160.8160  212.2040  155.4780 C   0  0  0  0  0  2  0  0  0  0  0  0
  160.2860  213.0560  156.6210 C   0  0  0  0  0  2  0  0  0  0  0  0
  157.6590  211.8010  156.9690 C   0  0  0  0  0  2  0  0  0  0  0  0
  162.2540  208.4650  152.1370 C   0  0  2  0  0  3  0  0  0  0  0  0
  161.7000  208.7670  148.9360 C   0  0  0  0  0  2  0  0  0  0  0  0
  159.3200  210.9470  152.7650 C   0  0  0  0  0  2  0  0  0  0  0  0
  157.3530  210.7180  155.9480 C   0  0  0  0  0  2  0  0  0  0  0  0
  161.1040  209.4340  151.7820 C   0  0  1  0  0  3  0  0  0  0  0  0
  162.9810  206.2280  151.6250 C   0  0  0  0  0  2  0  0  0  0  0  0
  158.4860  210.5260  155.0560 N   0  0  0  0  0  0  0  0  0  0  0  0
  157.7500  213.1720  156.3010 C   0  0  0  0  0  2  0  0  0  0  0  0
  161.8040  207.4840  149.7800 C   0  0  1  0  0  3  0  0  0  0  0  0
  160.2050  209.0370  154.1090 C   0  0  0  0  0  0  0  0  0  0  0  0
  159.6810  212.6860  154.5830 C   0  0  2  0  0  3  0  0  0  0  0  0
  160.5420  210.0730  153.0610 C   0  0  2  0  0  3  0  0  0  0  0  0
  159.6540  207.1810  156.0690 C   0  0  0  0  0  3  0  0  0  0  0  0
  162.3270  210.0060  149.5820 C   0  0  0  0  0  2  0  0  0  0  0  0
  158.9880  208.3640  156.0500 N   0  0  0  0  0  0  0  0  0  0  0  0
  161.5430  210.5220  150.7920 C   0  0  0  0  0  2  0  0  0  0  0  0
  162.7640  207.5970  150.9870 C   0  0  1  0  0  3  0  0  0  0  0  0
  160.5890  206.9080  155.1220 N   0  0  0  0  0  0  0  0  0  0  0  0
  161.8370  207.4960  153.1310 N   0  0  0  0  0  0  0  0  0  0  0  0
  160.5270  207.0720  150.1770 O   0  0  0  0  0  0  0  0  0  0  0  0
  160.0920  206.2020  149.1760 C   0  0  0  0  0  2  0  0  0  0  0  0
  161.2980  202.7840  149.3310 O   0  0  0  0  0  0  0  0  0  0  0  0
  160.3570  204.2280  150.7480 O   0  0  0  0  0  0  0  0  0  0  0  0
  160.5210  204.8180  149.5080 C   0  0  0  0  0  0  0  0  0  0  0  0
  160.8520  202.9000  150.6770 C   0  0  0  0  0  2  0  0  0  0  0  0
  161.0710  203.9760  148.6570 C   0  0  0  0  0  3  0  0  0  0  0  0
  1 26  1  0  0  0  0
  2 27  1  0  0  0  0
  3 16  1  1  0  0  0
  3  7  1  0  0  0  0
  4 23  2  0  0  0  0
  5 11  1  6  0  0  0
  5 19  1  0  0  0  0
  5 15  1  0  0  0  0
  6  7  1  0  0  0  0
  9 27  1  1  0  0  0
 10 22  1  0  0  0  0
 10 17  1  0  0  0  0
 12  8  1  0  0  0  0
 13 24  1  6  0  0  0
 13  9  1  0  0  0  0
 13 20  1  0  0  0  0
 14  2  1  0  0  0  0
 15  4  1  0  0  0  0
 15 12  1  0  0  0  0
 16  8  1  0  0  0  0
 17 28  1  1  0  0  0
 17 25  1  0  0  0  0
 18  1  2  0  0  0  0
 18  4  1  0  0  0  0
 19  6  1  1  0  0  0
 19  3  1  0  0  0  0
 20 11  1  6  0  0  0
 20 18  1  0  0  0  0
 22 24  1  0  0  0  0
 23 21  1  0  0  0  0
 25 14  1  1  0  0  0
 25  9  1  0  0  0  0
 26 21  2  0  0  0  0
 27  1  1  0  0  0  0
 29 32  1  0  0  0  0
 29 28  1  0  0  0  0
 30 33  1  0  0  0  0
 32 31  1  0  0  0  0
 33 31  1  0  0  0  0
 34 30  1  0  0  0  0
 34 32  2  0  0  0  0
M  END
>  <MODEL>
1

>  <REMARK>
 VINA RESULT:      -5.5      0.000      0.000
  Name = 
  3 active torsions:
  status: ('A' for Active; 'I' for Inactive)
    1  A    between atoms: C_17  and  O_28
    2  A    between atoms: O_28  and  C_29
    3  A    between atoms: C_29  and  C_32
                            x       y       z     vdW  Elec       q    Type
                         _______ _______ _______ _____ _____    ______ ____

>  <TORSDO>
F 3

$$$$
=
 OpenBabel11122414193D

 34 41  0  0  1  0  0  0  0  0999 V2000
  162.1710  207.7150  150.5280 C   0  0  0  0  0  0  0  0  0  0  0  0
  162.6270  210.0230  151.2870 N   0  0  0  0  0  2  0  0  0  0  0  0
  161.3050  201.6510  151.3900 C   0  0  2  0  0  3  0  0  0  0  0  0
  161.2860  205.6100  149.7620 C   0  0  0  0  0  0  0  0  0  0  0  0
  160.1530  204.0020  151.3600 C   0  0  1  0  0  3  0  0  0  0  0  0
  162.6010  203.3240  151.7870 C   0  0  0  0  0  2  0  0  0  0  0  0
  162.7760  201.9530  151.1520 C   0  0  0  0  0  2  0  0  0  0  0  0
  160.9220  202.2350  148.8980 C   0  0  0  0  0  2  0  0  0  0  0  0
  162.0780  208.3800  152.9590 C   0  0  2  0  0  3  0  0  0  0  0  0
  159.7560  209.3970  155.0130 C   0  0  0  0  0  2  0  0  0  0  0  0
  159.8960  205.2390  152.2280 C   0  0  0  0  0  2  0  0  0  0  0  0
  160.1520  203.5440  148.8930 C   0  0  0  0  0  2  0  0  0  0  0  0
  160.8760  207.4170  153.0820 C   0  0  1  0  0  3  0  0  0  0  0  0
  162.5160  210.7140  152.5700 C   0  0  0  0  0  2  0  0  0  0  0  0
  160.5700  204.3840  150.0060 N   0  0  0  0  0  0  0  0  0  0  0  0
  160.5220  201.3700  150.0920 C   0  0  0  0  0  2  0  0  0  0  0  0
  160.4110  210.1570  153.8450 C   0  0  1  0  0  3  0  0  0  0  0  0
  161.5160  206.5090  150.8130 C   0  0  0  0  0  0  0  0  0  0  0  0
  161.1300  203.0240  152.0440 C   0  0  2  0  0  3  0  0  0  0  0  0
  161.1170  206.1630  152.2300 C   0  0  2  0  0  3  0  0  0  0  0  0
  162.3210  207.1090  148.2480 C   0  0  0  0  0  3  0  0  0  0  0  0
  160.5610  208.1980  155.5230 C   0  0  0  0  0  2  0  0  0  0  0  0
  161.6910  205.9320  148.5030 N   0  0  0  0  0  0  0  0  0  0  0  0
  160.5900  207.0250  154.5390 C   0  0  0  0  0  2  0  0  0  0  0  0
  161.8830  209.7620  153.5800 C   0  0  1  0  0  3  0  0  0  0  0  0
  162.5510  207.9930  149.2530 N   0  0  0  0  0  0  0  0  0  0  0  0
  162.3760  208.6730  151.5710 N   0  0  0  0  0  0  0  0  0  0  0  0
  159.6290  210.0210  152.6930 O   0  0  0  0  0  0  0  0  0  0  0  0
  158.5860  210.9360  152.8460 C   0  0  0  0  0  2  0  0  0  0  0  0
  159.2160  214.4140  152.0300 O   0  0  0  0  0  0  0  0  0  0  0  0
  159.8080  212.4290  151.2000 O   0  0  0  0  0  0  0  0  0  0  0  0
  159.0090  212.2590  152.3150 C   0  0  0  0  0  0  0  0  0  0  0  0
  159.9700  213.8220  150.9790 C   0  0  0  0  0  2  0  0  0  0  0  0
  158.6450  213.4220  152.8150 C   0  0  0  0  0  3  0  0  0  0  0  0
  1 18  1  0  0  0  0
  1 27  1  0  0  0  0
  2 27  1  0  0  0  0
  2 14  1  0  0  0  0
  3 16  1  6  0  0  0
  3 19  1  0  0  0  0
  4 15  1  0  0  0  0
  4 18  2  0  0  0  0
  5 19  1  0  0  0  0
  5 11  1  1  0  0  0
  7  3  1  0  0  0  0
  7  6  1  0  0  0  0
  8 16  1  0  0  0  0
  9 27  1  6  0  0  0
  9 13  1  0  0  0  0
  9 25  1  0  0  0  0
 10 22  1  0  0  0  0
 12  8  1  0  0  0  0
 12 15  1  0  0  0  0
 13 24  1  1  0  0  0
 15  5  1  0  0  0  0
 17 28  1  6  0  0  0
 17 10  1  0  0  0  0
 18 20  1  0  0  0  0
 19  6  1  6  0  0  0
 20 11  1  6  0  0  0
 20 13  1  0  0  0  0
 21 23  2  0  0  0  0
 21 26  1  0  0  0  0
 23  4  1  0  0  0  0
 24 22  1  0  0  0  0
 25 14  1  6  0  0  0
 25 17  1  0  0  0  0
 26  1  2  0  0  0  0
 28 29  1  0  0  0  0
 30 34  1  0  0  0  0
 31 32  1  0  0  0  0
 32 34  2  0  0  0  0
 32 29  1  0  0  0  0
 33 31  1  0  0  0  0
 33 30  1  0  0  0  0
M  END
>  <MODEL>
2

>  <REMARK>
 VINA RESULT:      -3.1      3.077      8.024
  Name = 
  3 active torsions:
  status: ('A' for Active; 'I' for Inactive)
    1  A    between atoms: C_17  and  O_28
    2  A    between atoms: O_28  and  C_29
    3  A    between atoms: C_29  and  C_32
                            x       y       z     vdW  Elec       q    Type
                         _______ _______ _______ _____ _____    ______ ____

>  <TORSDO>
F 3

$$$$
=
 OpenBabel11122414193D

 34 41  0  0  1  0  0  0  0  0999 V2000
  162.1190  207.6610  150.5650 C   0  0  0  0  0  0  0  0  0  0  0  0
  162.5860  209.9450  151.3860 N   0  0  0  0  0  2  0  0  0  0  0  0
  161.2340  201.5790  151.2610 C   0  0  2  0  0  3  0  0  0  0  0  0
  161.2240  205.5810  149.7430 C   0  0  0  0  0  0  0  0  0  0  0  0
  160.0910  203.9330  151.3000 C   0  0  1  0  0  3  0  0  0  0  0  0
  162.5380  203.2350  151.7000 C   0  0  0  0  0  2  0  0  0  0  0  0
  162.7060  201.8820  151.0260 C   0  0  0  0  0  2  0  0  0  0  0  0
  160.8460  202.2320  148.7870 C   0  0  0  0  0  2  0  0  0  0  0  0
  162.0360  208.2590  153.0130 C   0  0  2  0  0  3  0  0  0  0  0  0
  159.7250  209.2260  155.1020 C   0  0  0  0  0  2  0  0  0  0  0  0
  159.8410  205.1460  152.2020 C   0  0  0  0  0  2  0  0  0  0  0  0
  160.0810  203.5440  148.8200 C   0  0  0  0  0  2  0  0  0  0  0  0
  160.8310  207.2970  153.1140 C   0  0  1  0  0  3  0  0  0  0  0  0
  162.4820  210.6010  152.6880 C   0  0  0  0  0  2  0  0  0  0  0  0
  160.5050  204.3510  149.9550 N   0  0  0  0  0  0  0  0  0  0  0  0
  160.4460  201.3360  149.9580 C   0  0  0  0  0  2  0  0  0  0  0  0
  160.3790  210.0160  153.9540 C   0  0  1  0  0  3  0  0  0  0  0  0
  161.4610  206.4500  150.8180 C   0  0  0  0  0  0  0  0  0  0  0  0
  161.0660  202.9330  151.9530 C   0  0  2  0  0  3  0  0  0  0  0  0
  161.0650  206.0660  152.2260 C   0  0  2  0  0  3  0  0  0  0  0  0
  162.2600  207.1180  148.2680 C   0  0  0  0  0  3  0  0  0  0  0  0
  160.5260  208.0100  155.5760 C   0  0  0  0  0  2  0  0  0  0  0  0
  161.6270  205.9370  148.4930 N   0  0  0  0  0  0  0  0  0  0  0  0
  160.5480  206.8660  154.5600 C   0  0  0  0  0  2  0  0  0  0  0  0
  161.8480  209.6240  153.6730 C   0  0  1  0  0  3  0  0  0  0  0  0
  162.4960  207.9730  149.2960 N   0  0  0  0  0  0  0  0  0  0  0  0
  162.3310  208.5890  151.6330 N   0  0  0  0  0  0  0  0  0  0  0  0
  159.5930  209.9150  152.8000 O   0  0  0  0  0  0  0  0  0  0  0  0
  159.3770  211.2310  152.3860 C   0  0  0  0  0  2  0  0  0  0  0  0
  157.7500  213.3860  154.8070 O   0  0  0  0  0  0  0  0  0  0  0  0
  157.3380  211.3960  153.8860 O   0  0  0  0  0  0  0  0  0  0  0  0
  158.5110  211.9230  153.3760 C   0  0  0  0  0  0  0  0  0  0  0  0
  156.8080  212.3200  154.8240 C   0  0  0  0  0  2  0  0  0  0  0  0
  158.7710  213.0960  153.9140 C   0  0  0  0  0  3  0  0  0  0  0  0
  1 18  1  0  0  0  0
  1 27  1  0  0  0  0
  2 27  1  0  0  0  0
  2 14  1  0  0  0  0
  3 16  1  6  0  0  0
  3 19  1  0  0  0  0
  4 15  1  0  0  0  0
  4 18  2  0  0  0  0
  5 19  1  0  0  0  0
  5 11  1  1  0  0  0
  7  3  1  0  0  0  0
  7  6  1  0  0  0  0
  8 12  1  0  0  0  0
  8 16  1  0  0  0  0
  9 27  1  6  0  0  0
  9 13  1  0  0  0  0
  9 25  1  0  0  0  0
 10 22  1  0  0  0  0
 12 15  1  0  0  0  0
 13 24  1  1  0  0  0
 15  5  1  0  0  0  0
 17 28  1  6  0  0  0
 17 10  1  0  0  0  0
 18 20  1  0  0  0  0
 19  6  1  6  0  0  0
 20 11  1  6  0  0  0
 20 13  1  0  0  0  0
 21 23  2  0  0  0  0
 21 26  1  0  0  0  0
 23  4  1  0  0  0  0
 24 22  1  0  0  0  0
 25 14  1  6  0  0  0
 25 17  1  0  0  0  0
 26  1  2  0  0  0  0
 29 28  1  0  0  0  0
 29 32  1  0  0  0  0
 30 33  1  0  0  0  0
 31 33  1  0  0  0  0
 32 31  1  0  0  0  0
 32 34  2  0  0  0  0
 34 30  1  0  0  0  0
M  END
>  <MODEL>
3

>  <REMARK>
 VINA RESULT:      -2.7      2.868      8.090
  Name = 
  3 active torsions:
  status: ('A' for Active; 'I' for Inactive)
    1  A    between atoms: C_17  and  O_28
    2  A    between atoms: O_28  and  C_29
    3  A    between atoms: C_29  and  C_32
                            x       y       z     vdW  Elec       q    Type
                         _______ _______ _______ _____ _____    ______ ____

>  <TORSDO>
F 3

$$$$
