=
 OpenBabel11122414283D

 34 41  0  0  1  0  0  0  0  0999 V2000
  160.3580  207.1980  154.5440 C   0  0  0  0  0  0  0  0  0  0  0  0
  161.2570  205.0400  153.4720 N   0  0  0  0  0  0  0  0  0  0  0  0
  158.6740  213.5130  153.9980 C   0  0  2  0  0  3  0  0  0  0  0  0
  160.0790  209.5540  155.2690 C   0  0  0  0  0  0  0  0  0  0  0  0
  159.9390  211.4490  153.6200 C   0  0  0  0  0  0  0  0  0  0  0  0
  159.4390  213.5030  151.6690 S   0  0  0  0  0  0  0  0  0  0  0  0
  158.3200  214.3850  152.8180 C   0  0  0  0  0  2  0  0  0  0  0  0
  159.8910  213.2070  156.1610 C   0  0  0  0  0  2  0  0  0  0  0  0
  161.2440  206.9500  152.2410 C   0  0  0  0  0  0  0  0  0  0  0  0
  161.8150  206.8640  149.1140 C   0  0  0  0  0  2  0  0  0  0  0  0
  160.2740  210.6210  152.6280 C   0  0  0  0  0  3  0  0  0  0  0  0
  159.3190  211.7800  156.1040 C   0  0  0  0  0  2  0  0  0  0  0  0
  160.9250  208.3610  151.9020 C   0  0  0  0  0  0  0  0  0  0  0  0
  161.6810  204.6240  152.1430 C   0  0  0  0  0  3  0  0  0  0  0  0
  159.8600  210.9600  154.9960 N   0  0  0  0  0  0  0  0  0  0  0  0
  159.0970  214.1960  155.2850 C   0  0  0  0  0  2  0  0  0  0  0  0
  161.1380  205.9410  150.0360 N   0  0  0  0  0  0  0  0  0  0  0  0
  160.3430  208.6920  154.2660 C   0  0  0  0  0  0  0  0  0  0  0  0
  159.8820  212.9210  153.3380 C   0  0  1  0  0  3  0  0  0  0  0  0
  160.5050  209.1920  152.8800 C   0  0  1  0  0  3  0  0  0  0  0  0
  160.4090  207.7920  156.9550 C   0  0  0  0  0  3  0  0  0  0  0  0
  162.1460  208.2390  149.7130 C   0  0  0  0  0  2  0  0  0  0  0  0
  160.0060  209.0330  156.6600 C   0  0  0  0  0  3  0  0  0  0  0  0
  160.9690  208.8310  150.4710 C   0  0  0  0  0  2  0  0  0  0  0  0
  161.8460  205.9280  151.3290 C   0  0  1  0  0  3  0  0  0  0  0  0
  161.0140  206.9130  155.8970 C   0  0  0  0  0  2  0  0  0  0  0  0
  161.0100  206.4320  153.4310 C   0  0  0  0  0  0  0  0  0  0  0  0
  161.2240  204.6390  149.3840 C   0  0  0  0  0  2  0  0  0  0  0  0
  161.4190  204.8310  147.8770 C   0  0  0  0  0  2  0  0  0  0  0  0
  160.7200  202.4640  145.5040 C   0  0  0  0  0  2  0  0  0  0  0  0
  161.1850  202.4500  147.6810 C   0  0  0  0  0  2  0  0  0  0  0  0
  161.8870  203.6250  147.1820 N   0  0  0  0  0  0  0  0  0  0  0  0
  160.8500  201.6130  146.6060 O   0  0  0  0  0  0  0  0  0  0  0  0
  161.5440  203.6940  145.7780 C   0  0  0  0  0  2  0  0  0  0  0  0
  1 26  1  0  0  0  0
  3  7  1  6  0  0  0
  3 16  1  0  0  0  0
  4 23  1  0  0  0  0
  5 15  1  0  0  0  0
  6  7  1  0  0  0  0
  9 27  1  0  0  0  0
 10 22  1  0  0  0  0
 10 17  1  0  0  0  0
 11  5  2  0  0  0  0
 12  8  1  0  0  0  0
 13  9  2  0  0  0  0
 13 20  1  0  0  0  0
 14  2  2  0  0  0  0
 15  4  1  0  0  0  0
 15 12  1  0  0  0  0
 16  8  1  0  0  0  0
 17 25  1  0  0  0  0
 18  1  1  0  0  0  0
 18  4  2  0  0  0  0
 19  6  1  6  0  0  0
 19  5  1  0  0  0  0
 19  3  1  0  0  0  0
 20 11  1  1  0  0  0
 20 18  1  0  0  0  0
 22 24  1  0  0  0  0
 23 21  2  0  0  0  0
 24 13  1  0  0  0  0
 25 14  1  1  0  0  0
 25  9  1  0  0  0  0
 26 21  1  0  0  0  0
 27  2  1  0  0  0  0
 27  1  2  0  0  0  0
 28 17  1  0  0  0  0
 29 28  1  0  0  0  0
 30 34  1  0  0  0  0
 30 33  1  0  0  0  0
 32 31  1  0  0  0  0
 32 29  1  0  0  0  0
 33 31  1  0  0  0  0
 34 32  1  0  0  0  0
M  END
>  <MODEL>
1

>  <REMARK>
 VINA RESULT:      -8.7      0.000      0.000
  Name = 
  3 active torsions:
  status: ('A' for Active; 'I' for Inactive)
    1  A    between atoms: N_17  and  C_28
    2  A    between atoms: C_28  and  C_29
    3  A    between atoms: C_29  and  N_32
                            x       y       z     vdW  Elec       q    Type
                         _______ _______ _______ _____ _____    ______ ____

>  <TORSDO>
F 3

$$$$
=
 OpenBabel11122414283D

 34 41  0  0  1  0  0  0  0  0999 V2000
  161.0870  209.5820  150.9630 C   0  0  2  0  0  3  0  0  0  0  0  0
  161.1260  211.2970  152.8790 N   0  0  0  0  0  0  0  0  0  0  0  0
  160.6620  203.3550  148.9490 C   0  0  2  0  0  3  0  0  0  0  0  0
  161.5500  207.6150  149.5250 C   0  0  0  0  0  0  0  0  0  0  0  0
  161.2820  205.2580  150.3630 C   0  0  0  0  0  0  0  0  0  0  0  0
  160.6170  202.6160  151.2860 S   0  0  0  0  0  0  0  0  0  0  0  0
  160.1350  202.0980  149.5980 C   0  0  0  0  0  2  0  0  0  0  0  0
  162.4190  204.5040  147.5900 C   0  0  0  0  0  2  0  0  0  0  0  0
  161.1130  209.0840  153.3930 C   0  0  0  0  0  0  0  0  0  0  0  0
  160.6170  208.1180  156.3810 C   0  0  0  0  0  2  0  0  0  0  0  0
  161.1010  205.7110  151.6060 C   0  0  0  0  0  3  0  0  0  0  0  0
  161.5770  205.7650  147.8500 C   0  0  0  0  0  2  0  0  0  0  0  0
  161.0020  207.6210  153.1550 C   0  0  0  0  0  0  0  0  0  0  0  0
  161.0050  211.2560  154.3300 C   0  0  0  0  0  3  0  0  0  0  0  0
  161.5510  206.1890  149.2680 N   0  0  0  0  0  0  0  0  0  0  0  0
  161.6080  203.2060  147.7720 C   0  0  0  0  0  2  0  0  0  0  0  0
  160.0970  209.2430  155.5920 N   0  0  0  0  0  0  0  0  0  0  0  0
  161.2930  208.0900  150.7600 C   0  0  0  0  0  0  0  0  0  0  0  0
  161.4430  203.7810  150.1550 C   0  0  1  0  0  3  0  0  0  0  0  0
  161.1000  207.1530  151.8930 C   0  0  0  0  0  0  0  0  0  0  0  0
  162.0330  209.8770  148.6860 C   0  0  0  0  0  3  0  0  0  0  0  0
  161.4000  207.0750  155.5720 C   0  0  0  0  0  2  0  0  0  0  0  0
  161.8230  208.5810  148.4290 C   0  0  0  0  0  3  0  0  0  0  0  0
  160.6790  206.6850  154.2920 C   0  0  0  0  0  2  0  0  0  0  0  0
  161.1650  209.7700  154.7210 C   0  0  1  0  0  3  0  0  0  0  0  0
  162.0700  210.3790  150.1020 C   0  0  0  0  0  2  0  0  0  0  0  0
  161.1740  209.9640  152.4120 C   0  0  0  0  0  0  0  0  0  0  0  0
  159.6980  210.2360  156.5820 C   0  0  0  0  0  2  0  0  0  0  0  0
  158.2100  210.5580  156.4170 C   0  0  0  0  0  2  0  0  0  0  0  0
  155.8490  212.8930  155.5800 C   0  0  0  0  0  2  0  0  0  0  0  0
  157.3570  211.6820  154.4750 C   0  0  0  0  0  2  0  0  0  0  0  0
  157.9510  211.8620  155.7930 N   0  0  0  0  0  0  0  0  0  0  0  0
  156.3280  212.6190  154.2940 O   0  0  0  0  0  0  0  0  0  0  0  0
  156.9580  212.5900  156.5530 C   0  0  0  0  0  2  0  0  0  0  0  0
  1 26  1  6  0  0  0
  1 27  1  0  0  0  0
  2 14  2  0  0  0  0
  3 16  1  6  0  0  0
  3  7  1  0  0  0  0
  3 19  1  0  0  0  0
  4 18  2  0  0  0  0
  5 11  2  0  0  0  0
  7  6  1  0  0  0  0
  8 16  1  0  0  0  0
  8 12  1  0  0  0  0
  9 25  1  0  0  0  0
 11 20  1  0  0  0  0
 12 15  1  0  0  0  0
 13  9  1  0  0  0  0
 13 24  1  0  0  0  0
 15  4  1  0  0  0  0
 15  5  1  0  0  0  0
 17 10  1  0  0  0  0
 17 28  1  0  0  0  0
 18  1  1  0  0  0  0
 18 20  1  0  0  0  0
 19  5  1  1  0  0  0
 19  6  1  0  0  0  0
 20 13  2  0  0  0  0
 21 26  1  0  0  0  0
 22 10  1  0  0  0  0
 23 21  2  0  0  0  0
 23  4  1  0  0  0  0
 24 22  1  0  0  0  0
 25 14  1  6  0  0  0
 25 17  1  0  0  0  0
 27  2  1  0  0  0  0
 27  9  2  0  0  0  0
 29 28  1  0  0  0  0
 30 34  1  0  0  0  0
 31 32  1  0  0  0  0
 32 29  1  0  0  0  0
 32 34  1  0  0  0  0
 33 31  1  0  0  0  0
 33 30  1  0  0  0  0
M  END
>  <MODEL>
2

>  <REMARK>
 VINA RESULT:      -8.6      3.542      9.098
  Name = 
  3 active torsions:
  status: ('A' for Active; 'I' for Inactive)
    1  A    between atoms: N_17  and  C_28
    2  A    between atoms: C_28  and  C_29
    3  A    between atoms: C_29  and  N_32
                            x       y       z     vdW  Elec       q    Type
                         _______ _______ _______ _____ _____    ______ ____

>  <TORSDO>
F 3

$$$$
=
 OpenBabel11122414283D

 34 41  0  0  1  0  0  0  0  0999 V2000
  160.4290  207.3300  154.7960 C   0  0  0  0  0  0  0  0  0  0  0  0
  161.5130  205.4070  153.4770 N   0  0  0  0  0  0  0  0  0  0  0  0
  158.1690  213.4830  155.0030 C   0  0  2  0  0  3  0  0  0  0  0  0
  159.9420  209.5470  155.7960 C   0  0  0  0  0  0  0  0  0  0  0  0
  159.6140  211.6040  154.3850 C   0  0  0  0  0  0  0  0  0  0  0  0
  158.9110  213.8210  152.6910 S   0  0  0  0  0  0  0  0  0  0  0  0
  157.7260  214.4530  153.9340 C   0  0  0  0  0  2  0  0  0  0  0  0
  159.4270  213.0360  157.1170 C   0  0  0  0  0  2  0  0  0  0  0  0
  161.3150  207.4410  152.4820 C   0  0  0  0  0  0  0  0  0  0  0  0
  161.8650  207.7810  149.3690 C   0  0  0  0  0  2  0  0  0  0  0  0
  160.0160  210.9350  153.3010 C   0  0  0  0  0  3  0  0  0  0  0  0
  158.9890  211.5790  156.8890 C   0  0  0  0  0  2  0  0  0  0  0  0
  160.8650  208.8470  152.3130 C   0  0  0  0  0  0  0  0  0  0  0  0
  161.9630  205.1930  152.1090 C   0  0  0  0  0  3  0  0  0  0  0  0
  159.5930  210.9500  155.6920 N   0  0  0  0  0  0  0  0  0  0  0  0
  158.5380  214.0440  156.3630 C   0  0  0  0  0  2  0  0  0  0  0  0
  161.2830  206.6960  150.1720 N   0  0  0  0  0  0  0  0  0  0  0  0
  160.2750  208.8390  154.6980 C   0  0  0  0  0  0  0  0  0  0  0  0
  159.4200  213.0870  154.2800 C   0  0  1  0  0  3  0  0  0  0  0  0
  160.3790  209.5130  153.3820 C   0  0  1  0  0  3  0  0  0  0  0  0
  160.4470  207.6360  157.2610 C   0  0  0  0  0  3  0  0  0  0  0  0
  162.0730  209.0990  150.1270 C   0  0  0  0  0  2  0  0  0  0  0  0
  159.9300  208.8610  157.1150 C   0  0  0  0  0  3  0  0  0  0  0  0
  160.8540  209.4860  150.9480 C   0  0  0  0  0  2  0  0  0  0  0  0
  162.0000  206.5940  151.4560 C   0  0  1  0  0  3  0  0  0  0  0  0
  161.1210  206.9480  156.1070 C   0  0  0  0  0  2  0  0  0  0  0  0
  161.1400  206.7660  153.6020 C   0  0  0  0  0  0  0  0  0  0  0  0
  161.4830  205.4940  149.3700 C   0  0  0  0  0  2  0  0  0  0  0  0
  160.9470  205.7260  147.9540 C   0  0  0  0  0  2  0  0  0  0  0  0
  161.1590  204.7020  144.6940 C   0  0  0  0  0  2  0  0  0  0  0  0
  161.5400  203.7780  146.6840 C   0  0  0  0  0  2  0  0  0  0  0  0
  161.8150  205.1930  146.8970 N   0  0  0  0  0  0  0  0  0  0  0  0
  161.5400  203.5040  145.3080 O   0  0  0  0  0  0  0  0  0  0  0  0
  161.5080  205.8260  145.6330 C   0  0  0  0  0  2  0  0  0  0  0  0
  1 26  1  0  0  0  0
  2 27  1  0  0  0  0
  3  7  1  6  0  0  0
  3 16  1  0  0  0  0
  4 23  1  0  0  0  0
  5 15  1  0  0  0  0
  6  7  1  0  0  0  0
  9 27  1  0  0  0  0
 10 22  1  0  0  0  0
 10 17  1  0  0  0  0
 11  5  2  0  0  0  0
 12  8  1  0  0  0  0
 13  9  2  0  0  0  0
 13 20  1  0  0  0  0
 14  2  2  0  0  0  0
 15  4  1  0  0  0  0
 15 12  1  0  0  0  0
 16  8  1  0  0  0  0
 17 25  1  0  0  0  0
 18  1  1  0  0  0  0
 18  4  2  0  0  0  0
 19  6  1  6  0  0  0
 19  5  1  0  0  0  0
 19  3  1  0  0  0  0
 20 11  1  1  0  0  0
 20 18  1  0  0  0  0
 22 24  1  0  0  0  0
 23 21  2  0  0  0  0
 24 13  1  0  0  0  0
 25 14  1  1  0  0  0
 25  9  1  0  0  0  0
 26 21  1  0  0  0  0
 27  1  2  0  0  0  0
 28 17  1  0  0  0  0
 29 28  1  0  0  0  0
 30 33  1  0  0  0  0
 30 34  1  0  0  0  0
 31 32  1  0  0  0  0
 32 29  1  0  0  0  0
 33 31  1  0  0  0  0
 34 32  1  0  0  0  0
M  END
>  <MODEL>
3

>  <REMARK>
 VINA RESULT:      -8.0      0.999      1.093
  Name = 
  3 active torsions:
  status: ('A' for Active; 'I' for Inactive)
    1  A    between atoms: N_17  and  C_28
    2  A    between atoms: C_28  and  C_29
    3  A    between atoms: C_29  and  N_32
                            x       y       z     vdW  Elec       q    Type
                         _______ _______ _______ _____ _____    ______ ____

>  <TORSDO>
F 3

$$$$
=
 OpenBabel11122414283D

 34 41  0  0  1  0  0  0  0  0999 V2000
  162.2090  208.2550  149.6050 C   0  0  2  0  0  3  0  0  0  0  0  0
  162.1410  206.6840  147.5700 N   0  0  0  0  0  0  0  0  0  0  0  0
  161.3070  209.2430  156.0260 C   0  0  2  0  0  3  0  0  0  0  0  0
  161.6090  209.5160  151.6550 C   0  0  0  0  0  0  0  0  0  0  0  0
  160.9090  208.3570  153.7760 C   0  0  0  0  0  0  0  0  0  0  0  0
  160.4620  206.9530  156.2470 S   0  0  0  0  0  0  0  0  0  0  0  0
  161.2260  208.3090  157.2090 C   0  0  0  0  0  2  0  0  0  0  0  0
  160.4380  211.2370  154.7920 C   0  0  0  0  0  2  0  0  0  0  0  0
  161.3450  205.9310  149.5610 C   0  0  0  0  0  0  0  0  0  0  0  0
  160.6570  202.8540  149.9700 C   0  0  0  0  0  2  0  0  0  0  0  0
  160.8560  207.1890  153.1310 C   0  0  0  0  0  3  0  0  0  0  0  0
  161.5070  210.8680  153.7500 C   0  0  0  0  0  2  0  0  0  0  0  0
  161.0770  205.9390  151.0220 C   0  0  0  0  0  0  0  0  0  0  0  0
  161.8270  205.2820  147.3350 C   0  0  0  0  0  3  0  0  0  0  0  0
  161.2550  209.5830  153.0590 N   0  0  0  0  0  0  0  0  0  0  0  0
  160.7360  210.6400  156.1810 C   0  0  0  0  0  2  0  0  0  0  0  0
  161.6920  203.5560  149.1990 N   0  0  0  0  0  0  0  0  0  0  0  0
  161.6330  208.3320  151.0090 C   0  0  0  0  0  0  0  0  0  0  0  0
  160.3800  208.4270  155.1780 C   0  0  1  0  0  3  0  0  0  0  0  0
  161.2060  207.0960  151.7060 C   0  0  0  0  0  0  0  0  0  0  0  0
  162.0840  210.7350  149.5720 C   0  0  0  0  0  3  0  0  0  0  0  0
  159.8620  203.7440  150.9350 C   0  0  0  0  0  2  0  0  0  0  0  0
  161.9610  210.7490  150.9030 C   0  0  0  0  0  3  0  0  0  0  0  0
  160.7670  204.6550  151.7490 C   0  0  0  0  0  2  0  0  0  0  0  0
  161.1250  204.7880  148.6210 C   0  0  1  0  0  3  0  0  0  0  0  0
  161.7980  209.4830  148.7900 C   0  0  0  0  0  2  0  0  0  0  0  0
  161.8320  206.9750  148.9190 C   0  0  0  0  0  0  0  0  0  0  0  0
  162.0710  202.6170  148.1490 C   0  0  0  0  0  2  0  0  0  0  0  0
  160.8250  201.8830  147.6430 C   0  0  0  0  0  2  0  0  0  0  0  0
  160.0670  203.1170  144.5400 C   0  0  0  0  0  2  0  0  0  0  0  0
  159.4850  201.3280  145.7310 C   0  0  0  0  0  2  0  0  0  0  0  0
  160.8310  201.6340  146.1960 N   0  0  0  0  0  0  0  0  0  0  0  0
  159.2510  201.9810  144.5110 O   0  0  0  0  0  0  0  0  0  0  0  0
  161.2060  202.8360  145.4840 C   0  0  0  0  0  2  0  0  0  0  0  0
  1 26  1  6  0  0  0
  1 18  1  0  0  0  0
  2 27  1  0  0  0  0
  3 16  1  1  0  0  0
  3  7  1  0  0  0  0
  4 15  1  0  0  0  0
  6  7  1  0  0  0  0
  8 16  1  0  0  0  0
  9 13  1  0  0  0  0
 10 22  1  0  0  0  0
 11  5  2  0  0  0  0
 12  8  1  0  0  0  0
 13 20  2  0  0  0  0
 13 24  1  0  0  0  0
 14  2  2  0  0  0  0
 15 12  1  0  0  0  0
 15  5  1  0  0  0  0
 17 10  1  0  0  0  0
 18  4  2  0  0  0  0
 18 20  1  0  0  0  0
 19  5  1  6  0  0  0
 19  3  1  0  0  0  0
 19  6  1  0  0  0  0
 20 11  1  0  0  0  0
 21 23  2  0  0  0  0
 22 24  1  0  0  0  0
 23  4  1  0  0  0  0
 25 14  1  6  0  0  0
 25 17  1  0  0  0  0
 25  9  1  0  0  0  0
 26 21  1  0  0  0  0
 27  9  2  0  0  0  0
 27  1  1  0  0  0  0
 28 17  1  0  0  0  0
 29 28  1  0  0  0  0
 30 34  1  0  0  0  0
 31 32  1  0  0  0  0
 32 29  1  0  0  0  0
 33 30  1  0  0  0  0
 33 31  1  0  0  0  0
 34 32  1  0  0  0  0
M  END
>  <MODEL>
4

>  <REMARK>
 VINA RESULT:      -7.8      2.352      4.507
  Name = 
  3 active torsions:
  status: ('A' for Active; 'I' for Inactive)
    1  A    between atoms: N_17  and  C_28
    2  A    between atoms: C_28  and  C_29
    3  A    between atoms: C_29  and  N_32
                            x       y       z     vdW  Elec       q    Type
                         _______ _______ _______ _____ _____    ______ ____

>  <TORSDO>
F 3

$$$$
=
 OpenBabel11122414283D

 34 41  0  0  1  0  0  0  0  0999 V2000
  161.3960  204.5770  152.1650 C   0  0  0  0  0  0  0  0  0  0  0  0
  161.1990  206.1390  154.1980 N   0  0  0  0  0  0  0  0  0  0  0  0
  162.0700  203.7720  145.6900 C   0  0  2  0  0  3  0  0  0  0  0  0
  161.0660  203.5000  149.9550 C   0  0  0  0  0  0  0  0  0  0  0  0
  161.3220  204.7720  147.7990 C   0  0  0  0  0  0  0  0  0  0  0  0
  161.9750  206.2030  145.3910 S   0  0  0  0  0  0  0  0  0  0  0  0
  162.5760  204.6720  144.5890 C   0  0  0  0  0  2  0  0  0  0  0  0
  160.3840  202.1210  146.5180 C   0  0  0  0  0  2  0  0  0  0  0  0
  161.2200  207.0510  152.1160 C   0  0  0  0  0  0  0  0  0  0  0  0
  161.5360  210.1910  151.7280 C   0  0  0  0  0  2  0  0  0  0  0  0
  161.4120  205.9190  148.4770 C   0  0  0  0  0  3  0  0  0  0  0  0
  161.1830  202.1950  147.8310 C   0  0  0  0  0  2  0  0  0  0  0  0
  161.3740  207.0930  150.6390 C   0  0  0  0  0  0  0  0  0  0  0  0
  161.2260  207.5770  154.4260 C   0  0  0  0  0  3  0  0  0  0  0  0
  161.1090  203.5100  148.5060 N   0  0  0  0  0  0  0  0  0  0  0  0
  161.2060  202.5880  145.3010 C   0  0  0  0  0  2  0  0  0  0  0  0
  162.0860  209.2410  152.7050 N   0  0  0  0  0  0  0  0  0  0  0  0
  161.2320  204.6400  150.6550 C   0  0  0  0  0  0  0  0  0  0  0  0
  161.2030  204.8290  146.3050 C   0  0  1  0  0  3  0  0  0  0  0  0
  161.3680  205.9350  149.9460 C   0  0  1  0  0  3  0  0  0  0  0  0
  160.5960  202.2310  152.0100 C   0  0  0  0  0  3  0  0  0  0  0  0
  160.8280  209.5410  150.5310 C   0  0  0  0  0  2  0  0  0  0  0  0
  160.8470  202.2300  150.6960 C   0  0  0  0  0  3  0  0  0  0  0  0
  161.6390  208.4000  149.9370 C   0  0  0  0  0  2  0  0  0  0  0  0
  161.0680  208.2250  153.0310 C   0  0  1  0  0  3  0  0  0  0  0  0
  160.4570  203.5260  152.7610 C   0  0  0  0  0  2  0  0  0  0  0  0
  161.2070  205.9230  152.8010 C   0  0  0  0  0  0  0  0  0  0  0  0
  162.4000  210.0540  153.8740 C   0  0  0  0  0  2  0  0  0  0  0  0
  161.2870  211.0820  154.0990 C   0  0  0  0  0  2  0  0  0  0  0  0
  161.1670  209.7720  157.2600 C   0  0  0  0  0  2  0  0  0  0  0  0
  159.7140  210.7430  155.8800 C   0  0  0  0  0  2  0  0  0  0  0  0
  160.9940  211.3370  155.5150 N   0  0  0  0  0  0  0  0  0  0  0  0
  159.8220  210.1390  157.1420 O   0  0  0  0  0  0  0  0  0  0  0  0
  161.9660  210.6710  156.3540 C   0  0  0  0  0  2  0  0  0  0  0  0
  1 26  1  0  0  0  0
  1 27  2  0  0  0  0
  2 14  2  0  0  0  0
  3  7  1  6  0  0  0
  3 19  1  0  0  0  0
  4 18  2  0  0  0  0
  4 23  1  0  0  0  0
  5 11  2  0  0  0  0
  5 15  1  0  0  0  0
  7  6  1  0  0  0  0
  8 12  1  0  0  0  0
  9 27  1  0  0  0  0
  9 25  1  0  0  0  0
 10 17  1  0  0  0  0
 12 15  1  0  0  0  0
 13  9  2  0  0  0  0
 15  4  1  0  0  0  0
 16  3  1  0  0  0  0
 16  8  1  0  0  0  0
 17 25  1  0  0  0  0
 17 28  1  0  0  0  0
 18  1  1  0  0  0  0
 19  6  1  6  0  0  0
 19  5  1  0  0  0  0
 20 11  1  6  0  0  0
 20 13  1  0  0  0  0
 20 18  1  0  0  0  0
 21 26  1  0  0  0  0
 22 10  1  0  0  0  0
 23 21  2  0  0  0  0
 24 22  1  0  0  0  0
 24 13  1  0  0  0  0
 25 14  1  1  0  0  0
 27  2  1  0  0  0  0
 28 29  1  0  0  0  0
 29 32  1  0  0  0  0
 31 33  1  0  0  0  0
 32 31  1  0  0  0  0
 32 34  1  0  0  0  0
 33 30  1  0  0  0  0
 34 30  1  0  0  0  0
M  END
>  <MODEL>
5

>  <REMARK>
 VINA RESULT:      -7.3      3.373      8.918
  Name = 
  3 active torsions:
  status: ('A' for Active; 'I' for Inactive)
    1  A    between atoms: N_17  and  C_28
    2  A    between atoms: C_28  and  C_29
    3  A    between atoms: C_29  and  N_32
                            x       y       z     vdW  Elec       q    Type
                         _______ _______ _______ _____ _____    ______ ____

>  <TORSDO>
F 3

$$$$
=
 OpenBabel11122414283D

 34 41  0  0  1  0  0  0  0  0999 V2000
  161.4270  207.9400  149.4720 C   0  0  2  0  0  3  0  0  0  0  0  0
  161.8350  210.0330  150.9090 N   0  0  0  0  0  0  0  0  0  0  0  0
  159.9960  201.5530  149.0540 C   0  0  2  0  0  3  0  0  0  0  0  0
  161.5110  205.6410  148.5440 C   0  0  0  0  0  0  0  0  0  0  0  0
  160.9710  203.6190  149.9410 C   0  0  0  0  0  0  0  0  0  0  0  0
  160.0030  201.4040  151.5000 S   0  0  0  0  0  0  0  0  0  0  0  0
  159.3430  200.5810  150.0060 C   0  0  0  0  0  2  0  0  0  0  0  0
  161.8030  202.0650  147.4020 C   0  0  0  0  0  2  0  0  0  0  0  0
  161.5450  208.0330  151.9480 C   0  0  0  0  0  0  0  0  0  0  0  0
  161.1180  207.8910  155.0950 C   0  0  0  0  0  2  0  0  0  0  0  0
  160.9390  204.3760  151.0400 C   0  0  0  0  0  3  0  0  0  0  0  0
  161.1670  203.4650  147.3720 C   0  0  0  0  0  2  0  0  0  0  0  0
  161.2130  206.5910  152.0770 C   0  0  0  0  0  0  0  0  0  0  0  0
  161.8060  210.3560  152.3280 C   0  0  0  0  0  3  0  0  0  0  0  0
  161.2940  204.2120  148.6440 N   0  0  0  0  0  0  0  0  0  0  0  0
  160.8310  200.9870  147.9210 C   0  0  0  0  0  2  0  0  0  0  0  0
  160.7100  208.8620  154.0710 N   0  0  0  0  0  0  0  0  0  0  0  0
  161.4070  206.4290  149.6330 C   0  0  0  0  0  0  0  0  0  0  0  0
  160.9080  202.1280  150.0940 C   0  0  1  0  0  3  0  0  0  0  0  0
  161.1600  205.8270  150.9660 C   0  0  0  0  0  0  0  0  0  0  0  0
  162.2510  207.5380  147.1640 C   0  0  0  0  0  3  0  0  0  0  0  0
  161.6900  206.5780  154.5420 C   0  0  0  0  0  2  0  0  0  0  0  0
  161.8440  206.2660  147.2370 C   0  0  0  0  0  3  0  0  0  0  0  0
  160.8380  206.0120  153.4180 C   0  0  0  0  0  2  0  0  0  0  0  0
  161.7800  208.9980  153.0660 C   0  0  1  0  0  3  0  0  0  0  0  0
  162.4520  208.3500  148.4130 C   0  0  0  0  0  2  0  0  0  0  0  0
  161.6630  208.6360  150.7800 C   0  0  0  0  0  0  0  0  0  0  0  0
  160.5220  210.1110  154.8000 C   0  0  0  0  0  2  0  0  0  0  0  0
  159.0950  210.6230  154.5820 C   0  0  0  0  0  2  0  0  0  0  0  0
  157.0650  213.2670  153.7970 C   0  0  0  0  0  2  0  0  0  0  0  0
  158.6120  212.0720  152.7300 C   0  0  0  0  0  2  0  0  0  0  0  0
  159.0290  212.0170  154.1250 N   0  0  0  0  0  0  0  0  0  0  0  0
  157.6950  213.1200  152.5560 O   0  0  0  0  0  0  0  0  0  0  0  0
  157.9990  212.7310  154.8490 C   0  0  0  0  0  2  0  0  0  0  0  0
  1 26  1  6  0  0  0
  1 18  1  0  0  0  0
  1 27  1  0  0  0  0
  2 14  2  0  0  0  0
  3 16  1  6  0  0  0
  3  7  1  0  0  0  0
  3 19  1  0  0  0  0
  4 15  1  0  0  0  0
  4 18  2  0  0  0  0
  5 11  2  0  0  0  0
  7  6  1  0  0  0  0
  8 16  1  0  0  0  0
  9 13  1  0  0  0  0
  9 25  1  0  0  0  0
 12  8  1  0  0  0  0
 12 15  1  0  0  0  0
 13 24  1  0  0  0  0
 15  5  1  0  0  0  0
 17 28  1  0  0  0  0
 17 10  1  0  0  0  0
 18 20  1  0  0  0  0
 19  5  1  1  0  0  0
 19  6  1  0  0  0  0
 20 11  1  0  0  0  0
 20 13  2  0  0  0  0
 21 23  2  0  0  0  0
 21 26  1  0  0  0  0
 22 10  1  0  0  0  0
 23  4  1  0  0  0  0
 24 22  1  0  0  0  0
 25 14  1  6  0  0  0
 25 17  1  0  0  0  0
 27  2  1  0  0  0  0
 27  9  2  0  0  0  0
 29 28  1  0  0  0  0
 30 34  1  0  0  0  0
 31 32  1  0  0  0  0
 32 29  1  0  0  0  0
 32 34  1  0  0  0  0
 33 31  1  0  0  0  0
 33 30  1  0  0  0  0
M  END
>  <MODEL>
6

>  <REMARK>
 VINA RESULT:      -6.3      3.491      9.353
  Name = 
  3 active torsions:
  status: ('A' for Active; 'I' for Inactive)
    1  A    between atoms: N_17  and  C_28
    2  A    between atoms: C_28  and  C_29
    3  A    between atoms: C_29  and  N_32
                            x       y       z     vdW  Elec       q    Type
                         _______ _______ _______ _____ _____    ______ ____

>  <TORSDO>
F 3

$$$$
=
 OpenBabel11122414283D

 34 41  0  0  1  0  0  0  0  0999 V2000
  162.0940  207.2790  149.6940 C   0  0  2  0  0  3  0  0  0  0  0  0
  161.8870  205.4470  147.9010 N   0  0  0  0  0  0  0  0  0  0  0  0
  161.5590  209.1560  155.9560 C   0  0  2  0  0  3  0  0  0  0  0  0
  161.6280  208.8220  151.5800 C   0  0  0  0  0  0  0  0  0  0  0  0
  161.0230  207.9820  153.8730 C   0  0  0  0  0  0  0  0  0  0  0  0
  160.6850  206.9390  156.5330 S   0  0  0  0  0  0  0  0  0  0  0  0
  161.5240  208.3940  157.2590 C   0  0  0  0  0  2  0  0  0  0  0  0
  160.6600  210.9840  154.5060 C   0  0  0  0  0  2  0  0  0  0  0  0
  161.1850  204.9930  150.0150 C   0  0  0  0  0  0  0  0  0  0  0  0
  160.4650  202.0190  150.8770 C   0  0  0  0  0  2  0  0  0  0  0  0
  160.9130  206.7380  153.3970 C   0  0  0  0  0  3  0  0  0  0  0  0
  161.6650  210.4490  153.4720 C   0  0  0  0  0  2  0  0  0  0  0  0
  160.9970  205.2070  151.4730 C   0  0  0  0  0  0  0  0  0  0  0  0
  161.5350  204.0350  147.8770 C   0  0  0  0  0  3  0  0  0  0  0  0
  161.3520  209.0890  152.9770 N   0  0  0  0  0  0  0  0  0  0  0  0
  161.0230  210.5750  155.9470 C   0  0  0  0  0  2  0  0  0  0  0  0
  161.4690  202.5830  149.9650 N   0  0  0  0  0  0  0  0  0  0  0  0
  161.5960  207.5610  151.1020 C   0  0  0  0  0  0  0  0  0  0  0  0
  160.5720  208.2550  155.2770 C   0  0  1  0  0  3  0  0  0  0  0  0
  161.1850  206.4420  151.9830 C   0  0  0  0  0  0  0  0  0  0  0  0
  162.0120  209.7330  149.3270 C   0  0  0  0  0  3  0  0  0  0  0  0
  159.7400  203.0530  151.7500 C   0  0  0  0  0  2  0  0  0  0  0  0
  161.9620  209.9320  150.6490 C   0  0  0  0  0  3  0  0  0  0  0  0
  160.7040  204.0430  152.3840 C   0  0  0  0  0  2  0  0  0  0  0  0
  160.8940  203.7390  149.2530 C   0  0  1  0  0  3  0  0  0  0  0  0
  161.6610  208.3950  148.7410 C   0  0  0  0  0  2  0  0  0  0  0  0
  161.6560  205.9270  149.2110 C   0  0  0  0  0  0  0  0  0  0  0  0
  161.7730  201.5000  149.0350 C   0  0  0  0  0  2  0  0  0  0  0  0
  161.1030  201.7780  147.6870 C   0  0  0  0  0  2  0  0  0  0  0  0
  161.6020  199.0100  145.7340 C   0  0  0  0  0  2  0  0  0  0  0  0
  160.2920  200.8080  145.6460 C   0  0  0  0  0  2  0  0  0  0  0  0
  160.4920  200.5920  147.0730 N   0  0  0  0  0  0  0  0  0  0  0  0
  160.6390  199.6440  144.9430 O   0  0  0  0  0  0  0  0  0  0  0  0
  161.3980  199.4670  147.1550 C   0  0  0  0  0  2  0  0  0  0  0  0
  1 26  1  6  0  0  0
  1 18  1  0  0  0  0
  2 27  1  0  0  0  0
  3 16  1  1  0  0  0
  3  7  1  0  0  0  0
  4 15  1  0  0  0  0
  6  7  1  0  0  0  0
  8 16  1  0  0  0  0
  9 13  1  0  0  0  0
 10 22  1  0  0  0  0
 11  5  2  0  0  0  0
 12  8  1  0  0  0  0
 13 20  2  0  0  0  0
 13 24  1  0  0  0  0
 14  2  2  0  0  0  0
 15 12  1  0  0  0  0
 15  5  1  0  0  0  0
 17 10  1  0  0  0  0
 18  4  2  0  0  0  0
 18 20  1  0  0  0  0
 19  5  1  6  0  0  0
 19  3  1  0  0  0  0
 19  6  1  0  0  0  0
 20 11  1  0  0  0  0
 21 23  2  0  0  0  0
 22 24  1  0  0  0  0
 23  4  1  0  0  0  0
 25 14  1  6  0  0  0
 25 17  1  0  0  0  0
 25  9  1  0  0  0  0
 26 21  1  0  0  0  0
 27  1  1  0  0  0  0
 27  9  2  0  0  0  0
 28 17  1  0  0  0  0
 29 28  1  0  0  0  0
 30 34  1  0  0  0  0
 31 32  1  0  0  0  0
 32 34  1  0  0  0  0
 32 29  1  0  0  0  0
 33 31  1  0  0  0  0
 33 30  1  0  0  0  0
M  END
>  <MODEL>
7

>  <REMARK>
 VINA RESULT:      -5.7      2.468      4.767
  Name = 
  3 active torsions:
  status: ('A' for Active; 'I' for Inactive)
    1  A    between atoms: N_17  and  C_28
    2  A    between atoms: C_28  and  C_29
    3  A    between atoms: C_29  and  N_32
                            x       y       z     vdW  Elec       q    Type
                         _______ _______ _______ _____ _____    ______ ____

>  <TORSDO>
F 3

$$$$
