=
 OpenBabel11122414363D

 34 40  0  0  1  0  0  0  0  0999 V2000
  161.1210  207.6050  154.5200 C   0  0  1  0  0  3  0  0  0  0  0  0
  160.8690  205.8170  152.6920 C   0  0  0  0  0  2  0  0  0  0  0  0
  158.1990  213.1830  155.1450 C   0  0  1  0  0  3  0  0  0  0  0  0
  160.6320  209.7070  155.9900 C   0  0  0  0  0  0  0  0  0  0  0  0
  160.3470  211.9590  154.7890 C   0  0  2  0  0  3  0  0  0  0  0  0
  158.8760  212.4580  152.9440 O   0  0  0  0  0  1  0  0  0  0  0  0
  157.4940  214.0940  154.3540 O   0  0  0  0  0  1  0  0  0  0  0  0
  157.8870  211.1120  157.0540 S   0  0  0  0  0  0  0  0  0  0  0  0
  161.6470  207.9810  152.1220 C   0  0  2  0  0  3  0  0  0  0  0  0
  161.9780  208.9240  149.0170 C   0  0  0  0  0  2  0  0  0  0  0  0
  161.2290  211.4030  153.7550 N   0  0  0  0  0  2  0  0  0  0  0  0
  159.5990  211.7150  157.2600 C   0  0  0  0  0  2  0  0  0  0  0  0
  161.5900  209.5190  152.2280 C   0  0  2  0  0  3  0  0  0  0  0  0
  161.2050  205.8380  151.1990 C   0  0  0  0  0  2  0  0  0  0  0  0
  160.5220  211.2150  156.1360 C   0  0  1  0  0  3  0  0  0  0  0  0
  157.2530  212.5920  156.1850 C   0  0  0  0  0  2  0  0  0  0  0  0
  162.3710  207.6320  149.7360 C   0  0  1  0  0  3  0  0  0  0  0  0
  161.2750  209.1500  154.7300 C   0  0  2  0  0  3  0  0  0  0  0  0
  158.8930  212.1080  154.2990 C   0  0  2  0  0  3  0  0  0  0  0  0
  160.8850  210.0050  153.5040 C   0  0  1  0  0  3  0  0  0  0  0  0
  160.4810  207.4070  156.9150 C   0  0  0  0  0  2  0  0  0  0  0  0
  162.1230  210.1690  149.8860 C   0  0  0  0  0  2  0  0  0  0  0  0
  160.3070  208.8920  157.0100 C   0  0  0  0  0  3  0  0  0  0  0  0
  161.0640  210.2160  150.9790 C   0  0  0  0  0  2  0  0  0  0  0  0
  161.3190  207.3130  150.8040 C   0  0  2  0  0  3  0  0  0  0  0  0
  160.1450  206.9550  155.5030 C   0  0  0  0  0  2  0  0  0  0  0  0
  160.7300  207.2750  153.0830 C   0  0  2  0  0  3  0  0  0  0  0  0
  162.4730  206.5250  148.6930 C   0  0  0  0  0  2  0  0  0  0  0  0
  161.4600  206.7530  147.5830 C   0  0  0  0  0  2  0  0  0  0  0  0
  161.6100  203.7900  145.6930 C   0  0  0  0  0  2  0  0  0  0  0  0
  160.7560  206.0060  145.4740 C   0  0  0  0  0  2  0  0  0  0  0  0
  161.9020  206.0890  146.3680 N   0  0  0  0  0  0  0  0  0  0  0  0
  160.8510  204.6870  144.7490 C   0  0  0  0  0  2  0  0  0  0  0  0
  162.2200  204.7120  146.7290 C   0  0  0  0  0  2  0  0  0  0  0  0
  1 18  1  0  0  0  0
  1 26  1  1  0  0  0
  2 27  1  0  0  0  0
  3  7  1  6  0  0  0
  3 16  1  0  0  0  0
  4 15  1  0  0  0  0
  4 23  2  0  0  0  0
  5 11  1  6  0  0  0
  5 15  1  0  0  0  0
  6 19  1  0  0  0  0
  8 12  1  0  0  0  0
  9 13  1  0  0  0  0
  9 27  1  0  0  0  0
 10 17  1  0  0  0  0
 10 22  1  0  0  0  0
 13 20  1  0  0  0  0
 14  2  1  0  0  0  0
 15 12  1  0  0  0  0
 16  8  1  0  0  0  0
 17 25  1  0  0  0  0
 18  4  1  0  0  0  0
 19  5  1  0  0  0  0
 19  3  1  0  0  0  0
 20 11  1  0  0  0  0
 20 18  1  0  0  0  0
 21 23  1  0  0  0  0
 22 24  1  0  0  0  0
 24 13  1  0  0  0  0
 25 14  1  0  0  0  0
 25  9  1  0  0  0  0
 26 21  1  0  0  0  0
 27  1  1  0  0  0  0
 28 17  1  0  0  0  0
 29 28  1  0  0  0  0
 30 34  1  0  0  0  0
 31 32  1  0  0  0  0
 32 34  1  0  0  0  0
 32 29  1  0  0  0  0
 33 31  1  0  0  0  0
 33 30  1  0  0  0  0
M  END
>  <MODEL>
1

>  <REMARK>
 VINA RESULT:      -8.8      0.000      0.000
  Name = 
  3 active torsions:
  status: ('A' for Active; 'I' for Inactive)
    1  A    between atoms: C_17  and  C_28
    2  A    between atoms: C_28  and  C_29
    3  A    between atoms: C_29  and  N_32
                            x       y       z     vdW  Elec       q    Type
                         _______ _______ _______ _____ _____    ______ ____

>  <TORSDO>
F 3

$$$$
=
 OpenBabel11122414363D

 34 40  0  0  1  0  0  0  0  0999 V2000
  161.2300  207.3110  154.8400 C   0  0  1  0  0  3  0  0  0  0  0  0
  160.7140  205.1700  153.5170 C   0  0  0  0  0  2  0  0  0  0  0  0
  158.6430  213.0670  154.3780 C   0  0  1  0  0  3  0  0  0  0  0  0
  160.9870  209.7240  155.8070 C   0  0  0  0  0  0  0  0  0  0  0  0
  160.6860  211.6510  154.1370 C   0  0  2  0  0  3  0  0  0  0  0  0
  159.0620  211.8090  152.3620 O   0  0  0  0  0  1  0  0  0  0  0  0
  157.9050  213.8170  153.4590 O   0  0  0  0  0  1  0  0  0  0  0  0
  158.4310  211.5200  156.7430 S   0  0  0  0  0  0  0  0  0  0  0  0
  161.5300  207.0850  152.3850 C   0  0  2  0  0  3  0  0  0  0  0  0
  161.5890  207.2600  149.1290 C   0  0  0  0  0  2  0  0  0  0  0  0
  161.4350  210.8130  153.1910 N   0  0  0  0  0  2  0  0  0  0  0  0
  160.1800  212.0370  156.6510 C   0  0  0  0  0  2  0  0  0  0  0  0
  161.5530  208.6060  152.1280 C   0  0  2  0  0  3  0  0  0  0  0  0
  160.9000  204.8220  152.0370 C   0  0  0  0  0  2  0  0  0  0  0  0
  160.9620  211.2290  155.6010 C   0  0  1  0  0  3  0  0  0  0  0  0
  157.7810  212.7990  155.6080 C   0  0  0  0  0  2  0  0  0  0  0  0
  161.9930  206.1450  150.0950 C   0  0  1  0  0  3  0  0  0  0  0  0
  161.4750  208.8490  154.6640 C   0  0  2  0  0  3  0  0  0  0  0  0
  159.2000  211.7810  153.7540 C   0  0  2  0  0  3  0  0  0  0  0  0
  161.0030  209.4210  153.3100 C   0  0  1  0  0  3  0  0  0  0  0  0
  160.8250  207.7150  157.2600 C   0  0  0  0  0  2  0  0  0  0  0  0
  161.8770  208.6600  149.6620 C   0  0  0  0  0  2  0  0  0  0  0  0
  160.7300  209.1910  157.0150 C   0  0  0  0  0  3  0  0  0  0  0  0
  160.9370  209.0300  150.8010 C   0  0  0  0  0  2  0  0  0  0  0  0
  161.0400  206.1550  151.2970 C   0  0  2  0  0  3  0  0  0  0  0  0
  160.3300  206.9740  156.0300 C   0  0  0  0  0  2  0  0  0  0  0  0
  160.6820  206.6850  153.5620 C   0  0  2  0  0  3  0  0  0  0  0  0
  161.9390  204.8230  149.3400 C   0  0  0  0  0  2  0  0  0  0  0  0
  161.5620  205.0620  147.8870 C   0  0  0  0  0  2  0  0  0  0  0  0
  160.7250  201.8880  146.6210 C   0  0  0  0  0  2  0  0  0  0  0  0
  161.2960  204.0490  145.7880 C   0  0  0  0  0  2  0  0  0  0  0  0
  161.9500  203.9160  147.0820 N   0  0  0  0  0  0  0  0  0  0  0  0
  160.9080  202.6620  145.3400 C   0  0  0  0  0  2  0  0  0  0  0  0
  161.3570  202.7390  147.7050 C   0  0  0  0  0  2  0  0  0  0  0  0
  1 26  1  1  0  0  0
  2 27  1  0  0  0  0
  3  7  1  6  0  0  0
  3 16  1  0  0  0  0
  4 23  2  0  0  0  0
  5 11  1  6  0  0  0
  5 15  1  0  0  0  0
  6 19  1  0  0  0  0
  9 27  1  0  0  0  0
 10 22  1  0  0  0  0
 10 17  1  0  0  0  0
 11 20  1  0  0  0  0
 12  8  1  0  0  0  0
 13  9  1  0  0  0  0
 13 20  1  0  0  0  0
 14  2  1  0  0  0  0
 15  4  1  0  0  0  0
 15 12  1  0  0  0  0
 16  8  1  0  0  0  0
 17 25  1  0  0  0  0
 18  1  1  0  0  0  0
 18  4  1  0  0  0  0
 19  5  1  0  0  0  0
 19  3  1  0  0  0  0
 20 18  1  0  0  0  0
 22 24  1  0  0  0  0
 23 21  1  0  0  0  0
 24 13  1  0  0  0  0
 25 14  1  0  0  0  0
 25  9  1  0  0  0  0
 26 21  1  0  0  0  0
 27  1  1  0  0  0  0
 28 17  1  0  0  0  0
 29 28  1  0  0  0  0
 30 34  1  0  0  0  0
 31 32  1  0  0  0  0
 32 34  1  0  0  0  0
 32 29  1  0  0  0  0
 33 31  1  0  0  0  0
 33 30  1  0  0  0  0
M  END
>  <MODEL>
2

>  <REMARK>
 VINA RESULT:      -8.6      1.105      1.287
  Name = 
  3 active torsions:
  status: ('A' for Active; 'I' for Inactive)
    1  A    between atoms: C_17  and  C_28
    2  A    between atoms: C_28  and  C_29
    3  A    between atoms: C_29  and  N_32
                            x       y       z     vdW  Elec       q    Type
                         _______ _______ _______ _____ _____    ______ ____

>  <TORSDO>
F 3

$$$$
