=
 OpenBabel11122412323D

 30 35  0  0  1  0  0  0  0  0999 V2000
  161.3140  206.2390  149.9890 C   0  0  1  0  0  3  0  0  0  0  0  0
  161.3260  203.6610  149.8590 C   0  0  0  0  0  0  0  0  0  0  0  0
  160.8980  205.9090  154.2440 C   0  0  0  0  0  2  0  0  0  0  0  0
  161.7080  207.3440  150.9890 C   0  0  1  0  0  3  0  0  0  0  0  0
  162.2610  206.3440  148.8020 C   0  0  0  0  0  2  0  0  0  0  0  0
  162.0760  209.9610  148.4340 O   0  0  0  0  0  0  0  0  0  0  0  0
  160.4280  210.1070  152.0610 C   0  0  1  0  0  3  0  0  0  0  0  0
  161.9140  208.8190  148.9410 C   0  0  0  0  0  0  0  0  0  0  0  0
  160.4470  209.3850  153.3530 N   0  0  2  0  0  0  0  0  0  0  0  0
  161.1360  207.3350  154.5570 C   0  0  0  0  0  0  0  0  0  0  0  0
  161.9630  207.6240  148.0310 C   0  0  2  0  0  3  0  0  0  0  0  0
  161.6350  208.6820  150.3530 N   0  0  0  0  0  0  0  0  0  0  0  0
  161.2350  202.4580  150.4830 N   0  0  0  0  0  2  0  0  0  0  0  0
  160.9900  210.3460  154.3060 C   0  0  0  0  0  2  0  0  0  0  0  0
  160.2540  211.5790  152.3760 C   0  0  0  0  0  2  0  0  0  0  0  0
  161.4480  203.6920  148.6070 O   0  0  0  0  0  0  0  0  0  0  0  0
  160.8510  205.9030  152.7950 N   0  0  0  0  0  0  0  0  0  0  0  0
  161.0550  202.3700  151.8240 C   0  0  0  0  0  3  0  0  0  0  0  0
  161.2710  204.8510  150.6160 C   0  0  0  0  0  0  0  0  0  0  0  0
  160.8130  207.2430  152.2220 C   0  0  1  0  0  3  0  0  0  0  0  0
  161.2740  207.7530  155.6950 O   0  0  0  0  0  0  0  0  0  0  0  0
  161.2830  208.1800  153.3290 C   0  0  1  0  0  3  0  0  0  0  0  0
  160.5480  211.7200  153.8530 C   0  0  0  0  0  2  0  0  0  0  0  0
  163.0230  210.1350  151.8190 C   0  0  0  0  0  1  0  0  0  0  0  0
  160.9400  203.4980  152.5680 N   0  0  0  0  0  0  0  0  0  0  0  0
  161.0200  204.7280  151.9960 C   0  0  0  0  0  0  0  0  0  0  0  0
  161.6690  209.9180  151.1480 C   0  0  2  0  0  3  0  0  0  0  0  0
  160.7500  207.4990  147.3480 O   0  0  0  0  0  0  0  0  0  0  0  0
  160.3550  206.3140  145.3260 C   0  0  0  0  0  1  0  0  0  0  0  0
  160.7890  206.2280  146.7750 C   0  0  0  0  0  2  0  0  0  0  0  0
  1  5  1  6  0  0  0
  1 19  1  0  0  0  0
  1  4  1  0  0  0  0
  2 13  1  0  0  0  0
  2 19  1  0  0  0  0
  3 10  1  0  0  0  0
  4 12  1  6  0  0  0
  4 20  1  0  0  0  0
  6  8  2  0  0  0  0
  7 15  1  1  0  0  0
  7  9  1  0  0  0  0
  8 12  1  0  0  0  0
  9 14  1  1  0  0  0
 10 21  2  0  0  0  0
 11 28  1  1  0  0  0
 11  5  1  0  0  0  0
 11  8  1  0  0  0  0
 12 27  1  0  0  0  0
 13 18  1  0  0  0  0
 15 23  1  0  0  0  0
 16  2  2  0  0  0  0
 17  3  1  0  0  0  0
 18 25  2  0  0  0  0
 19 26  2  0  0  0  0
 20 17  1  1  0  0  0
 20 22  1  0  0  0  0
 22  9  1  0  0  0  0
 22 10  1  1  0  0  0
 23 14  1  0  0  0  0
 26 25  1  0  0  0  0
 26 17  1  0  0  0  0
 27 24  1  1  0  0  0
 27  7  1  0  0  0  0
 29 30  1  0  0  0  0
 30 28  1  0  0  0  0
M  END
>  <MODEL>
1

>  <REMARK>
 VINA RESULT:      -8.0      0.000      0.000
  Name = 
  2 active torsions:
  status: ('A' for Active; 'I' for Inactive)
    1  A    between atoms: C_11  and  O_28
    2  A    between atoms: O_28  and  C_30
                            x       y       z     vdW  Elec       q    Type
                         _______ _______ _______ _____ _____    ______ ____

>  <TORSDO>
F 2

$$$$
=
 OpenBabel11122412323D

 30 35  0  0  1  0  0  0  0  0999 V2000
  161.1140  204.9380  148.6210 C   0  0  1  0  0  3  0  0  0  0  0  0
  161.0380  202.4280  148.0190 C   0  0  0  0  0  0  0  0  0  0  0  0
  160.9190  203.8330  152.7590 C   0  0  0  0  0  2  0  0  0  0  0  0
  161.5950  205.8300  149.7820 C   0  0  1  0  0  3  0  0  0  0  0  0
  161.9980  205.2410  147.4190 C   0  0  0  0  0  2  0  0  0  0  0  0
  161.9060  208.8670  147.7340 O   0  0  0  0  0  0  0  0  0  0  0  0
  160.4620  208.3720  151.4170 C   0  0  1  0  0  3  0  0  0  0  0  0
  161.7360  207.6540  148.0300 C   0  0  0  0  0  0  0  0  0  0  0  0
  160.5290  207.4230  152.5500 N   0  0  2  0  0  0  0  0  0  0  0  0
  161.2170  205.1720  153.3140 C   0  0  0  0  0  0  0  0  0  0  0  0
  161.6990  206.6470  146.9150 C   0  0  2  0  0  3  0  0  0  0  0  0
  161.5300  207.2640  149.4070 N   0  0  0  0  0  0  0  0  0  0  0  0
  160.9440  201.1330  148.4140 N   0  0  0  0  0  2  0  0  0  0  0  0
  161.1520  208.1800  153.6290 C   0  0  0  0  0  2  0  0  0  0  0  0
  160.3510  209.7640  152.0060 C   0  0  0  0  0  2  0  0  0  0  0  0
  161.0940  202.6880  146.7880 O   0  0  0  0  0  0  0  0  0  0  0  0
  160.7930  204.0970  151.3390 N   0  0  0  0  0  0  0  0  0  0  0  0
  160.8340  200.8010  149.7250 C   0  0  0  0  0  3  0  0  0  0  0  0
  161.0610  203.4580  148.9830 C   0  0  0  0  0  0  0  0  0  0  0  0
  160.7660  205.5210  151.0250 C   0  0  1  0  0  3  0  0  0  0  0  0
  161.4300  205.3690  154.4990 O   0  0  0  0  0  0  0  0  0  0  0  0
  161.3240  206.2270  152.2560 C   0  0  1  0  0  3  0  0  0  0  0  0
  160.7280  209.6220  153.4640 C   0  0  0  0  0  2  0  0  0  0  0  0
  163.0400  208.3900  151.0310 C   0  0  0  0  0  1  0  0  0  0  0  0
  160.7950  201.7740  150.6690 N   0  0  0  0  0  0  0  0  0  0  0  0
  160.8810  203.0870  150.3290 C   0  0  0  0  0  0  0  0  0  0  0  0
  161.6460  208.3300  150.4130 C   0  0  2  0  0  3  0  0  0  0  0  0
  160.4480  206.6760  146.2940 O   0  0  0  0  0  0  0  0  0  0  0  0
  161.2340  205.9860  144.1600 C   0  0  0  0  0  1  0  0  0  0  0  0
  160.4620  205.6010  145.4050 C   0  0  0  0  0  2  0  0  0  0  0  0
  1  5  1  6  0  0  0
  1 19  1  0  0  0  0
  1  4  1  0  0  0  0
  2 13  1  0  0  0  0
  2 19  1  0  0  0  0
  3 10  1  0  0  0  0
  4 12  1  6  0  0  0
  4 20  1  0  0  0  0
  6  8  2  0  0  0  0
  7 15  1  1  0  0  0
  7  9  1  0  0  0  0
  8 12  1  0  0  0  0
  9 14  1  1  0  0  0
 10 21  2  0  0  0  0
 11 28  1  1  0  0  0
 11  5  1  0  0  0  0
 11  8  1  0  0  0  0
 12 27  1  0  0  0  0
 13 18  1  0  0  0  0
 15 23  1  0  0  0  0
 16  2  2  0  0  0  0
 17  3  1  0  0  0  0
 18 25  2  0  0  0  0
 19 26  2  0  0  0  0
 20 17  1  1  0  0  0
 20 22  1  0  0  0  0
 22  9  1  0  0  0  0
 22 10  1  1  0  0  0
 23 14  1  0  0  0  0
 26 25  1  0  0  0  0
 26 17  1  0  0  0  0
 27 24  1  1  0  0  0
 27  7  1  0  0  0  0
 29 30  1  0  0  0  0
 30 28  1  0  0  0  0
M  END
>  <MODEL>
2

>  <REMARK>
 VINA RESULT:      -6.8      1.481      2.065
  Name = 
  2 active torsions:
  status: ('A' for Active; 'I' for Inactive)
    1  A    between atoms: C_11  and  O_28
    2  A    between atoms: O_28  and  C_30
                            x       y       z     vdW  Elec       q    Type
                         _______ _______ _______ _____ _____    ______ ____

>  <TORSDO>
F 2

$$$$
=
 OpenBabel11122412323D

 30 35  0  0  1  0  0  0  0  0999 V2000
  161.3260  207.5920  151.4620 C   0  0  1  0  0  3  0  0  0  0  0  0
  161.8040  210.0720  150.9280 C   0  0  0  0  0  0  0  0  0  0  0  0
  161.8720  206.7100  147.3010 C   0  0  0  0  0  2  0  0  0  0  0  0
  161.6990  206.2020  150.9100 C   0  0  1  0  0  3  0  0  0  0  0  0
  161.9670  207.7210  152.8360 C   0  0  0  0  0  2  0  0  0  0  0  0
  161.0210  204.4240  154.0550 O   0  0  0  0  0  0  0  0  0  0  0  0
  160.1640  203.4310  150.2910 C   0  0  1  0  0  3  0  0  0  0  0  0
  161.1890  205.3790  153.2500 C   0  0  0  0  0  0  0  0  0  0  0  0
  160.5890  203.7330  148.9060 N   0  0  2  0  0  0  0  0  0  0  0  0
  161.8920  205.2360  147.4340 C   0  0  0  0  0  0  0  0  0  0  0  0
  161.2770  206.7720  153.8070 C   0  0  2  0  0  3  0  0  0  0  0  0
  161.2400  205.1300  151.8270 N   0  0  0  0  0  0  0  0  0  0  0  0
  162.0760  211.0410  150.0170 N   0  0  0  0  0  0  0  0  0  0  0  0
  161.1230  202.4750  148.3990 C   0  0  0  0  0  2  0  0  0  0  0  0
  159.7800  201.9650  150.3280 C   0  0  0  0  0  2  0  0  0  0  0  0
  161.6560  210.3950  152.1360 O   0  0  0  0  0  0  0  0  0  0  0  0
  161.5280  207.1460  148.6400 N   0  0  0  0  0  0  0  0  0  0  0  0
  162.1980  210.7540  148.6970 C   0  0  0  0  0  3  0  0  0  0  0  0
  161.6800  208.7290  150.5120 C   0  0  2  0  0  3  0  0  0  0  0  0
  161.1160  206.0490  149.5080 C   0  0  1  0  0  3  0  0  0  0  0  0
  162.1800  204.4890  146.5130 O   0  0  0  0  0  0  0  0  0  0  0  0
  161.6170  204.7770  148.8320 C   0  0  1  0  0  3  0  0  0  0  0  0
  160.3410  201.3620  149.0600 C   0  0  0  0  0  2  0  0  0  0  0  0
  162.5980  203.1490  151.1800 C   0  0  0  0  0  1  0  0  0  0  0  0
  162.0260  209.4810  148.2610 N   0  0  0  0  0  0  0  0  0  0  0  0
  161.7490  208.4730  149.1290 C   0  0  0  0  0  0  0  0  0  0  0  0
  161.2020  203.7210  151.4080 C   0  0  2  0  0  3  0  0  0  0  0  0
  159.9960  207.2430  154.1060 O   0  0  0  0  0  0  0  0  0  0  0  0
  159.9940  207.1590  156.4810 C   0  0  0  0  0  1  0  0  0  0  0  0
  160.1570  208.0250  155.2490 C   0  0  0  0  0  2  0  0  0  0  0  0
  1  5  1  1  0  0  0
  2 16  2  0  0  0  0
  3 10  1  0  0  0  0
  3 17  1  0  0  0  0
  4  1  1  0  0  0  0
  4 12  1  1  0  0  0
  5 11  1  0  0  0  0
  7 15  1  6  0  0  0
  7 27  1  0  0  0  0
  8 11  1  0  0  0  0
  8  6  2  0  0  0  0
  9 14  1  1  0  0  0
  9  7  1  0  0  0  0
 11 28  1  6  0  0  0
 12  8  1  0  0  0  0
 13  2  1  0  0  0  0
 14 23  1  0  0  0  0
 17 26  1  0  0  0  0
 18 13  2  0  0  0  0
 19 26  1  6  0  0  0
 19  2  1  0  0  0  0
 19  1  1  0  0  0  0
 20 17  1  6  0  0  0
 20  4  1  0  0  0  0
 21 10  2  0  0  0  0
 22 10  1  6  0  0  0
 22  9  1  0  0  0  0
 22 20  1  0  0  0  0
 23 15  1  0  0  0  0
 25 18  1  0  0  0  0
 25 26  2  0  0  0  0
 27 24  1  6  0  0  0
 27 12  1  0  0  0  0
 28 30  1  0  0  0  0
 30 29  1  0  0  0  0
M  END
>  <MODEL>
3

>  <REMARK>
 VINA RESULT:      -6.5      2.018      7.157
  Name = 
  2 active torsions:
  status: ('A' for Active; 'I' for Inactive)
    1  A    between atoms: C_11  and  O_28
    2  A    between atoms: O_28  and  C_30
                            x       y       z     vdW  Elec       q    Type
                         _______ _______ _______ _____ _____    ______ ____

>  <TORSDO>
F 2

$$$$
=
 OpenBabel11122412323D

 30 35  0  0  1  0  0  0  0  0999 V2000
  161.4350  208.0270  149.1390 C   0  0  1  0  0  3  0  0  0  0  0  0
  161.6180  206.0240  147.5210 C   0  0  0  0  0  0  0  0  0  0  0  0
  160.9750  205.2360  152.3610 C   0  0  0  0  0  2  0  0  0  0  0  0
  161.7390  208.3470  150.6160 C   0  0  1  0  0  3  0  0  0  0  0  0
  162.3910  208.8530  148.2910 C   0  0  0  0  0  2  0  0  0  0  0  0
  161.9750  211.9800  150.1070 O   0  0  0  0  0  0  0  0  0  0  0  0
  160.2640  209.8880  153.0380 C   0  0  1  0  0  3  0  0  0  0  0  0
  161.8800  210.7530  149.8370 C   0  0  0  0  0  0  0  0  0  0  0  0
  160.3110  208.5460  153.6590 N   0  0  2  0  0  0  0  0  0  0  0  0
  161.1130  206.2130  153.4640 C   0  0  0  0  0  0  0  0  0  0  0  0
  162.0220  210.3270  148.4030 C   0  0  2  0  0  3  0  0  0  0  0  0
  161.5880  209.7980  150.8840 N   0  0  0  0  0  0  0  0  0  0  0  0
  161.5970  204.6820  147.3140 N   0  0  0  0  0  2  0  0  0  0  0  0
  160.7740  208.7840  155.0210 C   0  0  0  0  0  2  0  0  0  0  0  0
  159.9880  210.8830  154.1480 C   0  0  0  0  0  2  0  0  0  0  0  0
  161.7580  206.7920  146.5340 O   0  0  0  0  0  0  0  0  0  0  0  0
  160.9510  206.0830  151.1850 N   0  0  0  0  0  0  0  0  0  0  0  0
  161.4020  203.8130  148.3370 C   0  0  0  0  0  3  0  0  0  0  0  0
  161.4730  206.5360  148.8290 C   0  0  0  0  0  0  0  0  0  0  0  0
  160.8340  207.5000  151.5070 C   0  0  1  0  0  3  0  0  0  0  0  0
  161.2060  205.8860  154.6360 O   0  0  0  0  0  0  0  0  0  0  0  0
  161.2240  207.6240  152.9760 C   0  0  1  0  0  3  0  0  0  0  0  0
  160.2490  210.1400  155.4390 C   0  0  0  0  0  2  0  0  0  0  0  0
  162.8550  210.1670  152.9920 C   0  0  0  0  0  1  0  0  0  0  0  0
  161.2010  204.2800  149.5940 N   0  0  0  0  0  0  0  0  0  0  0  0
  161.2090  205.6130  149.8580 C   0  0  0  0  0  0  0  0  0  0  0  0
  161.5290  210.3280  152.2540 C   0  0  2  0  0  3  0  0  0  0  0  0
  160.8310  210.5740  147.7160 O   0  0  0  0  0  0  0  0  0  0  0  0
  159.6900  212.5770  147.1360 C   0  0  0  0  0  1  0  0  0  0  0  0
  161.0070  211.8290  147.1310 C   0  0  0  0  0  2  0  0  0  0  0  0
  1  5  1  6  0  0  0
  1  4  1  0  0  0  0
  2 19  1  0  0  0  0
  3 10  1  0  0  0  0
  4 12  1  6  0  0  0
  4 20  1  0  0  0  0
  5 11  1  0  0  0  0
  7  9  1  0  0  0  0
  7 15  1  1  0  0  0
  8  6  2  0  0  0  0
  8 12  1  0  0  0  0
  9 14  1  1  0  0  0
 10 21  2  0  0  0  0
 11 28  1  6  0  0  0
 11  8  1  0  0  0  0
 12 27  1  0  0  0  0
 13  2  1  0  0  0  0
 13 18  1  0  0  0  0
 14 23  1  0  0  0  0
 15 23  1  0  0  0  0
 16  2  2  0  0  0  0
 17  3  1  0  0  0  0
 18 25  2  0  0  0  0
 19  1  1  0  0  0  0
 19 26  2  0  0  0  0
 20 17  1  6  0  0  0
 20 22  1  0  0  0  0
 22 10  1  1  0  0  0
 22  9  1  0  0  0  0
 25 26  1  0  0  0  0
 26 17  1  0  0  0  0
 27 24  1  1  0  0  0
 27  7  1  0  0  0  0
 30 29  1  0  0  0  0
 30 28  1  0  0  0  0
M  END
>  <MODEL>
4

>  <REMARK>
 VINA RESULT:      -5.7      1.822      2.726
  Name = 
  2 active torsions:
  status: ('A' for Active; 'I' for Inactive)
    1  A    between atoms: C_11  and  O_28
    2  A    between atoms: O_28  and  C_30
                            x       y       z     vdW  Elec       q    Type
                         _______ _______ _______ _____ _____    ______ ____

>  <TORSDO>
F 2

$$$$
=
 OpenBabel11122412323D

 30 35  0  0  1  0  0  0  0  0999 V2000
  161.2700  208.6860  151.4280 C   0  0  1  0  0  3  0  0  0  0  0  0
  161.6250  211.1030  150.5940 C   0  0  0  0  0  0  0  0  0  0  0  0
  161.8990  207.3280  147.4100 C   0  0  0  0  0  2  0  0  0  0  0  0
  161.7190  207.2590  151.0530 C   0  0  1  0  0  3  0  0  0  0  0  0
  161.8920  209.0160  152.7770 C   0  0  0  0  0  2  0  0  0  0  0  0
  161.1050  205.8500  154.3930 O   0  0  0  0  0  0  0  0  0  0  0  0
  160.3350  204.3570  150.7770 C   0  0  1  0  0  3  0  0  0  0  0  0
  161.2310  206.7060  153.4760 C   0  0  0  0  0  0  0  0  0  0  0  0
  160.7560  204.5090  149.3670 N   0  0  2  0  0  0  0  0  0  0  0  0
  161.9930  205.8850  147.7230 C   0  0  0  0  0  0  0  0  0  0  0  0
  161.2420  208.1590  153.8560 C   0  0  2  0  0  3  0  0  0  0  0  0
  161.3080  206.2860  152.0940 N   0  0  0  0  0  0  0  0  0  0  0  0
  161.8560  211.9650  149.5700 N   0  0  0  0  0  0  0  0  0  0  0  0
  161.3590  203.2270  149.0210 C   0  0  0  0  0  2  0  0  0  0  0  0
  160.0260  202.8890  150.9950 C   0  0  0  0  0  2  0  0  0  0  0  0
  161.4500  211.5630  151.7520 O   0  0  0  0  0  0  0  0  0  0  0  0
  161.5210  207.9070  148.6840 N   0  0  0  0  0  0  0  0  0  0  0  0
  162.0050  211.5240  148.2960 C   0  0  0  0  0  3  0  0  0  0  0  0
  161.5740  209.7140  150.3460 C   0  0  2  0  0  3  0  0  0  0  0  0
  161.1580  206.9050  149.6790 C   0  0  1  0  0  3  0  0  0  0  0  0
  162.3280  205.0460  146.9030 O   0  0  0  0  0  0  0  0  0  0  0  0
  161.7300  205.5870  149.1670 C   0  0  1  0  0  3  0  0  0  0  0  0
  160.6290  202.1640  149.8120 C   0  0  0  0  0  2  0  0  0  0  0  0
  162.7720  204.3140  151.7010 C   0  0  0  0  0  1  0  0  0  0  0  0
  161.9020  210.2000  148.0210 N   0  0  0  0  0  0  0  0  0  0  0  0
  161.6690  209.2940  149.0060 C   0  0  0  0  0  0  0  0  0  0  0  0
  161.3460  204.8360  151.8530 C   0  0  2  0  0  3  0  0  0  0  0  0
  159.9360  208.5970  154.0910 O   0  0  0  0  0  0  0  0  0  0  0  0
  160.5220  208.9190  156.3720 C   0  0  0  0  0  1  0  0  0  0  0  0
  160.0540  209.5680  155.0860 C   0  0  0  0  0  2  0  0  0  0  0  0
  1  5  1  1  0  0  0
  2 16  2  0  0  0  0
  3 10  1  0  0  0  0
  3 17  1  0  0  0  0
  4  1  1  0  0  0  0
  4 12  1  1  0  0  0
  5 11  1  0  0  0  0
  7 15  1  1  0  0  0
  7 27  1  0  0  0  0
  8 11  1  0  0  0  0
  8  6  2  0  0  0  0
  9 14  1  1  0  0  0
  9  7  1  0  0  0  0
 11 28  1  6  0  0  0
 12  8  1  0  0  0  0
 13  2  1  0  0  0  0
 14 23  1  0  0  0  0
 17 26  1  0  0  0  0
 18 13  2  0  0  0  0
 19 26  1  6  0  0  0
 19  2  1  0  0  0  0
 19  1  1  0  0  0  0
 20 17  1  6  0  0  0
 20  4  1  0  0  0  0
 21 10  2  0  0  0  0
 22 10  1  6  0  0  0
 22  9  1  0  0  0  0
 22 20  1  0  0  0  0
 23 15  1  0  0  0  0
 25 18  1  0  0  0  0
 25 26  2  0  0  0  0
 27 24  1  6  0  0  0
 27 12  1  0  0  0  0
 28 30  1  0  0  0  0
 30 29  1  0  0  0  0
M  END
>  <MODEL>
5

>  <REMARK>
 VINA RESULT:      -5.1      1.879      7.033
  Name = 
  2 active torsions:
  status: ('A' for Active; 'I' for Inactive)
    1  A    between atoms: C_11  and  O_28
    2  A    between atoms: O_28  and  C_30
                            x       y       z     vdW  Elec       q    Type
                         _______ _______ _______ _____ _____    ______ ____

>  <TORSDO>
F 2

$$$$
