=
 OpenBabel11122412583D

 32 37  0  0  1  0  0  0  0  0999 V2000
  159.2730  213.3650  147.1730 C   0  0  0  0  0  2  0  0  0  0  0  0
  161.1270  211.3740  151.6830 C   0  0  1  0  0  3  0  0  0  0  0  0
  162.7060  206.8620  150.5190 C   0  0  0  0  0  2  0  0  0  0  0  0
  162.4440  206.6330  152.0100 C   0  0  0  0  0  2  0  0  0  0  0  0
  160.0810  211.8260  153.9120 C   0  0  2  0  0  3  0  0  0  0  0  0
  159.9700  211.1200  155.2720 C   0  0  2  0  0  3  0  0  0  0  0  0
  160.5240  212.7780  149.7050 N   0  0  2  0  0  0  0  0  0  0  0  0
  162.3000  210.9960  149.5580 C   0  0  0  0  0  2  0  0  0  0  0  0
  161.9090  210.1610  156.3720 N   0  0  0  0  0  0  0  0  0  0  0  0
  161.2030  211.8410  147.5110 C   0  0  0  0  0  2  0  0  0  0  0  0
  162.0720  208.1610  150.0080 C   0  0  0  0  0  2  0  0  0  0  0  0
  161.3340  210.3610  150.5560 C   0  0  1  0  0  3  0  0  0  0  0  0
  161.8370  209.0990  151.1110 N   0  0  1  0  0  0  0  0  0  0  0  0
  160.4030  209.4340  153.1280 C   0  0  1  0  0  3  0  0  0  0  0  0
  161.3800  211.2250  157.2110 C   0  0  0  0  0  2  0  0  0  0  0  0
  159.2660  214.3820  148.3160 C   0  0  0  0  0  2  0  0  0  0  0  0
  161.6570  212.2390  148.9170 C   0  0  1  0  0  3  0  0  0  0  0  0
  160.4340  212.0480  156.3670 C   0  0  0  0  0  2  0  0  0  0  0  0
  160.3820  214.1810  149.3410 C   0  0  0  0  0  2  0  0  0  0  0  0
  160.6810  213.0210  146.6990 C   0  0  1  0  0  3  0  0  0  0  0  0
  161.0390  207.0870  152.3990 C   0  0  0  0  0  2  0  0  0  0  0  0
  160.7530  208.5300  151.9380 C   0  0  2  0  0  3  0  0  0  0  0  0
  161.4600  209.4460  154.1330 N   0  0  0  0  0  2  0  0  0  0  0  0
  160.8300  212.7820  151.1400 C   0  0  0  0  0  2  0  0  0  0  0  0
  159.0530  212.7600  153.7760 O   0  0  0  0  0  1  0  0  0  0  0  0
  162.0470  208.9870  157.2160 C   0  0  0  0  0  1  0  0  0  0  0  0
  160.0850  210.8790  152.6960 C   0  0  2  0  0  3  0  0  0  0  0  0
  160.8620  209.8710  155.4010 C   0  0  2  0  0  3  0  0  0  0  0  0
  160.6440  212.6450  145.2940 N   0  0  0  0  0  2  0  0  0  0  0  0
  161.7040  212.9530  144.3870 C   0  0  0  0  0  0  0  0  0  0  0  0
  162.7380  213.5520  144.7860 O   0  0  0  0  0  0  0  0  0  0  0  0
  161.5870  212.5580  142.9600 C   0  0  0  0  0  1  0  0  0  0  0  0
  1 16  1  0  0  0  0
  2 24  1  6  0  0  0
  2 27  1  0  0  0  0
  3  4  1  0  0  0  0
  4 21  1  0  0  0  0
  5 25  1  6  0  0  0
  5  6  1  0  0  0  0
  6 28  1  0  0  0  0
  6 18  1  1  0  0  0
  7 19  1  6  0  0  0
  7 24  1  0  0  0  0
  9 15  1  0  0  0  0
  9 26  1  0  0  0  0
 11  3  1  0  0  0  0
 12  8  1  6  0  0  0
 12 13  1  0  0  0  0
 12  2  1  0  0  0  0
 13 11  1  6  0  0  0
 13 22  1  0  0  0  0
 14 23  1  1  0  0  0
 16 19  1  0  0  0  0
 17 10  1  6  0  0  0
 17  8  1  0  0  0  0
 17  7  1  0  0  0  0
 18 15  1  0  0  0  0
 20 29  1  6  0  0  0
 20  1  1  0  0  0  0
 20 10  1  0  0  0  0
 22 21  1  1  0  0  0
 22 14  1  0  0  0  0
 23 28  1  0  0  0  0
 27 14  1  0  0  0  0
 27  5  1  0  0  0  0
 28  9  1  0  0  0  0
 30 31  2  0  0  0  0
 30 29  1  0  0  0  0
 32 30  1  0  0  0  0
M  END
>  <MODEL>
1

>  <REMARK>
 VINA RESULT:      -6.4      0.000      0.000
  Name = 
  1 active torsions:
  status: ('A' for Active; 'I' for Inactive)
    1  A    between atoms: C_20  and  N_29
                            x       y       z     vdW  Elec       q    Type
                         _______ _______ _______ _____ _____    ______ ____

>  <TORSDO>
F 1

$$$$
=
 OpenBabel11122412583D

 32 37  0  0  1  0  0  0  0  0999 V2000
  162.2980  203.4420  147.0950 C   0  0  0  0  0  2  0  0  0  0  0  0
  160.8230  206.7460  150.9240 C   0  0  1  0  0  3  0  0  0  0  0  0
  161.8370  211.2340  149.1820 C   0  0  0  0  0  2  0  0  0  0  0  0
  161.8950  211.5530  150.6780 C   0  0  0  0  0  2  0  0  0  0  0  0
  161.0930  206.2290  153.3570 C   0  0  2  0  0  3  0  0  0  0  0  0
  161.2740  207.0130  154.6660 C   0  0  2  0  0  3  0  0  0  0  0  0
  161.0360  204.9270  149.2220 N   0  0  2  0  0  0  0  0  0  0  0  0
  160.3890  207.2720  148.5630 C   0  0  0  0  0  2  0  0  0  0  0  0
  159.8640  208.9090  155.2210 N   0  0  0  0  0  0  0  0  0  0  0  0
  161.3060  205.7080  146.8830 C   0  0  0  0  0  2  0  0  0  0  0  0
  161.8550  209.7260  148.9060 C   0  0  0  0  0  2  0  0  0  0  0  0
  161.3370  207.5490  149.7280 C   0  0  1  0  0  3  0  0  0  0  0  0
  161.4050  208.9720  150.0800 N   0  0  1  0  0  0  0  0  0  0  0  0
  162.1030  208.3480  152.3950 C   0  0  1  0  0  3  0  0  0  0  0  0
  159.6540  207.8690  156.2170 C   0  0  0  0  0  2  0  0  0  0  0  0
  161.6070  202.7290  148.2590 C   0  0  0  0  0  2  0  0  0  0  0  0
  160.4660  205.7880  148.1600 C   0  0  1  0  0  3  0  0  0  0  0  0
  160.2300  206.5840  155.6670 C   0  0  0  0  0  2  0  0  0  0  0  0
  160.5550  203.5740  148.9760 C   0  0  0  0  0  2  0  0  0  0  0  0
  161.3410  204.3080  146.2820 C   0  0  1  0  0  3  0  0  0  0  0  0
  162.8130  210.5790  151.4130 C   0  0  0  0  0  2  0  0  0  0  0  0
  162.4550  209.1110  151.1100 C   0  0  2  0  0  3  0  0  0  0  0  0
  161.0040  208.9760  153.1190 N   0  0  0  0  0  2  0  0  0  0  0  0
  160.5060  205.2900  150.5410 C   0  0  0  0  0  2  0  0  0  0  0  0
  161.5550  204.9220  153.5200 O   0  0  0  0  0  1  0  0  0  0  0  0
  160.1490  210.1350  155.9450 C   0  0  0  0  0  1  0  0  0  0  0  0
  161.7670  206.8680  152.1280 C   0  0  2  0  0  3  0  0  0  0  0  0
  161.0800  208.5340  154.5140 C   0  0  2  0  0  3  0  0  0  0  0  0
  161.8120  204.3970  144.9090 N   0  0  0  0  0  2  0  0  0  0  0  0
  161.3960  205.4350  144.0180 C   0  0  0  0  0  0  0  0  0  0  0  0
  160.6100  206.3380  144.4070 O   0  0  0  0  0  0  0  0  0  0  0  0
  161.9010  205.4490  142.6220 C   0  0  0  0  0  1  0  0  0  0  0  0
  1 16  1  0  0  0  0
  2 24  1  6  0  0  0
  2 27  1  0  0  0  0
  3  4  1  0  0  0  0
  4 21  1  0  0  0  0
  5 25  1  1  0  0  0
  5  6  1  0  0  0  0
  6 18  1  1  0  0  0
  7 19  1  6  0  0  0
  7 24  1  0  0  0  0
  9 26  1  0  0  0  0
  9 15  1  0  0  0  0
 11  3  1  0  0  0  0
 12  8  1  6  0  0  0
 12 13  1  0  0  0  0
 12  2  1  0  0  0  0
 13 11  1  6  0  0  0
 13 22  1  0  0  0  0
 14 23  1  6  0  0  0
 16 19  1  0  0  0  0
 17 10  1  6  0  0  0
 17  8  1  0  0  0  0
 17  7  1  0  0  0  0
 18 15  1  0  0  0  0
 20 29  1  6  0  0  0
 20 10  1  0  0  0  0
 20  1  1  0  0  0  0
 22 21  1  1  0  0  0
 22 14  1  0  0  0  0
 23 28  1  0  0  0  0
 27 14  1  0  0  0  0
 27  5  1  0  0  0  0
 28  6  1  0  0  0  0
 28  9  1  0  0  0  0
 30 31  2  0  0  0  0
 30 29  1  0  0  0  0
 32 30  1  0  0  0  0
M  END
>  <MODEL>
2

>  <REMARK>
 VINA RESULT:      -4.3      3.885      6.126
  Name = 
  1 active torsions:
  status: ('A' for Active; 'I' for Inactive)
    1  A    between atoms: C_20  and  N_29
                            x       y       z     vdW  Elec       q    Type
                         _______ _______ _______ _____ _____    ______ ____

>  <TORSDO>
F 1

$$$$
=
 OpenBabel11122412583D

 32 37  0  0  1  0  0  0  0  0999 V2000
  162.1570  202.1820  150.6370 C   0  0  0  0  0  2  0  0  0  0  0  0
  160.7110  207.0190  152.1380 C   0  0  1  0  0  3  0  0  0  0  0  0
  161.6760  209.8900  148.2610 C   0  0  0  0  0  2  0  0  0  0  0  0
  161.7520  210.9550  149.3570 C   0  0  0  0  0  2  0  0  0  0  0  0
  161.0150  207.8770  154.4700 C   0  0  2  0  0  3  0  0  0  0  0  0
  161.2080  209.2370  155.1580 C   0  0  2  0  0  3  0  0  0  0  0  0
  160.9140  204.5730  151.6640 N   0  0  2  0  0  0  0  0  0  0  0  0
  160.2440  206.2080  149.8670 C   0  0  0  0  0  2  0  0  0  0  0  0
  159.7940  211.1400  154.6370 N   0  0  0  0  0  0  0  0  0  0  0  0
  161.1490  203.9890  149.2650 C   0  0  0  0  0  2  0  0  0  0  0  0
  161.7000  208.4660  148.8300 C   0  0  0  0  0  2  0  0  0  0  0  0
  161.2050  207.0620  150.6920 C   0  0  1  0  0  3  0  0  0  0  0  0
  161.2690  208.4530  150.2310 N   0  0  1  0  0  0  0  0  0  0  0  0
  162.0010  209.1570  152.5130 C   0  0  1  0  0  3  0  0  0  0  0  0
  159.6030  210.7900  156.0370 C   0  0  0  0  0  2  0  0  0  0  0  0
  161.4850  202.1990  152.0110 C   0  0  0  0  0  2  0  0  0  0  0  0
  160.3240  204.7370  150.3140 C   0  0  1  0  0  3  0  0  0  0  0  0
  160.1800  209.4080  156.2480 C   0  0  0  0  0  2  0  0  0  0  0  0
  160.4370  203.2980  152.1830 C   0  0  0  0  0  2  0  0  0  0  0  0
  161.1840  202.4840  149.5010 C   0  0  1  0  0  3  0  0  0  0  0  0
  162.6850  210.5210  150.4850 C   0  0  0  0  0  2  0  0  0  0  0  0
  162.3310  209.1170  151.0140 C   0  0  2  0  0  3  0  0  0  0  0  0
  160.9070  210.0760  152.8070 N   0  0  0  0  0  2  0  0  0  0  0  0
  160.3980  205.5840  152.5950 C   0  0  0  0  0  2  0  0  0  0  0  0
  161.4870  206.8560  155.2970 O   0  0  0  0  0  1  0  0  0  0  0  0
  160.0810  212.5620  154.5940 C   0  0  0  0  0  1  0  0  0  0  0  0
  161.6690  207.7620  153.0790 C   0  0  2  0  0  3  0  0  0  0  0  0
  161.0030  210.4440  154.2220 C   0  0  2  0  0  3  0  0  0  0  0  0
  161.6370  201.8270  148.2840 N   0  0  0  0  0  2  0  0  0  0  0  0
  160.7330  201.3280  147.2970 C   0  0  0  0  0  0  0  0  0  0  0  0
  159.4890  201.4630  147.4380 O   0  0  0  0  0  0  0  0  0  0  0  0
  161.2680  200.6480  146.0890 C   0  0  0  0  0  1  0  0  0  0  0  0
  1 16  1  0  0  0  0
  2 24  1  1  0  0  0
  2 27  1  0  0  0  0
  3 11  1  0  0  0  0
  3  4  1  0  0  0  0
  4 21  1  0  0  0  0
  5  6  1  0  0  0  0
  5 25  1  1  0  0  0
  6 18  1  1  0  0  0
  7 19  1  1  0  0  0
  7 24  1  0  0  0  0
  8 17  1  0  0  0  0
  9 15  1  0  0  0  0
 10 20  1  0  0  0  0
 12  8  1  6  0  0  0
 12  2  1  0  0  0  0
 13 11  1  6  0  0  0
 13 12  1  0  0  0  0
 13 22  1  0  0  0  0
 14 23  1  6  0  0  0
 14 27  1  0  0  0  0
 15 18  1  0  0  0  0
 16 19  1  0  0  0  0
 17 10  1  6  0  0  0
 17  7  1  0  0  0  0
 20 29  1  6  0  0  0
 20  1  1  0  0  0  0
 22 21  1  6  0  0  0
 22 14  1  0  0  0  0
 23 28  1  0  0  0  0
 26  9  1  0  0  0  0
 27  5  1  0  0  0  0
 28  9  1  0  0  0  0
 28  6  1  0  0  0  0
 30 31  2  0  0  0  0
 30 29  1  0  0  0  0
 32 30  1  0  0  0  0
M  END
>  <MODEL>
3

>  <REMARK>
 VINA RESULT:      -3.9      4.111      7.175
  Name = 
  1 active torsions:
  status: ('A' for Active; 'I' for Inactive)
    1  A    between atoms: C_20  and  N_29
                            x       y       z     vdW  Elec       q    Type
                         _______ _______ _______ _____ _____    ______ ____

>  <TORSDO>
F 1

$$$$
=
 OpenBabel11122412583D

 32 37  0  0  1  0  0  0  0  0999 V2000
  159.7080  208.6890  155.6280 C   0  0  0  0  0  2  0  0  0  0  0  0
  161.2810  205.5530  151.6990 C   0  0  1  0  0  3  0  0  0  0  0  0
  162.0170  208.5730  147.8860 C   0  0  0  0  0  2  0  0  0  0  0  0
  161.7510  207.2830  147.1060 C   0  0  0  0  0  2  0  0  0  0  0  0
  160.3790  203.2450  151.3460 C   0  0  2  0  0  3  0  0  0  0  0  0
  160.1750  202.2790  150.1680 C   0  0  2  0  0  3  0  0  0  0  0  0
  160.8910  206.7340  153.8670 N   0  0  2  0  0  0  0  0  0  0  0  0
  162.3230  207.7490  152.0580 C   0  0  0  0  0  2  0  0  0  0  0  0
  161.9390  201.8420  148.5590 N   0  0  0  0  0  0  0  0  0  0  0  0
  161.3470  209.1720  153.8270 C   0  0  0  0  0  2  0  0  0  0  0  0
  161.6100  208.4580  149.3600 C   0  0  0  0  0  2  0  0  0  0  0  0
  161.2820  207.0060  151.2220 C   0  0  1  0  0  3  0  0  0  0  0  0
  161.5670  207.0550  149.7840 N   0  0  1  0  0  0  0  0  0  0  0  0
  160.2590  204.9500  149.4710 C   0  0  1  0  0  3  0  0  0  0  0  0
  161.6240  200.6010  149.2490 C   0  0  0  0  0  2  0  0  0  0  0  0
  159.9050  207.2390  156.0710 C   0  0  0  0  0  2  0  0  0  0  0  0
  161.8940  207.7730  153.5370 C   0  0  1  0  0  3  0  0  0  0  0  0
  160.8190  200.9510  150.4800 C   0  0  0  0  0  2  0  0  0  0  0  0
  160.9900  206.4890  155.2990 C   0  0  0  0  0  2  0  0  0  0  0  0
  161.0230  209.3890  155.3000 C   0  0  1  0  0  3  0  0  0  0  0  0
  160.4560  206.6170  147.5660 C   0  0  0  0  0  2  0  0  0  0  0  0
  160.4190  206.4310  149.0960 C   0  0  2  0  0  3  0  0  0  0  0  0
  161.3230  204.1270  148.9070 N   0  0  0  0  0  2  0  0  0  0  0  0
  161.2240  205.4540  153.2330 C   0  0  0  0  0  2  0  0  0  0  0  0
  159.5290  202.8980  152.3970 O   0  0  0  0  0  1  0  0  0  0  0  0
  161.8870  201.5580  147.1360 C   0  0  0  0  0  1  0  0  0  0  0  0
  160.1910  204.7340  150.9950 C   0  0  2  0  0  3  0  0  0  0  0  0
  160.8370  202.7460  148.8570 C   0  0  2  0  0  3  0  0  0  0  0  0
  160.8900  210.8170  155.5480 N   0  0  0  0  0  2  0  0  0  0  0  0
  159.7640  211.5740  155.1000 C   0  0  0  0  0  0  0  0  0  0  0  0
  158.8180  211.0150  154.4830 O   0  0  0  0  0  0  0  0  0  0  0  0
  159.7060  213.0330  155.3700 C   0  0  0  0  0  1  0  0  0  0  0  0
  1 16  1  0  0  0  0
  2 24  1  1  0  0  0
  3 11  1  0  0  0  0
  4 21  1  0  0  0  0
  4  3  1  0  0  0  0
  5 25  1  1  0  0  0
  6 18  1  1  0  0  0
  6  5  1  0  0  0  0
  7 24  1  6  0  0  0
  7 19  1  0  0  0  0
  9 28  1  0  0  0  0
  9 15  1  0  0  0  0
 10 20  1  0  0  0  0
 12  2  1  0  0  0  0
 12  8  1  1  0  0  0
 13 11  1  6  0  0  0
 13 12  1  0  0  0  0
 14 23  1  1  0  0  0
 14 27  1  0  0  0  0
 15 18  1  0  0  0  0
 17  8  1  6  0  0  0
 17 10  1  0  0  0  0
 17  7  1  0  0  0  0
 19 16  1  0  0  0  0
 20 29  1  6  0  0  0
 20  1  1  0  0  0  0
 22 21  1  6  0  0  0
 22 14  1  0  0  0  0
 22 13  1  0  0  0  0
 26  9  1  0  0  0  0
 27  5  1  0  0  0  0
 27  2  1  0  0  0  0
 28 23  1  0  0  0  0
 28  6  1  0  0  0  0
 30 32  1  0  0  0  0
 30 29  1  0  0  0  0
 31 30  2  0  0  0  0
M  END
>  <MODEL>
4

>  <REMARK>
 VINA RESULT:      -3.4      4.024      8.588
  Name = 
  1 active torsions:
  status: ('A' for Active; 'I' for Inactive)
    1  A    between atoms: C_20  and  N_29
                            x       y       z     vdW  Elec       q    Type
                         _______ _______ _______ _____ _____    ______ ____

>  <TORSDO>
F 1

$$$$
