=
 OpenBabel11122412523D

 32 37  0  0  1  0  0  0  0  0999 V2000
  160.0550  208.8170  157.0450 C   0  0  0  0  0  2  0  0  0  0  0  0
  161.2330  207.0120  152.2760 C   0  0  1  0  0  3  0  0  0  0  0  0
  161.9090  211.0650  149.7310 C   0  0  0  0  0  3  0  0  0  0  0  0
  162.1830  210.2740  148.5150 C   0  0  0  0  0  3  0  0  0  0  0  0
  161.0830  204.8530  151.0810 C   0  0  0  0  0  0  0  0  0  0  0  0
  161.1000  204.2300  149.8360 C   0  0  0  0  0  0  0  0  0  0  0  0
  161.0390  207.1240  154.7790 C   0  0  1  0  0  3  0  0  0  0  0  0
  161.7540  209.1520  153.5390 C   0  0  0  0  0  2  0  0  0  0  0  0
  161.3320  204.0910  147.6620 N   0  0  0  0  0  0  0  0  0  0  0  0
  161.0100  209.3660  155.9670 C   0  0  2  0  0  3  0  0  0  0  0  0
  161.8720  210.4820  150.9340 C   0  0  0  0  0  3  0  0  0  0  0  0
  161.5710  208.4260  152.2730 N   0  0  1  0  0  0  0  0  0  0  0  0
  162.2210  209.0220  151.1070 C   0  0  1  0  0  3  0  0  0  0  0  0
  161.6780  206.9290  149.8870 C   0  0  0  0  0  0  0  0  0  0  0  0
  161.0400  202.8780  148.1890 C   0  0  0  0  0  3  0  0  0  0  0  0
  159.3410  207.5210  156.6420 C   0  0  0  0  0  2  0  0  0  0  0  0
  160.8350  208.6290  154.6300 C   0  0  2  0  0  3  0  0  0  0  0  0
  160.8900  202.9310  149.5420 N   0  0  0  0  0  0  0  0  0  0  0  0
  160.3180  206.5350  156.0010 C   0  0  0  0  0  2  0  0  0  0  0  0
  162.2030  208.9390  148.5610 C   0  0  0  0  0  3  0  0  0  0  0  0
  161.9790  208.2390  149.8460 C   0  0  2  0  0  3  0  0  0  0  0  0
  161.6580  206.2330  148.7070 N   0  0  0  0  0  0  0  0  0  0  0  0
  160.5610  206.4490  153.5080 C   0  0  0  0  0  2  0  0  0  0  0  0
  160.8680  203.9780  152.2780 C   0  0  0  0  0  1  0  0  0  0  0  0
  161.5760  204.4050  146.2660 C   0  0  0  0  0  1  0  0  0  0  0  0
  161.3420  206.2710  151.1290 C   0  0  0  0  0  0  0  0  0  0  0  0
  161.3640  204.9170  148.7100 C   0  0  0  0  0  0  0  0  0  0  0  0
  162.4550  209.3080  156.4620 C   0  0  0  0  0  2  0  0  0  0  0  0
  162.8230  210.5580  157.1110 N   0  0  0  0  0  2  0  0  0  0  0  0
  163.8350  211.4300  156.6030 C   0  0  0  0  0  0  0  0  0  0  0  0
  164.5060  211.1600  155.2990 C   0  0  0  0  0  1  0  0  0  0  0  0
  164.1390  212.4990  157.2580 N   0  0  0  0  0  2  0  0  0  0  0  0
  2 23  1  6  0  0  0
  3 11  2  0  0  0  0
  4 20  2  0  0  0  0
  4  3  1  0  0  0  0
  5 26  1  0  0  0  0
  5 24  1  0  0  0  0
  6  5  2  0  0  0  0
  7 23  1  6  0  0  0
  7 19  1  0  0  0  0
  9 15  1  0  0  0  0
  9 27  1  0  0  0  0
 10 28  1  1  0  0  0
 10  1  1  0  0  0  0
 12  2  1  0  0  0  0
 12  8  1  1  0  0  0
 13 11  1  6  0  0  0
 13 12  1  0  0  0  0
 14 26  2  0  0  0  0
 15 18  2  0  0  0  0
 16  1  1  0  0  0  0
 17  8  1  6  0  0  0
 17  7  1  0  0  0  0
 17 10  1  0  0  0  0
 18  6  1  0  0  0  0
 19 16  1  0  0  0  0
 21 20  1  6  0  0  0
 21 14  1  0  0  0  0
 21 13  1  0  0  0  0
 22 27  2  0  0  0  0
 22 14  1  0  0  0  0
 25  9  1  0  0  0  0
 26  2  1  0  0  0  0
 27  6  1  0  0  0  0
 28 29  1  0  0  0  0
 30 29  1  0  0  0  0
 30 32  2  0  0  0  0
 31 30  1  0  0  0  0
M  END
>  <MODEL>
1

>  <REMARK>
 VINA RESULT:      -7.3      0.000      0.000
  Name = 
  2 active torsions:
  status: ('A' for Active; 'I' for Inactive)
    1  A    between atoms: C_10  and  C_20
    2  A    between atoms: C_20  and  N_29
                            x       y       z     vdW  Elec       q    Type
                         _______ _______ _______ _____ _____    ______ ____

>  <TORSDO>
F 2

$$$$
=
 OpenBabel11122412523D

 32 37  0  0  1  0  0  0  0  0999 V2000
  162.3450  213.7910  148.2650 C   0  0  0  0  0  2  0  0  0  0  0  0
  161.3330  208.9430  149.9570 C   0  0  1  0  0  3  0  0  0  0  0  0
  161.4960  209.4280  154.7630 C   0  0  0  0  0  3  0  0  0  0  0  0
  161.2140  207.9880  154.9330 C   0  0  0  0  0  3  0  0  0  0  0  0
  161.2640  206.6730  148.9790 C   0  0  0  0  0  0  0  0  0  0  0  0
  161.2630  205.3090  149.2530 C   0  0  0  0  0  0  0  0  0  0  0  0
  161.3210  210.9850  148.4930 C   0  0  1  0  0  3  0  0  0  0  0  0
  161.0290  211.2630  150.9430 C   0  0  0  0  0  2  0  0  0  0  0  0
  161.2040  203.5100  150.5030 N   0  0  0  0  0  0  0  0  0  0  0  0
  161.5810  213.2960  149.5090 C   0  0  2  0  0  3  0  0  0  0  0  0
  161.3400  210.0200  153.5750 C   0  0  0  0  0  3  0  0  0  0  0  0
  161.2120  209.8140  151.1150 N   0  0  1  0  0  0  0  0  0  0  0  0
  160.7630  209.2710  152.3960 C   0  0  1  0  0  3  0  0  0  0  0  0
  161.0920  207.0140  151.4180 C   0  0  0  0  0  0  0  0  0  0  0  0
  161.2650  203.1770  149.1920 C   0  0  0  0  0  3  0  0  0  0  0  0
  162.8900  212.6630  147.3800 C   0  0  0  0  0  2  0  0  0  0  0  0
  161.7610  211.7840  149.7170 C   0  0  2  0  0  3  0  0  0  0  0  0
  161.3020  204.2760  148.3870 N   0  0  0  0  0  0  0  0  0  0  0  0
  161.8370  211.5750  147.1710 C   0  0  0  0  0  2  0  0  0  0  0  0
  160.9910  207.2080  153.8720 C   0  0  0  0  0  3  0  0  0  0  0  0
  160.9940  207.7900  152.5110 C   0  0  2  0  0  3  0  0  0  0  0  0
  161.1110  205.6550  151.5880 N   0  0  0  0  0  0  0  0  0  0  0  0
  161.8040  209.5570  148.6580 C   0  0  0  0  0  2  0  0  0  0  0  0
  161.2400  207.0790  147.5370 C   0  0  0  0  0  1  0  0  0  0  0  0
  161.1340  202.6040  151.6350 C   0  0  0  0  0  1  0  0  0  0  0  0
  161.2160  207.5850  150.0960 C   0  0  0  0  0  0  0  0  0  0  0  0
  161.2040  204.8450  150.5150 C   0  0  0  0  0  0  0  0  0  0  0  0
  160.1060  213.6840  149.4120 C   0  0  0  0  0  2  0  0  0  0  0  0
  159.8190  214.2820  148.1150 N   0  0  0  0  0  2  0  0  0  0  0  0
  158.6910  213.9120  147.3200 C   0  0  0  0  0  0  0  0  0  0  0  0
  157.6670  212.9540  147.8280 C   0  0  0  0  0  1  0  0  0  0  0  0
  158.5260  214.4530  146.1600 N   0  0  0  0  0  2  0  0  0  0  0  0
  1 10  1  0  0  0  0
  2 23  1  1  0  0  0
  2 26  1  0  0  0  0
  2 12  1  0  0  0  0
  3  4  1  0  0  0  0
  5  6  2  0  0  0  0
  5 26  1  0  0  0  0
  6 27  1  0  0  0  0
  7 19  1  6  0  0  0
  7 23  1  0  0  0  0
  7 17  1  0  0  0  0
  9 27  1  0  0  0  0
  9 25  1  0  0  0  0
 10 28  1  6  0  0  0
 10 17  1  0  0  0  0
 11  3  2  0  0  0  0
 12  8  1  6  0  0  0
 12 13  1  0  0  0  0
 13 21  1  0  0  0  0
 13 11  1  1  0  0  0
 14 22  1  0  0  0  0
 14 21  1  0  0  0  0
 15  9  1  0  0  0  0
 16  1  1  0  0  0  0
 17  8  1  1  0  0  0
 18 15  2  0  0  0  0
 18  6  1  0  0  0  0
 19 16  1  0  0  0  0
 20  4  2  0  0  0  0
 21 20  1  1  0  0  0
 24  5  1  0  0  0  0
 26 14  2  0  0  0  0
 27 22  2  0  0  0  0
 29 28  1  0  0  0  0
 30 31  1  0  0  0  0
 30 29  1  0  0  0  0
 32 30  2  0  0  0  0
M  END
>  <MODEL>
2

>  <REMARK>
 VINA RESULT:      -6.9      2.852      6.464
  Name = 
  2 active torsions:
  status: ('A' for Active; 'I' for Inactive)
    1  A    between atoms: C_10  and  C_20
    2  A    between atoms: C_20  and  N_29
                            x       y       z     vdW  Elec       q    Type
                         _______ _______ _______ _____ _____    ______ ____

>  <TORSDO>
F 2

$$$$
=
 OpenBabel11122412523D

 32 37  0  0  1  0  0  0  0  0999 V2000
  162.2320  210.1410  153.8130 C   0  0  0  0  0  2  0  0  0  0  0  0
  161.2020  206.6490  150.0530 C   0  0  1  0  0  3  0  0  0  0  0  0
  161.2600  202.4490  152.4430 C   0  0  0  0  0  3  0  0  0  0  0  0
  160.9800  201.7160  151.1930 C   0  0  0  0  0  3  0  0  0  0  0  0
  161.1620  206.6260  147.5800 C   0  0  0  0  0  0  0  0  0  0  0  0
  161.1600  205.8230  146.4440 C   0  0  0  0  0  0  0  0  0  0  0  0
  161.2140  208.8150  151.3270 C   0  0  1  0  0  3  0  0  0  0  0  0
  160.8680  206.6940  152.5690 C   0  0  0  0  0  2  0  0  0  0  0  0
  161.0810  203.9530  145.3050 N   0  0  0  0  0  0  0  0  0  0  0  0
  161.4440  208.8180  153.8550 C   0  0  2  0  0  3  0  0  0  0  0  0
  161.1270  203.7780  152.5020 C   0  0  0  0  0  3  0  0  0  0  0  0
  161.0530  205.9460  151.3160 N   0  0  1  0  0  0  0  0  0  0  0  0
  160.5790  204.5630  151.3330 C   0  0  1  0  0  3  0  0  0  0  0  0
  160.9370  204.5380  148.8770 C   0  0  0  0  0  0  0  0  0  0  0  0
  161.1710  205.0150  144.4710 C   0  0  0  0  0  3  0  0  0  0  0  0
  162.8000  210.4840  152.4300 C   0  0  0  0  0  2  0  0  0  0  0  0
  161.6240  208.0110  152.5590 C   0  0  2  0  0  3  0  0  0  0  0  0
  161.2210  206.1960  145.1490 N   0  0  0  0  0  0  0  0  0  0  0  0
  161.7560  210.2530  151.3370 C   0  0  0  0  0  2  0  0  0  0  0  0
  160.7830  202.3740  150.0470 C   0  0  0  0  0  3  0  0  0  0  0  0
  160.8130  203.8540  150.0280 C   0  0  2  0  0  3  0  0  0  0  0  0
  160.9570  203.8310  147.7040 N   0  0  0  0  0  0  0  0  0  0  0  0
  161.6980  208.0780  150.0940 C   0  0  0  0  0  2  0  0  0  0  0  0
  161.1670  208.1080  147.3680 C   0  0  0  0  0  1  0  0  0  0  0  0
  160.9900  202.5530  144.9330 C   0  0  0  0  0  1  0  0  0  0  0  0
  161.0870  205.9750  148.8660 C   0  0  0  0  0  0  0  0  0  0  0  0
  161.0760  204.4820  146.5300 C   0  0  0  0  0  0  0  0  0  0  0  0
  159.9690  209.0900  154.1520 C   0  0  0  0  0  2  0  0  0  0  0  0
  159.8150  210.3580  154.8510 N   0  0  0  0  0  2  0  0  0  0  0  0
  159.2270  211.5130  154.2480 C   0  0  0  0  0  0  0  0  0  0  0  0
  158.6300  211.4530  152.8820 C   0  0  0  0  0  1  0  0  0  0  0  0
  159.1650  212.6160  154.9140 N   0  0  0  0  0  2  0  0  0  0  0  0
  1 10  1  0  0  0  0
  2 23  1  1  0  0  0
  2 12  1  0  0  0  0
  3 11  2  0  0  0  0
  4  3  1  0  0  0  0
  5 26  1  0  0  0  0
  6 27  1  0  0  0  0
  6  5  2  0  0  0  0
  7 23  1  6  0  0  0
  7 19  1  0  0  0  0
  7 17  1  0  0  0  0
  9 27  1  0  0  0  0
 10 28  1  6  0  0  0
 12 13  1  0  0  0  0
 12  8  1  1  0  0  0
 13 11  1  1  0  0  0
 14 21  1  0  0  0  0
 15 18  2  0  0  0  0
 15  9  1  0  0  0  0
 16  1  1  0  0  0  0
 17  8  1  1  0  0  0
 17 10  1  0  0  0  0
 18  6  1  0  0  0  0
 19 16  1  0  0  0  0
 20  4  2  0  0  0  0
 21 20  1  6  0  0  0
 21 13  1  0  0  0  0
 22 14  1  0  0  0  0
 24  5  1  0  0  0  0
 25  9  1  0  0  0  0
 26 14  2  0  0  0  0
 26  2  1  0  0  0  0
 27 22  2  0  0  0  0
 28 29  1  0  0  0  0
 30 29  1  0  0  0  0
 30 32  2  0  0  0  0
 31 30  1  0  0  0  0
M  END
>  <MODEL>
3

>  <REMARK>
 VINA RESULT:      -6.8      2.168      4.792
  Name = 
  2 active torsions:
  status: ('A' for Active; 'I' for Inactive)
    1  A    between atoms: C_10  and  C_20
    2  A    between atoms: C_20  and  N_29
                            x       y       z     vdW  Elec       q    Type
                         _______ _______ _______ _____ _____    ______ ____

>  <TORSDO>
F 2

$$$$
=
 OpenBabel11122412523D

 32 37  0  0  1  0  0  0  0  0999 V2000
  161.9560  201.8010  150.1200 C   0  0  0  0  0  2  0  0  0  0  0  0
  161.0390  206.5330  152.1600 C   0  0  1  0  0  3  0  0  0  0  0  0
  162.4690  209.5160  148.6360 C   0  0  0  0  0  3  0  0  0  0  0  0
  162.1290  210.6880  149.4690 C   0  0  0  0  0  3  0  0  0  0  0  0
  160.5440  207.4640  154.3970 C   0  0  0  0  0  0  0  0  0  0  0  0
  160.5080  208.6180  155.1730 C   0  0  0  0  0  0  0  0  0  0  0  0
  160.8100  204.0730  151.7010 C   0  0  1  0  0  3  0  0  0  0  0  0
  161.1800  205.6200  149.7950 C   0  0  0  0  0  2  0  0  0  0  0  0
  160.6320  210.7660  155.5870 N   0  0  0  0  0  0  0  0  0  0  0  0
  161.5010  203.1150  149.4550 C   0  0  2  0  0  3  0  0  0  0  0  0
  162.0590  208.2910  148.9780 C   0  0  0  0  0  3  0  0  0  0  0  0
  161.2880  206.7400  150.7420 N   0  0  1  0  0  0  0  0  0  0  0  0
  161.1420  208.0730  150.1600 C   0  0  1  0  0  3  0  0  0  0  0  0
  161.0320  208.9430  152.4820 C   0  0  0  0  0  0  0  0  0  0  0  0
  160.3280  210.0810  156.7140 C   0  0  0  0  0  3  0  0  0  0  0  0
  162.1660  201.9120  151.6360 C   0  0  0  0  0  2  0  0  0  0  0  0
  161.6100  204.3050  150.4210 C   0  0  2  0  0  3  0  0  0  0  0  0
  160.2420  208.7400  156.4900 N   0  0  0  0  0  0  0  0  0  0  0  0
  161.0130  202.6700  152.2940 C   0  0  0  0  0  2  0  0  0  0  0  0
  161.5810  210.5290  150.6770 C   0  0  0  0  0  3  0  0  0  0  0  0
  161.2800  209.1700  151.1800 C   0  0  2  0  0  3  0  0  0  0  0  0
  160.9890  210.0200  153.3280 N   0  0  0  0  0  0  0  0  0  0  0  0
  161.2060  205.1340  152.7090 C   0  0  0  0  0  2  0  0  0  0  0  0
  160.1820  206.1770  155.0720 C   0  0  0  0  0  1  0  0  0  0  0  0
  160.7850  212.2030  155.4500 C   0  0  0  0  0  1  0  0  0  0  0  0
  160.8560  207.6040  152.9940 C   0  0  0  0  0  0  0  0  0  0  0  0
  160.7400  209.8320  154.6400 C   0  0  0  0  0  0  0  0  0  0  0  0
  160.0860  202.9640  148.9000 C   0  0  0  0  0  2  0  0  0  0  0  0
  160.0550  201.9610  147.8440 N   0  0  0  0  0  2  0  0  0  0  0  0
  160.5750  202.1940  146.5340 C   0  0  0  0  0  0  0  0  0  0  0  0
  161.2880  203.4610  146.1990 C   0  0  0  0  0  1  0  0  0  0  0  0
  160.4720  201.2740  145.6360 N   0  0  0  0  0  2  0  0  0  0  0  0
  1 16  1  0  0  0  0
  2 23  1  1  0  0  0
  2 26  1  0  0  0  0
  3 11  2  0  0  0  0
  3  4  1  0  0  0  0
  4 20  2  0  0  0  0
  5 24  1  0  0  0  0
  5  6  1  0  0  0  0
  6 18  1  0  0  0  0
  7 19  1  1  0  0  0
  7 23  1  0  0  0  0
  9 15  1  0  0  0  0
 10 28  1  1  0  0  0
 10  1  1  0  0  0  0
 10 17  1  0  0  0  0
 12  8  1  6  0  0  0
 12  2  1  0  0  0  0
 13 11  1  6  0  0  0
 13 12  1  0  0  0  0
 13 21  1  0  0  0  0
 14 26  1  0  0  0  0
 14 22  2  0  0  0  0
 16 19  1  0  0  0  0
 17  8  1  6  0  0  0
 17  7  1  0  0  0  0
 18 15  2  0  0  0  0
 21 20  1  6  0  0  0
 21 14  1  0  0  0  0
 22 27  1  0  0  0  0
 25  9  1  0  0  0  0
 26  5  2  0  0  0  0
 27  6  2  0  0  0  0
 27  9  1  0  0  0  0
 29 28  1  0  0  0  0
 30 29  1  0  0  0  0
 31 30  1  0  0  0  0
 32 30  2  0  0  0  0
M  END
>  <MODEL>
4

>  <REMARK>
 VINA RESULT:      -6.1      1.781      7.790
  Name = 
  2 active torsions:
  status: ('A' for Active; 'I' for Inactive)
    1  A    between atoms: C_10  and  C_20
    2  A    between atoms: C_20  and  N_29
                            x       y       z     vdW  Elec       q    Type
                         _______ _______ _______ _____ _____    ______ ____

>  <TORSDO>
F 2

$$$$
=
 OpenBabel11122412523D

 32 37  0  0  1  0  0  0  0  0999 V2000
  162.3430  213.0580  149.1030 C   0  0  0  0  0  2  0  0  0  0  0  0
  161.3250  207.9730  149.8080 C   0  0  1  0  0  3  0  0  0  0  0  0
  161.4770  207.5040  154.6160 C   0  0  0  0  0  3  0  0  0  0  0  0
  161.1940  206.0600  154.5000 C   0  0  0  0  0  3  0  0  0  0  0  0
  161.2560  205.9390  148.4030 C   0  0  0  0  0  0  0  0  0  0  0  0
  161.2540  204.5480  148.4040 C   0  0  0  0  0  0  0  0  0  0  0  0
  161.3170  210.2630  148.7730 C   0  0  1  0  0  3  0  0  0  0  0  0
  161.0200  210.0550  151.2290 C   0  0  0  0  0  2  0  0  0  0  0  0
  161.1910  202.5390  149.2760 N   0  0  0  0  0  0  0  0  0  0  0  0
  161.5760  212.3300  150.2230 C   0  0  2  0  0  3  0  0  0  0  0  0
  161.3230  208.3190  153.5670 C   0  0  0  0  0  3  0  0  0  0  0  0
  161.2010  208.6000  151.1140 N   0  0  1  0  0  0  0  0  0  0  0  0
  160.7490  207.8170  152.2630 C   0  0  1  0  0  3  0  0  0  0  0  0
  161.0790  205.7950  150.8610 C   0  0  0  0  0  0  0  0  0  0  0  0
  161.2550  202.4700  147.9260 C   0  0  0  0  0  3  0  0  0  0  0  0
  162.8900  212.1250  148.0150 C   0  0  0  0  0  2  0  0  0  0  0  0
  161.7540  210.8060  150.1320 C   0  0  2  0  0  3  0  0  0  0  0  0
  161.2940  203.7050  147.3520 N   0  0  0  0  0  0  0  0  0  0  0  0
  161.8370  211.1000  147.5940 C   0  0  0  0  0  2  0  0  0  0  0  0
  160.9730  205.5030  153.3050 C   0  0  0  0  0  3  0  0  0  0  0  0
  160.9790  206.3410  152.0850 C   0  0  2  0  0  3  0  0  0  0  0  0
  161.0970  204.4290  150.7610 N   0  0  0  0  0  0  0  0  0  0  0  0
  161.7980  208.8300  148.6550 C   0  0  0  0  0  2  0  0  0  0  0  0
  161.2360  206.6200  147.0690 C   0  0  0  0  0  1  0  0  0  0  0  0
  161.1180  201.4280  150.2080 C   0  0  0  0  0  1  0  0  0  0  0  0
  161.2060  206.6150  149.6770 C   0  0  0  0  0  0  0  0  0  0  0  0
  161.1920  203.8450  149.5500 C   0  0  0  0  0  0  0  0  0  0  0  0
  160.1010  212.7300  150.2010 C   0  0  0  0  0  2  0  0  0  0  0  0
  159.6600  213.1280  151.5310 N   0  0  0  0  0  2  0  0  0  0  0  0
  158.5420  213.9910  151.7540 C   0  0  0  0  0  0  0  0  0  0  0  0
  157.6840  214.4520  150.6240 C   0  0  0  0  0  1  0  0  0  0  0  0
  158.2380  214.3370  152.9580 N   0  0  0  0  0  2  0  0  0  0  0  0
  1 10  1  0  0  0  0
  2 23  1  1  0  0  0
  2 12  1  0  0  0  0
  4  3  1  0  0  0  0
  5  6  2  0  0  0  0
  5 26  1  0  0  0  0
  6 27  1  0  0  0  0
  7 19  1  6  0  0  0
  7 17  1  0  0  0  0
  9 27  1  0  0  0  0
  9 25  1  0  0  0  0
 10 28  1  6  0  0  0
 11  3  2  0  0  0  0
 12  8  1  6  0  0  0
 12 13  1  0  0  0  0
 13 11  1  1  0  0  0
 14 21  1  0  0  0  0
 15  9  1  0  0  0  0
 16  1  1  0  0  0  0
 17 10  1  0  0  0  0
 17  8  1  1  0  0  0
 18 15  2  0  0  0  0
 18  6  1  0  0  0  0
 19 16  1  0  0  0  0
 20  4  2  0  0  0  0
 21 13  1  0  0  0  0
 21 20  1  6  0  0  0
 22 14  1  0  0  0  0
 23  7  1  0  0  0  0
 24  5  1  0  0  0  0
 26  2  1  0  0  0  0
 26 14  2  0  0  0  0
 27 22  2  0  0  0  0
 28 29  1  0  0  0  0
 29 30  1  0  0  0  0
 30 32  2  0  0  0  0
 31 30  1  0  0  0  0
M  END
>  <MODEL>
5

>  <REMARK>
 VINA RESULT:      -5.7      2.539      5.576
  Name = 
  2 active torsions:
  status: ('A' for Active; 'I' for Inactive)
    1  A    between atoms: C_10  and  C_20
    2  A    between atoms: C_20  and  N_29
                            x       y       z     vdW  Elec       q    Type
                         _______ _______ _______ _____ _____    ______ ____

>  <TORSDO>
F 2

$$$$
=
 OpenBabel11122412523D

 32 37  0  0  1  0  0  0  0  0999 V2000
  160.0390  209.5600  155.0910 C   0  0  0  0  0  2  0  0  0  0  0  0
  161.0290  205.9180  151.4650 C   0  0  1  0  0  3  0  0  0  0  0  0
  161.4830  208.5250  147.4210 C   0  0  0  0  0  3  0  0  0  0  0  0
  161.7180  207.2960  146.6370 C   0  0  0  0  0  3  0  0  0  0  0  0
  160.8740  203.4560  151.2980 C   0  0  0  0  0  0  0  0  0  0  0  0
  160.8460  202.3670  150.4310 C   0  0  0  0  0  0  0  0  0  0  0  0
  160.9540  207.0720  153.6960 C   0  0  1  0  0  3  0  0  0  0  0  0
  161.5580  208.3920  151.6820 C   0  0  0  0  0  2  0  0  0  0  0  0
  160.9770  201.3270  148.5080 N   0  0  0  0  0  0  0  0  0  0  0  0
  160.9270  209.6060  153.8330 C   0  0  2  0  0  3  0  0  0  0  0  0
  161.5190  208.5020  148.7570 C   0  0  0  0  0  3  0  0  0  0  0  0
  161.3320  207.2000  150.8510 N   0  0  1  0  0  0  0  0  0  0  0  0
  161.9100  207.2510  149.5090 C   0  0  1  0  0  3  0  0  0  0  0  0
  161.3600  204.8380  149.3120 C   0  0  0  0  0  0  0  0  0  0  0  0
  160.7400  200.4480  149.5100 C   0  0  0  0  0  3  0  0  0  0  0  0
  159.3370  208.2130  155.3090 C   0  0  0  0  0  2  0  0  0  0  0  0
  160.7060  208.3740  152.9400 C   0  0  2  0  0  3  0  0  0  0  0  0
  160.6540  201.0640  150.7210 N   0  0  0  0  0  0  0  0  0  0  0  0
  160.3060  207.0500  155.0900 C   0  0  0  0  0  2  0  0  0  0  0  0
  161.7720  206.1040  147.2380 C   0  0  0  0  0  3  0  0  0  0  0  0
  161.6280  206.0090  148.7080 C   0  0  2  0  0  3  0  0  0  0  0  0
  161.3010  203.7100  148.5370 N   0  0  0  0  0  0  0  0  0  0  0  0
  160.4310  205.9250  152.8540 C   0  0  0  0  0  2  0  0  0  0  0  0
  160.7380  203.1650  152.7610 C   0  0  0  0  0  1  0  0  0  0  0  0
  161.1450  201.0240  147.0980 C   0  0  0  0  0  1  0  0  0  0  0  0
  161.1010  204.7630  150.7320 C   0  0  0  0  0  0  0  0  0  0  0  0
  161.0390  202.5170  149.1080 C   0  0  0  0  0  0  0  0  0  0  0  0
  162.3950  209.7630  154.2270 C   0  0  0  0  0  2  0  0  0  0  0  0
  162.5660  210.9060  155.1140 N   0  0  0  0  0  2  0  0  0  0  0  0
  162.5910  210.7890  156.5380 C   0  0  0  0  0  0  0  0  0  0  0  0
  162.5500  209.4560  157.2050 C   0  0  0  0  0  1  0  0  0  0  0  0
  162.7000  211.8520  157.2610 N   0  0  0  0  0  2  0  0  0  0  0  0
  1 16  1  0  0  0  0
  2 23  1  6  0  0  0
  3 11  2  0  0  0  0
  4 20  2  0  0  0  0
  4  3  1  0  0  0  0
  5 24  1  0  0  0  0
  6 18  1  0  0  0  0
  6  5  2  0  0  0  0
  7 23  1  6  0  0  0
  7 19  1  0  0  0  0
  9 27  1  0  0  0  0
  9 15  1  0  0  0  0
 10 28  1  1  0  0  0
 10  1  1  0  0  0  0
 12  2  1  0  0  0  0
 12  8  1  1  0  0  0
 13 11  1  6  0  0  0
 13 12  1  0  0  0  0
 14 26  2  0  0  0  0
 15 18  2  0  0  0  0
 17  8  1  6  0  0  0
 17  7  1  0  0  0  0
 17 10  1  0  0  0  0
 19 16  1  0  0  0  0
 21 20  1  1  0  0  0
 21 14  1  0  0  0  0
 21 13  1  0  0  0  0
 22 27  2  0  0  0  0
 22 14  1  0  0  0  0
 25  9  1  0  0  0  0
 26  5  1  0  0  0  0
 26  2  1  0  0  0  0
 27  6  1  0  0  0  0
 28 29  1  0  0  0  0
 29 30  1  0  0  0  0
 30 31  1  0  0  0  0
 30 32  2  0  0  0  0
M  END
>  <MODEL>
6

>  <REMARK>
 VINA RESULT:      -5.3      1.455      2.282
  Name = 
  2 active torsions:
  status: ('A' for Active; 'I' for Inactive)
    1  A    between atoms: C_10  and  C_20
    2  A    between atoms: C_20  and  N_29
                            x       y       z     vdW  Elec       q    Type
                         _______ _______ _______ _____ _____    ______ ____

>  <TORSDO>
F 2

$$$$
=
 OpenBabel11122412523D

 32 37  0  0  1  0  0  0  0  0999 V2000
  162.6180  210.5650  151.2230 C   0  0  0  0  0  2  0  0  0  0  0  0
  161.1940  206.0970  148.8990 C   0  0  1  0  0  3  0  0  0  0  0  0
  161.8170  202.8220  152.3990 C   0  0  0  0  0  3  0  0  0  0  0  0
  161.3850  201.7430  151.4880 C   0  0  0  0  0  3  0  0  0  0  0  0
  160.7790  205.3230  146.5880 C   0  0  0  0  0  0  0  0  0  0  0  0
  160.6420  204.2120  145.7610 C   0  0  0  0  0  0  0  0  0  0  0  0
  161.2970  208.5470  149.4460 C   0  0  1  0  0  3  0  0  0  0  0  0
  161.2460  206.9040  151.3060 C   0  0  0  0  0  2  0  0  0  0  0  0
  160.4800  202.0840  145.2640 N   0  0  0  0  0  0  0  0  0  0  0  0
  161.9090  209.3180  151.7850 C   0  0  2  0  0  3  0  0  0  0  0  0
  161.6310  204.1060  152.0770 C   0  0  0  0  0  3  0  0  0  0  0  0
  161.2730  205.8110  150.3230 N   0  0  1  0  0  0  0  0  0  0  0  0
  160.8740  204.4990  150.8300 C   0  0  1  0  0  3  0  0  0  0  0  0
  160.8540  203.7280  148.4700 C   0  0  0  0  0  0  0  0  0  0  0  0
  160.3900  202.8430  144.1460 C   0  0  0  0  0  3  0  0  0  0  0  0
  162.9510  210.4710  149.7280 C   0  0  0  0  0  2  0  0  0  0  0  0
  161.9280  208.1560  150.7800 C   0  0  2  0  0  3  0  0  0  0  0  0
  160.4870  204.1740  144.4210 N   0  0  0  0  0  0  0  0  0  0  0  0
  161.7650  209.9200  148.9370 C   0  0  0  0  0  2  0  0  0  0  0  0
  160.9840  202.0220  150.2440 C   0  0  0  0  0  3  0  0  0  0  0  0
  160.9400  203.4260  149.7780 C   0  0  2  0  0  3  0  0  0  0  0  0
  160.7290  202.6970  147.5760 N   0  0  0  0  0  0  0  0  0  0  0  0
  161.6220  207.4700  148.4300 C   0  0  0  0  0  2  0  0  0  0  0  0
  160.6810  206.6700  145.9420 C   0  0  0  0  0  1  0  0  0  0  0  0
  160.4000  200.6380  145.3490 C   0  0  0  0  0  1  0  0  0  0  0  0
  160.9310  205.0930  148.0050 C   0  0  0  0  0  0  0  0  0  0  0  0
  160.6360  202.9610  146.2570 C   0  0  0  0  0  0  0  0  0  0  0  0
  160.4860  209.6690  152.2190 C   0  0  0  0  0  2  0  0  0  0  0  0
  160.4400  211.0110  152.7820 N   0  0  0  0  0  2  0  0  0  0  0  0
  160.1840  211.2670  154.1640 C   0  0  0  0  0  0  0  0  0  0  0  0
  160.0540  210.1520  155.1460 C   0  0  0  0  0  1  0  0  0  0  0  0
  160.1120  212.4850  154.5820 N   0  0  0  0  0  2  0  0  0  0  0  0
  1 10  1  0  0  0  0
  2 23  1  6  0  0  0
  2 12  1  0  0  0  0
  4  3  1  0  0  0  0
  5 26  1  0  0  0  0
  6 27  1  0  0  0  0
  6  5  2  0  0  0  0
  7 23  1  6  0  0  0
  7 17  1  0  0  0  0
  9 25  1  0  0  0  0
  9 27  1  0  0  0  0
 10 28  1  6  0  0  0
 11  3  2  0  0  0  0
 12 13  1  0  0  0  0
 12  8  1  1  0  0  0
 13 11  1  1  0  0  0
 14 21  1  0  0  0  0
 15 18  2  0  0  0  0
 15  9  1  0  0  0  0
 16  1  1  0  0  0  0
 17  8  1  1  0  0  0
 17 10  1  0  0  0  0
 18  6  1  0  0  0  0
 19  7  1  0  0  0  0
 19 16  1  0  0  0  0
 20  4  2  0  0  0  0
 21 20  1  1  0  0  0
 21 13  1  0  0  0  0
 22 14  1  0  0  0  0
 24  5  1  0  0  0  0
 26 14  2  0  0  0  0
 26  2  1  0  0  0  0
 27 22  2  0  0  0  0
 28 29  1  0  0  0  0
 29 30  1  0  0  0  0
 30 32  2  0  0  0  0
 30 31  1  0  0  0  0
M  END
>  <MODEL>
7

>  <REMARK>
 VINA RESULT:      -4.4      2.308      5.352
  Name = 
  2 active torsions:
  status: ('A' for Active; 'I' for Inactive)
    1  A    between atoms: C_10  and  C_20
    2  A    between atoms: C_20  and  N_29
                            x       y       z     vdW  Elec       q    Type
                         _______ _______ _______ _____ _____    ______ ____

>  <TORSDO>
F 2

$$$$
