=
 OpenBabel11122413433D

 37 44  0  0  1  0  0  0  0  0999 V2000
  160.1980  211.7630  149.4930 C   0  0  0  0  0  2  0  0  0  0  0  0
  162.1430  207.7500  149.6860 C   0  0  0  0  0  0  0  0  0  0  0  0
  160.5170  209.1070  153.2900 C   0  0  0  0  0  0  0  0  0  0  0  0
  160.5610  212.8870  148.6270 N   0  0  0  0  0  0  0  0  0  0  0  0
  158.8440  212.5640  153.2440 O   0  0  0  0  0  0  0  0  0  0  0  0
  161.6620  207.2900  152.1490 C   0  0  0  0  0  0  0  0  0  0  0  0
  160.2050  210.4290  152.9540 C   0  0  0  0  0  0  0  0  0  0  0  0
  159.0230  214.3040  149.9150 C   0  0  0  0  0  0  0  0  0  0  0  0
  161.1700  208.5780  152.2170 C   0  0  0  0  0  0  0  0  0  0  0  0
  159.3950  211.3990  153.8160 C   0  0  0  0  0  0  0  0  0  0  0  0
  161.4930  206.4770  153.2770 C   0  0  0  0  0  3  0  0  0  0  0  0
  160.1380  214.2580  148.9110 C   0  0  0  0  0  2  0  0  0  0  0  0
  161.2880  209.5160  151.2610 C   0  0  0  0  0  0  0  0  0  0  0  0
  160.8260  207.3120  149.0680 C   0  0  0  0  0  1  0  0  0  0  0  0
  159.8270  208.8240  155.6950 C   0  0  0  0  0  3  0  0  0  0  0  0
  160.8390  206.9990  154.4160 C   0  0  0  0  0  3  0  0  0  0  0  0
  162.0810  209.2650  150.0080 C   0  0  0  0  0  2  0  0  0  0  0  0
  159.3040  214.1680  151.3830 C   0  0  1  0  0  3  0  0  0  0  0  0
  158.9220  212.7950  151.8660 C   0  0  1  0  0  3  0  0  0  0  0  0
  160.3520  208.3270  154.4370 C   0  0  0  0  0  0  0  0  0  0  0  0
  160.7230  210.6720  151.6800 N   0  0  0  0  0  0  0  0  0  0  0  0
  162.4460  206.8710  150.9310 C   0  0  0  0  0  2  0  0  0  0  0  0
  159.1180  211.2290  155.1370 C   0  0  0  0  0  0  0  0  0  0  0  0
  163.2380  207.5250  148.6650 C   0  0  0  0  0  1  0  0  0  0  0  0
  160.3860  213.1250  151.6840 C   0  0  1  0  0  3  0  0  0  0  0  0
  157.8740  214.4490  149.5290 O   0  0  0  0  0  0  0  0  0  0  0  0
  160.8360  211.9150  150.8830 C   0  0  2  0  0  3  0  0  0  0  0  0
  159.3410  210.0260  155.9670 C   0  0  0  0  0  3  0  0  0  0  0  0
  161.8960  211.5320  147.2610 O   0  0  0  0  0  0  0  0  0  0  0  0
  161.4560  212.6810  147.5340 C   0  0  0  0  0  3  0  0  0  0  0  0
  159.2100  213.4120  156.3740 C   0  0  0  0  0  3  0  0  0  0  0  0
  158.4610  212.3290  155.8910 C   0  0  0  0  0  0  0  0  0  0  0  0
  157.0740  212.3310  156.1000 C   0  0  0  0  0  3  0  0  0  0  0  0
  154.7430  213.3820  157.0620 Cl  0  0  0  0  0  0  0  0  0  0  0  0
  157.2600  214.4340  157.2610 C   0  0  0  0  0  3  0  0  0  0  0  0
  156.4710  213.3820  156.7900 C   0  0  0  0  0  0  0  0  0  0  0  0
  158.6010  214.4270  157.0430 N   0  0  0  0  0  0  0  0  0  0  0  0
  1 27  1  0  0  0  0
  2 17  1  0  0  0  0
  2 22  1  0  0  0  0
  3 20  1  0  0  0  0
  4 12  1  0  0  0  0
  4  1  1  0  0  0  0
  5 10  1  0  0  0  0
  6  9  1  0  0  0  0
  6 11  2  0  0  0  0
  7  3  2  0  0  0  0
  7 10  1  0  0  0  0
  9  3  1  0  0  0  0
 10 23  2  0  0  0  0
 11 16  1  0  0  0  0
 12  8  1  0  0  0  0
 13 21  1  0  0  0  0
 13  9  2  0  0  0  0
 14  2  1  0  0  0  0
 15 28  2  0  0  0  0
 16 20  2  0  0  0  0
 17 13  1  0  0  0  0
 18  8  1  6  0  0  0
 18 25  1  0  0  0  0
 18 19  1  0  0  0  0
 19  5  1  1  0  0  0
 20 15  1  0  0  0  0
 21  7  1  0  0  0  0
 22  6  1  0  0  0  0
 23 32  1  0  0  0  0
 23 28  1  0  0  0  0
 24  2  1  0  0  0  0
 25 19  1  0  0  0  0
 26  8  2  0  0  0  0
 27 21  1  0  0  0  0
 27 25  1  0  0  0  0
 29 30  2  0  0  0  0
 30  4  1  0  0  0  0
 31 37  1  0  0  0  0
 32 33  1  0  0  0  0
 32 31  2  0  0  0  0
 33 36  2  0  0  0  0
 36 34  1  0  0  0  0
 36 35  1  0  0  0  0
 37 35  2  0  0  0  0
M  END
>  <MODEL>
1

>  <REMARK>
 VINA RESULT:      -4.9      0.000      0.000
  Name = 
  1 active torsions:
  status: ('A' for Active; 'I' for Inactive)
    1  A    between atoms: C_23  and  C_30
                            x       y       z     vdW  Elec       q    Type
                         _______ _______ _______ _____ _____    ______ ____

>  <TORSDO>
F 1

$$$$
=
 OpenBabel11122413433D

 37 44  0  0  1  0  0  0  0  0999 V2000
  160.8690  204.5820  147.8890 C   0  0  0  0  0  2  0  0  0  0  0  0
  160.8260  203.5090  152.2220 C   0  0  0  0  0  0  0  0  0  0  0  0
  161.3830  207.5710  151.4070 C   0  0  0  0  0  0  0  0  0  0  0  0
  161.3330  203.7570  146.7730 N   0  0  0  0  0  0  0  0  0  0  0  0
  161.4670  208.6020  147.7070 O   0  0  0  0  0  0  0  0  0  0  0  0
  161.1320  205.8740  153.1300 C   0  0  0  0  0  0  0  0  0  0  0  0
  161.5690  207.5370  150.0200 C   0  0  0  0  0  0  0  0  0  0  0  0
  161.1410  205.7210  145.3120 C   0  0  0  0  0  0  0  0  0  0  0  0
  161.3030  206.2750  151.8200 C   0  0  0  0  0  0  0  0  0  0  0  0
  161.6310  208.7560  149.0990 C   0  0  0  0  0  0  0  0  0  0  0  0
  161.0580  206.8760  154.1050 C   0  0  0  0  0  3  0  0  0  0  0  0
  161.6760  204.3280  145.4710 C   0  0  0  0  0  2  0  0  0  0  0  0
  161.4530  205.4600  150.7610 C   0  0  0  0  0  0  0  0  0  0  0  0
  159.3240  203.5020  151.9920 C   0  0  0  0  0  1  0  0  0  0  0  0
  161.5730  209.9940  152.0680 C   0  0  0  0  0  3  0  0  0  0  0  0
  161.1580  208.2310  153.7150 C   0  0  0  0  0  3  0  0  0  0  0  0
  161.5420  203.9680  150.9260 C   0  0  0  0  0  2  0  0  0  0  0  0
  161.8520  206.8920  145.9260 C   0  0  1  0  0  3  0  0  0  0  0  0
  161.1260  207.3610  147.1570 C   0  0  1  0  0  3  0  0  0  0  0  0
  161.3320  208.5920  152.3580 C   0  0  0  0  0  0  0  0  0  0  0  0
  161.6350  206.1940  149.6400 N   0  0  0  0  0  0  0  0  0  0  0  0
  161.1550  204.4010  153.4510 C   0  0  0  0  0  2  0  0  0  0  0  0
  161.8130  210.0400  149.5110 C   0  0  0  0  0  0  0  0  0  0  0  0
  161.2600  202.0920  152.5290 C   0  0  0  0  0  1  0  0  0  0  0  0
  162.4100  206.5800  147.3190 C   0  0  1  0  0  3  0  0  0  0  0  0
  160.1140  205.9020  144.6790 O   0  0  0  0  0  0  0  0  0  0  0  0
  161.9700  205.5520  148.3480 C   0  0  2  0  0  3  0  0  0  0  0  0
  161.7850  210.5660  150.8920 C   0  0  0  0  0  3  0  0  0  0  0  0
  161.3560  201.8180  148.0860 O   0  0  0  0  0  0  0  0  0  0  0  0
  161.5840  202.3650  146.9740 C   0  0  0  0  0  3  0  0  0  0  0  0
  163.2960  211.6340  148.2620 C   0  0  0  0  0  3  0  0  0  0  0  0
  162.0180  211.1080  148.4970 C   0  0  0  0  0  0  0  0  0  0  0  0
  160.9480  211.5820  147.7250 C   0  0  0  0  0  3  0  0  0  0  0  0
  159.8270  213.1720  145.8050 Cl  0  0  0  0  0  0  0  0  0  0  0  0
  162.4500  213.0700  146.5710 C   0  0  0  0  0  3  0  0  0  0  0  0
  161.1620  212.5690  146.7620 C   0  0  0  0  0  0  0  0  0  0  0  0
  163.4820  212.5950  147.3170 N   0  0  0  0  0  0  0  0  0  0  0  0
  1 27  1  0  0  0  0
  2 24  1  0  0  0  0
  2 22  1  0  0  0  0
  3  9  1  0  0  0  0
  3 20  1  0  0  0  0
  4 30  1  0  0  0  0
  4  1  1  0  0  0  0
  5 10  1  0  0  0  0
  6 22  1  0  0  0  0
  6 11  2  0  0  0  0
  7  3  2  0  0  0  0
  8 12  1  0  0  0  0
  9  6  1  0  0  0  0
 10 23  2  0  0  0  0
 10  7  1  0  0  0  0
 12  4  1  0  0  0  0
 13 17  1  0  0  0  0
 13  9  2  0  0  0  0
 14  2  1  0  0  0  0
 15 20  1  0  0  0  0
 16 11  1  0  0  0  0
 17  2  1  0  0  0  0
 18  8  1  1  0  0  0
 18 19  1  0  0  0  0
 18 25  1  0  0  0  0
 19 25  1  0  0  0  0
 19  5  1  6  0  0  0
 20 16  2  0  0  0  0
 21  7  1  0  0  0  0
 21 13  1  0  0  0  0
 23 28  1  0  0  0  0
 25 27  1  0  0  0  0
 26  8  2  0  0  0  0
 27 21  1  0  0  0  0
 28 15  2  0  0  0  0
 30 29  2  0  0  0  0
 31 32  1  0  0  0  0
 32 23  1  0  0  0  0
 33 32  2  0  0  0  0
 34 36  1  0  0  0  0
 35 36  2  0  0  0  0
 35 37  1  0  0  0  0
 36 33  1  0  0  0  0
 37 31  2  0  0  0  0
M  END
>  <MODEL>
2

>  <REMARK>
 VINA RESULT:      -4.7      4.598      7.540
  Name = 
  1 active torsions:
  status: ('A' for Active; 'I' for Inactive)
    1  A    between atoms: C_23  and  C_30
                            x       y       z     vdW  Elec       q    Type
                         _______ _______ _______ _____ _____    ______ ____

>  <TORSDO>
F 1

$$$$
=
 OpenBabel11122413433D

 37 44  0  0  1  0  0  0  0  0999 V2000
  160.9650  207.7650  152.0080 C   0  0  0  0  0  2  0  0  0  0  0  0
  159.6370  209.9890  155.6440 C   0  0  0  0  0  0  0  0  0  0  0  0
  160.0810  212.3210  152.2030 C   0  0  0  0  0  0  0  0  0  0  0  0
  161.8270  206.5840  151.9540 N   0  0  0  0  0  0  0  0  0  0  0  0
  161.2490  210.5120  149.0220 O   0  0  0  0  0  0  0  0  0  0  0  0
  159.4390  212.2850  154.5480 C   0  0  0  0  0  0  0  0  0  0  0  0
  160.7000  211.4050  151.3440 C   0  0  0  0  0  0  0  0  0  0  0  0
  161.9450  206.8500  149.5150 C   0  0  0  0  0  0  0  0  0  0  0  0
  159.9830  211.7100  153.4170 C   0  0  0  0  0  0  0  0  0  0  0  0
  160.9490  211.6140  149.8500 C   0  0  0  0  0  0  0  0  0  0  0  0
  158.9740  213.6020  154.4400 C   0  0  0  0  0  3  0  0  0  0  0  0
  162.5170  206.1780  150.7300 C   0  0  0  0  0  2  0  0  0  0  0  0
  160.5290  210.4840  153.3440 C   0  0  0  0  0  0  0  0  0  0  0  0
  158.2920  209.3930  155.2640 C   0  0  0  0  0  1  0  0  0  0  0  0
  159.8460  214.4530  150.8830 C   0  0  0  0  0  3  0  0  0  0  0  0
  159.0790  214.2740  153.2010 C   0  0  0  0  0  3  0  0  0  0  0  0
  160.6870  209.6200  154.5640 C   0  0  0  0  0  2  0  0  0  0  0  0
  162.3230  208.2610  149.1690 C   0  0  1  0  0  3  0  0  0  0  0  0
  161.2060  209.2060  149.5200 C   0  0  1  0  0  3  0  0  0  0  0  0
  159.6450  213.6410  152.0690 C   0  0  0  0  0  0  0  0  0  0  0  0
  160.9960  210.2640  152.0930 N   0  0  0  0  0  0  0  0  0  0  0  0
  159.4820  211.5220  155.8480 C   0  0  0  0  0  2  0  0  0  0  0  0
  160.8820  212.8090  149.2040 C   0  0  0  0  0  0  0  0  0  0  0  0
  160.0680  209.3740  156.9570 C   0  0  0  0  0  1  0  0  0  0  0  0
  162.4330  209.1640  150.4020 C   0  0  1  0  0  3  0  0  0  0  0  0
  161.1610  206.2420  148.8060 O   0  0  0  0  0  0  0  0  0  0  0  0
  161.7770  209.0480  151.7680 C   0  0  2  0  0  3  0  0  0  0  0  0
  160.3730  214.0960  149.7210 C   0  0  0  0  0  3  0  0  0  0  0  0
  161.5940  206.1850  154.2500 O   0  0  0  0  0  0  0  0  0  0  0  0
  162.1170  205.8600  153.1510 C   0  0  0  0  0  3  0  0  0  0  0  0
  162.6290  213.2280  147.4500 C   0  0  0  0  0  3  0  0  0  0  0  0
  161.3080  212.8930  147.7820 C   0  0  0  0  0  0  0  0  0  0  0  0
  160.4130  212.5980  146.7430 C   0  0  0  0  0  3  0  0  0  0  0  0
  159.7180  212.3050  144.1170 Cl  0  0  0  0  0  0  0  0  0  0  0  0
  162.1570  213.0100  145.1340 C   0  0  0  0  0  3  0  0  0  0  0  0
  160.8350  212.6610  145.4160 C   0  0  0  0  0  0  0  0  0  0  0  0
  163.0190  213.2820  146.1480 N   0  0  0  0  0  0  0  0  0  0  0  0
  2 22  1  0  0  0  0
  2 24  1  0  0  0  0
  3  9  1  0  0  0  0
  4  1  1  0  0  0  0
  4 30  1  0  0  0  0
  5 10  1  0  0  0  0
  6 22  1  0  0  0  0
  7 21  1  0  0  0  0
  7  3  2  0  0  0  0
  8 12  1  0  0  0  0
  9  6  1  0  0  0  0
 10  7  1  0  0  0  0
 11  6  2  0  0  0  0
 12  4  1  0  0  0  0
 13  9  2  0  0  0  0
 13 17  1  0  0  0  0
 14  2  1  0  0  0  0
 15 20  1  0  0  0  0
 16 11  1  0  0  0  0
 17  2  1  0  0  0  0
 18  8  1  1  0  0  0
 18 19  1  0  0  0  0
 18 25  1  0  0  0  0
 19  5  1  6  0  0  0
 19 25  1  0  0  0  0
 20  3  1  0  0  0  0
 20 16  2  0  0  0  0
 21 13  1  0  0  0  0
 23 28  1  0  0  0  0
 23 10  2  0  0  0  0
 25 27  1  0  0  0  0
 26  8  2  0  0  0  0
 27  1  1  0  0  0  0
 27 21  1  0  0  0  0
 28 15  2  0  0  0  0
 30 29  2  0  0  0  0
 31 32  1  0  0  0  0
 32 23  1  0  0  0  0
 33 32  2  0  0  0  0
 34 36  1  0  0  0  0
 35 36  2  0  0  0  0
 35 37  1  0  0  0  0
 36 33  1  0  0  0  0
 37 31  2  0  0  0  0
M  END
>  <MODEL>
3

>  <REMARK>
 VINA RESULT:      -3.9      3.181      7.616
  Name = 
  1 active torsions:
  status: ('A' for Active; 'I' for Inactive)
    1  A    between atoms: C_23  and  C_30
                            x       y       z     vdW  Elec       q    Type
                         _______ _______ _______ _____ _____    ______ ____

>  <TORSDO>
F 1

$$$$
=
 OpenBabel11122413433D

 37 44  0  0  1  0  0  0  0  0999 V2000
  161.4430  207.5960  153.8740 C   0  0  0  0  0  2  0  0  0  0  0  0
  160.9010  203.5860  151.9880 C   0  0  0  0  0  0  0  0  0  0  0  0
  161.5010  206.7390  149.3090 C   0  0  0  0  0  0  0  0  0  0  0  0
  160.8530  208.0780  155.1240 N   0  0  0  0  0  0  0  0  0  0  0  0
  161.9490  210.2400  150.8240 O   0  0  0  0  0  0  0  0  0  0  0  0
  161.1720  204.3430  149.5660 C   0  0  0  0  0  0  0  0  0  0  0  0
  161.4090  207.8360  150.1720 C   0  0  0  0  0  0  0  0  0  0  0  0
  161.6610  210.3310  154.5720 C   0  0  0  0  0  0  0  0  0  0  0  0
  161.2050  205.6350  150.0520 C   0  0  0  0  0  0  0  0  0  0  0  0
  161.7360  209.2850  149.8080 C   0  0  0  0  0  0  0  0  0  0  0  0
  161.4430  204.1600  148.2050 C   0  0  0  0  0  3  0  0  0  0  0  0
  160.7650  209.5020  155.4460 C   0  0  0  0  0  2  0  0  0  0  0  0
  160.9170  206.0100  151.3100 C   0  0  0  0  0  0  0  0  0  0  0  0
  162.3580  203.4320  152.3870 C   0  0  0  0  0  1  0  0  0  0  0  0
  161.9170  207.6960  147.0170 C   0  0  0  0  0  3  0  0  0  0  0  0
  161.7340  205.2850  147.4000 C   0  0  0  0  0  3  0  0  0  0  0  0
  160.4230  205.0210  152.3300 C   0  0  0  0  0  2  0  0  0  0  0  0
  161.2460  210.7000  153.1770 C   0  0  1  0  0  3  0  0  0  0  0  0
  161.9850  209.8610  152.1700 C   0  0  1  0  0  3  0  0  0  0  0  0
  161.7560  206.5900  147.9440 C   0  0  0  0  0  0  0  0  0  0  0  0
  161.0140  207.3540  151.4220 N   0  0  0  0  0  0  0  0  0  0  0  0
  160.7370  203.2290  150.4850 C   0  0  0  0  0  2  0  0  0  0  0  0
  161.8740  209.7620  148.5420 C   0  0  0  0  0  0  0  0  0  0  0  0
  160.0850  202.6060  152.8040 C   0  0  0  0  0  1  0  0  0  0  0  0
  160.5310  209.5550  152.4510 C   0  0  1  0  0  3  0  0  0  0  0  0
  162.7400  210.7040  155.0010 O   0  0  0  0  0  0  0  0  0  0  0  0
  160.6100  208.0530  152.6650 C   0  0  2  0  0  3  0  0  0  0  0  0
  161.9460  208.9940  147.2810 C   0  0  0  0  0  3  0  0  0  0  0  0
  160.2250  205.9190  155.7770 O   0  0  0  0  0  0  0  0  0  0  0  0
  160.2280  207.1550  156.0170 C   0  0  0  0  0  3  0  0  0  0  0  0
  163.3070  211.8050  148.2640 C   0  0  0  0  0  3  0  0  0  0  0  0
  162.0320  211.2250  148.3280 C   0  0  0  0  0  0  0  0  0  0  0  0
  160.9140  212.0510  148.1430 C   0  0  0  0  0  3  0  0  0  0  0  0
  159.6870  214.4530  147.7030 Cl  0  0  0  0  0  0  0  0  0  0  0  0
  162.3700  213.9510  147.8760 C   0  0  0  0  0  3  0  0  0  0  0  0
  161.0810  213.4180  147.9220 C   0  0  0  0  0  0  0  0  0  0  0  0
  163.4470  213.1400  148.0450 N   0  0  0  0  0  0  0  0  0  0  0  0
  1  4  1  0  0  0  0
  2 17  1  0  0  0  0
  2 14  1  0  0  0  0
  2 24  1  0  0  0  0
  3  9  1  0  0  0  0
  3  7  2  0  0  0  0
  4 12  1  0  0  0  0
  4 30  1  0  0  0  0
  6  9  1  0  0  0  0
  6 22  1  0  0  0  0
  7 21  1  0  0  0  0
  8 26  2  0  0  0  0
  8 12  1  0  0  0  0
  9 13  2  0  0  0  0
 10  7  1  0  0  0  0
 10  5  1  0  0  0  0
 11  6  2  0  0  0  0
 13 21  1  0  0  0  0
 13 17  1  0  0  0  0
 15 28  2  0  0  0  0
 15 20  1  0  0  0  0
 16 20  2  0  0  0  0
 16 11  1  0  0  0  0
 18  8  1  1  0  0  0
 19  5  1  6  0  0  0
 19 25  1  0  0  0  0
 19 18  1  0  0  0  0
 20  3  1  0  0  0  0
 21 27  1  0  0  0  0
 22  2  1  0  0  0  0
 23 10  2  0  0  0  0
 25 27  1  0  0  0  0
 25 18  1  0  0  0  0
 27  1  1  0  0  0  0
 28 23  1  0  0  0  0
 29 30  2  0  0  0  0
 31 32  1  0  0  0  0
 32 23  1  0  0  0  0
 33 32  2  0  0  0  0
 34 36  1  0  0  0  0
 35 36  2  0  0  0  0
 35 37  1  0  0  0  0
 36 33  1  0  0  0  0
 37 31  2  0  0  0  0
M  END
>  <MODEL>
4

>  <REMARK>
 VINA RESULT:      -3.6      3.577      7.093
  Name = 
  1 active torsions:
  status: ('A' for Active; 'I' for Inactive)
    1  A    between atoms: C_23  and  C_30
                            x       y       z     vdW  Elec       q    Type
                         _______ _______ _______ _____ _____    ______ ____

>  <TORSDO>
F 1

$$$$
=
 OpenBabel11122413433D

 37 44  0  0  1  0  0  0  0  0999 V2000
  160.8760  206.4890  151.4420 C   0  0  0  0  0  2  0  0  0  0  0  0
  160.0270  207.8910  155.5940 C   0  0  0  0  0  0  0  0  0  0  0  0
  160.4450  210.9250  152.7490 C   0  0  0  0  0  0  0  0  0  0  0  0
  161.6160  205.2920  151.0420 N   0  0  0  0  0  0  0  0  0  0  0  0
  161.2060  209.8310  149.1470 O   0  0  0  0  0  0  0  0  0  0  0  0
  159.9710  210.3890  155.0740 C   0  0  0  0  0  0  0  0  0  0  0  0
  160.9110  210.1920  151.6520 C   0  0  0  0  0  0  0  0  0  0  0  0
  161.5850  206.1130  148.7280 C   0  0  0  0  0  0  0  0  0  0  0  0
  160.3750  210.0550  153.7960 C   0  0  0  0  0  0  0  0  0  0  0  0
  161.0720  210.7260  150.2280 C   0  0  0  0  0  0  0  0  0  0  0  0
  159.6270  211.7250  155.3110 C   0  0  0  0  0  3  0  0  0  0  0  0
  162.1750  205.1330  149.7000 C   0  0  0  0  0  2  0  0  0  0  0  0
  160.7970  208.8430  153.3960 C   0  0  0  0  0  0  0  0  0  0  0  0
  158.6090  207.5050  155.2130 C   0  0  0  0  0  1  0  0  0  0  0  0
  160.3200  213.3190  151.9770 C   0  0  0  0  0  3  0  0  0  0  0  0
  159.7060  212.6590  154.2530 C   0  0  0  0  0  3  0  0  0  0  0  0
  160.9580  207.7070  154.3680 C   0  0  0  0  0  2  0  0  0  0  0  0
  162.0700  207.5330  148.6780 C   0  0  1  0  0  3  0  0  0  0  0  0
  161.0750  208.4510  149.3360 C   0  0  1  0  0  3  0  0  0  0  0  0
  160.1270  212.2690  152.9600 C   0  0  0  0  0  0  0  0  0  0  0  0
  161.1500  208.8880  152.0910 N   0  0  0  0  0  0  0  0  0  0  0  0
  160.0330  209.3400  156.1560 C   0  0  0  0  0  2  0  0  0  0  0  0
  161.0730  212.0420  149.8800 C   0  0  0  0  0  0  0  0  0  0  0  0
  160.4910  206.9530  156.6880 C   0  0  0  0  0  1  0  0  0  0  0  0
  162.3520  208.1100  150.0700 C   0  0  1  0  0  3  0  0  0  0  0  0
  160.6980  205.7500  147.9730 O   0  0  0  0  0  0  0  0  0  0  0  0
  161.7870  207.7270  151.4270 C   0  0  2  0  0  3  0  0  0  0  0  0
  160.7260  213.2060  150.7210 C   0  0  0  0  0  3  0  0  0  0  0  0
  161.5110  204.3840  153.1980 O   0  0  0  0  0  0  0  0  0  0  0  0
  161.9210  204.2870  152.0110 C   0  0  0  0  0  3  0  0  0  0  0  0
  162.7340  212.6250  148.0910 C   0  0  0  0  0  3  0  0  0  0  0  0
  161.4020  212.4250  148.4820 C   0  0  0  0  0  0  0  0  0  0  0  0
  160.3960  212.5530  147.5140 C   0  0  0  0  0  3  0  0  0  0  0  0
  159.4700  213.0640  144.9950 Cl  0  0  0  0  0  0  0  0  0  0  0  0
  162.0640  213.0910  145.8620 C   0  0  0  0  0  3  0  0  0  0  0  0
  160.7250  212.8920  146.2020 C   0  0  0  0  0  0  0  0  0  0  0  0
  163.0320  212.9530  146.8050 N   0  0  0  0  0  0  0  0  0  0  0  0
  2 22  1  0  0  0  0
  2 24  1  0  0  0  0
  3 20  1  0  0  0  0
  3  9  1  0  0  0  0
  4  1  1  0  0  0  0
  4 30  1  0  0  0  0
  5 10  1  0  0  0  0
  6 11  2  0  0  0  0
  6 22  1  0  0  0  0
  7 21  1  0  0  0  0
  7  3  2  0  0  0  0
  8 12  1  0  0  0  0
  9  6  1  0  0  0  0
 10  7  1  0  0  0  0
 12  4  1  0  0  0  0
 13  9  2  0  0  0  0
 13 17  1  0  0  0  0
 14  2  1  0  0  0  0
 15 20  1  0  0  0  0
 16 11  1  0  0  0  0
 17  2  1  0  0  0  0
 18  8  1  1  0  0  0
 18 19  1  0  0  0  0
 18 25  1  0  0  0  0
 19  5  1  6  0  0  0
 19 25  1  0  0  0  0
 20 16  2  0  0  0  0
 21 13  1  0  0  0  0
 23 10  2  0  0  0  0
 23 28  1  0  0  0  0
 25 27  1  0  0  0  0
 26  8  2  0  0  0  0
 27  1  1  0  0  0  0
 27 21  1  0  0  0  0
 28 15  2  0  0  0  0
 30 29  2  0  0  0  0
 31 32  1  0  0  0  0
 32 23  1  0  0  0  0
 33 32  2  0  0  0  0
 34 36  1  0  0  0  0
 35 36  2  0  0  0  0
 35 37  1  0  0  0  0
 36 33  1  0  0  0  0
 37 31  2  0  0  0  0
M  END
>  <MODEL>
5

>  <REMARK>
 VINA RESULT:      -3.1      3.256      7.292
  Name = 
  1 active torsions:
  status: ('A' for Active; 'I' for Inactive)
    1  A    between atoms: C_23  and  C_30
                            x       y       z     vdW  Elec       q    Type
                         _______ _______ _______ _____ _____    ______ ____

>  <TORSDO>
F 1

$$$$
=
 OpenBabel11122413433D

 37 44  0  0  1  0  0  0  0  0999 V2000
  161.5810  211.8330  150.8170 C   0  0  0  0  0  2  0  0  0  0  0  0
  160.4610  210.8150  155.0160 C   0  0  0  0  0  0  0  0  0  0  0  0
  160.9960  207.5350  152.4800 C   0  0  0  0  0  0  0  0  0  0  0  0
  161.1960  213.0230  150.0570 N   0  0  0  0  0  0  0  0  0  0  0  0
  161.9330  208.2990  148.8340 O   0  0  0  0  0  0  0  0  0  0  0  0
  160.4940  208.2780  154.7400 C   0  0  0  0  0  0  0  0  0  0  0  0
  161.1080  208.1780  151.2420 C   0  0  0  0  0  0  0  0  0  0  0  0
  162.1220  211.9700  148.0420 C   0  0  0  0  0  0  0  0  0  0  0  0
  160.7000  208.5020  153.3940 C   0  0  0  0  0  0  0  0  0  0  0  0
  161.5130  207.5120  149.9260 C   0  0  0  0  0  0  0  0  0  0  0  0
  160.5770  206.9550  155.1920 C   0  0  0  0  0  3  0  0  0  0  0  0
  161.2730  213.0760  148.5980 C   0  0  0  0  0  2  0  0  0  0  0  0
  160.6040  209.6890  152.7700 C   0  0  0  0  0  0  0  0  0  0  0  0
  161.9380  211.0780  155.2550 C   0  0  0  0  0  1  0  0  0  0  0  0
  161.2070  205.0720  152.0000 C   0  0  0  0  0  3  0  0  0  0  0  0
  160.8630  205.9240  154.2690 C   0  0  0  0  0  3  0  0  0  0  0  0
  160.1570  210.9250  153.5000 C   0  0  0  0  0  2  0  0  0  0  0  0
  161.5710  210.5820  147.8860 C   0  0  1  0  0  3  0  0  0  0  0  0
  162.1030  209.6810  148.9670 C   0  0  1  0  0  3  0  0  0  0  0  0
  161.0660  206.2040  152.8970 C   0  0  0  0  0  0  0  0  0  0  0  0
  160.8320  209.5320  151.4460 N   0  0  0  0  0  0  0  0  0  0  0  0
  160.0810  209.4330  155.6170 C   0  0  0  0  0  2  0  0  0  0  0  0
  161.5340  206.1700  149.7010 C   0  0  0  0  0  0  0  0  0  0  0  0
  159.6710  211.8840  155.7400 C   0  0  0  0  0  1  0  0  0  0  0  0
  160.6740  210.1670  149.0570 C   0  0  1  0  0  3  0  0  0  0  0  0
  163.2750  212.2030  147.7170 O   0  0  0  0  0  0  0  0  0  0  0  0
  160.6480  210.6540  150.4970 C   0  0  2  0  0  3  0  0  0  0  0  0
  161.3810  205.0790  150.6860 C   0  0  0  0  0  3  0  0  0  0  0  0
  160.4680  214.1390  151.9840 O   0  0  0  0  0  0  0  0  0  0  0  0
  160.6080  214.1370  150.7320 C   0  0  0  0  0  3  0  0  0  0  0  0
  162.4530  206.4660  147.3840 C   0  0  0  0  0  3  0  0  0  0  0  0
  161.7900  205.6660  148.3270 C   0  0  0  0  0  0  0  0  0  0  0  0
  161.4150  204.3680  147.9530 C   0  0  0  0  0  3  0  0  0  0  0  0
  161.2060  202.2870  146.1940 Cl  0  0  0  0  0  0  0  0  0  0  0  0
  162.3370  204.7400  145.7590 C   0  0  0  0  0  3  0  0  0  0  0  0
  161.6840  203.9030  146.6660 C   0  0  0  0  0  0  0  0  0  0  0  0
  162.7060  205.9920  146.1350 N   0  0  0  0  0  0  0  0  0  0  0  0
  2 14  1  0  0  0  0
  2 22  1  0  0  0  0
  2 24  1  0  0  0  0
  3 20  1  0  0  0  0
  3  9  1  0  0  0  0
  4 30  1  0  0  0  0
  4  1  1  0  0  0  0
  5 10  1  0  0  0  0
  6 11  2  0  0  0  0
  6 22  1  0  0  0  0
  7 21  1  0  0  0  0
  7  3  2  0  0  0  0
  8 12  1  0  0  0  0
  9  6  1  0  0  0  0
 10  7  1  0  0  0  0
 12  4  1  0  0  0  0
 13  9  2  0  0  0  0
 13 17  1  0  0  0  0
 15 20  1  0  0  0  0
 16 11  1  0  0  0  0
 17  2  1  0  0  0  0
 18  8  1  1  0  0  0
 18 19  1  0  0  0  0
 18 25  1  0  0  0  0
 19  5  1  6  0  0  0
 19 25  1  0  0  0  0
 20 16  2  0  0  0  0
 21 13  1  0  0  0  0
 23 10  2  0  0  0  0
 23 28  1  0  0  0  0
 25 27  1  0  0  0  0
 26  8  2  0  0  0  0
 27  1  1  0  0  0  0
 27 21  1  0  0  0  0
 28 15  2  0  0  0  0
 30 29  2  0  0  0  0
 31 32  1  0  0  0  0
 32 23  1  0  0  0  0
 33 32  2  0  0  0  0
 34 36  1  0  0  0  0
 35 37  1  0  0  0  0
 35 36  2  0  0  0  0
 36 33  1  0  0  0  0
 37 31  2  0  0  0  0
M  END
>  <MODEL>
6

>  <REMARK>
 VINA RESULT:      -2.6      3.534      7.436
  Name = 
  1 active torsions:
  status: ('A' for Active; 'I' for Inactive)
    1  A    between atoms: C_23  and  C_30
                            x       y       z     vdW  Elec       q    Type
                         _______ _______ _______ _____ _____    ______ ____

>  <TORSDO>
F 1

$$$$
