=
 OpenBabel11122414403D

 34 40  0  0  1  0  0  0  0  0999 V2000
  160.9790  208.6760  153.9620 C   0  0  1  0  0  3  0  0  0  0  0  0
  162.0630  206.6150  153.3760 C   0  0  0  0  0  2  0  0  0  0  0  0
  157.5290  213.7470  152.2440 C   0  0  0  0  0  0  0  0  0  0  0  0
  159.7840  210.8050  154.5090 C   0  0  2  0  0  3  0  0  0  0  0  0
  159.7770  212.6370  152.7580 C   0  0  2  0  0  3  0  0  0  0  0  0
  159.5440  214.2520  150.7550 C   0  0  0  0  0  1  0  0  0  0  0  0
  156.6850  213.4350  151.0500 C   0  0  0  0  0  1  0  0  0  0  0  0
  157.7110  214.1400  154.6080 C   0  0  0  0  0  2  0  0  0  0  0  0
  162.0730  208.3750  151.9050 C   0  0  2  0  0  3  0  0  0  0  0  0
  161.6410  208.2410  148.7230 C   0  0  0  0  0  2  0  0  0  0  0  0
  160.0760  211.5440  151.7310 C   0  0  0  0  0  2  0  0  0  0  0  0
  158.6290  212.9840  155.0460 C   0  0  0  0  0  2  0  0  0  0  0  0
  161.3300  209.5720  151.2720 C   0  0  1  0  0  3  0  0  0  0  0  0
  162.8100  205.7940  151.9300 S   0  0  0  0  0  0  0  0  0  0  0  0
  159.0100  211.9940  153.9360 C   0  0  2  0  0  3  0  0  0  0  0  0
  156.9620  213.8510  153.3980 N   0  0  0  0  0  0  0  0  0  0  0  0
  161.6890  207.0620  149.7110 C   0  0  1  0  0  3  0  0  0  0  0  0
  160.1770  209.8440  153.3700 C   0  0  1  0  0  3  0  0  0  0  0  0
  159.0350  213.8380  152.1330 C   0  0  1  0  0  3  0  0  0  0  0  0
  160.9540  210.5340  152.3250 N   0  0  2  0  0  0  0  0  0  0  0  0
  159.7920  209.1690  156.0840 C   0  0  0  0  0  2  0  0  0  0  0  0
  162.6400  209.3580  149.0400 C   0  0  0  0  0  2  0  0  0  0  0  0
  158.9750  210.1180  155.4380 O   0  0  0  0  0  0  0  0  0  0  0  0
  162.1850  210.2650  150.1930 C   0  0  0  0  0  2  0  0  0  0  0  0
  162.5860  207.3060  150.9450 C   0  0  1  0  0  3  0  0  0  0  0  0
  160.1760  208.0560  155.1080 C   0  0  0  0  0  2  0  0  0  0  0  0
  161.2360  207.7120  152.8940 N   0  0  2  0  0  0  0  0  0  0  0  0
  160.3290  206.7090  150.1000 N   0  0  0  0  0  2  0  0  0  0  0  0
  159.9620  205.6450  149.3480 O   0  0  0  0  0  0  0  0  0  0  0  0
  160.2210  202.5380  149.3890 O   0  0  0  0  0  0  0  0  0  0  0  0
  161.3270  204.1770  148.0950 C   0  0  0  0  0  2  0  0  0  0  0  0
  161.0340  204.7570  149.4470 C   0  0  2  0  0  3  0  0  0  0  0  0
  161.0180  202.7060  148.2490 C   0  0  0  0  0  2  0  0  0  0  0  0
  160.6170  203.5580  150.2660 C   0  0  0  0  0  2  0  0  0  0  0  0
  1 26  1  1  0  0  0
  3 16  2  0  0  0  0
  4 23  1  1  0  0  0
  5 11  1  6  0  0  0
  5 15  1  0  0  0  0
  6 19  1  0  0  0  0
  7  3  1  0  0  0  0
  8 12  1  0  0  0  0
  9 27  1  0  0  0  0
 10 22  1  0  0  0  0
 10 17  1  0  0  0  0
 11 20  1  0  0  0  0
 13  9  1  0  0  0  0
 13 20  1  0  0  0  0
 14  2  1  0  0  0  0
 15  4  1  0  0  0  0
 15 12  1  0  0  0  0
 16  8  1  0  0  0  0
 17 28  1  0  0  0  0
 17 25  1  0  0  0  0
 18  1  1  0  0  0  0
 18  4  1  0  0  0  0
 19  3  1  0  0  0  0
 19  5  1  0  0  0  0
 20 18  1  0  0  0  0
 22 24  1  0  0  0  0
 23 21  1  0  0  0  0
 24 13  1  0  0  0  0
 25  9  1  0  0  0  0
 25 14  1  0  0  0  0
 26 21  1  0  0  0  0
 27  2  1  0  0  0  0
 27  1  1  0  0  0  0
 29 32  1  0  0  0  0
 29 28  1  0  0  0  0
 30 34  1  0  0  0  0
 31 33  1  0  0  0  0
 31 32  1  0  0  0  0
 32 34  1  0  0  0  0
 33 30  1  0  0  0  0
M  END
>  <MODEL>
1

>  <REMARK>
 VINA RESULT:      -6.6      0.000      0.000
  Name = 
  3 active torsions:
  status: ('A' for Active; 'I' for Inactive)
    1  A    between atoms: C_17  and  N_28
    2  A    between atoms: N_28  and  O_29
    3  A    between atoms: O_29  and  C_32
                            x       y       z     vdW  Elec       q    Type
                         _______ _______ _______ _____ _____    ______ ____

>  <TORSDO>
F 3

$$$$
=
 OpenBabel11122414403D

 34 40  0  0  1  0  0  0  0  0999 V2000
  160.5200  212.3470  152.9630 C   0  0  1  0  0  3  0  0  0  0  0  0
  159.7520  213.6130  154.8540 C   0  0  0  0  0  2  0  0  0  0  0  0
  161.3210  206.7270  150.0770 C   0  0  0  0  0  0  0  0  0  0  0  0
  161.2510  210.9700  151.0070 C   0  0  2  0  0  3  0  0  0  0  0  0
  162.2160  208.6740  151.4760 C   0  0  2  0  0  3  0  0  0  0  0  0
  162.8290  206.2380  152.0820 C   0  0  0  0  0  1  0  0  0  0  0  0
  160.3110  205.7350  150.5550 C   0  0  0  0  0  1  0  0  0  0  0  0
  162.1250  208.2030  148.3590 C   0  0  0  0  0  2  0  0  0  0  0  0
  160.7260  211.5590  155.1660 C   0  0  2  0  0  3  0  0  0  0  0  0
  159.7870  209.2610  157.2070 C   0  0  0  0  0  2  0  0  0  0  0  0
  161.4920  208.7350  152.8230 C   0  0  0  0  0  2  0  0  0  0  0  0
  162.0430  209.5720  149.0610 C   0  0  0  0  0  2  0  0  0  0  0  0
  160.9270  210.1060  154.6860 C   0  0  1  0  0  3  0  0  0  0  0  0
  159.4590  213.4100  156.6410 S   0  0  0  0  0  0  0  0  0  0  0  0
  161.4340  209.5490  150.4710 C   0  0  2  0  0  3  0  0  0  0  0  0
  161.1940  207.2270  148.8940 N   0  0  0  0  0  0  0  0  0  0  0  0
  159.1730  210.6610  157.0270 C   0  0  1  0  0  3  0  0  0  0  0  0
  160.6660  210.9140  152.4320 C   0  0  1  0  0  3  0  0  0  0  0  0
  162.4220  207.2230  150.9900 C   0  0  1  0  0  3  0  0  0  0  0  0
  161.5100  210.1080  153.3320 N   0  0  2  0  0  0  0  0  0  0  0  0
  160.3930  213.0280  150.5810 C   0  0  0  0  0  2  0  0  0  0  0  0
  161.3150  209.2350  157.1020 C   0  0  0  0  0  2  0  0  0  0  0  0
  160.3670  211.6810  150.1690 O   0  0  0  0  0  0  0  0  0  0  0  0
  161.8210  209.3060  155.6540 C   0  0  0  0  0  2  0  0  0  0  0  0
  160.1810  211.7420  156.5800 C   0  0  1  0  0  3  0  0  0  0  0  0
  159.7240  213.1720  151.9490 C   0  0  0  0  0  2  0  0  0  0  0  0
  159.8500  212.2870  154.2610 N   0  0  2  0  0  0  0  0  0  0  0  0
  158.0420  210.5720  156.1120 N   0  0  0  0  0  2  0  0  0  0  0  0
  156.9820  211.1480  156.7280 O   0  0  0  0  0  0  0  0  0  0  0  0
  155.8400  213.6100  155.1950 O   0  0  0  0  0  0  0  0  0  0  0  0
  156.7360  211.5670  154.4150 C   0  0  0  0  0  2  0  0  0  0  0  0
  156.0350  211.3120  155.7160 C   0  0  2  0  0  3  0  0  0  0  0  0
  156.3310  212.9750  154.0470 C   0  0  0  0  0  2  0  0  0  0  0  0
  155.2600  212.5870  155.9590 C   0  0  0  0  0  2  0  0  0  0  0  0
  1 26  1  6  0  0  0
  1 27  1  0  0  0  0
  2 14  1  0  0  0  0
  3  7  1  0  0  0  0
  3 19  1  0  0  0  0
  4 23  1  6  0  0  0
  4 18  1  0  0  0  0
  5 11  1  1  0  0  0
  8 16  1  0  0  0  0
  8 12  1  0  0  0  0
  9 25  1  0  0  0  0
 11 20  1  0  0  0  0
 12 15  1  0  0  0  0
 13  9  1  0  0  0  0
 13 24  1  0  0  0  0
 15  4  1  0  0  0  0
 15  5  1  0  0  0  0
 16  3  2  0  0  0  0
 17 10  1  0  0  0  0
 18  1  1  0  0  0  0
 18 20  1  0  0  0  0
 19  5  1  0  0  0  0
 19  6  1  0  0  0  0
 20 13  1  0  0  0  0
 21 26  1  0  0  0  0
 22 10  1  0  0  0  0
 23 21  1  0  0  0  0
 24 22  1  0  0  0  0
 25 14  1  0  0  0  0
 25 17  1  0  0  0  0
 27  2  1  0  0  0  0
 27  9  1  0  0  0  0
 28 29  1  0  0  0  0
 28 17  1  0  0  0  0
 30 34  1  0  0  0  0
 31 32  1  0  0  0  0
 32 34  1  0  0  0  0
 32 29  1  0  0  0  0
 33 31  1  0  0  0  0
 33 30  1  0  0  0  0
M  END
>  <MODEL>
2

>  <REMARK>
 VINA RESULT:      -4.5      3.062      7.818
  Name = 
  3 active torsions:
  status: ('A' for Active; 'I' for Inactive)
    1  A    between atoms: C_17  and  N_28
    2  A    between atoms: N_28  and  O_29
    3  A    between atoms: O_29  and  C_32
                            x       y       z     vdW  Elec       q    Type
                         _______ _______ _______ _____ _____    ______ ____

>  <TORSDO>
F 3

$$$$
=
 OpenBabel11122414403D

 34 40  0  0  1  0  0  0  0  0999 V2000
  160.6950  212.3190  151.5710 C   0  0  1  0  0  3  0  0  0  0  0  0
  159.7000  213.9720  152.9990 C   0  0  0  0  0  2  0  0  0  0  0  0
  161.3850  206.2150  149.8850 C   0  0  0  0  0  0  0  0  0  0  0  0
  161.6560  210.5460  150.0880 C   0  0  2  0  0  3  0  0  0  0  0  0
  162.1920  208.3000  151.1310 C   0  0  2  0  0  3  0  0  0  0  0  0
  162.3420  205.9720  152.2430 C   0  0  0  0  0  1  0  0  0  0  0  0
  160.1760  205.4210  150.2600 C   0  0  0  0  0  1  0  0  0  0  0  0
  162.7280  207.2750  148.1970 C   0  0  0  0  0  2  0  0  0  0  0  0
  160.3110  211.9330  153.8560 C   0  0  2  0  0  3  0  0  0  0  0  0
  158.6620  210.1400  155.9510 C   0  0  0  0  0  2  0  0  0  0  0  0
  161.2050  208.6700  152.2400 C   0  0  0  0  0  2  0  0  0  0  0  0
  162.6700  208.7510  148.6330 C   0  0  0  0  0  2  0  0  0  0  0  0
  160.4250  210.4040  153.6730 C   0  0  1  0  0  3  0  0  0  0  0  0
  158.9980  214.1270  154.6740 S   0  0  0  0  0  0  0  0  0  0  0  0
  161.7690  209.0400  149.8430 C   0  0  2  0  0  3  0  0  0  0  0  0
  161.5850  206.4990  148.6430 N   0  0  0  0  0  0  0  0  0  0  0  0
  158.2860  211.5310  155.4110 C   0  0  1  0  0  3  0  0  0  0  0  0
  160.7700  210.8050  151.3230 C   0  0  1  0  0  3  0  0  0  0  0  0
  162.3130  206.7720  150.9440 C   0  0  1  0  0  3  0  0  0  0  0  0
  161.2860  210.1060  152.5140 N   0  0  2  0  0  0  0  0  0  0  0  0
  161.1820  212.5590  149.1490 C   0  0  0  0  0  2  0  0  0  0  0  0
  160.1590  209.9620  156.2190 C   0  0  0  0  0  2  0  0  0  0  0  0
  161.0750  211.1670  148.9620 O   0  0  0  0  0  0  0  0  0  0  0  0
  160.9750  209.7210  154.9400 C   0  0  0  0  0  2  0  0  0  0  0  0
  159.4980  212.4200  155.0510 C   0  0  1  0  0  3  0  0  0  0  0  0
  160.2530  213.0090  150.2790 C   0  0  0  0  0  2  0  0  0  0  0  0
  159.7550  212.5560  152.6640 N   0  0  2  0  0  0  0  0  0  0  0  0
  157.3820  211.3760  154.2790 N   0  0  0  0  0  2  0  0  0  0  0  0
  156.1540  211.7730  154.6900 O   0  0  0  0  0  0  0  0  0  0  0  0
  154.3500  213.9950  153.4530 O   0  0  0  0  0  0  0  0  0  0  0  0
  155.2140  213.7240  155.6360 C   0  0  0  0  0  2  0  0  0  0  0  0
  156.2070  213.1670  154.6600 C   0  0  2  0  0  3  0  0  0  0  0  0
  154.2130  214.4530  154.7700 C   0  0  0  0  0  2  0  0  0  0  0  0
  155.7050  213.6590  153.3220 C   0  0  0  0  0  2  0  0  0  0  0  0
  1 26  1  6  0  0  0
  1 27  1  0  0  0  0
  2 14  1  0  0  0  0
  3  7  1  0  0  0  0
  3 19  1  0  0  0  0
  4 23  1  6  0  0  0
  4 18  1  0  0  0  0
  5 11  1  1  0  0  0
  8 12  1  0  0  0  0
  8 16  1  0  0  0  0
  9 25  1  0  0  0  0
 10 22  1  0  0  0  0
 11 20  1  0  0  0  0
 12 15  1  0  0  0  0
 13  9  1  0  0  0  0
 13 24  1  0  0  0  0
 14 25  1  0  0  0  0
 15  4  1  0  0  0  0
 15  5  1  0  0  0  0
 16  3  2  0  0  0  0
 17 10  1  0  0  0  0
 18  1  1  0  0  0  0
 18 20  1  0  0  0  0
 19  5  1  0  0  0  0
 19  6  1  0  0  0  0
 20 13  1  0  0  0  0
 21 26  1  0  0  0  0
 23 21  1  0  0  0  0
 24 22  1  0  0  0  0
 25 17  1  0  0  0  0
 27  2  1  0  0  0  0
 27  9  1  0  0  0  0
 28 29  1  0  0  0  0
 28 17  1  0  0  0  0
 30 33  1  0  0  0  0
 32 29  1  0  0  0  0
 32 31  1  0  0  0  0
 33 31  1  0  0  0  0
 34 30  1  0  0  0  0
 34 32  1  0  0  0  0
M  END
>  <MODEL>
3

>  <REMARK>
 VINA RESULT:      -4.4      2.923      8.232
  Name = 
  3 active torsions:
  status: ('A' for Active; 'I' for Inactive)
    1  A    between atoms: C_17  and  N_28
    2  A    between atoms: N_28  and  O_29
    3  A    between atoms: O_29  and  C_32
                            x       y       z     vdW  Elec       q    Type
                         _______ _______ _______ _____ _____    ______ ____

>  <TORSDO>
F 3

$$$$
=
 OpenBabel11122414403D

 34 40  0  0  1  0  0  0  0  0999 V2000
  161.5920  210.3020  152.4640 C   0  0  1  0  0  3  0  0  0  0  0  0
  161.1110  211.8240  154.2580 C   0  0  0  0  0  2  0  0  0  0  0  0
  160.7800  204.6090  149.7260 C   0  0  0  0  0  0  0  0  0  0  0  0
  162.0080  208.6840  150.6020 C   0  0  2  0  0  3  0  0  0  0  0  0
  162.1300  206.2200  151.1860 C   0  0  2  0  0  3  0  0  0  0  0  0
  161.8640  203.7440  151.8720 C   0  0  0  0  0  1  0  0  0  0  0  0
  159.4650  204.0160  150.1130 C   0  0  0  0  0  1  0  0  0  0  0  0
  162.1690  205.6770  148.0800 C   0  0  0  0  0  2  0  0  0  0  0  0
  161.3350  209.5810  154.6850 C   0  0  2  0  0  3  0  0  0  0  0  0
  159.5250  207.7930  156.6480 C   0  0  0  0  0  2  0  0  0  0  0  0
  161.3490  206.5660  152.4560 C   0  0  0  0  0  2  0  0  0  0  0  0
  162.4720  207.0270  148.7560 C   0  0  0  0  0  2  0  0  0  0  0  0
  161.0960  208.1210  154.2410 C   0  0  1  0  0  3  0  0  0  0  0  0
  160.6110  211.8000  156.0110 S   0  0  0  0  0  0  0  0  0  0  0  0
  161.7670  207.2580  150.1000 C   0  0  2  0  0  3  0  0  0  0  0  0
  160.9270  205.0750  148.5310 N   0  0  0  0  0  0  0  0  0  0  0  0
  159.4160  209.3070  156.3950 C   0  0  1  0  0  3  0  0  0  0  0  0
  161.3120  208.8770  151.9640 C   0  0  1  0  0  3  0  0  0  0  0  0
  161.8960  204.7620  150.7370 C   0  0  1  0  0  3  0  0  0  0  0  0
  161.7660  207.8800  152.9490 N   0  0  2  0  0  0  0  0  0  0  0  0
  161.9040  210.8900  150.0740 C   0  0  0  0  0  2  0  0  0  0  0  0
  160.9640  207.2720  156.6920 C   0  0  0  0  0  2  0  0  0  0  0  0
  161.4800  209.6070  149.6760 O   0  0  0  0  0  0  0  0  0  0  0  0
  161.5920  207.1170  155.2990 C   0  0  0  0  0  2  0  0  0  0  0  0
  160.7560  209.9870  156.0370 C   0  0  1  0  0  3  0  0  0  0  0  0
  161.2000  211.2970  151.3690 C   0  0  0  0  0  2  0  0  0  0  0  0
  160.8260  210.5140  153.6910 N   0  0  2  0  0  0  0  0  0  0  0  0
  158.4040  209.5490  155.3750 N   0  0  0  0  0  2  0  0  0  0  0  0
  157.7340  210.6710  155.7340 O   0  0  0  0  0  0  0  0  0  0  0  0
  155.6130  212.8690  155.1110 O   0  0  0  0  0  0  0  0  0  0  0  0
  157.5500  212.1950  153.9360 C   0  0  0  0  0  2  0  0  0  0  0  0
  156.9630  210.9920  154.6160 C   0  0  2  0  0  3  0  0  0  0  0  0
  156.4890  213.2600  154.0900 C   0  0  0  0  0  2  0  0  0  0  0  0
  155.6020  211.4680  155.0670 C   0  0  0  0  0  2  0  0  0  0  0  0
  1 26  1  6  0  0  0
  1 27  1  0  0  0  0
  2 14  1  0  0  0  0
  3  7  1  0  0  0  0
  3 19  1  0  0  0  0
  4 23  1  6  0  0  0
  4 18  1  0  0  0  0
  5 11  1  1  0  0  0
  8 16  1  0  0  0  0
  8 12  1  0  0  0  0
  9 25  1  0  0  0  0
 10 22  1  0  0  0  0
 11 20  1  0  0  0  0
 12 15  1  0  0  0  0
 13  9  1  0  0  0  0
 13 24  1  0  0  0  0
 14 25  1  0  0  0  0
 15  4  1  0  0  0  0
 15  5  1  0  0  0  0
 16  3  2  0  0  0  0
 17 10  1  0  0  0  0
 18  1  1  0  0  0  0
 18 20  1  0  0  0  0
 19  5  1  0  0  0  0
 19  6  1  0  0  0  0
 20 13  1  0  0  0  0
 21 26  1  0  0  0  0
 23 21  1  0  0  0  0
 24 22  1  0  0  0  0
 25 17  1  0  0  0  0
 27  2  1  0  0  0  0
 27  9  1  0  0  0  0
 28 29  1  0  0  0  0
 28 17  1  0  0  0  0
 31 33  1  0  0  0  0
 31 32  1  0  0  0  0
 32 34  1  0  0  0  0
 32 29  1  0  0  0  0
 33 30  1  0  0  0  0
 34 30  1  0  0  0  0
M  END
>  <MODEL>
4

>  <REMARK>
 VINA RESULT:      -4.2      2.649      7.932
  Name = 
  3 active torsions:
  status: ('A' for Active; 'I' for Inactive)
    1  A    between atoms: C_17  and  N_28
    2  A    between atoms: N_28  and  O_29
    3  A    between atoms: O_29  and  C_32
                            x       y       z     vdW  Elec       q    Type
                         _______ _______ _______ _____ _____    ______ ____

>  <TORSDO>
F 3

$$$$
