=
 OpenBabel11122414213D

 34 40  0  0  1  0  0  0  0  0999 V2000
  161.0130  207.1770  154.1500 C   0  0  0  0  0  0  0  0  0  0  0  0
  161.1620  204.9650  152.9890 C   0  0  0  0  0  2  0  0  0  0  0  0
  158.4860  213.1280  153.4040 C   0  0  1  0  0  3  0  0  0  0  0  0
  160.1000  209.3050  154.8300 C   0  0  0  0  0  0  0  0  0  0  0  0
  160.4480  211.3450  153.3260 C   0  0  2  0  0  3  0  0  0  0  0  0
  160.3610  213.2870  151.9930 O   0  0  0  0  0  0  0  0  0  0  0  0
  157.4510  212.2640  153.0450 O   0  0  0  0  0  1  0  0  0  0  0  0
  159.7750  213.0980  155.6400 C   0  0  0  0  0  2  0  0  0  0  0  0
  162.1390  206.8860  151.8790 N   0  0  2  0  0  0  0  0  0  0  0  0
  161.5890  206.8070  148.6950 C   0  0  0  0  0  2  0  0  0  0  0  0
  160.4680  210.3280  152.1930 C   0  0  0  0  0  2  0  0  0  0  0  0
  160.0270  211.6000  155.8290 C   0  0  0  0  0  2  0  0  0  0  0  0
  161.3510  208.0790  151.4880 C   0  0  1  0  0  3  0  0  0  0  0  0
  161.8050  204.4830  151.7250 C   0  0  0  0  0  2  0  0  0  0  0  0
  159.7590  210.7560  154.5740 C   0  0  2  0  0  3  0  0  0  0  0  0
  158.4560  213.3800  154.9210 C   0  0  0  0  0  2  0  0  0  0  0  0
  161.0310  205.8940  149.7760 C   0  0  2  0  0  3  0  0  0  0  0  0
  160.7770  208.5250  153.8690 C   0  0  0  0  0  0  0  0  0  0  0  0
  159.7990  212.6240  152.8500 C   0  0  0  0  0  0  0  0  0  0  0  0
  161.3150  209.1270  152.6060 C   0  0  2  0  0  3  0  0  0  0  0  0
  159.8990  207.4030  156.2260 C   0  0  0  0  0  3  0  0  0  0  0  0
  161.2760  208.2620  148.9980 C   0  0  0  0  0  2  0  0  0  0  0  0
  159.6580  208.7140  155.9730 N   0  0  0  0  0  0  0  0  0  0  0  0
  161.9880  208.7210  150.2550 C   0  0  0  0  0  2  0  0  0  0  0  0
  162.0640  205.7480  150.9210 C   0  0  1  0  0  3  0  0  0  0  0  0
  160.5790  206.6510  155.3260 N   0  0  0  0  0  0  0  0  0  0  0  0
  161.8040  206.3120  153.2030 C   0  0  1  0  0  3  0  0  0  0  0  0
  160.7510  204.6510  149.1980 O   0  0  0  0  0  0  0  0  0  0  0  0
  161.1620  204.7760  147.8690 C   0  0  0  0  0  2  0  0  0  0  0  0
  160.3700  201.5980  147.4100 O   0  0  0  0  0  0  0  0  0  0  0  0
  161.3620  203.2020  146.0370 N   0  0  0  0  0  2  0  0  0  0  0  0
  161.7760  203.4710  147.3950 C   0  0  2  0  0  3  0  0  0  0  0  0
  160.7840  201.8690  146.0980 C   0  0  0  0  0  2  0  0  0  0  0  0
  161.2390  202.3340  148.2210 C   0  0  0  0  0  2  0  0  0  0  0  0
  1 26  1  0  0  0  0
  2 27  1  0  0  0  0
  3  7  1  1  0  0  0
  3 16  1  0  0  0  0
  4 23  2  0  0  0  0
  5 11  1  6  0  0  0
  5 15  1  0  0  0  0
  6 19  2  0  0  0  0
  8 12  1  0  0  0  0
  9 27  1  0  0  0  0
 10 22  1  0  0  0  0
 10 17  1  0  0  0  0
 11 20  1  0  0  0  0
 13  9  1  0  0  0  0
 13 20  1  0  0  0  0
 14  2  1  0  0  0  0
 15  4  1  0  0  0  0
 15 12  1  0  0  0  0
 16  8  1  0  0  0  0
 17 25  1  0  0  0  0
 18  1  2  0  0  0  0
 18  4  1  0  0  0  0
 19  5  1  0  0  0  0
 19  3  1  0  0  0  0
 20 18  1  0  0  0  0
 22 24  1  0  0  0  0
 23 21  1  0  0  0  0
 24 13  1  0  0  0  0
 25 14  1  0  0  0  0
 25  9  1  0  0  0  0
 26 21  2  0  0  0  0
 27  1  1  0  0  0  0
 28 17  1  0  0  0  0
 29 28  1  0  0  0  0
 30 34  1  0  0  0  0
 31 33  1  0  0  0  0
 31 32  1  0  0  0  0
 32 29  1  0  0  0  0
 32 34  1  0  0  0  0
 33 30  1  0  0  0  0
M  END
>  <MODEL>
1

>  <REMARK>
 VINA RESULT:      -9.3      0.000      0.000
  Name = 
  3 active torsions:
  status: ('A' for Active; 'I' for Inactive)
    1  A    between atoms: C_17  and  O_28
    2  A    between atoms: O_28  and  C_29
    3  A    between atoms: C_29  and  C_32
                            x       y       z     vdW  Elec       q    Type
                         _______ _______ _______ _____ _____    ______ ____

>  <TORSDO>
F 3

$$$$
=
 OpenBabel11122414213D

 34 40  0  0  1  0  0  0  0  0999 V2000
  161.0590  207.7680  154.1400 C   0  0  0  0  0  0  0  0  0  0  0  0
  161.4990  205.6370  152.9020 C   0  0  0  0  0  2  0  0  0  0  0  0
  158.0730  213.5070  153.4380 C   0  0  1  0  0  3  0  0  0  0  0  0
  159.9070  209.7720  154.8310 C   0  0  0  0  0  0  0  0  0  0  0  0
  160.1880  211.9070  153.4490 C   0  0  2  0  0  3  0  0  0  0  0  0
  160.0320  213.8980  152.1970 O   0  0  0  0  0  0  0  0  0  0  0  0
  157.1510  212.5760  152.9590 O   0  0  0  0  0  1  0  0  0  0  0  0
  159.1780  213.4780  155.7710 C   0  0  0  0  0  2  0  0  0  0  0  0
  162.3830  207.6890  151.9610 N   0  0  2  0  0  0  0  0  0  0  0  0
  162.0970  207.7200  148.7410 C   0  0  0  0  0  2  0  0  0  0  0  0
  160.3890  210.9530  152.2800 C   0  0  0  0  0  2  0  0  0  0  0  0
  159.5480  212.0000  155.9170 C   0  0  0  0  0  2  0  0  0  0  0  0
  161.5250  208.8270  151.5560 C   0  0  1  0  0  3  0  0  0  0  0  0
  162.2810  205.2760  151.6770 C   0  0  0  0  0  2  0  0  0  0  0  0
  159.4580  211.2000  154.6090 C   0  0  2  0  0  3  0  0  0  0  0  0
  157.9000  213.6800  154.9580 C   0  0  0  0  0  2  0  0  0  0  0  0
  161.5390  206.7100  149.7330 C   0  0  2  0  0  3  0  0  0  0  0  0
  160.7250  209.1020  153.8980 C   0  0  0  0  0  0  0  0  0  0  0  0
  159.4650  213.1470  152.9750 C   0  0  0  0  0  0  0  0  0  0  0  0
  161.3060  209.8110  152.7110 C   0  0  2  0  0  3  0  0  0  0  0  0
  159.7680  207.7930  156.1240 C   0  0  0  0  0  3  0  0  0  0  0  0
  161.6300  209.1260  149.0780 C   0  0  0  0  0  2  0  0  0  0  0  0
  159.4310  209.0900  155.9070 N   0  0  0  0  0  0  0  0  0  0  0  0
  162.1970  209.5810  150.4090 C   0  0  0  0  0  2  0  0  0  0  0  0
  162.4870  206.5970  150.9520 C   0  0  1  0  0  3  0  0  0  0  0  0
  160.5820  207.1480  155.2520 N   0  0  0  0  0  0  0  0  0  0  0  0
  161.9980  207.0230  153.2260 C   0  0  1  0  0  3  0  0  0  0  0  0
  161.4190  205.4780  149.0800 O   0  0  0  0  0  0  0  0  0  0  0  0
  160.4400  205.6840  148.1060 C   0  0  0  0  0  2  0  0  0  0  0  0
  162.6390  205.9380  145.6480 O   0  0  0  0  0  0  0  0  0  0  0  0
  162.0120  204.1760  147.0440 N   0  0  0  0  0  2  0  0  0  0  0  0
  160.8420  204.9920  146.8170 C   0  0  2  0  0  3  0  0  0  0  0  0
  162.9650  204.6340  146.0450 C   0  0  0  0  0  2  0  0  0  0  0  0
  161.2510  206.0230  145.8000 C   0  0  0  0  0  2  0  0  0  0  0  0
  1 26  1  0  0  0  0
  2 27  1  0  0  0  0
  3  7  1  1  0  0  0
  3 16  1  0  0  0  0
  4 23  2  0  0  0  0
  5 11  1  6  0  0  0
  5 15  1  0  0  0  0
  6 19  2  0  0  0  0
  8 12  1  0  0  0  0
  9 27  1  0  0  0  0
 10 22  1  0  0  0  0
 10 17  1  0  0  0  0
 11 20  1  0  0  0  0
 13  9  1  0  0  0  0
 13 20  1  0  0  0  0
 14  2  1  0  0  0  0
 15  4  1  0  0  0  0
 15 12  1  0  0  0  0
 16  8  1  0  0  0  0
 17 25  1  0  0  0  0
 18  1  2  0  0  0  0
 18  4  1  0  0  0  0
 19  3  1  0  0  0  0
 19  5  1  0  0  0  0
 20 18  1  0  0  0  0
 22 24  1  0  0  0  0
 23 21  1  0  0  0  0
 24 13  1  0  0  0  0
 25 14  1  0  0  0  0
 25  9  1  0  0  0  0
 26 21  2  0  0  0  0
 27  1  1  0  0  0  0
 28 17  1  0  0  0  0
 29 28  1  0  0  0  0
 30 34  1  0  0  0  0
 30 33  1  0  0  0  0
 32 31  1  0  0  0  0
 32 29  1  0  0  0  0
 33 31  1  0  0  0  0
 34 32  1  0  0  0  0
M  END
>  <MODEL>
2

>  <REMARK>
 VINA RESULT:      -7.7      1.333      1.545
  Name = 
  3 active torsions:
  status: ('A' for Active; 'I' for Inactive)
    1  A    between atoms: C_17  and  O_28
    2  A    between atoms: O_28  and  C_29
    3  A    between atoms: C_29  and  C_32
                            x       y       z     vdW  Elec       q    Type
                         _______ _______ _______ _____ _____    ______ ____

>  <TORSDO>
F 3

$$$$
=
 OpenBabel11122414213D

 34 40  0  0  1  0  0  0  0  0999 V2000
  161.7100  207.6280  149.4520 C   0  0  0  0  0  0  0  0  0  0  0  0
  161.2950  209.8170  150.5910 C   0  0  0  0  0  2  0  0  0  0  0  0
  159.7800  201.4140  149.5660 C   0  0  1  0  0  3  0  0  0  0  0  0
  161.2580  205.4250  148.5760 C   0  0  0  0  0  0  0  0  0  0  0  0
  161.4350  203.4060  150.1380 C   0  0  2  0  0  3  0  0  0  0  0  0
  161.2280  201.4390  151.4190 O   0  0  0  0  0  0  0  0  0  0  0  0
  158.5940  202.1470  149.6330 O   0  0  0  0  0  1  0  0  0  0  0  0
  161.5950  201.6380  147.7440 C   0  0  0  0  0  2  0  0  0  0  0  0
  162.1640  207.9960  151.9350 N   0  0  2  0  0  0  0  0  0  0  0  0
  160.7980  207.9440  154.8640 C   0  0  0  0  0  2  0  0  0  0  0  0
  161.0410  204.3940  151.2270 C   0  0  0  0  0  2  0  0  0  0  0  0
  161.7130  203.1590  147.6140 C   0  0  0  0  0  2  0  0  0  0  0  0
  161.4450  206.7130  152.1180 C   0  0  1  0  0  3  0  0  0  0  0  0
  161.5270  210.3420  151.9750 C   0  0  0  0  0  2  0  0  0  0  0  0
  161.0310  203.9390  148.7470 C   0  0  2  0  0  3  0  0  0  0  0  0
  160.1760  201.1930  148.0950 C   0  0  0  0  0  2  0  0  0  0  0  0
  160.4390  208.8110  153.6660 C   0  0  2  0  0  3  0  0  0  0  0  0
  161.5660  206.2570  149.6730 C   0  0  0  0  0  0  0  0  0  0  0  0
  160.8360  202.0520  150.4390 C   0  0  0  0  0  0  0  0  0  0  0  0
  161.8220  205.6930  151.0390 C   0  0  2  0  0  3  0  0  0  0  0  0
  161.2090  207.3210  147.1590 C   0  0  0  0  0  3  0  0  0  0  0  0
  160.7440  206.4700  154.5030 C   0  0  0  0  0  2  0  0  0  0  0  0
  161.0640  205.9860  147.3520 N   0  0  0  0  0  0  0  0  0  0  0  0
  161.8080  206.1220  153.4800 C   0  0  0  0  0  2  0  0  0  0  0  0
  161.7110  209.0980  152.8300 C   0  0  1  0  0  3  0  0  0  0  0  0
  161.5390  208.1270  148.1980 N   0  0  0  0  0  0  0  0  0  0  0  0
  162.1220  208.5570  150.5650 C   0  0  1  0  0  3  0  0  0  0  0  0
  159.8770  210.0010  154.1400 O   0  0  0  0  0  0  0  0  0  0  0  0
  160.0500  209.9500  155.5250 C   0  0  0  0  0  2  0  0  0  0  0  0
  159.4840  213.1750  155.0560 O   0  0  0  0  0  0  0  0  0  0  0  0
  158.0830  211.3650  155.5100 N   0  0  0  0  0  2  0  0  0  0  0  0
  159.3410  211.1230  156.1770 C   0  0  2  0  0  3  0  0  0  0  0  0
  158.1450  212.7680  155.1310 C   0  0  0  0  0  2  0  0  0  0  0  0
  160.1560  212.3730  155.9830 C   0  0  0  0  0  2  0  0  0  0  0  0
  1 18  1  0  0  0  0
  1 27  1  0  0  0  0
  2 14  1  0  0  0  0
  3  7  1  6  0  0  0
  3 19  1  0  0  0  0
  4 15  1  0  0  0  0
  4 18  2  0  0  0  0
  5 19  1  0  0  0  0
  5 11  1  1  0  0  0
  8 16  1  0  0  0  0
  9 13  1  0  0  0  0
  9 25  1  0  0  0  0
 12  8  1  0  0  0  0
 12 15  1  0  0  0  0
 13 24  1  0  0  0  0
 14 25  1  0  0  0  0
 15  5  1  0  0  0  0
 16  3  1  0  0  0  0
 17 28  1  0  0  0  0
 17 10  1  0  0  0  0
 18 20  1  0  0  0  0
 19  6  2  0  0  0  0
 20 11  1  0  0  0  0
 20 13  1  0  0  0  0
 21 23  2  0  0  0  0
 21 26  1  0  0  0  0
 22 10  1  0  0  0  0
 23  4  1  0  0  0  0
 24 22  1  0  0  0  0
 25 17  1  0  0  0  0
 26  1  2  0  0  0  0
 27  2  1  0  0  0  0
 27  9  1  0  0  0  0
 28 29  1  0  0  0  0
 29 32  1  0  0  0  0
 30 33  1  0  0  0  0
 30 34  1  0  0  0  0
 31 32  1  0  0  0  0
 33 31  1  0  0  0  0
 34 32  1  0  0  0  0
M  END
>  <MODEL>
3

>  <REMARK>
 VINA RESULT:      -7.6      1.843      9.103
  Name = 
  3 active torsions:
  status: ('A' for Active; 'I' for Inactive)
    1  A    between atoms: C_17  and  O_28
    2  A    between atoms: O_28  and  C_29
    3  A    between atoms: C_29  and  C_32
                            x       y       z     vdW  Elec       q    Type
                         _______ _______ _______ _____ _____    ______ ____

>  <TORSDO>
F 3

$$$$
