=
 OpenBabel11122414103D

 28 32  0  0  1  0  0  0  0  0999 V2000
  157.2430  211.5800  156.2350 C   0  0  0  0  0  0  0  0  0  0  0  0
  162.0160  209.0710  155.9620 C   0  0  0  0  0  1  0  0  0  0  0  0
  158.7570  213.7860  152.5550 O   0  0  0  0  0  0  0  0  0  0  0  0
  155.6560  210.1960  154.3910 C   0  0  0  0  0  3  0  0  0  0  0  0
  159.9230  211.7440  152.4680 N   0  0  0  0  0  0  0  0  0  0  0  0
  158.0530  212.3060  157.1080 O   0  0  0  0  0  0  0  0  0  0  0  0
  160.1120  207.8740  156.9360 C   0  0  0  0  0  1  0  0  0  0  0  0
  160.7710  208.2610  155.6230 C   0  0  0  0  0  0  0  0  0  0  0  0
  160.9530  206.9730  153.5140 C   0  0  2  0  0  3  0  0  0  0  0  0
  159.7560  209.0930  154.7890 C   0  0  2  0  0  3  0  0  0  0  0  0
  157.3010  214.4490  155.0510 O   0  0  0  0  0  1  0  0  0  0  0  0
  160.1910  211.5040  154.8230 C   0  0  1  0  0  3  0  0  0  0  0  0
  161.5870  208.4760  152.7140 S   0  0  0  0  0  0  0  0  0  0  0  0
  161.1920  207.0130  154.9600 N   0  0  0  0  0  2  0  0  0  0  0  0
  158.3410  214.4530  155.9820 C   0  0  2  0  0  3  0  0  0  0  0  0
  157.8320  210.6200  155.3990 C   0  0  0  0  0  0  0  0  0  0  0  0
  159.3100  212.8200  153.1450 C   0  0  0  0  0  0  0  0  0  0  0  0
  161.6370  205.7590  152.9250 C   0  0  0  0  0  1  0  0  0  0  0  0
  159.6500  213.9410  155.3670 C   0  0  0  0  0  2  0  0  0  0  0  0
  157.0280  209.9400  154.4660 C   0  0  0  0  0  3  0  0  0  0  0  0
  155.8660  211.8360  156.1540 C   0  0  0  0  0  3  0  0  0  0  0  0
  155.0750  211.1410  155.2380 C   0  0  0  0  0  3  0  0  0  0  0  0
  157.9360  213.7150  157.2610 C   0  0  0  0  0  2  0  0  0  0  0  0
  160.6480  210.9580  153.4540 C   0  0  1  0  0  3  0  0  0  0  0  0
  159.4550  212.7430  154.5520 N   0  0  0  0  0  0  0  0  0  0  0  0
  160.2340  209.4980  153.3880 C   0  0  2  0  0  3  0  0  0  0  0  0
  160.2030  211.7210  151.0420 C   0  0  0  0  0  1  0  0  0  0  0  0
  159.3310  210.3960  155.4690 C   0  0  1  0  0  3  0  0  0  0  0  0
  1  6  1  0  0  0  0
  3 17  2  0  0  0  0
  4 20  2  0  0  0  0
  4 22  1  0  0  0  0
  5 17  1  0  0  0  0
  6 23  1  0  0  0  0
  8  2  1  0  0  0  0
  8  7  1  0  0  0  0
  9 18  1  6  0  0  0
  9 14  1  0  0  0  0
 10 28  1  0  0  0  0
 10  8  1  1  0  0  0
 12 25  1  6  0  0  0
 12 28  1  0  0  0  0
 13  9  1  0  0  0  0
 14  8  1  0  0  0  0
 15 11  1  6  0  0  0
 15 23  1  0  0  0  0
 16  1  2  0  0  0  0
 17 25  1  0  0  0  0
 19 15  1  0  0  0  0
 20 16  1  0  0  0  0
 21  1  1  0  0  0  0
 22 21  2  0  0  0  0
 24  5  1  6  0  0  0
 24 12  1  0  0  0  0
 25 19  1  0  0  0  0
 26 13  1  1  0  0  0
 26 24  1  0  0  0  0
 26 10  1  0  0  0  0
 27  5  1  0  0  0  0
 28 16  1  6  0  0  0
M  END
>  <MODEL>
1

>  <REMARK>
 VINA RESULT:      -2.3      0.000      0.000
  Name = 
  0 active torsions:
  status: ('A' for Active; 'I' for Inactive)
                            x       y       z     vdW  Elec       q    Type
                         _______ _______ _______ _____ _____    ______ ____

>  <TORSDO>
F 0

$$$$
=
 OpenBabel11122414103D

 28 32  0  0  1  0  0  0  0  0999 V2000
  161.7610  209.9510  154.2270 C   0  0  0  0  0  0  0  0  0  0  0  0
  160.0860  214.4530  151.7630 C   0  0  0  0  0  1  0  0  0  0  0  0
  158.2690  210.7820  157.0240 O   0  0  0  0  0  0  0  0  0  0  0  0
  160.0820  207.9630  153.1960 C   0  0  0  0  0  3  0  0  0  0  0  0
  157.6020  211.8150  155.0180 N   0  0  0  0  0  0  0  0  0  0  0  0
  162.5560  210.9530  154.7850 O   0  0  0  0  0  0  0  0  0  0  0  0
  161.2200  212.7360  150.4310 C   0  0  0  0  0  1  0  0  0  0  0  0
  159.8830  213.1310  151.0340 C   0  0  0  0  0  0  0  0  0  0  0  0
  157.5970  212.8240  150.1290 C   0  0  2  0  0  3  0  0  0  0  0  0
  159.4290  212.0050  152.0060 C   0  0  2  0  0  3  0  0  0  0  0  0
  161.0880  209.8940  157.2570 O   0  0  0  0  0  1  0  0  0  0  0  0
  159.7760  212.5440  154.3720 C   0  0  1  0  0  3  0  0  0  0  0  0
  156.9450  213.3480  151.7420 S   0  0  0  0  0  0  0  0  0  0  0  0
  158.9470  213.3530  149.9160 N   0  0  0  0  0  2  0  0  0  0  0  0
  161.7700  211.1000  157.0920 C   0  0  2  0  0  3  0  0  0  0  0  0
  160.6720  210.3150  153.4210 C   0  0  0  0  0  0  0  0  0  0  0  0
  158.5610  211.4000  155.9650 C   0  0  0  0  0  0  0  0  0  0  0  0
  156.6830  213.3200  149.0290 C   0  0  0  0  0  1  0  0  0  0  0  0
  160.8200  212.2340  156.6820 C   0  0  0  0  0  2  0  0  0  0  0  0
  159.8260  209.3090  152.9200 C   0  0  0  0  0  3  0  0  0  0  0  0
  162.0120  208.5990  154.5050 C   0  0  0  0  0  3  0  0  0  0  0  0
  161.1760  207.6090  153.9860 C   0  0  0  0  0  3  0  0  0  0  0  0
  162.9630  210.9310  156.1470 C   0  0  0  0  0  2  0  0  0  0  0  0
  158.2700  212.6900  154.0670 C   0  0  1  0  0  3  0  0  0  0  0  0
  159.8740  211.8240  155.6450 N   0  0  0  0  0  0  0  0  0  0  0  0
  158.0470  212.2070  152.6440 C   0  0  2  0  0  3  0  0  0  0  0  0
  156.1650  211.7970  155.2390 C   0  0  0  0  0  1  0  0  0  0  0  0
  160.3910  211.7860  153.1760 C   0  0  1  0  0  3  0  0  0  0  0  0
  1 21  1  0  0  0  0
  1  6  1  0  0  0  0
  4 22  1  0  0  0  0
  5 27  1  0  0  0  0
  5 17  1  0  0  0  0
  6 23  1  0  0  0  0
  7  8  1  0  0  0  0
  8  2  1  0  0  0  0
  9 18  1  6  0  0  0
  9 13  1  0  0  0  0
 10  8  1  1  0  0  0
 10 26  1  0  0  0  0
 10 28  1  0  0  0  0
 12 25  1  1  0  0  0
 14  9  1  0  0  0  0
 14  8  1  0  0  0  0
 15 11  1  6  0  0  0
 16  1  2  0  0  0  0
 17  3  2  0  0  0  0
 19 15  1  0  0  0  0
 20  4  2  0  0  0  0
 20 16  1  0  0  0  0
 22 21  2  0  0  0  0
 23 15  1  0  0  0  0
 24 12  1  0  0  0  0
 24  5  1  1  0  0  0
 25 17  1  0  0  0  0
 25 19  1  0  0  0  0
 26 13  1  6  0  0  0
 26 24  1  0  0  0  0
 28 16  1  1  0  0  0
 28 12  1  0  0  0  0
M  END
>  <MODEL>
2

>  <REMARK>
 VINA RESULT:      -0.8      2.639      5.604
  Name = 
  0 active torsions:
  status: ('A' for Active; 'I' for Inactive)
                            x       y       z     vdW  Elec       q    Type
                         _______ _______ _______ _____ _____    ______ ____

>  <TORSDO>
F 0

$$$$
=
 OpenBabel11122414103D

 28 32  0  0  1  0  0  0  0  0999 V2000
  161.1500  209.9450  156.3590 C   0  0  0  0  0  0  0  0  0  0  0  0
  157.9620  211.8880  152.4580 C   0  0  0  0  0  1  0  0  0  0  0  0
  162.2340  206.8260  153.2280 O   0  0  0  0  0  0  0  0  0  0  0  0
  163.6690  211.0050  155.7510 C   0  0  0  0  0  3  0  0  0  0  0  0
  161.5910  208.6820  151.9310 N   0  0  0  0  0  0  0  0  0  0  0  0
  159.9070  209.3690  156.6240 O   0  0  0  0  0  0  0  0  0  0  0  0
  158.8560  213.4420  154.1290 C   0  0  0  0  0  1  0  0  0  0  0  0
  159.1880  212.7070  152.8420 C   0  0  0  0  0  0  0  0  0  0  0  0
  160.5440  213.4540  150.9080 C   0  0  2  0  0  3  0  0  0  0  0  0
  160.4250  211.7990  153.0990 C   0  0  2  0  0  3  0  0  0  0  0  0
  161.6350  206.8880  156.1310 O   0  0  0  0  0  1  0  0  0  0  0  0
  159.8680  209.4310  153.3950 C   0  0  1  0  0  3  0  0  0  0  0  0
  160.4630  211.7570  150.2640 S   0  0  0  0  0  0  0  0  0  0  0  0
  159.4140  213.7260  151.8010 N   0  0  0  0  0  2  0  0  0  0  0  0
  160.2440  207.0040  156.1210 C   0  0  2  0  0  3  0  0  0  0  0  0
  161.3380  210.6310  155.1490 C   0  0  0  0  0  0  0  0  0  0  0  0
  161.5150  207.8490  153.0670 C   0  0  0  0  0  0  0  0  0  0  0  0
  160.5210  214.4340  149.7550 C   0  0  0  0  0  1  0  0  0  0  0  0
  159.7080  207.2430  154.7030 C   0  0  0  0  0  2  0  0  0  0  0  0
  162.6110  211.1470  154.8480 C   0  0  0  0  0  3  0  0  0  0  0  0
  162.2140  209.8010  157.2610 C   0  0  0  0  0  3  0  0  0  0  0  0
  163.4680  210.3350  156.9590 C   0  0  0  0  0  3  0  0  0  0  0  0
  159.7740  208.0500  157.1370 C   0  0  0  0  0  2  0  0  0  0  0  0
  160.4690  209.6050  151.9840 C   0  0  1  0  0  3  0  0  0  0  0  0
  160.4920  208.2340  153.9680 N   0  0  0  0  0  0  0  0  0  0  0  0
  160.9490  211.0420  151.8710 C   0  0  2  0  0  3  0  0  0  0  0  0
  162.3180  208.3510  150.7160 C   0  0  0  0  0  1  0  0  0  0  0  0
  160.1860  210.7300  154.1670 C   0  0  1  0  0  3  0  0  0  0  0  0
  1  6  1  0  0  0  0
  1 21  1  0  0  0  0
  2  8  1  0  0  0  0
  4 22  1  0  0  0  0
  5 17  1  0  0  0  0
  6 23  1  0  0  0  0
  8  7  1  0  0  0  0
  9 18  1  6  0  0  0
  9 14  1  0  0  0  0
 10  8  1  6  0  0  0
 10 28  1  0  0  0  0
 12 25  1  1  0  0  0
 12 28  1  0  0  0  0
 13  9  1  0  0  0  0
 14  8  1  0  0  0  0
 15 11  1  6  0  0  0
 15 23  1  0  0  0  0
 16  1  2  0  0  0  0
 17  3  2  0  0  0  0
 17 25  1  0  0  0  0
 19 15  1  0  0  0  0
 20 16  1  0  0  0  0
 20  4  2  0  0  0  0
 22 21  2  0  0  0  0
 24  5  1  1  0  0  0
 24 12  1  0  0  0  0
 25 19  1  0  0  0  0
 26 13  1  6  0  0  0
 26 24  1  0  0  0  0
 26 10  1  0  0  0  0
 27  5  1  0  0  0  0
 28 16  1  6  0  0  0
M  END
>  <MODEL>
3

>  <REMARK>
 VINA RESULT:      -0.1      2.836      5.877
  Name = 
  0 active torsions:
  status: ('A' for Active; 'I' for Inactive)
                            x       y       z     vdW  Elec       q    Type
                         _______ _______ _______ _____ _____    ______ ____

>  <TORSDO>
F 0

$$$$
