=
 OpenBabel11122413203D

 31 35  0  0  1  0  0  0  0  0999 V2000
  160.1760  209.3280  156.1480 C   0  0  0  0  0  0  0  0  0  0  0  0
  160.5250  209.3570  152.4710 C   0  0  0  0  0  0  0  0  0  0  0  0
  160.3660  210.7780  152.0700 C   0  0  0  0  0  0  0  0  0  0  0  0
  159.4450  213.0100  152.3400 C   0  0  0  0  0  0  0  0  0  0  0  0
  160.5330  208.9150  153.7490 C   0  0  0  0  0  0  0  0  0  0  0  0
  160.5980  207.9220  156.4840 C   0  0  0  0  0  2  0  0  0  0  0  0
  159.5660  211.6890  152.7770 C   0  0  0  0  0  3  0  0  0  0  0  0
  160.9770  206.9790  151.7060 C   0  0  0  0  0  0  0  0  0  0  0  0
  159.8370  210.2610  157.2530 C   0  0  0  0  0  1  0  0  0  0  0  0
  161.8160  210.3080  150.1560 O   0  0  0  0  0  0  0  0  0  0  0  0
  158.6010  213.9680  153.1020 C   0  0  0  0  0  1  0  0  0  0  0  0
  161.0020  206.6100  152.9520 N   0  0  0  0  0  0  0  0  0  0  0  0
  160.8640  208.4280  151.3320 C   0  0  2  0  0  3  0  0  0  0  0  0
  160.9370  205.9980  150.6660 N   0  0  0  0  0  2  0  0  0  0  0  0
  160.1840  209.7860  154.8910 C   0  0  0  0  0  3  0  0  0  0  0  0
  160.1130  213.4300  151.1880 C   0  0  0  0  0  3  0  0  0  0  0  0
  161.0880  207.5450  154.0690 C   0  0  2  0  0  3  0  0  0  0  0  0
  160.4070  206.9680  155.3030 C   0  0  0  0  0  2  0  0  0  0  0  0
  162.0830  208.9720  150.5980 C   0  0  0  0  0  2  0  0  0  0  0  0
  161.0350  211.2070  150.9020 C   0  0  0  0  0  0  0  0  0  0  0  0
  160.9050  212.5310  150.4690 C   0  0  0  0  0  3  0  0  0  0  0  0
  162.2670  204.2500  151.7400 C   0  0  0  0  0  1  0  0  0  0  0  0
  161.0260  204.5650  150.9190 C   0  0  2  0  0  3  0  0  0  0  0  0
  161.0710  202.3810  147.2140 C   0  0  0  0  0  0  0  0  0  0  0  0
  161.3950  204.4490  148.4280 C   0  0  0  0  0  3  0  0  0  0  0  0
  160.3590  201.8050  150.7520 F   0  0  0  0  0  0  0  0  0  0  0  0
  161.0840  201.6910  146.0490 F   0  0  0  0  0  0  0  0  0  0  0  0
  161.4100  203.7360  147.2260 C   0  0  0  0  0  3  0  0  0  0  0  0
  160.7030  202.4470  149.6080 C   0  0  0  0  0  0  0  0  0  0  0  0
  161.0410  203.8090  149.6260 C   0  0  0  0  0  0  0  0  0  0  0  0
  160.7190  201.7370  148.4030 C   0  0  0  0  0  3  0  0  0  0  0  0
  1  6  1  0  0  0  0
  1  9  1  0  0  0  0
  2  5  2  0  0  0  0
  3  2  1  0  0  0  0
  3  7  1  0  0  0  0
  4  7  2  0  0  0  0
  4 11  1  0  0  0  0
  5 17  1  0  0  0  0
  5 15  1  0  0  0  0
  8 12  2  0  0  0  0
 10 19  1  0  0  0  0
 10 20  1  0  0  0  0
 12 17  1  0  0  0  0
 13 19  1  1  0  0  0
 13  8  1  0  0  0  0
 13  2  1  0  0  0  0
 14 23  1  0  0  0  0
 14  8  1  0  0  0  0
 15  1  2  0  0  0  0
 16  4  1  0  0  0  0
 17 18  1  1  0  0  0
 18  6  1  0  0  0  0
 20  3  2  0  0  0  0
 21 20  1  0  0  0  0
 21 16  2  0  0  0  0
 23 22  1  6  0  0  0
 24 28  2  0  0  0  0
 24 31  1  0  0  0  0
 25 30  2  0  0  0  0
 27 24  1  0  0  0  0
 28 25  1  0  0  0  0
 29 30  1  0  0  0  0
 29 26  1  0  0  0  0
 30 23  1  0  0  0  0
 31 29  2  0  0  0  0
M  END
>  <MODEL>
1

>  <REMARK>
 VINA RESULT:      -9.6      0.000      0.000
  Name = 
  2 active torsions:
  status: ('A' for Active; 'I' for Inactive)
    1  A    between atoms: C_5  and  N_16
    2  A    between atoms: C_5  and  C_30
                            x       y       z     vdW  Elec       q    Type
                         _______ _______ _______ _____ _____    ______ ____

>  <TORSDO>
F 2

$$$$
=
 OpenBabel11122413203D

 31 35  0  0  1  0  0  0  0  0999 V2000
  162.1330  206.8440  147.4660 C   0  0  0  0  0  0  0  0  0  0  0  0
  161.0970  206.0080  150.9110 C   0  0  0  0  0  0  0  0  0  0  0  0
  160.9370  204.5310  150.9290 C   0  0  0  0  0  0  0  0  0  0  0  0
  160.3980  202.4040  149.8870 C   0  0  0  0  0  0  0  0  0  0  0  0
  161.5360  206.7210  149.8500 C   0  0  0  0  0  0  0  0  0  0  0  0
  162.5130  208.2950  147.6050 C   0  0  0  0  0  2  0  0  0  0  0  0
  160.5460  203.7900  149.8030 C   0  0  0  0  0  3  0  0  0  0  0  0
  161.0060  208.1630  152.2490 C   0  0  0  0  0  0  0  0  0  0  0  0
  162.3170  206.1740  146.1520 C   0  0  0  0  0  1  0  0  0  0  0  0
  161.5240  204.5840  153.3030 O   0  0  0  0  0  0  0  0  0  0  0  0
  159.9900  201.6280  148.6860 C   0  0  0  0  0  1  0  0  0  0  0  0
  161.4560  208.7990  151.2090 N   0  0  0  0  0  0  0  0  0  0  0  0
  160.9020  206.6660  152.2540 C   0  0  2  0  0  3  0  0  0  0  0  0
  160.4920  208.8890  153.3680 N   0  0  0  0  0  2  0  0  0  0  0  0
  161.7190  206.1200  148.5120 C   0  0  0  0  0  3  0  0  0  0  0  0
  160.6290  201.7470  151.0980 C   0  0  0  0  0  3  0  0  0  0  0  0
  162.0370  208.1340  150.0460 C   0  0  2  0  0  3  0  0  0  0  0  0
  161.8100  208.9620  148.7890 C   0  0  0  0  0  2  0  0  0  0  0  0
  161.8070  205.9880  153.2730 C   0  0  0  0  0  2  0  0  0  0  0  0
  161.1640  203.8620  152.1520 C   0  0  0  0  0  0  0  0  0  0  0  0
  161.0090  202.4750  152.2280 C   0  0  0  0  0  3  0  0  0  0  0  0
  161.7910  210.7930  154.1860 C   0  0  0  0  0  1  0  0  0  0  0  0
  160.5320  210.3430  153.4610 C   0  0  2  0  0  3  0  0  0  0  0  0
  157.0180  211.8200  155.4550 C   0  0  0  0  0  0  0  0  0  0  0  0
  159.1310  210.6430  155.5350 C   0  0  0  0  0  3  0  0  0  0  0  0
  158.4800  211.7740  152.1060 F   0  0  0  0  0  0  0  0  0  0  0  0
  155.9110  212.2860  156.0800 F   0  0  0  0  0  0  0  0  0  0  0  0
  157.9890  211.1250  156.1800 C   0  0  0  0  0  3  0  0  0  0  0  0
  158.3310  211.5550  153.4360 C   0  0  0  0  0  0  0  0  0  0  0  0
  159.3090  210.8540  154.1590 C   0  0  0  0  0  0  0  0  0  0  0  0
  157.1890  212.0360  154.0850 C   0  0  0  0  0  3  0  0  0  0  0  0
  1  6  1  0  0  0  0
  1 15  2  0  0  0  0
  2  3  1  0  0  0  0
  2 13  1  0  0  0  0
  3 20  1  0  0  0  0
  4 16  2  0  0  0  0
  5 17  1  0  0  0  0
  5  2  2  0  0  0  0
  6 18  1  0  0  0  0
  7  4  1  0  0  0  0
  7  3  2  0  0  0  0
  8 13  1  0  0  0  0
  8 14  1  0  0  0  0
  9  1  1  0  0  0  0
 11  4  1  0  0  0  0
 12  8  2  0  0  0  0
 13 19  1  1  0  0  0
 14 23  1  0  0  0  0
 15  5  1  0  0  0  0
 16 21  1  0  0  0  0
 17 18  1  6  0  0  0
 17 12  1  0  0  0  0
 19 10  1  0  0  0  0
 20 21  2  0  0  0  0
 20 10  1  0  0  0  0
 23 30  1  0  0  0  0
 23 22  1  1  0  0  0
 24 27  1  0  0  0  0
 24 28  1  0  0  0  0
 25 28  2  0  0  0  0
 26 29  1  0  0  0  0
 29 31  1  0  0  0  0
 29 30  2  0  0  0  0
 30 25  1  0  0  0  0
 31 24  2  0  0  0  0
M  END
>  <MODEL>
2

>  <REMARK>
 VINA RESULT:      -9.2      3.633      8.866
  Name = 
  2 active torsions:
  status: ('A' for Active; 'I' for Inactive)
    1  A    between atoms: C_5  and  N_16
    2  A    between atoms: C_5  and  C_30
                            x       y       z     vdW  Elec       q    Type
                         _______ _______ _______ _____ _____    ______ ____

>  <TORSDO>
F 2

$$$$
=
 OpenBabel11122413203D

 31 35  0  0  1  0  0  0  0  0999 V2000
  160.4750  209.4270  155.6440 C   0  0  0  0  0  0  0  0  0  0  0  0
  160.8010  209.1050  151.9800 C   0  0  0  0  0  0  0  0  0  0  0  0
  160.7570  210.4940  151.4550 C   0  0  0  0  0  0  0  0  0  0  0  0
  160.0260  212.8090  151.5280 C   0  0  0  0  0  0  0  0  0  0  0  0
  160.7810  208.7780  153.2910 C   0  0  0  0  0  0  0  0  0  0  0  0
  160.7810  208.0260  156.1030 C   0  0  0  0  0  2  0  0  0  0  0  0
  160.0400  211.5260  152.0790 C   0  0  0  0  0  3  0  0  0  0  0  0
  161.0500  206.6400  151.4270 C   0  0  0  0  0  0  0  0  0  0  0  0
  160.2210  210.4790  156.6630 C   0  0  0  0  0  1  0  0  0  0  0  0
  162.1510  209.7390  149.5910 O   0  0  0  0  0  0  0  0  0  0  0  0
  159.2690  213.8970  152.2010 C   0  0  0  0  0  1  0  0  0  0  0  0
  161.0530  206.3800  152.7000 N   0  0  0  0  0  0  0  0  0  0  0  0
  161.0550  208.0550  150.9270 C   0  0  2  0  0  3  0  0  0  0  0  0
  160.9230  205.5790  150.4770 N   0  0  0  0  0  2  0  0  0  0  0  0
  160.5130  209.7710  154.3520 C   0  0  0  0  0  3  0  0  0  0  0  0
  160.7190  213.0700  150.3430 C   0  0  0  0  0  3  0  0  0  0  0  0
  161.2220  207.4000  153.7310 C   0  0  2  0  0  3  0  0  0  0  0  0
  160.5050  206.9910  155.0100 C   0  0  0  0  0  2  0  0  0  0  0  0
  162.3090  208.4290  150.1490 C   0  0  0  0  0  2  0  0  0  0  0  0
  161.4520  210.7620  150.2540 C   0  0  0  0  0  0  0  0  0  0  0  0
  161.4290  212.0490  149.7070 C   0  0  0  0  0  3  0  0  0  0  0  0
  162.0650  203.8460  151.7700 C   0  0  0  0  0  1  0  0  0  0  0  0
  160.8950  204.1710  150.8550 C   0  0  2  0  0  3  0  0  0  0  0  0
  160.9700  201.6940  147.3390 C   0  0  0  0  0  0  0  0  0  0  0  0
  160.5720  201.9470  149.7130 C   0  0  0  0  0  3  0  0  0  0  0  0
  161.6340  205.1590  148.2930 F   0  0  0  0  0  0  0  0  0  0  0  0
  160.9950  200.9160  146.2310 F   0  0  0  0  0  0  0  0  0  0  0  0
  160.5970  201.1450  148.5690 C   0  0  0  0  0  3  0  0  0  0  0  0
  161.2940  203.8500  148.3950 C   0  0  0  0  0  0  0  0  0  0  0  0
  160.9220  203.3040  149.6340 C   0  0  0  0  0  0  0  0  0  0  0  0
  161.3180  203.0450  147.2530 C   0  0  0  0  0  3  0  0  0  0  0  0
  1  6  1  0  0  0  0
  1  9  1  0  0  0  0
  2  5  2  0  0  0  0
  3  2  1  0  0  0  0
  3  7  1  0  0  0  0
  4  7  2  0  0  0  0
  4 11  1  0  0  0  0
  5 17  1  0  0  0  0
  5 15  1  0  0  0  0
  8 12  2  0  0  0  0
 10 19  1  0  0  0  0
 10 20  1  0  0  0  0
 12 17  1  0  0  0  0
 13 19  1  1  0  0  0
 13  8  1  0  0  0  0
 13  2  1  0  0  0  0
 14 23  1  0  0  0  0
 14  8  1  0  0  0  0
 15  1  2  0  0  0  0
 16  4  1  0  0  0  0
 17 18  1  1  0  0  0
 18  6  1  0  0  0  0
 20  3  2  0  0  0  0
 21 20  1  0  0  0  0
 21 16  2  0  0  0  0
 23 22  1  1  0  0  0
 24 28  1  0  0  0  0
 26 29  1  0  0  0  0
 27 24  1  0  0  0  0
 28 25  2  0  0  0  0
 29 30  2  0  0  0  0
 30 25  1  0  0  0  0
 30 23  1  0  0  0  0
 31 24  2  0  0  0  0
 31 29  1  0  0  0  0
M  END
>  <MODEL>
3

>  <REMARK>
 VINA RESULT:      -9.1      1.014      1.356
  Name = 
  2 active torsions:
  status: ('A' for Active; 'I' for Inactive)
    1  A    between atoms: C_5  and  N_16
    2  A    between atoms: C_5  and  C_30
                            x       y       z     vdW  Elec       q    Type
                         _______ _______ _______ _____ _____    ______ ____

>  <TORSDO>
F 2

$$$$
=
 OpenBabel11122413203D

 31 35  0  0  1  0  0  0  0  0999 V2000
  162.1850  209.1980  149.1740 C   0  0  0  0  0  0  0  0  0  0  0  0
  160.9880  207.4160  152.1790 C   0  0  0  0  0  0  0  0  0  0  0  0
  161.0050  205.9750  151.8170 C   0  0  0  0  0  0  0  0  0  0  0  0
  160.8090  204.1420  150.2360 C   0  0  0  0  0  0  0  0  0  0  0  0
  161.4210  208.4140  151.3770 C   0  0  0  0  0  0  0  0  0  0  0  0
  162.3770  210.5950  149.7030 C   0  0  0  0  0  2  0  0  0  0  0  0
  160.7960  205.5110  150.5100 C   0  0  0  0  0  3  0  0  0  0  0  0
  160.5340  209.1400  153.9860 C   0  0  0  0  0  0  0  0  0  0  0  0
  162.5520  208.9060  147.7630 C   0  0  0  0  0  1  0  0  0  0  0  0
  161.3920  205.4770  154.1810 O   0  0  0  0  0  0  0  0  0  0  0  0
  160.5940  203.6620  148.8450 C   0  0  0  0  0  1  0  0  0  0  0  0
  160.9840  210.0600  153.1860 N   0  0  0  0  0  0  0  0  0  0  0  0
  160.6090  207.6880  153.6130 C   0  0  2  0  0  3  0  0  0  0  0  0
  159.8490  209.5040  155.1870 N   0  0  0  0  0  2  0  0  0  0  0  0
  161.7800  208.1950  149.9600 C   0  0  0  0  0  3  0  0  0  0  0  0
  161.0210  203.2240  151.2670 C   0  0  0  0  0  3  0  0  0  0  0  0
  161.7310  209.7730  151.9650 C   0  0  2  0  0  3  0  0  0  0  0  0
  161.5070  210.8680  150.9320 C   0  0  0  0  0  2  0  0  0  0  0  0
  161.5060  206.8630  154.5260 C   0  0  0  0  0  2  0  0  0  0  0  0
  161.2130  205.0420  152.8570 C   0  0  0  0  0  0  0  0  0  0  0  0
  161.2200  203.6720  152.5750 C   0  0  0  0  0  3  0  0  0  0  0  0
  159.7600  210.9530  157.1540 C   0  0  0  0  0  1  0  0  0  0  0  0
  159.7070  210.8830  155.6360 C   0  0  2  0  0  3  0  0  0  0  0  0
  156.0340  212.5730  154.1650 C   0  0  0  0  0  0  0  0  0  0  0  0
  157.1880  210.9940  155.5900 C   0  0  0  0  0  3  0  0  0  0  0  0
  159.6380  212.9770  153.7120 F   0  0  0  0  0  0  0  0  0  0  0  0
  154.8800  213.1070  153.7000 F   0  0  0  0  0  0  0  0  0  0  0  0
  155.9970  211.5460  155.1110 C   0  0  0  0  0  3  0  0  0  0  0  0
  158.4560  212.5010  154.1750 C   0  0  0  0  0  0  0  0  0  0  0  0
  158.4250  211.4670  155.1250 C   0  0  0  0  0  0  0  0  0  0  0  0
  157.2620  213.0500  153.6980 C   0  0  0  0  0  3  0  0  0  0  0  0
  1  6  1  0  0  0  0
  1 15  2  0  0  0  0
  2 13  1  0  0  0  0
  3  2  1  0  0  0  0
  3 20  1  0  0  0  0
  4  7  1  0  0  0  0
  4 16  2  0  0  0  0
  5 17  1  0  0  0  0
  5  2  2  0  0  0  0
  6 18  1  0  0  0  0
  7  3  2  0  0  0  0
  8 14  1  0  0  0  0
  9  1  1  0  0  0  0
 10 19  1  0  0  0  0
 11  4  1  0  0  0  0
 12  8  2  0  0  0  0
 13  8  1  0  0  0  0
 13 19  1  1  0  0  0
 14 23  1  0  0  0  0
 15  5  1  0  0  0  0
 16 21  1  0  0  0  0
 17 18  1  6  0  0  0
 17 12  1  0  0  0  0
 20 10  1  0  0  0  0
 21 20  2  0  0  0  0
 23 22  1  1  0  0  0
 24 28  1  0  0  0  0
 26 29  1  0  0  0  0
 27 24  1  0  0  0  0
 28 25  2  0  0  0  0
 29 30  2  0  0  0  0
 30 25  1  0  0  0  0
 30 23  1  0  0  0  0
 31 24  2  0  0  0  0
 31 29  1  0  0  0  0
M  END
>  <MODEL>
4

>  <REMARK>
 VINA RESULT:      -8.1      3.845      8.548
  Name = 
  2 active torsions:
  status: ('A' for Active; 'I' for Inactive)
    1  A    between atoms: C_5  and  N_16
    2  A    between atoms: C_5  and  C_30
                            x       y       z     vdW  Elec       q    Type
                         _______ _______ _______ _____ _____    ______ ____

>  <TORSDO>
F 2

$$$$
=
 OpenBabel11122413203D

 31 35  0  0  1  0  0  0  0  0999 V2000
  160.8820  205.2010  150.7330 C   0  0  0  0  0  0  0  0  0  0  0  0
  161.3900  208.6320  152.0040 C   0  0  0  0  0  0  0  0  0  0  0  0
  161.2170  208.5380  153.4760 C   0  0  0  0  0  0  0  0  0  0  0  0
  160.2360  207.5760  155.4790 C   0  0  0  0  0  0  0  0  0  0  0  0
  161.3530  207.5790  151.1570 C   0  0  0  0  0  0  0  0  0  0  0  0
  161.3200  205.3390  149.2980 C   0  0  0  0  0  2  0  0  0  0  0  0
  160.3680  207.6040  154.0890 C   0  0  0  0  0  3  0  0  0  0  0  0
  161.9280  210.1300  150.0270 C   0  0  0  0  0  0  0  0  0  0  0  0
  160.4740  203.8640  151.2360 C   0  0  0  0  0  1  0  0  0  0  0  0
  162.7590  210.4250  153.6890 O   0  0  0  0  0  0  0  0  0  0  0  0
  159.3390  206.5780  156.1190 C   0  0  0  0  0  1  0  0  0  0  0  0
  161.9070  209.0820  149.2590 N   0  0  0  0  0  0  0  0  0  0  0  0
  161.7990  209.9990  151.5160 C   0  0  2  0  0  3  0  0  0  0  0  0
  161.9550  211.4400  149.4550 N   0  0  0  0  0  2  0  0  0  0  0  0
  160.9350  206.2280  151.5880 C   0  0  0  0  0  3  0  0  0  0  0  0
  160.9440  208.4850  156.2680 C   0  0  0  0  0  3  0  0  0  0  0  0
  161.9230  207.7120  149.7620 C   0  0  2  0  0  3  0  0  0  0  0  0
  161.2020  206.7800  148.7980 C   0  0  0  0  0  2  0  0  0  0  0  0
  163.0360  210.4470  152.2830 C   0  0  0  0  0  2  0  0  0  0  0  0
  161.9270  209.4590  154.2790 C   0  0  0  0  0  0  0  0  0  0  0  0
  161.7860  209.4250  155.6700 C   0  0  0  0  0  3  0  0  0  0  0  0
  163.3310  212.4640  147.7120 C   0  0  0  0  0  1  0  0  0  0  0  0
  162.0650  211.6810  148.0210 C   0  0  2  0  0  3  0  0  0  0  0  0
  158.5920  213.7860  146.6030 C   0  0  0  0  0  0  0  0  0  0  0  0
  160.2200  212.0160  146.3360 C   0  0  0  0  0  3  0  0  0  0  0  0
  160.9460  213.9050  149.3970 F   0  0  0  0  0  0  0  0  0  0  0  0
  157.4990  214.4510  146.1590 F   0  0  0  0  0  0  0  0  0  0  0  0
  159.0910  212.7010  145.8790 C   0  0  0  0  0  3  0  0  0  0  0  0
  160.3490  213.5030  148.2470 C   0  0  0  0  0  0  0  0  0  0  0  0
  160.8560  212.4130  147.5220 C   0  0  0  0  0  0  0  0  0  0  0  0
  159.2200  214.1870  147.7860 C   0  0  0  0  0  3  0  0  0  0  0  0
  1  9  1  0  0  0  0
  1 15  2  0  0  0  0
  2  3  1  0  0  0  0
  3  7  2  0  0  0  0
  3 20  1  0  0  0  0
  4 11  1  0  0  0  0
  4 16  2  0  0  0  0
  5 15  1  0  0  0  0
  5  2  2  0  0  0  0
  6  1  1  0  0  0  0
  7  4  1  0  0  0  0
  8 13  1  0  0  0  0
 10 20  1  0  0  0  0
 12 17  1  0  0  0  0
 12  8  2  0  0  0  0
 13  2  1  0  0  0  0
 13 19  1  1  0  0  0
 14  8  1  0  0  0  0
 17 18  1  6  0  0  0
 17  5  1  0  0  0  0
 18  6  1  0  0  0  0
 19 10  1  0  0  0  0
 20 21  2  0  0  0  0
 21 16  1  0  0  0  0
 23 22  1  1  0  0  0
 23 14  1  0  0  0  0
 24 31  1  0  0  0  0
 25 30  2  0  0  0  0
 27 24  1  0  0  0  0
 28 25  1  0  0  0  0
 28 24  2  0  0  0  0
 29 26  1  0  0  0  0
 30 23  1  0  0  0  0
 30 29  1  0  0  0  0
 31 29  2  0  0  0  0
M  END
>  <MODEL>
5

>  <REMARK>
 VINA RESULT:      -8.0      4.125      7.450
  Name = 
  2 active torsions:
  status: ('A' for Active; 'I' for Inactive)
    1  A    between atoms: C_5  and  N_16
    2  A    between atoms: C_5  and  C_30
                            x       y       z     vdW  Elec       q    Type
                         _______ _______ _______ _____ _____    ______ ____

>  <TORSDO>
F 2

$$$$
=
 OpenBabel11122413203D

 31 35  0  0  1  0  0  0  0  0999 V2000
  160.7380  207.2130  154.3250 C   0  0  0  0  0  0  0  0  0  0  0  0
  161.3720  206.9000  150.7000 C   0  0  0  0  0  0  0  0  0  0  0  0
  161.3080  205.4440  150.4120 C   0  0  0  0  0  0  0  0  0  0  0  0
  161.6020  203.1080  151.0100 C   0  0  0  0  0  0  0  0  0  0  0  0
  161.1260  207.4560  151.9080 C   0  0  0  0  0  0  0  0  0  0  0  0
  160.5690  208.7020  154.4790 C   0  0  0  0  0  2  0  0  0  0  0  0
  161.6690  204.4620  151.3470 C   0  0  0  0  0  3  0  0  0  0  0  0
  161.6800  209.2340  149.7520 C   0  0  0  0  0  0  0  0  0  0  0  0
  160.5570  206.3420  155.5160 C   0  0  0  0  0  1  0  0  0  0  0  0
  160.5550  206.0140  148.1550 O   0  0  0  0  0  0  0  0  0  0  0  0
  161.9800  202.0760  152.0110 C   0  0  0  0  0  1  0  0  0  0  0  0
  161.4110  209.7200  150.9270 N   0  0  0  0  0  0  0  0  0  0  0  0
  161.5600  207.7640  149.4790 C   0  0  2  0  0  3  0  0  0  0  0  0
  162.2100  210.0810  148.7290 N   0  0  0  0  0  2  0  0  0  0  0  0
  160.9590  206.6470  153.1340 C   0  0  0  0  0  3  0  0  0  0  0  0
  161.1840  202.7240  149.7340 C   0  0  0  0  0  3  0  0  0  0  0  0
  160.8280  208.9350  152.0110 C   0  0  2  0  0  3  0  0  0  0  0  0
  161.2710  209.4770  153.3630 C   0  0  0  0  0  2  0  0  0  0  0  0
  160.4880  207.4130  148.4550 C   0  0  0  0  0  2  0  0  0  0  0  0
  160.8910  205.0500  149.1210 C   0  0  0  0  0  0  0  0  0  0  0  0
  160.8310  203.6930  148.7910 C   0  0  0  0  0  3  0  0  0  0  0  0
  161.5810  212.0130  150.0890 C   0  0  0  0  0  1  0  0  0  0  0  0
  162.3810  211.5190  148.8940 C   0  0  2  0  0  3  0  0  0  0  0  0
  161.1950  213.5960  145.3180 C   0  0  0  0  0  0  0  0  0  0  0  0
  160.8330  211.8260  146.9280 C   0  0  0  0  0  3  0  0  0  0  0  0
  163.8070  213.7570  147.8700 F   0  0  0  0  0  0  0  0  0  0  0  0
  160.8250  214.2520  144.1920 F   0  0  0  0  0  0  0  0  0  0  0  0
  160.4500  212.5030  145.7670 C   0  0  0  0  0  3  0  0  0  0  0  0
  162.7100  213.3380  147.1920 C   0  0  0  0  0  0  0  0  0  0  0  0
  161.9650  212.2380  147.6470 C   0  0  0  0  0  0  0  0  0  0  0  0
  162.3240  214.0130  146.0300 C   0  0  0  0  0  3  0  0  0  0  0  0
  1  6  1  0  0  0  0
  1  9  1  0  0  0  0
  2  5  2  0  0  0  0
  3  2  1  0  0  0  0
  3  7  1  0  0  0  0
  4  7  2  0  0  0  0
  4 11  1  0  0  0  0
  5 17  1  0  0  0  0
  5 15  1  0  0  0  0
  8 12  2  0  0  0  0
 10 19  1  0  0  0  0
 10 20  1  0  0  0  0
 12 17  1  0  0  0  0
 13 19  1  6  0  0  0
 13  8  1  0  0  0  0
 13  2  1  0  0  0  0
 14 23  1  0  0  0  0
 14  8  1  0  0  0  0
 15  1  2  0  0  0  0
 16  4  1  0  0  0  0
 17 18  1  1  0  0  0
 18  6  1  0  0  0  0
 20  3  2  0  0  0  0
 21 20  1  0  0  0  0
 21 16  2  0  0  0  0
 23 22  1  1  0  0  0
 24 28  2  0  0  0  0
 24 31  1  0  0  0  0
 25 30  2  0  0  0  0
 27 24  1  0  0  0  0
 28 25  1  0  0  0  0
 29 30  1  0  0  0  0
 29 26  1  0  0  0  0
 30 23  1  0  0  0  0
 31 29  2  0  0  0  0
M  END
>  <MODEL>
6

>  <REMARK>
 VINA RESULT:      -7.1      4.117      7.667
  Name = 
  2 active torsions:
  status: ('A' for Active; 'I' for Inactive)
    1  A    between atoms: C_5  and  N_16
    2  A    between atoms: C_5  and  C_30
                            x       y       z     vdW  Elec       q    Type
                         _______ _______ _______ _____ _____    ______ ____

>  <TORSDO>
F 2

$$$$
=
 OpenBabel11122413203D

 31 35  0  0  1  0  0  0  0  0999 V2000
  160.7610  203.7890  151.8020 C   0  0  0  0  0  0  0  0  0  0  0  0
  161.3410  205.0400  148.3760 C   0  0  0  0  0  0  0  0  0  0  0  0
  161.1620  203.8620  147.4890 C   0  0  0  0  0  0  0  0  0  0  0  0
  161.2770  201.4840  147.0050 C   0  0  0  0  0  0  0  0  0  0  0  0
  161.1480  205.0310  149.7140 C   0  0  0  0  0  0  0  0  0  0  0  0
  160.7090  205.0700  152.5910 C   0  0  0  0  0  2  0  0  0  0  0  0
  161.4520  202.5500  147.8920 C   0  0  0  0  0  3  0  0  0  0  0  0
  161.8230  207.5280  148.5200 C   0  0  0  0  0  0  0  0  0  0  0  0
  160.5210  202.5010  152.5040 C   0  0  0  0  0  1  0  0  0  0  0  0
  160.4390  205.4050  145.7330 O   0  0  0  0  0  0  0  0  0  0  0  0
  161.5810  200.0970  147.4450 C   0  0  0  0  0  1  0  0  0  0  0  0
  161.6020  207.4720  149.7990 N   0  0  0  0  0  0  0  0  0  0  0  0
  161.5870  206.3340  147.6420 C   0  0  2  0  0  3  0  0  0  0  0  0
  162.4100  208.6970  147.9430 N   0  0  0  0  0  2  0  0  0  0  0  0
  160.9270  203.7830  150.4750 C   0  0  0  0  0  3  0  0  0  0  0  0
  160.8210  201.7220  145.7070 C   0  0  0  0  0  3  0  0  0  0  0  0
  160.9670  206.3350  150.4590 C   0  0  2  0  0  3  0  0  0  0  0  0
  161.4620  206.2050  151.8930 C   0  0  0  0  0  2  0  0  0  0  0  0
  160.4830  206.5350  146.6120 C   0  0  0  0  0  2  0  0  0  0  0  0
  160.7060  204.0970  146.1730 C   0  0  0  0  0  0  0  0  0  0  0  0
  160.5380  203.0250  145.2910 C   0  0  0  0  0  3  0  0  0  0  0  0
  162.1370  209.7830  150.1160 C   0  0  0  0  0  1  0  0  0  0  0  0
  162.6930  209.9060  148.7060 C   0  0  2  0  0  3  0  0  0  0  0  0
  161.0570  213.3570  146.7260 C   0  0  0  0  0  0  0  0  0  0  0  0
  160.8100  211.0820  147.5130 C   0  0  0  0  0  3  0  0  0  0  0  0
  164.1640  212.3140  148.3450 F   0  0  0  0  0  0  0  0  0  0  0  0
  160.5450  214.4450  146.1030 F   0  0  0  0  0  0  0  0  0  0  0  0
  160.2810  212.2050  146.8710 C   0  0  0  0  0  3  0  0  0  0  0  0
  162.8950  212.2660  147.8670 C   0  0  0  0  0  0  0  0  0  0  0  0
  162.1200  211.1050  148.0140 C   0  0  0  0  0  0  0  0  0  0  0  0
  162.3630  213.3870  147.2240 C   0  0  0  0  0  3  0  0  0  0  0  0
  1  9  1  0  0  0  0
  1  6  1  0  0  0  0
  2  5  2  0  0  0  0
  3  7  1  0  0  0  0
  3  2  1  0  0  0  0
  4 11  1  0  0  0  0
  4  7  2  0  0  0  0
  5 17  1  0  0  0  0
  5 15  1  0  0  0  0
  8 12  2  0  0  0  0
 10 20  1  0  0  0  0
 10 19  1  0  0  0  0
 12 17  1  0  0  0  0
 13 19  1  1  0  0  0
 13  2  1  0  0  0  0
 13  8  1  0  0  0  0
 14  8  1  0  0  0  0
 14 23  1  0  0  0  0
 15  1  2  0  0  0  0
 16  4  1  0  0  0  0
 17 18  1  1  0  0  0
 18  6  1  0  0  0  0
 20  3  2  0  0  0  0
 21 16  2  0  0  0  0
 21 20  1  0  0  0  0
 23 22  1  1  0  0  0
 24 28  2  0  0  0  0
 24 31  1  0  0  0  0
 25 30  2  0  0  0  0
 27 24  1  0  0  0  0
 28 25  1  0  0  0  0
 29 30  1  0  0  0  0
 29 26  1  0  0  0  0
 30 23  1  0  0  0  0
 31 29  2  0  0  0  0
M  END
>  <MODEL>
7

>  <REMARK>
 VINA RESULT:      -7.1      4.451      8.567
  Name = 
  2 active torsions:
  status: ('A' for Active; 'I' for Inactive)
    1  A    between atoms: C_5  and  N_16
    2  A    between atoms: C_5  and  C_30
                            x       y       z     vdW  Elec       q    Type
                         _______ _______ _______ _____ _____    ______ ____

>  <TORSDO>
F 2

$$$$
