=
 OpenBabel11122414093D

 28 32  0  0  1  0  0  0  0  0999 V2000
  160.5070  209.7350  156.2530 C   0  0  0  0  0  0  0  0  0  0  0  0
  155.5640  210.6170  154.8520 C   0  0  0  0  0  1  0  0  0  0  0  0
  161.4070  211.3860  151.8600 O   0  0  0  0  0  0  0  0  0  0  0  0
  161.5820  212.2010  156.8930 N   0  0  0  0  0  0  0  0  0  0  0  0
  159.4060  212.6020  152.4470 C   0  0  2  0  0  3  0  0  0  0  0  0
  159.9760  208.3940  155.8480 C   0  0  0  0  0  2  0  0  0  0  0  0
  155.9410  211.3470  157.1560 C   0  0  0  0  0  1  0  0  0  0  0  0
  156.0950  211.7730  155.7100 C   0  0  0  0  0  0  0  0  0  0  0  0
  155.4620  213.3800  154.2050 C   0  0  1  0  0  3  0  0  0  0  0  0
  157.6080  212.0850  155.4810 C   0  0  2  0  0  3  0  0  0  0  0  0
  162.2690  209.3570  153.8380 O   0  0  0  0  0  1  0  0  0  0  0  0
  158.4850  210.7020  153.7240 C   0  0  1  0  0  3  0  0  0  0  0  0
  156.8570  213.9540  154.0330 C   0  0  0  0  0  2  0  0  0  0  0  0
  155.3020  212.9280  155.5250 O   0  0  0  0  0  0  0  0  0  0  0  0
  161.2850  208.3910  153.6090 C   0  0  2  0  0  3  0  0  0  0  0  0
  159.8010  210.9090  155.9320 C   0  0  0  0  0  0  0  0  0  0  0  0
  160.3020  211.4260  152.4630 C   0  0  0  0  0  0  0  0  0  0  0  0
  154.4350  214.4530  153.9100 C   0  0  0  0  0  1  0  0  0  0  0  0
  160.0890  208.9490  152.8340 C   0  0  0  0  0  2  0  0  0  0  0  0
  160.3860  212.1460  156.2520 C   0  0  0  0  0  3  0  0  0  0  0  0
  161.7290  209.8210  156.9290 C   0  0  0  0  0  3  0  0  0  0  0  0
  162.2540  211.0740  157.2440 C   0  0  0  0  0  3  0  0  0  0  0  0
  160.9180  207.6470  154.8980 C   0  0  0  0  0  2  0  0  0  0  0  0
  158.1610  212.1070  153.1870 C   0  0  1  0  0  3  0  0  0  0  0  0
  159.7860  210.3300  153.1970 N   0  0  0  0  0  0  0  0  0  0  0  0
  157.8960  212.9660  154.3370 N   0  0  2  0  0  0  0  0  0  0  0  0
  159.0660  212.9190  151.1320 O   0  0  0  0  0  1  0  0  0  0  0  0
  158.4440  210.8290  155.2540 C   0  0  1  0  0  3  0  0  0  0  0  0
  1 21  1  0  0  0  0
  2  8  1  0  0  0  0
  3 17  2  0  0  0  0
  4 22  1  0  0  0  0
  5 27  1  6  0  0  0
  5 17  1  0  0  0  0
  5 24  1  0  0  0  0
  6  1  1  0  0  0  0
  8  7  1  0  0  0  0
  9 18  1  1  0  0  0
  9 14  1  0  0  0  0
 10  8  1  6  0  0  0
 12 25  1  1  0  0  0
 12 28  1  0  0  0  0
 13  9  1  0  0  0  0
 13 26  1  0  0  0  0
 14  8  1  0  0  0  0
 15 11  1  1  0  0  0
 15 23  1  0  0  0  0
 16 20  1  0  0  0  0
 16  1  2  0  0  0  0
 17 25  1  0  0  0  0
 19 25  1  0  0  0  0
 19 15  1  0  0  0  0
 20  4  2  0  0  0  0
 21 22  2  0  0  0  0
 23  6  1  0  0  0  0
 24 12  1  0  0  0  0
 24 26  1  0  0  0  0
 26 10  1  0  0  0  0
 28 10  1  0  0  0  0
 28 16  1  0  0  0  0
M  END
>  <MODEL>
1

>  <REMARK>
 VINA RESULT:      -4.0      0.000      0.000
  Name = 
  0 active torsions:
  status: ('A' for Active; 'I' for Inactive)
                            x       y       z     vdW  Elec       q    Type
                         _______ _______ _______ _____ _____    ______ ____

>  <TORSDO>
F 0

$$$$
=
 OpenBabel11122414093D

 28 32  0  0  1  0  0  0  0  0999 V2000
  157.4190  211.5950  156.3330 C   0  0  0  0  0  0  0  0  0  0  0  0
  161.9780  209.3250  155.2230 C   0  0  0  0  0  1  0  0  0  0  0  0
  158.4440  214.1640  152.4360 O   0  0  0  0  0  0  0  0  0  0  0  0
  155.5740  210.5270  154.5720 N   0  0  0  0  0  0  0  0  0  0  0  0
  159.4900  212.0500  151.9260 C   0  0  2  0  0  3  0  0  0  0  0  0
  158.4070  212.2440  157.2540 C   0  0  0  0  0  2  0  0  0  0  0  0
  160.3270  207.6460  155.8830 C   0  0  0  0  0  1  0  0  0  0  0  0
  160.8120  208.4710  154.7080 C   0  0  0  0  0  0  0  0  0  0  0  0
  161.6730  208.3020  152.5920 C   0  0  1  0  0  3  0  0  0  0  0  0
  159.5950  209.3070  154.2000 C   0  0  2  0  0  3  0  0  0  0  0  0
  157.2670  214.3610  155.1470 O   0  0  0  0  0  1  0  0  0  0  0  0
  160.1050  211.6520  154.2830 C   0  0  1  0  0  3  0  0  0  0  0  0
  160.4560  208.9020  151.9090 C   0  0  0  0  0  2  0  0  0  0  0  0
  161.2620  207.5690  153.7170 O   0  0  0  0  0  0  0  0  0  0  0  0
  158.4440  214.4520  155.8950 C   0  0  2  0  0  3  0  0  0  0  0  0
  157.8600  210.8230  155.2430 C   0  0  0  0  0  0  0  0  0  0  0  0
  159.0460  213.1310  152.8310 C   0  0  0  0  0  0  0  0  0  0  0  0
  162.3920  207.3840  151.6250 C   0  0  0  0  0  1  0  0  0  0  0  0
  159.6760  214.0170  155.0980 C   0  0  0  0  0  2  0  0  0  0  0  0
  156.8980  210.3130  154.3550 C   0  0  0  0  0  3  0  0  0  0  0  0
  156.0490  211.7860  156.5420 C   0  0  0  0  0  3  0  0  0  0  0  0
  155.1340  211.2380  155.6430 C   0  0  0  0  0  3  0  0  0  0  0  0
  158.2960  213.7720  157.2610 C   0  0  0  0  0  2  0  0  0  0  0  0
  160.2780  211.1180  152.8510 C   0  0  1  0  0  3  0  0  0  0  0  0
  159.3880  212.9120  154.1870 N   0  0  0  0  0  0  0  0  0  0  0  0
  159.7000  209.7780  152.8090 N   0  0  2  0  0  0  0  0  0  0  0  0
  160.3470  212.5690  150.9550 O   0  0  0  0  0  1  0  0  0  0  0  0
  159.3420  210.5560  155.0390 C   0  0  1  0  0  3  0  0  0  0  0  0
  1 21  1  0  0  0  0
  1  6  1  0  0  0  0
  3 17  2  0  0  0  0
  4 22  1  0  0  0  0
  5 27  1  6  0  0  0
  5 17  1  0  0  0  0
  5 24  1  0  0  0  0
  6 23  1  0  0  0  0
  8  2  1  0  0  0  0
  8  7  1  0  0  0  0
  9 18  1  6  0  0  0
  9 14  1  0  0  0  0
 10  8  1  1  0  0  0
 10 28  1  0  0  0  0
 12 25  1  6  0  0  0
 12 28  1  0  0  0  0
 13  9  1  0  0  0  0
 13 26  1  0  0  0  0
 14  8  1  0  0  0  0
 15 11  1  6  0  0  0
 15 23  1  0  0  0  0
 16  1  2  0  0  0  0
 17 25  1  0  0  0  0
 19 15  1  0  0  0  0
 20  4  2  0  0  0  0
 20 16  1  0  0  0  0
 22 21  2  0  0  0  0
 24 12  1  0  0  0  0
 25 19  1  0  0  0  0
 26 24  1  0  0  0  0
 26 10  1  0  0  0  0
 28 16  1  0  0  0  0
M  END
>  <MODEL>
2

>  <REMARK>
 VINA RESULT:      -2.5      1.787      5.513
  Name = 
  0 active torsions:
  status: ('A' for Active; 'I' for Inactive)
                            x       y       z     vdW  Elec       q    Type
                         _______ _______ _______ _____ _____    ______ ____

>  <TORSDO>
F 0

$$$$
=
 OpenBabel11122414093D

 28 32  0  0  1  0  0  0  0  0999 V2000
  160.8870  209.3140  156.3560 C   0  0  0  0  0  0  0  0  0  0  0  0
  157.3290  211.6630  153.3560 C   0  0  0  0  0  1  0  0  0  0  0  0
  162.5590  207.8090  152.1400 O   0  0  0  0  0  0  0  0  0  0  0  0
  163.1790  210.8520  156.1870 N   0  0  0  0  0  0  0  0  0  0  0  0
  161.6120  209.9530  151.5620 C   0  0  2  0  0  3  0  0  0  0  0  0
  159.6850  208.4220  156.4130 C   0  0  0  0  0  2  0  0  0  0  0  0
  158.0610  213.1620  155.1460 C   0  0  0  0  0  1  0  0  0  0  0  0
  158.4270  212.6540  153.7650 C   0  0  0  0  0  0  0  0  0  0  0  0
  158.8220  213.3380  151.6150 C   0  0  1  0  0  3  0  0  0  0  0  0
  159.8470  212.0120  153.8740 C   0  0  2  0  0  3  0  0  0  0  0  0
  162.1120  206.9530  154.9400 O   0  0  0  0  0  1  0  0  0  0  0  0
  159.7740  209.7110  153.1900 C   0  0  1  0  0  3  0  0  0  0  0  0
  160.2950  212.9690  151.6290 C   0  0  0  0  0  2  0  0  0  0  0  0
  158.4360  213.7670  152.8950 O   0  0  0  0  0  0  0  0  0  0  0  0
  160.7530  206.6390  154.8630 C   0  0  2  0  0  3  0  0  0  0  0  0
  160.9770  210.3290  155.3850 C   0  0  0  0  0  0  0  0  0  0  0  0
  161.6760  208.6880  152.3250 C   0  0  0  0  0  0  0  0  0  0  0  0
  158.5910  214.4530  150.6170 C   0  0  0  0  0  1  0  0  0  0  0  0
  160.0870  207.2300  153.6170 C   0  0  0  0  0  2  0  0  0  0  0  0
  162.1640  211.0780  155.3130 C   0  0  0  0  0  3  0  0  0  0  0  0
  161.9400  209.1150  157.2550 C   0  0  0  0  0  3  0  0  0  0  0  0
  163.0880  209.9010  157.1540 C   0  0  0  0  0  3  0  0  0  0  0  0
  160.0290  206.9480  156.1780 C   0  0  0  0  0  2  0  0  0  0  0  0
  160.3090  210.5910  152.0480 C   0  0  1  0  0  3  0  0  0  0  0  0
  160.6280  208.5390  153.2660 N   0  0  0  0  0  0  0  0  0  0  0  0
  160.5850  211.9130  152.6030 N   0  0  2  0  0  0  0  0  0  0  0  0
  161.5110  209.6770  150.1980 O   0  0  0  0  0  1  0  0  0  0  0  0
  159.8160  210.5970  154.4430 C   0  0  1  0  0  3  0  0  0  0  0  0
  1  6  1  0  0  0  0
  1 21  1  0  0  0  0
  2  8  1  0  0  0  0
  3 17  2  0  0  0  0
  4 22  1  0  0  0  0
  5 27  1  6  0  0  0
  5 24  1  0  0  0  0
  5 17  1  0  0  0  0
  8  7  1  0  0  0  0
  9 18  1  6  0  0  0
  9 13  1  0  0  0  0
  9 14  1  0  0  0  0
 10  8  1  6  0  0  0
 10 28  1  0  0  0  0
 12 25  1  1  0  0  0
 12 28  1  0  0  0  0
 13 26  1  0  0  0  0
 14  8  1  0  0  0  0
 15 11  1  1  0  0  0
 15 23  1  0  0  0  0
 16  1  2  0  0  0  0
 17 25  1  0  0  0  0
 19 15  1  0  0  0  0
 20 16  1  0  0  0  0
 20  4  2  0  0  0  0
 22 21  2  0  0  0  0
 23  6  1  0  0  0  0
 24 26  1  0  0  0  0
 24 12  1  0  0  0  0
 25 19  1  0  0  0  0
 26 10  1  0  0  0  0
 28 16  1  0  0  0  0
M  END
>  <MODEL>
3

>  <REMARK>
 VINA RESULT:      -2.5      2.128      2.894
  Name = 
  0 active torsions:
  status: ('A' for Active; 'I' for Inactive)
                            x       y       z     vdW  Elec       q    Type
                         _______ _______ _______ _____ _____    ______ ____

>  <TORSDO>
F 0

$$$$
