=
 OpenBabel11122413383D

 37 42  0  0  1  0  0  0  0  0999 V2000
  162.3490  210.7090  156.6350 C   0  0  0  0  0  0  0  0  0  0  0  0
  159.0550  211.7800  154.1340 C   0  0  0  0  0  0  0  0  0  0  0  0
  160.3580  212.8870  151.6510 C   0  0  0  0  0  1  0  0  0  0  0  0
  160.2010  212.0900  156.2300 C   0  0  0  0  0  0  0  0  0  0  0  0
  159.2250  210.9870  152.8860 C   0  0  1  0  0  3  0  0  0  0  0  0
  159.9960  211.3990  155.0350 C   0  0  0  0  0  0  0  0  0  0  0  0
  159.2270  211.8620  151.6200 C   0  0  1  0  0  3  0  0  0  0  0  0
  159.3390  213.1600  156.5250 C   0  0  0  0  0  3  0  0  0  0  0  0
  160.8130  210.3050  154.4920 C   0  0  2  0  0  3  0  0  0  0  0  0
  161.8360  209.3740  157.1480 C   0  0  0  0  0  1  0  0  0  0  0  0
  157.2330  213.3740  153.3570 C   0  0  0  0  0  2  0  0  0  0  0  0
  158.3290  213.5330  155.6150 C   0  0  0  0  0  3  0  0  0  0  0  0
  162.5690  210.6560  154.8070 S   0  0  0  0  0  0  0  0  0  0  0  0
  158.1830  212.8490  154.3960 C   0  0  0  0  0  0  0  0  0  0  0  0
  160.5020  210.2560  153.0530 N   0  0  1  0  0  0  0  0  0  0  0  0
  161.4090  211.8410  157.0940 C   0  0  0  0  0  2  0  0  0  0  0  0
  157.9270  212.5310  151.4350 N   0  0  0  0  0  0  0  0  0  0  0  0
  163.7060  210.9520  157.2610 C   0  0  0  0  0  1  0  0  0  0  0  0
  156.9580  212.3980  152.3870 O   0  0  0  0  0  0  0  0  0  0  0  0
  161.3340  208.4340  151.5170 C   0  0  0  0  0  2  0  0  0  0  0  0
  160.9100  207.1400  150.8230 C   0  0  2  0  0  3  0  0  0  0  0  0
  161.3470  205.8170  153.0160 C   0  0  2  0  0  3  0  0  0  0  0  0
  160.4500  206.0400  151.7850 C   0  0  0  0  0  2  0  0  0  0  0  0
  161.4580  206.9500  153.9630 N   0  0  0  0  0  0  0  0  0  0  0  0
  162.6460  207.5920  153.8130 O   0  0  0  0  0  1  0  0  0  0  0  0
  160.3520  207.9200  153.8810 C   0  0  0  0  0  2  0  0  0  0  0  0
  162.6000  205.3120  152.6520 O   0  0  0  0  0  1  0  0  0  0  0  0
  160.3690  208.8490  152.6450 C   0  0  1  0  0  3  0  0  0  0  0  0
  162.2400  207.5620  148.8250 N   0  0  0  0  0  1  0  0  0  0  0  0
  162.0200  206.6320  149.9190 C   0  0  0  0  0  2  0  0  0  0  0  0
  156.3210  213.7310  150.0050 C   0  0  0  0  0  3  0  0  0  0  0  0
  157.6000  213.1880  150.1940 C   0  0  0  0  0  0  0  0  0  0  0  0
  158.5390  213.2820  149.1540 C   0  0  0  0  0  3  0  0  0  0  0  0
  159.1220  213.9970  146.9570 F   0  0  0  0  0  0  0  0  0  0  0  0
  156.9310  214.4520  147.7760 C   0  0  0  0  0  3  0  0  0  0  0  0
  158.2070  213.9120  147.9510 C   0  0  0  0  0  0  0  0  0  0  0  0
  155.9870  214.3620  148.8020 C   0  0  0  0  0  3  0  0  0  0  0  0
  1 16  1  0  0  0  0
  1 10  1  0  0  0  0
  1 18  1  0  0  0  0
  2 14  2  0  0  0  0
  2  6  1  0  0  0  0
  4  8  1  0  0  0  0
  4 16  1  0  0  0  0
  5 15  1  0  0  0  0
  5  2  1  1  0  0  0
  6  4  2  0  0  0  0
  7  3  1  1  0  0  0
  7  5  1  0  0  0  0
  9 13  1  6  0  0  0
  9  6  1  0  0  0  0
 11 14  1  0  0  0  0
 12  8  2  0  0  0  0
 13  1  1  0  0  0  0
 14 12  1  0  0  0  0
 15 28  1  1  0  0  0
 15  9  1  0  0  0  0
 17  7  1  0  0  0  0
 17 19  1  0  0  0  0
 19 11  1  0  0  0  0
 21 30  1  1  0  0  0
 21 20  1  0  0  0  0
 21 23  1  0  0  0  0
 22 27  1  6  0  0  0
 22 24  1  0  0  0  0
 23 22  1  0  0  0  0
 25 24  1  0  0  0  0
 26 24  1  0  0  0  0
 28 20  1  6  0  0  0
 28 26  1  0  0  0  0
 29 30  1  0  0  0  0
 31 32  1  0  0  0  0
 32 17  1  0  0  0  0
 33 32  2  0  0  0  0
 34 36  1  0  0  0  0
 35 36  2  0  0  0  0
 35 37  1  0  0  0  0
 36 33  1  0  0  0  0
 37 31  2  0  0  0  0
M  END
>  <MODEL>
1

>  <REMARK>
 VINA RESULT:      -2.7      0.000      0.000
  Name = 
  3 active torsions:
  status: ('A' for Active; 'I' for Inactive)
    1  A    between atoms: C_4  and  C_37
    2  A    between atoms: N_21  and  C_27
    3  A    between atoms: N_23  and  C_30
                            x       y       z     vdW  Elec       q    Type
                         _______ _______ _______ _____ _____    ______ ____

>  <TORSDO>
F 3

$$$$
=
 OpenBabel11122413383D

 37 42  0  0  1  0  0  0  0  0999 V2000
  161.0840  208.2940  156.0740 C   0  0  0  0  0  0  0  0  0  0  0  0
  160.1560  210.7130  152.6760 C   0  0  0  0  0  0  0  0  0  0  0  0
  162.8010  211.0300  151.2660 C   0  0  0  0  0  1  0  0  0  0  0  0
  160.1870  210.5050  155.0770 C   0  0  0  0  0  0  0  0  0  0  0  0
  160.5440  209.9020  151.4900 C   0  0  1  0  0  3  0  0  0  0  0  0
  160.3020  209.9590  153.7970 C   0  0  0  0  0  0  0  0  0  0  0  0
  161.5090  210.6460  150.5500 C   0  0  1  0  0  3  0  0  0  0  0  0
  159.8280  211.8590  155.1820 C   0  0  0  0  0  3  0  0  0  0  0  0
  160.7330  208.5990  153.4470 C   0  0  2  0  0  3  0  0  0  0  0  0
  159.8850  207.3620  156.0400 C   0  0  0  0  0  1  0  0  0  0  0  0
  159.7760  212.9510  151.5330 C   0  0  0  0  0  2  0  0  0  0  0  0
  159.6300  212.6360  154.0230 C   0  0  0  0  0  3  0  0  0  0  0  0
  162.0940  208.1030  154.5460 S   0  0  0  0  0  0  0  0  0  0  0  0
  159.8040  212.0700  152.7490 C   0  0  0  0  0  0  0  0  0  0  0  0
  161.1490  208.6660  152.0360 N   0  0  1  0  0  0  0  0  0  0  0  0
  160.6130  209.7440  156.3040 C   0  0  0  0  0  2  0  0  0  0  0  0
  160.8680  211.8370  149.9660 N   0  0  0  0  0  0  0  0  0  0  0  0
  161.9440  207.8950  157.2550 C   0  0  0  0  0  1  0  0  0  0  0  0
  159.6110  212.1910  150.3640 O   0  0  0  0  0  0  0  0  0  0  0  0
  161.3900  207.1630  150.0220 C   0  0  0  0  0  2  0  0  0  0  0  0
  160.6130  206.2120  149.1140 C   0  0  2  0  0  3  0  0  0  0  0  0
  160.8930  204.3090  150.8620 C   0  0  2  0  0  3  0  0  0  0  0  0
  159.9800  205.0270  149.8510 C   0  0  0  0  0  2  0  0  0  0  0  0
  161.3500  205.1120  152.0200 N   0  0  0  0  0  0  0  0  0  0  0  0
  162.6420  205.5010  151.8590 O   0  0  0  0  0  1  0  0  0  0  0  0
  160.5070  206.2830  152.3170 C   0  0  0  0  0  2  0  0  0  0  0  0
  161.9540  203.6590  150.2230 O   0  0  0  0  0  1  0  0  0  0  0  0
  160.6490  207.4720  151.3380 C   0  0  1  0  0  3  0  0  0  0  0  0
  162.4010  206.7800  147.5600 N   0  0  0  0  0  1  0  0  0  0  0  0
  161.4900  205.7260  147.9730 C   0  0  0  0  0  2  0  0  0  0  0  0
  160.9350  213.7610  148.4300 C   0  0  0  0  0  3  0  0  0  0  0  0
  161.4740  212.5410  148.8640 C   0  0  0  0  0  0  0  0  0  0  0  0
  162.5940  212.0180  148.1970 C   0  0  0  0  0  3  0  0  0  0  0  0
  164.2480  212.1900  146.4910 F   0  0  0  0  0  0  0  0  0  0  0  0
  162.6240  213.9210  146.7030 C   0  0  0  0  0  3  0  0  0  0  0  0
  163.1670  212.7050  147.1230 C   0  0  0  0  0  0  0  0  0  0  0  0
  161.5070  214.4500  147.3550 C   0  0  0  0  0  3  0  0  0  0  0  0
  1 16  1  0  0  0  0
  1 18  1  0  0  0  0
  2 14  2  0  0  0  0
  2  6  1  0  0  0  0
  4  8  1  0  0  0  0
  4 16  1  0  0  0  0
  5 15  1  0  0  0  0
  5  2  1  1  0  0  0
  6  4  2  0  0  0  0
  7  3  1  1  0  0  0
  7  5  1  0  0  0  0
  9  6  1  1  0  0  0
  9 13  1  0  0  0  0
 10  1  1  0  0  0  0
 11 14  1  0  0  0  0
 12  8  2  0  0  0  0
 13  1  1  0  0  0  0
 14 12  1  0  0  0  0
 15 28  1  6  0  0  0
 15  9  1  0  0  0  0
 17 19  1  0  0  0  0
 17  7  1  0  0  0  0
 19 11  1  0  0  0  0
 21 30  1  6  0  0  0
 21 23  1  0  0  0  0
 21 20  1  0  0  0  0
 22 27  1  6  0  0  0
 22 24  1  0  0  0  0
 23 22  1  0  0  0  0
 24 26  1  0  0  0  0
 25 24  1  0  0  0  0
 28 20  1  6  0  0  0
 28 26  1  0  0  0  0
 29 30  1  0  0  0  0
 31 32  1  0  0  0  0
 32 17  1  0  0  0  0
 33 32  2  0  0  0  0
 34 36  1  0  0  0  0
 35 36  2  0  0  0  0
 35 37  1  0  0  0  0
 36 33  1  0  0  0  0
 37 31  2  0  0  0  0
M  END
>  <MODEL>
2

>  <REMARK>
 VINA RESULT:      -2.7      2.486      3.180
  Name = 
  3 active torsions:
  status: ('A' for Active; 'I' for Inactive)
    1  A    between atoms: C_4  and  C_37
    2  A    between atoms: N_21  and  C_27
    3  A    between atoms: N_23  and  C_30
                            x       y       z     vdW  Elec       q    Type
                         _______ _______ _______ _____ _____    ______ ____

>  <TORSDO>
F 3

$$$$
=
 OpenBabel11122413383D

 37 42  0  0  1  0  0  0  0  0999 V2000
  159.4120  210.8290  154.5540 C   0  0  0  0  0  0  0  0  0  0  0  0
  161.7200  208.1690  152.1350 C   0  0  0  0  0  0  0  0  0  0  0  0
  159.8120  207.3260  149.9580 C   0  0  0  0  0  1  0  0  0  0  0  0
  160.7940  208.6580  154.3050 C   0  0  0  0  0  0  0  0  0  0  0  0
  161.7280  208.7710  150.7730 C   0  0  1  0  0  3  0  0  0  0  0  0
  161.1110  209.0240  152.9960 C   0  0  0  0  0  0  0  0  0  0  0  0
  161.2400  207.7940  149.6880 C   0  0  1  0  0  3  0  0  0  0  0  0
  161.2020  207.3880  154.7470 C   0  0  0  0  0  3  0  0  0  0  0  0
  160.7260  210.2610  152.3030 C   0  0  2  0  0  3  0  0  0  0  0  0
  160.4580  211.9040  154.7920 C   0  0  0  0  0  1  0  0  0  0  0  0
  162.6780  205.8820  151.5740 C   0  0  0  0  0  2  0  0  0  0  0  0
  161.8750  206.5110  153.8720 C   0  0  0  0  0  3  0  0  0  0  0  0
  159.0200  210.6960  152.7590 S   0  0  0  0  0  0  0  0  0  0  0  0
  162.1330  206.8910  152.5440 C   0  0  0  0  0  0  0  0  0  0  0  0
  160.8630  209.9690  150.8660 N   0  0  1  0  0  0  0  0  0  0  0  0
  159.8860  209.4950  155.1650 C   0  0  0  0  0  2  0  0  0  0  0  0
  162.1480  206.6400  149.5660 N   0  0  0  0  0  0  0  0  0  0  0  0
  158.1490  211.2460  155.2770 C   0  0  0  0  0  1  0  0  0  0  0  0
  163.1960  206.5110  150.4310 O   0  0  0  0  0  0  0  0  0  0  0  0
  161.3460  211.1150  148.6690 C   0  0  0  0  0  2  0  0  0  0  0  0
  162.3300  212.0580  147.9790 C   0  0  2  0  0  3  0  0  0  0  0  0
  161.1280  214.0980  149.0490 C   0  0  2  0  0  3  0  0  0  0  0  0
  162.4570  213.4270  148.6550 C   0  0  0  0  0  2  0  0  0  0  0  0
  160.3090  213.3920  150.0610 N   0  0  0  0  0  0  0  0  0  0  0  0
  159.2590  212.7570  149.4770 O   0  0  0  0  0  1  0  0  0  0  0  0
  161.0640  212.4440  150.8990 C   0  0  0  0  0  2  0  0  0  0  0  0
  160.3790  214.4530  147.9220 O   0  0  0  0  0  1  0  0  0  0  0  0
  161.4830  211.1270  150.2040 C   0  0  1  0  0  3  0  0  0  0  0  0
  162.7620  213.2870  145.9200 N   0  0  0  0  0  1  0  0  0  0  0  0
  161.9770  212.2160  146.5100 C   0  0  0  0  0  2  0  0  0  0  0  0
  162.3840  206.1690  147.1600 C   0  0  0  0  0  3  0  0  0  0  0  0
  162.0490  205.7320  148.4510 C   0  0  0  0  0  0  0  0  0  0  0  0
  161.6040  204.4120  148.6270 C   0  0  0  0  0  3  0  0  0  0  0  0
  161.0740  202.2730  147.7200 F   0  0  0  0  0  0  0  0  0  0  0  0
  161.8430  203.9890  146.2560 C   0  0  0  0  0  3  0  0  0  0  0  0
  161.5030  203.5440  147.5360 C   0  0  0  0  0  0  0  0  0  0  0  0
  162.2830  205.3020  146.0670 C   0  0  0  0  0  3  0  0  0  0  0  0
  1 10  1  0  0  0  0
  1 16  1  0  0  0  0
  1 18  1  0  0  0  0
  2 14  2  0  0  0  0
  2  6  1  0  0  0  0
  4  8  1  0  0  0  0
  4 16  1  0  0  0  0
  5 15  1  0  0  0  0
  5  2  1  1  0  0  0
  6  4  2  0  0  0  0
  7  3  1  1  0  0  0
  7  5  1  0  0  0  0
  9 13  1  6  0  0  0
  9  6  1  0  0  0  0
 11 14  1  0  0  0  0
 12  8  2  0  0  0  0
 13  1  1  0  0  0  0
 14 12  1  0  0  0  0
 15 28  1  6  0  0  0
 15  9  1  0  0  0  0
 17  7  1  0  0  0  0
 17 19  1  0  0  0  0
 19 11  1  0  0  0  0
 21 30  1  6  0  0  0
 21 23  1  0  0  0  0
 21 20  1  0  0  0  0
 22 27  1  6  0  0  0
 22 24  1  0  0  0  0
 23 22  1  0  0  0  0
 24 26  1  0  0  0  0
 25 24  1  0  0  0  0
 28 20  1  6  0  0  0
 28 26  1  0  0  0  0
 29 30  1  0  0  0  0
 31 32  1  0  0  0  0
 32 33  2  0  0  0  0
 32 17  1  0  0  0  0
 35 36  2  0  0  0  0
 36 34  1  0  0  0  0
 36 33  1  0  0  0  0
 37 35  1  0  0  0  0
 37 31  2  0  0  0  0
M  END
>  <MODEL>
3

>  <REMARK>
 VINA RESULT:      -2.7      3.462      7.270
  Name = 
  3 active torsions:
  status: ('A' for Active; 'I' for Inactive)
    1  A    between atoms: C_4  and  C_37
    2  A    between atoms: N_21  and  C_27
    3  A    between atoms: N_23  and  C_30
                            x       y       z     vdW  Elec       q    Type
                         _______ _______ _______ _____ _____    ______ ____

>  <TORSDO>
F 3

$$$$
=
 OpenBabel11122413383D

 37 42  0  0  1  0  0  0  0  0999 V2000
  161.2730  210.3970  154.6460 C   0  0  0  0  0  0  0  0  0  0  0  0
  160.1770  211.8720  150.7880 C   0  0  0  0  0  0  0  0  0  0  0  0
  162.8020  212.0820  149.3190 C   0  0  0  0  0  1  0  0  0  0  0  0
  160.1990  212.2300  153.1710 C   0  0  0  0  0  0  0  0  0  0  0  0
  160.6470  210.8450  149.8190 C   0  0  1  0  0  3  0  0  0  0  0  0
  160.3750  211.4150  152.0520 C   0  0  0  0  0  0  0  0  0  0  0  0
  161.5560  211.4320  148.7240 C   0  0  1  0  0  3  0  0  0  0  0  0
  159.7230  213.5350  152.9630 C   0  0  0  0  0  3  0  0  0  0  0  0
  160.9260  210.0530  152.0230 C   0  0  2  0  0  3  0  0  0  0  0  0
  160.1590  209.3830  154.8390 C   0  0  0  0  0  1  0  0  0  0  0  0
  159.6190  213.7420  149.1600 C   0  0  0  0  0  2  0  0  0  0  0  0
  159.4720  214.0020  151.6570 C   0  0  0  0  0  3  0  0  0  0  0  0
  162.3130  209.9450  153.1950 S   0  0  0  0  0  0  0  0  0  0  0  0
  159.7090  213.1730  150.5470 C   0  0  0  0  0  0  0  0  0  0  0  0
  161.3520  209.8270  150.6320 N   0  0  1  0  0  0  0  0  0  0  0  0
  160.6750  211.8140  154.5380 C   0  0  0  0  0  2  0  0  0  0  0  0
  160.8210  212.3950  147.8850 N   0  0  0  0  0  0  0  0  0  0  0  0
  162.1500  210.3590  155.8790 C   0  0  0  0  0  1  0  0  0  0  0  0
  159.5340  212.7210  148.2020 O   0  0  0  0  0  0  0  0  0  0  0  0
  161.9510  207.7960  149.2570 C   0  0  0  0  0  2  0  0  0  0  0  0
  161.3460  206.5950  148.5330 C   0  0  2  0  0  3  0  0  0  0  0  0
  161.1860  205.3130  150.7890 C   0  0  2  0  0  3  0  0  0  0  0  0
  160.5300  205.6680  149.4410 C   0  0  0  0  0  2  0  0  0  0  0  0
  161.4210  206.4390  151.7220 N   0  0  0  0  0  0  0  0  0  0  0  0
  162.7310  206.7990  151.7270 O   0  0  0  0  0  1  0  0  0  0  0  0
  160.5780  207.6210  151.4720 C   0  0  0  0  0  2  0  0  0  0  0  0
  162.3320  204.5320  150.6100 O   0  0  0  0  0  1  0  0  0  0  0  0
  160.9640  208.4650  150.2340 C   0  0  1  0  0  3  0  0  0  0  0  0
  161.8660  204.5920  147.2470 N   0  0  0  0  0  1  0  0  0  0  0  0
  162.4230  205.8140  147.8010 C   0  0  0  0  0  2  0  0  0  0  0  0
  162.5370  213.6630  146.6540 C   0  0  0  0  0  3  0  0  0  0  0  0
  161.3760  212.8740  146.6440 C   0  0  0  0  0  0  0  0  0  0  0  0
  160.7660  212.5790  145.4140 C   0  0  0  0  0  3  0  0  0  0  0  0
  160.7110  212.7640  143.0390 F   0  0  0  0  0  0  0  0  0  0  0  0
  162.4660  213.8390  144.2400 C   0  0  0  0  0  3  0  0  0  0  0  0
  161.3080  213.0570  144.2180 C   0  0  0  0  0  0  0  0  0  0  0  0
  163.0810  214.1420  145.4580 C   0  0  0  0  0  3  0  0  0  0  0  0
  1 10  1  0  0  0  0
  1 18  1  0  0  0  0
  2  6  1  0  0  0  0
  4 16  1  0  0  0  0
  5 15  1  0  0  0  0
  5  2  1  1  0  0  0
  6  4  2  0  0  0  0
  7  3  1  1  0  0  0
  7  5  1  0  0  0  0
  8  4  1  0  0  0  0
  9  6  1  6  0  0  0
  9 13  1  0  0  0  0
 11 14  1  0  0  0  0
 12  8  2  0  0  0  0
 13  1  1  0  0  0  0
 14  2  2  0  0  0  0
 14 12  1  0  0  0  0
 15 28  1  6  0  0  0
 15  9  1  0  0  0  0
 16  1  1  0  0  0  0
 17 19  1  0  0  0  0
 17  7  1  0  0  0  0
 19 11  1  0  0  0  0
 21 30  1  1  0  0  0
 21 20  1  0  0  0  0
 21 23  1  0  0  0  0
 22 27  1  6  0  0  0
 22 24  1  0  0  0  0
 23 22  1  0  0  0  0
 24 25  1  0  0  0  0
 26 24  1  0  0  0  0
 28 20  1  1  0  0  0
 28 26  1  0  0  0  0
 29 30  1  0  0  0  0
 32 31  1  0  0  0  0
 32 17  1  0  0  0  0
 33 32  2  0  0  0  0
 34 36  1  0  0  0  0
 35 37  1  0  0  0  0
 36 35  2  0  0  0  0
 36 33  1  0  0  0  0
 37 31  2  0  0  0  0
M  END
>  <MODEL>
4

>  <REMARK>
 VINA RESULT:      -1.8      2.849      3.811
  Name = 
  3 active torsions:
  status: ('A' for Active; 'I' for Inactive)
    1  A    between atoms: C_4  and  C_37
    2  A    between atoms: N_21  and  C_27
    3  A    between atoms: N_23  and  C_30
                            x       y       z     vdW  Elec       q    Type
                         _______ _______ _______ _____ _____    ______ ____

>  <TORSDO>
F 3

$$$$
=
 OpenBabel11122413383D

 37 42  0  0  1  0  0  0  0  0999 V2000
  161.3700  210.1060  156.1520 C   0  0  0  0  0  0  0  0  0  0  0  0
  159.6840  211.7910  152.6050 C   0  0  0  0  0  0  0  0  0  0  0  0
  162.0750  212.3190  150.8450 C   0  0  0  0  0  1  0  0  0  0  0  0
  159.9920  211.9600  154.9890 C   0  0  0  0  0  0  0  0  0  0  0  0
  160.0920  210.8830  151.4980 C   0  0  1  0  0  3  0  0  0  0  0  0
  160.0760  211.2520  153.7890 C   0  0  0  0  0  0  0  0  0  0  0  0
  160.8080  211.6230  150.3550 C   0  0  1  0  0  3  0  0  0  0  0  0
  159.4070  213.2370  154.9580 C   0  0  0  0  0  3  0  0  0  0  0  0
  160.7080  209.9440  153.5720 C   0  0  2  0  0  3  0  0  0  0  0  0
  160.3610  208.9960  156.3920 C   0  0  0  0  0  1  0  0  0  0  0  0
  158.7940  213.7340  151.2300 C   0  0  0  0  0  2  0  0  0  0  0  0
  158.9570  213.7840  153.7390 C   0  0  0  0  0  3  0  0  0  0  0  0
  162.2400  209.8520  154.5480 S   0  0  0  0  0  0  0  0  0  0  0  0
  159.1020  213.0660  152.5400 C   0  0  0  0  0  0  0  0  0  0  0  0
  160.9630  209.8620  152.1240 N   0  0  1  0  0  0  0  0  0  0  0  0
  160.6700  211.4760  156.2440 C   0  0  0  0  0  2  0  0  0  0  0  0
  159.9070  212.5890  149.7020 N   0  0  0  0  0  0  0  0  0  0  0  0
  162.4020  210.0390  157.2580 C   0  0  0  0  0  1  0  0  0  0  0  0
  158.6530  212.7890  150.2040 O   0  0  0  0  0  0  0  0  0  0  0  0
  161.4390  208.0420  150.4410 C   0  0  0  0  0  2  0  0  0  0  0  0
  160.8020  206.8560  149.7180 C   0  0  2  0  0  3  0  0  0  0  0  0
  161.2150  205.3610  151.8030 C   0  0  2  0  0  3  0  0  0  0  0  0
  160.2710  205.7690  150.6580 C   0  0  0  0  0  2  0  0  0  0  0  0
  161.5400  206.4140  152.7940 N   0  0  0  0  0  0  0  0  0  0  0  0
  162.7880  206.9070  152.5840 O   0  0  0  0  0  1  0  0  0  0  0  0
  160.5670  207.5190  152.8460 C   0  0  0  0  0  2  0  0  0  0  0  0
  162.3630  204.7240  151.3190 O   0  0  0  0  0  1  0  0  0  0  0  0
  160.6190  208.5100  151.6590 C   0  0  1  0  0  3  0  0  0  0  0  0
  162.5980  207.3130  148.1360 N   0  0  0  0  0  1  0  0  0  0  0  0
  161.7700  206.2650  148.7070 C   0  0  0  0  0  2  0  0  0  0  0  0
  161.5050  213.8410  148.3070 C   0  0  0  0  0  3  0  0  0  0  0  0
  160.2620  213.2060  148.4490 C   0  0  0  0  0  0  0  0  0  0  0  0
  159.3750  213.2010  147.3600 C   0  0  0  0  0  3  0  0  0  0  0  0
  158.8630  213.7970  145.1100 F   0  0  0  0  0  0  0  0  0  0  0  0
  160.9700  214.4370  146.0230 C   0  0  0  0  0  3  0  0  0  0  0  0
  159.7270  213.8110  146.1530 C   0  0  0  0  0  0  0  0  0  0  0  0
  161.8590  214.4530  147.1000 C   0  0  0  0  0  3  0  0  0  0  0  0
  1 16  1  0  0  0  0
  1 10  1  0  0  0  0
  1 18  1  0  0  0  0
  2  6  1  0  0  0  0
  4 16  1  0  0  0  0
  5 15  1  0  0  0  0
  5  2  1  1  0  0  0
  6  4  2  0  0  0  0
  7  3  1  1  0  0  0
  7  5  1  0  0  0  0
  8  4  1  0  0  0  0
  9  6  1  6  0  0  0
  9 13  1  0  0  0  0
 11 14  1  0  0  0  0
 12  8  2  0  0  0  0
 13  1  1  0  0  0  0
 14  2  2  0  0  0  0
 14 12  1  0  0  0  0
 15 28  1  6  0  0  0
 15  9  1  0  0  0  0
 17 19  1  0  0  0  0
 17  7  1  0  0  0  0
 19 11  1  0  0  0  0
 21 30  1  6  0  0  0
 21 20  1  0  0  0  0
 21 23  1  0  0  0  0
 22 27  1  6  0  0  0
 22 24  1  0  0  0  0
 23 22  1  0  0  0  0
 24 26  1  0  0  0  0
 25 24  1  0  0  0  0
 28 20  1  6  0  0  0
 28 26  1  0  0  0  0
 29 30  1  0  0  0  0
 31 32  1  0  0  0  0
 32 17  1  0  0  0  0
 33 32  2  0  0  0  0
 34 36  1  0  0  0  0
 35 36  2  0  0  0  0
 35 37  1  0  0  0  0
 36 33  1  0  0  0  0
 37 31  2  0  0  0  0
M  END
>  <MODEL>
5

>  <REMARK>
 VINA RESULT:      -1.3      1.721      2.246
  Name = 
  3 active torsions:
  status: ('A' for Active; 'I' for Inactive)
    1  A    between atoms: C_4  and  C_37
    2  A    between atoms: N_21  and  C_27
    3  A    between atoms: N_23  and  C_30
                            x       y       z     vdW  Elec       q    Type
                         _______ _______ _______ _____ _____    ______ ____

>  <TORSDO>
F 3

$$$$
=
 OpenBabel11122413383D

 37 42  0  0  1  0  0  0  0  0999 V2000
  162.1140  206.2770  147.7310 C   0  0  0  0  0  0  0  0  0  0  0  0
  160.9750  207.8960  151.5170 C   0  0  0  0  0  0  0  0  0  0  0  0
  163.4560  209.3130  152.4770 C   0  0  0  0  0  1  0  0  0  0  0  0
  161.2660  205.9330  150.1500 C   0  0  0  0  0  0  0  0  0  0  0  0
  161.1650  209.3670  151.3970 C   0  0  1  0  0  3  0  0  0  0  0  0
  161.1950  207.3180  150.3080 C   0  0  0  0  0  0  0  0  0  0  0  0
  162.0660  209.9430  152.5030 C   0  0  1  0  0  3  0  0  0  0  0  0
  161.0190  205.1310  151.2760 C   0  0  0  0  0  3  0  0  0  0  0  0
  161.4850  208.3430  149.2960 C   0  0  2  0  0  3  0  0  0  0  0  0
  160.8550  206.6000  146.9440 C   0  0  0  0  0  1  0  0  0  0  0  0
  160.6260  207.7350  154.0300 C   0  0  0  0  0  2  0  0  0  0  0  0
  160.7450  205.7230  152.5260 C   0  0  0  0  0  3  0  0  0  0  0  0
  162.9250  207.8240  148.3150 S   0  0  0  0  0  0  0  0  0  0  0  0
  160.7310  207.1220  152.6630 C   0  0  0  0  0  0  0  0  0  0  0  0
  161.7400  209.5830  150.0500 N   0  0  1  0  0  0  0  0  0  0  0  0
  161.7760  205.3060  148.8790 C   0  0  0  0  0  2  0  0  0  0  0  0
  161.4480  209.7770  153.8310 N   0  0  0  0  0  0  0  0  0  0  0  0
  163.0730  205.5710  146.7960 C   0  0  0  0  0  1  0  0  0  0  0  0
  160.2740  209.0910  153.9480 O   0  0  0  0  0  0  0  0  0  0  0  0
  161.0690  212.0140  150.1680 C   0  0  0  0  0  2  0  0  0  0  0  0
  160.0400  213.0180  149.6540 C   0  0  2  0  0  3  0  0  0  0  0  0
  161.3700  213.2490  147.4330 C   0  0  2  0  0  3  0  0  0  0  0  0
  159.9990  213.1400  148.1270 C   0  0  0  0  0  2  0  0  0  0  0  0
  162.2700  212.0800  147.5690 N   0  0  0  0  0  0  0  0  0  0  0  0
  163.2490  212.3260  148.4780 O   0  0  0  0  0  1  0  0  0  0  0  0
  161.5820  210.8200  147.9020 C   0  0  0  0  0  2  0  0  0  0  0  0
  162.0140  214.4480  147.7560 O   0  0  0  0  0  1  0  0  0  0  0  0
  161.0790  210.7000  149.3600 C   0  0  1  0  0  3  0  0  0  0  0  0
  159.5420  214.4530  151.5590 N   0  0  0  0  0  1  0  0  0  0  0  0
  160.2540  214.3780  150.2950 C   0  0  0  0  0  2  0  0  0  0  0  0
  161.1000  210.9250  155.9820 C   0  0  0  0  0  3  0  0  0  0  0  0
  161.9720  210.4640  154.9850 C   0  0  0  0  0  0  0  0  0  0  0  0
  163.3500  210.7000  155.1250 C   0  0  0  0  0  3  0  0  0  0  0  0
  165.1750  211.5950  156.3680 F   0  0  0  0  0  0  0  0  0  0  0  0
  162.9670  211.8270  157.2320 C   0  0  0  0  0  3  0  0  0  0  0  0
  163.8450  211.3760  156.2440 C   0  0  0  0  0  0  0  0  0  0  0  0
  161.5940  211.6020  157.1020 C   0  0  0  0  0  3  0  0  0  0  0  0
  1 13  1  0  0  0  0
  1 16  1  0  0  0  0
  2 14  1  0  0  0  0
  4  6  1  0  0  0  0
  4  8  2  0  0  0  0
  5  2  1  1  0  0  0
  5  7  1  0  0  0  0
  6  2  2  0  0  0  0
  7  3  1  1  0  0  0
  7 17  1  0  0  0  0
  8 12  1  0  0  0  0
  9 13  1  1  0  0  0
  9 15  1  0  0  0  0
  9  6  1  0  0  0  0
 10  1  1  0  0  0  0
 12 14  2  0  0  0  0
 14 11  1  0  0  0  0
 15 28  1  6  0  0  0
 15  5  1  0  0  0  0
 16  4  1  0  0  0  0
 17 19  1  0  0  0  0
 17 32  1  0  0  0  0
 18  1  1  0  0  0  0
 19 11  1  0  0  0  0
 21 20  1  0  0  0  0
 21 30  1  1  0  0  0
 22 24  1  0  0  0  0
 22 27  1  1  0  0  0
 22 23  1  0  0  0  0
 23 21  1  0  0  0  0
 24 26  1  0  0  0  0
 24 25  1  0  0  0  0
 28 26  1  6  0  0  0
 28 20  1  0  0  0  0
 30 29  1  0  0  0  0
 31 37  1  0  0  0  0
 32 33  1  0  0  0  0
 32 31  2  0  0  0  0
 33 36  2  0  0  0  0
 36 34  1  0  0  0  0
 36 35  1  0  0  0  0
 37 35  2  0  0  0  0
M  END
>  <MODEL>
6

>  <REMARK>
 VINA RESULT:      -1.0      3.442      7.922
  Name = 
  3 active torsions:
  status: ('A' for Active; 'I' for Inactive)
    1  A    between atoms: C_4  and  C_37
    2  A    between atoms: N_21  and  C_27
    3  A    between atoms: N_23  and  C_30
                            x       y       z     vdW  Elec       q    Type
                         _______ _______ _______ _____ _____    ______ ____

>  <TORSDO>
F 3

$$$$
=
 OpenBabel11122413383D

 37 42  0  0  1  0  0  0  0  0999 V2000
  161.8050  210.4200  154.3840 C   0  0  0  0  0  0  0  0  0  0  0  0
  160.5720  211.4970  150.4370 C   0  0  0  0  0  0  0  0  0  0  0  0
  163.0880  212.5540  149.1540 C   0  0  0  0  0  1  0  0  0  0  0  0
  160.3070  211.8220  152.8100 C   0  0  0  0  0  0  0  0  0  0  0  0
  161.4160  210.6850  149.5190 C   0  0  1  0  0  3  0  0  0  0  0  0
  160.8160  211.1170  151.7190 C   0  0  0  0  0  0  0  0  0  0  0  0
  162.1630  211.5420  148.4820 C   0  0  1  0  0  3  0  0  0  0  0  0
  159.4530  212.9070  152.5500 C   0  0  0  0  0  3  0  0  0  0  0  0
  161.7760  210.0060  151.7490 C   0  0  2  0  0  3  0  0  0  0  0  0
  161.0660  209.0990  154.5130 C   0  0  0  0  0  1  0  0  0  0  0  0
  159.5600  213.1030  148.7460 C   0  0  0  0  0  2  0  0  0  0  0  0
  159.1590  213.2790  151.2220 C   0  0  0  0  0  3  0  0  0  0  0  0
  163.0360  210.3390  153.0170 S   0  0  0  0  0  0  0  0  0  0  0  0
  159.7290  212.5810  150.1450 C   0  0  0  0  0  0  0  0  0  0  0  0
  162.3500  209.9400  150.3940 N   0  0  1  0  0  0  0  0  0  0  0  0
  160.7930  211.5700  154.2130 C   0  0  0  0  0  2  0  0  0  0  0  0
  161.2200  212.2250  147.5790 N   0  0  0  0  0  0  0  0  0  0  0  0
  162.5580  210.6550  155.6770 C   0  0  0  0  0  1  0  0  0  0  0  0
  159.8770  212.1170  147.7990 O   0  0  0  0  0  0  0  0  0  0  0  0
  161.1920  207.6990  150.3100 C   0  0  0  0  0  2  0  0  0  0  0  0
  161.4530  206.1940  150.2860 C   0  0  2  0  0  3  0  0  0  0  0  0
  161.9210  206.3140  147.7320 C   0  0  2  0  0  3  0  0  0  0  0  0
  162.3100  205.7310  149.1030 C   0  0  0  0  0  2  0  0  0  0  0  0
  162.0520  207.7810  147.5800 N   0  0  0  0  0  0  0  0  0  0  0  0
  160.8360  208.3850  147.6440 O   0  0  0  0  0  1  0  0  0  0  0  0
  162.9750  208.4110  148.5400 C   0  0  0  0  0  2  0  0  0  0  0  0
  160.6660  205.8530  147.3180 O   0  0  0  0  0  1  0  0  0  0  0  0
  162.4500  208.5300  149.9900 C   0  0  1  0  0  3  0  0  0  0  0  0
  160.4050  204.0070  150.5210 N   0  0  0  0  0  1  0  0  0  0  0  0
  160.1450  205.4240  150.3330 C   0  0  0  0  0  2  0  0  0  0  0  0
  162.7130  213.8140  146.4340 C   0  0  0  0  0  3  0  0  0  0  0  0
  161.6790  212.8680  146.3740 C   0  0  0  0  0  0  0  0  0  0  0  0
  161.0960  212.5780  145.1290 C   0  0  0  0  0  3  0  0  0  0  0  0
  160.9740  212.9240  142.7750 F   0  0  0  0  0  0  0  0  0  0  0  0
  162.5770  214.1520  144.0410 C   0  0  0  0  0  3  0  0  0  0  0  0
  161.5430  213.2150  143.9690 C   0  0  0  0  0  0  0  0  0  0  0  0
  163.1620  214.4530  145.2740 C   0  0  0  0  0  3  0  0  0  0  0  0
  1 10  1  0  0  0  0
  1 18  1  0  0  0  0
  2  6  1  0  0  0  0
  4 16  1  0  0  0  0
  5 15  1  0  0  0  0
  5  2  1  1  0  0  0
  6  4  2  0  0  0  0
  7  3  1  1  0  0  0
  7  5  1  0  0  0  0
  8  4  1  0  0  0  0
  9  6  1  6  0  0  0
  9 13  1  0  0  0  0
 11 14  1  0  0  0  0
 12  8  2  0  0  0  0
 13  1  1  0  0  0  0
 14  2  2  0  0  0  0
 14 12  1  0  0  0  0
 15 28  1  6  0  0  0
 15  9  1  0  0  0  0
 16  1  1  0  0  0  0
 17 19  1  0  0  0  0
 17  7  1  0  0  0  0
 19 11  1  0  0  0  0
 21 20  1  0  0  0  0
 21 30  1  6  0  0  0
 22 27  1  1  0  0  0
 22 23  1  0  0  0  0
 23 21  1  0  0  0  0
 24 25  1  0  0  0  0
 24 22  1  0  0  0  0
 24 26  1  0  0  0  0
 28 26  1  6  0  0  0
 28 20  1  0  0  0  0
 30 29  1  0  0  0  0
 32 31  1  0  0  0  0
 32 17  1  0  0  0  0
 33 32  2  0  0  0  0
 34 36  1  0  0  0  0
 35 37  1  0  0  0  0
 36 35  2  0  0  0  0
 36 33  1  0  0  0  0
 37 31  2  0  0  0  0
M  END
>  <MODEL>
7

>  <REMARK>
 VINA RESULT:      -0.1      3.328      4.570
  Name = 
  3 active torsions:
  status: ('A' for Active; 'I' for Inactive)
    1  A    between atoms: C_4  and  C_37
    2  A    between atoms: N_21  and  C_27
    3  A    between atoms: N_23  and  C_30
                            x       y       z     vdW  Elec       q    Type
                         _______ _______ _______ _____ _____    ______ ____

>  <TORSDO>
F 3

$$$$
