=
 OpenBabel11122414313D

 34 40  0  0  1  0  0  0  0  0999 V2000
  161.3140  204.4350  151.5880 C   0  0  0  0  0  0  0  0  0  0  0  0
  160.2700  205.6290  153.5180 C   0  0  0  0  0  2  0  0  0  0  0  0
  161.3120  204.1690  144.8540 C   0  0  0  0  0  2  0  0  0  0  0  0
  161.1880  204.0920  149.1860 C   0  0  0  0  0  0  0  0  0  0  0  0
  160.9650  206.1030  147.7730 C   0  0  0  0  0  0  0  0  0  0  0  0
  159.6910  205.9080  145.5550 C   0  0  0  0  0  2  0  0  0  0  0  0
  160.7250  205.5310  144.5060 C   0  0  0  0  0  2  0  0  0  0  0  0
  163.1000  205.0420  145.9850 C   0  0  0  0  0  2  0  0  0  0  0  0
  162.1060  206.7010  152.4250 C   0  0  1  0  0  3  0  0  0  0  0  0
  160.6750  209.5530  152.6350 C   0  0  0  0  0  2  0  0  0  0  0  0
  161.1920  206.8550  148.8130 N   0  0  0  0  0  0  0  0  0  0  0  0
  162.8150  204.4440  147.3640 C   0  0  0  0  0  2  0  0  0  0  0  0
  161.5210  207.2350  151.1720 N   0  0  2  0  0  0  0  0  0  0  0  0
  160.3100  206.9560  153.9870 O   0  0  0  0  0  0  0  0  0  0  0  0
  161.3570  204.6370  147.7960 C   0  0  1  0  0  3  0  0  0  0  0  0
  162.7180  204.1900  144.9300 O   0  0  0  0  0  0  0  0  0  0  0  0
  161.6560  208.9720  153.6500 C   0  0  2  0  0  3  0  0  0  0  0  0
  161.4150  204.9340  150.2870 C   0  0  0  0  0  0  0  0  0  0  0  0
  160.2910  206.6730  146.6430 N   0  0  0  0  0  2  0  0  0  0  0  0
  161.8410  206.3570  150.0360 C   0  0  1  0  0  3  0  0  0  0  0  0
  160.7430  202.2520  150.6930 C   0  0  0  0  0  3  0  0  0  0  0  0
  161.3080  209.6830  151.2520 C   0  0  0  0  0  2  0  0  0  0  0  0
  160.8530  202.7490  149.3910 C   0  0  0  0  0  3  0  0  0  0  0  0
  162.2000  208.4980  150.8930 C   0  0  0  0  0  2  0  0  0  0  0  0
  161.5900  207.4390  153.6630 C   0  0  2  0  0  3  0  0  0  0  0  0
  160.9750  203.0900  151.7880 C   0  0  0  0  0  3  0  0  0  0  0  0
  161.5530  205.3310  152.7640 C   0  0  2  0  0  3  0  0  0  0  0  0
  161.3610  209.5110  155.0390 C   0  0  0  0  0  2  0  0  0  0  0  0
  161.5290  211.0220  155.0660 C   0  0  0  0  0  2  0  0  0  0  0  0
  158.2110  212.2960  154.8740 C   0  0  0  0  0  2  0  0  0  0  0  0
  159.4330  210.5670  156.0130 C   0  0  0  0  0  2  0  0  0  0  0  0
  160.3660  211.6360  155.6830 N   0  0  0  0  0  0  0  0  0  0  0  0
  158.0350  211.0790  155.7480 C   0  0  0  0  0  2  0  0  0  0  0  0
  159.7020  212.4170  154.6520 C   0  0  0  0  0  2  0  0  0  0  0  0
  1 26  1  0  0  0  0
  1 27  1  0  0  0  0
  2 14  1  0  0  0  0
  3 16  1  0  0  0  0
  4 23  2  0  0  0  0
  4 18  1  0  0  0  0
  5 15  1  0  0  0  0
  5 11  2  0  0  0  0
  6 19  1  0  0  0  0
  7  3  1  0  0  0  0
  7  6  1  0  0  0  0
  8 12  1  0  0  0  0
  9 27  1  0  0  0  0
  9 25  1  0  0  0  0
 10 17  1  0  0  0  0
 11 20  1  0  0  0  0
 12 15  1  0  0  0  0
 13  9  1  0  0  0  0
 15  4  1  0  0  0  0
 16  8  1  0  0  0  0
 17 25  1  0  0  0  0
 17 28  1  0  0  0  0
 18  1  2  0  0  0  0
 19  5  1  0  0  0  0
 20 18  1  0  0  0  0
 20 13  1  0  0  0  0
 21 26  2  0  0  0  0
 22 10  1  0  0  0  0
 23 21  1  0  0  0  0
 24 13  1  0  0  0  0
 24 22  1  0  0  0  0
 25 14  1  0  0  0  0
 27  2  1  0  0  0  0
 28 29  1  0  0  0  0
 29 32  1  0  0  0  0
 30 33  1  0  0  0  0
 32 31  1  0  0  0  0
 33 31  1  0  0  0  0
 34 30  1  0  0  0  0
 34 32  1  0  0  0  0
M  END
>  <MODEL>
1

>  <REMARK>
 VINA RESULT:      -9.5      0.000      0.000
  Name = 
  3 active torsions:
  status: ('A' for Active; 'I' for Inactive)
    1  A    between atoms: C_17  and  C_28
    2  A    between atoms: C_28  and  C_29
    3  A    between atoms: C_29  and  N_32
                            x       y       z     vdW  Elec       q    Type
                         _______ _______ _______ _____ _____    ______ ____

>  <TORSDO>
F 3

$$$$
=
 OpenBabel11122414313D

 34 40  0  0  1  0  0  0  0  0999 V2000
  161.7650  208.9600  150.3670 C   0  0  0  0  0  0  0  0  0  0  0  0
  160.7830  207.3140  148.7660 C   0  0  0  0  0  2  0  0  0  0  0  0
  160.8610  211.6290  156.4900 C   0  0  0  0  0  2  0  0  0  0  0  0
  161.3720  210.1600  152.4440 C   0  0  0  0  0  0  0  0  0  0  0  0
  160.5420  208.8450  154.3610 C   0  0  0  0  0  0  0  0  0  0  0  0
  159.0330  210.0050  156.0810 C   0  0  0  0  0  2  0  0  0  0  0  0
  159.9630  210.5820  157.1370 C   0  0  0  0  0  2  0  0  0  0  0  0
  162.5730  210.1620  156.0990 C   0  0  0  0  0  2  0  0  0  0  0  0
  162.1850  206.4570  150.5010 C   0  0  1  0  0  3  0  0  0  0  0  0
  160.2440  203.9570  150.9500 C   0  0  0  0  0  2  0  0  0  0  0  0
  160.7550  207.7460  153.6960 N   0  0  0  0  0  0  0  0  0  0  0  0
  162.6160  210.2580  154.5730 C   0  0  0  0  0  2  0  0  0  0  0  0
  161.3310  206.4990  151.7120 N   0  0  2  0  0  0  0  0  0  0  0  0
  160.6150  205.9170  148.7760 O   0  0  0  0  0  0  0  0  0  0  0  0
  161.2260  210.1330  153.9390 C   0  0  1  0  0  3  0  0  0  0  0  0
  162.2280  211.3820  156.7140 O   0  0  0  0  0  0  0  0  0  0  0  0
  161.4570  203.9870  150.0250 C   0  0  2  0  0  3  0  0  0  0  0  0
  161.5750  208.9540  151.7510 C   0  0  0  0  0  0  0  0  0  0  0  0
  159.6120  208.8230  155.4520 N   0  0  0  0  0  2  0  0  0  0  0  0
  161.6590  207.6720  152.5370 C   0  0  1  0  0  3  0  0  0  0  0  0
  161.5340  211.3780  150.3600 C   0  0  0  0  0  3  0  0  0  0  0  0
  160.6330  204.2440  152.3980 C   0  0  0  0  0  2  0  0  0  0  0  0
  161.3530  211.3710  151.7460 C   0  0  0  0  0  3  0  0  0  0  0  0
  161.6890  205.3380  152.5230 C   0  0  0  0  0  2  0  0  0  0  0  0
  161.7100  205.4050  149.4960 C   0  0  2  0  0  3  0  0  0  0  0  0
  161.7410  210.1770  149.6720 C   0  0  0  0  0  3  0  0  0  0  0  0
  161.9800  207.6770  149.6260 C   0  0  2  0  0  3  0  0  0  0  0  0
  161.2580  203.0320  148.8600 C   0  0  0  0  0  2  0  0  0  0  0  0
  161.6770  203.6930  147.5580 C   0  0  0  0  0  2  0  0  0  0  0  0
  160.0100  201.1280  145.7380 C   0  0  0  0  0  2  0  0  0  0  0  0
  160.9030  203.3300  145.3750 C   0  0  0  0  0  2  0  0  0  0  0  0
  161.6360  202.7220  146.4770 N   0  0  0  0  0  0  0  0  0  0  0  0
  160.0610  202.2510  144.7310 C   0  0  0  0  0  2  0  0  0  0  0  0
  160.8030  201.6200  146.9280 C   0  0  0  0  0  2  0  0  0  0  0  0
  1 18  1  0  0  0  0
  2 14  1  0  0  0  0
  2 27  1  0  0  0  0
  3 16  1  0  0  0  0
  3  7  1  0  0  0  0
  4 15  1  0  0  0  0
  5 19  1  0  0  0  0
  6  7  1  0  0  0  0
  8 16  1  0  0  0  0
  9 13  1  0  0  0  0
 10 22  1  0  0  0  0
 11  5  2  0  0  0  0
 12  8  1  0  0  0  0
 13 24  1  0  0  0  0
 13 20  1  0  0  0  0
 14 25  1  0  0  0  0
 15  5  1  0  0  0  0
 15 12  1  0  0  0  0
 17 10  1  0  0  0  0
 18  4  2  0  0  0  0
 18 20  1  0  0  0  0
 19  6  1  0  0  0  0
 20 11  1  0  0  0  0
 21 23  2  0  0  0  0
 22 24  1  0  0  0  0
 23  4  1  0  0  0  0
 25 17  1  0  0  0  0
 25  9  1  0  0  0  0
 26 21  1  0  0  0  0
 26  1  2  0  0  0  0
 27  1  1  0  0  0  0
 27  9  1  0  0  0  0
 28 17  1  0  0  0  0
 29 28  1  0  0  0  0
 30 34  1  0  0  0  0
 31 32  1  0  0  0  0
 32 34  1  0  0  0  0
 32 29  1  0  0  0  0
 33 31  1  0  0  0  0
 33 30  1  0  0  0  0
M  END
>  <MODEL>
2

>  <REMARK>
 VINA RESULT:      -6.7      2.101      9.044
  Name = 
  3 active torsions:
  status: ('A' for Active; 'I' for Inactive)
    1  A    between atoms: C_17  and  C_28
    2  A    between atoms: C_28  and  C_29
    3  A    between atoms: C_29  and  N_32
                            x       y       z     vdW  Elec       q    Type
                         _______ _______ _______ _____ _____    ______ ____

>  <TORSDO>
F 3

$$$$
