=
 OpenBabel11122414203D

 34 40  0  0  1  0  0  0  0  0999 V2000
  160.9840  209.0880  152.1510 C   0  0  2  0  0  3  0  0  0  0  0  0
  161.2150  206.8210  153.1830 C   0  0  0  0  0  2  0  0  0  0  0  0
  162.8830  213.4780  148.2250 C   0  0  1  0  0  3  0  0  0  0  0  0
  160.7590  211.3200  150.9580 C   0  0  0  0  0  0  0  0  0  0  0  0
  161.3110  211.4700  148.5030 C   0  0  1  0  0  3  0  0  0  0  0  0
  163.6950  211.3600  148.9560 O   0  0  0  0  0  1  0  0  0  0  0  0
  163.8750  213.9000  147.3400 O   0  0  0  0  0  1  0  0  0  0  0  0
  161.1360  214.4530  149.1890 C   0  0  0  0  0  2  0  0  0  0  0  0
  162.2570  207.1660  151.0030 C   0  0  2  0  0  3  0  0  0  0  0  0
  161.4560  204.7820  148.9480 C   0  0  0  0  0  2  0  0  0  0  0  0
  161.1340  209.9510  148.5090 C   0  0  0  0  0  2  0  0  0  0  0  0
  160.1410  213.3790  149.6210 C   0  0  0  0  0  2  0  0  0  0  0  0
  161.5960  207.7890  149.7540 C   0  0  1  0  0  3  0  0  0  0  0  0
  161.7730  205.4990  152.7150 C   0  0  0  0  0  2  0  0  0  0  0  0
  160.8010  212.0780  149.7340 N   0  0  0  0  0  0  0  0  0  0  0  0
  161.6810  214.1380  147.9370 O   0  0  0  0  0  0  0  0  0  0  0  0
  160.9240  205.0220  150.3580 C   0  0  2  0  0  3  0  0  0  0  0  0
  161.5310  210.0150  151.0600 C   0  0  2  0  0  3  0  0  0  0  0  0
  162.7300  211.9550  148.1410 C   0  0  2  0  0  3  0  0  0  0  0  0
  161.8290  209.3060  149.7140 C   0  0  2  0  0  3  0  0  0  0  0  0
  159.9050  211.0170  153.3000 C   0  0  0  0  0  2  0  0  0  0  0  0
  161.2650  205.9980  148.0570 C   0  0  0  0  0  2  0  0  0  0  0  0
  160.0890  211.7920  152.0220 C   0  0  0  0  0  3  0  0  0  0  0  0
  162.1570  207.1460  148.4920 C   0  0  0  0  0  2  0  0  0  0  0  0
  162.0380  205.6530  151.2230 C   0  0  1  0  0  3  0  0  0  0  0  0
  160.9150  209.8820  153.4500 C   0  0  0  0  0  2  0  0  0  0  0  0
  161.8890  207.8670  152.3210 C   0  0  1  0  0  3  0  0  0  0  0  0
  160.4650  203.6800  150.9180 C   0  0  0  0  0  2  0  0  0  0  0  0
  161.5540  202.6360  150.7420 C   0  0  0  0  0  2  0  0  0  0  0  0
  160.0290  201.3360  147.9820 C   0  0  0  0  0  3  0  0  0  0  0  0
  161.8240  200.8800  149.1230 O   0  0  0  0  0  0  0  0  0  0  0  0
  160.9700  201.3710  150.1410 C   0  0  2  0  0  3  0  0  0  0  0  0
  161.2280  200.8800  147.8900 N   0  0  0  0  0  0  0  0  0  0  0  0
  159.6870  201.7100  149.3860 C   0  0  0  0  0  2  0  0  0  0  0  0
  1 27  1  0  0  0  0
  1 26  1  1  0  0  0
  3  7  1  6  0  0  0
  4 18  1  0  0  0  0
  4 23  2  0  0  0  0
  5 11  1  1  0  0  0
  5 15  1  0  0  0  0
  8 12  1  0  0  0  0
  9 25  1  0  0  0  0
  9 27  1  0  0  0  0
 10 17  1  0  0  0  0
 11 20  1  0  0  0  0
 12 15  1  0  0  0  0
 13  9  1  0  0  0  0
 14  2  1  0  0  0  0
 15  4  1  0  0  0  0
 16  3  1  0  0  0  0
 16  8  1  0  0  0  0
 17 28  1  0  0  0  0
 17 25  1  0  0  0  0
 18  1  1  0  0  0  0
 19  3  1  0  0  0  0
 19  5  1  0  0  0  0
 19  6  1  0  0  0  0
 20 13  1  0  0  0  0
 20 18  1  0  0  0  0
 21 26  1  0  0  0  0
 22 24  1  0  0  0  0
 22 10  1  0  0  0  0
 23 21  1  0  0  0  0
 24 13  1  0  0  0  0
 25 14  1  0  0  0  0
 27  2  1  0  0  0  0
 29 28  1  0  0  0  0
 30 34  1  0  0  0  0
 31 32  1  0  0  0  0
 32 29  1  0  0  0  0
 33 30  2  0  0  0  0
 33 31  1  0  0  0  0
 34 32  1  0  0  0  0
M  END
>  <MODEL>
1

>  <REMARK>
 VINA RESULT:      -5.9      0.000      0.000
  Name = 
  3 active torsions:
  status: ('A' for Active; 'I' for Inactive)
    1  A    between atoms: C_17  and  C_28
    2  A    between atoms: C_28  and  C_29
    3  A    between atoms: C_29  and  C_32
                            x       y       z     vdW  Elec       q    Type
                         _______ _______ _______ _____ _____    ______ ____

>  <TORSDO>
F 3

$$$$
=
 OpenBabel11122414203D

 34 40  0  0  1  0  0  0  0  0999 V2000
  161.4670  207.6260  149.0700 C   0  0  2  0  0  3  0  0  0  0  0  0
  161.8870  210.0890  149.1860 C   0  0  0  0  0  2  0  0  0  0  0  0
  162.1270  201.9010  151.3230 C   0  0  1  0  0  3  0  0  0  0  0  0
  160.9910  205.1300  149.1070 C   0  0  0  0  0  0  0  0  0  0  0  0
  160.6190  203.9760  151.3160 C   0  0  1  0  0  3  0  0  0  0  0  0
  162.9880  204.0620  151.8450 O   0  0  0  0  0  1  0  0  0  0  0  0
  162.7560  201.0830  152.2620 O   0  0  0  0  0  1  0  0  0  0  0  0
  160.9310  201.5330  149.4890 C   0  0  0  0  0  2  0  0  0  0  0  0
  162.0840  208.8250  151.2650 C   0  0  2  0  0  3  0  0  0  0  0  0
  160.4120  210.2560  153.6530 C   0  0  0  0  0  2  0  0  0  0  0  0
  160.3420  205.3810  151.8500 C   0  0  0  0  0  2  0  0  0  0  0  0
  160.0850  202.7680  149.1900 C   0  0  0  0  0  2  0  0  0  0  0  0
  161.0630  207.8140  151.8290 C   0  0  1  0  0  3  0  0  0  0  0  0
  162.1340  211.0680  150.3090 C   0  0  0  0  0  2  0  0  0  0  0  0
  160.6400  203.9480  149.8520 N   0  0  0  0  0  0  0  0  0  0  0  0
  160.9570  201.2810  150.8670 O   0  0  0  0  0  0  0  0  0  0  0  0
  160.4510  210.6380  152.1760 C   0  0  2  0  0  3  0  0  0  0  0  0
  161.6460  206.3010  149.8200 C   0  0  2  0  0  3  0  0  0  0  0  0
  161.8400  203.2730  151.9440 C   0  0  2  0  0  3  0  0  0  0  0  0
  161.3780  206.3910  151.3440 C   0  0  2  0  0  3  0  0  0  0  0  0
  161.0300  206.4050  146.9440 C   0  0  0  0  0  2  0  0  0  0  0  0
  160.0010  208.8060  153.8500 C   0  0  0  0  0  2  0  0  0  0  0  0
  160.7930  205.1750  147.7790 C   0  0  0  0  0  3  0  0  0  0  0  0
  161.0740  207.8560  153.3510 C   0  0  0  0  0  2  0  0  0  0  0  0
  161.8470  210.3140  151.6010 C   0  0  1  0  0  3  0  0  0  0  0  0
  161.9370  207.4200  147.6350 C   0  0  0  0  0  2  0  0  0  0  0  0
  162.2770  208.7370  149.7420 C   0  0  1  0  0  3  0  0  0  0  0  0
  160.1280  212.1250  152.0710 C   0  0  0  0  0  2  0  0  0  0  0  0
  158.6250  212.3330  151.9810 C   0  0  0  0  0  2  0  0  0  0  0  0
  159.0730  213.8200  148.9430 C   0  0  0  0  0  3  0  0  0  0  0  0
  157.3590  213.2710  150.1650 O   0  0  0  0  0  0  0  0  0  0  0  0
  158.3200  213.5730  151.1620 C   0  0  2  0  0  3  0  0  0  0  0  0
  157.8480  213.4310  148.8970 N   0  0  0  0  0  0  0  0  0  0  0  0
  159.5520  213.9650  150.3500 C   0  0  0  0  0  2  0  0  0  0  0  0
  1 26  1  6  0  0  0
  1 27  1  0  0  0  0
  1 18  1  0  0  0  0
  2 27  1  0  0  0  0
  2 14  1  0  0  0  0
  3 19  1  0  0  0  0
  3  7  1  1  0  0  0
  4 18  1  0  0  0  0
  4 15  1  0  0  0  0
  5 11  1  6  0  0  0
  5 19  1  0  0  0  0
  6 19  1  0  0  0  0
  8 16  1  0  0  0  0
  9 25  1  0  0  0  0
  9 13  1  0  0  0  0
 10 22  1  0  0  0  0
 12  8  1  0  0  0  0
 12 15  1  0  0  0  0
 13 24  1  0  0  0  0
 14 25  1  0  0  0  0
 15  5  1  0  0  0  0
 16  3  1  0  0  0  0
 17 10  1  0  0  0  0
 18 20  1  0  0  0  0
 20 13  1  0  0  0  0
 20 11  1  0  0  0  0
 21 26  1  0  0  0  0
 21 23  1  0  0  0  0
 23  4  2  0  0  0  0
 24 22  1  0  0  0  0
 25 17  1  0  0  0  0
 27  9  1  0  0  0  0
 28 17  1  0  0  0  0
 29 28  1  0  0  0  0
 30 34  1  0  0  0  0
 31 32  1  0  0  0  0
 32 29  1  0  0  0  0
 33 30  2  0  0  0  0
 33 31  1  0  0  0  0
 34 32  1  0  0  0  0
M  END
>  <MODEL>
2

>  <REMARK>
 VINA RESULT:      -5.7      2.417      8.737
  Name = 
  3 active torsions:
  status: ('A' for Active; 'I' for Inactive)
    1  A    between atoms: C_17  and  C_28
    2  A    between atoms: C_28  and  C_29
    3  A    between atoms: C_29  and  C_32
                            x       y       z     vdW  Elec       q    Type
                         _______ _______ _______ _____ _____    ______ ____

>  <TORSDO>
F 3

$$$$
=
 OpenBabel11122414203D

 34 40  0  0  1  0  0  0  0  0999 V2000
  161.5780  209.8070  149.9000 C   0  0  2  0  0  3  0  0  0  0  0  0
  161.7390  211.2520  147.8640 C   0  0  0  0  0  2  0  0  0  0  0  0
  161.9000  209.0190  156.0290 C   0  0  1  0  0  3  0  0  0  0  0  0
  161.3150  208.4520  152.0330 C   0  0  0  0  0  0  0  0  0  0  0  0
  160.3210  209.5420  154.0760 C   0  0  1  0  0  3  0  0  0  0  0  0
  162.3650  210.7860  154.4980 O   0  0  0  0  0  1  0  0  0  0  0  0
  162.2430  209.5790  157.2600 O   0  0  0  0  0  1  0  0  0  0  0  0
  161.4160  206.9680  155.3310 C   0  0  0  0  0  2  0  0  0  0  0  0
  161.3320  212.3700  149.9950 C   0  0  2  0  0  3  0  0  0  0  0  0
  158.8530  214.4530  149.7540 C   0  0  0  0  0  2  0  0  0  0  0  0
  159.7720  210.5750  153.0910 C   0  0  0  0  0  2  0  0  0  0  0  0
  160.6220  207.0590  154.0300 C   0  0  0  0  0  2  0  0  0  0  0  0
  160.2640  211.9920  151.0450 C   0  0  1  0  0  3  0  0  0  0  0  0
  161.5200  212.7200  147.5890 C   0  0  0  0  0  2  0  0  0  0  0  0
  160.8310  208.3550  153.3860 N   0  0  0  0  0  0  0  0  0  0  0  0
  161.0010  207.9630  156.2260 O   0  0  0  0  0  0  0  0  0  0  0  0
  159.3510  213.4630  148.7060 C   0  0  2  0  0  3  0  0  0  0  0  0
  161.6010  209.8180  151.4320 C   0  0  2  0  0  3  0  0  0  0  0  0
  161.3150  210.1020  155.1150 C   0  0  2  0  0  3  0  0  0  0  0  0
  160.8340  211.0040  152.0730 C   0  0  2  0  0  3  0  0  0  0  0  0
  161.9710  207.3480  149.8750 C   0  0  0  0  0  2  0  0  0  0  0  0
  158.5160  213.7640  151.0670 C   0  0  0  0  0  2  0  0  0  0  0  0
  161.5680  207.3380  151.3250 C   0  0  0  0  0  3  0  0  0  0  0  0
  159.7660  213.2450  151.7540 C   0  0  0  0  0  2  0  0  0  0  0  0
  160.8800  213.2970  148.8460 C   0  0  1  0  0  3  0  0  0  0  0  0
  162.5130  208.7020  149.4240 C   0  0  0  0  0  2  0  0  0  0  0  0
  162.0270  211.1610  149.3470 C   0  0  1  0  0  3  0  0  0  0  0  0
  158.9650  214.0050  147.3330 C   0  0  0  0  0  2  0  0  0  0  0  0
  158.3220  212.9120  146.4970 C   0  0  0  0  0  2  0  0  0  0  0  0
  160.6750  213.7790  144.1840 C   0  0  0  0  0  3  0  0  0  0  0  0
  159.2980  212.1170  144.4480 O   0  0  0  0  0  0  0  0  0  0  0  0
  158.5560  213.1800  145.0220 C   0  0  2  0  0  3  0  0  0  0  0  0
  160.5180  212.5200  143.9780 N   0  0  0  0  0  0  0  0  0  0  0  0
  159.4870  214.3790  144.8620 C   0  0  0  0  0  2  0  0  0  0  0  0
  1 26  1  6  0  0  0
  1 18  1  0  0  0  0
  2 27  1  0  0  0  0
  3 16  1  0  0  0  0
  3  7  1  1  0  0  0
  4 15  1  0  0  0  0
  5 11  1  6  0  0  0
  5 19  1  0  0  0  0
  6 19  1  0  0  0  0
  8 16  1  0  0  0  0
  9 13  1  0  0  0  0
 10 22  1  0  0  0  0
 12  8  1  0  0  0  0
 13 24  1  0  0  0  0
 13 20  1  0  0  0  0
 14  2  1  0  0  0  0
 14 25  1  0  0  0  0
 15 12  1  0  0  0  0
 15  5  1  0  0  0  0
 17 25  1  0  0  0  0
 17 10  1  0  0  0  0
 18  4  1  0  0  0  0
 18 20  1  0  0  0  0
 19  3  1  0  0  0  0
 20 11  1  0  0  0  0
 21 23  1  0  0  0  0
 22 24  1  0  0  0  0
 23  4  2  0  0  0  0
 25  9  1  0  0  0  0
 26 21  1  0  0  0  0
 27  1  1  0  0  0  0
 27  9  1  0  0  0  0
 28 17  1  0  0  0  0
 29 28  1  0  0  0  0
 30 34  1  0  0  0  0
 31 32  1  0  0  0  0
 32 29  1  0  0  0  0
 33 30  2  0  0  0  0
 33 31  1  0  0  0  0
 34 32  1  0  0  0  0
M  END
>  <MODEL>
3

>  <REMARK>
 VINA RESULT:      -5.6      3.849      8.378
  Name = 
  3 active torsions:
  status: ('A' for Active; 'I' for Inactive)
    1  A    between atoms: C_17  and  C_28
    2  A    between atoms: C_28  and  C_29
    3  A    between atoms: C_29  and  C_32
                            x       y       z     vdW  Elec       q    Type
                         _______ _______ _______ _____ _____    ______ ____

>  <TORSDO>
F 3

$$$$
=
 OpenBabel11122414203D

 34 40  0  0  1  0  0  0  0  0999 V2000
  161.0510  205.1780  152.1250 C   0  0  2  0  0  3  0  0  0  0  0  0
  160.5940  206.0630  154.4200 C   0  0  0  0  0  2  0  0  0  0  0  0
  160.5460  205.5530  145.9690 C   0  0  1  0  0  3  0  0  0  0  0  0
  161.5680  204.4270  149.7540 C   0  0  0  0  0  0  0  0  0  0  0  0
  162.0190  206.1590  147.9800 C   0  0  1  0  0  3  0  0  0  0  0  0
  159.6640  206.7380  147.8400 O   0  0  0  0  0  1  0  0  0  0  0  0
  159.9560  206.2030  144.8860 O   0  0  0  0  0  1  0  0  0  0  0  0
  161.6970  203.6700  146.2180 C   0  0  0  0  0  2  0  0  0  0  0  0
  160.4750  207.6490  152.5690 C   0  0  2  0  0  3  0  0  0  0  0  0
  162.1880  210.3280  153.2270 C   0  0  0  0  0  2  0  0  0  0  0  0
  162.2880  207.0980  149.1560 C   0  0  0  0  0  2  0  0  0  0  0  0
  162.5150  203.7530  147.5050 C   0  0  0  0  0  2  0  0  0  0  0  0
  161.5270  207.8500  151.4570 C   0  0  1  0  0  3  0  0  0  0  0  0
  160.3620  207.4390  154.9960 C   0  0  0  0  0  2  0  0  0  0  0  0
  161.9590  204.7600  148.4080 N   0  0  0  0  0  0  0  0  0  0  0  0
  161.7130  204.9020  145.5500 O   0  0  0  0  0  0  0  0  0  0  0  0
  162.1020  209.0450  154.0480 C   0  0  2  0  0  3  0  0  0  0  0  0
  160.9140  205.4820  150.6300 C   0  0  2  0  0  3  0  0  0  0  0  0
  160.8270  206.5630  147.0870 C   0  0  2  0  0  3  0  0  0  0  0  0
  161.2220  206.9530  150.2480 C   0  0  2  0  0  3  0  0  0  0  0  0
  161.4500  202.7690  151.6360 C   0  0  0  0  0  2  0  0  0  0  0  0
  162.6270  210.0570  151.7980 C   0  0  0  0  0  2  0  0  0  0  0  0
  161.7300  203.1750  150.2130 C   0  0  0  0  0  3  0  0  0  0  0  0
  161.5560  209.3100  151.0240 C   0  0  0  0  0  2  0  0  0  0  0  0
  160.6960  208.4270  153.8840 C   0  0  1  0  0  3  0  0  0  0  0  0
  160.5460  203.7600  152.3640 C   0  0  0  0  0  2  0  0  0  0  0  0
  160.2420  206.1780  152.9530 C   0  0  1  0  0  3  0  0  0  0  0  0
  162.3980  209.4000  155.5010 C   0  0  0  0  0  2  0  0  0  0  0  0
  162.4690  210.9090  155.6710 C   0  0  0  0  0  2  0  0  0  0  0  0
  159.1130  211.3930  156.0480 C   0  0  0  0  0  3  0  0  0  0  0  0
  160.6460  210.2650  157.1000 O   0  0  0  0  0  0  0  0  0  0  0  0
  161.3940  211.3750  156.6360 C   0  0  2  0  0  3  0  0  0  0  0  0
  159.3290  210.3260  156.7310 N   0  0  0  0  0  0  0  0  0  0  0  0
  160.3570  212.2030  155.8830 C   0  0  0  0  0  2  0  0  0  0  0  0
  1 26  1  6  0  0  0
  1 27  1  0  0  0  0
  2 14  1  0  0  0  0
  3  7  1  6  0  0  0
  3 19  1  0  0  0  0
  4 23  2  0  0  0  0
  4 18  1  0  0  0  0
  5 15  1  0  0  0  0
  5 11  1  1  0  0  0
  8 12  1  0  0  0  0
  9 27  1  0  0  0  0
  9 25  1  0  0  0  0
 10 17  1  0  0  0  0
 11 20  1  0  0  0  0
 12 15  1  0  0  0  0
 13  9  1  0  0  0  0
 15  4  1  0  0  0  0
 16  3  1  0  0  0  0
 16  8  1  0  0  0  0
 17 28  1  0  0  0  0
 18  1  1  0  0  0  0
 19  6  1  0  0  0  0
 19  5  1  0  0  0  0
 20 18  1  0  0  0  0
 20 13  1  0  0  0  0
 21 26  1  0  0  0  0
 22 10  1  0  0  0  0
 23 21  1  0  0  0  0
 24 13  1  0  0  0  0
 24 22  1  0  0  0  0
 25 17  1  0  0  0  0
 25 14  1  0  0  0  0
 27  2  1  0  0  0  0
 28 29  1  0  0  0  0
 29 32  1  0  0  0  0
 30 33  2  0  0  0  0
 32 31  1  0  0  0  0
 33 31  1  0  0  0  0
 34 30  1  0  0  0  0
 34 32  1  0  0  0  0
M  END
>  <MODEL>
4

>  <REMARK>
 VINA RESULT:      -5.6      3.566      7.732
  Name = 
  3 active torsions:
  status: ('A' for Active; 'I' for Inactive)
    1  A    between atoms: C_17  and  C_28
    2  A    between atoms: C_28  and  C_29
    3  A    between atoms: C_29  and  C_32
                            x       y       z     vdW  Elec       q    Type
                         _______ _______ _______ _____ _____    ______ ____

>  <TORSDO>
F 3

$$$$
=
 OpenBabel11122414203D

 34 40  0  0  1  0  0  0  0  0999 V2000
  161.5130  207.4750  149.3260 C   0  0  2  0  0  3  0  0  0  0  0  0
  161.9560  209.9180  149.6360 C   0  0  0  0  0  2  0  0  0  0  0  0
  162.0960  201.5860  151.1350 C   0  0  1  0  0  3  0  0  0  0  0  0
  161.0120  204.9890  149.1660 C   0  0  0  0  0  0  0  0  0  0  0  0
  160.6080  203.6720  151.2750 C   0  0  1  0  0  3  0  0  0  0  0  0
  162.9730  203.6910  151.8290 O   0  0  0  0  0  1  0  0  0  0  0  0
  162.7080  200.6920  152.0130 O   0  0  0  0  0  1  0  0  0  0  0  0
  160.9140  201.3740  149.2670 C   0  0  0  0  0  2  0  0  0  0  0  0
  162.1210  208.4950  151.6120 C   0  0  2  0  0  3  0  0  0  0  0  0
  160.4410  209.7540  154.0890 C   0  0  0  0  0  2  0  0  0  0  0  0
  160.3400  205.0340  151.9140 C   0  0  0  0  0  2  0  0  0  0  0  0
  160.0820  202.6370  149.0580 C   0  0  0  0  0  2  0  0  0  0  0  0
  161.0850  207.4530  152.0880 C   0  0  1  0  0  3  0  0  0  0  0  0
  162.2020  210.8040  150.8330 C   0  0  0  0  0  2  0  0  0  0  0  0
  160.6430  203.7570  149.8140 N   0  0  0  0  0  0  0  0  0  0  0  0
  160.9240  201.0160  150.6220 O   0  0  0  0  0  0  0  0  0  0  0  0
  160.4970  210.2490  152.6470 C   0  0  2  0  0  3  0  0  0  0  0  0
  161.6720  206.0950  149.9730 C   0  0  2  0  0  3  0  0  0  0  0  0
  161.8170  202.9090  151.8580 C   0  0  2  0  0  3  0  0  0  0  0  0
  161.3910  206.0690  151.4970 C   0  0  2  0  0  3  0  0  0  0  0  0
  161.0840  206.4270  147.1080 C   0  0  0  0  0  2  0  0  0  0  0  0
  160.0140  208.2980  154.1700 C   0  0  0  0  0  2  0  0  0  0  0  0
  160.8270  205.1380  147.8430 C   0  0  0  0  0  3  0  0  0  0  0  0
  161.0830  207.3780  153.6090 C   0  0  0  0  0  2  0  0  0  0  0  0
  161.8960  209.9550  152.0610 C   0  0  1  0  0  3  0  0  0  0  0  0
  161.9940  207.3760  147.8830 C   0  0  0  0  0  2  0  0  0  0  0  0
  162.3280  208.5220  150.0880 C   0  0  1  0  0  3  0  0  0  0  0  0
  160.1900  211.7430  152.6540 C   0  0  0  0  0  2  0  0  0  0  0  0
  158.7130  211.9780  152.3870 C   0  0  0  0  0  2  0  0  0  0  0  0
  157.6970  211.7710  155.6370 C   0  0  0  0  0  3  0  0  0  0  0  0
  159.0760  213.0280  154.5190 O   0  0  0  0  0  0  0  0  0  0  0  0
  158.0940  212.7560  153.5340 C   0  0  2  0  0  3  0  0  0  0  0  0
  158.7960  212.4330  155.7200 N   0  0  0  0  0  0  0  0  0  0  0  0
  157.0970  211.8680  154.2730 C   0  0  0  0  0  2  0  0  0  0  0  0
  1 26  1  6  0  0  0
  1 18  1  0  0  0  0
  1 27  1  0  0  0  0
  2 27  1  0  0  0  0
  2 14  1  0  0  0  0
  3 19  1  0  0  0  0
  3  7  1  1  0  0  0
  4 15  1  0  0  0  0
  4 18  1  0  0  0  0
  5 19  1  0  0  0  0
  5 11  1  1  0  0  0
  6 19  1  0  0  0  0
  8 16  1  0  0  0  0
  9 25  1  0  0  0  0
  9 13  1  0  0  0  0
 10 22  1  0  0  0  0
 12  8  1  0  0  0  0
 12 15  1  0  0  0  0
 13 24  1  0  0  0  0
 14 25  1  0  0  0  0
 15  5  1  0  0  0  0
 16  3  1  0  0  0  0
 17 28  1  0  0  0  0
 17 10  1  0  0  0  0
 18 20  1  0  0  0  0
 20 11  1  0  0  0  0
 20 13  1  0  0  0  0
 21 23  1  0  0  0  0
 21 26  1  0  0  0  0
 23  4  2  0  0  0  0
 24 22  1  0  0  0  0
 25 17  1  0  0  0  0
 27  9  1  0  0  0  0
 29 28  1  0  0  0  0
 29 32  1  0  0  0  0
 30 33  2  0  0  0  0
 31 33  1  0  0  0  0
 32 34  1  0  0  0  0
 32 31  1  0  0  0  0
 34 30  1  0  0  0  0
M  END
>  <MODEL>
5

>  <REMARK>
 VINA RESULT:      -5.5      3.051      8.830
  Name = 
  3 active torsions:
  status: ('A' for Active; 'I' for Inactive)
    1  A    between atoms: C_17  and  C_28
    2  A    between atoms: C_28  and  C_29
    3  A    between atoms: C_29  and  C_32
                            x       y       z     vdW  Elec       q    Type
                         _______ _______ _______ _____ _____    ______ ____

>  <TORSDO>
F 3

$$$$
=
 OpenBabel11122414203D

 34 40  0  0  1  0  0  0  0  0999 V2000
  161.6490  208.2290  150.2590 C   0  0  2  0  0  3  0  0  0  0  0  0
  161.2770  206.9820  148.1230 C   0  0  0  0  0  2  0  0  0  0  0  0
  160.1470  209.5080  156.1240 C   0  0  1  0  0  3  0  0  0  0  0  0
  162.0240  209.3530  152.5070 C   0  0  0  0  0  0  0  0  0  0  0  0
  161.6270  208.0450  154.6240 C   0  0  1  0  0  3  0  0  0  0  0  0
  159.2170  208.2040  154.3580 O   0  0  0  0  0  1  0  0  0  0  0  0
  159.2250  209.3310  157.1560 O   0  0  0  0  0  1  0  0  0  0  0  0
  161.8650  210.8730  155.7860 C   0  0  0  0  0  2  0  0  0  0  0  0
  160.3810  205.9890  150.1650 C   0  0  2  0  0  3  0  0  0  0  0  0
  161.2190  202.8600  150.3940 C   0  0  0  0  0  2  0  0  0  0  0  0
  161.7500  206.8140  153.7260 C   0  0  0  0  0  2  0  0  0  0  0  0
  162.7940  210.2560  154.7430 C   0  0  0  0  0  2  0  0  0  0  0  0
  161.1370  205.7750  151.4940 C   0  0  1  0  0  3  0  0  0  0  0  0
  160.7020  205.6300  147.7740 C   0  0  0  0  0  2  0  0  0  0  0  0
  162.0830  209.2590  153.9430 N   0  0  0  0  0  0  0  0  0  0  0  0
  161.3860  209.8860  156.6570 O   0  0  0  0  0  0  0  0  0  0  0  0
  161.6740  203.8780  149.3530 C   0  0  2  0  0  3  0  0  0  0  0  0
  161.2020  208.3460  151.7200 C   0  0  2  0  0  3  0  0  0  0  0  0
  160.2500  208.2210  155.2980 C   0  0  2  0  0  3  0  0  0  0  0  0
  160.9610  206.9850  152.4230 C   0  0  2  0  0  3  0  0  0  0  0  0
  162.7240  210.4720  150.3710 C   0  0  0  0  0  2  0  0  0  0  0  0
  161.5070  203.3340  151.8100 C   0  0  0  0  0  2  0  0  0  0  0  0
  162.6450  210.3600  151.8700 C   0  0  0  0  0  3  0  0  0  0  0  0
  160.6310  204.5150  152.1840 C   0  0  0  0  0  2  0  0  0  0  0  0
  160.5320  204.8870  149.0940 C   0  0  1  0  0  3  0  0  0  0  0  0
  161.6680  209.6310  149.6610 C   0  0  0  0  0  2  0  0  0  0  0  0
  160.6930  207.3280  149.4760 C   0  0  1  0  0  3  0  0  0  0  0  0
  162.0510  203.1140  148.0870 C   0  0  0  0  0  2  0  0  0  0  0  0
  160.8680  202.3000  147.5920 C   0  0  0  0  0  2  0  0  0  0  0  0
  159.4920  202.9430  144.5370 C   0  0  0  0  0  3  0  0  0  0  0  0
  161.4500  203.2120  145.4450 O   0  0  0  0  0  0  0  0  0  0  0  0
  161.0030  202.0390  146.1030 C   0  0  2  0  0  3  0  0  0  0  0  0
  160.5360  203.6940  144.5470 N   0  0  0  0  0  0  0  0  0  0  0  0
  159.6210  201.8070  145.4980 C   0  0  0  0  0  2  0  0  0  0  0  0
  1 26  1  6  0  0  0
  1 18  1  0  0  0  0
  2 27  1  0  0  0  0
  3 16  1  0  0  0  0
  3  7  1  1  0  0  0
  4 15  1  0  0  0  0
  5 11  1  6  0  0  0
  5 19  1  0  0  0  0
  6 19  1  0  0  0  0
  8 16  1  0  0  0  0
  9 13  1  0  0  0  0
 10 22  1  0  0  0  0
 12  8  1  0  0  0  0
 13 24  1  0  0  0  0
 13 20  1  0  0  0  0
 14  2  1  0  0  0  0
 14 25  1  0  0  0  0
 15  5  1  0  0  0  0
 15 12  1  0  0  0  0
 17 10  1  0  0  0  0
 18 20  1  0  0  0  0
 18  4  1  0  0  0  0
 19  3  1  0  0  0  0
 20 11  1  0  0  0  0
 21 23  1  0  0  0  0
 22 24  1  0  0  0  0
 23  4  2  0  0  0  0
 25 17  1  0  0  0  0
 25  9  1  0  0  0  0
 26 21  1  0  0  0  0
 27  9  1  0  0  0  0
 27  1  1  0  0  0  0
 28 17  1  0  0  0  0
 29 28  1  0  0  0  0
 30 33  2  0  0  0  0
 30 34  1  0  0  0  0
 31 32  1  0  0  0  0
 32 29  1  0  0  0  0
 33 31  1  0  0  0  0
 34 32  1  0  0  0  0
M  END
>  <MODEL>
6

>  <REMARK>
 VINA RESULT:      -5.5      3.523      5.352
  Name = 
  3 active torsions:
  status: ('A' for Active; 'I' for Inactive)
    1  A    between atoms: C_17  and  C_28
    2  A    between atoms: C_28  and  C_29
    3  A    between atoms: C_29  and  C_32
                            x       y       z     vdW  Elec       q    Type
                         _______ _______ _______ _____ _____    ______ ____

>  <TORSDO>
F 3

$$$$
=
 OpenBabel11122414203D

 34 40  0  0  1  0  0  0  0  0999 V2000
  161.5020  205.5940  147.6470 C   0  0  2  0  0  3  0  0  0  0  0  0
  162.2300  207.4790  149.1210 C   0  0  0  0  0  2  0  0  0  0  0  0
  161.4900  199.5960  146.1220 C   0  0  1  0  0  3  0  0  0  0  0  0
  160.7180  203.5980  146.2840 C   0  0  0  0  0  0  0  0  0  0  0  0
  160.2540  201.4120  147.4490 C   0  0  1  0  0  3  0  0  0  0  0  0
  162.6270  200.9620  147.7110 O   0  0  0  0  0  1  0  0  0  0  0  0
  162.0330  198.3330  146.3570 O   0  0  0  0  0  1  0  0  0  0  0  0
  160.2160  200.4740  144.5290 C   0  0  0  0  0  2  0  0  0  0  0  0
  162.3140  205.2300  150.0650 C   0  0  2  0  0  3  0  0  0  0  0  0
  160.8900  205.1440  152.9810 C   0  0  0  0  0  2  0  0  0  0  0  0
  160.1680  202.2610  148.7170 C   0  0  0  0  0  2  0  0  0  0  0  0
  159.5250  201.7210  145.0750 C   0  0  0  0  0  2  0  0  0  0  0  0
  161.1870  204.1750  150.0340 C   0  0  1  0  0  3  0  0  0  0  0  0
  162.6240  207.5940  150.5740 C   0  0  0  0  0  2  0  0  0  0  0  0
  160.2390  202.2400  146.2410 N   0  0  0  0  0  0  0  0  0  0  0  0
  160.2410  199.4650  145.5020 O   0  0  0  0  0  0  0  0  0  0  0  0
  160.9430  206.3090  151.9980 C   0  0  2  0  0  3  0  0  0  0  0  0
  161.5310  204.0710  147.4780 C   0  0  2  0  0  3  0  0  0  0  0  0
  161.3920  200.3690  147.4430 C   0  0  2  0  0  3  0  0  0  0  0  0
  161.3110  203.2790  148.7930 C   0  0  2  0  0  3  0  0  0  0  0  0
  160.8670  205.8840  145.2570 C   0  0  0  0  0  2  0  0  0  0  0  0
  160.3050  203.8940  152.3450 C   0  0  0  0  0  2  0  0  0  0  0  0
  160.4970  204.4250  145.2490 C   0  0  0  0  0  3  0  0  0  0  0  0
  161.2390  203.3210  151.2950 C   0  0  0  0  0  2  0  0  0  0  0  0
  162.2740  206.2570  151.2160 C   0  0  1  0  0  3  0  0  0  0  0  0
  161.9090  206.2210  146.3200 C   0  0  0  0  0  2  0  0  0  0  0  0
  162.4600  206.0280  148.7580 C   0  0  1  0  0  3  0  0  0  0  0  0
  160.8060  207.6010  152.7980 C   0  0  0  0  0  2  0  0  0  0  0  0
  160.8130  207.3010  154.2870 C   0  0  0  0  0  2  0  0  0  0  0  0
  159.7280  210.5000  154.7620 C   0  0  0  0  0  3  0  0  0  0  0  0
  160.0210  208.7570  156.0290 O   0  0  0  0  0  0  0  0  0  0  0  0
  161.0520  208.5770  155.0730 C   0  0  2  0  0  3  0  0  0  0  0  0
  159.2850  209.8880  155.8020 N   0  0  0  0  0  0  0  0  0  0  0  0
  160.8870  209.7830  154.1520 C   0  0  0  0  0  2  0  0  0  0  0  0
  1 26  1  6  0  0  0
  1 27  1  0  0  0  0
  2 14  1  0  0  0  0
  3  7  1  1  0  0  0
  3 19  1  0  0  0  0
  4 18  1  0  0  0  0
  5 11  1  1  0  0  0
  8 12  1  0  0  0  0
  8 16  1  0  0  0  0
  9 25  1  0  0  0  0
 11 20  1  0  0  0  0
 12 15  1  0  0  0  0
 13  9  1  0  0  0  0
 13 24  1  0  0  0  0
 14 25  1  0  0  0  0
 15  4  1  0  0  0  0
 15  5  1  0  0  0  0
 16  3  1  0  0  0  0
 17 28  1  0  0  0  0
 17 10  1  0  0  0  0
 18  1  1  0  0  0  0
 18 20  1  0  0  0  0
 19  5  1  0  0  0  0
 19  6  1  0  0  0  0
 20 13  1  0  0  0  0
 21 26  1  0  0  0  0
 22 10  1  0  0  0  0
 23 21  1  0  0  0  0
 23  4  2  0  0  0  0
 24 22  1  0  0  0  0
 25 17  1  0  0  0  0
 27  2  1  0  0  0  0
 27  9  1  0  0  0  0
 28 29  1  0  0  0  0
 29 32  1  0  0  0  0
 30 33  2  0  0  0  0
 32 31  1  0  0  0  0
 33 31  1  0  0  0  0
 34 30  1  0  0  0  0
 34 32  1  0  0  0  0
M  END
>  <MODEL>
7

>  <REMARK>
 VINA RESULT:      -5.4      4.036      9.013
  Name = 
  3 active torsions:
  status: ('A' for Active; 'I' for Inactive)
    1  A    between atoms: C_17  and  C_28
    2  A    between atoms: C_28  and  C_29
    3  A    between atoms: C_29  and  C_32
                            x       y       z     vdW  Elec       q    Type
                         _______ _______ _______ _____ _____    ______ ____

>  <TORSDO>
F 3

$$$$
=
 OpenBabel11122414203D

 34 40  0  0  1  0  0  0  0  0999 V2000
  157.6780  213.5690  148.3230 C   0  0  2  0  0  3  0  0  0  0  0  0
  158.0080  213.3430  145.8530 C   0  0  0  0  0  2  0  0  0  0  0  0
  158.9100  211.8490  154.1380 C   0  0  1  0  0  3  0  0  0  0  0  0
  157.5040  213.8050  150.8470 C   0  0  0  0  0  0  0  0  0  0  0  0
  159.5610  213.4750  152.2640 C   0  0  1  0  0  3  0  0  0  0  0  0
  159.4760  211.0660  151.9590 O   0  0  0  0  0  1  0  0  0  0  0  0
  159.5400  210.9250  154.9720 O   0  0  0  0  0  1  0  0  0  0  0  0
  157.4080  213.4560  154.4470 C   0  0  0  0  0  2  0  0  0  0  0  0
  159.7820  212.4920  147.2990 C   0  0  2  0  0  3  0  0  0  0  0  0
  162.6850  213.5810  146.3320 C   0  0  0  0  0  2  0  0  0  0  0  0
  160.3300  213.7170  150.9640 C   0  0  0  0  0  2  0  0  0  0  0  0
  157.5010  214.4530  153.2940 C   0  0  0  0  0  2  0  0  0  0  0  0
  160.4480  213.2370  148.4760 C   0  0  1  0  0  3  0  0  0  0  0  0
  159.1500  212.8890  144.9770 C   0  0  0  0  0  2  0  0  0  0  0  0
  158.1500  213.8430  152.1340 N   0  0  0  0  0  0  0  0  0  0  0  0
  158.6880  213.0420  154.8390 O   0  0  0  0  0  0  0  0  0  0  0  0
  161.3110  213.9700  145.7950 C   0  0  2  0  0  3  0  0  0  0  0  0
  158.1750  213.0850  149.6890 C   0  0  2  0  0  3  0  0  0  0  0  0
  159.7590  212.0750  152.8820 C   0  0  2  0  0  3  0  0  0  0  0  0
  159.7150  212.9430  149.7930 C   0  0  2  0  0  3  0  0  0  0  0  0
  155.5910  214.4530  149.3550 C   0  0  0  0  0  2  0  0  0  0  0  0
  162.7860  213.8000  147.8330 C   0  0  0  0  0  2  0  0  0  0  0  0
  156.2880  214.3540  150.6860 C   0  0  0  0  0  3  0  0  0  0  0  0
  161.9090  212.8220  148.5940 C   0  0  0  0  0  2  0  0  0  0  0  0
  160.3620  212.7550  145.8920 C   0  0  1  0  0  3  0  0  0  0  0  0
  156.1560  213.4840  148.3200 C   0  0  0  0  0  2  0  0  0  0  0  0
  158.2620  212.7060  147.2030 C   0  0  1  0  0  3  0  0  0  0  0  0
  161.4890  214.4340  144.3530 C   0  0  0  0  0  2  0  0  0  0  0  0
  162.5310  213.5810  143.6500 C   0  0  0  0  0  2  0  0  0  0  0  0
  160.4050  211.9510  141.5380 C   0  0  0  0  0  3  0  0  0  0  0  0
  160.9140  214.0290  141.9280 O   0  0  0  0  0  0  0  0  0  0  0  0
  162.1510  213.3910  142.1930 C   0  0  2  0  0  3  0  0  0  0  0  0
  159.9370  213.1480  141.5520 N   0  0  0  0  0  0  0  0  0  0  0  0
  161.8450  211.9180  141.9340 C   0  0  0  0  0  2  0  0  0  0  0  0
  1 26  1  1  0  0  0
  1 18  1  0  0  0  0
  2 27  1  0  0  0  0
  3 16  1  0  0  0  0
  3  7  1  1  0  0  0
  4 15  1  0  0  0  0
  5 11  1  6  0  0  0
  5 19  1  0  0  0  0
  6 19  1  0  0  0  0
  8 16  1  0  0  0  0
  9 13  1  0  0  0  0
 10 22  1  0  0  0  0
 12  8  1  0  0  0  0
 13 24  1  0  0  0  0
 13 20  1  0  0  0  0
 14  2  1  0  0  0  0
 14 25  1  0  0  0  0
 15  5  1  0  0  0  0
 15 12  1  0  0  0  0
 17 25  1  0  0  0  0
 17 10  1  0  0  0  0
 18 20  1  0  0  0  0
 18  4  1  0  0  0  0
 19  3  1  0  0  0  0
 20 11  1  0  0  0  0
 21 23  1  0  0  0  0
 22 24  1  0  0  0  0
 23  4  2  0  0  0  0
 25  9  1  0  0  0  0
 26 21  1  0  0  0  0
 27  9  1  0  0  0  0
 27  1  1  0  0  0  0
 28 17  1  0  0  0  0
 29 28  1  0  0  0  0
 30 33  2  0  0  0  0
 30 34  1  0  0  0  0
 31 32  1  0  0  0  0
 32 29  1  0  0  0  0
 33 31  1  0  0  0  0
 34 32  1  0  0  0  0
M  END
>  <MODEL>
8

>  <REMARK>
 VINA RESULT:      -5.1      6.497      8.783
  Name = 
  3 active torsions:
  status: ('A' for Active; 'I' for Inactive)
    1  A    between atoms: C_17  and  C_28
    2  A    between atoms: C_28  and  C_29
    3  A    between atoms: C_29  and  C_32
                            x       y       z     vdW  Elec       q    Type
                         _______ _______ _______ _____ _____    ______ ____

>  <TORSDO>
F 3

$$$$
=
 OpenBabel11122414203D

 34 40  0  0  1  0  0  0  0  0999 V2000
  160.4520  207.1490  153.9490 C   0  0  2  0  0  3  0  0  0  0  0  0
  161.5970  205.4290  152.5390 C   0  0  0  0  0  2  0  0  0  0  0  0
  160.2130  212.7750  156.5150 C   0  0  1  0  0  3  0  0  0  0  0  0
  159.3090  209.0010  155.2600 C   0  0  0  0  0  0  0  0  0  0  0  0
  159.5220  211.3850  154.4720 C   0  0  1  0  0  3  0  0  0  0  0  0
  161.8130  211.5220  155.2680 O   0  0  0  0  0  1  0  0  0  0  0  0
  160.8890  213.9670  156.7740 O   0  0  0  0  0  1  0  0  0  0  0  0
  158.3350  211.8540  157.2610 C   0  0  0  0  0  2  0  0  0  0  0  0
  162.2190  207.7620  152.1790 C   0  0  2  0  0  3  0  0  0  0  0  0
  162.1480  208.5040  149.0180 C   0  0  0  0  0  2  0  0  0  0  0  0
  159.9140  210.7640  153.1320 C   0  0  0  0  0  2  0  0  0  0  0  0
  157.8510  210.8200  156.2480 C   0  0  0  0  0  2  0  0  0  0  0  0
  161.2570  208.9510  151.9710 C   0  0  1  0  0  3  0  0  0  0  0  0
  162.5510  205.4850  151.3700 C   0  0  0  0  0  2  0  0  0  0  0  0
  158.9490  210.3910  155.3810 N   0  0  0  0  0  0  0  0  0  0  0  0
  158.8320  212.9870  156.6020 O   0  0  0  0  0  0  0  0  0  0  0  0
  161.7070  207.2050  149.6860 C   0  0  2  0  0  3  0  0  0  0  0  0
  160.5100  208.6060  154.4180 C   0  0  2  0  0  3  0  0  0  0  0  0
  160.6220  212.2380  155.1380 C   0  0  2  0  0  3  0  0  0  0  0  0
  160.9130  209.6160  153.3120 C   0  0  2  0  0  3  0  0  0  0  0  0
  158.8600  206.5850  155.7800 C   0  0  0  0  0  2  0  0  0  0  0  0
  161.4380  209.7120  149.6080 C   0  0  0  0  0  2  0  0  0  0  0  0
  158.6200  208.0640  155.9340 C   0  0  0  0  0  3  0  0  0  0  0  0
  161.8870  209.9730  151.0340 C   0  0  0  0  0  2  0  0  0  0  0  0
  162.5930  206.9420  150.9250 C   0  0  1  0  0  3  0  0  0  0  0  0
  160.2250  206.2700  155.1740 C   0  0  0  0  0  2  0  0  0  0  0  0
  161.7530  206.7580  153.2470 C   0  0  1  0  0  3  0  0  0  0  0  0
  161.8290  206.0870  148.6560 C   0  0  0  0  0  2  0  0  0  0  0  0
  161.1410  206.4860  147.3620 C   0  0  0  0  0  2  0  0  0  0  0  0
  161.4710  203.5630  145.6340 C   0  0  0  0  0  3  0  0  0  0  0  0
  160.8970  205.6020  145.1400 O   0  0  0  0  0  0  0  0  0  0  0  0
  161.8300  205.8260  146.1820 C   0  0  2  0  0  3  0  0  0  0  0  0
  160.7270  204.2730  144.8620 N   0  0  0  0  0  0  0  0  0  0  0  0
  162.2650  204.4150  146.5680 C   0  0  0  0  0  2  0  0  0  0  0  0
  1 18  1  0  0  0  0
  1 26  1  1  0  0  0
  2 27  1  0  0  0  0
  3 16  1  0  0  0  0
  3  7  1  6  0  0  0
  4 15  1  0  0  0  0
  4 23  2  0  0  0  0
  5 11  1  6  0  0  0
  5 19  1  0  0  0  0
  5 15  1  0  0  0  0
  9 27  1  0  0  0  0
 10 22  1  0  0  0  0
 10 17  1  0  0  0  0
 11 20  1  0  0  0  0
 12  8  1  0  0  0  0
 13  9  1  0  0  0  0
 13 20  1  0  0  0  0
 14  2  1  0  0  0  0
 15 12  1  0  0  0  0
 16  8  1  0  0  0  0
 17 25  1  0  0  0  0
 18  4  1  0  0  0  0
 19  6  1  0  0  0  0
 19  3  1  0  0  0  0
 20 18  1  0  0  0  0
 21 23  1  0  0  0  0
 22 24  1  0  0  0  0
 24 13  1  0  0  0  0
 25 14  1  0  0  0  0
 25  9  1  0  0  0  0
 26 21  1  0  0  0  0
 27  1  1  0  0  0  0
 28 17  1  0  0  0  0
 29 28  1  0  0  0  0
 30 34  1  0  0  0  0
 31 32  1  0  0  0  0
 32 34  1  0  0  0  0
 32 29  1  0  0  0  0
 33 31  1  0  0  0  0
 33 30  2  0  0  0  0
M  END
>  <MODEL>
9

>  <REMARK>
 VINA RESULT:      -5.0      3.562      5.330
  Name = 
  3 active torsions:
  status: ('A' for Active; 'I' for Inactive)
    1  A    between atoms: C_17  and  C_28
    2  A    between atoms: C_28  and  C_29
    3  A    between atoms: C_29  and  C_32
                            x       y       z     vdW  Elec       q    Type
                         _______ _______ _______ _____ _____    ______ ____

>  <TORSDO>
F 3

$$$$
