=
 OpenBabel11122412423D

 30 35  0  0  1  0  0  0  0  0999 V2000
  161.2910  205.8880  150.0760 C   0  0  0  0  0  0  0  0  0  0  0  0
  160.8640  203.3940  149.8650 C   0  0  0  0  0  0  0  0  0  0  0  0
  161.3520  205.5650  154.2680 N   0  0  0  0  0  2  0  0  0  0  0  0
  161.5300  207.0080  150.9350 C   0  0  0  0  0  0  0  0  0  0  0  0
  161.1150  206.1100  148.5960 C   0  0  0  0  0  2  0  0  0  0  0  0
  163.0060  209.4870  148.2930 O   0  0  0  0  0  0  0  0  0  0  0  0
  160.2500  209.3980  152.1050 C   0  0  1  0  0  3  0  0  0  0  0  0
  161.7780  208.6650  148.6630 S   0  0  1  0  0  0  0  0  0  0  0  0
  160.5560  208.8000  153.4170 N   0  0  2  0  0  0  0  0  0  0  0  0
  161.6630  206.9200  154.7010 C   0  0  2  0  0  3  0  0  0  0  0  0
  162.1480  207.0460  148.0110 C   0  0  2  0  0  3  0  0  0  0  0  0
  161.9880  208.3750  150.4290 C   0  0  1  0  0  3  0  0  0  0  0  0
  160.6600  202.1660  150.5000 C   0  0  0  0  0  3  0  0  0  0  0  0
  160.9210  209.9400  154.2500 C   0  0  0  0  0  2  0  0  0  0  0  0
  159.6140  210.7460  152.3910 C   0  0  0  0  0  2  0  0  0  0  0  0
  160.8790  203.3420  148.3750 C   0  0  0  0  0  1  0  0  0  0  0  0
  161.2900  205.5600  152.8560 C   0  0  0  0  0  0  0  0  0  0  0  0
  160.6620  202.0640  151.8870 C   0  0  0  0  0  3  0  0  0  0  0  0
  161.0740  204.5800  150.6400 C   0  0  0  0  0  0  0  0  0  0  0  0
  161.4930  206.7960  152.3230 C   0  0  0  0  0  0  0  0  0  0  0  0
  160.6950  207.3370  155.7990 C   0  0  0  0  0  1  0  0  0  0  0  0
  161.6610  207.8150  153.4180 C   0  0  1  0  0  3  0  0  0  0  0  0
  160.0900  211.1180  153.7800 C   0  0  0  0  0  2  0  0  0  0  0  0
  162.0960  210.5980  151.1880 O   0  0  0  0  0  0  0  0  0  0  0  0
  160.8740  203.1960  152.6630 C   0  0  0  0  0  3  0  0  0  0  0  0
  161.0810  204.4400  152.0600 C   0  0  0  0  0  0  0  0  0  0  0  0
  161.4730  209.5470  151.2170 C   0  0  0  0  0  0  0  0  0  0  0  0
  162.0280  207.0710  146.4990 C   0  0  0  0  0  2  0  0  0  0  0  0
  160.1670  206.3030  145.2350 O   0  0  0  0  0  1  0  0  0  0  0  0
  161.2400  205.8700  146.0110 C   0  0  0  0  0  2  0  0  0  0  0  0
  1 19  2  0  0  0  0
  1  4  1  0  0  0  0
  2 13  2  0  0  0  0
  2 19  1  0  0  0  0
  3 10  1  0  0  0  0
  4 20  2  0  0  0  0
  5  1  1  0  0  0  0
  7 15  1  1  0  0  0
  7  9  1  0  0  0  0
  8  6  2  6  0  0  0
  8 12  1  0  0  0  0
  9 22  1  0  0  0  0
  9 14  1  1  0  0  0
 10 21  1  1  0  0  0
 11 28  1  6  0  0  0
 11  5  1  0  0  0  0
 11  8  1  0  0  0  0
 12  4  1  1  0  0  0
 12 27  1  0  0  0  0
 13 18  1  0  0  0  0
 15 23  1  0  0  0  0
 16  2  1  0  0  0  0
 17  3  1  0  0  0  0
 18 25  2  0  0  0  0
 19 26  1  0  0  0  0
 20 17  1  0  0  0  0
 22 20  1  6  0  0  0
 22 10  1  0  0  0  0
 23 14  1  0  0  0  0
 24 27  2  0  0  0  0
 26 25  1  0  0  0  0
 26 17  2  0  0  0  0
 27  7  1  0  0  0  0
 29 30  1  0  0  0  0
 30 28  1  0  0  0  0
M  END
>  <MODEL>
1

>  <REMARK>
 VINA RESULT:      -7.6      0.000      0.000
  Name = 
  2 active torsions:
  status: ('A' for Active; 'I' for Inactive)
    1  A    between atoms: C_11  and  C_28
    2  A    between atoms: C_28  and  C_30
                            x       y       z     vdW  Elec       q    Type
                         _______ _______ _______ _____ _____    ______ ____

>  <TORSDO>
F 2

$$$$
=
 OpenBabel11122412423D

 30 35  0  0  1  0  0  0  0  0999 V2000
  160.8340  208.9800  153.2630 C   0  0  0  0  0  0  0  0  0  0  0  0
  160.9450  207.0240  154.8790 C   0  0  0  0  0  0  0  0  0  0  0  0
  159.5430  211.5160  156.3570 N   0  0  0  0  0  2  0  0  0  0  0  0
  160.5720  210.3730  153.0630 C   0  0  0  0  0  0  0  0  0  0  0  0
  161.1280  208.1000  152.0750 C   0  0  0  0  0  2  0  0  0  0  0  0
  162.3900  210.8390  149.6300 O   0  0  0  0  0  0  0  0  0  0  0  0
  158.5770  212.2650  151.9880 C   0  0  1  0  0  3  0  0  0  0  0  0
  161.2730  210.0870  150.3420 S   0  0  1  0  0  0  0  0  0  0  0  0
  158.5260  212.8320  153.3480 N   0  0  2  0  0  0  0  0  0  0  0  0
  159.4500  212.8150  155.7040 C   0  0  2  0  0  3  0  0  0  0  0  0
  162.1170  208.7170  151.1120 C   0  0  2  0  0  3  0  0  0  0  0  0
  160.9270  211.1210  151.7780 C   0  0  1  0  0  3  0  0  0  0  0  0
  160.7590  206.5450  156.1780 C   0  0  0  0  0  3  0  0  0  0  0  0
  158.3850  214.2680  153.1290 C   0  0  0  0  0  2  0  0  0  0  0  0
  157.6560  213.1220  151.1360 C   0  0  0  0  0  2  0  0  0  0  0  0
  161.4680  206.0240  153.9030 C   0  0  0  0  0  1  0  0  0  0  0  0
  159.9600  210.5710  155.3920 C   0  0  0  0  0  0  0  0  0  0  0  0
  160.3140  207.3810  157.1960 C   0  0  0  0  0  3  0  0  0  0  0  0
  160.6730  208.3960  154.5700 C   0  0  0  0  0  0  0  0  0  0  0  0
  160.1100  211.1220  154.1570 C   0  0  0  0  0  0  0  0  0  0  0  0
  158.1120  213.4580  156.0440 C   0  0  0  0  0  1  0  0  0  0  0  0
  159.7210  212.5750  154.1830 C   0  0  1  0  0  3  0  0  0  0  0  0
  157.5670  214.4460  151.8650 C   0  0  0  0  0  2  0  0  0  0  0  0
  160.3840  213.1370  150.6970 O   0  0  0  0  0  0  0  0  0  0  0  0
  160.0520  208.7180  156.9280 C   0  0  0  0  0  3  0  0  0  0  0  0
  160.2290  209.2300  155.6390 C   0  0  0  0  0  0  0  0  0  0  0  0
  159.9810  212.2290  151.4100 C   0  0  0  0  0  0  0  0  0  0  0  0
  162.5080  207.7050  150.0510 C   0  0  0  0  0  2  0  0  0  0  0  0
  161.2280  205.8840  149.2150 O   0  0  0  0  0  1  0  0  0  0  0  0
  161.2890  207.2750  149.2570 C   0  0  0  0  0  2  0  0  0  0  0  0
  1 19  1  0  0  0  0
  2 13  1  0  0  0  0
  4  1  2  0  0  0  0
  4 20  1  0  0  0  0
  5  1  1  0  0  0  0
  7 15  1  6  0  0  0
  7  9  1  0  0  0  0
  8  6  2  6  0  0  0
  8 11  1  0  0  0  0
  8 12  1  0  0  0  0
  9 14  1  6  0  0  0
  9 22  1  0  0  0  0
 10 21  1  6  0  0  0
 10  3  1  0  0  0  0
 11 28  1  6  0  0  0
 11  5  1  0  0  0  0
 12 27  1  6  0  0  0
 12  4  1  0  0  0  0
 13 18  2  0  0  0  0
 15 23  1  0  0  0  0
 16  2  1  0  0  0  0
 17 26  1  0  0  0  0
 17  3  1  0  0  0  0
 19  2  2  0  0  0  0
 19 26  1  0  0  0  0
 20 17  2  0  0  0  0
 22 20  1  1  0  0  0
 22 10  1  0  0  0  0
 23 14  1  0  0  0  0
 24 27  2  0  0  0  0
 25 18  1  0  0  0  0
 26 25  2  0  0  0  0
 27  7  1  0  0  0  0
 29 30  1  0  0  0  0
 30 28  1  0  0  0  0
M  END
>  <MODEL>
2

>  <REMARK>
 VINA RESULT:      -5.9      2.810      4.998
  Name = 
  2 active torsions:
  status: ('A' for Active; 'I' for Inactive)
    1  A    between atoms: C_11  and  C_28
    2  A    between atoms: C_28  and  C_30
                            x       y       z     vdW  Elec       q    Type
                         _______ _______ _______ _____ _____    ______ ____

>  <TORSDO>
F 2

$$$$
=
 OpenBabel11122412423D

 30 35  0  0  1  0  0  0  0  0999 V2000
  160.9570  210.4430  150.7980 C   0  0  0  0  0  0  0  0  0  0  0  0
  160.9990  212.4030  149.1840 C   0  0  0  0  0  0  0  0  0  0  0  0
  158.5970  212.6540  153.4860 N   0  0  0  0  0  2  0  0  0  0  0  0
  160.4880  209.9060  152.0390 C   0  0  0  0  0  0  0  0  0  0  0  0
  161.9350  209.6530  149.9680 C   0  0  0  0  0  2  0  0  0  0  0  0
  161.1110  206.1100  151.3240 O   0  0  0  0  0  0  0  0  0  0  0  0
  161.3220  209.2730  154.8000 C   0  0  1  0  0  3  0  0  0  0  0  0
  161.7870  207.4700  151.4450 S   0  0  1  0  0  0  0  0  0  0  0  0
  160.2620  210.2020  155.2290 N   0  0  2  0  0  0  0  0  0  0  0  0
  158.3380  211.7040  154.5580 C   0  0  2  0  0  3  0  0  0  0  0  0
  161.5560  208.1970  149.8320 C   0  0  2  0  0  3  0  0  0  0  0  0
  160.6140  208.4310  152.4200 C   0  0  1  0  0  3  0  0  0  0  0  0
  160.6160  213.7170  148.9010 C   0  0  0  0  0  3  0  0  0  0  0  0
  159.7070  209.5790  156.4250 C   0  0  0  0  0  2  0  0  0  0  0  0
  161.9230  208.6980  156.0700 C   0  0  0  0  0  2  0  0  0  0  0  0
  161.7790  211.7240  148.1090 C   0  0  0  0  0  1  0  0  0  0  0  0
  159.4070  212.0130  152.5200 C   0  0  0  0  0  0  0  0  0  0  0  0
  159.8520  214.4530  149.7990 C   0  0  0  0  0  3  0  0  0  0  0  0
  160.6100  211.7890  150.4180 C   0  0  0  0  0  0  0  0  0  0  0  0
  159.7360  210.7430  152.8800 C   0  0  0  0  0  0  0  0  0  0  0  0
  158.6180  212.3660  155.9010 C   0  0  0  0  0  1  0  0  0  0  0  0
  159.1820  210.4260  154.2420 C   0  0  1  0  0  3  0  0  0  0  0  0
  160.8460  208.8610  157.1220 C   0  0  0  0  0  2  0  0  0  0  0  0
  160.4940  207.0830  154.3430 O   0  0  0  0  0  0  0  0  0  0  0  0
  159.4520  213.8790  150.9990 C   0  0  0  0  0  3  0  0  0  0  0  0
  159.8170  212.5670  151.3130 C   0  0  0  0  0  0  0  0  0  0  0  0
  160.8150  208.1710  153.8860 C   0  0  0  0  0  0  0  0  0  0  0  0
  162.4730  207.5120  148.8350 C   0  0  0  0  0  2  0  0  0  0  0  0
  161.7330  205.3620  148.1410 O   0  0  0  0  0  1  0  0  0  0  0  0
  161.6610  206.7180  147.8300 C   0  0  0  0  0  2  0  0  0  0  0  0
  1  4  1  0  0  0  0
  2 19  1  0  0  0  0
  3 10  1  0  0  0  0
  4 20  2  0  0  0  0
  5  1  1  0  0  0  0
  7  9  1  0  0  0  0
  7 15  1  1  0  0  0
  8  6  2  6  0  0  0
  8 12  1  0  0  0  0
  9 14  1  1  0  0  0
 10 21  1  1  0  0  0
 11 28  1  6  0  0  0
 11  5  1  0  0  0  0
 11  8  1  0  0  0  0
 12  4  1  1  0  0  0
 12 27  1  0  0  0  0
 13  2  2  0  0  0  0
 13 18  1  0  0  0  0
 14 23  1  0  0  0  0
 15 23  1  0  0  0  0
 16  2  1  0  0  0  0
 17 20  1  0  0  0  0
 17  3  1  0  0  0  0
 18 25  2  0  0  0  0
 19  1  2  0  0  0  0
 19 26  1  0  0  0  0
 22 20  1  6  0  0  0
 22 10  1  0  0  0  0
 22  9  1  0  0  0  0
 25 26  1  0  0  0  0
 26 17  2  0  0  0  0
 27 24  2  0  0  0  0
 27  7  1  0  0  0  0
 30 29  1  0  0  0  0
 30 28  1  0  0  0  0
M  END
>  <MODEL>
3

>  <REMARK>
 VINA RESULT:      -5.5      3.058      6.039
  Name = 
  2 active torsions:
  status: ('A' for Active; 'I' for Inactive)
    1  A    between atoms: C_11  and  C_28
    2  A    between atoms: C_28  and  C_30
                            x       y       z     vdW  Elec       q    Type
                         _______ _______ _______ _____ _____    ______ ____

>  <TORSDO>
F 2

$$$$
=
 OpenBabel11122412423D

 30 35  0  0  1  0  0  0  0  0999 V2000
  160.7180  210.1000  152.4040 C   0  0  0  0  0  0  0  0  0  0  0  0
  160.2250  212.4700  151.6350 C   0  0  0  0  0  0  0  0  0  0  0  0
  162.3310  209.1700  148.6340 N   0  0  0  0  0  2  0  0  0  0  0  0
  161.2680  208.8160  152.0940 C   0  0  0  0  0  0  0  0  0  0  0  0
  160.0070  210.3070  153.7160 C   0  0  0  0  0  2  0  0  0  0  0  0
  161.6730  207.4400  155.7330 O   0  0  0  0  0  0  0  0  0  0  0  0
  160.5320  206.0450  151.3880 C   0  0  1  0  0  3  0  0  0  0  0  0
  160.6650  207.9530  154.7140 S   0  0  1  0  0  0  0  0  0  0  0  0
  161.2990  206.2600  150.1490 N   0  0  2  0  0  0  0  0  0  0  0  0
  162.7910  207.7970  148.8000 C   0  0  2  0  0  3  0  0  0  0  0  0
  160.7550  209.7260  154.8940 C   0  0  2  0  0  3  0  0  0  0  0  0
  161.5150  207.7300  153.1400 C   0  0  1  0  0  3  0  0  0  0  0  0
  160.2630  213.4180  150.6090 C   0  0  0  0  0  3  0  0  0  0  0  0
  161.9560  204.9790  149.9120 C   0  0  0  0  0  2  0  0  0  0  0  0
  160.0570  204.6030  151.3490 C   0  0  0  0  0  2  0  0  0  0  0  0
  159.6840  212.9640  152.9350 C   0  0  0  0  0  1  0  0  0  0  0  0
  161.7480  209.5850  149.8540 C   0  0  0  0  0  0  0  0  0  0  0  0
  160.7800  213.1030  149.3580 C   0  0  0  0  0  3  0  0  0  0  0  0
  160.7170  211.1430  151.4110 C   0  0  0  0  0  0  0  0  0  0  0  0
  161.7480  208.6000  150.7910 C   0  0  0  0  0  0  0  0  0  0  0  0
  162.3030  206.9540  147.6300 C   0  0  0  0  0  1  0  0  0  0  0  0
  162.3180  207.3320  150.2160 C   0  0  1  0  0  3  0  0  0  0  0  0
  161.0180  203.8990  150.4140 C   0  0  0  0  0  2  0  0  0  0  0  0
  161.9140  205.4140  153.2280 O   0  0  0  0  0  0  0  0  0  0  0  0
  161.2730  211.8280  149.1150 C   0  0  0  0  0  3  0  0  0  0  0  0
  161.2510  210.8550  150.1190 C   0  0  0  0  0  0  0  0  0  0  0  0
  161.3380  206.3220  152.6450 C   0  0  0  0  0  0  0  0  0  0  0  0
  160.0810  210.1360  156.1900 C   0  0  0  0  0  2  0  0  0  0  0  0
  162.3700  210.6380  156.5960 O   0  0  0  0  0  1  0  0  0  0  0  0
  161.0920  210.7550  157.1370 C   0  0  0  0  0  2  0  0  0  0  0  0
  1  5  1  0  0  0  0
  2 16  1  0  0  0  0
  3 10  1  0  0  0  0
  3 17  1  0  0  0  0
  4  1  1  0  0  0  0
  5 11  1  0  0  0  0
  7 15  1  1  0  0  0
  7 27  1  0  0  0  0
  8 11  1  0  0  0  0
  8  6  2  1  0  0  0
  9 14  1  1  0  0  0
  9 22  1  0  0  0  0
  9  7  1  0  0  0  0
 10 21  1  6  0  0  0
 10 22  1  0  0  0  0
 11 28  1  1  0  0  0
 12  4  1  6  0  0  0
 12  8  1  0  0  0  0
 13  2  2  0  0  0  0
 14 23  1  0  0  0  0
 17 26  2  0  0  0  0
 17 20  1  0  0  0  0
 18 13  1  0  0  0  0
 19  2  1  0  0  0  0
 19  1  2  0  0  0  0
 20  4  2  0  0  0  0
 22 20  1  6  0  0  0
 23 15  1  0  0  0  0
 25 18  2  0  0  0  0
 25 26  1  0  0  0  0
 26 19  1  0  0  0  0
 27 12  1  0  0  0  0
 27 24  2  0  0  0  0
 28 30  1  0  0  0  0
 29 30  1  0  0  0  0
M  END
>  <MODEL>
4

>  <REMARK>
 VINA RESULT:      -5.4      2.948      7.509
  Name = 
  2 active torsions:
  status: ('A' for Active; 'I' for Inactive)
    1  A    between atoms: C_11  and  C_28
    2  A    between atoms: C_28  and  C_30
                            x       y       z     vdW  Elec       q    Type
                         _______ _______ _______ _____ _____    ______ ____

>  <TORSDO>
F 2

$$$$
=
 OpenBabel11122412423D

 30 35  0  0  1  0  0  0  0  0999 V2000
  161.2240  207.3870  151.1750 C   0  0  0  0  0  0  0  0  0  0  0  0
  161.1510  205.0430  150.2020 C   0  0  0  0  0  0  0  0  0  0  0  0
  160.9750  205.8240  155.0700 N   0  0  0  0  0  2  0  0  0  0  0  0
  161.2390  208.2150  152.3430 C   0  0  0  0  0  0  0  0  0  0  0  0
  161.1460  208.0260  149.8120 C   0  0  0  0  0  2  0  0  0  0  0  0
  162.5890  211.5120  150.7270 O   0  0  0  0  0  0  0  0  0  0  0  0
  159.5580  209.9970  153.9910 C   0  0  1  0  0  3  0  0  0  0  0  0
  161.4550  210.4960  150.6930 S   0  0  1  0  0  0  0  0  0  0  0  0
  159.8300  209.0660  155.1010 N   0  0  2  0  0  0  0  0  0  0  0  0
  161.0660  207.0100  155.9100 C   0  0  2  0  0  3  0  0  0  0  0  0
  162.0900  209.1950  149.6510 C   0  0  2  0  0  3  0  0  0  0  0  0
  161.5530  209.7100  152.3120 C   0  0  1  0  0  3  0  0  0  0  0  0
  161.0600  203.6660  150.4260 C   0  0  0  0  0  3  0  0  0  0  0  0
  159.9690  209.9340  156.2660 C   0  0  0  0  0  2  0  0  0  0  0  0
  158.7270  211.1250  154.5770 C   0  0  0  0  0  2  0  0  0  0  0  0
  161.2990  205.4440  148.7730 C   0  0  0  0  0  1  0  0  0  0  0  0
  161.0330  206.2390  153.7200 C   0  0  0  0  0  0  0  0  0  0  0  0
  160.9590  203.1520  151.7140 C   0  0  0  0  0  3  0  0  0  0  0  0
  161.1360  205.9560  151.3060 C   0  0  0  0  0  0  0  0  0  0  0  0
  161.1140  207.5910  153.5950 C   0  0  0  0  0  0  0  0  0  0  0  0
  159.9610  206.9760  156.9580 C   0  0  0  0  0  1  0  0  0  0  0  0
  161.0520  208.2450  154.9490 C   0  0  1  0  0  3  0  0  0  0  0  0
  159.0310  211.1070  156.0590 C   0  0  0  0  0  2  0  0  0  0  0  0
  161.3000  211.6000  153.6880 O   0  0  0  0  0  0  0  0  0  0  0  0
  160.9530  204.0130  152.8030 C   0  0  0  0  0  3  0  0  0  0  0  0
  161.0430  205.3960  152.6150 C   0  0  0  0  0  0  0  0  0  0  0  0
  160.8210  210.5310  153.3370 C   0  0  0  0  0  0  0  0  0  0  0  0
  162.0960  209.6620  148.2070 C   0  0  0  0  0  2  0  0  0  0  0  0
  162.3130  211.9340  147.5400 O   0  0  0  0  0  1  0  0  0  0  0  0
  161.4210  211.0160  148.0880 C   0  0  0  0  0  2  0  0  0  0  0  0
  1 19  2  0  0  0  0
  1  4  1  0  0  0  0
  2 13  2  0  0  0  0
  2 19  1  0  0  0  0
  3 10  1  0  0  0  0
  4 20  2  0  0  0  0
  5  1  1  0  0  0  0
  7 15  1  1  0  0  0
  7  9  1  0  0  0  0
  8  6  2  1  0  0  0
  8 12  1  0  0  0  0
  9 14  1  1  0  0  0
 10 21  1  1  0  0  0
 11 28  1  6  0  0  0
 11  5  1  0  0  0  0
 11  8  1  0  0  0  0
 12  4  1  6  0  0  0
 12 27  1  0  0  0  0
 13 18  1  0  0  0  0
 15 23  1  0  0  0  0
 16  2  1  0  0  0  0
 17  3  1  0  0  0  0
 18 25  2  0  0  0  0
 19 26  1  0  0  0  0
 20 17  1  0  0  0  0
 22 20  1  6  0  0  0
 22  9  1  0  0  0  0
 22 10  1  0  0  0  0
 23 14  1  0  0  0  0
 26 25  1  0  0  0  0
 26 17  2  0  0  0  0
 27 24  2  0  0  0  0
 27  7  1  0  0  0  0
 29 30  1  0  0  0  0
 30 28  1  0  0  0  0
M  END
>  <MODEL>
5

>  <REMARK>
 VINA RESULT:      -5.4      1.889      2.519
  Name = 
  2 active torsions:
  status: ('A' for Active; 'I' for Inactive)
    1  A    between atoms: C_11  and  C_28
    2  A    between atoms: C_28  and  C_30
                            x       y       z     vdW  Elec       q    Type
                         _______ _______ _______ _____ _____    ______ ____

>  <TORSDO>
F 2

$$$$
=
 OpenBabel11122412423D

 30 35  0  0  1  0  0  0  0  0999 V2000
  161.4540  210.1730  150.3860 C   0  0  0  0  0  0  0  0  0  0  0  0
  162.3300  207.8370  149.9140 C   0  0  0  0  0  0  0  0  0  0  0  0
  160.7130  209.1310  154.3910 N   0  0  0  0  0  2  0  0  0  0  0  0
  160.9290  211.1000  151.3420 C   0  0  0  0  0  0  0  0  0  0  0  0
  161.5340  210.5680  148.9340 C   0  0  0  0  0  2  0  0  0  0  0  0
  161.5950  214.4230  149.3880 O   0  0  0  0  0  0  0  0  0  0  0  0
  158.4360  212.4080  152.2330 C   0  0  1  0  0  3  0  0  0  0  0  0
  160.8620  213.0890  149.3390 S   0  0  1  0  0  0  0  0  0  0  0  0
  158.6850  211.7740  153.5390 N   0  0  2  0  0  0  0  0  0  0  0  0
  160.2330  210.3760  154.9740 C   0  0  2  0  0  3  0  0  0  0  0  0
  162.0960  211.9560  148.7270 C   0  0  2  0  0  3  0  0  0  0  0  0
  160.7790  212.5960  151.0710 C   0  0  1  0  0  3  0  0  0  0  0  0
  162.6010  206.5510  150.3900 C   0  0  0  0  0  3  0  0  0  0  0  0
  158.2620  212.7790  154.5080 C   0  0  0  0  0  2  0  0  0  0  0  0
  157.1870  213.2550  152.4030 C   0  0  0  0  0  2  0  0  0  0  0  0
  162.7050  208.0780  148.4900 C   0  0  0  0  0  1  0  0  0  0  0  0
  160.9820  209.3640  153.0230 C   0  0  0  0  0  0  0  0  0  0  0  0
  162.3370  206.2020  151.7100 C   0  0  0  0  0  3  0  0  0  0  0  0
  161.7670  208.8250  150.7850 C   0  0  0  0  0  0  0  0  0  0  0  0
  160.6850  210.6370  152.6450 C   0  0  0  0  0  0  0  0  0  0  0  0
  158.9620  210.1060  155.7700 C   0  0  0  0  0  1  0  0  0  0  0  0
  160.0930  211.3990  153.8000 C   0  0  1  0  0  3  0  0  0  0  0  0
  157.1000  213.5310  153.8890 C   0  0  0  0  0  2  0  0  0  0  0  0
  159.6380  214.4500  151.9590 O   0  0  0  0  0  0  0  0  0  0  0  0
  161.8010  207.1430  152.5790 C   0  0  0  0  0  3  0  0  0  0  0  0
  161.5200  208.4390  152.1360 C   0  0  0  0  0  0  0  0  0  0  0  0
  159.6040  213.2470  151.7450 C   0  0  0  0  0  0  0  0  0  0  0  0
  162.3240  212.2080  147.2480 C   0  0  0  0  0  2  0  0  0  0  0  0
  161.2750  212.9310  145.2410 O   0  0  0  0  0  1  0  0  0  0  0  0
  161.0300  212.6320  146.5790 C   0  0  0  0  0  2  0  0  0  0  0  0
  1 19  2  0  0  0  0
  1  4  1  0  0  0  0
  2 13  2  0  0  0  0
  2 19  1  0  0  0  0
  3 10  1  0  0  0  0
  4 20  2  0  0  0  0
  5  1  1  0  0  0  0
  7 15  1  1  0  0  0
  7  9  1  0  0  0  0
  8  6  2  1  0  0  0
  8 12  1  0  0  0  0
  9 22  1  0  0  0  0
  9 14  1  1  0  0  0
 10 21  1  6  0  0  0
 11 28  1  6  0  0  0
 11  5  1  0  0  0  0
 11  8  1  0  0  0  0
 12  4  1  6  0  0  0
 12 27  1  0  0  0  0
 13 18  1  0  0  0  0
 15 23  1  0  0  0  0
 16  2  1  0  0  0  0
 17  3  1  0  0  0  0
 18 25  2  0  0  0  0
 19 26  1  0  0  0  0
 20 17  1  0  0  0  0
 22 20  1  6  0  0  0
 22 10  1  0  0  0  0
 23 14  1  0  0  0  0
 26 25  1  0  0  0  0
 26 17  2  0  0  0  0
 27 24  2  0  0  0  0
 27  7  1  0  0  0  0
 29 30  1  0  0  0  0
 30 28  1  0  0  0  0
M  END
>  <MODEL>
6

>  <REMARK>
 VINA RESULT:      -5.0      2.998      4.465
  Name = 
  2 active torsions:
  status: ('A' for Active; 'I' for Inactive)
    1  A    between atoms: C_11  and  C_28
    2  A    between atoms: C_28  and  C_30
                            x       y       z     vdW  Elec       q    Type
                         _______ _______ _______ _____ _____    ______ ____

>  <TORSDO>
F 2

$$$$
=
 OpenBabel11122412423D

 30 35  0  0  1  0  0  0  0  0999 V2000
  159.1230  211.5100  153.5630 C   0  0  0  0  0  0  0  0  0  0  0  0
  157.8230  213.5280  152.7350 C   0  0  0  0  0  0  0  0  0  0  0  0
  161.3350  211.4180  149.9890 N   0  0  0  0  0  2  0  0  0  0  0  0
  160.1580  210.5520  153.3180 C   0  0  0  0  0  0  0  0  0  0  0  0
  158.2610  211.3760  154.7920 C   0  0  0  0  0  2  0  0  0  0  0  0
  160.7070  209.3100  156.9870 O   0  0  0  0  0  0  0  0  0  0  0  0
  160.6350  207.7400  152.5530 C   0  0  1  0  0  3  0  0  0  0  0  0
  159.6840  209.4280  155.8650 S   0  0  1  0  0  0  0  0  0  0  0  0
  161.3770  208.2820  151.4000 N   0  0  2  0  0  0  0  0  0  0  0  0
  162.2750  210.3270  150.2080 C   0  0  2  0  0  3  0  0  0  0  0  0
  159.0560  211.0880  156.0440 C   0  0  2  0  0  3  0  0  0  0  0  0
  160.7050  209.6100  154.3900 C   0  0  1  0  0  3  0  0  0  0  0  0
  157.5890  214.4530  151.7140 C   0  0  0  0  0  3  0  0  0  0  0  0
  162.5010  207.3670  151.2390 C   0  0  0  0  0  2  0  0  0  0  0  0
  160.7680  206.2300  152.4710 C   0  0  0  0  0  2  0  0  0  0  0  0
  157.0070  213.7250  153.9680 C   0  0  0  0  0  1  0  0  0  0  0  0
  160.5190  211.5290  151.1380 C   0  0  0  0  0  0  0  0  0  0  0  0
  158.3080  214.4100  150.5250 C   0  0  0  0  0  3  0  0  0  0  0  0
  158.8130  212.5060  152.5700 C   0  0  0  0  0  0  0  0  0  0  0  0
  160.8110  210.5880  152.0750 C   0  0  0  0  0  0  0  0  0  0  0  0
  162.2730  209.4040  148.9970 C   0  0  0  0  0  1  0  0  0  0  0  0
  161.8840  209.6620  151.5690 C   0  0  1  0  0  3  0  0  0  0  0  0
  162.0140  205.9900  151.6460 C   0  0  0  0  0  2  0  0  0  0  0  0
  161.9650  207.6300  154.5300 O   0  0  0  0  0  0  0  0  0  0  0  0
  159.2820  213.4360  150.3420 C   0  0  0  0  0  3  0  0  0  0  0  0
  159.5410  212.4960  151.3430 C   0  0  0  0  0  0  0  0  0  0  0  0
  161.1410  208.2630  153.8860 C   0  0  0  0  0  0  0  0  0  0  0  0
  158.1520  211.1560  157.2610 C   0  0  0  0  0  2  0  0  0  0  0  0
  155.8780  211.8500  157.2170 O   0  0  0  0  0  1  0  0  0  0  0  0
  157.1870  212.3200  157.1370 C   0  0  0  0  0  2  0  0  0  0  0  0
  1  5  1  0  0  0  0
  2 16  1  0  0  0  0
  3 10  1  0  0  0  0
  3 17  1  0  0  0  0
  4  1  1  0  0  0  0
  5 11  1  0  0  0  0
  7 15  1  1  0  0  0
  7 27  1  0  0  0  0
  8 11  1  0  0  0  0
  8  6  2  1  0  0  0
  9 14  1  1  0  0  0
  9 22  1  0  0  0  0
  9  7  1  0  0  0  0
 10 21  1  6  0  0  0
 10 22  1  0  0  0  0
 11 28  1  1  0  0  0
 12  4  1  6  0  0  0
 12  8  1  0  0  0  0
 13  2  2  0  0  0  0
 14 23  1  0  0  0  0
 17 26  2  0  0  0  0
 17 20  1  0  0  0  0
 18 13  1  0  0  0  0
 19  2  1  0  0  0  0
 19  1  2  0  0  0  0
 20  4  2  0  0  0  0
 22 20  1  6  0  0  0
 23 15  1  0  0  0  0
 25 18  2  0  0  0  0
 25 26  1  0  0  0  0
 26 19  1  0  0  0  0
 27 12  1  0  0  0  0
 27 24  2  0  0  0  0
 30 29  1  0  0  0  0
 30 28  1  0  0  0  0
M  END
>  <MODEL>
7

>  <REMARK>
 VINA RESULT:      -5.0      3.582      8.307
  Name = 
  2 active torsions:
  status: ('A' for Active; 'I' for Inactive)
    1  A    between atoms: C_11  and  C_28
    2  A    between atoms: C_28  and  C_30
                            x       y       z     vdW  Elec       q    Type
                         _______ _______ _______ _____ _____    ______ ____

>  <TORSDO>
F 2

$$$$
=
 OpenBabel11122412423D

 30 35  0  0  1  0  0  0  0  0999 V2000
  161.5750  208.3810  151.1730 C   0  0  0  0  0  0  0  0  0  0  0  0
  161.6590  208.7840  153.6780 C   0  0  0  0  0  0  0  0  0  0  0  0
  160.3470  204.4110  151.8110 N   0  0  0  0  0  2  0  0  0  0  0  0
  161.2880  207.4780  150.1000 C   0  0  0  0  0  0  0  0  0  0  0  0
  162.1710  209.7320  150.8690 C   0  0  0  0  0  2  0  0  0  0  0  0
  160.9660  210.0800  147.1960 O   0  0  0  0  0  0  0  0  0  0  0  0
  162.5560  205.7410  148.0770 C   0  0  1  0  0  3  0  0  0  0  0  0
  161.9110  209.5190  148.2500 S   0  0  1  0  0  0  0  0  0  0  0  0
  161.8230  204.6310  148.7130 N   0  0  2  0  0  0  0  0  0  0  0  0
  160.1410  203.9070  150.4600 C   0  0  2  0  0  3  0  0  0  0  0  0
  161.4870  210.4360  149.7200 C   0  0  2  0  0  3  0  0  0  0  0  0
  161.1940  207.9110  148.6370 C   0  0  1  0  0  3  0  0  0  0  0  0
  161.4970  208.2750  154.9700 C   0  0  0  0  0  3  0  0  0  0  0  0
  161.4260  203.7820  147.5950 C   0  0  0  0  0  2  0  0  0  0  0  0
  163.2900  205.1410  146.8910 C   0  0  0  0  0  2  0  0  0  0  0  0
  162.0350  210.2260  153.6090 C   0  0  0  0  0  1  0  0  0  0  0  0
  160.7830  205.7530  151.7140 C   0  0  0  0  0  0  0  0  0  0  0  0
  161.1090  206.9560  155.1790 C   0  0  0  0  0  3  0  0  0  0  0  0
  161.4320  207.9470  152.5390 C   0  0  0  0  0  0  0  0  0  0  0  0
  160.9200  206.1630  150.4250 C   0  0  0  0  0  0  0  0  0  0  0  0
  160.8330  202.5580  150.3120 C   0  0  0  0  0  1  0  0  0  0  0  0
  160.6220  205.0280  149.4820 C   0  0  1  0  0  3  0  0  0  0  0  0
  162.5220  203.8810  146.5520 C   0  0  0  0  0  2  0  0  0  0  0  0
  161.2260  206.9350  146.4980 O   0  0  0  0  0  0  0  0  0  0  0  0
  160.8720  206.1250  154.0920 C   0  0  0  0  0  3  0  0  0  0  0  0
  161.0240  206.6030  152.7870 C   0  0  0  0  0  0  0  0  0  0  0  0
  161.6520  206.8810  147.6430 C   0  0  0  0  0  0  0  0  0  0  0  0
  162.0090  211.8560  149.5970 C   0  0  0  0  0  2  0  0  0  0  0  0
  160.9420  213.3230  148.0610 O   0  0  0  0  0  1  0  0  0  0  0  0
  160.8640  212.8210  149.3580 C   0  0  0  0  0  2  0  0  0  0  0  0
  1 19  1  0  0  0  0
  2 13  1  0  0  0  0
  4 20  1  0  0  0  0
  4  1  2  0  0  0  0
  5  1  1  0  0  0  0
  7 15  1  6  0  0  0
  7  9  1  0  0  0  0
  8  6  2  6  0  0  0
  8 12  1  0  0  0  0
  8 11  1  0  0  0  0
  9 14  1  6  0  0  0
  9 22  1  0  0  0  0
 10 21  1  1  0  0  0
 10  3  1  0  0  0  0
 11 28  1  6  0  0  0
 11  5  1  0  0  0  0
 12 27  1  6  0  0  0
 12  4  1  0  0  0  0
 13 18  2  0  0  0  0
 16  2  1  0  0  0  0
 17  3  1  0  0  0  0
 17 26  1  0  0  0  0
 19 26  1  0  0  0  0
 19  2  2  0  0  0  0
 20 17  2  0  0  0  0
 22 20  1  1  0  0  0
 22 10  1  0  0  0  0
 23 15  1  0  0  0  0
 23 14  1  0  0  0  0
 24 27  2  0  0  0  0
 25 18  1  0  0  0  0
 26 25  2  0  0  0  0
 27  7  1  0  0  0  0
 29 30  1  0  0  0  0
 30 28  1  0  0  0  0
M  END
>  <MODEL>
8

>  <REMARK>
 VINA RESULT:      -4.9      2.054      5.683
  Name = 
  2 active torsions:
  status: ('A' for Active; 'I' for Inactive)
    1  A    between atoms: C_11  and  C_28
    2  A    between atoms: C_28  and  C_30
                            x       y       z     vdW  Elec       q    Type
                         _______ _______ _______ _____ _____    ______ ____

>  <TORSDO>
F 2

$$$$
