=
 OpenBabel11122413283D

 31 35  0  0  1  0  0  0  0  0999 V2000
  161.2200  204.1750  145.5840 C   0  0  0  0  0  0  0  0  0  0  0  0
  160.5490  205.8390  148.9420 C   0  0  2  0  0  3  0  0  0  0  0  0
  160.8580  204.8300  150.0260 C   0  0  0  0  0  0  0  0  0  0  0  0
  161.0140  202.5290  150.7970 C   0  0  0  0  0  0  0  0  0  0  0  0
  161.1830  205.5150  147.6080 C   0  0  0  0  0  0  0  0  0  0  0  0
  162.3120  204.9060  145.1140 C   0  0  0  0  0  3  0  0  0  0  0  0
  160.8050  203.4510  149.7680 C   0  0  0  0  0  3  0  0  0  0  0  0
  162.3470  207.6490  149.2300 C   0  0  2  0  0  3  0  0  0  0  0  0
  160.7050  203.1690  144.8360 F   0  0  0  0  0  0  0  0  0  0  0  0
  161.1460  206.7380  151.6410 C   0  0  0  0  0  2  0  0  0  0  0  0
  160.9750  201.1680  150.5260 O   0  0  0  0  0  1  0  0  0  0  0  0
  162.7910  207.3620  147.8710 N   0  0  0  0  0  2  0  0  0  0  0  0
  160.8620  207.2800  149.4040 C   0  0  2  0  0  3  0  0  0  0  0  0
  160.6520  204.4820  146.8230 C   0  0  0  0  0  3  0  0  0  0  0  0
  161.2610  202.9760  152.0970 C   0  0  0  0  0  3  0  0  0  0  0  0
  162.2820  206.2530  147.1280 C   0  0  0  0  0  0  0  0  0  0  0  0
  162.8390  205.9470  145.8820 C   0  0  0  0  0  3  0  0  0  0  0  0
  160.3890  207.5040  150.7220 O   0  0  0  0  0  0  0  0  0  0  0  0
  161.0660  205.2700  151.3460 C   0  0  0  0  0  0  0  0  0  0  0  0
  161.2900  204.3460  152.3710 C   0  0  0  0  0  3  0  0  0  0  0  0
  161.2790  209.8160  147.7180 O   0  0  0  0  0  0  0  0  0  0  0  0
  161.9770  210.0980  148.7300 C   0  0  0  0  0  0  0  0  0  0  0  0
  162.5500  209.0590  149.5250 N   0  0  0  0  0  2  0  0  0  0  0  0
  161.0630  213.6890  147.5100 N   0  0  0  0  0  0  0  0  0  0  0  0
  160.9160  212.2390  149.4770 C   0  0  0  0  0  2  0  0  0  0  0  0
  164.1780  212.2450  147.9890 O   0  0  0  0  0  0  0  0  0  0  0  0
  160.2900  214.2040  146.3950 C   0  0  0  0  0  1  0  0  0  0  0  0
  160.1940  212.7620  148.2330 C   0  0  0  0  0  2  0  0  0  0  0  0
  162.9590  212.2590  148.0240 C   0  0  0  0  0  0  0  0  0  0  0  0
  162.2230  211.5250  149.1100 C   0  0  2  0  0  3  0  0  0  0  0  0
  162.1800  212.9390  146.9360 C   0  0  0  0  0  2  0  0  0  0  0  0
  1 14  1  0  0  0  0
  2  5  1  6  0  0  0
  2 13  1  0  0  0  0
  2  3  1  0  0  0  0
  3 19  1  0  0  0  0
  4 15  2  0  0  0  0
  6  1  2  0  0  0  0
  6 17  1  0  0  0  0
  7  3  2  0  0  0  0
  7  4  1  0  0  0  0
  8 13  1  0  0  0  0
  8 23  1  6  0  0  0
  9  1  1  0  0  0  0
 11  4  1  0  0  0  0
 12  8  1  0  0  0  0
 13 18  1  1  0  0  0
 14  5  2  0  0  0  0
 15 20  1  0  0  0  0
 16  5  1  0  0  0  0
 16 12  1  0  0  0  0
 17 16  2  0  0  0  0
 18 10  1  0  0  0  0
 19 10  1  0  0  0  0
 19 20  2  0  0  0  0
 21 22  2  0  0  0  0
 22 23  1  0  0  0  0
 24 28  1  0  0  0  0
 26 29  2  0  0  0  0
 27 24  1  0  0  0  0
 28 25  1  0  0  0  0
 29 30  1  0  0  0  0
 30 22  1  6  0  0  0
 30 25  1  0  0  0  0
 31 24  1  0  0  0  0
 31 29  1  0  0  0  0
M  END
>  <MODEL>
1

>  <REMARK>
 VINA RESULT:      -8.7      0.000      0.000
  Name = 
  2 active torsions:
  status: ('A' for Active; 'I' for Inactive)
    1  A    between atoms: C_5  and  C_30
    2  A    between atoms: C_10  and  N_16
                            x       y       z     vdW  Elec       q    Type
                         _______ _______ _______ _____ _____    ______ ____

>  <TORSDO>
F 2

$$$$
=
 OpenBabel11122413283D

 31 35  0  0  1  0  0  0  0  0999 V2000
  160.9960  206.7510  146.8530 C   0  0  0  0  0  0  0  0  0  0  0  0
  160.3390  205.0330  150.1860 C   0  0  2  0  0  3  0  0  0  0  0  0
  160.7580  203.5850  150.0490 C   0  0  0  0  0  0  0  0  0  0  0  0
  161.1030  201.5990  148.6900 C   0  0  0  0  0  0  0  0  0  0  0  0
  160.9430  205.9440  149.1430 C   0  0  0  0  0  0  0  0  0  0  0  0
  162.0160  207.6430  147.1860 C   0  0  0  0  0  3  0  0  0  0  0  0
  160.7910  202.9570  148.7950 C   0  0  0  0  0  3  0  0  0  0  0  0
  162.0170  206.0220  151.8590 C   0  0  2  0  0  3  0  0  0  0  0  0
  160.5240  206.7030  145.5840 F   0  0  0  0  0  0  0  0  0  0  0  0
  160.9750  203.4700  152.5540 C   0  0  0  0  0  2  0  0  0  0  0  0
  161.1480  200.9920  147.4420 O   0  0  0  0  0  1  0  0  0  0  0  0
  162.4280  206.9630  150.8230 N   0  0  0  0  0  2  0  0  0  0  0  0
  160.5690  205.5550  151.6230 C   0  0  2  0  0  3  0  0  0  0  0  0
  160.4550  205.9090  147.8280 C   0  0  0  0  0  3  0  0  0  0  0  0
  161.3670  200.8520  149.8400 C   0  0  0  0  0  3  0  0  0  0  0  0
  161.9690  206.8500  149.4740 C   0  0  0  0  0  0  0  0  0  0  0  0
  162.4980  207.6970  148.4960 C   0  0  0  0  0  3  0  0  0  0  0  0
  160.1320  204.6070  152.5830 O   0  0  0  0  0  0  0  0  0  0  0  0
  160.9860  202.8150  151.2040 C   0  0  0  0  0  0  0  0  0  0  0  0
  161.3120  201.4600  151.0960 C   0  0  0  0  0  3  0  0  0  0  0  0
  160.6370  208.3780  152.6800 O   0  0  0  0  0  0  0  0  0  0  0  0
  161.4040  207.8280  153.5170 C   0  0  0  0  0  0  0  0  0  0  0  0
  162.1320  206.6500  153.1660 N   0  0  0  0  0  2  0  0  0  0  0  0
  159.5010  210.1580  156.0010 N   0  0  0  0  0  0  0  0  0  0  0  0
  160.4680  207.9150  155.8370 C   0  0  0  0  0  2  0  0  0  0  0  0
  162.6870  210.4790  154.6710 O   0  0  0  0  0  0  0  0  0  0  0  0
  158.2450  210.8810  155.9370 C   0  0  0  0  0  1  0  0  0  0  0  0
  159.1970  208.7590  155.7050 C   0  0  0  0  0  2  0  0  0  0  0  0
  161.6240  209.9060  154.8450 C   0  0  0  0  0  0  0  0  0  0  0  0
  161.5690  208.4040  154.8880 C   0  0  2  0  0  3  0  0  0  0  0  0
  160.3490  210.6920  154.9350 C   0  0  0  0  0  2  0  0  0  0  0  0
  1  6  2  0  0  0  0
  1 14  1  0  0  0  0
  2  5  1  6  0  0  0
  2 13  1  0  0  0  0
  3  2  1  0  0  0  0
  3 19  1  0  0  0  0
  4  7  1  0  0  0  0
  4 15  2  0  0  0  0
  5 16  1  0  0  0  0
  6 17  1  0  0  0  0
  7  3  2  0  0  0  0
  8 23  1  1  0  0  0
  9  1  1  0  0  0  0
 10 18  1  0  0  0  0
 11  4  1  0  0  0  0
 12  8  1  0  0  0  0
 13  8  1  0  0  0  0
 13 18  1  1  0  0  0
 14  5  2  0  0  0  0
 15 20  1  0  0  0  0
 16 12  1  0  0  0  0
 17 16  2  0  0  0  0
 19 10  1  0  0  0  0
 20 19  2  0  0  0  0
 21 22  2  0  0  0  0
 23 22  1  0  0  0  0
 26 29  2  0  0  0  0
 27 24  1  0  0  0  0
 28 25  1  0  0  0  0
 28 24  1  0  0  0  0
 29 30  1  0  0  0  0
 29 31  1  0  0  0  0
 30 22  1  6  0  0  0
 30 25  1  0  0  0  0
 31 24  1  0  0  0  0
M  END
>  <MODEL>
2

>  <REMARK>
 VINA RESULT:      -8.1      3.512      4.986
  Name = 
  2 active torsions:
  status: ('A' for Active; 'I' for Inactive)
    1  A    between atoms: C_5  and  C_30
    2  A    between atoms: C_10  and  N_16
                            x       y       z     vdW  Elec       q    Type
                         _______ _______ _______ _____ _____    ______ ____

>  <TORSDO>
F 2

$$$$
=
 OpenBabel11122413283D

 31 35  0  0  1  0  0  0  0  0999 V2000
  161.0320  204.6310  145.1350 C   0  0  0  0  0  0  0  0  0  0  0  0
  160.5140  205.2260  148.8600 C   0  0  2  0  0  3  0  0  0  0  0  0
  160.8700  203.9450  149.5850 C   0  0  0  0  0  0  0  0  0  0  0  0
  161.0560  201.5220  149.6360 C   0  0  0  0  0  0  0  0  0  0  0  0
  161.0870  205.3160  147.4640 C   0  0  0  0  0  0  0  0  0  0  0  0
  162.1030  205.4810  144.8550 C   0  0  0  0  0  3  0  0  0  0  0  0
  160.8030  202.7040  148.9340 C   0  0  0  0  0  3  0  0  0  0  0  0
  162.3270  206.8910  149.5910 C   0  0  2  0  0  3  0  0  0  0  0  0
  160.4830  203.8850  144.1470 F   0  0  0  0  0  0  0  0  0  0  0  0
  161.2330  205.2970  151.6760 C   0  0  0  0  0  2  0  0  0  0  0  0
  161.0030  200.3000  148.9780 O   0  0  0  0  0  1  0  0  0  0  0  0
  162.7090  207.0220  148.1900 N   0  0  0  0  0  2  0  0  0  0  0  0
  160.8500  206.4710  149.7120 C   0  0  2  0  0  3  0  0  0  0  0  0
  160.5210  204.5540  146.4330 C   0  0  0  0  0  3  0  0  0  0  0  0
  161.3610  201.5690  150.9980 C   0  0  0  0  0  3  0  0  0  0  0  0
  162.1650  206.1750  147.1750 C   0  0  0  0  0  0  0  0  0  0  0  0
  162.6660  206.2560  145.8720 C   0  0  0  0  0  3  0  0  0  0  0  0
  160.4370  206.2910  151.0570 O   0  0  0  0  0  0  0  0  0  0  0  0
  161.1380  203.9800  150.9650 C   0  0  0  0  0  0  0  0  0  0  0  0
  161.4050  202.7980  151.6620 C   0  0  0  0  0  3  0  0  0  0  0  0
  161.5830  209.4570  148.5960 O   0  0  0  0  0  0  0  0  0  0  0  0
  162.1390  209.4070  149.7280 C   0  0  0  0  0  0  0  0  0  0  0  0
  162.5450  208.1540  150.2790 N   0  0  0  0  0  2  0  0  0  0  0  0
  160.3000  211.7370  152.2600 N   0  0  0  0  0  0  0  0  0  0  0  0
  162.3370  210.4000  152.0170 C   0  0  0  0  0  2  0  0  0  0  0  0
  161.6930  212.4890  149.1750 O   0  0  0  0  0  0  0  0  0  0  0  0
  158.9770  211.7280  152.8550 C   0  0  0  0  0  1  0  0  0  0  0  0
  160.9000  210.4350  152.5450 C   0  0  0  0  0  2  0  0  0  0  0  0
  161.4300  211.7490  150.1080 C   0  0  0  0  0  0  0  0  0  0  0  0
  162.3880  210.6600  150.5070 C   0  0  2  0  0  3  0  0  0  0  0  0
  160.1110  211.8640  150.8150 C   0  0  0  0  0  2  0  0  0  0  0  0
  1 14  1  0  0  0  0
  2  5  1  6  0  0  0
  2  3  1  0  0  0  0
  2 13  1  0  0  0  0
  3 19  1  0  0  0  0
  4 15  2  0  0  0  0
  6  1  2  0  0  0  0
  6 17  1  0  0  0  0
  7  3  2  0  0  0  0
  7  4  1  0  0  0  0
  8 13  1  0  0  0  0
  8 23  1  1  0  0  0
  9  1  1  0  0  0  0
 11  4  1  0  0  0  0
 12  8  1  0  0  0  0
 13 18  1  1  0  0  0
 14  5  2  0  0  0  0
 15 20  1  0  0  0  0
 16  5  1  0  0  0  0
 16 12  1  0  0  0  0
 17 16  2  0  0  0  0
 18 10  1  0  0  0  0
 19 20  2  0  0  0  0
 19 10  1  0  0  0  0
 21 22  2  0  0  0  0
 22 23  1  0  0  0  0
 24 28  1  0  0  0  0
 24 27  1  0  0  0  0
 25 28  1  0  0  0  0
 26 29  2  0  0  0  0
 29 30  1  0  0  0  0
 29 31  1  0  0  0  0
 30 22  1  6  0  0  0
 30 25  1  0  0  0  0
 31 24  1  0  0  0  0
M  END
>  <MODEL>
3

>  <REMARK>
 VINA RESULT:      -7.4      1.818      2.398
  Name = 
  2 active torsions:
  status: ('A' for Active; 'I' for Inactive)
    1  A    between atoms: C_5  and  C_30
    2  A    between atoms: C_10  and  N_16
                            x       y       z     vdW  Elec       q    Type
                         _______ _______ _______ _____ _____    ______ ____

>  <TORSDO>
F 2

$$$$
=
 OpenBabel11122413283D

 31 35  0  0  1  0  0  0  0  0999 V2000
  161.0370  201.8740  150.5110 C   0  0  0  0  0  0  0  0  0  0  0  0
  162.1370  204.9420  148.5430 C   0  0  2  0  0  3  0  0  0  0  0  0
  161.5010  204.8620  147.1720 C   0  0  0  0  0  0  0  0  0  0  0  0
  160.6050  203.5600  145.3250 C   0  0  0  0  0  0  0  0  0  0  0  0
  161.4590  204.0770  149.5810 C   0  0  0  0  0  0  0  0  0  0  0  0
  160.2440  202.4420  151.5090 C   0  0  0  0  0  3  0  0  0  0  0  0
  161.1170  203.6290  146.6230 C   0  0  0  0  0  3  0  0  0  0  0  0
  161.0040  206.9630  149.6500 C   0  0  2  0  0  3  0  0  0  0  0  0
  161.2180  200.5320  150.4720 F   0  0  0  0  0  0  0  0  0  0  0  0
  161.8040  207.3500  146.9490 C   0  0  0  0  0  2  0  0  0  0  0  0
  160.2130  202.3360  144.7980 O   0  0  0  0  0  1  0  0  0  0  0  0
  160.5180  206.0640  150.6910 N   0  0  0  0  0  2  0  0  0  0  0  0
  162.2900  206.4070  149.0110 C   0  0  2  0  0  3  0  0  0  0  0  0
  161.6480  202.6880  149.5540 C   0  0  0  0  0  3  0  0  0  0  0  0
  160.4880  204.7200  144.5560 C   0  0  0  0  0  3  0  0  0  0  0  0
  160.6620  204.6460  150.5930 C   0  0  0  0  0  0  0  0  0  0  0  0
  160.0610  203.8270  151.5540 C   0  0  0  0  0  3  0  0  0  0  0  0
  162.7840  207.2250  147.9630 O   0  0  0  0  0  0  0  0  0  0  0  0
  161.4180  206.0190  146.3760 C   0  0  0  0  0  0  0  0  0  0  0  0
  160.8910  205.9500  145.0830 C   0  0  0  0  0  3  0  0  0  0  0  0
  162.2480  207.4620  152.1650 O   0  0  0  0  0  0  0  0  0  0  0  0
  161.8930  208.4600  151.4800 C   0  0  0  0  0  0  0  0  0  0  0  0
  161.2550  208.2790  150.2150 N   0  0  0  0  0  2  0  0  0  0  0  0
  160.0970  211.1740  153.6320 N   0  0  0  0  0  0  0  0  0  0  0  0
  162.1760  209.8870  153.5180 C   0  0  0  0  0  2  0  0  0  0  0  0
  161.2730  211.3580  150.3750 O   0  0  0  0  0  0  0  0  0  0  0  0
  158.8120  211.2350  154.3030 C   0  0  0  0  0  1  0  0  0  0  0  0
  160.7720  209.9740  154.1220 C   0  0  0  0  0  2  0  0  0  0  0  0
  161.0990  210.8050  151.4490 C   0  0  0  0  0  0  0  0  0  0  0  0
  162.1270  209.8490  151.9850 C   0  0  2  0  0  3  0  0  0  0  0  0
  159.8190  211.0100  152.2050 C   0  0  0  0  0  2  0  0  0  0  0  0
  1  6  1  0  0  0  0
  2  3  1  6  0  0  0
  2 13  1  0  0  0  0
  2  5  1  0  0  0  0
  4  7  2  0  0  0  0
  5 16  2  0  0  0  0
  6 17  2  0  0  0  0
  7  3  1  0  0  0  0
  8 23  1  1  0  0  0
  8 12  1  0  0  0  0
  9  1  1  0  0  0  0
 10 18  1  0  0  0  0
 11  4  1  0  0  0  0
 13 18  1  6  0  0  0
 13  8  1  0  0  0  0
 14  5  1  0  0  0  0
 14  1  2  0  0  0  0
 15 20  2  0  0  0  0
 15  4  1  0  0  0  0
 16 12  1  0  0  0  0
 16 17  1  0  0  0  0
 19 10  1  0  0  0  0
 19  3  2  0  0  0  0
 20 19  1  0  0  0  0
 22 21  2  0  0  0  0
 23 22  1  0  0  0  0
 24 28  1  0  0  0  0
 24 27  1  0  0  0  0
 25 28  1  0  0  0  0
 26 29  2  0  0  0  0
 29 30  1  0  0  0  0
 29 31  1  0  0  0  0
 30 22  1  1  0  0  0
 30 25  1  0  0  0  0
 31 24  1  0  0  0  0
M  END
>  <MODEL>
4

>  <REMARK>
 VINA RESULT:      -6.3      3.074      5.046
  Name = 
  2 active torsions:
  status: ('A' for Active; 'I' for Inactive)
    1  A    between atoms: C_5  and  C_30
    2  A    between atoms: C_10  and  N_16
                            x       y       z     vdW  Elec       q    Type
                         _______ _______ _______ _____ _____    ______ ____

>  <TORSDO>
F 2

$$$$
