=
 OpenBabel11122413213D

 31 35  0  0  0  0  0  0  0  0999 V2000
  161.0470  207.6650  154.6920 C   0  0  0  0  0  0  0  0  0  0  0  0
  161.3540  207.2250  150.9630 C   0  0  0  0  0  0  0  0  0  0  0  0
  161.1990  205.8310  150.6950 C   0  0  0  0  0  0  0  0  0  0  0  0
  160.8310  203.5200  151.3950 C   0  0  0  0  0  0  0  0  0  0  0  0
  161.3030  207.8130  152.2660 C   0  0  0  0  0  0  0  0  0  0  0  0
  161.2140  209.0440  154.8090 C   0  0  0  0  0  3  0  0  0  0  0  0
  160.9770  204.8740  151.7010 C   0  0  0  0  0  3  0  0  0  0  0  0
  161.7360  209.4650  150.0130 C   0  0  0  0  0  0  0  0  0  0  0  0
  160.8370  206.8930  155.8260 O   0  0  0  0  0  1  0  0  0  0  0  0
  161.4820  206.2610  148.3540 N   0  0  0  0  0  0  0  0  0  0  0  0
  160.6190  202.6210  152.3860 F   0  0  0  0  0  0  0  0  0  0  0  0
  161.6830  210.0160  151.2930 C   0  0  0  0  0  3  0  0  0  0  0  0
  161.5730  208.0810  149.8470 C   0  0  0  0  0  0  0  0  0  0  0  0
  161.0920  207.0610  153.4350 C   0  0  0  0  0  3  0  0  0  0  0  0
  160.9050  203.0930  150.0690 C   0  0  0  0  0  3  0  0  0  0  0  0
  161.4710  209.2150  152.4060 C   0  0  0  0  0  0  0  0  0  0  0  0
  161.4260  209.8170  153.6680 C   0  0  0  0  0  3  0  0  0  0  0  0
  161.6280  207.5610  148.5910 N   0  0  0  0  0  0  0  0  0  0  0  0
  161.2700  205.3780  149.3570 C   0  0  0  0  0  0  0  0  0  0  0  0
  161.1240  204.0210  149.0520 C   0  0  0  0  0  3  0  0  0  0  0  0
  160.8950  212.2520  149.5750 O   0  0  0  0  0  0  0  0  0  0  0  0
  161.5340  211.6520  148.6690 C   0  0  0  0  0  0  0  0  0  0  0  0
  161.9560  210.2930  148.8570 N   0  0  0  0  0  2  0  0  0  0  0  0
  162.3920  213.6530  144.9700 C   0  0  0  0  0  0  0  0  0  0  0  0
  160.8310  212.5780  146.4710 C   0  0  0  0  0  3  0  0  0  0  0  0
  164.1940  212.5780  147.9550 F   0  0  0  0  0  0  0  0  0  0  0  0
  162.6750  214.3440  143.6850 C   0  0  0  0  0  1  0  0  0  0  0  0
  161.0960  213.2280  145.2640 C   0  0  0  0  0  3  0  0  0  0  0  0
  163.1650  212.7780  147.0950 C   0  0  0  0  0  0  0  0  0  0  0  0
  161.8570  212.3440  147.4010 C   0  0  0  0  0  0  0  0  0  0  0  0
  163.4240  213.4280  145.8840 C   0  0  0  0  0  3  0  0  0  0  0  0
  1  6  1  0  0  0  0
  1  9  1  0  0  0  0
  2  5  1  0  0  0  0
  3  2  1  0  0  0  0
  3  7  2  0  0  0  0
  4  7  1  0  0  0  0
  4 11  1  0  0  0  0
  5 16  2  0  0  0  0
  5 14  1  0  0  0  0
  8 12  2  0  0  0  0
 10 18  2  0  0  0  0
 10 19  1  0  0  0  0
 12 16  1  0  0  0  0
 13  8  1  0  0  0  0
 13  2  2  0  0  0  0
 14  1  2  0  0  0  0
 15  4  2  0  0  0  0
 16 17  1  0  0  0  0
 17  6  2  0  0  0  0
 18 13  1  0  0  0  0
 19  3  1  0  0  0  0
 20 19  2  0  0  0  0
 20 15  1  0  0  0  0
 22 23  1  0  0  0  0
 22 21  2  0  0  0  0
 23  8  1  0  0  0  0
 24 28  2  0  0  0  0
 24 31  1  0  0  0  0
 25 30  2  0  0  0  0
 27 24  1  0  0  0  0
 28 25  1  0  0  0  0
 29 30  1  0  0  0  0
 29 26  1  0  0  0  0
 30 22  1  0  0  0  0
 31 29  2  0  0  0  0
M  END
>  <MODEL>
1

>  <REMARK>
 VINA RESULT:     -10.0      0.000      0.000
  Name = 
  2 active torsions:
  status: ('A' for Active; 'I' for Inactive)
    1  A    between atoms: C_5  and  C_30
    2  A    between atoms: C_10  and  N_16
                            x       y       z     vdW  Elec       q    Type
                         _______ _______ _______ _____ _____    ______ ____

>  <TORSDO>
F 2

$$$$
=
 OpenBabel11122413213D

 31 35  0  0  0  0  0  0  0  0999 V2000
  161.1790  201.3070  149.5470 C   0  0  0  0  0  0  0  0  0  0  0  0
  161.1450  205.0560  149.1720 C   0  0  0  0  0  0  0  0  0  0  0  0
  161.1210  205.3330  147.7720 C   0  0  0  0  0  0  0  0  0  0  0  0
  161.0890  204.6420  145.4290 C   0  0  0  0  0  0  0  0  0  0  0  0
  161.1640  203.7430  149.7410 C   0  0  0  0  0  0  0  0  0  0  0  0
  161.2010  201.1810  150.9360 C   0  0  0  0  0  3  0  0  0  0  0  0
  161.1130  204.3270  146.7890 C   0  0  0  0  0  3  0  0  0  0  0  0
  161.1740  205.9970  151.4480 C   0  0  0  0  0  0  0  0  0  0  0  0
  161.1750  200.1720  148.7480 O   0  0  0  0  0  1  0  0  0  0  0  0
  161.1110  207.6810  148.2480 N   0  0  0  0  0  0  0  0  0  0  0  0
  161.0820  203.6520  144.5040 F   0  0  0  0  0  0  0  0  0  0  0  0
  161.1910  204.7080  151.9800 C   0  0  0  0  0  3  0  0  0  0  0  0
  161.1510  206.1720  150.0560 C   0  0  0  0  0  0  0  0  0  0  0  0
  161.1610  202.5730  148.9610 C   0  0  0  0  0  3  0  0  0  0  0  0
  161.0720  205.9760  145.0230 C   0  0  0  0  0  3  0  0  0  0  0  0
  161.1870  203.5940  151.1520 C   0  0  0  0  0  0  0  0  0  0  0  0
  161.2050  202.3230  151.7360 C   0  0  0  0  0  3  0  0  0  0  0  0
  161.1330  207.4360  149.5540 N   0  0  0  0  0  0  0  0  0  0  0  0
  161.1030  206.6790  147.3400 C   0  0  0  0  0  0  0  0  0  0  0  0
  161.0790  206.9930  145.9770 C   0  0  0  0  0  3  0  0  0  0  0  0
  160.5840  206.1410  154.3290 O   0  0  0  0  0  0  0  0  0  0  0  0
  160.8860  207.1960  153.7090 C   0  0  0  0  0  0  0  0  0  0  0  0
  161.1790  207.1530  152.3030 N   0  0  0  0  0  2  0  0  0  0  0  0
  161.0880  210.9140  155.8450 C   0  0  0  0  0  0  0  0  0  0  0  0
  161.4690  208.5290  155.7250 C   0  0  0  0  0  3  0  0  0  0  0  0
  159.9710  209.7140  152.5840 F   0  0  0  0  0  0  0  0  0  0  0  0
  161.1640  212.1940  156.5950 C   0  0  0  0  0  1  0  0  0  0  0  0
  161.5410  209.7310  156.4320 C   0  0  0  0  0  3  0  0  0  0  0  0
  160.4880  209.6930  153.8380 C   0  0  0  0  0  0  0  0  0  0  0  0
  160.9440  208.4910  154.4240 C   0  0  0  0  0  0  0  0  0  0  0  0
  160.5630  210.8930  154.5510 C   0  0  0  0  0  3  0  0  0  0  0  0
  1  6  1  0  0  0  0
  2  5  2  0  0  0  0
  2 13  1  0  0  0  0
  3  2  1  0  0  0  0
  4  7  1  0  0  0  0
  5 16  1  0  0  0  0
  6 17  2  0  0  0  0
  7  3  2  0  0  0  0
  8 12  1  0  0  0  0
  8 23  1  0  0  0  0
  9  1  1  0  0  0  0
 10 18  2  0  0  0  0
 11  4  1  0  0  0  0
 13  8  2  0  0  0  0
 14  1  2  0  0  0  0
 14  5  1  0  0  0  0
 15  4  2  0  0  0  0
 15 20  1  0  0  0  0
 16 17  1  0  0  0  0
 16 12  2  0  0  0  0
 18 13  1  0  0  0  0
 19  3  1  0  0  0  0
 19 10  1  0  0  0  0
 20 19  2  0  0  0  0
 22 21  2  0  0  0  0
 22 30  1  0  0  0  0
 23 22  1  0  0  0  0
 24 28  1  0  0  0  0
 24 27  1  0  0  0  0
 25 28  2  0  0  0  0
 26 29  1  0  0  0  0
 29 30  2  0  0  0  0
 29 31  1  0  0  0  0
 30 25  1  0  0  0  0
 31 24  2  0  0  0  0
M  END
>  <MODEL>
2

>  <REMARK>
 VINA RESULT:      -9.6      4.137      7.136
  Name = 
  2 active torsions:
  status: ('A' for Active; 'I' for Inactive)
    1  A    between atoms: C_5  and  C_30
    2  A    between atoms: C_10  and  N_16
                            x       y       z     vdW  Elec       q    Type
                         _______ _______ _______ _____ _____    ______ ____

>  <TORSDO>
F 2

$$$$
=
 OpenBabel11122413213D

 31 35  0  0  0  0  0  0  0  0999 V2000
  161.3150  205.2240  145.6990 C   0  0  0  0  0  0  0  0  0  0  0  0
  161.0430  204.4910  149.3850 C   0  0  0  0  0  0  0  0  0  0  0  0
  161.0760  203.0710  149.5300 C   0  0  0  0  0  0  0  0  0  0  0  0
  161.2190  200.8060  148.6260 C   0  0  0  0  0  0  0  0  0  0  0  0
  161.1210  205.1830  148.1360 C   0  0  0  0  0  0  0  0  0  0  0  0
  161.2710  206.6170  145.7040 C   0  0  0  0  0  3  0  0  0  0  0  0
  161.1910  202.1890  148.4400 C   0  0  0  0  0  3  0  0  0  0  0  0
  160.8830  206.6650  150.5310 C   0  0  0  0  0  0  0  0  0  0  0  0
  161.4320  204.5380  144.4990 O   0  0  0  0  0  1  0  0  0  0  0  0
  160.8780  203.3190  151.9050 N   0  0  0  0  0  0  0  0  0  0  0  0
  161.3300  199.9810  147.5580 F   0  0  0  0  0  0  0  0  0  0  0  0
  160.9610  207.3180  149.3010 C   0  0  0  0  0  3  0  0  0  0  0  0
  160.9230  205.2630  150.5750 C   0  0  0  0  0  0  0  0  0  0  0  0
  161.2400  204.5190  146.9020 C   0  0  0  0  0  3  0  0  0  0  0  0
  161.1340  200.2740  149.9130 C   0  0  0  0  0  3  0  0  0  0  0  0
  161.0780  206.6020  148.1190 C   0  0  0  0  0  0  0  0  0  0  0  0
  161.1530  207.3040  146.9120 C   0  0  0  0  0  3  0  0  0  0  0  0
  160.8470  204.6430  151.7830 N   0  0  0  0  0  0  0  0  0  0  0  0
  160.9900  202.5120  150.8260 C   0  0  0  0  0  0  0  0  0  0  0  0
  161.0190  201.1260  151.0110 C   0  0  0  0  0  3  0  0  0  0  0  0
  162.4360  209.0060  151.4140 O   0  0  0  0  0  0  0  0  0  0  0  0
  161.5340  208.5470  152.1650 C   0  0  0  0  0  0  0  0  0  0  0  0
  160.7620  207.4060  151.7580 N   0  0  0  0  0  2  0  0  0  0  0  0
  160.7430  210.4530  155.9290 C   0  0  0  0  0  0  0  0  0  0  0  0
  161.2100  210.5790  153.5600 C   0  0  0  0  0  3  0  0  0  0  0  0
  161.0810  207.0620  154.6220 F   0  0  0  0  0  0  0  0  0  0  0  0
  160.4700  211.1260  157.2250 C   0  0  0  0  0  1  0  0  0  0  0  0
  160.9550  211.2130  154.7780 C   0  0  0  0  0  3  0  0  0  0  0  0
  161.0440  208.4180  154.6450 C   0  0  0  0  0  0  0  0  0  0  0  0
  161.2600  209.1790  153.4750 C   0  0  0  0  0  0  0  0  0  0  0  0
  160.7890  209.0590  155.8610 C   0  0  0  0  0  3  0  0  0  0  0  0
  1  6  2  0  0  0  0
  1 14  1  0  0  0  0
  2  3  2  0  0  0  0
  2 13  1  0  0  0  0
  3 19  1  0  0  0  0
  4 15  1  0  0  0  0
  5  2  1  0  0  0  0
  6 17  1  0  0  0  0
  7  4  2  0  0  0  0
  7  3  1  0  0  0  0
  8 13  1  0  0  0  0
  8 23  1  0  0  0  0
  9  1  1  0  0  0  0
 11  4  1  0  0  0  0
 12  8  2  0  0  0  0
 13 18  2  0  0  0  0
 14  5  2  0  0  0  0
 15 20  2  0  0  0  0
 16  5  1  0  0  0  0
 16 12  1  0  0  0  0
 17 16  2  0  0  0  0
 18 10  1  0  0  0  0
 19 20  1  0  0  0  0
 19 10  2  0  0  0  0
 21 22  2  0  0  0  0
 22 30  1  0  0  0  0
 23 22  1  0  0  0  0
 24 27  1  0  0  0  0
 25 28  1  0  0  0  0
 26 29  1  0  0  0  0
 28 24  2  0  0  0  0
 29 31  2  0  0  0  0
 30 25  2  0  0  0  0
 30 29  1  0  0  0  0
 31 24  1  0  0  0  0
M  END
>  <MODEL>
3

>  <REMARK>
 VINA RESULT:      -9.6      4.068      7.001
  Name = 
  2 active torsions:
  status: ('A' for Active; 'I' for Inactive)
    1  A    between atoms: C_5  and  C_30
    2  A    between atoms: C_10  and  N_16
                            x       y       z     vdW  Elec       q    Type
                         _______ _______ _______ _____ _____    ______ ____

>  <TORSDO>
F 2

$$$$
=
 OpenBabel11122413213D

 31 35  0  0  0  0  0  0  0  0999 V2000
  160.9590  208.6100  154.4880 C   0  0  0  0  0  0  0  0  0  0  0  0
  161.4470  207.9570  150.8090 C   0  0  0  0  0  0  0  0  0  0  0  0
  161.5760  209.2300  150.1750 C   0  0  0  0  0  0  0  0  0  0  0  0
  161.6490  211.6710  150.2160 C   0  0  0  0  0  0  0  0  0  0  0  0
  161.2470  207.7640  152.2130 C   0  0  0  0  0  0  0  0  0  0  0  0
  160.8500  207.3080  154.9740 C   0  0  0  0  0  3  0  0  0  0  0  0
  161.5180  210.4480  150.8760 C   0  0  0  0  0  3  0  0  0  0  0  0
  161.4100  205.5120  150.5110 C   0  0  0  0  0  0  0  0  0  0  0  0
  160.8720  209.6850  155.3600 O   0  0  0  0  0  1  0  0  0  0  0  0
  161.8350  208.1360  148.0580 N   0  0  0  0  0  0  0  0  0  0  0  0
  161.5890  212.8290  150.9170 F   0  0  0  0  0  0  0  0  0  0  0  0
  161.2160  205.3490  151.8820 C   0  0  0  0  0  3  0  0  0  0  0  0
  161.5260  206.8050  149.9770 C   0  0  0  0  0  0  0  0  0  0  0  0
  161.1540  208.8310  153.1240 C   0  0  0  0  0  3  0  0  0  0  0  0
  161.8420  211.7010  148.8350 C   0  0  0  0  0  3  0  0  0  0  0  0
  161.1330  206.4470  152.7270 C   0  0  0  0  0  0  0  0  0  0  0  0
  160.9370  206.2290  154.0950 C   0  0  0  0  0  3  0  0  0  0  0  0
  161.7170  206.9450  148.6380 N   0  0  0  0  0  0  0  0  0  0  0  0
  161.7730  209.2810  148.7750 C   0  0  0  0  0  0  0  0  0  0  0  0
  161.9040  210.5080  148.1160 C   0  0  0  0  0  3  0  0  0  0  0  0
  159.5930  203.2030  150.3280 O   0  0  0  0  0  0  0  0  0  0  0  0
  160.5940  203.2610  149.5650 C   0  0  0  0  0  0  0  0  0  0  0  0
  161.4960  204.3760  149.6330 N   0  0  0  0  0  2  0  0  0  0  0  0
  161.3180  200.1750  146.6710 C   0  0  0  0  0  0  0  0  0  0  0  0
  160.6770  202.4410  147.2190 C   0  0  0  0  0  3  0  0  0  0  0  0
  161.4470  200.5800  150.2950 F   0  0  0  0  0  0  0  0  0  0  0  0
  161.5660  199.1160  145.6580 C   0  0  0  0  0  1  0  0  0  0  0  0
  160.9090  201.4460  146.2660 C   0  0  0  0  0  3  0  0  0  0  0  0
  161.2650  200.8890  148.9870 C   0  0  0  0  0  0  0  0  0  0  0  0
  160.8500  202.1790  148.5870 C   0  0  0  0  0  0  0  0  0  0  0  0
  161.4950  199.8980  148.0280 C   0  0  0  0  0  3  0  0  0  0  0  0
  1  6  1  0  0  0  0
  1  9  1  0  0  0  0
  2  5  1  0  0  0  0
  3  2  1  0  0  0  0
  3  7  2  0  0  0  0
  4  7  1  0  0  0  0
  4 11  1  0  0  0  0
  5 16  2  0  0  0  0
  5 14  1  0  0  0  0
  8 12  2  0  0  0  0
 10 18  2  0  0  0  0
 10 19  1  0  0  0  0
 12 16  1  0  0  0  0
 13  8  1  0  0  0  0
 13  2  2  0  0  0  0
 14  1  2  0  0  0  0
 15  4  2  0  0  0  0
 16 17  1  0  0  0  0
 17  6  2  0  0  0  0
 18 13  1  0  0  0  0
 19  3  1  0  0  0  0
 20 19  2  0  0  0  0
 20 15  1  0  0  0  0
 22 23  1  0  0  0  0
 22 21  2  0  0  0  0
 23  8  1  0  0  0  0
 24 31  1  0  0  0  0
 25 30  2  0  0  0  0
 27 24  1  0  0  0  0
 28 24  2  0  0  0  0
 28 25  1  0  0  0  0
 29 26  1  0  0  0  0
 30 29  1  0  0  0  0
 30 22  1  0  0  0  0
 31 29  2  0  0  0  0
M  END
>  <MODEL>
4

>  <REMARK>
 VINA RESULT:      -7.9      2.522      7.824
  Name = 
  2 active torsions:
  status: ('A' for Active; 'I' for Inactive)
    1  A    between atoms: C_5  and  C_30
    2  A    between atoms: C_10  and  N_16
                            x       y       z     vdW  Elec       q    Type
                         _______ _______ _______ _____ _____    ______ ____

>  <TORSDO>
F 2

$$$$
=
 OpenBabel11122413213D

 31 35  0  0  0  0  0  0  0  0999 V2000
  161.8420  210.8260  150.0100 C   0  0  0  0  0  0  0  0  0  0  0  0
  161.3670  207.3000  151.2510 C   0  0  0  0  0  0  0  0  0  0  0  0
  161.1900  207.3780  152.6660 C   0  0  0  0  0  0  0  0  0  0  0  0
  161.0290  208.6220  154.7620 C   0  0  0  0  0  0  0  0  0  0  0  0
  161.5780  208.4260  150.3940 C   0  0  0  0  0  0  0  0  0  0  0  0
  161.9990  210.6040  148.6420 C   0  0  0  0  0  3  0  0  0  0  0  0
  161.2060  208.5910  153.3770 C   0  0  0  0  0  3  0  0  0  0  0  0
  161.4910  205.8300  149.2790 C   0  0  0  0  0  0  0  0  0  0  0  0
  161.8920  212.1180  150.5140 O   0  0  0  0  0  1  0  0  0  0  0  0
  160.9650  204.9940  152.7580 N   0  0  0  0  0  0  0  0  0  0  0  0
  161.0500  209.8050  155.4210 F   0  0  0  0  0  0  0  0  0  0  0  0
  161.6950  206.9430  148.4640 C   0  0  0  0  0  3  0  0  0  0  0  0
  161.3270  206.0040  150.6610 C   0  0  0  0  0  0  0  0  0  0  0  0
  161.6350  209.7470  150.8720 C   0  0  0  0  0  3  0  0  0  0  0  0
  160.8320  207.4340  155.4660 C   0  0  0  0  0  3  0  0  0  0  0  0
  161.7410  208.2220  149.0000 C   0  0  0  0  0  0  0  0  0  0  0  0
  161.9480  209.3050  148.1390 C   0  0  0  0  0  3  0  0  0  0  0  0
  161.1280  204.9080  151.4410 N   0  0  0  0  0  0  0  0  0  0  0  0
  160.9880  206.1840  153.3980 C   0  0  0  0  0  0  0  0  0  0  0  0
  160.8110  206.2180  154.7850 C   0  0  0  0  0  3  0  0  0  0  0  0
  161.0330  205.0320  146.4820 O   0  0  0  0  0  0  0  0  0  0  0  0
  161.2180  204.1410  147.3540 C   0  0  0  0  0  0  0  0  0  0  0  0
  161.4440  204.5030  148.7250 N   0  0  0  0  0  2  0  0  0  0  0  0
  161.2070  199.9740  146.3260 C   0  0  0  0  0  0  0  0  0  0  0  0
  161.5800  201.7480  147.9240 C   0  0  0  0  0  3  0  0  0  0  0  0
  160.4580  203.1660  144.7240 F   0  0  0  0  0  0  0  0  0  0  0  0
  161.2070  198.5280  145.9840 C   0  0  0  0  0  1  0  0  0  0  0  0
  161.5810  200.3890  147.6040 C   0  0  0  0  0  3  0  0  0  0  0  0
  160.8280  202.2800  145.6820 C   0  0  0  0  0  0  0  0  0  0  0  0
  161.2060  202.7100  146.9740 C   0  0  0  0  0  0  0  0  0  0  0  0
  160.8310  200.9180  145.3680 C   0  0  0  0  0  3  0  0  0  0  0  0
  1  9  1  0  0  0  0
  1 14  1  0  0  0  0
  2  3  1  0  0  0  0
  3  7  2  0  0  0  0
  3 19  1  0  0  0  0
  4 11  1  0  0  0  0
  4 15  2  0  0  0  0
  5 14  2  0  0  0  0
  5  2  1  0  0  0  0
  6  1  2  0  0  0  0
  7  4  1  0  0  0  0
  8 13  1  0  0  0  0
 10 19  1  0  0  0  0
 12 16  1  0  0  0  0
 12  8  2  0  0  0  0
 13  2  2  0  0  0  0
 13 18  1  0  0  0  0
 16  5  1  0  0  0  0
 17  6  1  0  0  0  0
 17 16  2  0  0  0  0
 18 10  2  0  0  0  0
 19 20  2  0  0  0  0
 20 15  1  0  0  0  0
 21 22  2  0  0  0  0
 22 23  1  0  0  0  0
 23  8  1  0  0  0  0
 24 28  1  0  0  0  0
 26 29  1  0  0  0  0
 27 24  1  0  0  0  0
 28 25  2  0  0  0  0
 29 30  2  0  0  0  0
 30 22  1  0  0  0  0
 30 25  1  0  0  0  0
 31 29  1  0  0  0  0
 31 24  2  0  0  0  0
M  END
>  <MODEL>
5

>  <REMARK>
 VINA RESULT:      -7.7      3.531      7.765
  Name = 
  2 active torsions:
  status: ('A' for Active; 'I' for Inactive)
    1  A    between atoms: C_5  and  C_30
    2  A    between atoms: C_10  and  N_16
                            x       y       z     vdW  Elec       q    Type
                         _______ _______ _______ _____ _____    ______ ____

>  <TORSDO>
F 2

$$$$
=
 OpenBabel11122413213D

 31 35  0  0  0  0  0  0  0  0999 V2000
  161.5760  212.7810  149.6080 C   0  0  0  0  0  0  0  0  0  0  0  0
  161.1640  209.5360  151.4780 C   0  0  0  0  0  0  0  0  0  0  0  0
  160.8830  209.8720  152.8370 C   0  0  0  0  0  0  0  0  0  0  0  0
  160.5190  211.4830  154.6370 C   0  0  0  0  0  0  0  0  0  0  0  0
  161.3880  210.4880  150.4340 C   0  0  0  0  0  0  0  0  0  0  0  0
  161.8400  212.3120  148.3220 C   0  0  0  0  0  3  0  0  0  0  0  0
  160.7960  211.1980  153.2990 C   0  0  0  0  0  3  0  0  0  0  0  0
  161.4920  207.7260  149.8400 C   0  0  0  0  0  0  0  0  0  0  0  0
  161.5350  214.1460  149.8540 O   0  0  0  0  0  1  0  0  0  0  0  0
  160.7540  207.5410  153.3760 N   0  0  0  0  0  0  0  0  0  0  0  0
  160.4420  212.7690  155.0540 F   0  0  0  0  0  0  0  0  0  0  0  0
  161.7070  208.6730  148.8390 C   0  0  0  0  0  3  0  0  0  0  0  0
  161.2220  208.1520  151.1490 C   0  0  0  0  0  0  0  0  0  0  0  0
  161.3540  211.8780  150.6480 C   0  0  0  0  0  3  0  0  0  0  0  0
  160.3230  210.4420  155.5450 C   0  0  0  0  0  3  0  0  0  0  0  0
  161.6590  210.0310  149.1180 C   0  0  0  0  0  0  0  0  0  0  0  0
  161.8810  210.9400  148.0780 C   0  0  0  0  0  3  0  0  0  0  0  0
  161.0140  207.2150  152.1130 N   0  0  0  0  0  0  0  0  0  0  0  0
  160.6800  208.8310  153.7720 C   0  0  0  0  0  0  0  0  0  0  0  0
  160.4030  209.1190  155.1130 C   0  0  0  0  0  3  0  0  0  0  0  0
  160.0990  206.2450  147.7100 O   0  0  0  0  0  0  0  0  0  0  0  0
  160.8500  205.6190  148.5050 C   0  0  0  0  0  0  0  0  0  0  0  0
  161.5410  206.3180  149.5520 N   0  0  0  0  0  2  0  0  0  0  0  0
  161.3920  201.3880  148.0280 C   0  0  0  0  0  0  0  0  0  0  0  0
  161.4460  203.6340  147.1330 C   0  0  0  0  0  3  0  0  0  0  0  0
  160.3910  203.7160  150.6530 F   0  0  0  0  0  0  0  0  0  0  0  0
  161.5840  199.9260  147.8490 C   0  0  0  0  0  1  0  0  0  0  0  0
  161.6260  202.2590  146.9630 C   0  0  0  0  0  3  0  0  0  0  0  0
  160.7950  203.2670  149.4390 C   0  0  0  0  0  0  0  0  0  0  0  0
  161.0290  204.1560  148.3670 C   0  0  0  0  0  0  0  0  0  0  0  0
  160.9780  201.8920  149.2620 C   0  0  0  0  0  3  0  0  0  0  0  0
  1  9  1  0  0  0  0
  1 14  1  0  0  0  0
  2  3  1  0  0  0  0
  3  7  2  0  0  0  0
  3 19  1  0  0  0  0
  4 11  1  0  0  0  0
  4 15  2  0  0  0  0
  5 14  2  0  0  0  0
  5  2  1  0  0  0  0
  6  1  2  0  0  0  0
  7  4  1  0  0  0  0
  8 13  1  0  0  0  0
 10 19  1  0  0  0  0
 12 16  1  0  0  0  0
 12  8  2  0  0  0  0
 13  2  2  0  0  0  0
 13 18  1  0  0  0  0
 16  5  1  0  0  0  0
 17  6  1  0  0  0  0
 17 16  2  0  0  0  0
 18 10  2  0  0  0  0
 19 20  2  0  0  0  0
 20 15  1  0  0  0  0
 21 22  2  0  0  0  0
 22 23  1  0  0  0  0
 23  8  1  0  0  0  0
 24 31  1  0  0  0  0
 25 30  2  0  0  0  0
 27 24  1  0  0  0  0
 28 25  1  0  0  0  0
 28 24  2  0  0  0  0
 29 26  1  0  0  0  0
 30 22  1  0  0  0  0
 30 29  1  0  0  0  0
 31 29  2  0  0  0  0
M  END
>  <MODEL>
6

>  <REMARK>
 VINA RESULT:      -7.6      2.897      7.771
  Name = 
  2 active torsions:
  status: ('A' for Active; 'I' for Inactive)
    1  A    between atoms: C_5  and  C_30
    2  A    between atoms: C_10  and  N_16
                            x       y       z     vdW  Elec       q    Type
                         _______ _______ _______ _____ _____    ______ ____

>  <TORSDO>
F 2

$$$$
