=
 OpenBabel11122413123D

 31 36  0  0  1  0  0  0  0  0999 V2000
  160.5320  207.7130  156.2580 C   0  0  0  0  0  0  0  0  0  0  0  0
  161.8870  209.1480  153.0090 C   0  0  2  0  0  3  0  0  0  0  0  0
  161.5220  208.1570  151.9120 C   0  0  0  0  0  0  0  0  0  0  0  0
  160.8030  205.9450  151.1990 C   0  0  0  0  0  0  0  0  0  0  0  0
  161.0480  208.9830  154.2530 C   0  0  0  0  0  0  0  0  0  0  0  0
  159.4490  208.5530  156.5170 C   0  0  0  0  0  3  0  0  0  0  0  0
  161.1020  206.8520  152.2180 C   0  0  0  0  0  3  0  0  0  0  0  0
  160.3950  211.0780  152.3390 C   0  0  2  0  0  3  0  0  0  0  0  0
  160.8360  206.5870  157.1770 C   0  0  0  0  0  1  0  0  0  0  0  0
  162.1380  209.7990  150.2230 O   0  0  0  0  0  0  0  0  0  0  0  0
  160.2640  204.3290  151.5990 Cl  0  0  0  0  0  0  0  0  0  0  0  0
  159.6930  211.0670  153.7030 C   0  0  0  0  0  2  0  0  0  0  0  0
  161.8550  210.6060  152.5030 C   0  0  2  0  0  3  0  0  0  0  0  0
  161.3290  207.9280  155.1310 C   0  0  0  0  0  3  0  0  0  0  0  0
  160.9360  206.3270  149.8620 C   0  0  0  0  0  3  0  0  0  0  0  0
  159.9530  209.8340  154.5180 C   0  0  0  0  0  0  0  0  0  0  0  0
  159.1670  209.6160  155.6540 C   0  0  0  0  0  3  0  0  0  0  0  0
  162.6610  210.6910  151.2050 C   0  0  0  0  0  2  0  0  0  0  0  0
  161.6860  208.5220  150.5600 C   0  0  0  0  0  0  0  0  0  0  0  0
  161.3780  207.6130  149.5430 C   0  0  0  0  0  3  0  0  0  0  0  0
  158.8980  212.8220  151.8810 C   0  0  0  0  0  2  0  0  0  0  0  0
  159.4390  212.3940  150.6010 C   0  0  2  0  0  3  0  0  0  0  0  0
  160.3140  212.4290  151.7870 N   0  0  2  0  0  0  0  0  0  0  0  0
  158.1770  213.2500  147.1770 C   0  0  1  0  0  3  0  0  0  0  0  0
  158.4020  214.2450  149.3830 O   0  0  0  0  0  0  0  0  0  0  0  0
  161.7080  212.3670  148.6180 O   0  0  0  0  0  0  0  0  0  0  0  0
  157.1930  212.4820  146.3210 C   0  0  0  0  0  1  0  0  0  0  0  0
  157.6400  213.3450  148.6040 C   0  0  0  0  0  2  0  0  0  0  0  0
  160.6580  213.4040  148.2470 S   0  0  2  0  0  0  0  0  0  0  0  0
  159.6330  213.6430  149.7300 C   0  0  2  0  0  3  0  0  0  0  0  0
  159.5150  212.5250  147.1700 C   0  0  0  0  0  2  0  0  0  0  0  0
  1  6  1  0  0  0  0
  1  9  1  0  0  0  0
  2  3  1  6  0  0  0
  2  5  1  0  0  0  0
  3  7  1  0  0  0  0
  4 11  1  0  0  0  0
  4  7  2  0  0  0  0
  5 16  2  0  0  0  0
  5 14  1  0  0  0  0
  8 13  1  0  0  0  0
  8 12  1  1  0  0  0
 10 19  1  0  0  0  0
 10 18  1  0  0  0  0
 12 16  1  0  0  0  0
 13 18  1  6  0  0  0
 13  2  1  0  0  0  0
 14  1  2  0  0  0  0
 15  4  1  0  0  0  0
 16 17  1  0  0  0  0
 17  6  2  0  0  0  0
 19  3  2  0  0  0  0
 20 15  2  0  0  0  0
 20 19  1  0  0  0  0
 22 23  1  0  0  0  0
 22 21  1  1  0  0  0
 23 21  1  1  0  0  0
 23  8  1  0  0  0  0
 24 27  1  6  0  0  0
 24 28  1  0  0  0  0
 28 25  1  0  0  0  0
 29 26  2  1  0  0  0
 29 30  1  0  0  0  0
 30 25  1  6  0  0  0
 30 22  1  0  0  0  0
 31 24  1  0  0  0  0
 31 29  1  0  0  0  0
M  END
>  <MODEL>
1

>  <REMARK>
 VINA RESULT:      -6.1      0.000      0.000
  Name = 
  2 active torsions:
  status: ('A' for Active; 'I' for Inactive)
    1  A    between atoms: C_5  and  C_30
    2  A    between atoms: C_10  and  N_16
                            x       y       z     vdW  Elec       q    Type
                         _______ _______ _______ _____ _____    ______ ____

>  <TORSDO>
F 2

$$$$
=
 OpenBabel11122413123D

 31 36  0  0  1  0  0  0  0  0999 V2000
  160.8030  209.4090  154.6140 C   0  0  0  0  0  0  0  0  0  0  0  0
  162.0490  210.3400  151.1450 C   0  0  2  0  0  3  0  0  0  0  0  0
  161.6910  209.1780  150.2300 C   0  0  0  0  0  0  0  0  0  0  0  0
  161.0230  206.8620  149.8970 C   0  0  0  0  0  0  0  0  0  0  0  0
  161.2410  210.3550  152.4200 C   0  0  0  0  0  0  0  0  0  0  0  0
  159.7010  210.2530  154.7630 C   0  0  0  0  0  3  0  0  0  0  0  0
  161.3160  207.9280  150.7500 C   0  0  0  0  0  3  0  0  0  0  0  0
  160.4880  212.0990  150.2140 C   0  0  2  0  0  3  0  0  0  0  0  0
  161.1580  208.4530  155.6940 C   0  0  0  0  0  1  0  0  0  0  0  0
  162.2250  210.5430  148.2860 O   0  0  0  0  0  0  0  0  0  0  0  0
  160.5390  205.3170  150.5620 Cl  0  0  0  0  0  0  0  0  0  0  0  0
  159.8150  212.2890  151.5780 C   0  0  0  0  0  2  0  0  0  0  0  0
  161.9640  211.6970  150.4150 C   0  0  2  0  0  3  0  0  0  0  0  0
  161.5700  209.4620  153.4490 C   0  0  0  0  0  3  0  0  0  0  0  0
  161.1170  207.0280  148.5130 C   0  0  0  0  0  3  0  0  0  0  0  0
  160.1270  211.2090  152.5740 C   0  0  0  0  0  0  0  0  0  0  0  0
  159.3700  211.1560  153.7490 C   0  0  0  0  0  3  0  0  0  0  0  0
  162.7410  211.5940  149.1010 C   0  0  0  0  0  2  0  0  0  0  0  0
  161.8170  209.3250  148.8340 C   0  0  0  0  0  0  0  0  0  0  0  0
  161.5150  208.2580  147.9830 C   0  0  0  0  0  3  0  0  0  0  0  0
  158.9170  213.5070  149.1920 C   0  0  0  0  0  2  0  0  0  0  0  0
  159.7870  213.0210  148.1340 C   0  0  2  0  0  3  0  0  0  0  0  0
  160.3570  213.3420  149.4550 N   0  0  2  0  0  0  0  0  0  0  0  0
  160.2100  213.0310  144.4100 C   0  0  1  0  0  3  0  0  0  0  0  0
  158.9970  214.2170  146.1510 O   0  0  0  0  0  0  0  0  0  0  0  0
  162.6310  213.7080  147.4100 O   0  0  0  0  0  0  0  0  0  0  0  0
  160.0640  211.8730  143.4460 C   0  0  0  0  0  1  0  0  0  0  0  0
  159.0330  213.0300  145.3840 C   0  0  0  0  0  2  0  0  0  0  0  0
  161.6520  214.2220  146.3650 S   0  0  2  0  0  0  0  0  0  0  0  0
  160.0070  214.1700  147.1400 C   0  0  2  0  0  3  0  0  0  0  0  0
  161.5190  212.8830  145.1710 C   0  0  0  0  0  2  0  0  0  0  0  0
  1  6  1  0  0  0  0
  1  9  1  0  0  0  0
  2  3  1  6  0  0  0
  2  5  1  0  0  0  0
  3  7  1  0  0  0  0
  4 11  1  0  0  0  0
  4  7  2  0  0  0  0
  5 16  2  0  0  0  0
  5 14  1  0  0  0  0
  8 13  1  0  0  0  0
  8 12  1  1  0  0  0
 10 19  1  0  0  0  0
 10 18  1  0  0  0  0
 12 16  1  0  0  0  0
 13 18  1  6  0  0  0
 13  2  1  0  0  0  0
 14  1  2  0  0  0  0
 15  4  1  0  0  0  0
 16 17  1  0  0  0  0
 17  6  2  0  0  0  0
 19  3  2  0  0  0  0
 20 15  2  0  0  0  0
 20 19  1  0  0  0  0
 22 21  1  1  0  0  0
 22 23  1  0  0  0  0
 23 21  1  1  0  0  0
 23  8  1  0  0  0  0
 24 27  1  6  0  0  0
 24 31  1  0  0  0  0
 24 28  1  0  0  0  0
 28 25  1  0  0  0  0
 29 30  1  0  0  0  0
 29 26  2  1  0  0  0
 30 25  1  6  0  0  0
 30 22  1  0  0  0  0
 31 29  1  0  0  0  0
M  END
>  <MODEL>
2

>  <REMARK>
 VINA RESULT:      -4.9      1.742      2.471
  Name = 
  2 active torsions:
  status: ('A' for Active; 'I' for Inactive)
    1  A    between atoms: C_5  and  C_30
    2  A    between atoms: C_10  and  N_16
                            x       y       z     vdW  Elec       q    Type
                         _______ _______ _______ _____ _____    ______ ____

>  <TORSDO>
F 2

$$$$
=
 OpenBabel11122413123D

 31 36  0  0  1  0  0  0  0  0999 V2000
  161.5760  207.2050  151.9670 C   0  0  0  0  0  0  0  0  0  0  0  0
  159.6970  210.3200  153.0710 C   0  0  2  0  0  3  0  0  0  0  0  0
  160.3090  210.7470  154.3970 C   0  0  0  0  0  0  0  0  0  0  0  0
  161.6590  210.2780  156.3650 C   0  0  0  0  0  0  0  0  0  0  0  0
  160.5980  209.4070  152.2750 C   0  0  0  0  0  0  0  0  0  0  0  0
  162.3480  207.6910  150.9110 C   0  0  0  0  0  3  0  0  0  0  0  0
  161.1330  209.8810  155.1340 C   0  0  0  0  0  3  0  0  0  0  0  0
  160.4700  212.2400  151.6170 C   0  0  2  0  0  3  0  0  0  0  0  0
  161.6850  205.7810  152.3740 C   0  0  0  0  0  1  0  0  0  0  0  0
  159.1310  212.8740  154.2550 O   0  0  0  0  0  0  0  0  0  0  0  0
  162.7000  209.1920  157.2610 Cl  0  0  0  0  0  0  0  0  0  0  0  0
  161.1970  211.2840  150.6640 C   0  0  0  0  0  2  0  0  0  0  0  0
  159.2430  211.5300  152.2280 C   0  0  2  0  0  3  0  0  0  0  0  0
  160.7040  208.0590  152.6450 C   0  0  0  0  0  3  0  0  0  0  0  0
  161.3550  211.5390  156.8830 C   0  0  0  0  0  3  0  0  0  0  0  0
  161.3780  209.8960  151.2040 C   0  0  0  0  0  0  0  0  0  0  0  0
  162.2410  209.0300  150.5250 C   0  0  0  0  0  3  0  0  0  0  0  0
  158.3950  212.4500  153.1090 C   0  0  0  0  0  2  0  0  0  0  0  0
  159.9790  212.0040  154.9440 C   0  0  0  0  0  0  0  0  0  0  0  0
  160.5150  212.4000  156.1740 C   0  0  0  0  0  3  0  0  0  0  0  0
  158.7270  213.2010  150.3790 C   0  0  0  0  0  2  0  0  0  0  0  0
  159.8520  213.0590  149.4690 C   0  0  2  0  0  3  0  0  0  0  0  0
  160.0940  213.4410  150.8720 N   0  0  2  0  0  0  0  0  0  0  0  0
  159.6110  213.3680  145.7420 C   0  0  1  0  0  3  0  0  0  0  0  0
  158.7020  214.3770  147.7570 O   0  0  0  0  0  0  0  0  0  0  0  0
  162.5100  213.8930  148.3190 O   0  0  0  0  0  0  0  0  0  0  0  0
  159.3190  212.2830  144.7270 C   0  0  0  0  0  1  0  0  0  0  0  0
  158.6250  213.2530  146.9030 C   0  0  0  0  0  2  0  0  0  0  0  0
  161.3520  214.4530  147.5060 S   0  0  2  0  0  0  0  0  0  0  0  0
  159.8720  214.2870  148.5480 C   0  0  2  0  0  3  0  0  0  0  0  0
  161.0370  213.2060  146.2490 C   0  0  0  0  0  2  0  0  0  0  0  0
  1  9  1  0  0  0  0
  1 14  1  0  0  0  0
  2  5  1  6  0  0  0
  2  3  1  0  0  0  0
  3 19  2  0  0  0  0
  3  7  1  0  0  0  0
  4 15  1  0  0  0  0
  4 11  1  0  0  0  0
  5 14  2  0  0  0  0
  6  1  2  0  0  0  0
  7  4  2  0  0  0  0
  8 12  1  6  0  0  0
  8 13  1  0  0  0  0
 10 19  1  0  0  0  0
 12 16  1  0  0  0  0
 13  2  1  0  0  0  0
 13 18  1  1  0  0  0
 16  5  1  0  0  0  0
 17  6  1  0  0  0  0
 17 16  2  0  0  0  0
 18 10  1  0  0  0  0
 19 20  1  0  0  0  0
 20 15  2  0  0  0  0
 22 21  1  1  0  0  0
 22 23  1  0  0  0  0
 23 21  1  1  0  0  0
 23  8  1  0  0  0  0
 24 27  1  6  0  0  0
 24 31  1  0  0  0  0
 24 28  1  0  0  0  0
 28 25  1  0  0  0  0
 29 26  2  1  0  0  0
 29 30  1  0  0  0  0
 30 25  1  6  0  0  0
 30 22  1  0  0  0  0
 31 29  1  0  0  0  0
M  END
>  <MODEL>
3

>  <REMARK>
 VINA RESULT:      -4.7      2.299      4.344
  Name = 
  2 active torsions:
  status: ('A' for Active; 'I' for Inactive)
    1  A    between atoms: C_5  and  C_30
    2  A    between atoms: C_10  and  N_16
                            x       y       z     vdW  Elec       q    Type
                         _______ _______ _______ _____ _____    ______ ____

>  <TORSDO>
F 2

$$$$
=
 OpenBabel11122413123D

 31 36  0  0  1  0  0  0  0  0999 V2000
  161.9590  213.7070  147.4040 C   0  0  0  0  0  0  0  0  0  0  0  0
  159.6750  214.3210  150.3800 C   0  0  2  0  0  3  0  0  0  0  0  0
  158.2480  214.2260  149.8580 C   0  0  0  0  0  0  0  0  0  0  0  0
  156.6530  214.2140  148.0220 C   0  0  0  0  0  0  0  0  0  0  0  0
  160.6800  213.6590  149.4680 C   0  0  0  0  0  0  0  0  0  0  0  0
  162.4510  212.4290  147.6750 C   0  0  0  0  0  3  0  0  0  0  0  0
  157.9710  214.2690  148.4820 C   0  0  0  0  0  3  0  0  0  0  0  0
  159.7260  212.2480  151.8300 C   0  0  2  0  0  3  0  0  0  0  0  0
  162.3690  214.4140  146.1640 C   0  0  0  0  0  1  0  0  0  0  0  0
  157.4140  214.1740  152.1450 O   0  0  0  0  0  0  0  0  0  0  0  0
  156.3270  214.2490  146.3020 Cl  0  0  0  0  0  0  0  0  0  0  0  0
  160.9120  211.6740  151.0450 C   0  0  0  0  0  2  0  0  0  0  0  0
  159.7970  213.7900  151.8240 C   0  0  2  0  0  3  0  0  0  0  0  0
  161.0780  214.3200  148.2980 C   0  0  0  0  0  3  0  0  0  0  0  0
  155.5970  214.1320  148.9310 C   0  0  0  0  0  3  0  0  0  0  0  0
  161.1810  212.3680  149.7410 C   0  0  0  0  0  0  0  0  0  0  0  0
  162.0690  211.7660  148.8450 C   0  0  0  0  0  3  0  0  0  0  0  0
  158.7090  214.4430  152.6790 C   0  0  0  0  0  2  0  0  0  0  0  0
  157.1740  214.1780  150.7700 C   0  0  0  0  0  0  0  0  0  0  0  0
  155.8570  214.1160  150.3040 C   0  0  0  0  0  3  0  0  0  0  0  0
  159.4290  210.2730  153.0560 C   0  0  0  0  0  2  0  0  0  0  0  0
  158.4120  211.2040  153.5180 C   0  0  2  0  0  3  0  0  0  0  0  0
  159.7600  211.7030  153.1860 N   0  0  2  0  0  0  0  0  0  0  0  0
  156.2410  212.9550  156.0210 C   0  0  1  0  0  3  0  0  0  0  0  0
  156.9140  210.7070  155.3890 O   0  0  0  0  0  0  0  0  0  0  0  0
  160.0930  212.9300  155.3290 O   0  0  0  0  0  0  0  0  0  0  0  0
  155.1560  213.9800  155.7680 C   0  0  0  0  0  1  0  0  0  0  0  0
  156.0770  211.7920  155.0440 C   0  0  0  0  0  2  0  0  0  0  0  0
  158.8820  212.3700  156.0610 S   0  0  2  0  0  0  0  0  0  0  0  0
  158.2490  211.0110  155.0320 C   0  0  2  0  0  3  0  0  0  0  0  0
  157.6000  213.6110  155.8290 C   0  0  0  0  0  2  0  0  0  0  0  0
  1  6  2  0  0  0  0
  1 14  1  0  0  0  0
  2  5  1  6  0  0  0
  2 13  1  0  0  0  0
  3  2  1  0  0  0  0
  3 19  1  0  0  0  0
  4  7  1  0  0  0  0
  4 15  2  0  0  0  0
  5 16  1  0  0  0  0
  6 17  1  0  0  0  0
  7  3  2  0  0  0  0
  8 12  1  6  0  0  0
  8 23  1  0  0  0  0
  9  1  1  0  0  0  0
 10 18  1  0  0  0  0
 11  4  1  0  0  0  0
 13  8  1  0  0  0  0
 13 18  1  1  0  0  0
 14  5  2  0  0  0  0
 15 20  1  0  0  0  0
 16 12  1  0  0  0  0
 17 16  2  0  0  0  0
 19 10  1  0  0  0  0
 20 19  2  0  0  0  0
 22 21  1  6  0  0  0
 22 30  1  0  0  0  0
 23 21  1  6  0  0  0
 23 22  1  0  0  0  0
 24 27  1  6  0  0  0
 28 25  1  0  0  0  0
 28 24  1  0  0  0  0
 29 26  2  6  0  0  0
 30 25  1  6  0  0  0
 30 29  1  0  0  0  0
 31 24  1  0  0  0  0
 31 29  1  0  0  0  0
M  END
>  <MODEL>
4

>  <REMARK>
 VINA RESULT:      -3.8      4.102      7.784
  Name = 
  2 active torsions:
  status: ('A' for Active; 'I' for Inactive)
    1  A    between atoms: C_5  and  C_30
    2  A    between atoms: C_10  and  N_16
                            x       y       z     vdW  Elec       q    Type
                         _______ _______ _______ _____ _____    ______ ____

>  <TORSDO>
F 2

$$$$
=
 OpenBabel11122413123D

 31 36  0  0  1  0  0  0  0  0999 V2000
  158.8550  213.7280  143.9720 C   0  0  0  0  0  0  0  0  0  0  0  0
  159.8570  214.3440  147.5870 C   0  0  2  0  0  3  0  0  0  0  0  0
  158.5750  214.3010  148.4050 C   0  0  0  0  0  0  0  0  0  0  0  0
  156.1480  214.3710  148.5600 C   0  0  0  0  0  0  0  0  0  0  0  0
  159.7190  213.6740  146.2420 C   0  0  0  0  0  0  0  0  0  0  0  0
  159.3250  212.4310  143.7580 C   0  0  0  0  0  3  0  0  0  0  0  0
  157.3140  214.3790  147.7910 C   0  0  0  0  0  3  0  0  0  0  0  0
  160.9710  212.2420  148.4450 C   0  0  2  0  0  3  0  0  0  0  0  0
  158.1410  214.4490  142.8880 C   0  0  0  0  0  1  0  0  0  0  0  0
  159.8860  214.2250  150.4560 O   0  0  0  0  0  0  0  0  0  0  0  0
  154.5850  214.4520  147.7760 Cl  0  0  0  0  0  0  0  0  0  0  0  0
  161.0470  211.6510  147.0320 C   0  0  0  0  0  2  0  0  0  0  0  0
  161.0610  213.7810  148.3700 C   0  0  2  0  0  3  0  0  0  0  0  0
  159.0530  214.3470  145.2080 C   0  0  0  0  0  3  0  0  0  0  0  0
  156.2290  214.3010  149.9530 C   0  0  0  0  0  3  0  0  0  0  0  0
  160.1960  212.3630  146.0220 C   0  0  0  0  0  0  0  0  0  0  0  0
  160.0020  211.7560  144.7770 C   0  0  0  0  0  3  0  0  0  0  0  0
  161.1040  214.4460  149.7480 C   0  0  0  0  0  2  0  0  0  0  0  0
  158.6470  214.2640  149.8130 C   0  0  0  0  0  0  0  0  0  0  0  0
  157.4760  214.2490  150.5780 C   0  0  0  0  0  3  0  0  0  0  0  0
  162.2920  210.3220  148.6970 C   0  0  0  0  0  2  0  0  0  0  0  0
  161.5340  210.4670  149.9290 C   0  0  2  0  0  3  0  0  0  0  0  0
  162.0510  211.6670  149.2470 N   0  0  2  0  0  0  0  0  0  0  0  0
  161.4710  207.4770  152.1880 C   0  0  1  0  0  3  0  0  0  0  0  0
  163.0420  208.7910  150.8810 O   0  0  0  0  0  0  0  0  0  0  0  0
  160.6900  211.2780  152.7070 O   0  0  0  0  0  0  0  0  0  0  0  0
  160.5910  206.2490  152.0950 C   0  0  0  0  0  1  0  0  0  0  0  0
  162.0360  207.8010  150.8070 C   0  0  0  0  0  2  0  0  0  0  0  0
  161.6750  210.1180  152.7410 S   0  0  2  0  0  0  0  0  0  0  0  0
  162.4440  210.0550  151.0950 C   0  0  2  0  0  3  0  0  0  0  0  0
  160.6420  208.6460  152.7010 C   0  0  0  0  0  2  0  0  0  0  0  0
  1 14  1  0  0  0  0
  2  5  1  6  0  0  0
  2 13  1  0  0  0  0
  2  3  1  0  0  0  0
  3 19  1  0  0  0  0
  4 15  2  0  0  0  0
  6  1  2  0  0  0  0
  6 17  1  0  0  0  0
  7  3  2  0  0  0  0
  7  4  1  0  0  0  0
  8 12  1  6  0  0  0
  8 23  1  0  0  0  0
  9  1  1  0  0  0  0
 11  4  1  0  0  0  0
 13  8  1  0  0  0  0
 13 18  1  1  0  0  0
 14  5  2  0  0  0  0
 15 20  1  0  0  0  0
 16  5  1  0  0  0  0
 16 12  1  0  0  0  0
 17 16  2  0  0  0  0
 18 10  1  0  0  0  0
 19 10  1  0  0  0  0
 19 20  2  0  0  0  0
 22 21  1  6  0  0  0
 22 30  1  0  0  0  0
 23 21  1  6  0  0  0
 23 22  1  0  0  0  0
 24 27  1  6  0  0  0
 24 31  1  0  0  0  0
 28 25  1  0  0  0  0
 28 24  1  0  0  0  0
 29 26  2  6  0  0  0
 30 25  1  6  0  0  0
 30 29  1  0  0  0  0
 31 29  1  0  0  0  0
M  END
>  <MODEL>
5

>  <REMARK>
 VINA RESULT:      -3.7      3.308      8.589
  Name = 
  2 active torsions:
  status: ('A' for Active; 'I' for Inactive)
    1  A    between atoms: C_5  and  C_30
    2  A    between atoms: C_10  and  N_16
                            x       y       z     vdW  Elec       q    Type
                         _______ _______ _______ _____ _____    ______ ____

>  <TORSDO>
F 2

$$$$
=
 OpenBabel11122413123D

 31 36  0  0  1  0  0  0  0  0999 V2000
  160.8560  206.4330  146.6730 C   0  0  0  0  0  0  0  0  0  0  0  0
  160.2600  205.0270  150.1550 C   0  0  2  0  0  3  0  0  0  0  0  0
  160.7080  203.5720  150.1170 C   0  0  0  0  0  0  0  0  0  0  0  0
  161.3050  201.5630  148.8820 C   0  0  0  0  0  0  0  0  0  0  0  0
  160.8420  205.8500  149.0310 C   0  0  0  0  0  0  0  0  0  0  0  0
  161.9580  207.2630  146.8800 C   0  0  0  0  0  3  0  0  0  0  0  0
  160.9270  202.9080  148.9000 C   0  0  0  0  0  3  0  0  0  0  0  0
  162.0430  205.9720  151.6810 C   0  0  2  0  0  3  0  0  0  0  0  0
  160.2760  206.2920  145.3130 C   0  0  0  0  0  1  0  0  0  0  0  0
  160.5790  203.4690  152.5460 O   0  0  0  0  0  0  0  0  0  0  0  0
  161.5910  200.7560  147.3560 Cl  0  0  0  0  0  0  0  0  0  0  0  0
  162.4850  206.9800  150.6140 C   0  0  0  0  0  2  0  0  0  0  0  0
  160.5350  205.6800  151.5260 C   0  0  2  0  0  3  0  0  0  0  0  0
  160.2990  205.7300  147.7450 C   0  0  0  0  0  3  0  0  0  0  0  0
  161.4540  200.8630  150.0820 C   0  0  0  0  0  3  0  0  0  0  0  0
  161.9560  206.6930  149.2390 C   0  0  0  0  0  0  0  0  0  0  0  0
  162.5000  207.3990  148.1620 C   0  0  0  0  0  3  0  0  0  0  0  0
  159.9870  204.7640  152.6230 C   0  0  0  0  0  2  0  0  0  0  0  0
  160.8270  202.8480  151.3210 C   0  0  0  0  0  0  0  0  0  0  0  0
  161.2140  201.5040  151.2990 C   0  0  0  0  0  3  0  0  0  0  0  0
  161.2020  206.2220  153.8540 C   0  0  0  0  0  2  0  0  0  0  0  0
  161.3710  207.5630  153.3190 C   0  0  2  0  0  3  0  0  0  0  0  0
  162.3630  206.5200  152.9980 N   0  0  2  0  0  0  0  0  0  0  0  0
  159.6220  210.2020  155.3260 C   0  0  1  0  0  3  0  0  0  0  0  0
  161.1020  208.2990  155.6370 O   0  0  0  0  0  0  0  0  0  0  0  0
  162.4100  210.2940  152.5780 O   0  0  0  0  0  0  0  0  0  0  0  0
  158.1540  210.5690  155.3150 C   0  0  0  0  0  1  0  0  0  0  0  0
  159.7640  208.6820  155.3910 C   0  0  0  0  0  2  0  0  0  0  0  0
  162.0060  210.2310  154.0440 S   0  0  2  0  0  0  0  0  0  0  0  0
  161.8640  208.4660  154.4580 C   0  0  2  0  0  3  0  0  0  0  0  0
  160.2780  210.7340  154.0600 C   0  0  0  0  0  2  0  0  0  0  0  0
  1  6  2  0  0  0  0
  1 14  1  0  0  0  0
  2  5  1  6  0  0  0
  2 13  1  0  0  0  0
  3  2  1  0  0  0  0
  3 19  1  0  0  0  0
  4  7  1  0  0  0  0
  4 15  2  0  0  0  0
  5 16  1  0  0  0  0
  6 17  1  0  0  0  0
  7  3  2  0  0  0  0
  8 12  1  6  0  0  0
  8 23  1  0  0  0  0
  9  1  1  0  0  0  0
 10 18  1  0  0  0  0
 11  4  1  0  0  0  0
 13  8  1  0  0  0  0
 13 18  1  1  0  0  0
 14  5  2  0  0  0  0
 15 20  1  0  0  0  0
 16 12  1  0  0  0  0
 17 16  2  0  0  0  0
 19 10  1  0  0  0  0
 20 19  2  0  0  0  0
 22 21  1  1  0  0  0
 22 30  1  0  0  0  0
 23 22  1  0  0  0  0
 23 21  1  1  0  0  0
 24 27  1  6  0  0  0
 24 28  1  0  0  0  0
 28 25  1  0  0  0  0
 29 26  2  6  0  0  0
 29 31  1  0  0  0  0
 29 30  1  0  0  0  0
 30 25  1  1  0  0  0
 31 24  1  0  0  0  0
M  END
>  <MODEL>
6

>  <REMARK>
 VINA RESULT:      -3.4      3.885      7.154
  Name = 
  2 active torsions:
  status: ('A' for Active; 'I' for Inactive)
    1  A    between atoms: C_5  and  C_30
    2  A    between atoms: C_10  and  N_16
                            x       y       z     vdW  Elec       q    Type
                         _______ _______ _______ _____ _____    ______ ____

>  <TORSDO>
F 2

$$$$
=
 OpenBabel11122413123D

 31 36  0  0  1  0  0  0  0  0999 V2000
  160.8390  201.7320  149.2860 C   0  0  0  0  0  0  0  0  0  0  0  0
  162.4070  205.0650  150.2260 C   0  0  2  0  0  3  0  0  0  0  0  0
  161.8520  206.0940  149.2520 C   0  0  0  0  0  0  0  0  0  0  0  0
  160.7250  206.6620  147.1720 C   0  0  0  0  0  0  0  0  0  0  0  0
  161.5640  203.8150  150.3030 C   0  0  0  0  0  0  0  0  0  0  0  0
  159.9350  201.5310  150.3300 C   0  0  0  0  0  3  0  0  0  0  0  0
  161.1990  205.7040  148.0720 C   0  0  0  0  0  3  0  0  0  0  0  0
  161.2960  205.8640  152.3540 C   0  0  2  0  0  3  0  0  0  0  0  0
  160.9360  200.7390  148.1860 C   0  0  0  0  0  1  0  0  0  0  0  0
  162.7480  207.8870  150.6350 O   0  0  0  0  0  0  0  0  0  0  0  0
  159.8970  206.1580  145.7150 Cl  0  0  0  0  0  0  0  0  0  0  0  0
  160.6180  204.5050  152.5630 C   0  0  0  0  0  2  0  0  0  0  0  0
  162.6440  205.6650  151.6280 C   0  0  2  0  0  3  0  0  0  0  0  0
  161.6510  202.8680  149.2740 C   0  0  0  0  0  3  0  0  0  0  0  0
  160.9140  208.0210  147.4340 C   0  0  0  0  0  3  0  0  0  0  0  0
  160.6500  203.6090  151.3600 C   0  0  0  0  0  0  0  0  0  0  0  0
  159.8490  202.4630  151.3680 C   0  0  0  0  0  3  0  0  0  0  0  0
  163.4390  206.9640  151.4750 C   0  0  0  0  0  2  0  0  0  0  0  0
  162.0680  207.4670  149.4900 C   0  0  0  0  0  0  0  0  0  0  0  0
  161.5850  208.4230  148.5900 C   0  0  0  0  0  3  0  0  0  0  0  0
  160.1160  206.5990  154.2400 C   0  0  0  0  0  2  0  0  0  0  0  0
  160.7220  207.7790  153.6460 C   0  0  2  0  0  3  0  0  0  0  0  0
  161.4650  206.5050  153.6570 N   0  0  2  0  0  0  0  0  0  0  0  0
  159.1820  210.8620  155.1180 C   0  0  1  0  0  3  0  0  0  0  0  0
  160.2190  208.7800  155.8220 O   0  0  0  0  0  0  0  0  0  0  0  0
  162.3470  210.2080  152.9090 O   0  0  0  0  0  0  0  0  0  0  0  0
  157.8270  211.4680  154.8210 C   0  0  0  0  0  1  0  0  0  0  0  0
  159.0320  209.3550  155.3150 C   0  0  0  0  0  2  0  0  0  0  0  0
  161.7060  210.3630  154.2810 S   0  0  2  0  0  0  0  0  0  0  0  0
  161.1810  208.6980  154.7880 C   0  0  2  0  0  3  0  0  0  0  0  0
  160.1200  211.1460  153.9540 C   0  0  0  0  0  2  0  0  0  0  0  0
  1  6  1  0  0  0  0
  2  3  1  6  0  0  0
  2  5  1  0  0  0  0
  2 13  1  0  0  0  0
  3 19  1  0  0  0  0
  4 15  2  0  0  0  0
  4  7  1  0  0  0  0
  5 16  2  0  0  0  0
  6 17  2  0  0  0  0
  7  3  2  0  0  0  0
  8 12  1  1  0  0  0
  8 23  1  0  0  0  0
  9  1  1  0  0  0  0
 10 18  1  0  0  0  0
 11  4  1  0  0  0  0
 13 18  1  6  0  0  0
 13  8  1  0  0  0  0
 14  1  2  0  0  0  0
 14  5  1  0  0  0  0
 15 20  1  0  0  0  0
 16 17  1  0  0  0  0
 16 12  1  0  0  0  0
 19 10  1  0  0  0  0
 20 19  2  0  0  0  0
 22 23  1  0  0  0  0
 22 21  1  1  0  0  0
 22 30  1  0  0  0  0
 23 21  1  1  0  0  0
 24 27  1  6  0  0  0
 24 28  1  0  0  0  0
 28 25  1  0  0  0  0
 29 26  2  6  0  0  0
 29 30  1  0  0  0  0
 30 25  1  1  0  0  0
 31 29  1  0  0  0  0
 31 24  1  0  0  0  0
M  END
>  <MODEL>
7

>  <REMARK>
 VINA RESULT:      -3.3      3.718      6.523
  Name = 
  2 active torsions:
  status: ('A' for Active; 'I' for Inactive)
    1  A    between atoms: C_5  and  C_30
    2  A    between atoms: C_10  and  N_16
                            x       y       z     vdW  Elec       q    Type
                         _______ _______ _______ _____ _____    ______ ____

>  <TORSDO>
F 2

$$$$
