=
 OpenBabel11122414293D

 34 42  0  0  1  0  0  0  0  0999 V2000
  160.9920  205.0240  152.0940 C   0  0  0  0  0  0  0  0  0  0  0  0
  160.8810  206.4810  154.2140 C   0  0  0  0  0  3  0  0  0  0  0  0
  162.3630  204.3680  145.9930 C   0  0  2  0  0  3  0  0  0  0  0  0
  161.0640  203.8220  149.9680 C   0  0  0  0  0  0  0  0  0  0  0  0
  161.2000  205.1160  147.9160 C   0  0  0  0  0  0  0  0  0  0  0  0
  160.9530  206.5100  145.7980 C   0  0  0  0  0  2  0  0  0  0  0  0
  162.2820  205.8270  145.6070 C   0  0  1  0  0  3  0  0  0  0  0  0
  160.7880  202.4410  146.3320 C   0  0  0  0  0  2  0  0  0  0  0  0
  161.0520  207.5090  152.0970 C   0  0  0  0  0  0  0  0  0  0  0  0
  162.7040  209.8590  151.6810 C   0  0  0  0  0  2  0  0  0  0  0  0
  161.1810  206.2650  148.6450 N   0  0  0  0  0  0  0  0  0  0  0  0
  161.2810  202.5090  147.8030 C   0  0  0  0  0  2  0  0  0  0  0  0
  161.1170  207.5530  150.7490 C   0  0  0  0  0  0  0  0  0  0  0  0
  160.8070  208.0010  154.4060 C   0  0  0  0  0  3  0  0  0  0  0  0
  161.1280  203.8440  148.5600 C   0  0  0  0  0  0  0  0  0  0  0  0
  161.6910  203.1910  145.3100 C   0  0  0  0  0  2  0  0  0  0  0  0
  162.2800  209.4250  153.0250 N   0  0  0  0  0  0  0  0  0  0  0  0
  161.0570  205.0360  150.6900 C   0  0  0  0  0  0  0  0  0  0  0  0
  161.1560  205.1570  146.4240 C   0  0  2  0  0  0  0  0  0  0  0  0
  161.1210  206.2650  150.0020 C   0  0  0  0  0  0  0  0  0  0  0  0
  160.9470  202.6040  152.0740 C   0  0  0  0  0  3  0  0  0  0  0  0
  161.5330  210.1120  150.7310 C   0  0  0  0  0  2  0  0  0  0  0  0
  161.0110  202.6110  150.6770 C   0  0  0  0  0  3  0  0  0  0  0  0
  161.1630  208.8450  149.9560 C   0  0  0  0  0  2  0  0  0  0  0  0
  161.0150  208.6690  153.0320 C   0  0  1  0  0  3  0  0  0  0  0  0
  160.9360  203.8070  152.7830 C   0  0  0  0  0  3  0  0  0  0  0  0
  160.9860  206.2780  152.7860 N   0  0  0  0  0  0  0  0  0  0  0  0
  162.0800  210.6370  153.8100 C   0  0  0  0  0  2  0  0  0  0  0  0
  160.7440  211.2660  153.4520 C   0  0  0  0  0  2  0  0  0  0  0  0
  158.6460  211.0880  156.3210 C   0  0  0  0  0  2  0  0  0  0  0  0
  160.9570  211.4680  155.7770 C   0  0  0  0  0  2  0  0  0  0  0  0
  160.1520  211.8710  154.6320 N   0  0  0  0  0  0  0  0  0  0  0  0
  160.0160  211.2240  156.9370 C   0  0  0  0  0  2  0  0  0  0  0  0
  158.8600  211.2360  154.8310 C   0  0  0  0  0  2  0  0  0  0  0  0
  1 26  1  0  0  0  0
  1 27  1  0  0  0  0
  2 14  2  0  0  0  0
  3 16  1  6  0  0  0
  3 19  1  0  0  0  0
  4 23  2  0  0  0  0
  4 18  1  0  0  0  0
  5 15  2  0  0  0  0
  5 11  1  0  0  0  0
  7  6  1  6  0  0  0
  7  3  1  0  0  0  0
  7 19  1  0  0  0  0
  8 12  1  0  0  0  0
  9 27  1  0  0  0  0
  9 25  1  0  0  0  0
 10 17  1  0  0  0  0
 11 20  2  0  0  0  0
 12 15  1  0  0  0  0
 13  9  2  0  0  0  0
 15  4  1  0  0  0  0
 16  8  1  0  0  0  0
 17 25  1  0  0  0  0
 17 28  1  0  0  0  0
 18  1  2  0  0  0  0
 19  6  1  6  0  0  0
 19  5  1  0  0  0  0
 20 18  1  0  0  0  0
 20 13  1  0  0  0  0
 21 26  2  0  0  0  0
 22 10  1  0  0  0  0
 23 21  1  0  0  0  0
 24 22  1  0  0  0  0
 24 13  1  0  0  0  0
 25 14  1  1  0  0  0
 27  2  1  0  0  0  0
 29 28  1  0  0  0  0
 29 32  1  0  0  0  0
 30 33  1  0  0  0  0
 31 33  1  0  0  0  0
 32 34  1  0  0  0  0
 32 31  1  0  0  0  0
 34 30  1  0  0  0  0
M  END
>  <MODEL>
1

>  <REMARK>
 VINA RESULT:      -9.9      0.000      0.000
  Name = 
  3 active torsions:
  status: ('A' for Active; 'I' for Inactive)
    1  A    between atoms: N_17  and  C_28
    2  A    between atoms: C_28  and  C_29
    3  A    between atoms: C_29  and  N_32
                            x       y       z     vdW  Elec       q    Type
                         _______ _______ _______ _____ _____    ______ ____

>  <TORSDO>
F 3

$$$$
=
 OpenBabel11122414293D

 34 42  0  0  1  0  0  0  0  0999 V2000
  161.5580  208.9100  151.0060 C   0  0  0  0  0  0  0  0  0  0  0  0
  161.5590  210.8300  152.7220 C   0  0  0  0  0  3  0  0  0  0  0  0
  160.1680  202.9760  149.4600 C   0  0  2  0  0  3  0  0  0  0  0  0
  161.5730  206.9520  149.5450 C   0  0  0  0  0  0  0  0  0  0  0  0
  161.2810  204.7600  150.5510 C   0  0  0  0  0  0  0  0  0  0  0  0
  161.3590  202.4800  151.6850 C   0  0  0  0  0  2  0  0  0  0  0  0
  160.1000  202.4110  150.8600 C   0  0  1  0  0  3  0  0  0  0  0  0
  161.9290  203.5090  147.7490 C   0  0  0  0  0  2  0  0  0  0  0  0
  161.2560  208.6070  153.4550 C   0  0  0  0  0  0  0  0  0  0  0  0
  159.3760  207.9480  155.5650 C   0  0  0  0  0  2  0  0  0  0  0  0
  161.1980  205.3400  151.7790 N   0  0  0  0  0  0  0  0  0  0  0  0
  161.4530  204.9730  147.9550 C   0  0  0  0  0  2  0  0  0  0  0  0
  161.1660  207.2660  153.3220 C   0  0  0  0  0  0  0  0  0  0  0  0
  161.4860  210.8300  154.2540 C   0  0  0  0  0  3  0  0  0  0  0  0
  161.4870  205.5550  149.3830 C   0  0  0  0  0  0  0  0  0  0  0  0
  160.9410  202.4270  148.2760 C   0  0  0  0  0  2  0  0  0  0  0  0
  159.8600  209.3240  155.3460 N   0  0  0  0  0  0  0  0  0  0  0  0
  161.4720  207.5180  150.8350 C   0  0  0  0  0  0  0  0  0  0  0  0
  161.2990  203.2740  150.4080 C   0  0  2  0  0  0  0  0  0  0  0  0
  161.2780  206.6850  151.9560 C   0  0  0  0  0  0  0  0  0  0  0  0
  161.8400  209.1890  148.6180 C   0  0  0  0  0  3  0  0  0  0  0  0
  160.5030  206.9430  155.8070 C   0  0  0  0  0  2  0  0  0  0  0  0
  161.7550  207.8040  148.4430 C   0  0  0  0  0  3  0  0  0  0  0  0
  160.9830  206.3210  154.4930 C   0  0  0  0  0  2  0  0  0  0  0  0
  161.1930  209.3900  154.7210 C   0  0  1  0  0  3  0  0  0  0  0  0
  161.7430  209.7430  149.8960 C   0  0  0  0  0  3  0  0  0  0  0  0
  161.4520  209.4410  152.3310 N   0  0  0  0  0  0  0  0  0  0  0  0
  159.9530  209.9470  156.6600 C   0  0  0  0  0  2  0  0  0  0  0  0
  158.9230  211.0580  156.7770 C   0  0  0  0  0  2  0  0  0  0  0  0
  156.0920  212.0890  154.8810 C   0  0  0  0  0  2  0  0  0  0  0  0
  158.4290  212.6130  155.0950 C   0  0  0  0  0  2  0  0  0  0  0  0
  158.2380  211.2300  155.5070 N   0  0  0  0  0  0  0  0  0  0  0  0
  157.1420  213.0830  154.4510 C   0  0  0  0  0  2  0  0  0  0  0  0
  156.8150  211.1030  155.7730 C   0  0  0  0  0  2  0  0  0  0  0  0
  1 27  1  0  0  0  0
  2 14  2  0  0  0  0
  3 16  1  6  0  0  0
  3 19  1  0  0  0  0
  3  7  1  0  0  0  0
  4 18  1  0  0  0  0
  5 11  2  0  0  0  0
  7  6  1  6  0  0  0
  8 12  1  0  0  0  0
  8 16  1  0  0  0  0
  9 25  1  0  0  0  0
 10 22  1  0  0  0  0
 11 20  1  0  0  0  0
 12 15  1  0  0  0  0
 13  9  2  0  0  0  0
 13 24  1  0  0  0  0
 15  4  2  0  0  0  0
 15  5  1  0  0  0  0
 17 10  1  0  0  0  0
 17 28  1  0  0  0  0
 18  1  1  0  0  0  0
 18 20  2  0  0  0  0
 19  5  1  0  0  0  0
 19  7  1  0  0  0  0
 19  6  1  6  0  0  0
 20 13  1  0  0  0  0
 21 26  1  0  0  0  0
 23 21  2  0  0  0  0
 23  4  1  0  0  0  0
 24 22  1  0  0  0  0
 25 14  1  6  0  0  0
 25 17  1  0  0  0  0
 26  1  2  0  0  0  0
 27  2  1  0  0  0  0
 27  9  1  0  0  0  0
 28 29  1  0  0  0  0
 30 34  1  0  0  0  0
 31 32  1  0  0  0  0
 32 34  1  0  0  0  0
 32 29  1  0  0  0  0
 33 30  1  0  0  0  0
 33 31  1  0  0  0  0
M  END
>  <MODEL>
2

>  <REMARK>
 VINA RESULT:      -9.6      1.488      4.120
  Name = 
  3 active torsions:
  status: ('A' for Active; 'I' for Inactive)
    1  A    between atoms: N_17  and  C_28
    2  A    between atoms: C_28  and  C_29
    3  A    between atoms: C_29  and  N_32
                            x       y       z     vdW  Elec       q    Type
                         _______ _______ _______ _____ _____    ______ ____

>  <TORSDO>
F 3

$$$$
=
 OpenBabel11122414293D

 34 42  0  0  1  0  0  0  0  0999 V2000
  161.7270  208.0250  149.9300 C   0  0  0  0  0  0  0  0  0  0  0  0
  161.9550  210.1010  151.4340 C   0  0  0  0  0  3  0  0  0  0  0  0
  159.9400  202.0520  149.1120 C   0  0  2  0  0  3  0  0  0  0  0  0
  161.5320  205.9330  148.6810 C   0  0  0  0  0  0  0  0  0  0  0  0
  161.2200  203.8710  149.9260 C   0  0  0  0  0  0  0  0  0  0  0  0
  161.2820  201.7130  151.2790 C   0  0  0  0  0  2  0  0  0  0  0  0
  159.9590  201.6320  150.5630 C   0  0  1  0  0  3  0  0  0  0  0  0
  161.5810  202.3160  147.2270 C   0  0  0  0  0  2  0  0  0  0  0  0
  161.6090  207.9820  152.4130 C   0  0  0  0  0  0  0  0  0  0  0  0
  159.8770  207.6390  154.7160 C   0  0  0  0  0  2  0  0  0  0  0  0
  161.2630  204.5740  151.0910 N   0  0  0  0  0  0  0  0  0  0  0  0
  161.1920  203.8170  147.3160 C   0  0  0  0  0  2  0  0  0  0  0  0
  161.4470  206.6410  152.4260 C   0  0  0  0  0  0  0  0  0  0  0  0
  162.0060  210.2570  152.9600 C   0  0  0  0  0  3  0  0  0  0  0  0
  161.3680  204.5340  148.6700 C   0  0  0  0  0  0  0  0  0  0  0  0
  160.5890  201.3460  147.9350 C   0  0  0  0  0  2  0  0  0  0  0  0
  160.4050  208.9580  154.3210 N   0  0  0  0  0  0  0  0  0  0  0  0
  161.5620  206.6290  149.9100 C   0  0  0  0  0  0  0  0  0  0  0  0
  161.1560  202.3800  149.9360 C   0  0  2  0  0  0  0  0  0  0  0  0
  161.4200  205.9230  151.1220 C   0  0  0  0  0  0  0  0  0  0  0  0
  161.8280  208.0500  147.5110 C   0  0  0  0  0  3  0  0  0  0  0  0
  160.9710  206.6020  154.9730 C   0  0  0  0  0  2  0  0  0  0  0  0
  161.6640  206.6620  147.4870 C   0  0  0  0  0  3  0  0  0  0  0  0
  161.3140  205.8280  153.6980 C   0  0  0  0  0  2  0  0  0  0  0  0
  161.6860  208.8890  153.5930 C   0  0  1  0  0  3  0  0  0  0  0  0
  161.8600  208.7320  148.7300 C   0  0  0  0  0  3  0  0  0  0  0  0
  161.7530  208.6890  151.1980 N   0  0  0  0  0  0  0  0  0  0  0  0
  160.6330  209.7010  155.5530 C   0  0  0  0  0  2  0  0  0  0  0  0
  159.3220  209.8640  156.3040 C   0  0  0  0  0  2  0  0  0  0  0  0
  159.3310  213.0120  154.6430 C   0  0  0  0  0  2  0  0  0  0  0  0
  157.8080  211.2170  155.1330 C   0  0  0  0  0  2  0  0  0  0  0  0
  158.8390  211.2270  156.1620 N   0  0  0  0  0  0  0  0  0  0  0  0
  157.9530  212.4890  154.3260 C   0  0  0  0  0  2  0  0  0  0  0  0
  159.9310  212.0070  155.6010 C   0  0  0  0  0  2  0  0  0  0  0  0
  1 27  1  0  0  0  0
  2 14  2  0  0  0  0
  3 16  1  6  0  0  0
  3 19  1  0  0  0  0
  3  7  1  0  0  0  0
  4 18  1  0  0  0  0
  5 19  1  0  0  0  0
  5 11  2  0  0  0  0
  7  6  1  6  0  0  0
  8 12  1  0  0  0  0
  8 16  1  0  0  0  0
  9 13  2  0  0  0  0
  9 25  1  0  0  0  0
 10 22  1  0  0  0  0
 11 20  1  0  0  0  0
 12 15  1  0  0  0  0
 13 24  1  0  0  0  0
 15  4  2  0  0  0  0
 15  5  1  0  0  0  0
 17 10  1  0  0  0  0
 17 28  1  0  0  0  0
 18  1  1  0  0  0  0
 18 20  2  0  0  0  0
 19  7  1  0  0  0  0
 19  6  1  6  0  0  0
 20 13  1  0  0  0  0
 21 26  1  0  0  0  0
 23 21  2  0  0  0  0
 23  4  1  0  0  0  0
 24 22  1  0  0  0  0
 25 14  1  6  0  0  0
 25 17  1  0  0  0  0
 26  1  2  0  0  0  0
 27  2  1  0  0  0  0
 27  9  1  0  0  0  0
 28 29  1  0  0  0  0
 30 34  1  0  0  0  0
 31 32  1  0  0  0  0
 32 29  1  0  0  0  0
 33 30  1  0  0  0  0
 33 31  1  0  0  0  0
 34 32  1  0  0  0  0
M  END
>  <MODEL>
3

>  <REMARK>
 VINA RESULT:      -9.1      1.468      3.827
  Name = 
  3 active torsions:
  status: ('A' for Active; 'I' for Inactive)
    1  A    between atoms: N_17  and  C_28
    2  A    between atoms: C_28  and  C_29
    3  A    between atoms: C_29  and  N_32
                            x       y       z     vdW  Elec       q    Type
                         _______ _______ _______ _____ _____    ______ ____

>  <TORSDO>
F 3

$$$$
=
 OpenBabel11122414293D

 34 42  0  0  1  0  0  0  0  0999 V2000
  160.7420  207.6980  154.0000 C   0  0  0  0  0  0  0  0  0  0  0  0
  161.6860  205.4510  153.1720 C   0  0  0  0  0  3  0  0  0  0  0  0
  158.2500  213.3440  152.7970 C   0  0  2  0  0  3  0  0  0  0  0  0
  159.9210  209.9190  154.6030 C   0  0  0  0  0  0  0  0  0  0  0  0
  159.8960  211.6430  152.8920 C   0  0  0  0  0  0  0  0  0  0  0  0
  160.2480  213.5020  151.1860 C   0  0  0  0  0  2  0  0  0  0  0  0
  158.7540  213.4920  151.3800 C   0  0  1  0  0  3  0  0  0  0  0  0
  159.1140  213.6970  155.1290 C   0  0  0  0  0  2  0  0  0  0  0  0
  161.5270  207.2730  151.6800 C   0  0  0  0  0  0  0  0  0  0  0  0
  160.7220  206.9050  148.9160 C   0  0  0  0  0  2  0  0  0  0  0  0
  160.4210  210.7590  152.0000 N   0  0  0  0  0  0  0  0  0  0  0  0
  158.9210  212.1620  155.2580 C   0  0  0  0  0  2  0  0  0  0  0  0
  161.2600  208.5440  151.3100 C   0  0  0  0  0  0  0  0  0  0  0  0
  162.2990  205.0330  151.8290 C   0  0  0  0  0  3  0  0  0  0  0  0
  159.6390  211.2510  154.2410 C   0  0  0  0  0  0  0  0  0  0  0  0
  158.3630  214.3470  153.9300 C   0  0  0  0  0  2  0  0  0  0  0  0
  161.1880  205.7840  149.7540 N   0  0  0  0  0  0  0  0  0  0  0  0
  160.4570  209.0280  153.6470 C   0  0  0  0  0  0  0  0  0  0  0  0
  159.7060  213.0770  152.5240 C   0  0  2  0  0  0  0  0  0  0  0  0
  160.6990  209.4710  152.3310 C   0  0  0  0  0  0  0  0  0  0  0  0
  159.9640  208.1260  156.2520 C   0  0  0  0  0  3  0  0  0  0  0  0
  161.7360  208.0440  148.8110 C   0  0  0  0  0  2  0  0  0  0  0  0
  159.6780  209.4500  155.9050 C   0  0  0  0  0  3  0  0  0  0  0  0
  161.5240  209.0810  149.9170 C   0  0  0  0  0  2  0  0  0  0  0  0
  162.1070  206.1930  150.8310 C   0  0  1  0  0  3  0  0  0  0  0  0
  160.4960  207.2500  155.3030 C   0  0  0  0  0  3  0  0  0  0  0  0
  161.2850  206.8300  153.0000 N   0  0  0  0  0  0  0  0  0  0  0  0
  161.9120  204.8790  148.8710 C   0  0  0  0  0  2  0  0  0  0  0  0
  161.1470  203.5730  148.7350 C   0  0  0  0  0  2  0  0  0  0  0  0
  160.4550  201.5410  145.8950 C   0  0  0  0  0  2  0  0  0  0  0  0
  161.2990  203.7350  146.4020 C   0  0  0  0  0  2  0  0  0  0  0  0
  161.5800  202.8710  147.5390 N   0  0  0  0  0  0  0  0  0  0  0  0
  160.8330  202.8560  145.2610 C   0  0  0  0  0  2  0  0  0  0  0  0
  160.6980  201.7270  147.3770 C   0  0  0  0  0  2  0  0  0  0  0  0
  1 26  1  0  0  0  0
  3 16  1  1  0  0  0
  4 23  2  0  0  0  0
  5 15  2  0  0  0  0
  7  6  1  1  0  0  0
  7 19  1  0  0  0  0
  7  3  1  0  0  0  0
  8 12  1  0  0  0  0
  9 27  1  0  0  0  0
 10 17  1  0  0  0  0
 11 20  2  0  0  0  0
 11  5  1  0  0  0  0
 13  9  2  0  0  0  0
 13 20  1  0  0  0  0
 14  2  2  0  0  0  0
 15  4  1  0  0  0  0
 15 12  1  0  0  0  0
 16  8  1  0  0  0  0
 17 25  1  0  0  0  0
 18  1  2  0  0  0  0
 18  4  1  0  0  0  0
 19  6  1  1  0  0  0
 19  3  1  0  0  0  0
 19  5  1  0  0  0  0
 20 18  1  0  0  0  0
 22 10  1  0  0  0  0
 22 24  1  0  0  0  0
 23 21  1  0  0  0  0
 24 13  1  0  0  0  0
 25  9  1  0  0  0  0
 25 14  1  1  0  0  0
 26 21  2  0  0  0  0
 27  2  1  0  0  0  0
 27  1  1  0  0  0  0
 28 17  1  0  0  0  0
 29 28  1  0  0  0  0
 30 34  1  0  0  0  0
 31 32  1  0  0  0  0
 32 29  1  0  0  0  0
 33 30  1  0  0  0  0
 33 31  1  0  0  0  0
 34 32  1  0  0  0  0
M  END
>  <MODEL>
4

>  <REMARK>
 VINA RESULT:      -8.8      1.809      8.598
  Name = 
  3 active torsions:
  status: ('A' for Active; 'I' for Inactive)
    1  A    between atoms: N_17  and  C_28
    2  A    between atoms: C_28  and  C_29
    3  A    between atoms: C_29  and  N_32
                            x       y       z     vdW  Elec       q    Type
                         _______ _______ _______ _____ _____    ______ ____

>  <TORSDO>
F 3

$$$$
=
 OpenBabel11122414293D

 34 42  0  0  1  0  0  0  0  0999 V2000
  160.7590  207.0920  153.8210 C   0  0  0  0  0  0  0  0  0  0  0  0
  161.5320  204.8380  152.8470 C   0  0  0  0  0  3  0  0  0  0  0  0
  158.5340  212.9150  152.9950 C   0  0  2  0  0  3  0  0  0  0  0  0
  160.0960  209.3240  154.5610 C   0  0  0  0  0  0  0  0  0  0  0  0
  160.0840  211.1250  152.9310 C   0  0  0  0  0  0  0  0  0  0  0  0
  160.4560  213.0390  151.2910 C   0  0  0  0  0  2  0  0  0  0  0  0
  158.9750  213.1010  151.5620 C   0  0  1  0  0  3  0  0  0  0  0  0
  159.5310  213.1120  155.2920 C   0  0  0  0  0  2  0  0  0  0  0  0
  161.4030  206.7330  151.4460 C   0  0  0  0  0  0  0  0  0  0  0  0
  160.4430  206.5380  148.7150 C   0  0  0  0  0  2  0  0  0  0  0  0
  160.5130  210.2550  151.9750 N   0  0  0  0  0  0  0  0  0  0  0  0
  159.2580  211.5850  155.3640 C   0  0  0  0  0  2  0  0  0  0  0  0
  161.1910  208.0320  151.1460 C   0  0  0  0  0  0  0  0  0  0  0  0
  162.0530  204.4500  151.4570 C   0  0  0  0  0  3  0  0  0  0  0  0
  159.8720  210.6850  154.2720 C   0  0  0  0  0  0  0  0  0  0  0  0
  158.7590  213.8560  154.1630 C   0  0  0  0  0  2  0  0  0  0  0  0
  160.8860  205.3560  149.4770 N   0  0  0  0  0  0  0  0  0  0  0  0
  160.5320  208.4510  153.5400 C   0  0  0  0  0  0  0  0  0  0  0  0
  159.9570  212.5820  152.6360 C   0  0  2  0  0  0  0  0  0  0  0  0
  160.7340  208.9400  152.2340 C   0  0  0  0  0  0  0  0  0  0  0  0
  160.1180  207.4570  156.1260 C   0  0  0  0  0  3  0  0  0  0  0  0
  161.5140  207.6240  148.6070 C   0  0  0  0  0  2  0  0  0  0  0  0
  159.8910  208.8090  155.8530 C   0  0  0  0  0  3  0  0  0  0  0  0
  161.4150  208.6180  149.7660 C   0  0  0  0  0  2  0  0  0  0  0  0
  161.8780  205.6640  150.5220 C   0  0  1  0  0  3  0  0  0  0  0  0
  160.5530  206.5990  155.1140 C   0  0  0  0  0  3  0  0  0  0  0  0
  161.2020  206.2430  152.7560 N   0  0  0  0  0  0  0  0  0  0  0  0
  161.5120  204.4540  148.5190 C   0  0  0  0  0  2  0  0  0  0  0  0
  162.5420  205.2110  147.6980 C   0  0  0  0  0  2  0  0  0  0  0  0
  160.8340  203.8540  144.8870 C   0  0  0  0  0  2  0  0  0  0  0  0
  162.0840  205.8200  145.4820 C   0  0  0  0  0  2  0  0  0  0  0  0
  162.5350  204.7250  146.3290 N   0  0  0  0  0  0  0  0  0  0  0  0
  161.2090  205.2300  144.3970 C   0  0  0  0  0  2  0  0  0  0  0  0
  161.4890  203.7190  146.2430 C   0  0  0  0  0  2  0  0  0  0  0  0
  1 26  1  0  0  0  0
  3 16  1  1  0  0  0
  4 23  2  0  0  0  0
  5 15  2  0  0  0  0
  7  6  1  1  0  0  0
  7 19  1  0  0  0  0
  7  3  1  0  0  0  0
  8 12  1  0  0  0  0
  9 27  1  0  0  0  0
 10 17  1  0  0  0  0
 11 20  2  0  0  0  0
 11  5  1  0  0  0  0
 13  9  2  0  0  0  0
 13 20  1  0  0  0  0
 14  2  2  0  0  0  0
 15  4  1  0  0  0  0
 15 12  1  0  0  0  0
 16  8  1  0  0  0  0
 17 25  1  0  0  0  0
 18  1  2  0  0  0  0
 18  4  1  0  0  0  0
 19  6  1  1  0  0  0
 19  5  1  0  0  0  0
 19  3  1  0  0  0  0
 20 18  1  0  0  0  0
 22 10  1  0  0  0  0
 22 24  1  0  0  0  0
 23 21  1  0  0  0  0
 24 13  1  0  0  0  0
 25  9  1  0  0  0  0
 25 14  1  1  0  0  0
 26 21  2  0  0  0  0
 27  2  1  0  0  0  0
 27  1  1  0  0  0  0
 28 17  1  0  0  0  0
 29 28  1  0  0  0  0
 30 34  1  0  0  0  0
 31 32  1  0  0  0  0
 32 29  1  0  0  0  0
 33 30  1  0  0  0  0
 33 31  1  0  0  0  0
 34 32  1  0  0  0  0
M  END
>  <MODEL>
5

>  <REMARK>
 VINA RESULT:      -8.6      1.621      8.339
  Name = 
  3 active torsions:
  status: ('A' for Active; 'I' for Inactive)
    1  A    between atoms: N_17  and  C_28
    2  A    between atoms: C_28  and  C_29
    3  A    between atoms: C_29  and  N_32
                            x       y       z     vdW  Elec       q    Type
                         _______ _______ _______ _____ _____    ______ ____

>  <TORSDO>
F 3

$$$$
=
 OpenBabel11122414293D

 34 42  0  0  1  0  0  0  0  0999 V2000
  161.6130  207.3980  148.3810 C   0  0  0  0  0  0  0  0  0  0  0  0
  161.8850  209.8920  148.9600 C   0  0  0  0  0  3  0  0  0  0  0  0
  160.0220  201.5510  150.0610 C   0  0  2  0  0  3  0  0  0  0  0  0
  161.3980  204.9880  148.0400 C   0  0  0  0  0  0  0  0  0  0  0  0
  161.2890  203.5510  149.9960 C   0  0  0  0  0  0  0  0  0  0  0  0
  161.5670  202.0700  152.0500 C   0  0  0  0  0  2  0  0  0  0  0  0
  160.1900  201.7140  151.5540 C   0  0  1  0  0  3  0  0  0  0  0  0
  161.4730  201.0890  148.0620 C   0  0  0  0  0  2  0  0  0  0  0  0
  161.7210  208.3000  150.6950 C   0  0  0  0  0  0  0  0  0  0  0  0
  160.2200  208.8480  153.1170 C   0  0  0  0  0  2  0  0  0  0  0  0
  161.4070  204.6440  150.7990 N   0  0  0  0  0  0  0  0  0  0  0  0
  161.0290  202.5090  147.6170 C   0  0  0  0  0  2  0  0  0  0  0  0
  161.6190  207.0650  151.2290 C   0  0  0  0  0  0  0  0  0  0  0  0
  162.0660  210.6150  150.3000 C   0  0  0  0  0  3  0  0  0  0  0  0
  161.2950  203.6880  148.5750 C   0  0  0  0  0  0  0  0  0  0  0  0
  160.5930  200.4560  149.1790 C   0  0  0  0  0  2  0  0  0  0  0  0
  160.6520  209.9210  152.2030 N   0  0  0  0  0  0  0  0  0  0  0  0
  161.5080  206.0980  148.9060 C   0  0  0  0  0  0  0  0  0  0  0  0
  161.2920  202.1750  150.5740 C   0  0  2  0  0  0  0  0  0  0  0  0
  161.5060  205.9050  150.3020 C   0  0  0  0  0  0  0  0  0  0  0  0
  161.4950  206.5030  146.1350 C   0  0  0  0  0  3  0  0  0  0  0  0
  161.3770  207.9930  153.6370 C   0  0  0  0  0  2  0  0  0  0  0  0
  161.3910  205.2080  146.6520 C   0  0  0  0  0  3  0  0  0  0  0  0
  161.6370  206.7950  152.7210 C   0  0  0  0  0  2  0  0  0  0  0  0
  161.8640  209.5890  151.4320 C   0  0  1  0  0  3  0  0  0  0  0  0
  161.6070  207.5970  146.9960 C   0  0  0  0  0  3  0  0  0  0  0  0
  161.7240  208.4940  149.2950 N   0  0  0  0  0  0  0  0  0  0  0  0
  160.9570  211.0780  153.0340 C   0  0  0  0  0  2  0  0  0  0  0  0
  159.8580  212.1180  152.8910 C   0  0  0  0  0  2  0  0  0  0  0  0
  158.0000  211.1930  155.7820 C   0  0  0  0  0  2  0  0  0  0  0  0
  160.2200  211.9060  155.1970 C   0  0  0  0  0  2  0  0  0  0  0  0
  159.3010  212.4290  154.1960 N   0  0  0  0  0  0  0  0  0  0  0  0
  159.3930  211.3540  156.3370 C   0  0  0  0  0  2  0  0  0  0  0  0
  158.0900  211.6370  154.3390 C   0  0  0  0  0  2  0  0  0  0  0  0
  1 18  1  0  0  0  0
  1 27  1  0  0  0  0
  2 27  1  0  0  0  0
  2 14  2  0  0  0  0
  3 16  1  1  0  0  0
  3 19  1  0  0  0  0
  3  7  1  0  0  0  0
  4 15  2  0  0  0  0
  4 18  1  0  0  0  0
  5 19  1  0  0  0  0
  5 11  2  0  0  0  0
  7  6  1  1  0  0  0
  8 16  1  0  0  0  0
  9 13  2  0  0  0  0
  9 25  1  0  0  0  0
 10 22  1  0  0  0  0
 12  8  1  0  0  0  0
 12 15  1  0  0  0  0
 13 24  1  0  0  0  0
 15  5  1  0  0  0  0
 17 28  1  0  0  0  0
 17 10  1  0  0  0  0
 18 20  2  0  0  0  0
 19  7  1  0  0  0  0
 19  6  1  6  0  0  0
 20 11  1  0  0  0  0
 20 13  1  0  0  0  0
 21 23  2  0  0  0  0
 21 26  1  0  0  0  0
 23  4  1  0  0  0  0
 24 22  1  0  0  0  0
 25 14  1  6  0  0  0
 25 17  1  0  0  0  0
 26  1  2  0  0  0  0
 27  9  1  0  0  0  0
 29 28  1  0  0  0  0
 29 32  1  0  0  0  0
 30 33  1  0  0  0  0
 31 33  1  0  0  0  0
 32 34  1  0  0  0  0
 32 31  1  0  0  0  0
 34 30  1  0  0  0  0
M  END
>  <MODEL>
6

>  <REMARK>
 VINA RESULT:      -8.1      1.272      3.853
  Name = 
  3 active torsions:
  status: ('A' for Active; 'I' for Inactive)
    1  A    between atoms: N_17  and  C_28
    2  A    between atoms: C_28  and  C_29
    3  A    between atoms: C_29  and  N_32
                            x       y       z     vdW  Elec       q    Type
                         _______ _______ _______ _____ _____    ______ ____

>  <TORSDO>
F 3

$$$$
=
 OpenBabel11122414293D

 34 42  0  0  1  0  0  0  0  0999 V2000
  161.5900  207.7110  149.9770 C   0  0  0  0  0  0  0  0  0  0  0  0
  161.5620  205.9750  148.0770 C   0  0  0  0  0  3  0  0  0  0  0  0
  161.7740  209.0810  156.1120 C   0  0  2  0  0  3  0  0  0  0  0  0
  161.5160  209.2120  151.9040 C   0  0  0  0  0  0  0  0  0  0  0  0
  160.8890  208.2890  154.0620 C   0  0  0  0  0  0  0  0  0  0  0  0
  159.8620  207.3630  156.2020 C   0  0  0  0  0  2  0  0  0  0  0  0
  161.2500  207.7620  156.6310 C   0  0  1  0  0  3  0  0  0  0  0  0
  160.8410  211.2190  155.1790 C   0  0  0  0  0  2  0  0  0  0  0  0
  161.0220  205.3090  150.2760 C   0  0  0  0  0  0  0  0  0  0  0  0
  161.9050  202.7620  151.3490 C   0  0  0  0  0  2  0  0  0  0  0  0
  160.7350  207.0640  153.4880 N   0  0  0  0  0  0  0  0  0  0  0  0
  161.5980  210.7950  153.8900 C   0  0  0  0  0  2  0  0  0  0  0  0
  160.7910  205.4820  151.5950 C   0  0  0  0  0  0  0  0  0  0  0  0
  161.1500  204.4970  148.0490 C   0  0  0  0  0  3  0  0  0  0  0  0
  161.2760  209.4170  153.2770 C   0  0  0  0  0  0  0  0  0  0  0  0
  161.2920  210.4740  156.4700 C   0  0  0  0  0  2  0  0  0  0  0  0
  161.8960  203.0420  149.9020 N   0  0  0  0  0  0  0  0  0  0  0  0
  161.3540  207.9240  151.3470 C   0  0  0  0  0  0  0  0  0  0  0  0
  160.5250  208.5130  155.4920 C   0  0  2  0  0  0  0  0  0  0  0  0
  160.9630  206.8460  152.1660 C   0  0  0  0  0  0  0  0  0  0  0  0
  162.1520  210.0500  149.7070 C   0  0  0  0  0  3  0  0  0  0  0  0
  160.5360  202.9360  152.0080 C   0  0  0  0  0  2  0  0  0  0  0  0
  161.9180  210.2670  151.0680 C   0  0  0  0  0  3  0  0  0  0  0  0
  160.3440  204.3660  152.5180 C   0  0  0  0  0  2  0  0  0  0  0  0
  160.8910  204.0430  149.4990 C   0  0  1  0  0  3  0  0  0  0  0  0
  161.9870  208.7750  149.1600 C   0  0  0  0  0  3  0  0  0  0  0  0
  161.4140  206.3900  149.4540 N   0  0  0  0  0  0  0  0  0  0  0  0
  161.5660  201.7890  149.2370 C   0  0  0  0  0  2  0  0  0  0  0  0
  160.6330  202.0560  148.0680 C   0  0  0  0  0  2  0  0  0  0  0  0
  161.0130  199.4090  145.7190 C   0  0  0  0  0  2  0  0  0  0  0  0
  160.2120  201.6750  145.7940 C   0  0  0  0  0  2  0  0  0  0  0  0
  161.2040  201.5130  146.8470 N   0  0  0  0  0  0  0  0  0  0  0  0
  160.2740  200.4470  144.9120 C   0  0  0  0  0  2  0  0  0  0  0  0
  161.3250  200.0770  147.0400 C   0  0  0  0  0  2  0  0  0  0  0  0
  1 18  1  0  0  0  0
  2 27  1  0  0  0  0
  3 16  1  1  0  0  0
  3  7  1  0  0  0  0
  4 15  1  0  0  0  0
  5 19  1  0  0  0  0
  7  6  1  1  0  0  0
  8 16  1  0  0  0  0
  9 13  2  0  0  0  0
 10 22  1  0  0  0  0
 11  5  1  0  0  0  0
 12  8  1  0  0  0  0
 13 20  1  0  0  0  0
 13 24  1  0  0  0  0
 14  2  2  0  0  0  0
 15 12  1  0  0  0  0
 15  5  2  0  0  0  0
 17 10  1  0  0  0  0
 18  4  2  0  0  0  0
 18 20  1  0  0  0  0
 19  3  1  0  0  0  0
 19  6  1  1  0  0  0
 19  7  1  0  0  0  0
 20 11  2  0  0  0  0
 21 23  2  0  0  0  0
 22 24  1  0  0  0  0
 23  4  1  0  0  0  0
 25 14  1  6  0  0  0
 25 17  1  0  0  0  0
 25  9  1  0  0  0  0
 26 21  1  0  0  0  0
 26  1  2  0  0  0  0
 27  1  1  0  0  0  0
 27  9  1  0  0  0  0
 28 17  1  0  0  0  0
 29 28  1  0  0  0  0
 30 34  1  0  0  0  0
 31 32  1  0  0  0  0
 32 34  1  0  0  0  0
 32 29  1  0  0  0  0
 33 30  1  0  0  0  0
 33 31  1  0  0  0  0
M  END
>  <MODEL>
7

>  <REMARK>
 VINA RESULT:      -7.6      1.696      9.168
  Name = 
  3 active torsions:
  status: ('A' for Active; 'I' for Inactive)
    1  A    between atoms: N_17  and  C_28
    2  A    between atoms: C_28  and  C_29
    3  A    between atoms: C_29  and  N_32
                            x       y       z     vdW  Elec       q    Type
                         _______ _______ _______ _____ _____    ______ ____

>  <TORSDO>
F 3

$$$$
