=
 OpenBabel11122412313D

 30 35  0  0  1  0  0  0  0  0999 V2000
  159.7200  210.6850  152.4750 C   0  0  2  0  0  3  0  0  0  0  0  0
  161.5250  211.2590  150.7970 C   0  0  0  0  0  0  0  0  0  0  0  0
  157.7930  214.3050  151.6350 N   0  0  0  0  0  2  0  0  0  0  0  0
  158.6360  211.1830  153.4690 C   0  0  1  0  0  3  0  0  0  0  0  0
  160.4470  209.4870  152.9350 N   0  0  0  0  0  2  0  0  0  0  0  0
  158.8770  208.6950  155.3880 C   0  0  0  0  0  1  0  0  0  0  0  0
  157.9390  213.1520  155.9870 C   0  0  1  0  0  3  0  0  0  0  0  0
  159.8270  209.8840  155.3080 C   0  0  1  0  0  3  0  0  0  0  0  0
  157.1010  213.8340  154.9000 C   0  0  2  0  0  3  0  0  0  0  0  0
  156.6130  214.2020  152.4900 C   0  0  1  0  0  3  0  0  0  0  0  0
  160.9450  209.5810  154.3160 C   0  0  2  0  0  3  0  0  0  0  0  0
  159.1220  211.1840  154.9200 C   0  0  2  0  0  3  0  0  0  0  0  0
  161.4700  211.8290  149.4410 C   0  0  0  0  0  3  0  0  0  0  0  0
  155.8560  214.1690  155.4490 O   0  0  0  0  0  0  0  0  0  0  0  0
  157.2660  213.5770  157.2600 C   0  0  0  0  0  2  0  0  0  0  0  0
  162.3260  210.3150  151.0220 O   0  0  0  0  0  0  0  0  0  0  0  0
  158.6710  213.2700  152.0250 C   0  0  0  0  0  0  0  0  0  0  0  0
  160.8770  212.9610  149.2100 N   0  0  0  0  0  0  0  0  0  0  0  0
  160.6430  211.7920  151.9070 C   0  0  1  0  0  3  0  0  0  0  0  0
  158.1770  212.5230  153.1100 N   0  0  0  0  0  0  0  0  0  0  0  0
  155.4220  213.7620  151.6600 C   0  0  0  0  0  1  0  0  0  0  0  0
  156.9270  213.1230  153.5510 C   0  0  1  0  0  3  0  0  0  0  0  0
  156.1220  214.4530  156.7970 C   0  0  0  0  0  2  0  0  0  0  0  0
  156.7180  210.9050  155.7920 C   0  0  0  0  0  1  0  0  0  0  0  0
  160.3130  213.7960  150.2680 C   0  0  0  0  0  2  0  0  0  0  0  0
  159.8080  212.9570  151.4040 C   0  0  0  0  0  0  0  0  0  0  0  0
  158.0590  211.6230  155.9360 C   0  0  2  0  0  3  0  0  0  0  0  0
  162.1090  210.5600  154.4540 C   0  0  0  0  0  2  0  0  0  0  0  0
  163.9030  211.0570  155.9490 O   0  0  0  0  0  1  0  0  0  0  0  0
  162.5690  210.6500  155.8980 C   0  0  0  0  0  2  0  0  0  0  0  0
  1  5  1  1  0  0  0
  1  4  1  0  0  0  0
  2 16  2  0  0  0  0
  2 19  1  0  0  0  0
  3 17  1  0  0  0  0
  3 10  1  0  0  0  0
  4 20  1  6  0  0  0
  4 12  1  0  0  0  0
  5 11  1  0  0  0  0
  7 15  1  1  0  0  0
  8  6  1  6  0  0  0
  9 14  1  1  0  0  0
  9  7  1  0  0  0  0
 10 21  1  6  0  0  0
 10 22  1  0  0  0  0
 11 28  1  6  0  0  0
 11  8  1  0  0  0  0
 12  8  1  0  0  0  0
 12 27  1  0  0  0  0
 13  2  1  0  0  0  0
 14 23  1  0  0  0  0
 17 20  1  0  0  0  0
 18 13  2  0  0  0  0
 18 25  1  0  0  0  0
 19  1  1  0  0  0  0
 20 22  1  0  0  0  0
 22  9  1  0  0  0  0
 23 15  1  0  0  0  0
 24 27  1  0  0  0  0
 25 26  1  0  0  0  0
 26 19  1  0  0  0  0
 26 17  2  0  0  0  0
 27  7  1  0  0  0  0
 28 30  1  0  0  0  0
 30 29  1  0  0  0  0
M  END
>  <MODEL>
1

>  <REMARK>
 VINA RESULT:      -3.6      0.000      0.000
  Name = 
  2 active torsions:
  status: ('A' for Active; 'I' for Inactive)
    1  A    between atoms: C_11  and  C_28
    2  A    between atoms: C_28  and  C_30
                            x       y       z     vdW  Elec       q    Type
                         _______ _______ _______ _____ _____    ______ ____

>  <TORSDO>
F 2

$$$$
=
 OpenBabel11122412313D

 30 35  0  0  1  0  0  0  0  0999 V2000
  159.7470  211.9380  155.2480 C   0  0  2  0  0  3  0  0  0  0  0  0
  157.3930  212.3210  156.0920 C   0  0  0  0  0  0  0  0  0  0  0  0
  158.5480  213.0720  151.4010 N   0  0  0  0  0  2  0  0  0  0  0  0
  160.6810  211.5870  154.0580 C   0  0  1  0  0  3  0  0  0  0  0  0
  160.1780  211.3630  156.5350 N   0  0  0  0  0  2  0  0  0  0  0  0
  162.8960  210.2410  155.8520 C   0  0  0  0  0  1  0  0  0  0  0  0
  161.3120  209.5210  151.6000 C   0  0  1  0  0  3  0  0  0  0  0  0
  161.5680  209.6290  155.4250 C   0  0  1  0  0  3  0  0  0  0  0  0
  160.9250  210.7610  150.7880 C   0  0  2  0  0  3  0  0  0  0  0  0
  159.8120  212.9820  150.6730 C   0  0  1  0  0  3  0  0  0  0  0  0
  160.5020  209.9290  156.4740 C   0  0  2  0  0  3  0  0  0  0  0  0
  161.1010  210.1150  154.0530 C   0  0  2  0  0  3  0  0  0  0  0  0
  156.4200  213.3990  155.8530 C   0  0  0  0  0  3  0  0  0  0  0  0
  161.8290  210.8940  149.7260 O   0  0  0  0  0  0  0  0  0  0  0  0
  162.1610  208.7340  150.6440 C   0  0  0  0  0  2  0  0  0  0  0  0
  157.5130  211.8650  157.2590 O   0  0  0  0  0  0  0  0  0  0  0  0
  158.7530  212.4520  152.6530 C   0  0  0  0  0  0  0  0  0  0  0  0
  156.0540  213.7220  154.6490 N   0  0  0  0  0  0  0  0  0  0  0  0
  158.2340  211.7610  154.9630 C   0  0  1  0  0  3  0  0  0  0  0  0
  160.0470  211.9140  152.7830 N   0  0  0  0  0  0  0  0  0  0  0  0
  160.4140  214.3670  150.5290 C   0  0  0  0  0  1  0  0  0  0  0  0
  160.7510  212.0970  151.5230 C   0  0  1  0  0  3  0  0  0  0  0  0
  162.1820  209.5780  149.3880 C   0  0  0  0  0  2  0  0  0  0  0  0
  163.2720  210.6730  152.7890 C   0  0  0  0  0  1  0  0  0  0  0  0
  156.4920  212.9930  153.4610 C   0  0  0  0  0  2  0  0  0  0  0  0
  157.8710  212.4340  153.6510 C   0  0  0  0  0  0  0  0  0  0  0  0
  162.0660  209.7430  152.9190 C   0  0  2  0  0  3  0  0  0  0  0  0
  159.2630  209.0550  156.2950 C   0  0  0  0  0  2  0  0  0  0  0  0
  159.9000  206.9070  157.1190 O   0  0  0  0  0  1  0  0  0  0  0  0
  159.6540  207.6300  155.9510 C   0  0  0  0  0  2  0  0  0  0  0  0
  1  5  1  1  0  0  0
  2 16  2  0  0  0  0
  3 17  1  0  0  0  0
  4 20  1  6  0  0  0
  4  1  1  0  0  0  0
  7 15  1  6  0  0  0
  7 27  1  0  0  0  0
  8  6  1  1  0  0  0
  8 11  1  0  0  0  0
  9 14  1  6  0  0  0
  9 22  1  0  0  0  0
  9  7  1  0  0  0  0
 10 21  1  1  0  0  0
 10  3  1  0  0  0  0
 10 22  1  0  0  0  0
 11 28  1  6  0  0  0
 11  5  1  0  0  0  0
 12  4  1  0  0  0  0
 12  8  1  0  0  0  0
 13  2  1  0  0  0  0
 17 20  1  0  0  0  0
 17 26  2  0  0  0  0
 18 13  2  0  0  0  0
 19  1  1  0  0  0  0
 19  2  1  0  0  0  0
 22 20  1  0  0  0  0
 23 14  1  0  0  0  0
 23 15  1  0  0  0  0
 24 27  1  0  0  0  0
 25 26  1  0  0  0  0
 25 18  1  0  0  0  0
 26 19  1  0  0  0  0
 27 12  1  0  0  0  0
 30 28  1  0  0  0  0
 30 29  1  0  0  0  0
M  END
>  <MODEL>
2

>  <REMARK>
 VINA RESULT:      -2.7      2.014      5.573
  Name = 
  2 active torsions:
  status: ('A' for Active; 'I' for Inactive)
    1  A    between atoms: C_11  and  C_28
    2  A    between atoms: C_28  and  C_30
                            x       y       z     vdW  Elec       q    Type
                         _______ _______ _______ _____ _____    ______ ____

>  <TORSDO>
F 2

$$$$
=
 OpenBabel11122412313D

 30 35  0  0  1  0  0  0  0  0999 V2000
  162.0970  204.2720  147.5950 C   0  0  2  0  0  3  0  0  0  0  0  0
  160.9220  202.6840  146.0150 C   0  0  0  0  0  0  0  0  0  0  0  0
  160.9660  201.8770  150.8370 N   0  0  0  0  0  2  0  0  0  0  0  0
  162.2020  204.8760  149.0220 C   0  0  1  0  0  3  0  0  0  0  0  0
  162.3680  205.2390  146.5160 N   0  0  0  0  0  2  0  0  0  0  0  0
  163.3560  207.6430  148.0500 C   0  0  0  0  0  1  0  0  0  0  0  0
  160.6250  206.3200  151.4980 C   0  0  1  0  0  3  0  0  0  0  0  0
  161.9040  207.1850  147.9880 C   0  0  1  0  0  3  0  0  0  0  0  0
  160.9510  204.9780  152.1610 C   0  0  2  0  0  3  0  0  0  0  0  0
  161.6000  202.5860  151.9470 C   0  0  1  0  0  3  0  0  0  0  0  0
  161.6350  206.5080  146.6480 C   0  0  2  0  0  3  0  0  0  0  0  0
  161.5270  206.2450  149.1340 C   0  0  2  0  0  3  0  0  0  0  0  0
  160.8840  201.2140  145.9370 C   0  0  0  0  0  3  0  0  0  0  0  0
  161.3880  205.2260  153.4690 O   0  0  0  0  0  0  0  0  0  0  0  0
  160.4460  207.2470  152.6660 C   0  0  0  0  0  2  0  0  0  0  0  0
  161.0200  203.3420  144.9470 O   0  0  0  0  0  0  0  0  0  0  0  0
  161.0390  202.7300  149.7140 C   0  0  0  0  0  0  0  0  0  0  0  0
  160.5160  200.4950  146.9540 N   0  0  0  0  0  0  0  0  0  0  0  0
  160.8410  203.3990  147.3480 C   0  0  1  0  0  3  0  0  0  0  0  0
  161.6300  203.9710  150.0150 N   0  0  0  0  0  0  0  0  0  0  0  0
  162.8960  201.8930  152.3180 C   0  0  0  0  0  1  0  0  0  0  0  0
  161.9060  204.0150  151.4430 C   0  0  1  0  0  3  0  0  0  0  0  0
  160.6780  206.3670  153.8750 C   0  0  0  0  0  2  0  0  0  0  0  0
  163.0810  206.9250  151.0690 C   0  0  0  0  0  1  0  0  0  0  0  0
  160.0240  201.0730  148.2030 C   0  0  0  0  0  2  0  0  0  0  0  0
  160.6750  202.3960  148.4760 C   0  0  0  0  0  0  0  0  0  0  0  0
  161.6550  206.8960  150.5180 C   0  0  2  0  0  3  0  0  0  0  0  0
  160.1410  206.3530  146.3770 C   0  0  0  0  0  2  0  0  0  0  0  0
  161.0570  206.2880  144.1730 O   0  0  0  0  0  1  0  0  0  0  0  0
  159.8840  206.0910  144.9040 C   0  0  0  0  0  2  0  0  0  0  0  0
  1  5  1  6  0  0  0
  1  4  1  0  0  0  0
  2 19  1  0  0  0  0
  3 10  1  0  0  0  0
  4 12  1  0  0  0  0
  4 20  1  1  0  0  0
  5 11  1  0  0  0  0
  7  9  1  0  0  0  0
  7 15  1  1  0  0  0
  8  6  1  1  0  0  0
  8 12  1  0  0  0  0
  9 14  1  1  0  0  0
 10 21  1  6  0  0  0
 11 28  1  1  0  0  0
 11  8  1  0  0  0  0
 12 27  1  0  0  0  0
 13  2  1  0  0  0  0
 13 18  2  0  0  0  0
 14 23  1  0  0  0  0
 15 23  1  0  0  0  0
 16  2  2  0  0  0  0
 17 20  1  0  0  0  0
 17  3  1  0  0  0  0
 18 25  1  0  0  0  0
 19  1  1  0  0  0  0
 19 26  1  0  0  0  0
 20 22  1  0  0  0  0
 22 10  1  0  0  0  0
 22  9  1  0  0  0  0
 25 26  1  0  0  0  0
 26 17  2  0  0  0  0
 27 24  1  0  0  0  0
 27  7  1  0  0  0  0
 29 30  1  0  0  0  0
 30 28  1  0  0  0  0
M  END
>  <MODEL>
3

>  <REMARK>
 VINA RESULT:      -2.2      7.310     10.298
  Name = 
  2 active torsions:
  status: ('A' for Active; 'I' for Inactive)
    1  A    between atoms: C_11  and  C_28
    2  A    between atoms: C_28  and  C_30
                            x       y       z     vdW  Elec       q    Type
                         _______ _______ _______ _____ _____    ______ ____

>  <TORSDO>
F 2

$$$$
=
 OpenBabel11122412313D

 30 35  0  0  1  0  0  0  0  0999 V2000
  161.5010  209.8240  153.6110 C   0  0  2  0  0  3  0  0  0  0  0  0
  161.3320  207.7600  155.0640 C   0  0  0  0  0  0  0  0  0  0  0  0
  158.7220  211.7720  156.0620 N   0  0  0  0  0  2  0  0  0  0  0  0
  160.8290  211.1150  153.0710 C   0  0  1  0  0  3  0  0  0  0  0  0
  162.3430  209.1290  152.6200 N   0  0  0  0  0  2  0  0  0  0  0  0
  162.4020  211.1060  150.3400 C   0  0  0  0  0  1  0  0  0  0  0  0
  158.1990  212.4300  151.6360 C   0  0  1  0  0  3  0  0  0  0  0  0
  161.2060  210.2380  150.7090 C   0  0  1  0  0  3  0  0  0  0  0  0
  158.0740  213.0750  153.0210 C   0  0  2  0  0  3  0  0  0  0  0  0
  158.6690  213.0910  155.4360 C   0  0  1  0  0  3  0  0  0  0  0  0
  161.6910  208.9250  151.3160 C   0  0  2  0  0  3  0  0  0  0  0  0
  160.2400  210.9320  151.6700 C   0  0  2  0  0  3  0  0  0  0  0  0
  161.3020  207.5780  156.5240 C   0  0  0  0  0  3  0  0  0  0  0  0
  157.7350  214.4240  152.8500 O   0  0  0  0  0  0  0  0  0  0  0  0
  157.4390  213.3710  150.7480 C   0  0  0  0  0  2  0  0  0  0  0  0
  162.0140  206.9610  154.3710 O   0  0  0  0  0  0  0  0  0  0  0  0
  159.4180  210.9250  155.1710 C   0  0  0  0  0  0  0  0  0  0  0  0
  160.4200  208.1840  157.2610 N   0  0  0  0  0  0  0  0  0  0  0  0
  160.5590  208.8790  154.3980 C   0  0  1  0  0  3  0  0  0  0  0  0
  159.7840  211.5790  153.9800 N   0  0  0  0  0  0  0  0  0  0  0  0
  159.5340  214.0600  156.2180 C   0  0  0  0  0  1  0  0  0  0  0  0
  159.2400  212.9280  154.0090 C   0  0  1  0  0  3  0  0  0  0  0  0
  156.9510  214.4530  151.6870 C   0  0  0  0  0  2  0  0  0  0  0  0
  160.5080  213.4400  151.1600 C   0  0  0  0  0  1  0  0  0  0  0  0
  159.3440  209.0010  156.7050 C   0  0  0  0  0  2  0  0  0  0  0  0
  159.7780  209.6690  155.4340 C   0  0  0  0  0  0  0  0  0  0  0  0
  159.6120  212.2040  151.0830 C   0  0  2  0  0  3  0  0  0  0  0  0
  160.5810  207.8790  151.3730 C   0  0  0  0  0  2  0  0  0  0  0  0
  161.4870  206.5330  149.6210 O   0  0  0  0  0  1  0  0  0  0  0  0
  161.1050  206.5140  150.9630 C   0  0  0  0  0  2  0  0  0  0  0  0
  1  5  1  6  0  0  0
  1 19  1  0  0  0  0
  2 13  1  0  0  0  0
  4  1  1  0  0  0  0
  4 20  1  1  0  0  0
  7 15  1  6  0  0  0
  7  9  1  0  0  0  0
  8  6  1  1  0  0  0
  8 11  1  0  0  0  0
  8 12  1  0  0  0  0
  9 14  1  6  0  0  0
  9 22  1  0  0  0  0
 10  3  1  0  0  0  0
 10 21  1  1  0  0  0
 11 28  1  1  0  0  0
 11  5  1  0  0  0  0
 12  4  1  0  0  0  0
 13 18  2  0  0  0  0
 15 23  1  0  0  0  0
 16  2  2  0  0  0  0
 17 26  2  0  0  0  0
 17  3  1  0  0  0  0
 19  2  1  0  0  0  0
 19 26  1  0  0  0  0
 20 22  1  0  0  0  0
 20 17  1  0  0  0  0
 22 10  1  0  0  0  0
 23 14  1  0  0  0  0
 25 18  1  0  0  0  0
 26 25  1  0  0  0  0
 27 24  1  0  0  0  0
 27  7  1  0  0  0  0
 27 12  1  0  0  0  0
 29 30  1  0  0  0  0
 30 28  1  0  0  0  0
M  END
>  <MODEL>
4

>  <REMARK>
 VINA RESULT:      -2.2      2.318      5.245
  Name = 
  2 active torsions:
  status: ('A' for Active; 'I' for Inactive)
    1  A    between atoms: C_11  and  C_28
    2  A    between atoms: C_28  and  C_30
                            x       y       z     vdW  Elec       q    Type
                         _______ _______ _______ _____ _____    ______ ____

>  <TORSDO>
F 2

$$$$
=
 OpenBabel11122412313D

 30 35  0  0  1  0  0  0  0  0999 V2000
  160.5100  208.1120  151.9380 C   0  0  2  0  0  3  0  0  0  0  0  0
  161.7740  207.9090  149.7560 C   0  0  0  0  0  0  0  0  0  0  0  0
  160.7860  212.2830  151.7050 N   0  0  0  0  0  2  0  0  0  0  0  0
  160.2160  208.9370  153.2200 C   0  0  1  0  0  3  0  0  0  0  0  0
  160.5390  206.6550  152.1580 N   0  0  0  0  0  2  0  0  0  0  0  0
  159.5520  206.4230  155.0010 C   0  0  0  0  0  1  0  0  0  0  0  0
  161.4700  210.5210  155.7940 C   0  0  1  0  0  3  0  0  0  0  0  0
  160.9350  206.9170  154.5960 C   0  0  1  0  0  3  0  0  0  0  0  0
  160.8920  211.7140  155.0260 C   0  0  2  0  0  3  0  0  0  0  0  0
  160.0430  212.6820  152.8980 C   0  0  1  0  0  3  0  0  0  0  0  0
  161.3660  206.2370  153.3010 C   0  0  2  0  0  3  0  0  0  0  0  0
  161.0010  208.4370  154.4350 C   0  0  2  0  0  3  0  0  0  0  0  0
  161.6710  208.6380  148.4810 C   0  0  0  0  0  3  0  0  0  0  0  0
  160.2570  212.5640  155.9430 O   0  0  0  0  0  0  0  0  0  0  0  0
  161.5340  211.0200  157.2080 C   0  0  0  0  0  2  0  0  0  0  0  0
  161.9380  206.6610  149.7250 O   0  0  0  0  0  0  0  0  0  0  0  0
  161.0050  210.8910  151.8070 C   0  0  0  0  0  0  0  0  0  0  0  0
  161.7740  209.9320  148.4350 N   0  0  0  0  0  0  0  0  0  0  0  0
  161.6910  208.6360  151.0820 C   0  0  1  0  0  3  0  0  0  0  0  0
  160.5040  210.3530  153.0070 N   0  0  0  0  0  0  0  0  0  0  0  0
  158.6360  213.0890  152.5060 C   0  0  0  0  0  1  0  0  0  0  0  0
  159.9840  211.4430  153.8190 C   0  0  1  0  0  3  0  0  0  0  0  0
  160.9990  212.4330  157.1270 C   0  0  0  0  0  2  0  0  0  0  0  0
  159.2070  209.3380  156.0450 C   0  0  0  0  0  1  0  0  0  0  0  0
  162.0940  210.7480  149.6040 C   0  0  0  0  0  2  0  0  0  0  0  0
  161.5470  210.1300  150.8570 C   0  0  0  0  0  0  0  0  0  0  0  0
  160.6980  209.1970  155.7340 C   0  0  2  0  0  3  0  0  0  0  0  0
  162.8600  206.4070  153.0370 C   0  0  0  0  0  2  0  0  0  0  0  0
  162.4310  204.3320  151.9360 O   0  0  0  0  0  1  0  0  0  0  0  0
  163.3510  205.3760  152.0380 C   0  0  0  0  0  2  0  0  0  0  0  0
  1  5  1  1  0  0  0
  1  4  1  0  0  0  0
  2 19  1  0  0  0  0
  3 17  1  0  0  0  0
  3 10  1  0  0  0  0
  4 20  1  6  0  0  0
  4 12  1  0  0  0  0
  5 11  1  0  0  0  0
  7 15  1  1  0  0  0
  8  6  1  6  0  0  0
  9  7  1  0  0  0  0
  9 14  1  1  0  0  0
 10 21  1  6  0  0  0
 10 22  1  0  0  0  0
 11 28  1  6  0  0  0
 11  8  1  0  0  0  0
 12  8  1  0  0  0  0
 12 27  1  0  0  0  0
 13  2  1  0  0  0  0
 14 23  1  0  0  0  0
 16  2  2  0  0  0  0
 17 20  1  0  0  0  0
 18 13  2  0  0  0  0
 18 25  1  0  0  0  0
 19  1  1  0  0  0  0
 20 22  1  0  0  0  0
 22  9  1  0  0  0  0
 23 15  1  0  0  0  0
 25 26  1  0  0  0  0
 26 19  1  0  0  0  0
 26 17  2  0  0  0  0
 27  7  1  0  0  0  0
 27 24  1  0  0  0  0
 29 30  1  0  0  0  0
 30 28  1  0  0  0  0
M  END
>  <MODEL>
5

>  <REMARK>
 VINA RESULT:      -1.8      2.769      4.012
  Name = 
  2 active torsions:
  status: ('A' for Active; 'I' for Inactive)
    1  A    between atoms: C_11  and  C_28
    2  A    between atoms: C_28  and  C_30
                            x       y       z     vdW  Elec       q    Type
                         _______ _______ _______ _____ _____    ______ ____

>  <TORSDO>
F 2

$$$$
=
 OpenBabel11122412313D

 30 35  0  0  1  0  0  0  0  0999 V2000
  162.1780  206.5730  150.9590 C   0  0  2  0  0  3  0  0  0  0  0  0
  161.5380  204.1630  150.5310 C   0  0  0  0  0  0  0  0  0  0  0  0
  160.5080  206.3320  154.7900 N   0  0  0  0  0  2  0  0  0  0  0  0
  161.8960  207.8980  151.7170 C   0  0  1  0  0  3  0  0  0  0  0  0
  162.6190  206.7650  149.5650 N   0  0  0  0  0  2  0  0  0  0  0  0
  163.0240  209.7530  149.4330 C   0  0  0  0  0  1  0  0  0  0  0  0
  159.6710  210.1480  152.5480 C   0  0  1  0  0  3  0  0  0  0  0  0
  161.6690  209.0580  149.4610 C   0  0  1  0  0  3  0  0  0  0  0  0
  159.9370  209.5410  153.9290 C   0  0  2  0  0  3  0  0  0  0  0  0
  160.8050  207.6650  155.3110 C   0  0  1  0  0  3  0  0  0  0  0  0
  161.7770  207.6920  148.7920 C   0  0  2  0  0  3  0  0  0  0  0  0
  161.1080  208.9030  150.8750 C   0  0  2  0  0  3  0  0  0  0  0  0
  161.6350  202.9510  151.3610 C   0  0  0  0  0  3  0  0  0  0  0  0
  160.0320  210.5850  154.8590 O   0  0  0  0  0  0  0  0  0  0  0  0
  159.1490  211.5190  152.8680 C   0  0  0  0  0  2  0  0  0  0  0  0
  161.8320  204.0830  149.3100 O   0  0  0  0  0  0  0  0  0  0  0  0
  160.7760  206.3680  153.4040 C   0  0  0  0  0  0  0  0  0  0  0  0
  161.0960  202.8980  152.5410 N   0  0  0  0  0  0  0  0  0  0  0  0
  161.0890  205.4830  151.1220 C   0  0  1  0  0  3  0  0  0  0  0  0
  161.1790  207.6420  152.9650 N   0  0  0  0  0  0  0  0  0  0  0  0
  162.0270  207.5990  156.2060 C   0  0  0  0  0  1  0  0  0  0  0  0
  161.1070  208.5620  154.0900 C   0  0  1  0  0  3  0  0  0  0  0  0
  159.1590  211.5740  154.3800 C   0  0  0  0  0  2  0  0  0  0  0  0
  162.1030  210.8800  152.1870 C   0  0  0  0  0  1  0  0  0  0  0  0
  160.2790  203.9770  153.0930 C   0  0  0  0  0  2  0  0  0  0  0  0
  160.7420  205.3120  152.5910 C   0  0  0  0  0  0  0  0  0  0  0  0
  160.8540  210.2450  151.5760 C   0  0  2  0  0  3  0  0  0  0  0  0
  160.4060  207.1050  148.4660 C   0  0  0  0  0  2  0  0  0  0  0  0
  161.6680  206.5360  146.5210 O   0  0  0  0  0  1  0  0  0  0  0  0
  160.4490  206.3250  147.1650 C   0  0  0  0  0  2  0  0  0  0  0  0
  1  5  1  6  0  0  0
  1 19  1  0  0  0  0
  1  4  1  0  0  0  0
  2 19  1  0  0  0  0
  2 13  1  0  0  0  0
  3 10  1  0  0  0  0
  4 20  1  1  0  0  0
  7 15  1  1  0  0  0
  7  9  1  0  0  0  0
  8  6  1  1  0  0  0
  8 12  1  0  0  0  0
  9 22  1  0  0  0  0
  9 14  1  1  0  0  0
 10 21  1  1  0  0  0
 11 28  1  1  0  0  0
 11  8  1  0  0  0  0
 11  5  1  0  0  0  0
 12 27  1  0  0  0  0
 12  4  1  0  0  0  0
 13 18  2  0  0  0  0
 15 23  1  0  0  0  0
 16  2  2  0  0  0  0
 17  3  1  0  0  0  0
 18 25  1  0  0  0  0
 19 26  1  0  0  0  0
 20 17  1  0  0  0  0
 20 22  1  0  0  0  0
 22 10  1  0  0  0  0
 23 14  1  0  0  0  0
 26 25  1  0  0  0  0
 26 17  2  0  0  0  0
 27 24  1  0  0  0  0
 27  7  1  0  0  0  0
 29 30  1  0  0  0  0
 30 28  1  0  0  0  0
M  END
>  <MODEL>
6

>  <REMARK>
 VINA RESULT:      -1.6      4.141      7.218
  Name = 
  2 active torsions:
  status: ('A' for Active; 'I' for Inactive)
    1  A    between atoms: C_11  and  C_28
    2  A    between atoms: C_28  and  C_30
                            x       y       z     vdW  Elec       q    Type
                         _______ _______ _______ _____ _____    ______ ____

>  <TORSDO>
F 2

$$$$
=
 OpenBabel11122412313D

 30 35  0  0  1  0  0  0  0  0999 V2000
  158.0100  212.8000  154.7440 C   0  0  2  0  0  3  0  0  0  0  0  0
  155.5890  213.4460  154.3930 C   0  0  0  0  0  0  0  0  0  0  0  0
  158.6380  212.9180  150.6070 N   0  0  0  0  0  2  0  0  0  0  0  0
  159.2910  212.1280  154.1800 C   0  0  1  0  0  3  0  0  0  0  0  0
  157.8010  212.5720  156.1850 N   0  0  0  0  0  2  0  0  0  0  0  0
  160.3870  211.2460  157.0000 C   0  0  0  0  0  1  0  0  0  0  0  0
  160.5880  209.4780  152.7640 C   0  0  1  0  0  3  0  0  0  0  0  0
  159.2790  210.5750  156.1990 C   0  0  1  0  0  3  0  0  0  0  0  0
  160.7310  210.4720  151.6070 C   0  0  2  0  0  3  0  0  0  0  0  0
  160.0640  212.6120  150.5290 C   0  0  1  0  0  3  0  0  0  0  0  0
  157.9290  211.1640  156.5950 C   0  0  2  0  0  3  0  0  0  0  0  0
  159.4780  210.6970  154.6870 C   0  0  2  0  0  3  0  0  0  0  0  0
  154.9480  214.4470  153.5240 C   0  0  0  0  0  3  0  0  0  0  0  0
  161.9980  210.3010  151.0330 O   0  0  0  0  0  0  0  0  0  0  0  0
  161.6390  208.4490  152.4680 C   0  0  0  0  0  2  0  0  0  0  0  0
  155.1640  213.3070  155.5690 O   0  0  0  0  0  0  0  0  0  0  0  0
  158.2330  212.6420  151.9310 C   0  0  0  0  0  0  0  0  0  0  0  0
  155.1500  214.4530  152.2410 N   0  0  0  0  0  0  0  0  0  0  0  0
  156.7340  212.5910  153.8900 C   0  0  1  0  0  3  0  0  0  0  0  0
  159.2790  212.1270  152.7190 N   0  0  0  0  0  0  0  0  0  0  0  0
  160.8500  213.8960  150.3460 C   0  0  0  0  0  1  0  0  0  0  0  0
  160.4520  211.9580  151.8740 C   0  0  1  0  0  3  0  0  0  0  0  0
  162.2800  208.9350  151.1860 C   0  0  0  0  0  2  0  0  0  0  0  0
  162.0280  210.8540  154.3810 C   0  0  0  0  0  1  0  0  0  0  0  0
  155.9320  213.4290  151.5520 C   0  0  0  0  0  2  0  0  0  0  0  0
  157.0270  212.9060  152.4330 C   0  0  0  0  0  0  0  0  0  0  0  0
  160.7620  210.0190  154.1900 C   0  0  2  0  0  3  0  0  0  0  0  0
  156.7660  210.3030  156.1080 C   0  0  0  0  0  2  0  0  0  0  0  0
  154.3950  210.0470  156.2300 O   0  0  0  0  0  1  0  0  0  0  0  0
  155.4890  210.6530  156.8500 C   0  0  0  0  0  2  0  0  0  0  0  0
  1  5  1  1  0  0  0
  2 16  2  0  0  0  0
  3 17  1  0  0  0  0
  4 20  1  6  0  0  0
  4 12  1  0  0  0  0
  4  1  1  0  0  0  0
  5 11  1  0  0  0  0
  7 15  1  6  0  0  0
  7 27  1  0  0  0  0
  8 11  1  0  0  0  0
  8  6  1  1  0  0  0
  9 14  1  1  0  0  0
  9 22  1  0  0  0  0
  9  7  1  0  0  0  0
 10 21  1  1  0  0  0
 10  3  1  0  0  0  0
 10 22  1  0  0  0  0
 11 28  1  6  0  0  0
 12  8  1  0  0  0  0
 13  2  1  0  0  0  0
 14 23  1  0  0  0  0
 17 26  2  0  0  0  0
 17 20  1  0  0  0  0
 18 13  2  0  0  0  0
 19  2  1  0  0  0  0
 19  1  1  0  0  0  0
 22 20  1  0  0  0  0
 23 15  1  0  0  0  0
 25 18  1  0  0  0  0
 25 26  1  0  0  0  0
 26 19  1  0  0  0  0
 27 24  1  0  0  0  0
 27 12  1  0  0  0  0
 28 30  1  0  0  0  0
 29 30  1  0  0  0  0
M  END
>  <MODEL>
7

>  <REMARK>
 VINA RESULT:      -1.6      1.747      5.660
  Name = 
  2 active torsions:
  status: ('A' for Active; 'I' for Inactive)
    1  A    between atoms: C_11  and  C_28
    2  A    between atoms: C_28  and  C_30
                            x       y       z     vdW  Elec       q    Type
                         _______ _______ _______ _____ _____    ______ ____

>  <TORSDO>
F 2

$$$$
=
 OpenBabel11122412313D

 30 35  0  0  1  0  0  0  0  0999 V2000
  162.1320  209.7310  151.3950 C   0  0  2  0  0  3  0  0  0  0  0  0
  162.1380  207.2780  152.0140 C   0  0  0  0  0  0  0  0  0  0  0  0
  159.4220  210.5020  154.4910 N   0  0  0  0  0  2  0  0  0  0  0  0
  161.3740  211.0860  151.3820 C   0  0  1  0  0  3  0  0  0  0  0  0
  162.9430  209.4880  150.1880 N   0  0  0  0  0  2  0  0  0  0  0  0
  162.7810  212.1480  148.7700 C   0  0  0  0  0  1  0  0  0  0  0  0
  158.6090  212.6620  150.6220 C   0  0  1  0  0  3  0  0  0  0  0  0
  161.6480  211.1340  148.8500 C   0  0  1  0  0  3  0  0  0  0  0  0
  158.5390  212.7610  152.1500 C   0  0  2  0  0  3  0  0  0  0  0  0
  159.2750  211.9520  154.3830 C   0  0  1  0  0  3  0  0  0  0  0  0
  162.2240  209.7240  148.9250 C   0  0  2  0  0  3  0  0  0  0  0  0
  160.7120  211.3790  150.0340 C   0  0  2  0  0  3  0  0  0  0  0  0
  162.2020  206.5860  153.3120 C   0  0  0  0  0  3  0  0  0  0  0  0
  158.1330  214.0590  152.4890 O   0  0  0  0  0  0  0  0  0  0  0  0
  157.7580  213.8100  150.1620 C   0  0  0  0  0  2  0  0  0  0  0  0
  162.8120  206.8220  151.0540 O   0  0  0  0  0  0  0  0  0  0  0  0
  160.1000  210.0730  153.3290 C   0  0  0  0  0  0  0  0  0  0  0  0
  161.3400  206.8340  154.2510 N   0  0  0  0  0  0  0  0  0  0  0  0
  161.2790  208.5120  151.8270 C   0  0  1  0  0  3  0  0  0  0  0  0
  160.3650  211.1300  152.4380 N   0  0  0  0  0  0  0  0  0  0  0  0
  160.1420  212.6280  155.4270 C   0  0  0  0  0  1  0  0  0  0  0  0
  159.7660  212.3440  152.9720 C   0  0  1  0  0  3  0  0  0  0  0  0
  157.2810  214.4530  151.4460 C   0  0  0  0  0  2  0  0  0  0  0  0
  160.8410  213.9150  150.4490 C   0  0  0  0  0  1  0  0  0  0  0  0
  160.1990  207.7280  154.0690 C   0  0  0  0  0  2  0  0  0  0  0  0
  160.5280  208.8300  153.1070 C   0  0  0  0  0  0  0  0  0  0  0  0
  159.9960  212.7350  149.9690 C   0  0  2  0  0  3  0  0  0  0  0  0
  161.1660  208.6600  148.6460 C   0  0  0  0  0  2  0  0  0  0  0  0
  161.0190  206.3030  148.2910 O   0  0  0  0  0  1  0  0  0  0  0  0
  161.7910  207.4310  148.0100 C   0  0  0  0  0  2  0  0  0  0  0  0
  1  5  1  6  0  0  0
  1 19  1  0  0  0  0
  2 13  1  0  0  0  0
  4  1  1  0  0  0  0
  4 20  1  1  0  0  0
  7 15  1  6  0  0  0
  7  9  1  0  0  0  0
  8  6  1  1  0  0  0
  8 11  1  0  0  0  0
  8 12  1  0  0  0  0
  9 14  1  6  0  0  0
  9 22  1  0  0  0  0
 10  3  1  0  0  0  0
 10 21  1  1  0  0  0
 11 28  1  1  0  0  0
 11  5  1  0  0  0  0
 12  4  1  0  0  0  0
 13 18  2  0  0  0  0
 15 23  1  0  0  0  0
 16  2  2  0  0  0  0
 17  3  1  0  0  0  0
 19  2  1  0  0  0  0
 19 26  1  0  0  0  0
 20 22  1  0  0  0  0
 20 17  1  0  0  0  0
 22 10  1  0  0  0  0
 23 14  1  0  0  0  0
 25 18  1  0  0  0  0
 26 17  2  0  0  0  0
 26 25  1  0  0  0  0
 27 12  1  0  0  0  0
 27 24  1  0  0  0  0
 27  7  1  0  0  0  0
 30 29  1  0  0  0  0
 30 28  1  0  0  0  0
M  END
>  <MODEL>
8

>  <REMARK>
 VINA RESULT:      -1.6      2.696      5.679
  Name = 
  2 active torsions:
  status: ('A' for Active; 'I' for Inactive)
    1  A    between atoms: C_11  and  C_28
    2  A    between atoms: C_28  and  C_30
                            x       y       z     vdW  Elec       q    Type
                         _______ _______ _______ _____ _____    ______ ____

>  <TORSDO>
F 2

$$$$
=
 OpenBabel11122412313D

 30 35  0  0  1  0  0  0  0  0999 V2000
  159.4480  212.1220  154.1420 C   0  0  2  0  0  3  0  0  0  0  0  0
  157.7710  213.5720  152.9250 C   0  0  0  0  0  0  0  0  0  0  0  0
  160.9480  210.7820  150.4700 N   0  0  0  0  0  2  0  0  0  0  0  0
  160.3440  210.8530  154.1370 C   0  0  1  0  0  3  0  0  0  0  0  0
  158.8450  212.4220  155.4530 N   0  0  0  0  0  2  0  0  0  0  0  0
  160.2390  210.4470  157.2610 C   0  0  0  0  0  1  0  0  0  0  0  0
  160.4990  207.6220  153.6480 C   0  0  1  0  0  3  0  0  0  0  0  0
  159.1520  210.0910  156.2550 C   0  0  1  0  0  3  0  0  0  0  0  0
  161.3480  208.0920  152.4630 C   0  0  2  0  0  3  0  0  0  0  0  0
  162.0350  209.9100  150.9100 C   0  0  1  0  0  3  0  0  0  0  0  0
  158.1950  211.2670  156.0930 C   0  0  2  0  0  3  0  0  0  0  0  0
  159.7110  209.6820  154.8920 C   0  0  2  0  0  3  0  0  0  0  0  0
  157.8920  214.4530  151.7520 C   0  0  0  0  0  3  0  0  0  0  0  0
  162.4720  207.2610  152.3660 O   0  0  0  0  0  0  0  0  0  0  0  0
  160.9700  206.2140  153.8720 C   0  0  0  0  0  2  0  0  0  0  0  0
  157.0840  213.9630  153.9040 O   0  0  0  0  0  0  0  0  0  0  0  0
  160.1810  211.0880  151.6160 C   0  0  0  0  0  0  0  0  0  0  0  0
  158.3480  214.0090  150.6190 N   0  0  0  0  0  0  0  0  0  0  0  0
  158.4500  212.2190  152.9610 C   0  0  1  0  0  3  0  0  0  0  0  0
  160.6540  210.4380  152.7710 N   0  0  0  0  0  0  0  0  0  0  0  0
  163.3540  210.6480  150.7980 C   0  0  0  0  0  1  0  0  0  0  0  0
  161.7580  209.5700  152.3920 C   0  0  1  0  0  3  0  0  0  0  0  0
  162.0290  206.0050  152.8110 C   0  0  0  0  0  2  0  0  0  0  0  0
  162.0260  208.6860  155.4140 C   0  0  0  0  0  1  0  0  0  0  0  0
  158.6780  212.6040  150.3900 C   0  0  0  0  0  2  0  0  0  0  0  0
  159.1690  211.9540  151.6500 C   0  0  0  0  0  0  0  0  0  0  0  0
  160.5920  208.4260  154.9510 C   0  0  2  0  0  3  0  0  0  0  0  0
  156.9020  210.8590  155.3920 C   0  0  0  0  0  2  0  0  0  0  0  0
  156.0320  212.3190  157.0680 O   0  0  0  0  0  1  0  0  0  0  0  0
  155.6920  211.2750  156.2080 C   0  0  0  0  0  2  0  0  0  0  0  0
  1  5  1  1  0  0  0
  2 19  1  0  0  0  0
  2 16  2  0  0  0  0
  3 10  1  0  0  0  0
  3 17  1  0  0  0  0
  4 20  1  6  0  0  0
  4  1  1  0  0  0  0
  4 12  1  0  0  0  0
  5 11  1  0  0  0  0
  7 15  1  1  0  0  0
  7 27  1  0  0  0  0
  8  6  1  1  0  0  0
  9 14  1  1  0  0  0
  9  7  1  0  0  0  0
 10 21  1  1  0  0  0
 10 22  1  0  0  0  0
 11 28  1  6  0  0  0
 11  8  1  0  0  0  0
 12 27  1  0  0  0  0
 12  8  1  0  0  0  0
 13  2  1  0  0  0  0
 14 23  1  0  0  0  0
 17 26  2  0  0  0  0
 17 20  1  0  0  0  0
 18 13  2  0  0  0  0
 19  1  1  0  0  0  0
 22  9  1  0  0  0  0
 22 20  1  0  0  0  0
 23 15  1  0  0  0  0
 25 18  1  0  0  0  0
 25 26  1  0  0  0  0
 26 19  1  0  0  0  0
 27 24  1  0  0  0  0
 28 30  1  0  0  0  0
 30 29  1  0  0  0  0
M  END
>  <MODEL>
9

>  <REMARK>
 VINA RESULT:      -1.5      2.062      5.678
  Name = 
  2 active torsions:
  status: ('A' for Active; 'I' for Inactive)
    1  A    between atoms: C_11  and  C_28
    2  A    between atoms: C_28  and  C_30
                            x       y       z     vdW  Elec       q    Type
                         _______ _______ _______ _____ _____    ______ ____

>  <TORSDO>
F 2

$$$$
