=
 OpenBabel11122414313D

 34 41  0  0  1  0  0  0  0  0999 V2000
  160.5900  211.8700  151.4080 C   0  0  0  0  0  0  0  0  0  0  0  0
  161.7580  210.2400  149.9170 C   0  0  0  0  0  2  0  0  0  0  0  0
  155.8990  211.8970  154.8620 C   0  0  0  0  0  2  0  0  0  0  0  0
  159.1040  213.0990  152.8920 C   0  0  0  0  0  0  0  0  0  0  0  0
  158.8650  212.3570  155.2400 C   0  0  0  0  0  0  0  0  0  0  0  0
  157.2890  211.3570  156.9050 C   0  0  0  0  0  2  0  0  0  0  0  0
  155.8800  211.6370  156.3750 C   0  0  0  0  0  2  0  0  0  0  0  0
  156.3750  214.1200  155.1910 C   0  0  0  0  0  2  0  0  0  0  0  0
  162.1050  210.1390  152.3280 C   0  0  1  0  0  3  0  0  0  0  0  0
  160.7320  207.3580  152.7250 C   0  0  0  0  0  2  0  0  0  0  0  0
  159.6700  211.3690  154.9840 N   0  0  0  0  0  0  0  0  0  0  0  0
  157.6500  214.4530  154.4130 C   0  0  0  0  0  2  0  0  0  0  0  0
  161.1630  210.0700  153.4600 N   0  0  2  0  0  0  0  0  0  0  0  0
  162.0410  208.8440  150.2390 N   0  0  0  0  0  2  0  0  0  0  0  0
  158.5150  213.2890  154.1910 N   0  0  0  0  0  0  0  0  0  0  0  0
  155.5350  213.2170  154.5120 O   0  0  0  0  0  0  0  0  0  0  0  0
  162.2020  207.4830  152.3370 C   0  0  2  0  0  3  0  0  0  0  0  0
  160.0320  212.0610  152.6930 C   0  0  0  0  0  0  0  0  0  0  0  0
  158.2150  212.4120  156.5130 N   0  0  0  0  0  2  0  0  0  0  0  0
  160.2960  211.1990  153.6990 C   0  0  1  0  0  3  0  0  0  0  0  0
  159.2140  213.6780  150.5860 C   0  0  0  0  0  3  0  0  0  0  0  0
  160.5140  207.8230  154.1650 C   0  0  0  0  0  2  0  0  0  0  0  0
  158.7260  213.8760  151.8390 N   0  0  0  0  0  0  0  0  0  0  0  0
  161.3300  209.0680  154.5030 C   0  0  0  0  0  2  0  0  0  0  0  0
  162.5030  208.8180  151.6340 C   0  0  2  0  0  3  0  0  0  0  0  0
  160.1470  212.6680  150.3470 C   0  0  0  0  0  3  0  0  0  0  0  0
  161.5030  210.9040  151.2120 C   0  0  2  0  0  3  0  0  0  0  0  0
  162.6510  206.2980  151.4930 C   0  0  0  0  0  2  0  0  0  0  0  0
  161.5260  205.2920  151.3480 C   0  0  1  0  0  3  0  0  0  0  0  0
  160.2380  202.6440  150.7080 C   0  0  0  0  0  2  0  0  0  0  0  0
  161.8140  204.3930  150.2310 C   0  0  1  0  0  3  0  0  0  0  0  0
  162.0440  203.9420  151.6190 N   0  0  2  0  0  0  0  0  0  0  0  0
  160.5390  203.7440  149.7280 C   0  0  0  0  0  2  0  0  0  0  0  0
  160.9040  203.1060  151.9810 C   0  0  0  0  0  2  0  0  0  0  0  0
  1 18  1  0  0  0  0
  2 14  1  0  0  0  0
  2 27  1  0  0  0  0
  3  7  1  0  0  0  0
  4 15  1  0  0  0  0
  5 19  1  0  0  0  0
  7  6  1  0  0  0  0
  9 13  1  0  0  0  0
 10 22  1  0  0  0  0
 11  5  2  0  0  0  0
 12  8  1  0  0  0  0
 13 20  1  0  0  0  0
 13 24  1  0  0  0  0
 14 25  1  0  0  0  0
 15 12  1  0  0  0  0
 15  5  1  0  0  0  0
 16  3  1  0  0  0  0
 16  8  1  0  0  0  0
 17 10  1  0  0  0  0
 18  4  2  0  0  0  0
 18 20  1  0  0  0  0
 19  6  1  0  0  0  0
 20 11  1  0  0  0  0
 21 23  2  0  0  0  0
 22 24  1  0  0  0  0
 23  4  1  0  0  0  0
 25  9  1  0  0  0  0
 25 17  1  0  0  0  0
 26 21  1  0  0  0  0
 26  1  2  0  0  0  0
 27  1  1  0  0  0  0
 27  9  1  0  0  0  0
 28 17  1  0  0  0  0
 29 28  1  0  0  0  0
 29 32  1  0  0  0  0
 30 34  1  0  0  0  0
 31 29  1  0  0  0  0
 31 32  1  0  0  0  0
 32 34  1  0  0  0  0
 33 31  1  0  0  0  0
 33 30  1  0  0  0  0
M  END
>  <MODEL>
1

>  <REMARK>
 VINA RESULT:      -6.2      0.000      0.000
  Name = 
  2 active torsions:
  status: ('A' for Active; 'I' for Inactive)
    1  A    between atoms: C_17  and  C_28
    2  A    between atoms: C_28  and  C_29
                            x       y       z     vdW  Elec       q    Type
                         _______ _______ _______ _____ _____    ______ ____

>  <TORSDO>
F 2

$$$$
=
 OpenBabel11122414313D

 34 41  0  0  1  0  0  0  0  0999 V2000
  161.1460  211.5580  150.2970 C   0  0  0  0  0  0  0  0  0  0  0  0
  161.8160  210.1570  148.3400 C   0  0  0  0  0  2  0  0  0  0  0  0
  156.8770  211.5960  154.2610 C   0  0  0  0  0  2  0  0  0  0  0  0
  160.0810  212.6370  152.2010 C   0  0  0  0  0  0  0  0  0  0  0  0
  159.8950  211.4000  154.3360 C   0  0  0  0  0  0  0  0  0  0  0  0
  158.2940  210.3280  155.9300 C   0  0  0  0  0  2  0  0  0  0  0  0
  156.9340  210.9820  155.6670 C   0  0  0  0  0  2  0  0  0  0  0  0
  157.8330  213.5450  155.0110 C   0  0  0  0  0  2  0  0  0  0  0  0
  162.3390  209.4080  150.6000 C   0  0  1  0  0  3  0  0  0  0  0  0
  160.4560  206.9140  150.5460 C   0  0  0  0  0  2  0  0  0  0  0  0
  160.4520  210.3750  153.7610 N   0  0  0  0  0  0  0  0  0  0  0  0
  159.0780  213.8200  154.1650 C   0  0  0  0  0  2  0  0  0  0  0  0
  161.5040  209.2380  151.8020 N   0  0  2  0  0  0  0  0  0  0  0  0
  161.8280  208.6980  148.3020 N   0  0  0  0  0  2  0  0  0  0  0  0
  159.6580  212.6080  153.5760 N   0  0  0  0  0  0  0  0  0  0  0  0
  156.7680  213.0040  154.2650 O   0  0  0  0  0  0  0  0  0  0  0  0
  161.8810  206.8590  150.0050 C   0  0  2  0  0  3  0  0  0  0  0  0
  160.7520  211.5280  151.6540 C   0  0  0  0  0  0  0  0  0  0  0  0
  159.3830  211.2600  155.6630 N   0  0  0  0  0  2  0  0  0  0  0  0
  160.9150  210.4130  152.3990 C   0  0  1  0  0  3  0  0  0  0  0  0
  160.1120  213.7320  150.0880 C   0  0  0  0  0  3  0  0  0  0  0  0
  160.4640  207.0440  152.0700 C   0  0  0  0  0  2  0  0  0  0  0  0
  159.7850  213.7030  151.4070 N   0  0  0  0  0  0  0  0  0  0  0  0
  161.5470  207.9980  152.5650 C   0  0  0  0  0  2  0  0  0  0  0  0
  162.3920  208.2470  149.5830 C   0  0  2  0  0  3  0  0  0  0  0  0
  160.7890  212.6580  149.5090 C   0  0  0  0  0  3  0  0  0  0  0  0
  161.8170  210.5190  149.7720 C   0  0  2  0  0  3  0  0  0  0  0  0
  161.9990  205.8550  148.8660 C   0  0  0  0  0  2  0  0  0  0  0  0
  161.0110  204.7200  149.0540 C   0  0  1  0  0  3  0  0  0  0  0  0
  160.0980  201.8900  149.5420 C   0  0  0  0  0  2  0  0  0  0  0  0
  161.5810  203.4820  148.5240 C   0  0  1  0  0  3  0  0  0  0  0  0
  161.5810  203.7290  149.9810 N   0  0  2  0  0  0  0  0  0  0  0  0
  160.4840  202.4810  148.2140 C   0  0  0  0  0  2  0  0  0  0  0  0
  160.4690  202.9640  150.5340 C   0  0  0  0  0  2  0  0  0  0  0  0
  1 18  1  0  0  0  0
  2 27  1  0  0  0  0
  3 16  1  0  0  0  0
  3  7  1  0  0  0  0
  4 15  1  0  0  0  0
  5 19  1  0  0  0  0
  7  6  1  0  0  0  0
  9 13  1  0  0  0  0
 10 22  1  0  0  0  0
 11  5  2  0  0  0  0
 12  8  1  0  0  0  0
 13 20  1  0  0  0  0
 13 24  1  0  0  0  0
 14  2  1  0  0  0  0
 14 25  1  0  0  0  0
 15 12  1  0  0  0  0
 15  5  1  0  0  0  0
 16  8  1  0  0  0  0
 17 10  1  0  0  0  0
 18  4  2  0  0  0  0
 18 20  1  0  0  0  0
 19  6  1  0  0  0  0
 20 11  1  0  0  0  0
 21 23  2  0  0  0  0
 22 24  1  0  0  0  0
 23  4  1  0  0  0  0
 25 17  1  0  0  0  0
 25  9  1  0  0  0  0
 26 21  1  0  0  0  0
 26  1  2  0  0  0  0
 27  1  1  0  0  0  0
 27  9  1  0  0  0  0
 28 29  1  0  0  0  0
 28 17  1  0  0  0  0
 29 32  1  0  0  0  0
 30 34  1  0  0  0  0
 31 29  1  0  0  0  0
 31 32  1  0  0  0  0
 32 34  1  0  0  0  0
 33 31  1  0  0  0  0
 33 30  1  0  0  0  0
M  END
>  <MODEL>
2

>  <REMARK>
 VINA RESULT:      -6.0      1.369      1.760
  Name = 
  2 active torsions:
  status: ('A' for Active; 'I' for Inactive)
    1  A    between atoms: C_17  and  C_28
    2  A    between atoms: C_28  and  C_29
                            x       y       z     vdW  Elec       q    Type
                         _______ _______ _______ _____ _____    ______ ____

>  <TORSDO>
F 2

$$$$
=
 OpenBabel11122414313D

 34 41  0  0  1  0  0  0  0  0999 V2000
  161.7450  209.6020  150.6590 C   0  0  0  0  0  0  0  0  0  0  0  0
  161.5810  208.7980  148.2990 C   0  0  0  0  0  2  0  0  0  0  0  0
  158.8710  208.7860  155.6600 C   0  0  0  0  0  2  0  0  0  0  0  0
  161.4690  210.1460  153.0150 C   0  0  0  0  0  0  0  0  0  0  0  0
  161.7070  208.3500  154.7000 C   0  0  0  0  0  0  0  0  0  0  0  0
  160.4800  206.9770  156.3940 C   0  0  0  0  0  2  0  0  0  0  0  0
  159.2300  207.7800  156.7640 C   0  0  0  0  0  2  0  0  0  0  0  0
  160.3100  210.3470  156.5350 C   0  0  0  0  0  2  0  0  0  0  0  0
  162.6040  207.3750  149.9950 C   0  0  1  0  0  3  0  0  0  0  0  0
  160.4020  205.1590  149.9130 C   0  0  0  0  0  2  0  0  0  0  0  0
  161.8970  207.5020  153.7330 N   0  0  0  0  0  0  0  0  0  0  0  0
  161.2850  210.7660  155.4330 C   0  0  0  0  0  2  0  0  0  0  0  0
  162.1360  206.9200  151.3160 N   0  0  2  0  0  0  0  0  0  0  0  0
  161.3410  207.4190  147.8850 N   0  0  0  0  0  2  0  0  0  0  0  0
  161.4630  209.7430  154.3960 N   0  0  0  0  0  0  0  0  0  0  0  0
  159.0010  210.1340  156.0620 O   0  0  0  0  0  0  0  0  0  0  0  0
  161.5800  205.1600  148.9440 C   0  0  2  0  0  3  0  0  0  0  0  0
  161.7610  209.2010  152.0150 C   0  0  0  0  0  0  0  0  0  0  0  0
  161.5840  207.8610  156.0380 N   0  0  0  0  0  2  0  0  0  0  0  0
  161.9470  207.9060  152.3520 C   0  0  1  0  0  3  0  0  0  0  0  0
  161.0680  211.8120  151.3640 C   0  0  0  0  0  3  0  0  0  0  0  0
  160.8710  204.8310  151.3310 C   0  0  0  0  0  2  0  0  0  0  0  0
  161.1360  211.4190  152.6630 N   0  0  0  0  0  0  0  0  0  0  0  0
  162.1930  205.5110  151.6760 C   0  0  0  0  0  2  0  0  0  0  0  0
  162.1690  206.5670  148.7520 C   0  0  2  0  0  3  0  0  0  0  0  0
  161.3630  210.9100  150.3400 C   0  0  0  0  0  3  0  0  0  0  0  0
  162.0550  208.7180  149.6960 C   0  0  2  0  0  3  0  0  0  0  0  0
  161.1970  204.5320  147.6110 C   0  0  0  0  0  2  0  0  0  0  0  0
  161.6020  203.0700  147.5750 C   0  0  1  0  0  3  0  0  0  0  0  0
  161.2060  200.0840  147.5330 C   0  0  0  0  0  2  0  0  0  0  0  0
  160.6330  202.2760  148.3290 C   0  0  1  0  0  3  0  0  0  0  0  0
  160.5760  202.3010  146.8540 N   0  0  2  0  0  0  0  0  0  0  0  0
  161.2460  200.9560  148.7570 C   0  0  0  0  0  2  0  0  0  0  0  0
  161.2060  201.0700  146.3900 C   0  0  0  0  0  2  0  0  0  0  0  0
  1 18  1  0  0  0  0
  2 27  1  0  0  0  0
  3 16  1  0  0  0  0
  3  7  1  0  0  0  0
  4 15  1  0  0  0  0
  5 19  1  0  0  0  0
  6  7  1  0  0  0  0
  9 13  1  0  0  0  0
 10 22  1  0  0  0  0
 11  5  2  0  0  0  0
 12  8  1  0  0  0  0
 13 24  1  0  0  0  0
 13 20  1  0  0  0  0
 14  2  1  0  0  0  0
 14 25  1  0  0  0  0
 15  5  1  0  0  0  0
 15 12  1  0  0  0  0
 16  8  1  0  0  0  0
 17 10  1  0  0  0  0
 18 20  1  0  0  0  0
 18  4  2  0  0  0  0
 19  6  1  0  0  0  0
 20 11  1  0  0  0  0
 21 23  2  0  0  0  0
 22 24  1  0  0  0  0
 23  4  1  0  0  0  0
 25 17  1  0  0  0  0
 25  9  1  0  0  0  0
 26  1  2  0  0  0  0
 26 21  1  0  0  0  0
 27  9  1  0  0  0  0
 27  1  1  0  0  0  0
 28 17  1  0  0  0  0
 29 28  1  0  0  0  0
 29 31  1  0  0  0  0
 30 33  1  0  0  0  0
 31 33  1  0  0  0  0
 32 29  1  0  0  0  0
 32 31  1  0  0  0  0
 34 32  1  0  0  0  0
 34 30  1  0  0  0  0
M  END
>  <MODEL>
3

>  <REMARK>
 VINA RESULT:      -5.8      2.731      4.203
  Name = 
  2 active torsions:
  status: ('A' for Active; 'I' for Inactive)
    1  A    between atoms: C_17  and  C_28
    2  A    between atoms: C_28  and  C_29
                            x       y       z     vdW  Elec       q    Type
                         _______ _______ _______ _____ _____    ______ ____

>  <TORSDO>
F 2

$$$$
=
 OpenBabel11122414313D

 34 41  0  0  1  0  0  0  0  0999 V2000
  160.7290  210.6540  139.4640 C   0  0  0  0  0  0  0  0  0  0  0  0
  162.5030  211.3550  141.0790 C   0  0  0  0  0  2  0  0  0  0  0  0
  155.1270  209.0750  139.6930 C   0  0  0  0  0  2  0  0  0  0  0  0
  158.7360  209.8770  138.3050 C   0  0  0  0  0  0  0  0  0  0  0  0
  156.6980  211.2800  138.3430 C   0  0  0  0  0  0  0  0  0  0  0  0
  154.3490  211.4290  139.1900 C   0  0  0  0  0  2  0  0  0  0  0  0
  153.9120  209.9910  139.4810 C   0  0  0  0  0  2  0  0  0  0  0  0
  155.3210  208.7130  137.4330 C   0  0  0  0  0  2  0  0  0  0  0  0
  160.8230  212.9660  140.3520 C   0  0  1  0  0  3  0  0  0  0  0  0
  159.4670  213.2880  143.1490 C   0  0  0  0  0  2  0  0  0  0  0  0
  157.3270  212.1290  139.1000 N   0  0  0  0  0  0  0  0  0  0  0  0
  156.7420  209.0940  137.0110 C   0  0  0  0  0  2  0  0  0  0  0  0
  159.3500  212.9170  140.3340 N   0  0  2  0  0  0  0  0  0  0  0  0
  162.3270  212.2990  142.1790 N   0  0  0  0  0  2  0  0  0  0  0  0
  157.3680  210.0750  137.9040 N   0  0  0  0  0  0  0  0  0  0  0  0
  155.2690  208.0870  138.6930 O   0  0  0  0  0  0  0  0  0  0  0  0
  160.6880  214.1080  142.7470 C   0  0  2  0  0  3  0  0  0  0  0  0
  159.3920  210.8680  139.0580 C   0  0  0  0  0  0  0  0  0  0  0  0
  155.3040  211.4740  138.0890 N   0  0  0  0  0  2  0  0  0  0  0  0
  158.7070  211.9570  139.4700 C   0  0  1  0  0  3  0  0  0  0  0  0
  160.6490  208.4680  138.4390 C   0  0  0  0  0  3  0  0  0  0  0  0
  158.2370  213.7260  142.3530 C   0  0  0  0  0  2  0  0  0  0  0  0
  159.3810  208.7130  138.0160 N   0  0  0  0  0  0  0  0  0  0  0  0
  158.5670  214.0110  140.8900 C   0  0  0  0  0  2  0  0  0  0  0  0
  161.5190  213.4100  141.6570 C   0  0  2  0  0  3  0  0  0  0  0  0
  161.3420  209.4290  139.1760 C   0  0  0  0  0  3  0  0  0  0  0  0
  161.3790  211.6070  140.1540 C   0  0  2  0  0  3  0  0  0  0  0  0
  161.5420  214.4530  143.9600 C   0  0  0  0  0  2  0  0  0  0  0  0
  161.1860  213.5610  145.1330 C   0  0  1  0  0  3  0  0  0  0  0  0
  160.8990  212.7640  148.0250 C   0  0  0  0  0  2  0  0  0  0  0  0
  162.1150  213.8070  146.2350 C   0  0  1  0  0  3  0  0  0  0  0  0
  160.7610  214.3970  146.2670 N   0  0  2  0  0  0  0  0  0  0  0  0
  162.1380  212.6240  147.1850 C   0  0  0  0  0  2  0  0  0  0  0  0
  159.9590  213.5550  147.1480 C   0  0  0  0  0  2  0  0  0  0  0  0
  1 27  1  0  0  0  0
  2 14  1  0  0  0  0
  4 18  1  0  0  0  0
  5 11  2  0  0  0  0
  6  7  1  0  0  0  0
  7  3  1  0  0  0  0
  8 16  1  0  0  0  0
  9 25  1  0  0  0  0
 11 20  1  0  0  0  0
 12  8  1  0  0  0  0
 12 15  1  0  0  0  0
 13  9  1  0  0  0  0
 13 24  1  0  0  0  0
 15  4  1  0  0  0  0
 15  5  1  0  0  0  0
 16  3  1  0  0  0  0
 17 10  1  0  0  0  0
 17 28  1  0  0  0  0
 18  1  2  0  0  0  0
 18 20  1  0  0  0  0
 19  5  1  0  0  0  0
 19  6  1  0  0  0  0
 20 13  1  0  0  0  0
 21 26  2  0  0  0  0
 22 10  1  0  0  0  0
 23  4  2  0  0  0  0
 23 21  1  0  0  0  0
 24 22  1  0  0  0  0
 25 14  1  0  0  0  0
 25 17  1  0  0  0  0
 26  1  1  0  0  0  0
 27  9  1  0  0  0  0
 27  2  1  0  0  0  0
 28 29  1  0  0  0  0
 29 31  1  0  0  0  0
 29 32  1  0  0  0  0
 31 32  1  0  0  0  0
 31 33  1  0  0  0  0
 32 34  1  0  0  0  0
 33 30  1  0  0  0  0
 34 30  1  0  0  0  0
M  END
>  <MODEL>
4

>  <REMARK>
 VINA RESULT:      -5.8     10.478     13.810
  Name = 
  2 active torsions:
  status: ('A' for Active; 'I' for Inactive)
    1  A    between atoms: C_17  and  C_28
    2  A    between atoms: C_28  and  C_29
                            x       y       z     vdW  Elec       q    Type
                         _______ _______ _______ _____ _____    ______ ____

>  <TORSDO>
F 2

$$$$
=
 OpenBabel11122414313D

 34 41  0  0  1  0  0  0  0  0999 V2000
  161.0690  203.9890  150.9470 C   0  0  0  0  0  0  0  0  0  0  0  0
  160.5800  205.0510  153.1550 C   0  0  0  0  0  2  0  0  0  0  0  0
  159.7880  204.9820  145.3520 C   0  0  0  0  0  2  0  0  0  0  0  0
  161.2170  203.2890  148.6210 C   0  0  0  0  0  0  0  0  0  0  0  0
  162.3260  204.7780  146.9860 C   0  0  0  0  0  0  0  0  0  0  0  0
  161.9560  206.2330  144.9840 C   0  0  0  0  0  2  0  0  0  0  0  0
  160.6570  205.7420  144.3390 C   0  0  0  0  0  2  0  0  0  0  0  0
  160.9090  203.0220  144.9320 C   0  0  0  0  0  2  0  0  0  0  0  0
  162.3220  205.9800  151.7240 C   0  0  1  0  0  3  0  0  0  0  0  0
  160.8550  208.6810  151.1580 C   0  0  0  0  0  2  0  0  0  0  0  0
  162.5070  205.6470  147.9370 N   0  0  0  0  0  0  0  0  0  0  0  0
  161.4450  202.4870  146.2620 C   0  0  0  0  0  2  0  0  0  0  0  0
  162.3200  206.3980  150.3110 N   0  0  2  0  0  0  0  0  0  0  0  0
  160.6360  206.4820  153.4420 N   0  0  0  0  0  2  0  0  0  0  0  0
  161.6460  203.5340  147.2700 N   0  0  0  0  0  0  0  0  0  0  0  0
  159.6360  203.6110  145.0480 O   0  0  0  0  0  0  0  0  0  0  0  0
  161.7250  208.4810  152.3940 C   0  0  2  0  0  3  0  0  0  0  0  0
  161.5120  204.2280  149.6260 C   0  0  0  0  0  0  0  0  0  0  0  0
  162.6600  205.1390  145.6430 N   0  0  0  0  0  2  0  0  0  0  0  0
  162.1190  205.3900  149.2980 C   0  0  1  0  0  3  0  0  0  0  0  0
  159.9990  201.9640  150.1770 C   0  0  0  0  0  3  0  0  0  0  0  0
  161.7150  208.7280  149.8950 C   0  0  0  0  0  2  0  0  0  0  0  0
  160.4750  202.1880  148.9240 N   0  0  0  0  0  0  0  0  0  0  0  0
  162.8440  207.7010  149.9240 C   0  0  0  0  0  2  0  0  0  0  0  0
  161.8440  206.9980  152.7830 C   0  0  2  0  0  3  0  0  0  0  0  0
  160.2790  202.8630  151.2070 C   0  0  0  0  0  3  0  0  0  0  0  0
  161.3720  204.8600  151.9240 C   0  0  2  0  0  3  0  0  0  0  0  0
  161.2260  209.3220  153.5610 C   0  0  0  0  0  2  0  0  0  0  0  0
  160.1220  210.2580  153.1080 C   0  0  1  0  0  3  0  0  0  0  0  0
  158.4360  212.7560  153.0910 C   0  0  0  0  0  2  0  0  0  0  0  0
  159.6280  211.0230  154.2520 C   0  0  1  0  0  3  0  0  0  0  0  0
  160.5600  211.6510  153.2930 N   0  0  2  0  0  0  0  0  0  0  0  0
  158.2350  211.5550  153.9740 C   0  0  0  0  0  2  0  0  0  0  0  0
  159.7530  212.4800  152.4060 C   0  0  0  0  0  2  0  0  0  0  0  0
  1 26  1  0  0  0  0
  1 27  1  0  0  0  0
  2 14  1  0  0  0  0
  4 23  2  0  0  0  0
  4 18  1  0  0  0  0
  5 15  1  0  0  0  0
  5 11  2  0  0  0  0
  6 19  1  0  0  0  0
  7  6  1  0  0  0  0
  7  3  1  0  0  0  0
  8 16  1  0  0  0  0
  8 12  1  0  0  0  0
  9 27  1  0  0  0  0
  9 25  1  0  0  0  0
 10 17  1  0  0  0  0
 11 20  1  0  0  0  0
 12 15  1  0  0  0  0
 13  9  1  0  0  0  0
 15  4  1  0  0  0  0
 16  3  1  0  0  0  0
 17 25  1  0  0  0  0
 17 28  1  0  0  0  0
 18  1  2  0  0  0  0
 19  5  1  0  0  0  0
 20 18  1  0  0  0  0
 20 13  1  0  0  0  0
 21 26  2  0  0  0  0
 22 24  1  0  0  0  0
 22 10  1  0  0  0  0
 23 21  1  0  0  0  0
 24 13  1  0  0  0  0
 25 14  1  0  0  0  0
 27  2  1  0  0  0  0
 29 32  1  0  0  0  0
 29 28  1  0  0  0  0
 29 31  1  0  0  0  0
 30 33  1  0  0  0  0
 32 31  1  0  0  0  0
 33 31  1  0  0  0  0
 34 30  1  0  0  0  0
 34 32  1  0  0  0  0
M  END
>  <MODEL>
5

>  <REMARK>
 VINA RESULT:      -5.4      3.702      9.602
  Name = 
  2 active torsions:
  status: ('A' for Active; 'I' for Inactive)
    1  A    between atoms: C_17  and  C_28
    2  A    between atoms: C_28  and  C_29
                            x       y       z     vdW  Elec       q    Type
                         _______ _______ _______ _____ _____    ______ ____

>  <TORSDO>
F 2

$$$$
=
 OpenBabel11122414313D

 34 41  0  0  1  0  0  0  0  0999 V2000
  160.8290  208.0660  154.4950 C   0  0  0  0  0  0  0  0  0  0  0  0
  159.6930  209.6600  156.0490 C   0  0  0  0  0  2  0  0  0  0  0  0
  160.0790  206.1470  149.0460 C   0  0  0  0  0  2  0  0  0  0  0  0
  161.5380  206.6000  152.6870 C   0  0  0  0  0  0  0  0  0  0  0  0
  162.2700  207.5980  150.5450 C   0  0  0  0  0  0  0  0  0  0  0  0
  161.6970  207.8600  148.1240 C   0  0  0  0  0  2  0  0  0  0  0  0
  160.7580  206.6990  147.7840 C   0  0  0  0  0  2  0  0  0  0  0  0
  161.8650  204.7690  149.4750 C   0  0  0  0  0  2  0  0  0  0  0  0
  161.1790  210.5130  154.3140 C   0  0  1  0  0  3  0  0  0  0  0  0
  158.9500  211.9790  152.6860 C   0  0  0  0  0  2  0  0  0  0  0  0
  161.9990  208.7740  151.0290 N   0  0  0  0  0  0  0  0  0  0  0  0
  162.3630  205.0630  150.8920 C   0  0  0  0  0  2  0  0  0  0  0  0
  161.2290  210.2890  152.8580 N   0  0  2  0  0  0  0  0  0  0  0  0
  159.2010  210.9880  155.6950 N   0  0  0  0  0  2  0  0  0  0  0  0
  162.0390  206.4190  151.3510 N   0  0  0  0  0  0  0  0  0  0  0  0
  160.4630  204.8250  149.3610 O   0  0  0  0  0  0  0  0  0  0  0  0
  159.6530  212.6410  153.8660 C   0  0  2  0  0  3  0  0  0  0  0  0
  161.3400  207.8990  153.1870 C   0  0  0  0  0  0  0  0  0  0  0  0
  162.6410  207.4810  149.1690 N   0  0  0  0  0  2  0  0  0  0  0  0
  161.5390  208.9640  152.3790 C   0  0  1  0  0  3  0  0  0  0  0  0
  160.6590  205.6640  154.6910 C   0  0  0  0  0  3  0  0  0  0  0  0
  159.9070  211.8320  151.5020 C   0  0  0  0  0  2  0  0  0  0  0  0
  161.1970  205.5250  153.4510 N   0  0  0  0  0  0  0  0  0  0  0  0
  161.3090  211.4150  151.9390 C   0  0  0  0  0  2  0  0  0  0  0  0
  160.2300  211.6080  154.8480 C   0  0  2  0  0  3  0  0  0  0  0  0
  160.4580  206.9350  155.2310 C   0  0  0  0  0  3  0  0  0  0  0  0
  160.6660  209.3020  154.9970 C   0  0  2  0  0  3  0  0  0  0  0  0
  158.7300  213.6250  154.5740 C   0  0  0  0  0  2  0  0  0  0  0  0
  157.2860  213.3740  154.1850 C   0  0  1  0  0  3  0  0  0  0  0  0
  154.4600  214.0780  153.4140 C   0  0  0  0  0  2  0  0  0  0  0  0
  156.4430  214.4430  154.7190 C   0  0  1  0  0  3  0  0  0  0  0  0
  156.8300  214.4520  153.2930 N   0  0  2  0  0  0  0  0  0  0  0  0
  155.0000  213.9840  154.8140 C   0  0  0  0  0  2  0  0  0  0  0  0
  155.6870  213.9410  152.5460 C   0  0  0  0  0  2  0  0  0  0  0  0
  1 27  1  0  0  0  0
  1 26  1  0  0  0  0
  3 16  1  0  0  0  0
  4 18  1  0  0  0  0
  4 23  2  0  0  0  0
  5 11  2  0  0  0  0
  5 15  1  0  0  0  0
  6 19  1  0  0  0  0
  7  6  1  0  0  0  0
  7  3  1  0  0  0  0
  8 12  1  0  0  0  0
  9 25  1  0  0  0  0
  9 27  1  0  0  0  0
 10 17  1  0  0  0  0
 11 20  1  0  0  0  0
 12 15  1  0  0  0  0
 13  9  1  0  0  0  0
 14  2  1  0  0  0  0
 15  4  1  0  0  0  0
 16  8  1  0  0  0  0
 17 28  1  0  0  0  0
 17 25  1  0  0  0  0
 18  1  2  0  0  0  0
 19  5  1  0  0  0  0
 20 13  1  0  0  0  0
 20 18  1  0  0  0  0
 21 26  2  0  0  0  0
 22 24  1  0  0  0  0
 22 10  1  0  0  0  0
 23 21  1  0  0  0  0
 24 13  1  0  0  0  0
 25 14  1  0  0  0  0
 27  2  1  0  0  0  0
 29 28  1  0  0  0  0
 29 31  1  0  0  0  0
 30 33  1  0  0  0  0
 31 33  1  0  0  0  0
 32 29  1  0  0  0  0
 32 31  1  0  0  0  0
 34 32  1  0  0  0  0
 34 30  1  0  0  0  0
M  END
>  <MODEL>
6

>  <REMARK>
 VINA RESULT:      -5.3      2.546      8.475
  Name = 
  2 active torsions:
  status: ('A' for Active; 'I' for Inactive)
    1  A    between atoms: C_17  and  C_28
    2  A    between atoms: C_28  and  C_29
                            x       y       z     vdW  Elec       q    Type
                         _______ _______ _______ _____ _____    ______ ____

>  <TORSDO>
F 2

$$$$
=
 OpenBabel11122414313D

 34 41  0  0  1  0  0  0  0  0999 V2000
  160.9520  211.7840  150.4730 C   0  0  0  0  0  0  0  0  0  0  0  0
  161.8390  210.1950  148.7600 C   0  0  0  0  0  2  0  0  0  0  0  0
  156.5290  211.9480  154.2610 C   0  0  0  0  0  2  0  0  0  0  0  0
  159.7060  213.0070  152.1680 C   0  0  0  0  0  0  0  0  0  0  0  0
  159.5460  212.0720  154.4530 C   0  0  0  0  0  0  0  0  0  0  0  0
  157.9860  211.0790  156.1370 C   0  0  0  0  0  2  0  0  0  0  0  0
  156.5830  211.5480  155.7420 C   0  0  0  0  0  2  0  0  0  0  0  0
  157.2600  214.0710  154.7480 C   0  0  0  0  0  2  0  0  0  0  0  0
  162.3310  209.8300  151.1190 C   0  0  1  0  0  3  0  0  0  0  0  0
  160.7000  207.1750  151.3720 C   0  0  0  0  0  2  0  0  0  0  0  0
  160.2230  211.0370  154.0500 N   0  0  0  0  0  0  0  0  0  0  0  0
  158.5090  214.3480  153.9090 C   0  0  0  0  0  2  0  0  0  0  0  0
  161.4640  209.7470  152.3080 N   0  0  2  0  0  0  0  0  0  0  0  0
  161.9920  208.7540  148.9350 N   0  0  0  0  0  2  0  0  0  0  0  0
  159.2280  213.1300  153.5190 N   0  0  0  0  0  0  0  0  0  0  0  0
  156.2860  213.3250  154.0580 O   0  0  0  0  0  0  0  0  0  0  0  0
  162.1460  207.1890  150.8860 C   0  0  2  0  0  3  0  0  0  0  0  0
  160.5030  211.9050  151.8080 C   0  0  0  0  0  0  0  0  0  0  0  0
  158.9920  212.0690  155.7710 N   0  0  0  0  0  2  0  0  0  0  0  0
  160.7400  210.9290  152.7110 C   0  0  1  0  0  3  0  0  0  0  0  0
  159.7240  213.7900  149.9210 C   0  0  0  0  0  3  0  0  0  0  0  0
  160.6280  207.5190  152.8600 C   0  0  0  0  0  2  0  0  0  0  0  0
  159.3440  213.9150  151.2190 N   0  0  0  0  0  0  0  0  0  0  0  0
  161.5930  208.6380  153.2430 C   0  0  0  0  0  2  0  0  0  0  0  0
  162.5400  208.5480  150.2830 C   0  0  2  0  0  3  0  0  0  0  0  0
  160.5270  212.7200  149.5230 C   0  0  0  0  0  3  0  0  0  0  0  0
  161.7420  210.7540  150.1230 C   0  0  2  0  0  3  0  0  0  0  0  0
  162.4090  206.0510  149.9090 C   0  0  0  0  0  2  0  0  0  0  0  0
  161.9400  206.4270  148.5160 C   0  0  1  0  0  3  0  0  0  0  0  0
  160.8180  205.9850  145.7550 C   0  0  0  0  0  2  0  0  0  0  0  0
  162.2160  205.3260  147.5940 C   0  0  1  0  0  3  0  0  0  0  0  0
  160.8480  205.5270  148.1140 N   0  0  2  0  0  0  0  0  0  0  0  0
  162.2570  205.8290  146.1640 C   0  0  0  0  0  2  0  0  0  0  0  0
  160.0960  206.2030  147.0620 C   0  0  0  0  0  2  0  0  0  0  0  0
  1 18  1  0  0  0  0
  2 14  1  0  0  0  0
  2 27  1  0  0  0  0
  3  7  1  0  0  0  0
  4 15  1  0  0  0  0
  5 19  1  0  0  0  0
  7  6  1  0  0  0  0
  9 13  1  0  0  0  0
 10 22  1  0  0  0  0
 11  5  2  0  0  0  0
 12  8  1  0  0  0  0
 13 20  1  0  0  0  0
 13 24  1  0  0  0  0
 14 25  1  0  0  0  0
 15 12  1  0  0  0  0
 15  5  1  0  0  0  0
 16  3  1  0  0  0  0
 16  8  1  0  0  0  0
 17 10  1  0  0  0  0
 18  4  2  0  0  0  0
 18 20  1  0  0  0  0
 19  6  1  0  0  0  0
 20 11  1  0  0  0  0
 21 23  2  0  0  0  0
 22 24  1  0  0  0  0
 23  4  1  0  0  0  0
 25 17  1  0  0  0  0
 25  9  1  0  0  0  0
 26 21  1  0  0  0  0
 26  1  2  0  0  0  0
 27  1  1  0  0  0  0
 27  9  1  0  0  0  0
 28 17  1  0  0  0  0
 29 28  1  0  0  0  0
 30 33  1  0  0  0  0
 30 34  1  0  0  0  0
 31 32  1  0  0  0  0
 31 29  1  0  0  0  0
 32 29  1  0  0  0  0
 33 31  1  0  0  0  0
 34 32  1  0  0  0  0
M  END
>  <MODEL>
7

>  <REMARK>
 VINA RESULT:      -4.8      1.844      2.174
  Name = 
  2 active torsions:
  status: ('A' for Active; 'I' for Inactive)
    1  A    between atoms: C_17  and  C_28
    2  A    between atoms: C_28  and  C_29
                            x       y       z     vdW  Elec       q    Type
                         _______ _______ _______ _____ _____    ______ ____

>  <TORSDO>
F 2

$$$$
=
 OpenBabel11122414313D

 34 41  0  0  1  0  0  0  0  0999 V2000
  161.1180  204.1350  150.9100 C   0  0  0  0  0  0  0  0  0  0  0  0
  160.6640  205.3820  153.0280 C   0  0  0  0  0  2  0  0  0  0  0  0
  159.6890  204.6130  145.2830 C   0  0  0  0  0  2  0  0  0  0  0  0
  161.2230  203.2360  148.6520 C   0  0  0  0  0  0  0  0  0  0  0  0
  162.2680  204.5900  146.8640 C   0  0  0  0  0  0  0  0  0  0  0  0
  161.8270  205.8570  144.7530 C   0  0  0  0  0  2  0  0  0  0  0  0
  160.5210  205.2920  144.1860 C   0  0  0  0  0  2  0  0  0  0  0  0
  160.8320  202.6390  145.0100 C   0  0  0  0  0  2  0  0  0  0  0  0
  162.3560  206.2050  151.4780 C   0  0  1  0  0  3  0  0  0  0  0  0
  160.8320  208.8250  150.7130 C   0  0  0  0  0  2  0  0  0  0  0  0
  162.4570  205.5410  147.7300 N   0  0  0  0  0  0  0  0  0  0  0  0
  161.4070  202.2310  146.3670 C   0  0  0  0  0  2  0  0  0  0  0  0
  162.3140  206.4970  150.0340 N   0  0  2  0  0  0  0  0  0  0  0  0
  160.7030  206.8330  153.1860 N   0  0  0  0  0  2  0  0  0  0  0  0
  161.6150  203.3660  147.2740 N   0  0  0  0  0  0  0  0  0  0  0  0
  159.5520  203.2180  145.1050 O   0  0  0  0  0  0  0  0  0  0  0  0
  161.7350  208.7470  151.9400 C   0  0  2  0  0  3  0  0  0  0  0  0
  161.5260  204.2640  149.5630 C   0  0  0  0  0  0  0  0  0  0  0  0
  162.5640  204.8350  145.4870 N   0  0  0  0  0  2  0  0  0  0  0  0
  162.1050  205.4000  149.1190 C   0  0  1  0  0  3  0  0  0  0  0  0
  160.0630  202.0350  150.3480 C   0  0  0  0  0  3  0  0  0  0  0  0
  161.6610  208.7720  149.4290 C   0  0  0  0  0  2  0  0  0  0  0  0
  160.5060  202.1550  149.0690 N   0  0  0  0  0  0  0  0  0  0  0  0
  162.8070  207.7680  149.5210 C   0  0  0  0  0  2  0  0  0  0  0  0
  161.8870  207.3060  152.4540 C   0  0  2  0  0  3  0  0  0  0  0  0
  160.3530  203.0260  151.2880 C   0  0  0  0  0  3  0  0  0  0  0  0
  161.4300  205.0940  151.7990 C   0  0  2  0  0  3  0  0  0  0  0  0
  161.2490  209.6810  153.0400 C   0  0  0  0  0  2  0  0  0  0  0  0
  162.0520  209.4690  154.3100 C   0  0  1  0  0  3  0  0  0  0  0  0
  162.7060  209.6740  157.2440 C   0  0  0  0  0  2  0  0  0  0  0  0
  161.8750  210.6180  155.1970 C   0  0  1  0  0  3  0  0  0  0  0  0
  161.1320  209.3680  155.4540 N   0  0  2  0  0  0  0  0  0  0  0  0
  163.0180  210.7020  156.1920 C   0  0  0  0  0  2  0  0  0  0  0  0
  161.8430  208.6690  156.5190 C   0  0  0  0  0  2  0  0  0  0  0  0
  1 26  1  0  0  0  0
  1 27  1  0  0  0  0
  2 14  1  0  0  0  0
  4 23  2  0  0  0  0
  4 18  1  0  0  0  0
  5 15  1  0  0  0  0
  5 11  2  0  0  0  0
  6 19  1  0  0  0  0
  7  6  1  0  0  0  0
  7  3  1  0  0  0  0
  8 16  1  0  0  0  0
  8 12  1  0  0  0  0
  9 27  1  0  0  0  0
  9 25  1  0  0  0  0
 10 17  1  0  0  0  0
 11 20  1  0  0  0  0
 12 15  1  0  0  0  0
 13  9  1  0  0  0  0
 15  4  1  0  0  0  0
 16  3  1  0  0  0  0
 17 25  1  0  0  0  0
 17 28  1  0  0  0  0
 18  1  2  0  0  0  0
 19  5  1  0  0  0  0
 20 18  1  0  0  0  0
 20 13  1  0  0  0  0
 21 26  2  0  0  0  0
 22 24  1  0  0  0  0
 22 10  1  0  0  0  0
 23 21  1  0  0  0  0
 24 13  1  0  0  0  0
 25 14  1  0  0  0  0
 27  2  1  0  0  0  0
 28 29  1  0  0  0  0
 29 31  1  0  0  0  0
 29 32  1  0  0  0  0
 31 32  1  0  0  0  0
 31 33  1  0  0  0  0
 32 34  1  0  0  0  0
 33 30  1  0  0  0  0
 34 30  1  0  0  0  0
M  END
>  <MODEL>
8

>  <REMARK>
 VINA RESULT:      -4.8      4.188      9.585
  Name = 
  2 active torsions:
  status: ('A' for Active; 'I' for Inactive)
    1  A    between atoms: C_17  and  C_28
    2  A    between atoms: C_28  and  C_29
                            x       y       z     vdW  Elec       q    Type
                         _______ _______ _______ _____ _____    ______ ____

>  <TORSDO>
F 2

$$$$
=
 OpenBabel11122414313D

 34 41  0  0  1  0  0  0  0  0999 V2000
  161.6790  209.3530  150.7610 C   0  0  0  0  0  0  0  0  0  0  0  0
  161.4380  208.2740  148.5200 C   0  0  0  0  0  2  0  0  0  0  0  0
  159.0000  209.1130  155.9280 C   0  0  0  0  0  2  0  0  0  0  0  0
  161.4830  210.1690  153.0450 C   0  0  0  0  0  0  0  0  0  0  0  0
  161.8030  208.5870  154.9200 C   0  0  0  0  0  0  0  0  0  0  0  0
  160.6550  207.4150  156.8090 C   0  0  0  0  0  2  0  0  0  0  0  0
  159.4100  208.2470  157.1280 C   0  0  0  0  0  2  0  0  0  0  0  0
  160.4510  210.7770  156.5580 C   0  0  0  0  0  2  0  0  0  0  0  0
  162.5380  207.0690  150.3310 C   0  0  1  0  0  3  0  0  0  0  0  0
  160.3600  204.8430  150.5950 C   0  0  0  0  0  2  0  0  0  0  0  0
  161.9670  207.6320  154.0530 N   0  0  0  0  0  0  0  0  0  0  0  0
  161.3800  211.0690  155.3780 C   0  0  0  0  0  2  0  0  0  0  0  0
  162.1240  206.7700  151.7140 N   0  0  2  0  0  0  0  0  0  0  0  0
  161.1990  206.8540  148.2810 N   0  0  0  0  0  2  0  0  0  0  0  0
  161.5320  209.9320  154.4630 N   0  0  0  0  0  0  0  0  0  0  0  0
  159.1290  210.5000  156.1630 O   0  0  0  0  0  0  0  0  0  0  0  0
  161.5020  204.7380  149.5890 C   0  0  2  0  0  3  0  0  0  0  0  0
  161.7490  209.1150  152.1530 C   0  0  0  0  0  0  0  0  0  0  0  0
  161.7350  208.2590  156.3100 N   0  0  0  0  0  2  0  0  0  0  0  0
  161.9620  207.8700  152.6330 C   0  0  1  0  0  3  0  0  0  0  0  0
  161.0020  211.6260  151.2250 C   0  0  0  0  0  3  0  0  0  0  0  0
  160.8840  204.6880  152.0230 C   0  0  0  0  0  2  0  0  0  0  0  0
  161.1220  211.3890  152.5580 N   0  0  0  0  0  0  0  0  0  0  0  0
  162.2100  205.4140  152.2350 C   0  0  0  0  0  2  0  0  0  0  0  0
  162.0670  206.1170  149.2100 C   0  0  2  0  0  3  0  0  0  0  0  0
  161.2700  210.6110  150.3050 C   0  0  0  0  0  3  0  0  0  0  0  0
  161.9630  208.3640  149.8970 C   0  0  2  0  0  3  0  0  0  0  0  0
  161.0780  203.9540  148.3540 C   0  0  0  0  0  2  0  0  0  0  0  0
  161.2710  204.7890  147.1020 C   0  0  1  0  0  3  0  0  0  0  0  0
  161.9240  205.3450  144.2140 C   0  0  0  0  0  2  0  0  0  0  0  0
  162.3410  204.2120  146.2910 C   0  0  1  0  0  3  0  0  0  0  0  0
  160.9300  203.9780  145.9220 N   0  0  2  0  0  0  0  0  0  0  0  0
  162.9110  205.2530  145.3450 C   0  0  0  0  0  2  0  0  0  0  0  0
  160.6220  204.9030  144.8370 C   0  0  0  0  0  2  0  0  0  0  0  0
  1 18  1  0  0  0  0
  2 27  1  0  0  0  0
  3 16  1  0  0  0  0
  3  7  1  0  0  0  0
  4 15  1  0  0  0  0
  5 19  1  0  0  0  0
  6  7  1  0  0  0  0
  9 13  1  0  0  0  0
 10 22  1  0  0  0  0
 11  5  2  0  0  0  0
 12  8  1  0  0  0  0
 13 24  1  0  0  0  0
 13 20  1  0  0  0  0
 14  2  1  0  0  0  0
 14 25  1  0  0  0  0
 15  5  1  0  0  0  0
 15 12  1  0  0  0  0
 16  8  1  0  0  0  0
 17 10  1  0  0  0  0
 18 20  1  0  0  0  0
 18  4  2  0  0  0  0
 19  6  1  0  0  0  0
 20 11  1  0  0  0  0
 21 23  2  0  0  0  0
 22 24  1  0  0  0  0
 23  4  1  0  0  0  0
 25 17  1  0  0  0  0
 25  9  1  0  0  0  0
 26  1  2  0  0  0  0
 26 21  1  0  0  0  0
 27  9  1  0  0  0  0
 27  1  1  0  0  0  0
 28 17  1  0  0  0  0
 29 28  1  0  0  0  0
 30 34  1  0  0  0  0
 30 33  1  0  0  0  0
 31 29  1  0  0  0  0
 32 31  1  0  0  0  0
 32 29  1  0  0  0  0
 33 31  1  0  0  0  0
 34 32  1  0  0  0  0
M  END
>  <MODEL>
9

>  <REMARK>
 VINA RESULT:      -4.5      2.802      4.411
  Name = 
  2 active torsions:
  status: ('A' for Active; 'I' for Inactive)
    1  A    between atoms: C_17  and  C_28
    2  A    between atoms: C_28  and  C_29
                            x       y       z     vdW  Elec       q    Type
                         _______ _______ _______ _____ _____    ______ ____

>  <TORSDO>
F 2

$$$$
