=
 OpenBabel11122414213D

 34 40  0  0  1  0  0  0  0  0999 V2000
  161.1040  207.1500  154.2030 C   0  0  0  0  0  0  0  0  0  0  0  0
  161.2320  205.0030  152.9570 C   0  0  0  0  0  2  0  0  0  0  0  0
  158.3070  212.9650  153.3530 C   0  0  1  0  0  3  0  0  0  0  0  0
  160.1100  209.2730  154.8290 C   0  0  0  0  0  0  0  0  0  0  0  0
  160.3260  211.2590  153.2260 C   0  0  2  0  0  3  0  0  0  0  0  0
  160.1770  213.2570  151.8110 C   0  0  0  0  0  2  0  0  0  0  0  0
  157.3180  212.0110  153.1980 F   0  0  0  0  0  0  0  0  0  0  0  0
  159.7720  213.1060  155.4810 C   0  0  0  0  0  2  0  0  0  0  0  0
  162.2020  206.8970  151.9030 C   0  0  2  0  0  3  0  0  0  0  0  0
  161.5880  206.7440  148.7570 C   0  0  0  0  0  2  0  0  0  0  0  0
  160.3340  210.1880  152.1460 C   0  0  0  0  0  2  0  0  0  0  0  0
  160.0250  211.6170  155.7350 C   0  0  0  0  0  2  0  0  0  0  0  0
  161.3090  208.0120  151.5180 N   0  0  1  0  0  0  0  0  0  0  0  0
  161.7650  204.5260  151.7530 O   0  0  0  0  0  0  0  0  0  0  0  0
  159.7210  210.7070  154.5340 C   0  0  2  0  0  3  0  0  0  0  0  0
  158.4120  213.3750  154.8330 C   0  0  0  0  0  2  0  0  0  0  0  0
  161.0520  205.7980  149.8230 C   0  0  2  0  0  3  0  0  0  0  0  0
  160.7910  208.4750  153.8810 C   0  0  0  0  0  0  0  0  0  0  0  0
  159.5960  212.4860  152.7270 C   0  0  0  0  0  0  0  0  0  0  0  0
  161.2640  209.0450  152.5670 C   0  0  2  0  0  3  0  0  0  0  0  0
  160.0170  207.3640  156.3080 C   0  0  0  0  0  3  0  0  0  0  0  0
  161.2380  208.1860  149.0820 C   0  0  0  0  0  2  0  0  0  0  0  0
  159.6970  208.6900  156.0340 C   0  0  0  0  0  3  0  0  0  0  0  0
  161.9370  208.6350  150.3520 C   0  0  0  0  0  2  0  0  0  0  0  0
  162.0630  205.6660  150.9770 C   0  0  1  0  0  3  0  0  0  0  0  0
  160.7170  206.6330  155.4020 N   0  0  0  0  0  0  0  0  0  0  0  0
  161.9150  206.3050  153.2710 C   0  0  1  0  0  3  0  0  0  0  0  0
  160.8260  204.5490  149.2390 O   0  0  0  0  0  0  0  0  0  0  0  0
  161.1140  204.7310  147.8850 C   0  0  0  0  0  2  0  0  0  0  0  0
  160.3380  201.6440  147.2180 O   0  0  0  0  0  0  0  0  0  0  0  0
  161.4070  203.2860  145.9010 C   0  0  0  0  0  2  0  0  0  0  0  0
  161.8080  203.4980  147.3320 C   0  0  2  0  0  3  0  0  0  0  0  0
  160.7450  201.9290  145.9070 C   0  0  0  0  0  2  0  0  0  0  0  0
  161.2870  202.2680  148.0400 C   0  0  0  0  0  2  0  0  0  0  0  0
  1 26  1  0  0  0  0
  2 27  1  0  0  0  0
  3  7  1  1  0  0  0
  3 16  1  0  0  0  0
  4 23  2  0  0  0  0
  5 11  1  6  0  0  0
  5 15  1  0  0  0  0
  6 19  2  0  0  0  0
  8 12  1  0  0  0  0
  9 27  1  0  0  0  0
 10 22  1  0  0  0  0
 10 17  1  0  0  0  0
 11 20  1  0  0  0  0
 13  9  1  0  0  0  0
 13 20  1  0  0  0  0
 14  2  1  0  0  0  0
 15  4  1  0  0  0  0
 15 12  1  0  0  0  0
 16  8  1  0  0  0  0
 17 25  1  0  0  0  0
 18  1  2  0  0  0  0
 18  4  1  0  0  0  0
 19  5  1  0  0  0  0
 19  3  1  0  0  0  0
 20 18  1  0  0  0  0
 22 24  1  0  0  0  0
 23 21  1  0  0  0  0
 24 13  1  0  0  0  0
 25 14  1  0  0  0  0
 25  9  1  0  0  0  0
 26 21  2  0  0  0  0
 27  1  1  0  0  0  0
 28 17  1  0  0  0  0
 29 28  1  0  0  0  0
 30 34  1  0  0  0  0
 31 33  1  0  0  0  0
 31 32  1  0  0  0  0
 32 29  1  0  0  0  0
 32 34  1  0  0  0  0
 33 30  1  0  0  0  0
M  END
>  <MODEL>
1

>  <REMARK>
 VINA RESULT:      -9.3      0.000      0.000
  Name = 
  3 active torsions:
  status: ('A' for Active; 'I' for Inactive)
    1  A    between atoms: C_17  and  O_28
    2  A    between atoms: O_28  and  C_29
    3  A    between atoms: C_29  and  C_32
                            x       y       z     vdW  Elec       q    Type
                         _______ _______ _______ _____ _____    ______ ____

>  <TORSDO>
F 3

$$$$
=
 OpenBabel11122414213D

 34 40  0  0  1  0  0  0  0  0999 V2000
  161.7480  207.7130  149.2780 C   0  0  0  0  0  0  0  0  0  0  0  0
  161.2560  209.8220  150.4990 C   0  0  0  0  0  2  0  0  0  0  0  0
  159.7690  201.5190  149.5320 C   0  0  1  0  0  3  0  0  0  0  0  0
  161.2620  205.4800  148.4650 C   0  0  0  0  0  0  0  0  0  0  0  0
  161.4170  203.5100  150.0960 C   0  0  2  0  0  3  0  0  0  0  0  0
  161.2650  201.4780  151.4610 C   0  0  0  0  0  2  0  0  0  0  0  0
  158.6340  202.3050  149.4490 F   0  0  0  0  0  0  0  0  0  0  0  0
  161.6800  201.6580  147.7930 C   0  0  0  0  0  2  0  0  0  0  0  0
  162.2450  208.0730  151.7650 C   0  0  2  0  0  3  0  0  0  0  0  0
  160.9220  208.0510  154.6870 C   0  0  0  0  0  2  0  0  0  0  0  0
  161.0150  204.5420  151.1390 C   0  0  0  0  0  2  0  0  0  0  0  0
  161.7490  203.1730  147.5870 C   0  0  0  0  0  2  0  0  0  0  0  0
  161.4730  206.8250  151.9490 N   0  0  1  0  0  0  0  0  0  0  0  0
  161.4230  210.3450  151.7870 O   0  0  0  0  0  0  0  0  0  0  0  0
  161.0440  203.9960  148.6790 C   0  0  2  0  0  3  0  0  0  0  0  0
  160.2670  201.1670  148.1190 C   0  0  0  0  0  2  0  0  0  0  0  0
  160.5000  208.9300  153.5180 C   0  0  2  0  0  3  0  0  0  0  0  0
  161.5800  206.3490  149.5350 C   0  0  0  0  0  0  0  0  0  0  0  0
  160.7920  202.1730  150.4280 C   0  0  0  0  0  0  0  0  0  0  0  0
  161.8270  205.8240  150.9270 C   0  0  2  0  0  3  0  0  0  0  0  0
  161.2100  207.3890  146.9840 C   0  0  0  0  0  3  0  0  0  0  0  0
  160.8820  206.5810  154.3070 C   0  0  0  0  0  2  0  0  0  0  0  0
  161.0460  206.0220  147.1920 C   0  0  0  0  0  3  0  0  0  0  0  0
  161.9110  206.2770  153.2330 C   0  0  0  0  0  2  0  0  0  0  0  0
  161.7120  209.2450  152.6220 C   0  0  1  0  0  3  0  0  0  0  0  0
  161.5660  208.1950  148.0170 N   0  0  0  0  0  0  0  0  0  0  0  0
  162.1870  208.6490  150.3610 C   0  0  1  0  0  3  0  0  0  0  0  0
  159.9570  210.1150  154.0230 O   0  0  0  0  0  0  0  0  0  0  0  0
  160.2880  210.1100  155.3790 C   0  0  0  0  0  2  0  0  0  0  0  0
  159.5390  213.2660  155.1380 O   0  0  0  0  0  0  0  0  0  0  0  0
  158.1590  211.3640  155.3670 C   0  0  0  0  0  2  0  0  0  0  0  0
  159.4300  211.1150  156.1260 C   0  0  2  0  0  3  0  0  0  0  0  0
  158.2060  212.8410  155.0550 C   0  0  0  0  0  2  0  0  0  0  0  0
  160.1190  212.4600  156.1300 C   0  0  0  0  0  2  0  0  0  0  0  0
  1 18  1  0  0  0  0
  1 27  1  0  0  0  0
  2 14  1  0  0  0  0
  3  7  1  6  0  0  0
  3 19  1  0  0  0  0
  4 15  1  0  0  0  0
  4 18  2  0  0  0  0
  5 19  1  0  0  0  0
  5 11  1  1  0  0  0
  8 16  1  0  0  0  0
  9 13  1  0  0  0  0
  9 25  1  0  0  0  0
 12  8  1  0  0  0  0
 12 15  1  0  0  0  0
 13 24  1  0  0  0  0
 14 25  1  0  0  0  0
 15  5  1  0  0  0  0
 16  3  1  0  0  0  0
 17 28  1  0  0  0  0
 17 10  1  0  0  0  0
 18 20  1  0  0  0  0
 19  6  2  0  0  0  0
 20 11  1  0  0  0  0
 20 13  1  0  0  0  0
 21 23  2  0  0  0  0
 21 26  1  0  0  0  0
 22 10  1  0  0  0  0
 23  4  1  0  0  0  0
 24 22  1  0  0  0  0
 25 17  1  0  0  0  0
 26  1  2  0  0  0  0
 27  2  1  0  0  0  0
 27  9  1  0  0  0  0
 28 29  1  0  0  0  0
 29 32  1  0  0  0  0
 30 34  1  0  0  0  0
 31 32  1  0  0  0  0
 32 34  1  0  0  0  0
 33 30  1  0  0  0  0
 33 31  1  0  0  0  0
M  END
>  <MODEL>
2

>  <REMARK>
 VINA RESULT:      -8.0      3.240      9.085
  Name = 
  3 active torsions:
  status: ('A' for Active; 'I' for Inactive)
    1  A    between atoms: C_17  and  O_28
    2  A    between atoms: O_28  and  C_29
    3  A    between atoms: C_29  and  C_32
                            x       y       z     vdW  Elec       q    Type
                         _______ _______ _______ _____ _____    ______ ____

>  <TORSDO>
F 3

$$$$
=
 OpenBabel11122414213D

 34 40  0  0  1  0  0  0  0  0999 V2000
  161.7860  207.3780  148.5470 C   0  0  0  0  0  0  0  0  0  0  0  0
  161.3460  209.6390  149.4840 C   0  0  0  0  0  2  0  0  0  0  0  0
  159.7720  201.2970  149.6980 C   0  0  1  0  0  3  0  0  0  0  0  0
  161.2610  205.0610  148.0600 C   0  0  0  0  0  0  0  0  0  0  0  0
  161.4500  203.3290  149.9380 C   0  0  2  0  0  3  0  0  0  0  0  0
  161.3250  201.5020  151.5710 C   0  0  0  0  0  2  0  0  0  0  0  0
  158.6410  202.0780  149.5420 F   0  0  0  0  0  0  0  0  0  0  0  0
  161.6310  201.1790  147.9030 C   0  0  0  0  0  2  0  0  0  0  0  0
  162.3610  208.0670  150.9470 C   0  0  2  0  0  3  0  0  0  0  0  0
  161.1270  208.4560  153.8830 C   0  0  0  0  0  2  0  0  0  0  0  0
  161.0880  204.4970  150.8430 C   0  0  0  0  0  2  0  0  0  0  0  0
  161.7040  202.6510  147.4910 C   0  0  0  0  0  2  0  0  0  0  0  0
  161.5860  206.8640  151.3210 N   0  0  1  0  0  0  0  0  0  0  0  0
  161.5560  210.3290  150.6840 O   0  0  0  0  0  0  0  0  0  0  0  0
  161.0390  203.6220  148.4800 C   0  0  2  0  0  3  0  0  0  0  0  0
  160.2250  200.7510  148.3330 C   0  0  0  0  0  2  0  0  0  0  0  0
  160.6760  209.1730  152.6180 C   0  0  2  0  0  3  0  0  0  0  0  0
  161.6170  206.0630  148.9920 C   0  0  0  0  0  0  0  0  0  0  0  0
  160.8270  202.0560  150.4680 C   0  0  0  0  0  0  0  0  0  0  0  0
  161.9020  205.7300  150.4360 C   0  0  2  0  0  3  0  0  0  0  0  0
  161.1770  206.7510  146.3350 C   0  0  0  0  0  3  0  0  0  0  0  0
  161.0650  206.9490  153.7070 C   0  0  0  0  0  2  0  0  0  0  0  0
  161.0100  205.4280  146.7320 C   0  0  0  0  0  3  0  0  0  0  0  0
  162.0580  206.4900  152.6540 C   0  0  0  0  0  2  0  0  0  0  0  0
  161.8620  209.3500  151.6520 C   0  0  1  0  0  3  0  0  0  0  0  0
  161.5690  207.6860  147.2390 N   0  0  0  0  0  0  0  0  0  0  0  0
  162.2640  208.4470  149.4810 C   0  0  1  0  0  3  0  0  0  0  0  0
  160.1560  210.4210  152.9720 O   0  0  0  0  0  0  0  0  0  0  0  0
  159.5940  210.2270  154.2350 C   0  0  0  0  0  2  0  0  0  0  0  0
  157.1030  212.3060  154.0120 O   0  0  0  0  0  0  0  0  0  0  0  0
  158.1570  211.3560  155.8990 C   0  0  0  0  0  2  0  0  0  0  0  0
  159.1970  211.5640  154.8360 C   0  0  2  0  0  3  0  0  0  0  0  0
  156.9630  212.1320  155.3960 C   0  0  0  0  0  2  0  0  0  0  0  0
  158.4860  212.3940  153.7910 C   0  0  0  0  0  2  0  0  0  0  0  0
  1 18  1  0  0  0  0
  1 27  1  0  0  0  0
  2 14  1  0  0  0  0
  3  7  1  6  0  0  0
  3 19  1  0  0  0  0
  4 15  1  0  0  0  0
  4 18  2  0  0  0  0
  5 19  1  0  0  0  0
  5 11  1  1  0  0  0
  8 16  1  0  0  0  0
  9 13  1  0  0  0  0
  9 25  1  0  0  0  0
 12  8  1  0  0  0  0
 12 15  1  0  0  0  0
 13 24  1  0  0  0  0
 14 25  1  0  0  0  0
 15  5  1  0  0  0  0
 16  3  1  0  0  0  0
 17 28  1  0  0  0  0
 17 10  1  0  0  0  0
 18 20  1  0  0  0  0
 19  6  2  0  0  0  0
 20 11  1  0  0  0  0
 20 13  1  0  0  0  0
 21 23  2  0  0  0  0
 21 26  1  0  0  0  0
 22 10  1  0  0  0  0
 23  4  1  0  0  0  0
 24 22  1  0  0  0  0
 25 17  1  0  0  0  0
 26  1  2  0  0  0  0
 27  2  1  0  0  0  0
 27  9  1  0  0  0  0
 28 29  1  0  0  0  0
 29 32  1  0  0  0  0
 30 33  1  0  0  0  0
 32 31  1  0  0  0  0
 33 31  1  0  0  0  0
 34 30  1  0  0  0  0
 34 32  1  0  0  0  0
M  END
>  <MODEL>
3

>  <REMARK>
 VINA RESULT:      -7.2      3.251      9.115
  Name = 
  3 active torsions:
  status: ('A' for Active; 'I' for Inactive)
    1  A    between atoms: C_17  and  O_28
    2  A    between atoms: O_28  and  C_29
    3  A    between atoms: C_29  and  C_32
                            x       y       z     vdW  Elec       q    Type
                         _______ _______ _______ _____ _____    ______ ____

>  <TORSDO>
F 3

$$$$
=
 OpenBabel11122414213D

 34 40  0  0  1  0  0  0  0  0999 V2000
  161.8910  207.9060  149.5110 C   0  0  0  0  0  0  0  0  0  0  0  0
  161.4650  210.0100  150.7650 C   0  0  0  0  0  2  0  0  0  0  0  0
  159.7380  201.7670  149.6840 C   0  0  1  0  0  3  0  0  0  0  0  0
  161.3390  205.6990  148.6680 C   0  0  0  0  0  0  0  0  0  0  0  0
  161.4450  203.7030  150.2690 C   0  0  2  0  0  3  0  0  0  0  0  0
  161.2410  201.6560  151.6060 C   0  0  0  0  0  2  0  0  0  0  0  0
  158.6260  202.5860  149.6180 F   0  0  0  0  0  0  0  0  0  0  0  0
  161.6450  201.8770  147.9390 C   0  0  0  0  0  2  0  0  0  0  0  0
  162.4100  208.2150  152.0000 C   0  0  2  0  0  3  0  0  0  0  0  0
  161.0990  208.1880  154.9290 C   0  0  0  0  0  2  0  0  0  0  0  0
  161.0770  204.7300  151.3290 C   0  0  0  0  0  2  0  0  0  0  0  0
  161.7560  203.3930  147.7550 C   0  0  0  0  0  2  0  0  0  0  0  0
  161.6030  206.9870  152.1700 N   0  0  1  0  0  0  0  0  0  0  0  0
  161.6530  210.5090  152.0600 O   0  0  0  0  0  0  0  0  0  0  0  0
  161.0800  204.2200  148.8610 C   0  0  2  0  0  3  0  0  0  0  0  0
  160.2210  201.4220  148.2640 C   0  0  0  0  0  2  0  0  0  0  0  0
  160.6970  209.0960  153.7750 C   0  0  2  0  0  3  0  0  0  0  0  0
  161.6860  206.5430  149.7490 C   0  0  0  0  0  0  0  0  0  0  0  0
  160.7840  202.3790  150.5860 C   0  0  0  0  0  0  0  0  0  0  0  0
  161.9240  205.9920  151.1330 C   0  0  2  0  0  3  0  0  0  0  0  0
  161.3350  207.6310  147.2150 C   0  0  0  0  0  3  0  0  0  0  0  0
  161.0160  206.7260  154.5270 C   0  0  0  0  0  2  0  0  0  0  0  0
  161.1330  206.2660  147.4040 C   0  0  0  0  0  3  0  0  0  0  0  0
  162.0300  206.4080  153.4440 C   0  0  0  0  0  2  0  0  0  0  0  0
  161.9130  209.3890  152.8780 C   0  0  1  0  0  3  0  0  0  0  0  0
  161.7170  208.4110  148.2580 N   0  0  0  0  0  0  0  0  0  0  0  0
  162.3610  208.8130  150.6060 C   0  0  1  0  0  3  0  0  0  0  0  0
  160.1900  210.2880  154.2990 O   0  0  0  0  0  0  0  0  0  0  0  0
  159.3390  210.7800  153.3070 C   0  0  0  0  0  2  0  0  0  0  0  0
  157.4680  213.0940  151.9960 O   0  0  0  0  0  0  0  0  0  0  0  0
  157.4490  212.1290  154.1510 C   0  0  0  0  0  2  0  0  0  0  0  0
  158.8700  212.1770  153.6710 C   0  0  2  0  0  3  0  0  0  0  0  0
  156.7040  213.0010  153.1680 C   0  0  0  0  0  2  0  0  0  0  0  0
  158.8030  213.0270  152.4230 C   0  0  0  0  0  2  0  0  0  0  0  0
  1 18  1  0  0  0  0
  1 27  1  0  0  0  0
  2 14  1  0  0  0  0
  3  7  1  6  0  0  0
  3 19  1  0  0  0  0
  4 15  1  0  0  0  0
  4 18  2  0  0  0  0
  5 19  1  0  0  0  0
  5 11  1  1  0  0  0
  8 16  1  0  0  0  0
  9 13  1  0  0  0  0
  9 25  1  0  0  0  0
 12  8  1  0  0  0  0
 12 15  1  0  0  0  0
 13 24  1  0  0  0  0
 14 25  1  0  0  0  0
 15  5  1  0  0  0  0
 16  3  1  0  0  0  0
 17 28  1  0  0  0  0
 17 10  1  0  0  0  0
 18 20  1  0  0  0  0
 19  6  2  0  0  0  0
 20 11  1  0  0  0  0
 20 13  1  0  0  0  0
 21 23  2  0  0  0  0
 21 26  1  0  0  0  0
 22 10  1  0  0  0  0
 23  4  1  0  0  0  0
 24 22  1  0  0  0  0
 25 17  1  0  0  0  0
 26  1  2  0  0  0  0
 27  2  1  0  0  0  0
 27  9  1  0  0  0  0
 29 32  1  0  0  0  0
 29 28  1  0  0  0  0
 30 34  1  0  0  0  0
 30 33  1  0  0  0  0
 32 31  1  0  0  0  0
 33 31  1  0  0  0  0
 34 32  1  0  0  0  0
M  END
>  <MODEL>
4

>  <REMARK>
 VINA RESULT:      -6.4      3.215      8.789
  Name = 
  3 active torsions:
  status: ('A' for Active; 'I' for Inactive)
    1  A    between atoms: C_17  and  O_28
    2  A    between atoms: O_28  and  C_29
    3  A    between atoms: C_29  and  C_32
                            x       y       z     vdW  Elec       q    Type
                         _______ _______ _______ _____ _____    ______ ____

>  <TORSDO>
F 3

$$$$
