=
 OpenBabel11122413183D

 31 35  0  0  1  0  0  0  0  0999 V2000
  160.8240  201.8540  150.5690 C   0  0  0  0  0  0  0  0  0  0  0  0
  161.3510  205.3350  148.9890 C   0  0  0  0  0  0  0  0  0  0  0  0
  161.1640  205.1700  147.5090 C   0  0  0  0  0  0  0  0  0  0  0  0
  161.1220  203.8060  145.4890 C   0  0  0  0  0  0  0  0  0  0  0  0
  161.2100  204.2750  149.9240 C   0  0  0  0  0  0  0  0  0  0  0  0
  161.0430  202.2250  151.9700 C   0  0  0  0  0  3  0  0  0  0  0  0
  161.2690  203.9210  146.8740 C   0  0  0  0  0  3  0  0  0  0  0  0
  161.8490  206.8380  150.8430 C   0  0  0  0  0  0  0  0  0  0  0  0
  160.6520  200.6450  150.2690 O   0  0  0  0  0  0  0  0  0  0  0  0
  160.8360  207.6640  147.3450 C   0  0  0  0  0  2  0  0  0  0  0  0
  161.2200  202.5610  144.8840 O   0  0  0  0  0  1  0  0  0  0  0  0
  161.7260  205.8000  151.7070 N   0  0  0  0  0  0  0  0  0  0  0  0
  161.6500  206.6330  149.4690 C   0  0  0  0  0  0  0  0  0  0  0  0
  160.7530  202.8980  149.4920 C   0  0  0  0  0  2  0  0  0  0  0  0
  160.8760  204.9420  144.7160 C   0  0  0  0  0  3  0  0  0  0  0  0
  161.4150  204.5470  151.2950 C   0  0  0  0  0  0  0  0  0  0  0  0
  161.3090  203.4840  152.3060 C   0  0  0  0  0  3  0  0  0  0  0  0
  161.8240  207.7760  148.5020 C   0  0  0  0  0  2  0  0  0  0  0  0
  160.9450  206.3140  146.7110 C   0  0  0  0  0  0  0  0  0  0  0  0
  160.7870  206.1940  145.3270 C   0  0  0  0  0  3  0  0  0  0  0  0
  162.1730  208.1930  151.3890 C   0  0  0  0  0  2  0  0  0  0  0  0
  160.8590  210.1740  151.6560 O   0  0  0  0  0  1  0  0  0  0  0  0
  160.9430  208.8270  152.0220 C   0  0  2  0  0  3  0  0  0  0  0  0
  160.7360  208.4180  156.3050 C   0  0  0  0  0  0  0  0  0  0  0  0
  160.9120  207.3500  154.1010 C   0  0  0  0  0  2  0  0  0  0  0  0
  162.3240  210.5630  153.9000 O   0  0  0  0  0  0  0  0  0  0  0  0
  161.4260  208.1040  157.2610 O   0  0  0  0  0  0  0  0  0  0  0  0
  160.1360  207.3800  155.4170 C   0  0  0  0  0  2  0  0  0  0  0  0
  161.3930  209.8040  154.2770 C   0  0  0  0  0  0  0  0  0  0  0  0
  161.0020  208.6780  153.4770 N   0  0  0  0  0  0  0  0  0  0  0  0
  160.5520  210.1270  155.8270 S   0  0  0  0  0  0  0  0  0  0  0  0
  1  6  1  0  0  0  0
  2 13  2  0  0  0  0
  2  5  1  0  0  0  0
  3  2  1  0  0  0  0
  4  7  2  0  0  0  0
  5 16  2  0  0  0  0
  6 17  2  0  0  0  0
  7  3  1  0  0  0  0
  8 21  1  0  0  0  0
  8 12  2  0  0  0  0
  9  1  2  0  0  0  0
 10 18  1  0  0  0  0
 11  4  1  0  0  0  0
 13  8  1  0  0  0  0
 14  5  1  0  0  0  0
 14  1  1  0  0  0  0
 15 20  2  0  0  0  0
 15  4  1  0  0  0  0
 16 12  1  0  0  0  0
 16 17  1  0  0  0  0
 18 13  1  0  0  0  0
 19 10  1  0  0  0  0
 19  3  2  0  0  0  0
 20 19  1  0  0  0  0
 21 23  1  0  0  0  0
 23 22  1  1  0  0  0
 23 30  1  0  0  0  0
 24 27  2  0  0  0  0
 25 28  1  0  0  0  0
 26 29  2  0  0  0  0
 28 24  1  0  0  0  0
 29 31  1  0  0  0  0
 30 25  1  0  0  0  0
 30 29  1  0  0  0  0
 31 24  1  0  0  0  0
M  END
>  <MODEL>
1

>  <REMARK>
 VINA RESULT:      -9.2      0.000      0.000
  Name = 
  3 active torsions:
  status: ('A' for Active; 'I' for Inactive)
    1  A    between atoms: C_5  and  C_16
    2  A    between atoms: C_5  and  N_30
    3  A    between atoms: C_10  and  C_16
                            x       y       z     vdW  Elec       q    Type
                         _______ _______ _______ _____ _____    ______ ____

>  <TORSDO>
F 3

$$$$
=
 OpenBabel11122413183D

 31 35  0  0  1  0  0  0  0  0999 V2000
  161.5590  211.1670  150.0550 C   0  0  0  0  0  0  0  0  0  0  0  0
  161.3510  208.3060  152.6370 C   0  0  0  0  0  0  0  0  0  0  0  0
  160.9460  208.9300  153.9410 C   0  0  0  0  0  0  0  0  0  0  0  0
  160.7520  210.8450  155.4360 C   0  0  0  0  0  0  0  0  0  0  0  0
  161.5090  209.0370  151.4290 C   0  0  0  0  0  0  0  0  0  0  0  0
  161.9560  210.3700  148.8910 C   0  0  0  0  0  3  0  0  0  0  0  0
  161.1090  210.3010  154.1990 C   0  0  0  0  0  3  0  0  0  0  0  0
  161.9450  206.2750  151.4260 C   0  0  0  0  0  0  0  0  0  0  0  0
  161.5030  212.4200  149.9570 O   0  0  0  0  0  0  0  0  0  0  0  0
  160.2680  206.6380  154.7420 C   0  0  0  0  0  2  0  0  0  0  0  0
  160.9130  212.2030  155.6670 O   0  0  0  0  0  1  0  0  0  0  0  0
  162.1060  207.0050  150.2960 N   0  0  0  0  0  0  0  0  0  0  0  0
  161.5510  206.9050  152.6170 C   0  0  0  0  0  0  0  0  0  0  0  0
  161.1740  210.5120  151.3500 C   0  0  0  0  0  2  0  0  0  0  0  0
  160.2330  210.0220  156.4370 C   0  0  0  0  0  3  0  0  0  0  0  0
  161.9000  208.3440  150.2610 C   0  0  0  0  0  0  0  0  0  0  0  0
  162.1050  209.0520  148.9890 C   0  0  0  0  0  3  0  0  0  0  0  0
  161.4100  206.1020  153.8850 C   0  0  0  0  0  2  0  0  0  0  0  0
  160.4480  208.1050  154.9730 C   0  0  0  0  0  0  0  0  0  0  0  0
  160.0810  208.6540  156.2050 C   0  0  0  0  0  3  0  0  0  0  0  0
  162.1730  204.7970  151.3660 C   0  0  0  0  0  2  0  0  0  0  0  0
  160.6860  203.1150  152.1930 O   0  0  0  0  0  1  0  0  0  0  0  0
  160.8570  204.0570  151.1730 C   0  0  2  0  0  3  0  0  0  0  0  0
  161.1530  202.0780  147.3590 C   0  0  0  0  0  0  0  0  0  0  0  0
  160.4400  202.0120  149.7080 C   0  0  0  0  0  2  0  0  0  0  0  0
  160.3760  205.3530  148.6160 O   0  0  0  0  0  0  0  0  0  0  0  0
  160.4560  201.6940  146.4340 O   0  0  0  0  0  0  0  0  0  0  0  0
  161.2470  201.2950  148.6260 C   0  0  0  0  0  2  0  0  0  0  0  0
  160.9610  204.2400  148.6840 C   0  0  0  0  0  0  0  0  0  0  0  0
  160.8350  203.4200  149.8560 N   0  0  0  0  0  0  0  0  0  0  0  0
  161.9560  203.6710  147.3050 S   0  0  0  0  0  0  0  0  0  0  0  0
  1 14  1  0  0  0  0
  2  3  1  0  0  0  0
  3  7  2  0  0  0  0
  3 19  1  0  0  0  0
  4 11  1  0  0  0  0
  4 15  2  0  0  0  0
  5  2  2  0  0  0  0
  6 17  2  0  0  0  0
  6  1  1  0  0  0  0
  7  4  1  0  0  0  0
  8 13  2  0  0  0  0
  9  1  2  0  0  0  0
 10 19  1  0  0  0  0
 12  8  1  0  0  0  0
 13  2  1  0  0  0  0
 13 18  1  0  0  0  0
 14  5  1  0  0  0  0
 16 12  2  0  0  0  0
 16  5  1  0  0  0  0
 17 16  1  0  0  0  0
 18 10  1  0  0  0  0
 19 20  2  0  0  0  0
 20 15  1  0  0  0  0
 21  8  1  0  0  0  0
 23 21  1  0  0  0  0
 23 22  1  1  0  0  0
 24 28  1  0  0  0  0
 25 30  1  0  0  0  0
 26 29  2  0  0  0  0
 27 24  2  0  0  0  0
 28 25  1  0  0  0  0
 29 30  1  0  0  0  0
 30 23  1  0  0  0  0
 31 24  1  0  0  0  0
 31 29  1  0  0  0  0
M  END
>  <MODEL>
2

>  <REMARK>
 VINA RESULT:      -9.2      2.911      8.456
  Name = 
  3 active torsions:
  status: ('A' for Active; 'I' for Inactive)
    1  A    between atoms: C_5  and  C_16
    2  A    between atoms: C_5  and  N_30
    3  A    between atoms: C_10  and  C_16
                            x       y       z     vdW  Elec       q    Type
                         _______ _______ _______ _____ _____    ______ ____

>  <TORSDO>
F 3

$$$$
=
 OpenBabel11122413183D

 31 35  0  0  1  0  0  0  0  0999 V2000
  160.0010  209.2970  156.2520 C   0  0  0  0  0  0  0  0  0  0  0  0
  160.9420  208.8770  152.5330 C   0  0  0  0  0  0  0  0  0  0  0  0
  160.8390  210.2370  151.9060 C   0  0  0  0  0  0  0  0  0  0  0  0
  159.9860  212.5190  151.8570 C   0  0  0  0  0  0  0  0  0  0  0  0
  160.6970  208.6230  153.9090 C   0  0  0  0  0  0  0  0  0  0  0  0
  160.1600  207.9000  156.6670 C   0  0  0  0  0  3  0  0  0  0  0  0
  160.0880  211.2740  152.4830 C   0  0  0  0  0  3  0  0  0  0  0  0
  161.4380  206.5080  152.2370 C   0  0  0  0  0  0  0  0  0  0  0  0
  159.5540  210.1390  157.0720 O   0  0  0  0  0  0  0  0  0  0  0  0
  162.2580  209.3860  150.0030 C   0  0  0  0  0  2  0  0  0  0  0  0
  159.2470  213.5340  152.4490 O   0  0  0  0  0  1  0  0  0  0  0  0
  161.1780  206.2980  153.5500 N   0  0  0  0  0  0  0  0  0  0  0  0
  161.3410  207.8030  151.7030 C   0  0  0  0  0  0  0  0  0  0  0  0
  160.4060  209.7490  154.8790 C   0  0  0  0  0  2  0  0  0  0  0  0
  160.6270  212.7420  150.6370 C   0  0  0  0  0  3  0  0  0  0  0  0
  160.8190  207.3000  154.3890 C   0  0  0  0  0  0  0  0  0  0  0  0
  160.5510  206.9730  155.7980 C   0  0  0  0  0  3  0  0  0  0  0  0
  161.5910  208.0340  150.2340 C   0  0  0  0  0  2  0  0  0  0  0  0
  161.4570  210.4670  150.6570 C   0  0  0  0  0  0  0  0  0  0  0  0
  161.3610  211.7170  150.0390 C   0  0  0  0  0  3  0  0  0  0  0  0
  161.8500  205.3450  151.3900 C   0  0  0  0  0  2  0  0  0  0  0  0
  160.7340  203.3950  152.2100 O   0  0  0  0  0  1  0  0  0  0  0  0
  160.6930  204.3730  151.2110 C   0  0  2  0  0  3  0  0  0  0  0  0
  161.2300  202.5030  147.3680 C   0  0  0  0  0  0  0  0  0  0  0  0
  160.4040  202.3570  149.6760 C   0  0  0  0  0  2  0  0  0  0  0  0
  160.3040  205.7220  148.6670 O   0  0  0  0  0  0  0  0  0  0  0  0
  160.5890  202.1260  146.4010 O   0  0  0  0  0  0  0  0  0  0  0  0
  161.2830  201.6900  148.6180 C   0  0  0  0  0  2  0  0  0  0  0  0
  160.9150  204.6230  148.7350 C   0  0  0  0  0  0  0  0  0  0  0  0
  160.7530  203.7700  149.8790 N   0  0  0  0  0  0  0  0  0  0  0  0
  161.9910  204.1170  147.3940 S   0  0  0  0  0  0  0  0  0  0  0  0
  1  6  1  0  0  0  0
  1  9  2  0  0  0  0
  2  5  1  0  0  0  0
  3  7  1  0  0  0  0
  3  2  1  0  0  0  0
  4 11  1  0  0  0  0
  4  7  2  0  0  0  0
  5 16  2  0  0  0  0
  5 14  1  0  0  0  0
  8 12  2  0  0  0  0
 10 18  1  0  0  0  0
 10 19  1  0  0  0  0
 12 16  1  0  0  0  0
 13  8  1  0  0  0  0
 13  2  2  0  0  0  0
 14  1  1  0  0  0  0
 15  4  1  0  0  0  0
 16 17  1  0  0  0  0
 17  6  2  0  0  0  0
 18 13  1  0  0  0  0
 19  3  2  0  0  0  0
 20 15  2  0  0  0  0
 20 19  1  0  0  0  0
 21  8  1  0  0  0  0
 23 21  1  0  0  0  0
 23 22  1  1  0  0  0
 24 31  1  0  0  0  0
 24 28  1  0  0  0  0
 25 30  1  0  0  0  0
 26 29  2  0  0  0  0
 27 24  2  0  0  0  0
 28 25  1  0  0  0  0
 29 30  1  0  0  0  0
 30 23  1  0  0  0  0
 31 29  1  0  0  0  0
M  END
>  <MODEL>
3

>  <REMARK>
 VINA RESULT:      -9.1      2.912      7.682
  Name = 
  3 active torsions:
  status: ('A' for Active; 'I' for Inactive)
    1  A    between atoms: C_5  and  C_16
    2  A    between atoms: C_5  and  N_30
    3  A    between atoms: C_10  and  C_16
                            x       y       z     vdW  Elec       q    Type
                         _______ _______ _______ _____ _____    ______ ____

>  <TORSDO>
F 3

$$$$
=
 OpenBabel11122413183D

 31 35  0  0  1  0  0  0  0  0999 V2000
  162.0120  209.9280  149.0560 C   0  0  0  0  0  0  0  0  0  0  0  0
  161.2420  206.6960  151.0200 C   0  0  0  0  0  0  0  0  0  0  0  0
  161.2520  205.5740  150.0240 C   0  0  0  0  0  0  0  0  0  0  0  0
  161.0740  204.7210  147.7480 C   0  0  0  0  0  0  0  0  0  0  0  0
  161.5110  208.0500  150.6840 C   0  0  0  0  0  0  0  0  0  0  0  0
  161.9560  210.8720  150.1760 C   0  0  0  0  0  3  0  0  0  0  0  0
  161.0920  205.7920  148.6460 C   0  0  0  0  0  3  0  0  0  0  0  0
  160.9450  207.3840  153.3400 C   0  0  0  0  0  0  0  0  0  0  0  0
  162.1660  210.3640  147.8860 O   0  0  0  0  0  0  0  0  0  0  0  0
  161.5170  203.9670  151.9490 C   0  0  0  0  0  2  0  0  0  0  0  0
  160.9240  204.9590  146.3890 O   0  0  0  0  0  1  0  0  0  0  0  0
  161.1880  208.6690  152.9820 N   0  0  0  0  0  0  0  0  0  0  0  0
  160.9810  206.3690  152.3720 C   0  0  0  0  0  0  0  0  0  0  0  0
  161.9360  208.4460  149.2850 C   0  0  0  0  0  2  0  0  0  0  0  0
  161.2060  203.4130  148.2180 C   0  0  0  0  0  3  0  0  0  0  0  0
  161.4680  209.0260  151.7050 C   0  0  0  0  0  0  0  0  0  0  0  0
  161.7120  210.4460  151.4110 C   0  0  0  0  0  3  0  0  0  0  0  0
  160.6730  204.9450  152.7590 C   0  0  0  0  0  2  0  0  0  0  0  0
  161.3550  204.2440  150.4880 C   0  0  0  0  0  0  0  0  0  0  0  0
  161.3470  203.1760  149.5860 C   0  0  0  0  0  3  0  0  0  0  0  0
  160.6670  207.0790  154.7790 C   0  0  0  0  0  2  0  0  0  0  0  0
  161.6210  207.4560  156.9400 O   0  0  0  0  0  1  0  0  0  0  0  0
  161.4130  208.0450  155.6880 C   0  0  2  0  0  3  0  0  0  0  0  0
  159.0370  211.6380  155.7090 C   0  0  0  0  0  0  0  0  0  0  0  0
  159.3310  209.3120  156.4390 C   0  0  0  0  0  2  0  0  0  0  0  0
  162.5060  210.7280  155.9210 O   0  0  0  0  0  0  0  0  0  0  0  0
  158.6870  212.5370  156.4560 O   0  0  0  0  0  0  0  0  0  0  0  0
  158.3820  210.2990  155.7600 C   0  0  0  0  0  2  0  0  0  0  0  0
  161.3220  210.5370  155.5360 C   0  0  0  0  0  0  0  0  0  0  0  0
  160.6590  209.2930  155.8100 N   0  0  0  0  0  0  0  0  0  0  0  0
  160.4560  211.8290  154.6440 S   0  0  0  0  0  0  0  0  0  0  0  0
  1 14  1  0  0  0  0
  1  6  1  0  0  0  0
  2 13  1  0  0  0  0
  3 19  1  0  0  0  0
  3  2  1  0  0  0  0
  4 15  2  0  0  0  0
  4  7  1  0  0  0  0
  5  2  2  0  0  0  0
  5 16  1  0  0  0  0
  6 17  2  0  0  0  0
  7  3  2  0  0  0  0
  8 21  1  0  0  0  0
  9  1  2  0  0  0  0
 10 18  1  0  0  0  0
 11  4  1  0  0  0  0
 12  8  1  0  0  0  0
 13 18  1  0  0  0  0
 13  8  2  0  0  0  0
 14  5  1  0  0  0  0
 15 20  1  0  0  0  0
 16 12  2  0  0  0  0
 17 16  1  0  0  0  0
 19 10  1  0  0  0  0
 20 19  2  0  0  0  0
 21 23  1  0  0  0  0
 23 30  1  0  0  0  0
 23 22  1  1  0  0  0
 24 28  1  0  0  0  0
 24 27  2  0  0  0  0
 28 25  1  0  0  0  0
 29 30  1  0  0  0  0
 29 26  2  0  0  0  0
 30 25  1  0  0  0  0
 31 29  1  0  0  0  0
 31 24  1  0  0  0  0
M  END
>  <MODEL>
4

>  <REMARK>
 VINA RESULT:      -8.9      2.037      4.742
  Name = 
  3 active torsions:
  status: ('A' for Active; 'I' for Inactive)
    1  A    between atoms: C_5  and  C_16
    2  A    between atoms: C_5  and  N_30
    3  A    between atoms: C_10  and  C_16
                            x       y       z     vdW  Elec       q    Type
                         _______ _______ _______ _____ _____    ______ ____

>  <TORSDO>
F 3

$$$$
=
 OpenBabel11122413183D

 31 35  0  0  1  0  0  0  0  0999 V2000
  160.8040  201.6980  150.3360 C   0  0  0  0  0  0  0  0  0  0  0  0
  161.4390  205.3780  149.3640 C   0  0  0  0  0  0  0  0  0  0  0  0
  161.3440  205.4520  147.8680 C   0  0  0  0  0  0  0  0  0  0  0  0
  161.4220  204.4260  145.6580 C   0  0  0  0  0  0  0  0  0  0  0  0
  161.2370  204.1850  150.1090 C   0  0  0  0  0  0  0  0  0  0  0  0
  160.9380  201.8400  151.7890 C   0  0  0  0  0  3  0  0  0  0  0  0
  161.4840  204.3180  147.0500 C   0  0  0  0  0  3  0  0  0  0  0  0
  161.8260  206.5620  151.4600 C   0  0  0  0  0  0  0  0  0  0  0  0
  160.6480  200.5540  149.8380 O   0  0  0  0  0  0  0  0  0  0  0  0
  161.0340  207.9450  148.0830 C   0  0  0  0  0  2  0  0  0  0  0  0
  161.5530  203.2920  144.8700 O   0  0  0  0  0  1  0  0  0  0  0  0
  161.6470  205.4020  152.1390 N   0  0  0  0  0  0  0  0  0  0  0  0
  161.7120  206.5790  150.0610 C   0  0  0  0  0  0  0  0  0  0  0  0
  160.8030  202.9000  149.4360 C   0  0  0  0  0  2  0  0  0  0  0  0
  161.2280  205.6730  145.0620 C   0  0  0  0  0  3  0  0  0  0  0  0
  161.3580  204.2340  151.5150 C   0  0  0  0  0  0  0  0  0  0  0  0
  161.1860  203.0250  152.3360 C   0  0  0  0  0  3  0  0  0  0  0  0
  161.9490  207.8590  149.3000 C   0  0  0  0  0  2  0  0  0  0  0  0
  161.1780  206.7110  147.2500 C   0  0  0  0  0  0  0  0  0  0  0  0
  161.1060  206.8130  145.8570 C   0  0  0  0  0  3  0  0  0  0  0  0
  162.1200  207.8090  152.2330 C   0  0  0  0  0  2  0  0  0  0  0  0
  160.1320  209.1270  152.0610 O   0  0  0  0  0  1  0  0  0  0  0  0
  160.8670  208.3170  152.9320 C   0  0  2  0  0  3  0  0  0  0  0  0
  162.3100  210.3230  156.4600 C   0  0  0  0  0  0  0  0  0  0  0  0
  161.7580  210.4190  154.0700 C   0  0  0  0  0  2  0  0  0  0  0  0
  159.7310  207.9800  155.5850 O   0  0  0  0  0  0  0  0  0  0  0  0
  161.9830  211.1840  157.2600 O   0  0  0  0  0  0  0  0  0  0  0  0
  162.8410  210.6870  155.1140 C   0  0  0  0  0  2  0  0  0  0  0  0
  160.8620  208.5090  155.4230 C   0  0  0  0  0  0  0  0  0  0  0  0
  161.2380  209.0460  154.1450 N   0  0  0  0  0  0  0  0  0  0  0  0
  162.0110  208.5960  156.7970 S   0  0  0  0  0  0  0  0  0  0  0  0
  1  6  1  0  0  0  0
  2 13  2  0  0  0  0
  2  5  1  0  0  0  0
  3  2  1  0  0  0  0
  4  7  1  0  0  0  0
  5 16  2  0  0  0  0
  6 17  2  0  0  0  0
  7  3  2  0  0  0  0
  8 12  2  0  0  0  0
  8 21  1  0  0  0  0
  9  1  2  0  0  0  0
 10 18  1  0  0  0  0
 11  4  1  0  0  0  0
 13  8  1  0  0  0  0
 14  5  1  0  0  0  0
 14  1  1  0  0  0  0
 15  4  2  0  0  0  0
 15 20  1  0  0  0  0
 16 12  1  0  0  0  0
 16 17  1  0  0  0  0
 18 13  1  0  0  0  0
 19  3  1  0  0  0  0
 19 10  1  0  0  0  0
 20 19  2  0  0  0  0
 21 23  1  0  0  0  0
 23 22  1  6  0  0  0
 23 30  1  0  0  0  0
 24 31  1  0  0  0  0
 24 27  2  0  0  0  0
 25 30  1  0  0  0  0
 25 28  1  0  0  0  0
 28 24  1  0  0  0  0
 29 26  2  0  0  0  0
 29 31  1  0  0  0  0
 30 29  1  0  0  0  0
M  END
>  <MODEL>
5

>  <REMARK>
 VINA RESULT:      -8.7      1.179      1.616
  Name = 
  3 active torsions:
  status: ('A' for Active; 'I' for Inactive)
    1  A    between atoms: C_5  and  C_16
    2  A    between atoms: C_5  and  N_30
    3  A    between atoms: C_10  and  C_16
                            x       y       z     vdW  Elec       q    Type
                         _______ _______ _______ _____ _____    ______ ____

>  <TORSDO>
F 3

$$$$
=
 OpenBabel11122413183D

 31 35  0  0  1  0  0  0  0  0999 V2000
  162.1340  207.2660  147.5570 C   0  0  0  0  0  0  0  0  0  0  0  0
  161.1300  205.0200  150.5310 C   0  0  0  0  0  0  0  0  0  0  0  0
  161.0610  203.6160  150.0070 C   0  0  0  0  0  0  0  0  0  0  0  0
  160.8250  202.0130  148.1860 C   0  0  0  0  0  0  0  0  0  0  0  0
  161.4970  206.1400  149.7380 C   0  0  0  0  0  0  0  0  0  0  0  0
  162.1440  208.5520  148.2610 C   0  0  0  0  0  3  0  0  0  0  0  0
  160.9190  203.3320  148.6380 C   0  0  0  0  0  3  0  0  0  0  0  0
  160.8800  206.5170  152.4390 C   0  0  0  0  0  0  0  0  0  0  0  0
  162.3200  207.2390  146.3140 O   0  0  0  0  0  0  0  0  0  0  0  0
  161.2060  202.7980  152.3870 C   0  0  0  0  0  2  0  0  0  0  0  0
  160.6950  201.7540  146.8290 O   0  0  0  0  0  1  0  0  0  0  0  0
  161.2150  207.5670  151.6500 N   0  0  0  0  0  0  0  0  0  0  0  0
  160.8440  205.2210  151.9030 C   0  0  0  0  0  0  0  0  0  0  0  0
  161.9510  205.9760  148.3020 C   0  0  0  0  0  2  0  0  0  0  0  0
  160.8620  200.9570  149.0980 C   0  0  0  0  0  3  0  0  0  0  0  0
  161.5220  207.4190  150.3380 C   0  0  0  0  0  0  0  0  0  0  0  0
  161.8680  208.6180  149.5600 C   0  0  0  0  0  3  0  0  0  0  0  0
  160.4340  204.0570  152.7680 C   0  0  0  0  0  2  0  0  0  0  0  0
  161.0670  202.5390  150.9210 C   0  0  0  0  0  0  0  0  0  0  0  0
  160.9840  201.2210  150.4640 C   0  0  0  0  0  3  0  0  0  0  0  0
  160.5780  206.7710  153.8830 C   0  0  0  0  0  2  0  0  0  0  0  0
  161.9570  207.4630  155.7110 O   0  0  0  0  0  1  0  0  0  0  0  0
  161.5010  207.8430  154.4450 C   0  0  2  0  0  3  0  0  0  0  0  0
  159.1260  211.4370  154.4510 C   0  0  0  0  0  0  0  0  0  0  0  0
  159.9870  209.4880  155.6720 C   0  0  0  0  0  2  0  0  0  0  0  0
  162.2810  210.3220  153.1430 O   0  0  0  0  0  0  0  0  0  0  0  0
  159.1210  212.5680  154.9090 O   0  0  0  0  0  0  0  0  0  0  0  0
  158.7290  210.2680  155.2890 C   0  0  0  0  0  2  0  0  0  0  0  0
  161.0940  210.1270  153.5160 C   0  0  0  0  0  0  0  0  0  0  0  0
  160.7950  209.1240  154.5010 N   0  0  0  0  0  0  0  0  0  0  0  0
  159.7680  211.1100  152.8190 S   0  0  0  0  0  0  0  0  0  0  0  0
  1  6  1  0  0  0  0
  1 14  1  0  0  0  0
  2 13  1  0  0  0  0
  3  2  1  0  0  0  0
  3 19  1  0  0  0  0
  4  7  1  0  0  0  0
  4 15  2  0  0  0  0
  5 16  1  0  0  0  0
  5  2  2  0  0  0  0
  6 17  2  0  0  0  0
  7  3  2  0  0  0  0
  8 21  1  0  0  0  0
  9  1  2  0  0  0  0
 10 18  1  0  0  0  0
 11  4  1  0  0  0  0
 12  8  1  0  0  0  0
 13  8  2  0  0  0  0
 13 18  1  0  0  0  0
 14  5  1  0  0  0  0
 15 20  1  0  0  0  0
 16 12  2  0  0  0  0
 17 16  1  0  0  0  0
 19 10  1  0  0  0  0
 20 19  2  0  0  0  0
 21 23  1  0  0  0  0
 23 30  1  0  0  0  0
 23 22  1  1  0  0  0
 24 27  2  0  0  0  0
 24 28  1  0  0  0  0
 26 29  2  0  0  0  0
 28 25  1  0  0  0  0
 29 30  1  0  0  0  0
 30 25  1  0  0  0  0
 31 29  1  0  0  0  0
 31 24  1  0  0  0  0
M  END
>  <MODEL>
6

>  <REMARK>
 VINA RESULT:      -8.6      1.847      4.339
  Name = 
  3 active torsions:
  status: ('A' for Active; 'I' for Inactive)
    1  A    between atoms: C_5  and  C_16
    2  A    between atoms: C_5  and  N_30
    3  A    between atoms: C_10  and  C_16
                            x       y       z     vdW  Elec       q    Type
                         _______ _______ _______ _____ _____    ______ ____

>  <TORSDO>
F 3

$$$$
=
 OpenBabel11122413183D

 31 35  0  0  1  0  0  0  0  0999 V2000
  161.9570  206.9680  147.1740 C   0  0  0  0  0  0  0  0  0  0  0  0
  161.1520  204.6780  150.1750 C   0  0  0  0  0  0  0  0  0  0  0  0
  161.1000  203.2750  149.6450 C   0  0  0  0  0  0  0  0  0  0  0  0
  160.8290  201.6760  147.8260 C   0  0  0  0  0  0  0  0  0  0  0  0
  161.4510  205.8130  149.3730 C   0  0  0  0  0  0  0  0  0  0  0  0
  161.9620  208.2490  147.8850 C   0  0  0  0  0  3  0  0  0  0  0  0
  160.9050  202.9940  148.2820 C   0  0  0  0  0  3  0  0  0  0  0  0
  160.9450  206.1570  152.1020 C   0  0  0  0  0  0  0  0  0  0  0  0
  162.0890  206.9530  145.9230 O   0  0  0  0  0  0  0  0  0  0  0  0
  161.3750  202.4490  152.0110 C   0  0  0  0  0  2  0  0  0  0  0  0
  160.6460  201.4200  146.4740 O   0  0  0  0  0  1  0  0  0  0  0  0
  161.2150  207.2200  151.3050 N   0  0  0  0  0  0  0  0  0  0  0  0
  160.9230  204.8630  151.5590 C   0  0  0  0  0  0  0  0  0  0  0  0
  161.8450  205.6690  147.9180 C   0  0  0  0  0  2  0  0  0  0  0  0
  160.9370  200.6170  148.7290 C   0  0  0  0  0  3  0  0  0  0  0  0
  161.4670  207.0880  149.9790 C   0  0  0  0  0  0  0  0  0  0  0  0
  161.7430  208.3010  149.1950 C   0  0  0  0  0  3  0  0  0  0  0  0
  160.5850  203.6830  152.4340 C   0  0  0  0  0  2  0  0  0  0  0  0
  161.1780  202.1940  150.5500 C   0  0  0  0  0  0  0  0  0  0  0  0
  161.1120  200.8760  150.0890 C   0  0  0  0  0  3  0  0  0  0  0  0
  160.7010  206.3950  153.5590 C   0  0  0  0  0  2  0  0  0  0  0  0
  162.0920  207.3760  155.2390 O   0  0  0  0  0  1  0  0  0  0  0  0
  161.4370  207.6400  154.0320 C   0  0  2  0  0  3  0  0  0  0  0  0
  158.9590  211.1320  154.5060 C   0  0  0  0  0  0  0  0  0  0  0  0
  160.0820  209.5420  153.0080 C   0  0  0  0  0  2  0  0  0  0  0  0
  159.3350  207.8970  156.0230 O   0  0  0  0  0  0  0  0  0  0  0  0
  157.8090  211.5040  154.3490 O   0  0  0  0  0  0  0  0  0  0  0  0
  159.8950  211.0200  153.3490 C   0  0  0  0  0  2  0  0  0  0  0  0
  159.7820  208.9040  155.4130 C   0  0  0  0  0  0  0  0  0  0  0  0
  160.4930  208.7490  154.1750 N   0  0  0  0  0  0  0  0  0  0  0  0
  159.5260  210.5430  156.0930 S   0  0  0  0  0  0  0  0  0  0  0  0
  1  6  1  0  0  0  0
  1 14  1  0  0  0  0
  2 13  1  0  0  0  0
  3  2  1  0  0  0  0
  3 19  1  0  0  0  0
  4  7  1  0  0  0  0
  4 15  2  0  0  0  0
  5 16  1  0  0  0  0
  5  2  2  0  0  0  0
  6 17  2  0  0  0  0
  7  3  2  0  0  0  0
  8 21  1  0  0  0  0
  9  1  2  0  0  0  0
 10 18  1  0  0  0  0
 11  4  1  0  0  0  0
 12  8  1  0  0  0  0
 13  8  2  0  0  0  0
 13 18  1  0  0  0  0
 14  5  1  0  0  0  0
 15 20  1  0  0  0  0
 16 12  2  0  0  0  0
 17 16  1  0  0  0  0
 19 10  1  0  0  0  0
 20 19  2  0  0  0  0
 21 23  1  0  0  0  0
 23 30  1  0  0  0  0
 23 22  1  1  0  0  0
 24 31  1  0  0  0  0
 25 28  1  0  0  0  0
 25 30  1  0  0  0  0
 27 24  2  0  0  0  0
 28 24  1  0  0  0  0
 29 26  2  0  0  0  0
 29 31  1  0  0  0  0
 30 29  1  0  0  0  0
M  END
>  <MODEL>
7

>  <REMARK>
 VINA RESULT:      -8.2      1.884      4.350
  Name = 
  3 active torsions:
  status: ('A' for Active; 'I' for Inactive)
    1  A    between atoms: C_5  and  C_16
    2  A    between atoms: C_5  and  N_30
    3  A    between atoms: C_10  and  C_16
                            x       y       z     vdW  Elec       q    Type
                         _______ _______ _______ _____ _____    ______ ____

>  <TORSDO>
F 3

$$$$
=
 OpenBabel11122413183D

 31 35  0  0  1  0  0  0  0  0999 V2000
  161.9020  206.2020  146.4480 C   0  0  0  0  0  0  0  0  0  0  0  0
  161.1670  204.8690  149.9950 C   0  0  0  0  0  0  0  0  0  0  0  0
  161.0760  203.3750  149.8840 C   0  0  0  0  0  0  0  0  0  0  0  0
  160.7200  201.3350  148.5980 C   0  0  0  0  0  0  0  0  0  0  0  0
  161.4540  205.7240  148.8980 C   0  0  0  0  0  0  0  0  0  0  0  0
  161.9500  207.6320  146.7690 C   0  0  0  0  0  3  0  0  0  0  0  0
  160.8310  202.7270  148.6620 C   0  0  0  0  0  3  0  0  0  0  0  0
  161.0470  206.8350  151.4320 C   0  0  0  0  0  0  0  0  0  0  0  0
  161.9900  205.8330  145.2490 O   0  0  0  0  0  0  0  0  0  0  0  0
  161.4200  203.2420  152.3780 C   0  0  0  0  0  2  0  0  0  0  0  0
  160.4880  200.7140  147.3790 O   0  0  0  0  0  1  0  0  0  0  0  0
  161.3040  207.6240  150.3600 N   0  0  0  0  0  0  0  0  0  0  0  0
  160.9870  205.4410  151.2770 C   0  0  0  0  0  0  0  0  0  0  0  0
  161.7960  205.1680  147.5320 C   0  0  0  0  0  2  0  0  0  0  0  0
  160.8440  200.5700  149.7590 C   0  0  0  0  0  3  0  0  0  0  0  0
  161.5090  207.1190  149.1190 C   0  0  0  0  0  0  0  0  0  0  0  0
  161.7760  208.0550  148.0170 C   0  0  0  0  0  3  0  0  0  0  0  0
  160.6630  204.5630  152.4580 C   0  0  0  0  0  2  0  0  0  0  0  0
  161.1690  202.5910  151.0540 C   0  0  0  0  0  0  0  0  0  0  0  0
  161.0690  201.1980  150.9850 C   0  0  0  0  0  3  0  0  0  0  0  0
  160.8560  207.4780  152.7700 C   0  0  0  0  0  2  0  0  0  0  0  0
  162.2860  209.3540  152.3700 O   0  0  0  0  0  1  0  0  0  0  0  0
  160.9660  208.9920  152.6590 C   0  0  2  0  0  3  0  0  0  0  0  0
  159.3400  210.5610  156.3270 C   0  0  0  0  0  0  0  0  0  0  0  0
  161.0070  209.1500  155.2040 C   0  0  0  0  0  2  0  0  0  0  0  0
  160.0800  211.7370  153.0130 O   0  0  0  0  0  0  0  0  0  0  0  0
  159.6140  211.3360  157.2280 O   0  0  0  0  0  0  0  0  0  0  0  0
  159.9290  209.1910  156.2860 C   0  0  0  0  0  2  0  0  0  0  0  0
  159.7590  210.8380  153.8340 C   0  0  0  0  0  0  0  0  0  0  0  0
  160.5080  209.6140  153.9020 N   0  0  0  0  0  0  0  0  0  0  0  0
  158.3620  211.0870  154.9290 S   0  0  0  0  0  0  0  0  0  0  0  0
  1  6  1  0  0  0  0
  1 14  1  0  0  0  0
  2 13  1  0  0  0  0
  3  2  1  0  0  0  0
  3 19  1  0  0  0  0
  4  7  1  0  0  0  0
  4 15  2  0  0  0  0
  5 16  1  0  0  0  0
  5  2  2  0  0  0  0
  6 17  2  0  0  0  0
  7  3  2  0  0  0  0
  8 21  1  0  0  0  0
  9  1  2  0  0  0  0
 10 18  1  0  0  0  0
 11  4  1  0  0  0  0
 12  8  1  0  0  0  0
 13  8  2  0  0  0  0
 13 18  1  0  0  0  0
 14  5  1  0  0  0  0
 15 20  1  0  0  0  0
 16 12  2  0  0  0  0
 17 16  1  0  0  0  0
 19 10  1  0  0  0  0
 20 19  2  0  0  0  0
 23 22  1  1  0  0  0
 23 21  1  0  0  0  0
 23 30  1  0  0  0  0
 24 27  2  0  0  0  0
 25 28  1  0  0  0  0
 26 29  2  0  0  0  0
 28 24  1  0  0  0  0
 29 30  1  0  0  0  0
 29 31  1  0  0  0  0
 30 25  1  0  0  0  0
 31 24  1  0  0  0  0
M  END
>  <MODEL>
8

>  <REMARK>
 VINA RESULT:      -8.1      1.700      4.124
  Name = 
  3 active torsions:
  status: ('A' for Active; 'I' for Inactive)
    1  A    between atoms: C_5  and  C_16
    2  A    between atoms: C_5  and  N_30
    3  A    between atoms: C_10  and  C_16
                            x       y       z     vdW  Elec       q    Type
                         _______ _______ _______ _____ _____    ______ ____

>  <TORSDO>
F 3

$$$$
=
 OpenBabel11122413183D

 31 35  0  0  1  0  0  0  0  0999 V2000
  161.9800  210.0580  149.1260 C   0  0  0  0  0  0  0  0  0  0  0  0
  161.1320  207.6980  152.0610 C   0  0  0  0  0  0  0  0  0  0  0  0
  161.1540  206.3020  151.5110 C   0  0  0  0  0  0  0  0  0  0  0  0
  161.0210  204.7200  149.6620 C   0  0  0  0  0  0  0  0  0  0  0  0
  161.4220  208.8540  151.2870 C   0  0  0  0  0  0  0  0  0  0  0  0
  161.9070  211.3290  149.8530 C   0  0  0  0  0  3  0  0  0  0  0  0
  161.0290  206.0330  150.1380 C   0  0  0  0  0  3  0  0  0  0  0  0
  160.7880  209.1420  153.9960 C   0  0  0  0  0  0  0  0  0  0  0  0
  162.1650  210.0660  147.8830 O   0  0  0  0  0  0  0  0  0  0  0  0
  161.3580  205.4540  153.8770 C   0  0  0  0  0  2  0  0  0  0  0  0
  160.9060  204.4770  148.3010 O   0  0  0  0  0  1  0  0  0  0  0  0
  161.0510  210.2250  153.2240 N   0  0  0  0  0  0  0  0  0  0  0  0
  160.8360  207.8560  153.4360 C   0  0  0  0  0  0  0  0  0  0  0  0
  161.8840  208.7450  149.8490 C   0  0  0  0  0  2  0  0  0  0  0  0
  161.1300  203.6530  150.5560 C   0  0  0  0  0  3  0  0  0  0  0  0
  161.3650  210.1210  151.9100 C   0  0  0  0  0  0  0  0  0  0  0  0
  161.6290  211.3540  151.1530 C   0  0  0  0  0  3  0  0  0  0  0  0
  160.5050  206.6520  154.2810 C   0  0  0  0  0  2  0  0  0  0  0  0
  161.2330  205.2120  152.4060 C   0  0  0  0  0  0  0  0  0  0  0  0
  161.2360  203.8990  151.9260 C   0  0  0  0  0  3  0  0  0  0  0  0
  160.4730  209.3490  155.4440 C   0  0  0  0  0  2  0  0  0  0  0  0
  161.0220  210.9320  157.1510 O   0  0  0  0  0  1  0  0  0  0  0  0
  160.6100  210.8180  155.8190 C   0  0  2  0  0  3  0  0  0  0  0  0
  156.8820  212.7240  154.8100 C   0  0  0  0  0  0  0  0  0  0  0  0
  158.0600  210.8110  155.8000 C   0  0  0  0  0  2  0  0  0  0  0  0
  160.0920  213.6610  156.1250 O   0  0  0  0  0  0  0  0  0  0  0  0
  155.9240  213.2680  155.3350 O   0  0  0  0  0  0  0  0  0  0  0  0
  157.0020  211.2380  154.7840 C   0  0  0  0  0  2  0  0  0  0  0  0
  159.3400  212.9330  155.4240 C   0  0  0  0  0  0  0  0  0  0  0  0
  159.3380  211.5070  155.5990 N   0  0  0  0  0  0  0  0  0  0  0  0
  158.2610  213.6800  154.2030 S   0  0  0  0  0  0  0  0  0  0  0  0
  1 14  1  0  0  0  0
  1  6  1  0  0  0  0
  2 13  1  0  0  0  0
  3  2  1  0  0  0  0
  3 19  1  0  0  0  0
  4  7  1  0  0  0  0
  4 15  2  0  0  0  0
  5 16  1  0  0  0  0
  5  2  2  0  0  0  0
  6 17  2  0  0  0  0
  7  3  2  0  0  0  0
  8 21  1  0  0  0  0
  9  1  2  0  0  0  0
 10 18  1  0  0  0  0
 11  4  1  0  0  0  0
 12  8  1  0  0  0  0
 13  8  2  0  0  0  0
 13 18  1  0  0  0  0
 14  5  1  0  0  0  0
 15 20  1  0  0  0  0
 16 12  2  0  0  0  0
 17 16  1  0  0  0  0
 19 10  1  0  0  0  0
 20 19  2  0  0  0  0
 21 23  1  0  0  0  0
 23 22  1  1  0  0  0
 24 27  2  0  0  0  0
 28 24  1  0  0  0  0
 28 25  1  0  0  0  0
 29 30  1  0  0  0  0
 29 26  2  0  0  0  0
 30 25  1  0  0  0  0
 30 23  1  0  0  0  0
 31 24  1  0  0  0  0
 31 29  1  0  0  0  0
M  END
>  <MODEL>
9

>  <REMARK>
 VINA RESULT:      -8.0      2.969      5.777
  Name = 
  3 active torsions:
  status: ('A' for Active; 'I' for Inactive)
    1  A    between atoms: C_5  and  C_16
    2  A    between atoms: C_5  and  N_30
    3  A    between atoms: C_10  and  C_16
                            x       y       z     vdW  Elec       q    Type
                         _______ _______ _______ _____ _____    ______ ____

>  <TORSDO>
F 3

$$$$
