=
 OpenBabel11122412533D

 32 38  0  0  1  0  0  0  0  0999 V2000
  160.4510  209.1800  156.9210 C   0  0  1  0  0  3  0  0  0  0  0  0
  161.1290  206.7210  152.2820 C   0  0  0  0  0  0  0  0  0  0  0  0
  162.5580  210.2060  149.2780 O   0  0  0  0  0  0  0  0  0  0  0  0
  161.8320  209.6750  148.2000 C   0  0  0  0  0  2  0  0  0  0  0  0
  160.9320  204.3230  151.4210 C   0  0  0  0  0  0  0  0  0  0  0  0
  160.8950  203.4490  150.2550 C   0  0  0  0  0  0  0  0  0  0  0  0
  161.2290  207.2240  154.7610 C   0  0  1  0  0  3  0  0  0  0  0  0
  161.4070  209.1080  153.1560 C   0  0  0  0  0  2  0  0  0  0  0  0
  161.0050  202.8290  148.1650 C   0  0  0  0  0  0  0  0  0  0  0  0
  160.8840  209.6790  155.5420 C   0  0  2  0  0  3  0  0  0  0  0  0
  161.7590  210.0150  150.4200 C   0  0  0  0  0  2  0  0  0  0  0  0
  161.3350  208.1010  152.0280 C   0  0  0  0  0  0  0  0  0  0  0  0
  161.5830  208.5440  150.7220 C   0  0  0  0  0  0  0  0  0  0  0  0
  161.3760  206.2660  149.8760 C   0  0  0  0  0  0  0  0  0  0  0  0
  160.7340  201.7320  148.9660 C   0  0  0  0  0  3  0  0  0  0  0  0
  159.9370  207.7240  156.9230 C   0  0  0  0  0  2  0  0  0  0  0  0
  160.7200  208.6290  154.4250 C   0  0  2  0  0  3  0  0  0  0  0  0
  160.6680  202.1200  150.2620 N   0  0  0  0  0  2  0  0  0  0  0  0
  160.7850  206.7170  156.1360 C   0  0  0  0  0  2  0  0  0  0  0  0
  161.9320  209.3200  156.5900 C   0  0  1  0  0  3  0  0  0  0  0  0
  161.8820  208.1480  148.2550 C   0  0  0  0  0  2  0  0  0  0  0  0
  161.5810  207.6380  149.6480 C   0  0  0  0  0  0  0  0  0  0  0  0
  161.4220  205.3370  148.6690 C   0  0  0  0  0  2  0  0  0  0  0  0
  160.7620  206.2660  153.6780 C   0  0  0  0  0  2  0  0  0  0  0  0
  160.7950  203.8210  152.5680 O   0  0  0  0  0  0  0  0  0  0  0  0
  161.1700  202.8170  146.6870 C   0  0  0  0  0  1  0  0  0  0  0  0
  161.1490  205.7910  151.2050 C   0  0  0  0  0  0  0  0  0  0  0  0
  161.1010  203.9170  148.9980 C   0  0  0  0  0  0  0  0  0  0  0  0
  162.4660  210.5940  157.2150 C   0  0  0  0  0  2  0  0  0  0  0  0
  163.8460  210.9100  156.6670 C   0  0  1  0  0  3  0  0  0  0  0  0
  163.7900  211.0280  155.2780 O   0  0  0  0  0  1  0  0  0  0  0  0
  164.3320  212.2150  157.2610 C   0  0  0  0  0  1  0  0  0  0  0  0
  1 16  1  6  0  0  0
  2 24  1  0  0  0  0
  3 11  1  0  0  0  0
  4 21  1  0  0  0  0
  4  3  1  0  0  0  0
  5 25  2  0  0  0  0
  6 18  1  0  0  0  0
  6  5  1  0  0  0  0
  7 24  1  6  0  0  0
  7 19  1  0  0  0  0
  8 17  1  0  0  0  0
  9 15  2  0  0  0  0
  9 28  1  0  0  0  0
 10 20  1  0  0  0  0
 10  1  1  0  0  0  0
 11 13  1  0  0  0  0
 12  2  1  0  0  0  0
 12  8  1  0  0  0  0
 13 12  2  0  0  0  0
 14 27  1  0  0  0  0
 15 18  1  0  0  0  0
 17  7  1  0  0  0  0
 17 10  1  0  0  0  0
 19 16  1  0  0  0  0
 20  1  1  0  0  0  0
 20 29  1  0  0  0  0
 21 22  1  0  0  0  0
 22 14  2  0  0  0  0
 22 13  1  0  0  0  0
 23 28  1  0  0  0  0
 23 14  1  0  0  0  0
 26  9  1  0  0  0  0
 27  5  1  0  0  0  0
 27  2  2  0  0  0  0
 28  6  2  0  0  0  0
 30 29  1  0  0  0  0
 30 32  1  0  0  0  0
 31 30  1  0  0  0  0
M  END
>  <MODEL>
1

>  <REMARK>
 VINA RESULT:     -10.0      0.000      0.000
  Name = 
  2 active torsions:
  status: ('A' for Active; 'I' for Inactive)
    1  A    between atoms: C_20  and  C_29
    2  A    between atoms: C_29  and  C_30
                            x       y       z     vdW  Elec       q    Type
                         _______ _______ _______ _____ _____    ______ ____

>  <TORSDO>
F 2

$$$$
=
 OpenBabel11122412533D

 32 38  0  0  1  0  0  0  0  0999 V2000
  161.2560  201.5040  149.1910 C   0  0  1  0  0  3  0  0  0  0  0  0
  161.1550  206.1360  151.7530 C   0  0  0  0  0  0  0  0  0  0  0  0
  161.4650  209.4410  148.2620 O   0  0  0  0  0  0  0  0  0  0  0  0
  162.2760  210.2880  149.0350 C   0  0  0  0  0  2  0  0  0  0  0  0
  160.9390  206.8930  154.1840 C   0  0  0  0  0  0  0  0  0  0  0  0
  161.0420  208.0000  155.1270 C   0  0  0  0  0  0  0  0  0  0  0  0
  160.5700  203.7740  151.0540 C   0  0  1  0  0  3  0  0  0  0  0  0
  161.2880  205.3870  149.3120 C   0  0  0  0  0  2  0  0  0  0  0  0
  161.3040  210.0400  155.8570 C   0  0  0  0  0  0  0  0  0  0  0  0
  161.3260  202.9530  148.7060 C   0  0  2  0  0  3  0  0  0  0  0  0
  161.8770  208.1290  148.5560 C   0  0  0  0  0  2  0  0  0  0  0  0
  161.3790  206.4480  150.3870 C   0  0  0  0  0  0  0  0  0  0  0  0
  161.5880  207.7780  149.9980 C   0  0  0  0  0  0  0  0  0  0  0  0
  161.4090  208.5180  152.3140 C   0  0  0  0  0  0  0  0  0  0  0  0
  161.0750  209.1860  156.9230 C   0  0  0  0  0  3  0  0  0  0  0  0
  161.3630  201.3540  150.7240 C   0  0  0  0  0  2  0  0  0  0  0  0
  161.4890  203.9790  149.8470 C   0  0  2  0  0  3  0  0  0  0  0  0
  160.9120  207.9210  156.4660 N   0  0  0  0  0  2  0  0  0  0  0  0
  160.5100  202.3260  151.5490 C   0  0  0  0  0  2  0  0  0  0  0  0
  159.9930  202.2130  148.7180 C   0  0  1  0  0  3  0  0  0  0  0  0
  161.8250  210.2330  150.4940 C   0  0  0  0  0  2  0  0  0  0  0  0
  161.6270  208.8050  150.9550 C   0  0  0  0  0  0  0  0  0  0  0  0
  161.4300  209.6870  153.2930 C   0  0  0  0  0  2  0  0  0  0  0  0
  161.0310  204.6880  152.1760 C   0  0  0  0  0  2  0  0  0  0  0  0
  160.6520  205.7450  154.6160 O   0  0  0  0  0  0  0  0  0  0  0  0
  161.5160  211.5100  155.9400 C   0  0  0  0  0  1  0  0  0  0  0  0
  161.1670  207.1720  152.7290 C   0  0  0  0  0  0  0  0  0  0  0  0
  161.2840  209.2720  154.7190 C   0  0  0  0  0  0  0  0  0  0  0  0
  159.6640  201.7600  147.3080 C   0  0  0  0  0  2  0  0  0  0  0  0
  160.9260  201.7040  146.4660 C   0  0  1  0  0  3  0  0  0  0  0  0
  161.1240  200.4060  145.9940 O   0  0  0  0  0  1  0  0  0  0  0  0
  160.7870  202.6490  145.2920 C   0  0  0  0  0  1  0  0  0  0  0  0
  1 16  1  1  0  0  0
  2 24  1  0  0  0  0
  2 27  1  0  0  0  0
  3 11  1  0  0  0  0
  3  4  1  0  0  0  0
  4 21  1  0  0  0  0
  5 25  2  0  0  0  0
  5  6  1  0  0  0  0
  6 18  1  0  0  0  0
  7 19  1  1  0  0  0
  7 24  1  0  0  0  0
  8 17  1  0  0  0  0
  8 12  1  0  0  0  0
  9 26  1  0  0  0  0
  9 15  2  0  0  0  0
 10 20  1  0  0  0  0
 10  1  1  0  0  0  0
 10 17  1  0  0  0  0
 11 13  1  0  0  0  0
 12  2  2  0  0  0  0
 13 12  1  0  0  0  0
 13 22  2  0  0  0  0
 14 27  2  0  0  0  0
 14 23  1  0  0  0  0
 16 19  1  0  0  0  0
 17  7  1  0  0  0  0
 18 15  1  0  0  0  0
 20  1  1  0  0  0  0
 21 22  1  0  0  0  0
 22 14  1  0  0  0  0
 23 28  1  0  0  0  0
 27  5  1  0  0  0  0
 28  6  2  0  0  0  0
 28  9  1  0  0  0  0
 29 20  1  0  0  0  0
 30 29  1  0  0  0  0
 31 30  1  0  0  0  0
 32 30  1  0  0  0  0
M  END
>  <MODEL>
2

>  <REMARK>
 VINA RESULT:      -9.7      2.275      8.033
  Name = 
  2 active torsions:
  status: ('A' for Active; 'I' for Inactive)
    1  A    between atoms: C_20  and  C_29
    2  A    between atoms: C_29  and  C_30
                            x       y       z     vdW  Elec       q    Type
                         _______ _______ _______ _____ _____    ______ ____

>  <TORSDO>
F 2

$$$$
=
 OpenBabel11122412533D

 32 38  0  0  1  0  0  0  0  0999 V2000
  160.1540  208.3870  156.5160 C   0  0  1  0  0  3  0  0  0  0  0  0
  161.2490  207.0300  151.5180 C   0  0  0  0  0  0  0  0  0  0  0  0
  162.7180  211.1290  149.4590 O   0  0  0  0  0  0  0  0  0  0  0  0
  162.0910  210.8270  148.2400 C   0  0  0  0  0  2  0  0  0  0  0  0
  161.2190  204.8750  150.1440 C   0  0  0  0  0  0  0  0  0  0  0  0
  161.2980  204.2770  148.8170 C   0  0  0  0  0  0  0  0  0  0  0  0
  161.1610  206.9770  154.0480 C   0  0  1  0  0  3  0  0  0  0  0  0
  161.3610  209.1720  152.9080 C   0  0  0  0  0  2  0  0  0  0  0  0
  161.5750  204.1360  146.6570 C   0  0  0  0  0  0  0  0  0  0  0  0
  160.6550  209.1900  155.3150 C   0  0  2  0  0  3  0  0  0  0  0  0
  161.8540  210.6690  150.4690 C   0  0  0  0  0  2  0  0  0  0  0  0
  161.4100  208.4370  151.5860 C   0  0  0  0  0  0  0  0  0  0  0  0
  161.7250  209.1630  150.4300 C   0  0  0  0  0  0  0  0  0  0  0  0
  161.6770  207.1220  149.0960 C   0  0  0  0  0  0  0  0  0  0  0  0
  161.3010  202.8820  147.1770 C   0  0  0  0  0  3  0  0  0  0  0  0
  159.7060  206.9520  156.1640 C   0  0  0  0  0  2  0  0  0  0  0  0
  160.6130  208.4060  153.9870 C   0  0  2  0  0  3  0  0  0  0  0  0
  161.1310  202.9730  148.5180 N   0  0  0  0  0  2  0  0  0  0  0  0
  160.6490  206.1670  155.2420 C   0  0  0  0  0  2  0  0  0  0  0  0
  161.6460  208.6390  156.3350 C   0  0  1  0  0  3  0  0  0  0  0  0
  162.2060  209.3280  147.9650 C   0  0  0  0  0  2  0  0  0  0  0  0
  161.8350  208.5160  149.1870 C   0  0  0  0  0  0  0  0  0  0  0  0
  161.8450  206.4820  147.7230 C   0  0  0  0  0  2  0  0  0  0  0  0
  160.8110  206.2680  152.7510 C   0  0  0  0  0  2  0  0  0  0  0  0
  161.0270  204.1280  151.1410 O   0  0  0  0  0  0  0  0  0  0  0  0
  161.8390  204.4540  145.2280 C   0  0  0  0  0  1  0  0  0  0  0  0
  161.3830  206.3600  150.2700 C   0  0  0  0  0  0  0  0  0  0  0  0
  161.5670  205.0170  147.7100 C   0  0  0  0  0  0  0  0  0  0  0  0
  162.0790  209.7590  157.2610 C   0  0  0  0  0  2  0  0  0  0  0  0
  162.5660  210.9490  156.4540 C   0  0  1  0  0  3  0  0  0  0  0  0
  161.6590  212.0040  156.5690 O   0  0  0  0  0  1  0  0  0  0  0  0
  163.9160  211.3900  156.9780 C   0  0  0  0  0  1  0  0  0  0  0  0
  1 16  1  6  0  0  0
  2 12  1  0  0  0  0
  2 24  1  0  0  0  0
  3 11  1  0  0  0  0
  4  3  1  0  0  0  0
  5 27  1  0  0  0  0
  5 25  2  0  0  0  0
  6  5  1  0  0  0  0
  7 24  1  6  0  0  0
  7 19  1  0  0  0  0
  8 17  1  0  0  0  0
  9 15  2  0  0  0  0
  9 28  1  0  0  0  0
 10 20  1  0  0  0  0
 10  1  1  0  0  0  0
 12  8  1  0  0  0  0
 13 11  1  0  0  0  0
 13 12  2  0  0  0  0
 14 22  2  0  0  0  0
 14 27  1  0  0  0  0
 15 18  1  0  0  0  0
 17  7  1  0  0  0  0
 17 10  1  0  0  0  0
 18  6  1  0  0  0  0
 19 16  1  0  0  0  0
 20  1  1  0  0  0  0
 20 29  1  0  0  0  0
 21  4  1  0  0  0  0
 21 22  1  0  0  0  0
 22 13  1  0  0  0  0
 23 14  1  0  0  0  0
 26  9  1  0  0  0  0
 27  2  2  0  0  0  0
 28 23  1  0  0  0  0
 28  6  2  0  0  0  0
 30 31  1  0  0  0  0
 30 32  1  0  0  0  0
 30 29  1  0  0  0  0
M  END
>  <MODEL>
3

>  <REMARK>
 VINA RESULT:      -9.1      1.114      1.336
  Name = 
  2 active torsions:
  status: ('A' for Active; 'I' for Inactive)
    1  A    between atoms: C_20  and  C_29
    2  A    between atoms: C_29  and  C_30
                            x       y       z     vdW  Elec       q    Type
                         _______ _______ _______ _____ _____    ______ ____

>  <TORSDO>
F 2

$$$$
=
 OpenBabel11122412533D

 32 38  0  0  1  0  0  0  0  0999 V2000
  161.6120  210.1150  154.6230 C   0  0  1  0  0  3  0  0  0  0  0  0
  161.1230  206.7230  150.5880 C   0  0  0  0  0  0  0  0  0  0  0  0
  160.3500  202.4610  152.6950 O   0  0  0  0  0  0  0  0  0  0  0  0
  161.1150  201.7690  151.7420 C   0  0  0  0  0  2  0  0  0  0  0  0
  161.1500  206.8770  148.0370 C   0  0  0  0  0  0  0  0  0  0  0  0
  161.2070  206.1490  146.7750 C   0  0  0  0  0  0  0  0  0  0  0  0
  160.8430  208.7880  152.0260 C   0  0  1  0  0  3  0  0  0  0  0  0
  161.0120  206.5760  153.1380 C   0  0  0  0  0  2  0  0  0  0  0  0
  161.2300  204.4590  145.3940 C   0  0  0  0  0  0  0  0  0  0  0  0
  161.3650  208.6070  154.5660 C   0  0  2  0  0  3  0  0  0  0  0  0
  161.0140  203.6800  152.9190 C   0  0  0  0  0  2  0  0  0  0  0  0
  161.0850  205.9370  151.7670 C   0  0  0  0  0  0  0  0  0  0  0  0
  161.0080  204.5410  151.6770 C   0  0  0  0  0  0  0  0  0  0  0  0
  161.0560  204.6640  149.2420 C   0  0  0  0  0  0  0  0  0  0  0  0
  161.3100  205.6460  144.6840 C   0  0  0  0  0  3  0  0  0  0  0  0
  161.9700  210.7390  153.2560 C   0  0  0  0  0  2  0  0  0  0  0  0
  161.5240  208.0070  153.1550 C   0  0  2  0  0  3  0  0  0  0  0  0
  161.2940  206.6920  145.5440 N   0  0  0  0  0  0  0  0  0  0  0  0
  161.1010  210.2960  152.0730 C   0  0  0  0  0  2  0  0  0  0  0  0
  160.1910  209.5700  154.7080 C   0  0  1  0  0  3  0  0  0  0  0  0
  160.9020  202.3960  150.3640 C   0  0  0  0  0  2  0  0  0  0  0  0
  161.0170  203.9040  150.4240 C   0  0  0  0  0  0  0  0  0  0  0  0
  161.0290  203.9080  147.9180 C   0  0  0  0  0  3  0  0  0  0  0  0
  161.3080  208.2220  150.6950 C   0  0  0  0  0  2  0  0  0  0  0  0
  161.1270  208.1360  148.0170 O   0  0  0  0  0  0  0  0  0  0  0  0
  161.2040  203.0900  144.8140 C   0  0  0  0  0  1  0  0  0  0  0  0
  161.1080  206.0910  149.3130 C   0  0  0  0  0  0  0  0  0  0  0  0
  161.1690  204.7930  146.7250 C   0  0  0  0  0  0  0  0  0  0  0  0
  159.7360  209.5880  156.1540 C   0  0  0  0  0  2  0  0  0  0  0  0
  158.8300  210.7810  156.4050 C   0  0  1  0  0  3  0  0  0  0  0  0
  159.5860  211.8640  156.8560 O   0  0  0  0  0  1  0  0  0  0  0  0
  158.1310  211.1590  155.1170 C   0  0  0  0  0  1  0  0  0  0  0  0
  1 16  1  6  0  0  0
  1 20  1  0  0  0  0
  2 24  1  0  0  0  0
  2 12  1  0  0  0  0
  3 11  1  0  0  0  0
  4  3  1  0  0  0  0
  5 27  1  0  0  0  0
  6  5  1  0  0  0  0
  7 24  1  6  0  0  0
  7 19  1  0  0  0  0
  7 17  1  0  0  0  0
  8 17  1  0  0  0  0
  9 28  1  0  0  0  0
 10  1  1  0  0  0  0
 10 20  1  0  0  0  0
 12  8  1  0  0  0  0
 13 12  2  0  0  0  0
 13 11  1  0  0  0  0
 14 27  1  0  0  0  0
 14 22  2  0  0  0  0
 15  9  2  0  0  0  0
 15 18  1  0  0  0  0
 17 10  1  0  0  0  0
 18  6  2  0  0  0  0
 19 16  1  0  0  0  0
 20 29  1  0  0  0  0
 21 22  1  0  0  0  0
 21  4  1  0  0  0  0
 22 13  1  0  0  0  0
 23 14  1  0  0  0  0
 25  5  2  0  0  0  0
 26  9  1  0  0  0  0
 27  2  2  0  0  0  0
 28  6  1  0  0  0  0
 28 23  2  0  0  0  0
 29 30  1  0  0  0  0
 30 31  1  0  0  0  0
 32 30  1  0  0  0  0
M  END
>  <MODEL>
4

>  <REMARK>
 VINA RESULT:      -8.6      2.224      4.562
  Name = 
  2 active torsions:
  status: ('A' for Active; 'I' for Inactive)
    1  A    between atoms: C_20  and  C_29
    2  A    between atoms: C_29  and  C_30
                            x       y       z     vdW  Elec       q    Type
                         _______ _______ _______ _____ _____    ______ ____

>  <TORSDO>
F 2

$$$$
=
 OpenBabel11122412533D

 32 38  0  0  1  0  0  0  0  0999 V2000
  161.8520  202.7630  146.9550 C   0  0  1  0  0  3  0  0  0  0  0  0
  161.2790  206.4460  150.7140 C   0  0  0  0  0  0  0  0  0  0  0  0
  161.8280  210.6270  148.3860 O   0  0  0  0  0  0  0  0  0  0  0  0
  162.5140  211.2180  149.4590 C   0  0  0  0  0  2  0  0  0  0  0  0
  160.7690  206.4600  153.2180 C   0  0  0  0  0  0  0  0  0  0  0  0
  160.7220  207.2450  154.4450 C   0  0  0  0  0  0  0  0  0  0  0  0
  160.8720  204.3850  149.3010 C   0  0  1  0  0  3  0  0  0  0  0  0
  161.7070  206.4420  148.1940 C   0  0  0  0  0  2  0  0  0  0  0  0
  160.8170  208.9860  155.7580 C   0  0  0  0  0  0  0  0  0  0  0  0
  161.9120  204.2900  146.9200 C   0  0  2  0  0  3  0  0  0  0  0  0
  162.2600  209.2900  148.3340 C   0  0  0  0  0  2  0  0  0  0  0  0
  161.6370  207.1440  149.5330 C   0  0  0  0  0  0  0  0  0  0  0  0
  161.8310  208.5310  149.5700 C   0  0  0  0  0  0  0  0  0  0  0  0
  161.3710  208.5630  151.9650 C   0  0  0  0  0  0  0  0  0  0  0  0
  160.5100  207.8560  156.4990 C   0  0  0  0  0  3  0  0  0  0  0  0
  161.7970  202.1730  148.3810 C   0  0  0  0  0  2  0  0  0  0  0  0
  161.9080  204.9410  148.3190 C   0  0  2  0  0  3  0  0  0  0  0  0
  160.4500  206.7780  155.6810 N   0  0  0  0  0  2  0  0  0  0  0  0
  160.8200  202.8550  149.3470 C   0  0  0  0  0  2  0  0  0  0  0  0
  160.6180  203.5680  146.5630 C   0  0  1  0  0  3  0  0  0  0  0  0
  161.9100  210.7380  150.7780 C   0  0  0  0  0  2  0  0  0  0  0  0
  161.7230  209.2360  150.7810 C   0  0  0  0  0  0  0  0  0  0  0  0
  161.2370  209.3960  153.2340 C   0  0  0  0  0  2  0  0  0  0  0  0
  161.1700  204.9360  150.6850 C   0  0  0  0  0  2  0  0  0  0  0  0
  160.4840  205.2330  153.2650 O   0  0  0  0  0  0  0  0  0  0  0  0
  160.9580  210.3690  156.2860 C   0  0  0  0  0  1  0  0  0  0  0  0
  161.1410  207.1530  151.9420 C   0  0  0  0  0  0  0  0  0  0  0  0
  160.9530  208.5830  154.4530 C   0  0  0  0  0  0  0  0  0  0  0  0
  160.4640  203.5430  145.0550 C   0  0  0  0  0  2  0  0  0  0  0  0
  160.2620  204.9510  144.5240 C   0  0  1  0  0  3  0  0  0  0  0  0
  159.7960  205.7810  145.5450 O   0  0  0  0  0  1  0  0  0  0  0  0
  161.5800  205.4850  144.0060 C   0  0  0  0  0  1  0  0  0  0  0  0
  1 16  1  1  0  0  0
  2 27  1  0  0  0  0
  3  4  1  0  0  0  0
  4 21  1  0  0  0  0
  5 25  2  0  0  0  0
  5  6  1  0  0  0  0
  6 28  2  0  0  0  0
  6 18  1  0  0  0  0
  7 19  1  1  0  0  0
  7 24  1  0  0  0  0
  8 17  1  0  0  0  0
  8 12  1  0  0  0  0
  9 26  1  0  0  0  0
  9 15  2  0  0  0  0
 10  1  1  0  0  0  0
 10 17  1  0  0  0  0
 11  3  1  0  0  0  0
 11 13  1  0  0  0  0
 12 13  1  0  0  0  0
 12  2  2  0  0  0  0
 13 22  2  0  0  0  0
 14 23  1  0  0  0  0
 16 19  1  0  0  0  0
 17  7  1  0  0  0  0
 18 15  1  0  0  0  0
 20 10  1  0  0  0  0
 20  1  1  0  0  0  0
 21 22  1  0  0  0  0
 22 14  1  0  0  0  0
 23 28  1  0  0  0  0
 24  2  1  0  0  0  0
 27 14  2  0  0  0  0
 27  5  1  0  0  0  0
 28  9  1  0  0  0  0
 29 20  1  0  0  0  0
 30 29  1  0  0  0  0
 30 31  1  0  0  0  0
 32 30  1  0  0  0  0
M  END
>  <MODEL>
5

>  <REMARK>
 VINA RESULT:      -8.4      2.163      7.946
  Name = 
  2 active torsions:
  status: ('A' for Active; 'I' for Inactive)
    1  A    between atoms: C_20  and  C_29
    2  A    between atoms: C_29  and  C_30
                            x       y       z     vdW  Elec       q    Type
                         _______ _______ _______ _____ _____    ______ ____

>  <TORSDO>
F 2

$$$$
=
 OpenBabel11122412533D

 32 38  0  0  1  0  0  0  0  0999 V2000
  162.1800  212.9990  148.9990 C   0  0  1  0  0  3  0  0  0  0  0  0
  161.4170  207.7720  149.3470 C   0  0  0  0  0  0  0  0  0  0  0  0
  160.6100  206.9900  154.0310 O   0  0  0  0  0  0  0  0  0  0  0  0
  161.3120  205.7740  154.0240 C   0  0  0  0  0  2  0  0  0  0  0  0
  161.3380  205.8080  147.7140 C   0  0  0  0  0  0  0  0  0  0  0  0
  161.3190  204.3590  147.5540 C   0  0  0  0  0  0  0  0  0  0  0  0
  161.2600  210.1650  148.5340 C   0  0  1  0  0  3  0  0  0  0  0  0
  161.4120  209.7430  150.9750 C   0  0  0  0  0  2  0  0  0  0  0  0
  161.2320  202.2470  148.0990 C   0  0  0  0  0  0  0  0  0  0  0  0
  161.8870  212.0760  150.1820 C   0  0  2  0  0  3  0  0  0  0  0  0
  161.3190  207.8560  153.1810 C   0  0  0  0  0  2  0  0  0  0  0  0
  161.4070  208.2590  150.6790 C   0  0  0  0  0  0  0  0  0  0  0  0
  161.2850  207.3650  151.7510 C   0  0  0  0  0  0  0  0  0  0  0  0
  161.2310  205.4750  150.2110 C   0  0  0  0  0  0  0  0  0  0  0  0
  161.3160  202.3730  146.7220 C   0  0  0  0  0  3  0  0  0  0  0  0
  162.4980  212.2490  147.6870 C   0  0  0  0  0  2  0  0  0  0  0  0
  161.9660  210.5760  149.8300 C   0  0  2  0  0  3  0  0  0  0  0  0
  161.3680  203.6850  146.3870 N   0  0  0  0  0  0  0  0  0  0  0  0
  161.5650  211.0800  147.3460 C   0  0  0  0  0  2  0  0  0  0  0  0
  160.7490  212.8200  149.4910 C   0  0  1  0  0  3  0  0  0  0  0  0
  161.0590  205.0470  152.7030 C   0  0  0  0  0  2  0  0  0  0  0  0
  161.2210  205.9800  151.5230 C   0  0  0  0  0  0  0  0  0  0  0  0
  161.1240  203.9640  150.0370 C   0  0  0  0  0  3  0  0  0  0  0  0
  161.6510  208.7340  148.2020 C   0  0  0  0  0  2  0  0  0  0  0  0
  161.3510  206.5370  146.6860 O   0  0  0  0  0  0  0  0  0  0  0  0
  161.1400  200.9730  148.8590 C   0  0  0  0  0  1  0  0  0  0  0  0
  161.3280  206.3730  149.1020 C   0  0  0  0  0  0  0  0  0  0  0  0
  161.2380  203.5190  148.6170 C   0  0  0  0  0  0  0  0  0  0  0  0
  160.3580  214.0190  150.3330 C   0  0  0  0  0  2  0  0  0  0  0  0
  158.8880  213.9420  150.7050 C   0  0  1  0  0  3  0  0  0  0  0  0
  158.1350  213.5660  149.5910 O   0  0  0  0  0  1  0  0  0  0  0  0
  158.7020  212.9180  151.8030 C   0  0  0  0  0  1  0  0  0  0  0  0
  1 16  1  6  0  0  0
  1 20  1  0  0  0  0
  1 10  1  0  0  0  0
  2 12  1  0  0  0  0
  4  3  1  0  0  0  0
  5 27  1  0  0  0  0
  6  5  1  0  0  0  0
  6 28  1  0  0  0  0
  7 19  1  6  0  0  0
  7 17  1  0  0  0  0
  9 28  1  0  0  0  0
  9 26  1  0  0  0  0
 11  3  1  0  0  0  0
 12  8  1  0  0  0  0
 12 13  2  0  0  0  0
 13 11  1  0  0  0  0
 14 22  2  0  0  0  0
 15  9  2  0  0  0  0
 17 10  1  0  0  0  0
 17  8  1  0  0  0  0
 18 15  1  0  0  0  0
 18  6  2  0  0  0  0
 19 16  1  0  0  0  0
 20 10  1  0  0  0  0
 20 29  1  0  0  0  0
 21  4  1  0  0  0  0
 22 13  1  0  0  0  0
 22 21  1  0  0  0  0
 23 14  1  0  0  0  0
 24  7  1  0  0  0  0
 24  2  1  0  0  0  0
 25  5  2  0  0  0  0
 27  2  2  0  0  0  0
 27 14  1  0  0  0  0
 28 23  2  0  0  0  0
 29 30  1  0  0  0  0
 30 32  1  0  0  0  0
 31 30  1  0  0  0  0
M  END
>  <MODEL>
6

>  <REMARK>
 VINA RESULT:      -7.9      2.815      5.669
  Name = 
  2 active torsions:
  status: ('A' for Active; 'I' for Inactive)
    1  A    between atoms: C_20  and  C_29
    2  A    between atoms: C_29  and  C_30
                            x       y       z     vdW  Elec       q    Type
                         _______ _______ _______ _____ _____    ______ ____

>  <TORSDO>
F 2

$$$$
=
 OpenBabel11122412533D

 32 38  0  0  1  0  0  0  0  0999 V2000
  162.0190  210.3240  153.7760 C   0  0  1  0  0  3  0  0  0  0  0  0
  161.2450  206.5300  150.1660 C   0  0  0  0  0  0  0  0  0  0  0  0
  160.3630  202.5700  152.7630 O   0  0  0  0  0  0  0  0  0  0  0  0
  161.0630  201.7410  151.8720 C   0  0  0  0  0  2  0  0  0  0  0  0
  161.1910  206.3970  147.6140 C   0  0  0  0  0  0  0  0  0  0  0  0
  161.1720  205.5310  146.4420 C   0  0  0  0  0  0  0  0  0  0  0  0
  161.1040  208.7530  151.3690 C   0  0  1  0  0  3  0  0  0  0  0  0
  161.2160  206.6730  152.7180 C   0  0  0  0  0  2  0  0  0  0  0  0
  161.0750  203.6980  145.2600 C   0  0  0  0  0  0  0  0  0  0  0  0
  161.7050  208.8330  153.8970 C   0  0  2  0  0  3  0  0  0  0  0  0
  161.0860  203.7740  152.8290 C   0  0  0  0  0  2  0  0  0  0  0  0
  161.2140  205.8830  151.4270 C   0  0  0  0  0  0  0  0  0  0  0  0
  161.0740  204.4900  151.4970 C   0  0  0  0  0  0  0  0  0  0  0  0
  161.0440  204.3390  149.0640 C   0  0  0  0  0  0  0  0  0  0  0  0
  161.1810  204.7940  144.4190 C   0  0  0  0  0  3  0  0  0  0  0  0
  162.3560  210.7740  152.3380 C   0  0  0  0  0  2  0  0  0  0  0  0
  161.7890  208.0720  152.5580 C   0  0  2  0  0  3  0  0  0  0  0  0
  161.2400  205.9290  145.1550 N   0  0  0  0  0  0  0  0  0  0  0  0
  161.4280  210.2430  151.2380 C   0  0  0  0  0  2  0  0  0  0  0  0
  160.5800  209.8590  153.9640 C   0  0  1  0  0  3  0  0  0  0  0  0
  160.8310  202.2200  150.4390 C   0  0  0  0  0  2  0  0  0  0  0  0
  161.0130  203.7180  150.3250 C   0  0  0  0  0  0  0  0  0  0  0  0
  160.9370  203.4420  147.8350 C   0  0  0  0  0  3  0  0  0  0  0  0
  161.4980  208.0210  150.0980 C   0  0  0  0  0  2  0  0  0  0  0  0
  161.2210  207.6460  147.4530 O   0  0  0  0  0  0  0  0  0  0  0  0
  160.9700  202.2760  144.8390 C   0  0  0  0  0  1  0  0  0  0  0  0
  161.1580  205.7610  148.9710 C   0  0  0  0  0  0  0  0  0  0  0  0
  161.0740  204.1810  146.5460 C   0  0  0  0  0  0  0  0  0  0  0  0
  160.1760  210.0600  155.4110 C   0  0  0  0  0  2  0  0  0  0  0  0
  161.0710  209.2430  156.3250 C   0  0  1  0  0  3  0  0  0  0  0  0
  161.6840  210.0790  157.2600 O   0  0  0  0  0  1  0  0  0  0  0  0
  160.2370  208.2080  157.0500 C   0  0  0  0  0  1  0  0  0  0  0  0
  1 16  1  6  0  0  0
  1 10  1  0  0  0  0
  1 20  1  0  0  0  0
  2 12  1  0  0  0  0
  3 11  1  0  0  0  0
  4  3  1  0  0  0  0
  5 27  1  0  0  0  0
  6 28  1  0  0  0  0
  6  5  1  0  0  0  0
  7 24  1  6  0  0  0
  7 17  1  0  0  0  0
  9 28  1  0  0  0  0
 10 20  1  0  0  0  0
 12 13  2  0  0  0  0
 12  8  1  0  0  0  0
 13 11  1  0  0  0  0
 14 22  2  0  0  0  0
 15 18  1  0  0  0  0
 15  9  2  0  0  0  0
 17  8  1  0  0  0  0
 17 10  1  0  0  0  0
 18  6  2  0  0  0  0
 19  7  1  0  0  0  0
 19 16  1  0  0  0  0
 20 29  1  0  0  0  0
 21  4  1  0  0  0  0
 22 21  1  0  0  0  0
 22 13  1  0  0  0  0
 23 14  1  0  0  0  0
 24  2  1  0  0  0  0
 25  5  2  0  0  0  0
 26  9  1  0  0  0  0
 27 14  1  0  0  0  0
 27  2  2  0  0  0  0
 28 23  2  0  0  0  0
 29 30  1  0  0  0  0
 30 32  1  0  0  0  0
 30 31  1  0  0  0  0
M  END
>  <MODEL>
7

>  <REMARK>
 VINA RESULT:      -7.7      2.016      4.567
  Name = 
  2 active torsions:
  status: ('A' for Active; 'I' for Inactive)
    1  A    between atoms: C_20  and  C_29
    2  A    between atoms: C_29  and  C_30
                            x       y       z     vdW  Elec       q    Type
                         _______ _______ _______ _____ _____    ______ ____

>  <TORSDO>
F 2

$$$$
=
 OpenBabel11122412533D

 32 38  0  0  1  0  0  0  0  0999 V2000
  161.9350  202.3460  149.1280 C   0  0  1  0  0  3  0  0  0  0  0  0
  161.1260  206.9110  151.6850 C   0  0  0  0  0  0  0  0  0  0  0  0
  161.6510  210.2910  148.2940 O   0  0  0  0  0  0  0  0  0  0  0  0
  162.2810  211.1830  149.1770 C   0  0  0  0  0  2  0  0  0  0  0  0
  160.5230  207.6060  154.0690 C   0  0  0  0  0  0  0  0  0  0  0  0
  160.4100  208.7000  155.0250 C   0  0  0  0  0  0  0  0  0  0  0  0
  160.8260  204.5230  150.8960 C   0  0  1  0  0  3  0  0  0  0  0  0
  161.6480  206.2180  149.2800 C   0  0  0  0  0  2  0  0  0  0  0  0
  160.4100  210.7410  155.7990 C   0  0  0  0  0  0  0  0  0  0  0  0
  161.9560  203.8040  148.6680 C   0  0  2  0  0  3  0  0  0  0  0  0
  162.1190  209.0090  148.6320 C   0  0  0  0  0  2  0  0  0  0  0  0
  161.5090  207.2630  150.3660 C   0  0  0  0  0  0  0  0  0  0  0  0
  161.6650  208.6120  150.0180 C   0  0  0  0  0  0  0  0  0  0  0  0
  161.1150  209.2950  152.2940 C   0  0  0  0  0  0  0  0  0  0  0  0
  160.1050  209.8530  156.8180 C   0  0  0  0  0  3  0  0  0  0  0  0
  161.8430  202.1770  150.6600 C   0  0  0  0  0  2  0  0  0  0  0  0
  161.8830  204.8190  149.8280 C   0  0  2  0  0  3  0  0  0  0  0  0
  160.1050  208.5880  156.3340 N   0  0  0  0  0  2  0  0  0  0  0  0
  160.8130  203.0670  151.3680 C   0  0  0  0  0  2  0  0  0  0  0  0
  160.6960  202.9650  148.4910 C   0  0  1  0  0  3  0  0  0  0  0  0
  161.6400  211.0690  150.5600 C   0  0  0  0  0  2  0  0  0  0  0  0
  161.4930  209.6220  150.9800 C   0  0  0  0  0  0  0  0  0  0  0  0
  160.9120  210.4440  153.2750 C   0  0  0  0  0  2  0  0  0  0  0  0
  161.0580  205.4500  152.0780 C   0  0  0  0  0  2  0  0  0  0  0  0
  160.2690  206.4310  154.4500 O   0  0  0  0  0  0  0  0  0  0  0  0
  160.4940  212.2210  155.9220 C   0  0  0  0  0  1  0  0  0  0  0  0
  160.9240  207.9270  152.6610 C   0  0  0  0  0  0  0  0  0  0  0  0
  160.6050  209.9940  154.6640 C   0  0  0  0  0  0  0  0  0  0  0  0
  160.5990  202.5140  147.0470 C   0  0  0  0  0  2  0  0  0  0  0  0
  160.8840  203.6770  146.1130 C   0  0  1  0  0  3  0  0  0  0  0  0
  162.2420  203.7070  145.7940 O   0  0  0  0  0  1  0  0  0  0  0  0
  160.0750  203.5090  144.8450 C   0  0  0  0  0  1  0  0  0  0  0  0
  1 16  1  1  0  0  0
  2 24  1  0  0  0  0
  2 27  1  0  0  0  0
  3 11  1  0  0  0  0
  3  4  1  0  0  0  0
  4 21  1  0  0  0  0
  5 25  2  0  0  0  0
  5  6  1  0  0  0  0
  6 18  1  0  0  0  0
  7 19  1  1  0  0  0
  7 24  1  0  0  0  0
  8 17  1  0  0  0  0
  8 12  1  0  0  0  0
  9 26  1  0  0  0  0
  9 15  2  0  0  0  0
 10  1  1  0  0  0  0
 10 17  1  0  0  0  0
 11 13  1  0  0  0  0
 12  2  2  0  0  0  0
 13 12  1  0  0  0  0
 13 22  2  0  0  0  0
 14 27  2  0  0  0  0
 14 23  1  0  0  0  0
 16 19  1  0  0  0  0
 17  7  1  0  0  0  0
 18 15  1  0  0  0  0
 20 10  1  0  0  0  0
 20  1  1  0  0  0  0
 21 22  1  0  0  0  0
 22 14  1  0  0  0  0
 23 28  1  0  0  0  0
 27  5  1  0  0  0  0
 28  6  2  0  0  0  0
 28  9  1  0  0  0  0
 29 20  1  0  0  0  0
 30 29  1  0  0  0  0
 31 30  1  0  0  0  0
 32 30  1  0  0  0  0
M  END
>  <MODEL>
8

>  <REMARK>
 VINA RESULT:      -7.2      2.452      7.883
  Name = 
  2 active torsions:
  status: ('A' for Active; 'I' for Inactive)
    1  A    between atoms: C_20  and  C_29
    2  A    between atoms: C_29  and  C_30
                            x       y       z     vdW  Elec       q    Type
                         _______ _______ _______ _____ _____    ______ ____

>  <TORSDO>
F 2

$$$$
