=
 OpenBabel11122413283D

 31 35  0  0  1  0  0  0  0  0999 V2000
  160.7610  208.4200  138.0090 C   0  0  0  0  0  0  0  0  0  0  0  0
  159.5980  211.9850  138.6710 C   0  0  2  0  0  3  0  0  0  0  0  0
  158.1240  211.9430  139.0290 C   0  0  0  0  0  0  0  0  0  0  0  0
  155.9930  210.8150  139.1950 C   0  0  0  0  0  0  0  0  0  0  0  0
  160.3180  210.6640  138.8200 C   0  0  0  0  0  0  0  0  0  0  0  0
  161.6710  208.2190  139.0490 C   0  0  0  0  0  3  0  0  0  0  0  0
  157.3630  210.7720  138.9300 C   0  0  0  0  0  3  0  0  0  0  0  0
  160.7610  212.6820  140.8440 C   0  0  1  0  0  3  0  0  0  0  0  0
  160.5280  207.4310  137.1120 F   0  0  0  0  0  0  0  0  0  0  0  0
  158.2260  214.3700  139.4550 N   0  0  0  0  0  0  0  0  0  0  0  0
  155.2170  209.6250  139.1110 N   0  0  0  0  0  1  0  0  0  0  0  0
  161.5360  211.4870  140.7710 O   0  0  0  0  0  0  0  0  0  0  0  0
  160.3310  213.1170  139.4290 C   0  0  2  0  0  3  0  0  0  0  0  0
  160.0900  209.6400  137.8920 C   0  0  0  0  0  3  0  0  0  0  0  0
  155.3970  211.9920  139.5230 N   0  0  0  0  0  0  0  0  0  0  0  0
  161.2470  210.4620  139.8620 C   0  0  0  0  0  0  0  0  0  0  0  0
  161.9180  209.2400  139.9700 C   0  0  0  0  0  3  0  0  0  0  0  0
  159.5260  214.3920  139.4510 C   0  0  0  0  0  3  0  0  0  0  0  0
  157.4810  213.1490  139.3640 C   0  0  0  0  0  0  0  0  0  0  0  0
  156.1060  213.1490  139.6080 C   0  0  0  0  0  3  0  0  0  0  0  0
  159.5670  212.4600  141.7690 C   0  0  0  0  0  2  0  0  0  0  0  0
  160.3970  214.4500  142.8240 O   0  0  0  0  0  1  0  0  0  0  0  0
  159.6820  213.2720  143.0530 C   0  0  2  0  0  3  0  0  0  0  0  0
  161.1960  213.7340  146.7820 C   0  0  0  0  0  0  0  0  0  0  0  0
  159.4580  212.3450  145.4540 C   0  0  0  0  0  2  0  0  0  0  0  0
  162.6190  212.7490  143.5830 O   0  0  0  0  0  0  0  0  0  0  0  0
  161.6080  213.8340  148.0010 N   0  0  0  0  0  2  0  0  0  0  0  0
  159.4520  213.8850  146.4210 S   0  0  0  0  0  0  0  0  0  0  0  0
  161.7450  212.8990  144.4760 C   0  0  0  0  0  0  0  0  0  0  0  0
  160.3270  212.4710  144.1940 C   0  0  2  0  0  3  0  0  0  0  0  0
  162.1310  213.4490  145.7410 N   0  0  0  0  0  2  0  0  0  0  0  0
  1  6  1  0  0  0  0
  2  5  1  1  0  0  0
  2  3  1  0  0  0  0
  2 13  1  0  0  0  0
  3 19  1  0  0  0  0
  4 15  2  0  0  0  0
  5 16  2  0  0  0  0
  6 17  2  0  0  0  0
  7  3  2  0  0  0  0
  7  4  1  0  0  0  0
  8 21  1  1  0  0  0
  9  1  1  0  0  0  0
 11  4  1  0  0  0  0
 12  8  1  0  0  0  0
 13 18  1  1  0  0  0
 13  8  1  0  0  0  0
 14  1  2  0  0  0  0
 14  5  1  0  0  0  0
 15 20  1  0  0  0  0
 16 17  1  0  0  0  0
 16 12  1  0  0  0  0
 18 10  2  0  0  0  0
 19 10  1  0  0  0  0
 19 20  2  0  0  0  0
 21 23  1  0  0  0  0
 23 22  1  6  0  0  0
 24 27  2  0  0  0  0
 25 28  1  0  0  0  0
 26 29  2  0  0  0  0
 28 24  1  0  0  0  0
 29 31  1  0  0  0  0
 30 23  1  6  0  0  0
 30 29  1  0  0  0  0
 30 25  1  0  0  0  0
 31 24  1  0  0  0  0
M  END
>  <MODEL>
1

>  <REMARK>
 VINA RESULT:      -5.4      0.000      0.000
  Name = 
  3 active torsions:
  status: ('A' for Active; 'I' for Inactive)
    1  A    between atoms: C_5  and  C_16
    2  A    between atoms: C_5  and  C_30
    3  A    between atoms: C_10  and  C_16
                            x       y       z     vdW  Elec       q    Type
                         _______ _______ _______ _____ _____    ______ ____

>  <TORSDO>
F 3

$$$$
=
 OpenBabel11122413283D

 31 35  0  0  1  0  0  0  0  0999 V2000
  160.8090  212.5720  143.6310 C   0  0  0  0  0  0  0  0  0  0  0  0
  161.1350  212.8220  139.8450 C   0  0  2  0  0  3  0  0  0  0  0  0
  161.3250  211.4210  139.2940 C   0  0  0  0  0  0  0  0  0  0  0  0
  161.7650  209.0590  139.5560 C   0  0  0  0  0  0  0  0  0  0  0  0
  160.5470  212.8750  141.2370 C   0  0  0  0  0  0  0  0  0  0  0  0
  159.4960  213.0020  143.8330 C   0  0  0  0  0  3  0  0  0  0  0  0
  161.5160  210.3090  140.1240 C   0  0  0  0  0  3  0  0  0  0  0  0
  158.8180  213.5260  139.0130 C   0  0  1  0  0  3  0  0  0  0  0  0
  161.5750  212.2140  144.6900 F   0  0  0  0  0  0  0  0  0  0  0  0
  161.2510  212.3770  137.0210 N   0  0  0  0  0  0  0  0  0  0  0  0
  161.9450  207.9230  140.3930 N   0  0  0  0  0  1  0  0  0  0  0  0
  158.4340  213.7390  140.3700 O   0  0  0  0  0  0  0  0  0  0  0  0
  160.3400  213.7140  138.8620 C   0  0  2  0  0  3  0  0  0  0  0  0
  161.3350  212.5140  142.3380 C   0  0  0  0  0  3  0  0  0  0  0  0
  161.8480  208.9260  138.2050 N   0  0  0  0  0  0  0  0  0  0  0  0
  159.2250  213.3190  141.4460 C   0  0  0  0  0  0  0  0  0  0  0  0
  158.7070  213.3800  142.7430 C   0  0  0  0  0  3  0  0  0  0  0  0
  160.7940  213.5220  137.4370 C   0  0  0  0  0  3  0  0  0  0  0  0
  161.4210  211.2570  137.9000 C   0  0  0  0  0  0  0  0  0  0  0  0
  161.6860  209.9910  137.3740 C   0  0  0  0  0  3  0  0  0  0  0  0
  158.3570  212.1420  138.5630 C   0  0  0  0  0  2  0  0  0  0  0  0
  156.9530  213.3910  137.0680 O   0  0  0  0  0  1  0  0  0  0  0  0
  157.6490  212.1890  137.2150 C   0  0  2  0  0  3  0  0  0  0  0  0
  155.1820  209.7220  139.2730 C   0  0  0  0  0  0  0  0  0  0  0  0
  155.2160  211.3190  137.2330 C   0  0  0  0  0  2  0  0  0  0  0  0
  158.2580  209.2270  137.3960 O   0  0  0  0  0  0  0  0  0  0  0  0
  154.3260  208.9760  139.8860 N   0  0  0  0  0  2  0  0  0  0  0  0
  154.8150  211.4510  139.0020 S   0  0  0  0  0  0  0  0  0  0  0  0
  157.1660  209.7560  137.7320 C   0  0  0  0  0  0  0  0  0  0  0  0
  156.7020  210.9970  137.0120 C   0  0  2  0  0  3  0  0  0  0  0  0
  156.3880  209.1480  138.7690 N   0  0  0  0  0  2  0  0  0  0  0  0
  1  6  1  0  0  0  0
  1  9  1  0  0  0  0
  2  3  1  6  0  0  0
  2  5  1  0  0  0  0
  3  7  1  0  0  0  0
  4  7  2  0  0  0  0
  4 11  1  0  0  0  0
  5 16  2  0  0  0  0
  5 14  1  0  0  0  0
  8 21  1  1  0  0  0
  8 12  1  0  0  0  0
 10 18  2  0  0  0  0
 10 19  1  0  0  0  0
 12 16  1  0  0  0  0
 13 18  1  6  0  0  0
 13  8  1  0  0  0  0
 13  2  1  0  0  0  0
 14  1  2  0  0  0  0
 15  4  1  0  0  0  0
 16 17  1  0  0  0  0
 17  6  2  0  0  0  0
 19  3  2  0  0  0  0
 20 19  1  0  0  0  0
 20 15  2  0  0  0  0
 23 22  1  1  0  0  0
 23 21  1  0  0  0  0
 24 27  2  0  0  0  0
 25 28  1  0  0  0  0
 26 29  2  0  0  0  0
 28 24  1  0  0  0  0
 29 31  1  0  0  0  0
 30 23  1  1  0  0  0
 30 25  1  0  0  0  0
 30 29  1  0  0  0  0
 31 24  1  0  0  0  0
M  END
>  <MODEL>
2

>  <REMARK>
 VINA RESULT:      -4.4      3.795      6.698
  Name = 
  3 active torsions:
  status: ('A' for Active; 'I' for Inactive)
    1  A    between atoms: C_5  and  C_16
    2  A    between atoms: C_5  and  C_30
    3  A    between atoms: C_10  and  C_16
                            x       y       z     vdW  Elec       q    Type
                         _______ _______ _______ _____ _____    ______ ____

>  <TORSDO>
F 3

$$$$
=
 OpenBabel11122413283D

 31 35  0  0  1  0  0  0  0  0999 V2000
  161.0300  213.2240  148.3860 C   0  0  0  0  0  0  0  0  0  0  0  0
  161.6260  211.5770  151.7680 C   0  0  2  0  0  3  0  0  0  0  0  0
  160.3130  211.5710  152.5290 C   0  0  0  0  0  0  0  0  0  0  0  0
  158.0210  212.2680  152.8470 C   0  0  0  0  0  0  0  0  0  0  0  0
  161.4850  211.7680  150.2750 C   0  0  0  0  0  0  0  0  0  0  0  0
  161.2580  212.1620  147.5080 C   0  0  0  0  0  3  0  0  0  0  0  0
  159.1750  212.2410  152.0630 C   0  0  0  0  0  3  0  0  0  0  0  0
  162.0710  209.1090  151.2480 C   0  0  1  0  0  3  0  0  0  0  0  0
  160.6960  214.4440  147.9020 F   0  0  0  0  0  0  0  0  0  0  0  0
  161.4300  210.2890  154.3150 N   0  0  0  0  0  0  0  0  0  0  0  0
  156.8560  212.9330  152.3720 N   0  0  0  0  0  1  0  0  0  0  0  0
  162.1190  209.4460  149.8630 O   0  0  0  0  0  0  0  0  0  0  0  0
  162.4770  210.3280  152.1000 C   0  0  2  0  0  3  0  0  0  0  0  0
  161.1490  213.0290  149.7650 C   0  0  0  0  0  3  0  0  0  0  0  0
  158.0090  211.6680  154.0670 N   0  0  0  0  0  0  0  0  0  0  0  0
  161.7270  210.7020  149.3840 C   0  0  0  0  0  0  0  0  0  0  0  0
  161.6110  210.9050  148.0060 C   0  0  0  0  0  3  0  0  0  0  0  0
  162.4630  210.0150  153.5750 C   0  0  0  0  0  3  0  0  0  0  0  0
  160.2760  210.9650  153.7980 C   0  0  0  0  0  0  0  0  0  0  0  0
  159.1050  211.0270  154.5560 C   0  0  0  0  0  3  0  0  0  0  0  0
  160.6770  208.5940  151.6010 C   0  0  0  0  0  2  0  0  0  0  0  0
  160.9510  207.0750  153.4390 O   0  0  0  0  0  1  0  0  0  0  0  0
  160.7070  207.1440  152.0660 C   0  0  2  0  0  3  0  0  0  0  0  0
  160.9810  204.3720  149.1240 C   0  0  0  0  0  0  0  0  0  0  0  0
  161.9030  206.6920  149.8200 C   0  0  0  0  0  2  0  0  0  0  0  0
  161.7320  204.3610  152.6830 O   0  0  0  0  0  0  0  0  0  0  0  0
  161.1080  203.5520  148.1360 N   0  0  0  0  0  2  0  0  0  0  0  0
  160.5220  206.0710  148.8120 S   0  0  0  0  0  0  0  0  0  0  0  0
  161.5730  204.8250  151.5240 C   0  0  0  0  0  0  0  0  0  0  0  0
  161.7410  206.3070  151.2990 C   0  0  2  0  0  3  0  0  0  0  0  0
  161.2610  203.9280  150.4520 N   0  0  0  0  0  2  0  0  0  0  0  0
  1 14  1  0  0  0  0
  2  5  1  6  0  0  0
  2 13  1  0  0  0  0
  2  3  1  0  0  0  0
  3 19  1  0  0  0  0
  4 15  2  0  0  0  0
  6 17  1  0  0  0  0
  6  1  2  0  0  0  0
  7  3  2  0  0  0  0
  7  4  1  0  0  0  0
  8 21  1  1  0  0  0
  8 13  1  0  0  0  0
  9  1  1  0  0  0  0
 11  4  1  0  0  0  0
 12  8  1  0  0  0  0
 13 18  1  1  0  0  0
 14  5  2  0  0  0  0
 15 20  1  0  0  0  0
 16 12  1  0  0  0  0
 16  5  1  0  0  0  0
 17 16  2  0  0  0  0
 18 10  2  0  0  0  0
 19 10  1  0  0  0  0
 19 20  2  0  0  0  0
 21 23  1  0  0  0  0
 23 22  1  1  0  0  0
 24 31  1  0  0  0  0
 25 30  1  0  0  0  0
 27 24  2  0  0  0  0
 28 24  1  0  0  0  0
 28 25  1  0  0  0  0
 29 26  2  0  0  0  0
 30 29  1  0  0  0  0
 30 23  1  6  0  0  0
 31 29  1  0  0  0  0
M  END
>  <MODEL>
3

>  <REMARK>
 VINA RESULT:      -3.1      8.712     12.027
  Name = 
  3 active torsions:
  status: ('A' for Active; 'I' for Inactive)
    1  A    between atoms: C_5  and  C_16
    2  A    between atoms: C_5  and  C_30
    3  A    between atoms: C_10  and  C_16
                            x       y       z     vdW  Elec       q    Type
                         _______ _______ _______ _____ _____    ______ ____

>  <TORSDO>
F 3

$$$$
=
 OpenBabel11122413283D

 31 35  0  0  1  0  0  0  0  0999 V2000
  161.8300  207.0360  153.4190 C   0  0  0  0  0  0  0  0  0  0  0  0
  159.6670  209.8780  154.7380 C   0  0  2  0  0  3  0  0  0  0  0  0
  160.5470  210.7980  155.5650 C   0  0  0  0  0  0  0  0  0  0  0  0
  162.6060  211.3250  156.7150 C   0  0  0  0  0  0  0  0  0  0  0  0
  160.4200  208.9770  153.7870 C   0  0  0  0  0  0  0  0  0  0  0  0
  161.7920  207.2640  152.0410 C   0  0  0  0  0  3  0  0  0  0  0  0
  161.8730  210.4780  155.8830 C   0  0  0  0  0  3  0  0  0  0  0  0
  159.0510  211.2700  152.6790 C   0  0  1  0  0  3  0  0  0  0  0  0
  162.5330  205.9880  153.9120 F   0  0  0  0  0  0  0  0  0  0  0  0
  158.6100  212.3020  155.8330 N   0  0  0  0  0  0  0  0  0  0  0  0
  163.9580  211.0140  157.0300 N   0  0  0  0  0  1  0  0  0  0  0  0
  159.6160  210.2460  151.8620 O   0  0  0  0  0  0  0  0  0  0  0  0
  158.5540  210.6680  154.0080 C   0  0  2  0  0  3  0  0  0  0  0  0
  161.1420  207.8860  154.2880 C   0  0  0  0  0  3  0  0  0  0  0  0
  162.0280  212.4410  157.2340 N   0  0  0  0  0  0  0  0  0  0  0  0
  160.3740  209.1970  152.3950 C   0  0  0  0  0  0  0  0  0  0  0  0
  161.0620  208.3400  151.5300 C   0  0  0  0  0  3  0  0  0  0  0  0
  157.9260  211.7090  154.9000 C   0  0  0  0  0  3  0  0  0  0  0  0
  159.9720  211.9550  156.1210 C   0  0  0  0  0  0  0  0  0  0  0  0
  160.7370  212.7680  156.9600 C   0  0  0  0  0  3  0  0  0  0  0  0
  160.0780  212.3780  152.8930 C   0  0  0  0  0  2  0  0  0  0  0  0
  159.1270  214.4030  152.0220 O   0  0  0  0  0  1  0  0  0  0  0  0
  160.0610  213.3980  151.7610 C   0  0  2  0  0  3  0  0  0  0  0  0
  160.0650  214.2370  147.7980 C   0  0  0  0  0  0  0  0  0  0  0  0
  161.0220  212.5510  149.5180 C   0  0  0  0  0  2  0  0  0  0  0  0
  157.4740  213.3370  150.1860 O   0  0  0  0  0  0  0  0  0  0  0  0
  160.1380  214.4480  146.5270 N   0  0  0  0  0  2  0  0  0  0  0  0
  161.5660  214.1130  148.7620 S   0  0  0  0  0  0  0  0  0  0  0  0
  158.6220  213.3940  149.6760 C   0  0  0  0  0  0  0  0  0  0  0  0
  159.7790  212.7510  150.3980 C   0  0  2  0  0  3  0  0  0  0  0  0
  158.7900  214.0490  148.4130 N   0  0  0  0  0  2  0  0  0  0  0  0
  1  9  1  0  0  0  0
  1 14  1  0  0  0  0
  2  5  1  6  0  0  0
  2  3  1  0  0  0  0
  3  7  2  0  0  0  0
  3 19  1  0  0  0  0
  4 11  1  0  0  0  0
  4 15  2  0  0  0  0
  5 14  2  0  0  0  0
  6  1  2  0  0  0  0
  7  4  1  0  0  0  0
  8 21  1  1  0  0  0
  8 13  1  0  0  0  0
 10 19  1  0  0  0  0
 12 16  1  0  0  0  0
 12  8  1  0  0  0  0
 13  2  1  0  0  0  0
 13 18  1  1  0  0  0
 16  5  1  0  0  0  0
 17  6  1  0  0  0  0
 17 16  2  0  0  0  0
 18 10  2  0  0  0  0
 19 20  2  0  0  0  0
 20 15  1  0  0  0  0
 23 22  1  1  0  0  0
 23 21  1  0  0  0  0
 24 31  1  0  0  0  0
 24 28  1  0  0  0  0
 25 30  1  0  0  0  0
 27 24  2  0  0  0  0
 28 25  1  0  0  0  0
 29 26  2  0  0  0  0
 29 30  1  0  0  0  0
 30 23  1  1  0  0  0
 31 29  1  0  0  0  0
M  END
>  <MODEL>
4

>  <REMARK>
 VINA RESULT:      -3.0      8.518     13.401
  Name = 
  3 active torsions:
  status: ('A' for Active; 'I' for Inactive)
    1  A    between atoms: C_5  and  C_16
    2  A    between atoms: C_5  and  C_30
    3  A    between atoms: C_10  and  C_16
                            x       y       z     vdW  Elec       q    Type
                         _______ _______ _______ _____ _____    ______ ____

>  <TORSDO>
F 3

$$$$
=
 OpenBabel11122413283D

 31 35  0  0  1  0  0  0  0  0999 V2000
  161.9140  211.6080  149.2260 C   0  0  0  0  0  0  0  0  0  0  0  0
  162.5460  208.4150  151.2020 C   0  0  2  0  0  3  0  0  0  0  0  0
  161.5440  208.3580  152.3410 C   0  0  0  0  0  0  0  0  0  0  0  0
  159.8510  209.3460  153.7530 C   0  0  0  0  0  0  0  0  0  0  0  0
  162.1630  209.3480  150.0760 C   0  0  0  0  0  0  0  0  0  0  0  0
  161.4990  211.1030  147.9920 C   0  0  0  0  0  3  0  0  0  0  0  0
  160.6930  209.4280  152.6440 C   0  0  0  0  0  3  0  0  0  0  0  0
  161.8460  206.5070  149.6430 C   0  0  1  0  0  3  0  0  0  0  0  0
  161.9920  212.9470  149.4180 F   0  0  0  0  0  0  0  0  0  0  0  0
  162.4280  206.1290  152.9190 N   0  0  0  0  0  0  0  0  0  0  0  0
  158.9720  210.4230  154.0570 N   0  0  0  0  0  1  0  0  0  0  0  0
  161.7130  207.4620  148.5920 O   0  0  0  0  0  0  0  0  0  0  0  0
  162.8810  207.0000  150.6730 C   0  0  2  0  0  3  0  0  0  0  0  0
  162.2490  210.7340  150.2630 C   0  0  0  0  0  3  0  0  0  0  0  0
  159.8750  208.2460  154.5510 N   0  0  0  0  0  0  0  0  0  0  0  0
  161.7550  208.8420  148.8250 C   0  0  0  0  0  0  0  0  0  0  0  0
  161.4250  209.7220  147.7900 C   0  0  0  0  0  3  0  0  0  0  0  0
  163.0750  206.0120  151.7960 C   0  0  0  0  0  3  0  0  0  0  0  0
  161.5540  207.2330  153.1870 C   0  0  0  0  0  0  0  0  0  0  0  0
  160.7050  207.1990  154.2950 C   0  0  0  0  0  3  0  0  0  0  0  0
  160.4800  206.2480  150.2740 C   0  0  0  0  0  2  0  0  0  0  0  0
  159.7340  204.4190  151.6380 O   0  0  0  0  0  1  0  0  0  0  0  0
  160.1620  204.7600  150.3530 C   0  0  2  0  0  3  0  0  0  0  0  0
  161.0300  201.2090  148.6080 C   0  0  0  0  0  0  0  0  0  0  0  0
  161.5450  203.7420  148.4220 C   0  0  0  0  0  2  0  0  0  0  0  0
  161.5610  202.5860  151.9320 O   0  0  0  0  0  0  0  0  0  0  0  0
  161.3400  200.1240  147.9800 N   0  0  0  0  0  2  0  0  0  0  0  0
  160.3380  202.5870  147.7040 S   0  0  0  0  0  0  0  0  0  0  0  0
  161.4020  202.5760  150.6840 C   0  0  0  0  0  0  0  0  0  0  0  0
  161.3550  203.8860  149.9400 C   0  0  2  0  0  3  0  0  0  0  0  0
  161.2950  201.3180  150.0060 N   0  0  0  0  0  2  0  0  0  0  0  0
  1  9  1  0  0  0  0
  1 14  1  0  0  0  0
  2  5  1  6  0  0  0
  2  3  1  0  0  0  0
  3  7  2  0  0  0  0
  3 19  1  0  0  0  0
  4 11  1  0  0  0  0
  4 15  2  0  0  0  0
  5 14  2  0  0  0  0
  6  1  2  0  0  0  0
  7  4  1  0  0  0  0
  8 21  1  1  0  0  0
  8 13  1  0  0  0  0
 10 19  1  0  0  0  0
 12 16  1  0  0  0  0
 12  8  1  0  0  0  0
 13  2  1  0  0  0  0
 13 18  1  1  0  0  0
 16  5  1  0  0  0  0
 17  6  1  0  0  0  0
 17 16  2  0  0  0  0
 18 10  2  0  0  0  0
 19 20  2  0  0  0  0
 20 15  1  0  0  0  0
 21 23  1  0  0  0  0
 23 22  1  1  0  0  0
 24 31  1  0  0  0  0
 25 30  1  0  0  0  0
 27 24  2  0  0  0  0
 28 25  1  0  0  0  0
 28 24  1  0  0  0  0
 29 26  2  0  0  0  0
 30 23  1  6  0  0  0
 30 29  1  0  0  0  0
 31 29  1  0  0  0  0
M  END
>  <MODEL>
5

>  <REMARK>
 VINA RESULT:      -2.9      9.423     12.839
  Name = 
  3 active torsions:
  status: ('A' for Active; 'I' for Inactive)
    1  A    between atoms: C_5  and  C_16
    2  A    between atoms: C_5  and  C_30
    3  A    between atoms: C_10  and  C_16
                            x       y       z     vdW  Elec       q    Type
                         _______ _______ _______ _____ _____    ______ ____

>  <TORSDO>
F 3

$$$$
=
 OpenBabel11122413283D

 31 35  0  0  1  0  0  0  0  0999 V2000
  160.4630  213.2600  148.5460 C   0  0  0  0  0  0  0  0  0  0  0  0
  161.6480  211.5180  151.7180 C   0  0  2  0  0  3  0  0  0  0  0  0
  160.4430  211.2970  152.6140 C   0  0  0  0  0  0  0  0  0  0  0  0
  158.1350  211.6670  153.2260 C   0  0  0  0  0  0  0  0  0  0  0  0
  161.3120  211.7730  150.2670 C   0  0  0  0  0  0  0  0  0  0  0  0
  160.7180  212.2890  147.5750 C   0  0  0  0  0  3  0  0  0  0  0  0
  159.1840  211.8370  152.3230 C   0  0  0  0  0  3  0  0  0  0  0  0
  162.3320  209.1630  150.9800 C   0  0  1  0  0  3  0  0  0  0  0  0
  159.9260  214.4510  148.1870 F   0  0  0  0  0  0  0  0  0  0  0  0
  161.9100  210.0740  154.1740 N   0  0  0  0  0  0  0  0  0  0  0  0
  156.8490  212.2000  152.9290 N   0  0  0  0  0  1  0  0  0  0  0  0
  162.1770  209.5810  149.6250 O   0  0  0  0  0  0  0  0  0  0  0  0
  162.6800  210.3750  151.8670 C   0  0  2  0  0  3  0  0  0  0  0  0
  160.7640  213.0050  149.8860 C   0  0  0  0  0  3  0  0  0  0  0  0
  158.3400  211.0040  154.3960 N   0  0  0  0  0  0  0  0  0  0  0  0
  161.5790  210.7990  149.2820 C   0  0  0  0  0  0  0  0  0  0  0  0
  161.2790  211.0620  147.9420 C   0  0  0  0  0  3  0  0  0  0  0  0
  162.8770  209.9800  153.3090 C   0  0  0  0  0  3  0  0  0  0  0  0
  160.6290  210.6210  153.8340 C   0  0  0  0  0  0  0  0  0  0  0  0
  159.5550  210.4860  154.7160 C   0  0  0  0  0  3  0  0  0  0  0  0
  161.0640  208.4510  151.4440 C   0  0  0  0  0  2  0  0  0  0  0  0
  162.6250  206.6280  151.3960 O   0  0  0  0  0  1  0  0  0  0  0  0
  161.2960  206.9620  151.6650 C   0  0  2  0  0  3  0  0  0  0  0  0
  161.2250  203.5380  149.5000 C   0  0  0  0  0  0  0  0  0  0  0  0
  160.0080  204.7320  151.4530 C   0  0  0  0  0  2  0  0  0  0  0  0
  160.7760  207.0540  148.6830 O   0  0  0  0  0  0  0  0  0  0  0  0
  161.1480  202.4120  148.8750 N   0  0  0  0  0  2  0  0  0  0  0  0
  161.3820  203.5530  151.2810 S   0  0  0  0  0  0  0  0  0  0  0  0
  160.7650  206.0060  149.3800 C   0  0  0  0  0  0  0  0  0  0  0  0
  160.3480  206.0920  150.8260 C   0  0  2  0  0  3  0  0  0  0  0  0
  161.1260  204.7610  148.7700 N   0  0  0  0  0  2  0  0  0  0  0  0
  1 14  1  0  0  0  0
  2  5  1  6  0  0  0
  2 13  1  0  0  0  0
  2  3  1  0  0  0  0
  3 19  1  0  0  0  0
  4 15  2  0  0  0  0
  6 17  1  0  0  0  0
  6  1  2  0  0  0  0
  7  3  2  0  0  0  0
  7  4  1  0  0  0  0
  8 21  1  1  0  0  0
  8 13  1  0  0  0  0
  9  1  1  0  0  0  0
 11  4  1  0  0  0  0
 12  8  1  0  0  0  0
 13 18  1  1  0  0  0
 14  5  2  0  0  0  0
 15 20  1  0  0  0  0
 16 12  1  0  0  0  0
 16  5  1  0  0  0  0
 17 16  2  0  0  0  0
 18 10  2  0  0  0  0
 19 10  1  0  0  0  0
 19 20  2  0  0  0  0
 21 23  1  0  0  0  0
 23 22  1  6  0  0  0
 24 28  1  0  0  0  0
 26 29  2  0  0  0  0
 27 24  2  0  0  0  0
 28 25  1  0  0  0  0
 29 30  1  0  0  0  0
 30 25  1  0  0  0  0
 30 23  1  1  0  0  0
 31 29  1  0  0  0  0
 31 24  1  0  0  0  0
M  END
>  <MODEL>
6

>  <REMARK>
 VINA RESULT:      -2.7      8.863     12.022
  Name = 
  3 active torsions:
  status: ('A' for Active; 'I' for Inactive)
    1  A    between atoms: C_5  and  C_16
    2  A    between atoms: C_5  and  C_30
    3  A    between atoms: C_10  and  C_16
                            x       y       z     vdW  Elec       q    Type
                         _______ _______ _______ _____ _____    ______ ____

>  <TORSDO>
F 3

$$$$
=
 OpenBabel11122413283D

 31 35  0  0  1  0  0  0  0  0999 V2000
  161.5920  204.1880  152.1350 C   0  0  0  0  0  0  0  0  0  0  0  0
  162.4830  207.8790  151.8390 C   0  0  2  0  0  3  0  0  0  0  0  0
  162.0640  208.3570  150.4610 C   0  0  0  0  0  0  0  0  0  0  0  0
  161.3120  207.9670  148.1970 C   0  0  0  0  0  0  0  0  0  0  0  0
  161.8130  206.6000  152.2900 C   0  0  0  0  0  0  0  0  0  0  0  0
  160.6180  204.2090  153.1360 C   0  0  0  0  0  3  0  0  0  0  0  0
  161.6050  207.4790  149.4710 C   0  0  0  0  0  3  0  0  0  0  0  0
  160.8920  209.0870  153.4420 C   0  0  1  0  0  3  0  0  0  0  0  0
  161.9580  203.0120  151.5700 F   0  0  0  0  0  0  0  0  0  0  0  0
  162.7400  210.6360  151.1190 N   0  0  0  0  0  0  0  0  0  0  0  0
  160.8310  207.0830  147.1920 N   0  0  0  0  0  1  0  0  0  0  0  0
  160.4800  207.8140  153.9370 O   0  0  0  0  0  0  0  0  0  0  0  0
  162.3310  208.9980  152.8960 C   0  0  2  0  0  3  0  0  0  0  0  0
  162.1920  205.3790  151.7170 C   0  0  0  0  0  3  0  0  0  0  0  0
  161.4970  209.2840  147.9110 N   0  0  0  0  0  0  0  0  0  0  0  0
  160.8380  206.6160  153.3080 C   0  0  0  0  0  0  0  0  0  0  0  0
  160.2460  205.4200  153.7250 C   0  0  0  0  0  3  0  0  0  0  0  0
  162.8220  210.3280  152.3800 C   0  0  0  0  0  3  0  0  0  0  0  0
  162.2520  209.7130  150.1360 C   0  0  0  0  0  0  0  0  0  0  0  0
  161.9600  210.1570  148.8450 C   0  0  0  0  0  3  0  0  0  0  0  0
  159.9000  209.5690  152.3860 C   0  0  0  0  0  2  0  0  0  0  0  0
  160.0320  211.9670  152.3960 O   0  0  0  0  0  1  0  0  0  0  0  0
  159.2400  210.8830  152.7830 C   0  0  2  0  0  3  0  0  0  0  0  0
  157.8900  213.4350  155.6260 C   0  0  0  0  0  0  0  0  0  0  0  0
  157.4490  211.0800  154.6350 C   0  0  0  0  0  2  0  0  0  0  0  0
  161.0600  211.7490  155.0440 O   0  0  0  0  0  0  0  0  0  0  0  0
  157.3850  214.1960  156.5370 N   0  0  0  0  0  2  0  0  0  0  0  0
  156.8350  212.7680  154.3450 S   0  0  0  0  0  0  0  0  0  0  0  0
  159.8180  211.9440  155.0100 C   0  0  0  0  0  0  0  0  0  0  0  0
  158.9400  210.9530  154.2880 C   0  0  2  0  0  3  0  0  0  0  0  0
  159.2740  213.0870  155.6810 N   0  0  0  0  0  2  0  0  0  0  0  0
  1  6  1  0  0  0  0
  2  3  1  6  0  0  0
  2  5  1  0  0  0  0
  2 13  1  0  0  0  0
  4  7  1  0  0  0  0
  5 16  2  0  0  0  0
  6 17  2  0  0  0  0
  7  3  2  0  0  0  0
  8 21  1  6  0  0  0
  8 12  1  0  0  0  0
  9  1  1  0  0  0  0
 10 18  2  0  0  0  0
 11  4  1  0  0  0  0
 13 18  1  6  0  0  0
 13  8  1  0  0  0  0
 14  1  2  0  0  0  0
 14  5  1  0  0  0  0
 15  4  2  0  0  0  0
 15 20  1  0  0  0  0
 16 17  1  0  0  0  0
 16 12  1  0  0  0  0
 19  3  1  0  0  0  0
 19 10  1  0  0  0  0
 20 19  2  0  0  0  0
 21 23  1  0  0  0  0
 23 22  1  1  0  0  0
 24 31  1  0  0  0  0
 24 27  2  0  0  0  0
 28 25  1  0  0  0  0
 28 24  1  0  0  0  0
 29 26  2  0  0  0  0
 29 31  1  0  0  0  0
 30 23  1  6  0  0  0
 30 25  1  0  0  0  0
 30 29  1  0  0  0  0
M  END
>  <MODEL>
7

>  <REMARK>
 VINA RESULT:      -2.5      9.354     12.240
  Name = 
  3 active torsions:
  status: ('A' for Active; 'I' for Inactive)
    1  A    between atoms: C_5  and  C_16
    2  A    between atoms: C_5  and  C_30
    3  A    between atoms: C_10  and  C_16
                            x       y       z     vdW  Elec       q    Type
                         _______ _______ _______ _____ _____    ______ ____

>  <TORSDO>
F 3

$$$$
