=
 OpenBabel11122414123D

 28 32  0  0  1  0  0  0  0  0999 V2000
  160.8820  209.5250  155.1130 C   0  0  0  0  0  0  0  0  0  0  0  0
  157.7660  210.6550  155.0470 F   0  0  0  0  0  0  0  0  0  0  0  0
  161.1910  213.0550  150.2580 O   0  0  0  0  0  1  0  0  0  0  0  0
  162.3610  210.5580  157.2610 C   0  0  0  0  0  3  0  0  0  0  0  0
  159.0760  212.9850  151.3500 C   0  0  2  0  0  3  0  0  0  0  0  0
  160.1240  208.9550  154.0430 N   0  0  0  0  0  2  0  0  0  0  0  0
  158.4660  211.5030  157.0240 O   0  0  0  0  0  1  0  0  0  0  0  0
  157.9970  211.8250  155.7500 C   0  0  1  0  0  0  0  0  0  0  0  0
  156.2550  213.3830  154.8370 C   0  0  0  0  0  0  0  0  0  0  0  0
  159.0310  212.7170  155.0240 C   0  0  2  0  0  3  0  0  0  0  0  0
  161.1620  208.4050  150.4700 C   0  0  0  0  0  1  0  0  0  0  0  0
  159.8250  211.4820  153.0710 C   0  0  1  0  0  3  0  0  0  0  0  0
  157.0400  213.7530  153.8720 N   0  0  0  0  0  0  0  0  0  0  0  0
  156.7380  212.5410  155.8840 N   0  0  0  0  0  2  0  0  0  0  0  0
  160.7100  209.2020  151.6760 C   0  0  2  0  0  3  0  0  0  0  0  0
  160.8950  210.9240  155.3540 C   0  0  0  0  0  0  0  0  0  0  0  0
  160.3000  212.2050  150.9150 C   0  0  2  0  0  3  0  0  0  0  0  0
  154.9200  213.8720  154.8860 N   0  0  0  0  0  1  0  0  0  0  0  0
  161.6250  210.4240  151.8390 C   0  0  0  0  0  2  0  0  0  0  0  0
  161.6430  211.4200  156.4290 C   0  0  0  0  0  3  0  0  0  0  0  0
  161.6170  208.6710  155.9470 C   0  0  0  0  0  3  0  0  0  0  0  0
  162.3500  209.1840  157.0170 C   0  0  0  0  0  3  0  0  0  0  0  0
  160.7720  208.3060  152.9130 C   0  0  0  0  0  2  0  0  0  0  0  0
  158.6440  212.3310  152.6410 C   0  0  1  0  0  3  0  0  0  0  0  0
  160.9190  211.6840  152.1270 N   0  0  2  0  0  0  0  0  0  0  0  0
  158.4440  213.3500  153.7530 C   0  0  2  0  0  3  0  0  0  0  0  0
  157.9800  212.8510  150.3100 C   0  0  0  0  0  1  0  0  0  0  0  0
  160.2250  211.9470  154.4600 C   0  0  2  0  0  3  0  0  0  0  0  0
  1 16  2  0  0  0  0
  1 21  1  0  0  0  0
  3 17  1  0  0  0  0
  5 27  1  6  0  0  0
  5 24  1  0  0  0  0
  6  1  1  0  0  0  0
  8  2  1  6  0  0  0
  8 14  1  0  0  0  0
  8  7  1  0  0  0  0
  9 18  1  0  0  0  0
  9 14  1  0  0  0  0
 10  8  1  0  0  0  0
 11 15  1  0  0  0  0
 12 28  1  0  0  0  0
 13  9  2  0  0  0  0
 15 19  1  0  0  0  0
 15 23  1  0  0  0  0
 16 20  1  0  0  0  0
 17  5  1  0  0  0  0
 17 25  1  0  0  0  0
 19 25  1  0  0  0  0
 20  4  2  0  0  0  0
 21 22  2  0  0  0  0
 22  4  1  0  0  0  0
 23  6  1  0  0  0  0
 24 12  1  0  0  0  0
 24 26  1  0  0  0  0
 25 12  1  0  0  0  0
 26 13  1  0  0  0  0
 26 10  1  0  0  0  0
 28 10  1  0  0  0  0
 28 16  1  0  0  0  0
M  END
>  <MODEL>
1

>  <REMARK>
 VINA RESULT:      -4.0      0.000      0.000
  Name = 
  0 active torsions:
  status: ('A' for Active; 'I' for Inactive)
                            x       y       z     vdW  Elec       q    Type
                         _______ _______ _______ _____ _____    ______ ____

>  <TORSDO>
F 0

$$$$
=
 OpenBabel11122414123D

 28 32  0  0  1  0  0  0  0  0999 V2000
  161.0070  209.7950  156.0860 C   0  0  0  0  0  0  0  0  0  0  0  0
  162.5380  210.5290  153.2370 F   0  0  0  0  0  0  0  0  0  0  0  0
  156.9520  213.5300  153.6930 O   0  0  0  0  0  1  0  0  0  0  0  0
  160.0820  207.1480  156.1640 C   0  0  0  0  0  3  0  0  0  0  0  0
  158.8940  213.1350  152.3740 C   0  0  2  0  0  3  0  0  0  0  0  0
  161.5160  211.1300  156.0750 N   0  0  0  0  0  2  0  0  0  0  0  0
  162.2220  208.3040  152.9700 O   0  0  0  0  0  1  0  0  0  0  0  0
  161.9160  209.5660  152.4600 C   0  0  1  0  0  0  0  0  0  0  0  0
  161.9060  210.6090  150.1770 C   0  0  0  0  0  0  0  0  0  0  0  0
  160.3820  209.7650  152.4480 C   0  0  2  0  0  3  0  0  0  0  0  0
  159.8440  214.2840  157.2610 C   0  0  0  0  0  1  0  0  0  0  0  0
  159.8680  211.6140  153.9610 C   0  0  1  0  0  3  0  0  0  0  0  0
  160.7800  211.2090  150.4170 N   0  0  0  0  0  0  0  0  0  0  0  0
  162.4350  209.6610  151.1040 N   0  0  0  0  0  2  0  0  0  0  0  0
  160.1130  213.1250  156.3250 C   0  0  2  0  0  3  0  0  0  0  0  0
  160.2410  209.2810  155.0060 C   0  0  0  0  0  0  0  0  0  0  0  0
  158.3330  213.3460  153.7660 C   0  0  2  0  0  3  0  0  0  0  0  0
  162.5860  210.8500  148.9520 N   0  0  0  0  0  1  0  0  0  0  0  0
  158.7800  212.4600  155.9550 C   0  0  0  0  0  2  0  0  0  0  0  0
  159.7850  207.9580  155.0670 C   0  0  0  0  0  3  0  0  0  0  0  0
  161.2880  208.9750  157.1870 C   0  0  0  0  0  3  0  0  0  0  0  0
  160.8310  207.6570  157.2250 C   0  0  0  0  0  3  0  0  0  0  0  0
  161.0440  212.1310  157.0200 C   0  0  0  0  0  2  0  0  0  0  0  0
  160.0530  212.1850  152.5690 C   0  0  1  0  0  3  0  0  0  0  0  0
  158.6290  212.1390  154.5260 N   0  0  2  0  0  0  0  0  0  0  0  0
  159.9750  210.9960  151.6230 C   0  0  2  0  0  3  0  0  0  0  0  0
  159.3940  214.4520  151.8130 C   0  0  0  0  0  1  0  0  0  0  0  0
  159.7910  210.1040  153.8160 C   0  0  2  0  0  3  0  0  0  0  0  0
  1 21  1  0  0  0  0
  3 17  1  0  0  0  0
  4 22  1  0  0  0  0
  5 27  1  1  0  0  0
  5 24  1  0  0  0  0
  5 17  1  0  0  0  0
  6  1  1  0  0  0  0
  6 23  1  0  0  0  0
  8  7  1  1  0  0  0
  8  2  1  0  0  0  0
  9 13  2  0  0  0  0
  9 14  1  0  0  0  0
 10  8  1  0  0  0  0
 10 28  1  0  0  0  0
 12 25  1  0  0  0  0
 13 26  1  0  0  0  0
 14  8  1  0  0  0  0
 15 23  1  0  0  0  0
 15 11  1  0  0  0  0
 16 20  1  0  0  0  0
 16  1  2  0  0  0  0
 17 25  1  0  0  0  0
 18  9  1  0  0  0  0
 19 15  1  0  0  0  0
 20  4  2  0  0  0  0
 21 22  2  0  0  0  0
 24 12  1  0  0  0  0
 25 19  1  0  0  0  0
 26 10  1  0  0  0  0
 26 24  1  0  0  0  0
 28 12  1  0  0  0  0
 28 16  1  0  0  0  0
M  END
>  <MODEL>
2

>  <REMARK>
 VINA RESULT:      -3.9      2.368      4.981
  Name = 
  0 active torsions:
  status: ('A' for Active; 'I' for Inactive)
                            x       y       z     vdW  Elec       q    Type
                         _______ _______ _______ _____ _____    ______ ____

>  <TORSDO>
F 0

$$$$
=
 OpenBabel11122414123D

 28 32  0  0  1  0  0  0  0  0999 V2000
  160.8310  208.9770  153.9890 C   0  0  0  0  0  0  0  0  0  0  0  0
  158.0900  210.7260  153.3380 F   0  0  0  0  0  0  0  0  0  0  0  0
  162.7590  212.1570  149.2680 O   0  0  0  0  0  1  0  0  0  0  0  0
  162.0780  209.7710  156.3730 C   0  0  0  0  0  3  0  0  0  0  0  0
  160.5150  212.5740  149.9440 C   0  0  2  0  0  3  0  0  0  0  0  0
  160.1770  208.5330  152.7980 N   0  0  0  0  0  2  0  0  0  0  0  0
  158.5820  211.4930  155.4090 O   0  0  0  0  0  1  0  0  0  0  0  0
  158.4310  211.8520  154.0690 C   0  0  1  0  0  0  0  0  0  0  0  0
  157.2550  213.6970  152.8410 C   0  0  0  0  0  0  0  0  0  0  0  0
  159.7460  212.4780  153.5470 C   0  0  2  0  0  3  0  0  0  0  0  0
  161.7080  207.6280  149.4840 C   0  0  0  0  0  1  0  0  0  0  0  0
  160.6020  211.0230  151.7790 C   0  0  1  0  0  3  0  0  0  0  0  0
  158.2630  213.8540  152.0390 N   0  0  0  0  0  0  0  0  0  0  0  0
  157.3500  212.8180  153.9620 N   0  0  0  0  0  2  0  0  0  0  0  0
  161.2240  208.5510  150.5820 C   0  0  2  0  0  3  0  0  0  0  0  0
  161.0960  210.3520  154.2240 C   0  0  0  0  0  0  0  0  0  0  0  0
  161.6040  211.5390  149.7480 C   0  0  2  0  0  3  0  0  0  0  0  0
  156.0680  214.4530  152.6380 N   0  0  0  0  0  1  0  0  0  0  0  0
  162.3310  209.5640  150.9090 C   0  0  0  0  0  2  0  0  0  0  0  0
  161.7230  210.7270  155.4190 C   0  0  0  0  0  3  0  0  0  0  0  0
  161.2030  208.0260  154.9490 C   0  0  0  0  0  3  0  0  0  0  0  0
  161.8210  208.4210  156.1360 C   0  0  0  0  0  3  0  0  0  0  0  0
  160.8680  207.7160  151.8110 C   0  0  0  0  0  2  0  0  0  0  0  0
  159.7260  212.0790  151.1340 C   0  0  1  0  0  3  0  0  0  0  0  0
  161.8670  210.9530  151.0560 N   0  0  2  0  0  0  0  0  0  0  0  0
  159.5470  213.1640  152.1860 C   0  0  2  0  0  3  0  0  0  0  0  0
  159.6240  212.6260  148.7180 C   0  0  0  0  0  1  0  0  0  0  0  0
  160.8320  211.4530  153.2170 C   0  0  2  0  0  3  0  0  0  0  0  0
  1 16  2  0  0  0  0
  1 21  1  0  0  0  0
  3 17  1  0  0  0  0
  5 27  1  6  0  0  0
  5 24  1  0  0  0  0
  6  1  1  0  0  0  0
  8  2  1  6  0  0  0
  8  7  1  0  0  0  0
  9 14  1  0  0  0  0
 10  8  1  0  0  0  0
 11 15  1  0  0  0  0
 12 28  1  0  0  0  0
 13 26  1  0  0  0  0
 13  9  2  0  0  0  0
 14  8  1  0  0  0  0
 15 19  1  0  0  0  0
 15 23  1  0  0  0  0
 16 20  1  0  0  0  0
 17  5  1  0  0  0  0
 17 25  1  0  0  0  0
 18  9  1  0  0  0  0
 19 25  1  0  0  0  0
 20  4  2  0  0  0  0
 21 22  2  0  0  0  0
 22  4  1  0  0  0  0
 23  6  1  0  0  0  0
 24 12  1  0  0  0  0
 24 26  1  0  0  0  0
 25 12  1  0  0  0  0
 26 10  1  0  0  0  0
 28 10  1  0  0  0  0
 28 16  1  0  0  0  0
M  END
>  <MODEL>
3

>  <REMARK>
 VINA RESULT:      -3.6      1.456      1.716
  Name = 
  0 active torsions:
  status: ('A' for Active; 'I' for Inactive)
                            x       y       z     vdW  Elec       q    Type
                         _______ _______ _______ _____ _____    ______ ____

>  <TORSDO>
F 0

$$$$
=
 OpenBabel11122414123D

 28 32  0  0  1  0  0  0  0  0999 V2000
  160.4530  211.0270  151.5050 C   0  0  0  0  0  0  0  0  0  0  0  0
  159.7020  207.7990  151.6110 F   0  0  0  0  0  0  0  0  0  0  0  0
  162.5370  209.6850  156.9800 O   0  0  0  0  0  1  0  0  0  0  0  0
  162.5240  211.5960  149.7010 C   0  0  0  0  0  3  0  0  0  0  0  0
  161.5690  207.8750  155.7730 C   0  0  2  0  0  3  0  0  0  0  0  0
  159.3650  210.7550  152.3910 N   0  0  0  0  0  2  0  0  0  0  0  0
  161.1710  207.8210  149.8900 O   0  0  0  0  0  1  0  0  0  0  0  0
  160.9280  207.3270  151.1730 C   0  0  1  0  0  0  0  0  0  0  0  0
  161.0910  205.0790  152.2760 C   0  0  0  0  0  0  0  0  0  0  0  0
  162.0660  207.7650  152.1240 C   0  0  2  0  0  3  0  0  0  0  0  0
  158.7480  212.1340  155.8350 C   0  0  0  0  0  1  0  0  0  0  0  0
  161.0830  209.2090  153.8330 C   0  0  1  0  0  3  0  0  0  0  0  0
  161.6200  205.6000  153.3400 N   0  0  0  0  0  0  0  0  0  0  0  0
  160.8690  205.8750  151.1120 N   0  0  0  0  0  2  0  0  0  0  0  0
  159.4030  211.2570  154.7900 C   0  0  2  0  0  3  0  0  0  0  0  0
  161.6570  210.2760  151.5520 C   0  0  0  0  0  0  0  0  0  0  0  0
  161.4950  209.3500  156.1140 C   0  0  2  0  0  3  0  0  0  0  0  0
  160.7880  203.6900  152.2460 N   0  0  0  0  0  1  0  0  0  0  0  0
  160.9280  211.3640  154.9310 C   0  0  0  0  0  2  0  0  0  0  0  0
  162.6800  210.5780  150.6440 C   0  0  0  0  0  3  0  0  0  0  0  0
  160.3140  212.0540  150.5610 C   0  0  0  0  0  3  0  0  0  0  0  0
  161.3420  212.3350  149.6620 C   0  0  0  0  0  3  0  0  0  0  0  0
  158.9510  211.7150  153.4040 C   0  0  0  0  0  2  0  0  0  0  0  0
  161.0610  207.7850  154.3530 C   0  0  1  0  0  3  0  0  0  0  0  0
  161.6430  210.0790  154.8610 N   0  0  2  0  0  0  0  0  0  0  0  0
  162.0150  207.0060  153.4590 C   0  0  2  0  0  3  0  0  0  0  0  0
  160.6640  207.0840  156.6970 C   0  0  0  0  0  1  0  0  0  0  0  0
  161.9580  209.2160  152.5920 C   0  0  2  0  0  3  0  0  0  0  0  0
  1 16  1  0  0  0  0
  1  6  1  0  0  0  0
  4 20  1  0  0  0  0
  5 17  1  0  0  0  0
  5 27  1  1  0  0  0
  6 23  1  0  0  0  0
  8  7  1  6  0  0  0
  8  2  1  0  0  0  0
  8 10  1  0  0  0  0
  9 13  2  0  0  0  0
 10 28  1  0  0  0  0
 10 26  1  0  0  0  0
 12 24  1  0  0  0  0
 12 25  1  0  0  0  0
 13 26  1  0  0  0  0
 14  8  1  0  0  0  0
 14  9  1  0  0  0  0
 15 19  1  0  0  0  0
 15 11  1  0  0  0  0
 16 28  1  0  0  0  0
 17  3  1  0  0  0  0
 18  9  1  0  0  0  0
 20 16  2  0  0  0  0
 21  1  2  0  0  0  0
 22  4  2  0  0  0  0
 22 21  1  0  0  0  0
 23 15  1  0  0  0  0
 24  5  1  0  0  0  0
 25 19  1  0  0  0  0
 25 17  1  0  0  0  0
 26 24  1  0  0  0  0
 28 12  1  0  0  0  0
M  END
>  <MODEL>
4

>  <REMARK>
 VINA RESULT:      -3.3      2.639      6.746
  Name = 
  0 active torsions:
  status: ('A' for Active; 'I' for Inactive)
                            x       y       z     vdW  Elec       q    Type
                         _______ _______ _______ _____ _____    ______ ____

>  <TORSDO>
F 0

$$$$
=
 OpenBabel11122414123D

 28 32  0  0  1  0  0  0  0  0999 V2000
  158.4790  213.0710  150.9990 C   0  0  0  0  0  0  0  0  0  0  0  0
  159.1040  210.0560  152.2300 F   0  0  0  0  0  0  0  0  0  0  0  0
  158.7220  214.4000  156.8560 O   0  0  0  0  0  1  0  0  0  0  0  0
  160.6570  214.1350  149.5880 C   0  0  0  0  0  3  0  0  0  0  0  0
  159.0870  212.1130  156.3020 C   0  0  2  0  0  3  0  0  0  0  0  0
  157.3470  212.5190  151.6750 N   0  0  0  0  0  2  0  0  0  0  0  0
  160.9660  210.3840  150.9870 O   0  0  0  0  0  1  0  0  0  0  0  0
  160.4830  210.1770  152.2790 C   0  0  1  0  0  0  0  0  0  0  0  0
  161.1090  208.6850  154.1970 C   0  0  0  0  0  0  0  0  0  0  0  0
  160.9060  211.3550  153.1880 C   0  0  2  0  0  3  0  0  0  0  0  0
  154.9960  214.2110  154.0740 C   0  0  0  0  0  1  0  0  0  0  0  0
  158.8680  212.4780  153.9350 C   0  0  1  0  0  3  0  0  0  0  0  0
  160.9470  209.6510  155.0480 N   0  0  0  0  0  0  0  0  0  0  0  0
  161.0380  208.9350  152.7930 N   0  0  0  0  0  2  0  0  0  0  0  0
  156.2850  213.5560  153.6260 C   0  0  2  0  0  3  0  0  0  0  0  0
  159.7710  213.0740  151.5900 C   0  0  0  0  0  0  0  0  0  0  0  0
  158.3070  213.3780  156.0020 C   0  0  2  0  0  3  0  0  0  0  0  0
  161.4230  207.3790  154.6630 N   0  0  0  0  0  1  0  0  0  0  0  0
  157.4660  214.4530  154.0230 C   0  0  0  0  0  2  0  0  0  0  0  0
  160.8440  213.6130  150.8700 C   0  0  0  0  0  3  0  0  0  0  0  0
  158.3030  213.6090  149.7180 C   0  0  0  0  0  3  0  0  0  0  0  0
  159.3860  214.1360  149.0140 C   0  0  0  0  0  3  0  0  0  0  0  0
  156.2390  213.3550  152.1110 C   0  0  0  0  0  2  0  0  0  0  0  0
  159.2270  211.4240  154.9650 C   0  0  1  0  0  3  0  0  0  0  0  0
  158.6050  213.7380  154.6220 N   0  0  2  0  0  0  0  0  0  0  0  0
  160.6700  211.0400  154.6740 C   0  0  2  0  0  3  0  0  0  0  0  0
  158.3010  211.2360  157.2570 C   0  0  0  0  0  1  0  0  0  0  0  0
  160.0600  212.6150  153.0050 C   0  0  2  0  0  3  0  0  0  0  0  0
  1 16  1  0  0  0  0
  1  6  1  0  0  0  0
  2  8  1  0  0  0  0
  4 20  1  0  0  0  0
  5 27  1  1  0  0  0
  6 23  1  0  0  0  0
  8  7  1  6  0  0  0
  8 14  1  0  0  0  0
  8 10  1  0  0  0  0
  9 18  1  0  0  0  0
  9 13  2  0  0  0  0
 10 26  1  0  0  0  0
 12 25  1  0  0  0  0
 12 24  1  0  0  0  0
 14  9  1  0  0  0  0
 15 19  1  0  0  0  0
 15 11  1  0  0  0  0
 16 28  1  0  0  0  0
 17  5  1  0  0  0  0
 17  3  1  0  0  0  0
 19 25  1  0  0  0  0
 20 16  2  0  0  0  0
 21  1  2  0  0  0  0
 22  4  2  0  0  0  0
 22 21  1  0  0  0  0
 23 15  1  0  0  0  0
 24  5  1  0  0  0  0
 25 17  1  0  0  0  0
 26 24  1  0  0  0  0
 26 13  1  0  0  0  0
 28 10  1  0  0  0  0
 28 12  1  0  0  0  0
M  END
>  <MODEL>
5

>  <REMARK>
 VINA RESULT:      -2.1      2.005      6.159
  Name = 
  0 active torsions:
  status: ('A' for Active; 'I' for Inactive)
                            x       y       z     vdW  Elec       q    Type
                         _______ _______ _______ _____ _____    ______ ____

>  <TORSDO>
F 0

$$$$
=
 OpenBabel11122414123D

 28 32  0  0  1  0  0  0  0  0999 V2000
  160.9980  208.5170  155.0260 C   0  0  0  0  0  0  0  0  0  0  0  0
  159.3340  210.4160  152.8770 F   0  0  0  0  0  0  0  0  0  0  0  0
  163.8020  206.9780  149.9380 O   0  0  0  0  0  1  0  0  0  0  0  0
  162.6530  210.0090  156.7300 C   0  0  0  0  0  3  0  0  0  0  0  0
  162.0650  208.5910  149.7100 C   0  0  2  0  0  3  0  0  0  0  0  0
  160.1220  207.7520  154.1960 N   0  0  0  0  0  2  0  0  0  0  0  0
  160.2850  212.0060  154.1750 O   0  0  0  0  0  1  0  0  0  0  0  0
  160.2120  211.4860  152.8830 C   0  0  1  0  0  0  0  0  0  0  0  0
  159.9300  212.4580  150.5860 C   0  0  0  0  0  0  0  0  0  0  0  0
  161.6220  211.0520  152.4170 C   0  0  2  0  0  3  0  0  0  0  0  0
  160.7970  204.4800  152.4670 C   0  0  0  0  0  1  0  0  0  0  0  0
  161.5680  208.6350  152.0630 C   0  0  1  0  0  3  0  0  0  0  0  0
  160.8310  211.6600  150.1000 N   0  0  0  0  0  0  0  0  0  0  0  0
  159.6950  212.5140  151.9930 N   0  0  0  0  0  2  0  0  0  0  0  0
  160.8820  205.9760  152.6860 C   0  0  2  0  0  3  0  0  0  0  0  0
  161.8860  209.4820  154.4820 C   0  0  0  0  0  0  0  0  0  0  0  0
  162.5340  207.3270  150.4030 C   0  0  2  0  0  3  0  0  0  0  0  0
  159.2150  213.3280  149.7180 N   0  0  0  0  0  1  0  0  0  0  0  0
  162.3530  206.4090  152.6180 C   0  0  0  0  0  2  0  0  0  0  0  0
  162.7060  210.2140  155.3500 C   0  0  0  0  0  3  0  0  0  0  0  0
  160.9620  208.3120  156.4120 C   0  0  0  0  0  3  0  0  0  0  0  0
  161.7830  209.0560  157.2600 C   0  0  0  0  0  3  0  0  0  0  0  0
  160.2780  206.3120  154.0490 C   0  0  0  0  0  2  0  0  0  0  0  0
  161.2320  209.3090  150.7470 C   0  0  1  0  0  3  0  0  0  0  0  0
  162.5970  207.6270  151.8280 N   0  0  2  0  0  0  0  0  0  0  0  0
  161.6570  210.7610  150.9080 C   0  0  2  0  0  3  0  0  0  0  0  0
  161.2060  208.2360  148.5120 C   0  0  0  0  0  1  0  0  0  0  0  0
  162.0820  209.7150  152.9980 C   0  0  2  0  0  3  0  0  0  0  0  0
  1 21  1  0  0  0  0
  3 17  1  0  0  0  0
  4 22  1  0  0  0  0
  5 27  1  6  0  0  0
  5 17  1  0  0  0  0
  5 24  1  0  0  0  0
  6  1  1  0  0  0  0
  8  2  1  6  0  0  0
  8  7  1  0  0  0  0
  9 14  1  0  0  0  0
 10  8  1  0  0  0  0
 10 28  1  0  0  0  0
 11 15  1  0  0  0  0
 12 28  1  0  0  0  0
 13  9  2  0  0  0  0
 13 26  1  0  0  0  0
 14  8  1  0  0  0  0
 15 23  1  0  0  0  0
 16  1  2  0  0  0  0
 16 20  1  0  0  0  0
 17 25  1  0  0  0  0
 18  9  1  0  0  0  0
 19 15  1  0  0  0  0
 20  4  2  0  0  0  0
 21 22  2  0  0  0  0
 23  6  1  0  0  0  0
 24 26  1  0  0  0  0
 24 12  1  0  0  0  0
 25 12  1  0  0  0  0
 25 19  1  0  0  0  0
 26 10  1  0  0  0  0
 28 16  1  0  0  0  0
M  END
>  <MODEL>
6

>  <REMARK>
 VINA RESULT:      -1.3      2.578      4.115
  Name = 
  0 active torsions:
  status: ('A' for Active; 'I' for Inactive)
                            x       y       z     vdW  Elec       q    Type
                         _______ _______ _______ _____ _____    ______ ____

>  <TORSDO>
F 0

$$$$
=
 OpenBabel11122414123D

 28 32  0  0  1  0  0  0  0  0999 V2000
  161.4800  208.7420  154.4780 C   0  0  0  0  0  0  0  0  0  0  0  0
  162.7940  210.6650  152.1180 F   0  0  0  0  0  0  0  0  0  0  0  0
  156.9400  212.5970  153.6700 O   0  0  0  0  0  1  0  0  0  0  0  0
  160.8540  206.1700  153.5510 C   0  0  0  0  0  3  0  0  0  0  0  0
  158.8540  212.9570  152.3010 C   0  0  2  0  0  3  0  0  0  0  0  0
  161.8390  210.0340  154.9720 N   0  0  0  0  0  2  0  0  0  0  0  0
  162.7110  208.6820  151.0300 O   0  0  0  0  0  1  0  0  0  0  0  0
  162.2480  209.9980  151.0340 C   0  0  1  0  0  0  0  0  0  0  0  0
  162.0230  211.8110  149.3140 C   0  0  0  0  0  0  0  0  0  0  0  0
  160.7020  210.0050  151.0970 C   0  0  2  0  0  3  0  0  0  0  0  0
  159.8880  212.2930  157.2600 C   0  0  0  0  0  1  0  0  0  0  0  0
  160.0570  211.0770  153.1960 C   0  0  1  0  0  3  0  0  0  0  0  0
  160.8500  212.1400  149.7620 N   0  0  0  0  0  0  0  0  0  0  0  0
  162.6930  210.6540  149.8140 N   0  0  0  0  0  2  0  0  0  0  0  0
  160.2400  211.6100  155.9550 C   0  0  2  0  0  3  0  0  0  0  0  0
  160.7270  208.5840  153.2840 C   0  0  0  0  0  0  0  0  0  0  0  0
  158.3350  212.5630  153.6690 C   0  0  2  0  0  3  0  0  0  0  0  0
  162.6180  212.5720  148.2700 N   0  0  0  0  0  1  0  0  0  0  0  0
  158.9720  210.9790  155.3620 C   0  0  0  0  0  2  0  0  0  0  0  0
  160.4220  207.2910  152.8400 C   0  0  0  0  0  3  0  0  0  0  0  0
  161.8970  207.6080  155.1880 C   0  0  0  0  0  3  0  0  0  0  0  0
  161.5880  206.3280  154.7260 C   0  0  0  0  0  3  0  0  0  0  0  0
  161.3030  210.5450  156.2250 C   0  0  0  0  0  2  0  0  0  0  0  0
  160.1160  212.1460  152.1230 C   0  0  1  0  0  3  0  0  0  0  0  0
  158.7940  211.2020  153.9170 N   0  0  2  0  0  0  0  0  0  0  0  0
  160.1270  211.3980  150.7980 C   0  0  2  0  0  3  0  0  0  0  0  0
  159.1820  214.4370  152.2780 C   0  0  0  0  0  1  0  0  0  0  0  0
  160.1380  209.7340  152.4920 C   0  0  2  0  0  3  0  0  0  0  0  0
  1  6  1  0  0  0  0
  1 21  1  0  0  0  0
  4 22  1  0  0  0  0
  5 27  1  1  0  0  0
  5 17  1  0  0  0  0
  6 23  1  0  0  0  0
  8  7  1  1  0  0  0
  8 10  1  0  0  0  0
  8  2  1  0  0  0  0
  9 13  2  0  0  0  0
  9 14  1  0  0  0  0
 10 28  1  0  0  0  0
 12 25  1  0  0  0  0
 13 26  1  0  0  0  0
 14  8  1  0  0  0  0
 15 23  1  0  0  0  0
 15 11  1  0  0  0  0
 16  1  2  0  0  0  0
 17  3  1  0  0  0  0
 17 25  1  0  0  0  0
 18  9  1  0  0  0  0
 19 15  1  0  0  0  0
 20 16  1  0  0  0  0
 20  4  2  0  0  0  0
 22 21  2  0  0  0  0
 24  5  1  0  0  0  0
 24 12  1  0  0  0  0
 25 19  1  0  0  0  0
 26 10  1  0  0  0  0
 26 24  1  0  0  0  0
 28 12  1  0  0  0  0
 28 16  1  0  0  0  0
M  END
>  <MODEL>
7

>  <REMARK>
 VINA RESULT:      -1.3      2.399      5.185
  Name = 
  0 active torsions:
  status: ('A' for Active; 'I' for Inactive)
                            x       y       z     vdW  Elec       q    Type
                         _______ _______ _______ _____ _____    ______ ____

>  <TORSDO>
F 0

$$$$
=
 OpenBabel11122414123D

 28 32  0  0  1  0  0  0  0  0999 V2000
  161.1280  211.3690  150.6470 C   0  0  0  0  0  0  0  0  0  0  0  0
  162.6670  210.4420  153.4340 F   0  0  0  0  0  0  0  0  0  0  0  0
  159.9170  205.4830  150.5600 O   0  0  0  0  0  1  0  0  0  0  0  0
  158.8350  212.9080  151.1390 C   0  0  0  0  0  3  0  0  0  0  0  0
  161.1990  206.2440  152.4150 C   0  0  2  0  0  3  0  0  0  0  0  0
  162.3200  210.6270  150.3830 N   0  0  0  0  0  2  0  0  0  0  0  0
  161.0990  211.8380  154.2780 O   0  0  0  0  0  1  0  0  0  0  0  0
  161.5650  210.5230  154.2690 C   0  0  1  0  0  0  0  0  0  0  0  0
  162.0620  208.7980  156.0220 C   0  0  0  0  0  0  0  0  0  0  0  0
  160.4380  209.5740  153.7980 C   0  0  2  0  0  3  0  0  0  0  0  0
  162.8640  207.8810  147.8710 C   0  0  0  0  0  1  0  0  0  0  0  0
  161.1720  208.5420  151.7070 C   0  0  1  0  0  3  0  0  0  0  0  0
  161.5120  207.8640  155.3100 N   0  0  0  0  0  0  0  0  0  0  0  0
  161.9790  210.1640  155.6160 N   0  0  0  0  0  2  0  0  0  0  0  0
  162.3620  208.5060  149.1550 C   0  0  2  0  0  3  0  0  0  0  0  0
  160.1580  210.9140  151.5780 C   0  0  0  0  0  0  0  0  0  0  0  0
  160.9310  206.3660  150.9290 C   0  0  2  0  0  3  0  0  0  0  0  0
  162.6980  208.4670  157.2500 N   0  0  0  0  0  1  0  0  0  0  0  0
  160.8760  208.1620  149.3320 C   0  0  0  0  0  2  0  0  0  0  0  0
  159.0180  211.6960  151.8070 C   0  0  0  0  0  3  0  0  0  0  0  0
  160.9260  212.5820  149.9740 C   0  0  0  0  0  3  0  0  0  0  0  0
  159.7880  213.3490  150.2210 C   0  0  0  0  0  3  0  0  0  0  0  0
  162.5660  210.0190  149.0840 C   0  0  0  0  0  2  0  0  0  0  0  0
  161.5920  207.6370  152.8490 C   0  0  1  0  0  3  0  0  0  0  0  0
  160.5010  207.7380  150.6910 N   0  0  2  0  0  0  0  0  0  0  0  0
  160.7900  208.1010  154.0570 C   0  0  2  0  0  3  0  0  0  0  0  0
  162.3480  205.2840  152.6570 C   0  0  0  0  0  1  0  0  0  0  0  0
  160.2200  209.5750  152.2850 C   0  0  2  0  0  3  0  0  0  0  0  0
  1 16  1  0  0  0  0
  3 17  1  0  0  0  0
  4 20  1  0  0  0  0
  5 27  1  6  0  0  0
  5 24  1  0  0  0  0
  6  1  1  0  0  0  0
  8  2  1  6  0  0  0
  8  7  1  0  0  0  0
  8 14  1  0  0  0  0
  9 18  1  0  0  0  0
 10 26  1  0  0  0  0
 10  8  1  0  0  0  0
 11 15  1  0  0  0  0
 12 28  1  0  0  0  0
 12 24  1  0  0  0  0
 13  9  2  0  0  0  0
 14  9  1  0  0  0  0
 15 19  1  0  0  0  0
 16 20  2  0  0  0  0
 16 28  1  0  0  0  0
 17  5  1  0  0  0  0
 19 25  1  0  0  0  0
 21 22  1  0  0  0  0
 21  1  2  0  0  0  0
 22  4  2  0  0  0  0
 23 15  1  0  0  0  0
 23  6  1  0  0  0  0
 24 26  1  0  0  0  0
 25 17  1  0  0  0  0
 25 12  1  0  0  0  0
 26 13  1  0  0  0  0
 28 10  1  0  0  0  0
M  END
>  <MODEL>
8

>  <REMARK>
 VINA RESULT:      -1.1      3.226      5.856
  Name = 
  0 active torsions:
  status: ('A' for Active; 'I' for Inactive)
                            x       y       z     vdW  Elec       q    Type
                         _______ _______ _______ _____ _____    ______ ____

>  <TORSDO>
F 0

$$$$
