=
 OpenBabel11122413103D

 31 35  0  0  1  0  0  0  0  0999 V2000
  161.6220  202.4710  151.3400 C   0  0  0  0  0  0  0  0  0  0  0  0
  162.0090  203.8100  147.7620 C   0  0  2  0  0  3  0  0  0  0  0  0
  161.1850  203.5980  146.5050 C   0  0  0  0  0  0  0  0  0  0  0  0
  159.6800  202.2280  145.1760 C   0  0  0  0  0  0  0  0  0  0  0  0
  161.3030  203.2910  149.0230 C   0  0  1  0  0  3  0  0  0  0  0  0
  160.3620  203.1410  151.8050 C   0  0  0  0  0  2  0  0  0  0  0  0
  160.4240  202.4300  146.3400 C   0  0  0  0  0  3  0  0  0  0  0  0
  161.4010  206.2090  148.5580 C   0  0  2  0  0  3  0  0  0  0  0  0
  162.0820  201.5370  151.9740 O   0  0  0  0  0  0  0  0  0  0  0  0
  162.0300  205.7190  145.5800 N   0  0  0  0  0  2  0  0  0  0  0  0
  158.9390  201.1030  145.0330 F   0  0  0  0  0  0  0  0  0  0  0  0
  160.0370  205.5360  148.7690 C   0  0  0  0  0  2  0  0  0  0  0  0
  162.4610  205.2770  147.9500 C   0  0  2  0  0  3  0  0  0  0  0  0
  162.3270  202.9580  150.1110 C   0  0  0  0  0  2  0  0  0  0  0  0
  159.6960  203.1860  144.1600 C   0  0  0  0  0  3  0  0  0  0  0  0
  160.1380  204.2030  149.5140 C   0  0  2  0  0  3  0  0  0  0  0  0
  160.1140  204.4320  151.0300 C   0  0  0  0  0  2  0  0  0  0  0  0
  163.0100  205.8550  146.6510 C   0  0  0  0  0  2  0  0  0  0  0  0
  161.2280  204.5420  145.4580 C   0  0  0  0  0  0  0  0  0  0  0  0
  160.4700  204.3400  144.3000 C   0  0  0  0  0  3  0  0  0  0  0  0
  161.4870  208.9910  149.2230 O   0  0  0  0  0  0  0  0  0  0  0  0
  161.9480  208.1740  150.0650 C   0  0  0  0  0  0  0  0  0  0  0  0
  161.9070  206.7690  149.8040 N   0  0  0  0  0  2  0  0  0  0  0  0
  160.3730  209.1330  153.4020 C   0  0  0  0  0  0  0  0  0  0  0  0
  162.2740  207.7910  152.5410 C   0  0  0  0  0  2  0  0  0  0  0  0
  162.1680  211.1000  150.3090 O   0  0  0  0  0  0  0  0  0  0  0  0
  160.3140  209.4210  154.5850 O   0  0  0  0  0  0  0  0  0  0  0  0
  160.8060  207.7690  152.9770 C   0  0  0  0  0  2  0  0  0  0  0  0
  162.1290  210.4330  151.6760 S   0  0  2  0  0  0  0  0  0  0  0  0
  162.5490  208.6970  151.3340 C   0  0  2  0  0  3  0  0  0  0  0  0
  160.0700  210.3780  152.1550 S   0  0  0  0  0  0  0  0  0  0  0  0
  1  6  1  0  0  0  0
  1  9  2  0  0  0  0
  2  3  1  6  0  0  0
  2 13  1  0  0  0  0
  2  5  1  0  0  0  0
  4  7  2  0  0  0  0
  5 16  1  0  0  0  0
  5 14  1  1  0  0  0
  7  3  1  0  0  0  0
  8 12  1  0  0  0  0
  8 23  1  1  0  0  0
 10 18  1  0  0  0  0
 11  4  1  0  0  0  0
 13 18  1  6  0  0  0
 13  8  1  0  0  0  0
 14  1  1  0  0  0  0
 15 20  2  0  0  0  0
 15  4  1  0  0  0  0
 16 12  1  6  0  0  0
 16 17  1  0  0  0  0
 17  6  1  0  0  0  0
 19 10  1  0  0  0  0
 19  3  2  0  0  0  0
 20 19  1  0  0  0  0
 21 22  2  0  0  0  0
 23 22  1  0  0  0  0
 24 27  2  0  0  0  0
 25 28  1  0  0  0  0
 28 24  1  0  0  0  0
 29 26  2  6  0  0  0
 29 31  1  0  0  0  0
 30 22  1  6  0  0  0
 30 29  1  0  0  0  0
 30 25  1  0  0  0  0
 31 24  1  0  0  0  0
M  END
>  <MODEL>
1

>  <REMARK>
 VINA RESULT:      -2.2      0.000      0.000
  Name = 
  2 active torsions:
  status: ('A' for Active; 'I' for Inactive)
    1  A    between atoms: C_5  and  C_30
    2  A    between atoms: C_10  and  N_16
                            x       y       z     vdW  Elec       q    Type
                         _______ _______ _______ _____ _____    ______ ____

>  <TORSDO>
F 2

$$$$
=
 OpenBabel11122413103D

 31 35  0  0  1  0  0  0  0  0999 V2000
  161.8620  202.6760  151.8190 C   0  0  0  0  0  0  0  0  0  0  0  0
  162.2210  205.2860  149.0250 C   0  0  2  0  0  3  0  0  0  0  0  0
  161.6110  205.3780  147.6390 C   0  0  0  0  0  0  0  0  0  0  0  0
  160.6650  204.3010  145.6750 C   0  0  0  0  0  0  0  0  0  0  0  0
  161.5620  204.2000  149.8880 C   0  0  1  0  0  3  0  0  0  0  0  0
  160.4300  202.8390  152.2360 C   0  0  0  0  0  2  0  0  0  0  0  0
  161.2110  204.2170  146.9580 C   0  0  0  0  0  3  0  0  0  0  0  0
  160.9180  207.0320  150.4420 C   0  0  2  0  0  3  0  0  0  0  0  0
  162.4930  201.6970  152.1820 O   0  0  0  0  0  0  0  0  0  0  0  0
  161.9410  207.8180  147.6420 N   0  0  0  0  0  2  0  0  0  0  0  0
  160.2690  203.1770  145.0330 F   0  0  0  0  0  0  0  0  0  0  0  0
  159.7710  206.0510  150.1610 C   0  0  0  0  0  2  0  0  0  0  0  0
  162.2430  206.6410  149.7690 C   0  0  2  0  0  3  0  0  0  0  0  0
  162.5270  203.7200  150.9750 C   0  0  0  0  0  2  0  0  0  0  0  0
  160.5220  205.5450  145.0560 C   0  0  0  0  0  3  0  0  0  0  0  0
  160.1530  204.5930  150.4270 C   0  0  2  0  0  3  0  0  0  0  0  0
  159.9210  204.2390  151.9010 C   0  0  0  0  0  2  0  0  0  0  0  0
  162.7410  207.7600  148.8610 C   0  0  0  0  0  2  0  0  0  0  0  0
  161.5000  206.6250  146.9910 C   0  0  0  0  0  0  0  0  0  0  0  0
  160.9400  206.7050  145.7120 C   0  0  0  0  0  3  0  0  0  0  0  0
  160.4380  209.4180  151.9480 O   0  0  0  0  0  0  0  0  0  0  0  0
  160.8980  208.4200  152.5650 C   0  0  0  0  0  0  0  0  0  0  0  0
  161.1320  207.1900  151.8740 N   0  0  0  0  0  2  0  0  0  0  0  0
  159.3320  210.5570  155.3060 C   0  0  0  0  0  0  0  0  0  0  0  0
  160.0100  208.2010  154.9200 C   0  0  0  0  0  2  0  0  0  0  0  0
  162.8940  210.4500  153.3160 O   0  0  0  0  0  0  0  0  0  0  0  0
  159.0750  210.9410  156.4340 O   0  0  0  0  0  0  0  0  0  0  0  0
  158.8660  209.2170  154.8420 C   0  0  0  0  0  2  0  0  0  0  0  0
  161.9560  210.1410  154.4750 S   0  0  2  0  0  0  0  0  0  0  0  0
  161.2080  208.5460  154.0260 C   0  0  2  0  0  3  0  0  0  0  0  0
  160.3810  211.5320  154.2370 S   0  0  0  0  0  0  0  0  0  0  0  0
  1  9  2  0  0  0  0
  1  6  1  0  0  0  0
  2  3  1  6  0  0  0
  2 13  1  0  0  0  0
  2  5  1  0  0  0  0
  4  7  1  0  0  0  0
  5 16  1  0  0  0  0
  5 14  1  1  0  0  0
  7  3  2  0  0  0  0
  8 23  1  1  0  0  0
 10 18  1  0  0  0  0
 11  4  1  0  0  0  0
 12  8  1  0  0  0  0
 13 18  1  6  0  0  0
 13  8  1  0  0  0  0
 14  1  1  0  0  0  0
 15  4  2  0  0  0  0
 15 20  1  0  0  0  0
 16 12  1  1  0  0  0
 16 17  1  0  0  0  0
 17  6  1  0  0  0  0
 19  3  1  0  0  0  0
 19 10  1  0  0  0  0
 20 19  2  0  0  0  0
 21 22  2  0  0  0  0
 23 22  1  0  0  0  0
 24 27  2  0  0  0  0
 28 25  1  0  0  0  0
 28 24  1  0  0  0  0
 29 26  2  6  0  0  0
 30 22  1  6  0  0  0
 30 29  1  0  0  0  0
 30 25  1  0  0  0  0
 31 29  1  0  0  0  0
 31 24  1  0  0  0  0
M  END
>  <MODEL>
2

>  <REMARK>
 VINA RESULT:      -1.6      1.795      2.335
  Name = 
  2 active torsions:
  status: ('A' for Active; 'I' for Inactive)
    1  A    between atoms: C_5  and  C_30
    2  A    between atoms: C_10  and  N_16
                            x       y       z     vdW  Elec       q    Type
                         _______ _______ _______ _____ _____    ______ ____

>  <TORSDO>
F 2

$$$$
=
 OpenBabel11122413103D

 31 35  0  0  1  0  0  0  0  0999 V2000
  162.0320  206.4420  152.8940 C   0  0  0  0  0  0  0  0  0  0  0  0
  162.4390  205.2540  149.2660 C   0  0  2  0  0  3  0  0  0  0  0  0
  161.6550  204.2580  148.4310 C   0  0  0  0  0  0  0  0  0  0  0  0
  160.2450  202.2840  148.2750 C   0  0  0  0  0  0  0  0  0  0  0  0
  161.7290  205.6080  150.5810 C   0  0  1  0  0  3  0  0  0  0  0  0
  160.7320  207.1920  152.8490 C   0  0  0  0  0  2  0  0  0  0  0  0
  160.9530  203.2100  149.0450 C   0  0  0  0  0  3  0  0  0  0  0  0
  161.7040  207.5860  148.3830 C   0  0  2  0  0  3  0  0  0  0  0  0
  162.5190  206.1390  153.9700 O   0  0  0  0  0  0  0  0  0  0  0  0
  162.4230  205.3650  146.3690 N   0  0  0  0  0  2  0  0  0  0  0  0
  159.5600  201.2840  148.8790 F   0  0  0  0  0  0  0  0  0  0  0  0
  160.3680  207.1280  148.9860 C   0  0  0  0  0  2  0  0  0  0  0  0
  162.8190  206.5330  148.4860 C   0  0  2  0  0  3  0  0  0  0  0  0
  162.7420  206.0840  151.6250 C   0  0  0  0  0  2  0  0  0  0  0  0
  160.2410  202.3910  146.8820 C   0  0  0  0  0  3  0  0  0  0  0  0
  160.5130  206.5660  150.4030 C   0  0  2  0  0  3  0  0  0  0  0  0
  160.4430  207.6950  151.4370 C   0  0  0  0  0  2  0  0  0  0  0  0
  163.3710  206.1930  147.1060 C   0  0  0  0  0  2  0  0  0  0  0  0
  161.6790  204.3350  147.0230 C   0  0  0  0  0  0  0  0  0  0  0  0
  160.9580  203.4140  146.2580 C   0  0  0  0  0  3  0  0  0  0  0  0
  160.9910  210.2210  147.5270 O   0  0  0  0  0  0  0  0  0  0  0  0
  161.7830  210.1180  148.5010 C   0  0  0  0  0  0  0  0  0  0  0  0
  162.1550  208.8290  148.9950 N   0  0  0  0  0  2  0  0  0  0  0  0
  160.0710  213.1280  150.0960 C   0  0  0  0  0  0  0  0  0  0  0  0
  161.9120  211.5380  150.5880 C   0  0  0  0  0  2  0  0  0  0  0  0
  162.2210  212.4070  146.7020 O   0  0  0  0  0  0  0  0  0  0  0  0
  159.9570  214.1500  150.7490 O   0  0  0  0  0  0  0  0  0  0  0  0
  160.4210  211.8410  150.7650 C   0  0  0  0  0  2  0  0  0  0  0  0
  162.0370  212.8630  148.1430 S   0  0  2  0  0  0  0  0  0  0  0  0
  162.3390  211.3630  149.1240 C   0  0  2  0  0  3  0  0  0  0  0  0
  159.9530  213.1780  148.3130 S   0  0  0  0  0  0  0  0  0  0  0  0
  1  9  2  0  0  0  0
  2  3  1  6  0  0  0
  2  5  1  0  0  0  0
  3  7  1  0  0  0  0
  4 11  1  0  0  0  0
  4  7  2  0  0  0  0
  5 14  1  1  0  0  0
  6  1  1  0  0  0  0
  8 13  1  0  0  0  0
  8 12  1  0  0  0  0
  8 23  1  1  0  0  0
 10 19  1  0  0  0  0
 10 18  1  0  0  0  0
 13 18  1  6  0  0  0
 13  2  1  0  0  0  0
 14  1  1  0  0  0  0
 15  4  1  0  0  0  0
 16 12  1  6  0  0  0
 16  5  1  0  0  0  0
 16 17  1  0  0  0  0
 17  6  1  0  0  0  0
 19  3  2  0  0  0  0
 20 15  2  0  0  0  0
 20 19  1  0  0  0  0
 21 22  2  0  0  0  0
 22 23  1  0  0  0  0
 24 27  2  0  0  0  0
 24 28  1  0  0  0  0
 25 28  1  0  0  0  0
 29 26  2  6  0  0  0
 29 31  1  0  0  0  0
 29 30  1  0  0  0  0
 30 22  1  6  0  0  0
 30 25  1  0  0  0  0
 31 24  1  0  0  0  0
M  END
>  <MODEL>
3

>  <REMARK>
 VINA RESULT:      -1.3      2.602      3.373
  Name = 
  2 active torsions:
  status: ('A' for Active; 'I' for Inactive)
    1  A    between atoms: C_5  and  C_30
    2  A    between atoms: C_10  and  N_16
                            x       y       z     vdW  Elec       q    Type
                         _______ _______ _______ _____ _____    ______ ____

>  <TORSDO>
F 2

$$$$
=
 OpenBabel11122413103D

 31 35  0  0  1  0  0  0  0  0999 V2000
  162.5650  205.3310  145.7310 C   0  0  0  0  0  0  0  0  0  0  0  0
  162.5920  206.8440  149.2600 C   0  0  2  0  0  3  0  0  0  0  0  0
  162.2150  208.2200  149.7760 C   0  0  0  0  0  0  0  0  0  0  0  0
  161.9580  210.6100  149.4160 C   0  0  0  0  0  0  0  0  0  0  0  0
  162.1490  206.6180  147.8070 C   0  0  1  0  0  3  0  0  0  0  0  0
  161.1000  205.2750  145.4100 C   0  0  0  0  0  2  0  0  0  0  0  0
  162.2890  209.3410  148.9350 C   0  0  0  0  0  3  0  0  0  0  0  0
  160.6220  205.3040  149.9720 C   0  0  2  0  0  3  0  0  0  0  0  0
  163.3860  205.1780  144.8420 O   0  0  0  0  0  0  0  0  0  0  0  0
  161.8110  207.2820  152.0170 N   0  0  0  0  0  2  0  0  0  0  0  0
  162.0200  211.6830  148.5920 F   0  0  0  0  0  0  0  0  0  0  0  0
  159.8750  206.2000  148.9750 C   0  0  0  0  0  2  0  0  0  0  0  0
  162.0950  205.6970  150.1700 C   0  0  2  0  0  3  0  0  0  0  0  0
  163.0220  205.5520  147.1400 C   0  0  0  0  0  2  0  0  0  0  0  0
  161.5600  210.7730  150.7450 C   0  0  0  0  0  3  0  0  0  0  0  0
  160.6190  206.3670  147.6470 C   0  0  2  0  0  3  0  0  0  0  0  0
  160.2650  205.2250  146.6870 C   0  0  0  0  0  2  0  0  0  0  0  0
  162.3840  205.9940  151.6370 C   0  0  0  0  0  2  0  0  0  0  0  0
  161.8510  208.3990  151.1270 C   0  0  0  0  0  0  0  0  0  0  0  0
  161.5080  209.6690  151.5990 C   0  0  0  0  0  3  0  0  0  0  0  0
  160.5400  203.0700  151.7580 O   0  0  0  0  0  0  0  0  0  0  0  0
  160.5340  202.8300  150.5210 C   0  0  0  0  0  0  0  0  0  0  0  0
  160.5450  203.9040  149.5780 N   0  0  0  0  0  2  0  0  0  0  0  0
  161.1030  201.2940  147.0780 C   0  0  0  0  0  0  0  0  0  0  0  0
  161.8610  200.9820  149.4210 C   0  0  0  0  0  2  0  0  0  0  0  0
  157.9470  201.7460  149.6270 O   0  0  0  0  0  0  0  0  0  0  0  0
  161.3210  200.4310  146.2460 O   0  0  0  0  0  0  0  0  0  0  0  0
  162.1490  201.6600  148.0780 C   0  0  0  0  0  2  0  0  0  0  0  0
  159.1100  200.9910  148.9980 S   0  0  2  0  0  0  0  0  0  0  0  0
  160.5300  201.4050  150.0550 C   0  0  2  0  0  3  0  0  0  0  0  0
  159.4830  202.0400  147.2010 S   0  0  0  0  0  0  0  0  0  0  0  0
  1 14  1  0  0  0  0
  2  3  1  1  0  0  0
  2 13  1  0  0  0  0
  3 19  1  0  0  0  0
  4 15  2  0  0  0  0
  5 14  1  1  0  0  0
  5  2  1  0  0  0  0
  6  1  1  0  0  0  0
  6 17  1  0  0  0  0
  7  4  1  0  0  0  0
  7  3  2  0  0  0  0
  8 23  1  6  0  0  0
  8 13  1  0  0  0  0
  9  1  2  0  0  0  0
 11  4  1  0  0  0  0
 12  8  1  0  0  0  0
 13 18  1  1  0  0  0
 15 20  1  0  0  0  0
 16 17  1  6  0  0  0
 16  5  1  0  0  0  0
 16 12  1  0  0  0  0
 18 10  1  0  0  0  0
 19 20  2  0  0  0  0
 19 10  1  0  0  0  0
 22 21  2  0  0  0  0
 23 22  1  0  0  0  0
 24 31  1  0  0  0  0
 24 28  1  0  0  0  0
 25 30  1  0  0  0  0
 27 24  2  0  0  0  0
 28 25  1  0  0  0  0
 29 26  2  1  0  0  0
 29 30  1  0  0  0  0
 30 22  1  6  0  0  0
 31 29  1  0  0  0  0
M  END
>  <MODEL>
4

>  <REMARK>
 VINA RESULT:      -1.2      4.279      7.347
  Name = 
  2 active torsions:
  status: ('A' for Active; 'I' for Inactive)
    1  A    between atoms: C_5  and  C_30
    2  A    between atoms: C_10  and  N_16
                            x       y       z     vdW  Elec       q    Type
                         _______ _______ _______ _____ _____    ______ ____

>  <TORSDO>
F 2

$$$$
=
 OpenBabel11122413103D

 31 35  0  0  1  0  0  0  0  0999 V2000
  161.6290  210.8880  148.3870 C   0  0  0  0  0  0  0  0  0  0  0  0
  160.8010  207.1440  148.5800 C   0  0  2  0  0  3  0  0  0  0  0  0
  161.5160  205.9180  148.0420 C   0  0  0  0  0  0  0  0  0  0  0  0
  162.9910  204.8830  146.4110 C   0  0  0  0  0  0  0  0  0  0  0  0
  161.6620  208.4130  148.4940 C   0  0  1  0  0  3  0  0  0  0  0  0
  162.8710  210.9920  149.2240 C   0  0  0  0  0  2  0  0  0  0  0  0
  162.3470  206.0150  146.9150 C   0  0  0  0  0  3  0  0  0  0  0  0
  161.2910  207.1330  151.1330 C   0  0  2  0  0  3  0  0  0  0  0  0
  161.3060  211.8150  147.6630 O   0  0  0  0  0  0  0  0  0  0  0  0
  160.4230  204.5180  149.7480 N   0  0  0  0  0  2  0  0  0  0  0  0
  163.8020  204.9910  145.3310 F   0  0  0  0  0  0  0  0  0  0  0  0
  162.7170  207.3740  150.6190 C   0  0  0  0  0  2  0  0  0  0  0  0
  160.2550  206.9480  150.0130 C   0  0  2  0  0  3  0  0  0  0  0  0
  160.7750  209.6600  148.4520 C   0  0  0  0  0  2  0  0  0  0  0  0
  162.8030  203.6410  147.0210 C   0  0  0  0  0  3  0  0  0  0  0  0
  162.7920  208.4820  149.5640 C   0  0  2  0  0  3  0  0  0  0  0  0
  162.9420  209.8510  150.2360 C   0  0  0  0  0  2  0  0  0  0  0  0
  159.5410  205.6080  150.1510 C   0  0  0  0  0  2  0  0  0  0  0  0
  161.3000  204.6540  148.6280 C   0  0  0  0  0  0  0  0  0  0  0  0
  161.9580  203.5270  148.1270 C   0  0  0  0  0  3  0  0  0  0  0  0
  161.3360  207.0670  153.9930 O   0  0  0  0  0  0  0  0  0  0  0  0
  160.8850  208.1050  153.4400 C   0  0  0  0  0  0  0  0  0  0  0  0
  160.8630  208.2110  152.0140 N   0  0  0  0  0  2  0  0  0  0  0  0
  162.4820  210.0680  156.2910 C   0  0  0  0  0  0  0  0  0  0  0  0
  161.2120  210.4920  154.2020 C   0  0  0  0  0  2  0  0  0  0  0  0
  159.4880  207.3210  155.9100 O   0  0  0  0  0  0  0  0  0  0  0  0
  162.6280  210.9600  157.1090 O   0  0  0  0  0  0  0  0  0  0  0  0
  162.6010  210.3560  154.8310 C   0  0  0  0  0  2  0  0  0  0  0  0
  160.0570  208.7290  156.0200 S   0  0  2  0  0  0  0  0  0  0  0  0
  160.3610  209.2190  154.2960 C   0  0  2  0  0  3  0  0  0  0  0  0
  161.9920  208.4320  156.8190 S   0  0  0  0  0  0  0  0  0  0  0  0
  1 14  1  0  0  0  0
  1  6  1  0  0  0  0
  2  3  1  1  0  0  0
  2 13  1  0  0  0  0
  3 19  1  0  0  0  0
  4  7  1  0  0  0  0
  4 15  2  0  0  0  0
  5 14  1  1  0  0  0
  5  2  1  0  0  0  0
  5 16  1  0  0  0  0
  6 17  1  0  0  0  0
  7  3  2  0  0  0  0
  8 23  1  6  0  0  0
  9  1  2  0  0  0  0
 10 18  1  0  0  0  0
 11  4  1  0  0  0  0
 12  8  1  0  0  0  0
 13 18  1  6  0  0  0
 13  8  1  0  0  0  0
 15 20  1  0  0  0  0
 16 17  1  1  0  0  0
 16 12  1  0  0  0  0
 19 10  1  0  0  0  0
 20 19  2  0  0  0  0
 22 21  2  0  0  0  0
 23 22  1  0  0  0  0
 24 31  1  0  0  0  0
 24 27  2  0  0  0  0
 25 30  1  0  0  0  0
 25 28  1  0  0  0  0
 28 24  1  0  0  0  0
 29 26  2  6  0  0  0
 29 31  1  0  0  0  0
 30 22  1  6  0  0  0
 30 29  1  0  0  0  0
M  END
>  <MODEL>
5

>  <REMARK>
 VINA RESULT:      -0.6      2.971      5.272
  Name = 
  2 active torsions:
  status: ('A' for Active; 'I' for Inactive)
    1  A    between atoms: C_5  and  C_30
    2  A    between atoms: C_10  and  N_16
                            x       y       z     vdW  Elec       q    Type
                         _______ _______ _______ _____ _____    ______ ____

>  <TORSDO>
F 2

$$$$
=
 OpenBabel11122413103D

 31 35  0  0  1  0  0  0  0  0999 V2000
  160.8850  210.4320  151.4260 C   0  0  0  0  0  0  0  0  0  0  0  0
  160.4560  206.6690  150.7940 C   0  0  2  0  0  3  0  0  0  0  0  0
  160.7330  205.8070  149.5760 C   0  0  0  0  0  0  0  0  0  0  0  0
  160.9440  205.5670  147.1660 C   0  0  0  0  0  0  0  0  0  0  0  0
  161.0490  208.0800  150.6650 C   0  0  1  0  0  3  0  0  0  0  0  0
  162.3760  210.6020  151.3910 C   0  0  0  0  0  2  0  0  0  0  0  0
  160.7050  206.3640  148.2880 C   0  0  0  0  0  3  0  0  0  0  0  0
  162.3960  206.1360  152.4400 C   0  0  2  0  0  3  0  0  0  0  0  0
  160.1610  211.4120  151.3720 O   0  0  0  0  0  0  0  0  0  0  0  0
  160.9440  203.8200  151.0150 N   0  0  0  0  0  2  0  0  0  0  0  0
  160.9280  206.1180  145.9290 F   0  0  0  0  0  0  0  0  0  0  0  0
  163.2090  206.8120  151.3260 C   0  0  0  0  0  2  0  0  0  0  0  0
  160.8990  206.0070  152.1190 C   0  0  2  0  0  3  0  0  0  0  0  0
  160.2830  209.0660  151.5500 C   0  0  0  0  0  2  0  0  0  0  0  0
  161.2020  204.2030  147.3190 C   0  0  0  0  0  3  0  0  0  0  0  0
  162.5950  208.1340  150.8560 C   0  0  2  0  0  3  0  0  0  0  0  0
  163.0810  209.2920  151.7350 C   0  0  0  0  0  2  0  0  0  0  0  0
  160.4560  204.5490  152.1810 C   0  0  0  0  0  2  0  0  0  0  0  0
  160.9550  204.4220  149.7190 C   0  0  0  0  0  0  0  0  0  0  0  0
  161.2070  203.6320  148.5930 C   0  0  0  0  0  3  0  0  0  0  0  0
  160.2730  207.0520  154.1260 O   0  0  0  0  0  0  0  0  0  0  0  0
  161.4550  207.2950  154.4900 C   0  0  0  0  0  0  0  0  0  0  0  0
  162.5600  206.8380  153.7060 N   0  0  0  0  0  2  0  0  0  0  0  0
  159.2540  209.7920  156.3480 C   0  0  0  0  0  0  0  0  0  0  0  0
  160.6360  207.7880  156.8290 C   0  0  0  0  0  2  0  0  0  0  0  0
  162.7090  209.9410  154.1800 O   0  0  0  0  0  0  0  0  0  0  0  0
  158.8700  210.5030  157.2610 O   0  0  0  0  0  0  0  0  0  0  0  0
  159.2350  208.3070  156.4900 C   0  0  0  0  0  2  0  0  0  0  0  0
  161.8920  209.8630  155.4630 S   0  0  2  0  0  0  0  0  0  0  0  0
  161.6830  208.0790  155.7470 C   0  0  2  0  0  3  0  0  0  0  0  0
  159.9680  210.5180  154.8790 S   0  0  0  0  0  0  0  0  0  0  0  0
  1 14  1  0  0  0  0
  2  3  1  6  0  0  0
  2 13  1  0  0  0  0
  3 19  1  0  0  0  0
  4 15  2  0  0  0  0
  4  7  1  0  0  0  0
  5  2  1  0  0  0  0
  5 16  1  0  0  0  0
  5 14  1  1  0  0  0
  6  1  1  0  0  0  0
  6 17  1  0  0  0  0
  7  3  2  0  0  0  0
  8 23  1  1  0  0  0
  9  1  2  0  0  0  0
 10 18  1  0  0  0  0
 11  4  1  0  0  0  0
 12  8  1  0  0  0  0
 13 18  1  6  0  0  0
 13  8  1  0  0  0  0
 15 20  1  0  0  0  0
 16 12  1  1  0  0  0
 16 17  1  0  0  0  0
 19 10  1  0  0  0  0
 20 19  2  0  0  0  0
 21 22  2  0  0  0  0
 23 22  1  0  0  0  0
 24 28  1  0  0  0  0
 24 27  2  0  0  0  0
 28 25  1  0  0  0  0
 29 26  2  6  0  0  0
 29 30  1  0  0  0  0
 30 22  1  6  0  0  0
 30 25  1  0  0  0  0
 31 29  1  0  0  0  0
 31 24  1  0  0  0  0
M  END
>  <MODEL>
6

>  <REMARK>
 VINA RESULT:      -0.1      2.773      5.117
  Name = 
  2 active torsions:
  status: ('A' for Active; 'I' for Inactive)
    1  A    between atoms: C_5  and  C_30
    2  A    between atoms: C_10  and  N_16
                            x       y       z     vdW  Elec       q    Type
                         _______ _______ _______ _____ _____    ______ ____

>  <TORSDO>
F 2

$$$$
=
 OpenBabel11122413103D

 31 35  0  0  1  0  0  0  0  0999 V2000
  162.4730  209.6010  148.5110 C   0  0  0  0  0  0  0  0  0  0  0  0
  162.2880  207.5210  151.7340 C   0  0  2  0  0  3  0  0  0  0  0  0
  161.3490  207.5780  152.9250 C   0  0  0  0  0  0  0  0  0  0  0  0
  159.8530  208.8330  154.3740 C   0  0  0  0  0  0  0  0  0  0  0  0
  161.7960  208.3740  150.5550 C   0  0  1  0  0  3  0  0  0  0  0  0
  161.2120  209.2090  147.7970 C   0  0  0  0  0  2  0  0  0  0  0  0
  160.7040  208.7770  153.2680 C   0  0  0  0  0  3  0  0  0  0  0  0
  161.5240  205.4350  150.3850 C   0  0  2  0  0  3  0  0  0  0  0  0
  163.1030  210.5770  148.1400 O   0  0  0  0  0  0  0  0  0  0  0  0
  161.8460  205.2220  153.4440 N   0  0  0  0  0  2  0  0  0  0  0  0
  159.2250  209.9910  154.6870 F   0  0  0  0  0  0  0  0  0  0  0  0
  160.2760  206.3080  150.1980 C   0  0  0  0  0  2  0  0  0  0  0  0
  162.5990  206.0780  151.2750 C   0  0  2  0  0  3  0  0  0  0  0  0
  162.9720  208.7860  149.6650 C   0  0  0  0  0  2  0  0  0  0  0  0
  159.6460  207.6930  155.1550 C   0  0  0  0  0  3  0  0  0  0  0  0
  160.6070  207.7410  149.7720 C   0  0  2  0  0  3  0  0  0  0  0  0
  160.7370  207.8300  148.2480 C   0  0  0  0  0  2  0  0  0  0  0  0
  162.9260  205.1810  152.4640 C   0  0  0  0  0  2  0  0  0  0  0  0
  161.1660  206.4430  153.7420 C   0  0  0  0  0  0  0  0  0  0  0  0
  160.3030  206.5010  154.8400 C   0  0  0  0  0  3  0  0  0  0  0  0
  160.5930  203.3670  148.6400 O   0  0  0  0  0  0  0  0  0  0  0  0
  161.6140  204.0150  148.2850 C   0  0  0  0  0  0  0  0  0  0  0  0
  162.1110  205.0800  149.0990 N   0  0  0  0  0  2  0  0  0  0  0  0
  161.2680  205.3740  144.7400 C   0  0  0  0  0  0  0  0  0  0  0  0
  163.0540  204.8240  146.3730 C   0  0  0  0  0  2  0  0  0  0  0  0
  160.3530  201.8980  146.6730 O   0  0  0  0  0  0  0  0  0  0  0  0
  161.5500  205.5700  143.5700 O   0  0  0  0  0  0  0  0  0  0  0  0
  162.1350  205.9200  145.8260 C   0  0  0  0  0  2  0  0  0  0  0  0
  161.2200  202.8060  145.8130 S   0  0  2  0  0  0  0  0  0  0  0  0
  162.3040  203.6450  147.0070 C   0  0  2  0  0  3  0  0  0  0  0  0
  159.8910  204.3200  145.1720 S   0  0  0  0  0  0  0  0  0  0  0  0
  1 14  1  0  0  0  0
  2  3  1  1  0  0  0
  3  7  2  0  0  0  0
  3 19  1  0  0  0  0
  4 11  1  0  0  0  0
  4 15  2  0  0  0  0
  5 14  1  6  0  0  0
  5  2  1  0  0  0  0
  6 17  1  0  0  0  0
  6  1  1  0  0  0  0
  7  4  1  0  0  0  0
  8 23  1  6  0  0  0
  8 13  1  0  0  0  0
  9  1  2  0  0  0  0
 10 19  1  0  0  0  0
 12  8  1  0  0  0  0
 13  2  1  0  0  0  0
 13 18  1  1  0  0  0
 16 17  1  6  0  0  0
 16 12  1  0  0  0  0
 16  5  1  0  0  0  0
 18 10  1  0  0  0  0
 19 20  2  0  0  0  0
 20 15  1  0  0  0  0
 22 21  2  0  0  0  0
 22 23  1  0  0  0  0
 24 31  1  0  0  0  0
 24 28  1  0  0  0  0
 25 30  1  0  0  0  0
 27 24  2  0  0  0  0
 28 25  1  0  0  0  0
 29 26  2  1  0  0  0
 29 30  1  0  0  0  0
 30 22  1  1  0  0  0
 31 29  1  0  0  0  0
M  END
>  <MODEL>
7

>  <REMARK>
 VINA RESULT:      -0.0      4.113      7.907
  Name = 
  2 active torsions:
  status: ('A' for Active; 'I' for Inactive)
    1  A    between atoms: C_5  and  C_30
    2  A    between atoms: C_10  and  N_16
                            x       y       z     vdW  Elec       q    Type
                         _______ _______ _______ _____ _____    ______ ____

>  <TORSDO>
F 2

$$$$
=
 OpenBabel11122413103D

 31 35  0  0  1  0  0  0  0  0999 V2000
  160.6290  205.8660  145.4330 C   0  0  0  0  0  0  0  0  0  0  0  0
  160.4100  205.8970  149.2670 C   0  0  2  0  0  3  0  0  0  0  0  0
  160.7490  204.8490  150.3100 C   0  0  0  0  0  0  0  0  0  0  0  0
  161.0040  202.5190  150.9540 C   0  0  0  0  0  0  0  0  0  0  0  0
  160.9280  205.5260  147.8690 C   0  0  1  0  0  3  0  0  0  0  0  0
  162.1090  205.8070  145.1900 C   0  0  0  0  0  2  0  0  0  0  0  0
  160.7090  203.4840  149.9880 C   0  0  0  0  0  3  0  0  0  0  0  0
  162.3540  207.6180  149.3970 C   0  0  2  0  0  3  0  0  0  0  0  0
  159.8550  205.6380  144.5190 O   0  0  0  0  0  0  0  0  0  0  0  0
  161.0470  206.6130  152.0030 N   0  0  0  0  0  2  0  0  0  0  0  0
  160.9750  201.2040  150.6280 F   0  0  0  0  0  0  0  0  0  0  0  0
  163.1440  206.4070  148.8820 C   0  0  0  0  0  2  0  0  0  0  0  0
  160.8710  207.3190  149.6630 C   0  0  2  0  0  3  0  0  0  0  0  0
  160.0990  206.2230  146.7880 C   0  0  0  0  0  2  0  0  0  0  0  0
  161.3330  202.9090  152.2540 C   0  0  0  0  0  3  0  0  0  0  0  0
  162.4670  205.7110  147.6980 C   0  0  2  0  0  3  0  0  0  0  0  0
  162.8780  206.3760  146.3800 C   0  0  0  0  0  2  0  0  0  0  0  0
  160.5060  207.6320  151.1100 C   0  0  0  0  0  2  0  0  0  0  0  0
  161.0430  205.2330  151.6350 C   0  0  0  0  0  0  0  0  0  0  0  0
  161.3520  204.2630  152.5940 C   0  0  0  0  0  3  0  0  0  0  0  0
  162.0260  210.3760  150.0880 O   0  0  0  0  0  0  0  0  0  0  0  0
  162.2610  210.0990  148.8810 C   0  0  0  0  0  0  0  0  0  0  0  0
  162.4630  208.7430  148.4780 N   0  0  0  0  0  2  0  0  0  0  0  0
  160.2670  213.3360  148.5880 C   0  0  0  0  0  0  0  0  0  0  0  0
  162.6270  212.5720  148.5080 C   0  0  0  0  0  2  0  0  0  0  0  0
  160.5150  209.8220  146.5260 O   0  0  0  0  0  0  0  0  0  0  0  0
  159.9740  214.4530  148.1990 O   0  0  0  0  0  0  0  0  0  0  0  0
  161.5040  213.1180  149.3950 C   0  0  0  0  0  2  0  0  0  0  0  0
  160.8470  211.2820  146.8000 S   0  0  2  0  0  0  0  0  0  0  0  0
  162.3110  211.2100  147.8760 C   0  0  2  0  0  3  0  0  0  0  0  0
  159.2950  211.9220  148.0860 S   0  0  0  0  0  0  0  0  0  0  0  0
  1 14  1  0  0  0  0
  2 13  1  0  0  0  0
  2  3  1  1  0  0  0
  3 19  1  0  0  0  0
  4 15  2  0  0  0  0
  5 14  1  6  0  0  0
  5  2  1  0  0  0  0
  6  1  1  0  0  0  0
  6 17  1  0  0  0  0
  7  3  2  0  0  0  0
  7  4  1  0  0  0  0
  8 23  1  6  0  0  0
  8 13  1  0  0  0  0
  9  1  2  0  0  0  0
 11  4  1  0  0  0  0
 12  8  1  0  0  0  0
 13 18  1  1  0  0  0
 15 20  1  0  0  0  0
 16 17  1  6  0  0  0
 16  5  1  0  0  0  0
 16 12  1  0  0  0  0
 18 10  1  0  0  0  0
 19 10  1  0  0  0  0
 19 20  2  0  0  0  0
 22 21  2  0  0  0  0
 23 22  1  0  0  0  0
 24 28  1  0  0  0  0
 25 28  1  0  0  0  0
 27 24  2  0  0  0  0
 29 26  2  1  0  0  0
 29 30  1  0  0  0  0
 29 31  1  0  0  0  0
 30 25  1  0  0  0  0
 30 22  1  1  0  0  0
 31 24  1  0  0  0  0
M  END
>  <MODEL>
8

>  <REMARK>
 VINA RESULT:       0.2      3.059      5.460
  Name = 
  2 active torsions:
  status: ('A' for Active; 'I' for Inactive)
    1  A    between atoms: C_5  and  C_30
    2  A    between atoms: C_10  and  N_16
                            x       y       z     vdW  Elec       q    Type
                         _______ _______ _______ _____ _____    ______ ____

>  <TORSDO>
F 2

$$$$
=
 OpenBabel11122413103D

 31 35  0  0  1  0  0  0  0  0999 V2000
  161.5550  208.3960  148.4640 C   0  0  0  0  0  0  0  0  0  0  0  0
  160.5210  205.2230  150.3630 C   0  0  2  0  0  3  0  0  0  0  0  0
  160.7740  203.7520  150.0930 C   0  0  0  0  0  0  0  0  0  0  0  0
  161.2110  201.9390  148.5330 C   0  0  0  0  0  0  0  0  0  0  0  0
  161.3730  206.1410  149.4730 C   0  0  1  0  0  3  0  0  0  0  0  0
  163.0460  208.4090  148.6360 C   0  0  0  0  0  2  0  0  0  0  0  0
  160.9950  203.2960  148.7840 C   0  0  0  0  0  3  0  0  0  0  0  0
  162.1300  205.8260  152.3140 C   0  0  2  0  0  3  0  0  0  0  0  0
  161.0340  209.1240  147.6350 O   0  0  0  0  0  0  0  0  0  0  0  0
  160.4520  203.2450  152.4810 N   0  0  0  0  0  2  0  0  0  0  0  0
  161.4370  201.5120  147.2680 F   0  0  0  0  0  0  0  0  0  0  0  0
  163.1740  205.5250  151.2290 C   0  0  0  0  0  2  0  0  0  0  0  0
  160.6810  205.6020  151.8540 C   0  0  2  0  0  3  0  0  0  0  0  0
  160.7030  207.5090  149.3190 C   0  0  0  0  0  2  0  0  0  0  0  0
  161.1970  201.0220  149.5870 C   0  0  0  0  0  3  0  0  0  0  0  0
  162.8700  206.2180  149.8990 C   0  0  2  0  0  3  0  0  0  0  0  0
  163.4560  207.6350  149.8860 C   0  0  0  0  0  2  0  0  0  0  0  0
  159.9760  204.5960  152.7560 C   0  0  0  0  0  2  0  0  0  0  0  0
  160.7210  202.8150  151.1450 C   0  0  0  0  0  0  0  0  0  0  0  0
  160.9510  201.4590  150.8900 C   0  0  0  0  0  3  0  0  0  0  0  0
  160.8760  206.8810  154.6590 O   0  0  0  0  0  0  0  0  0  0  0  0
  161.5960  207.6610  153.9810 C   0  0  0  0  0  0  0  0  0  0  0  0
  162.2740  207.1860  152.8150 N   0  0  0  0  0  2  0  0  0  0  0  0
  159.5880  209.7460  156.4610 C   0  0  0  0  0  0  0  0  0  0  0  0
  161.9570  209.2470  155.9150 C   0  0  0  0  0  2  0  0  0  0  0  0
  160.0810  209.6380  152.4110 O   0  0  0  0  0  0  0  0  0  0  0  0
  159.3150  210.6820  157.1930 O   0  0  0  0  0  0  0  0  0  0  0  0
  160.7480  208.8600  156.7720 C   0  0  0  0  0  2  0  0  0  0  0  0
  160.3630  210.1470  153.8180 S   0  0  2  0  0  0  0  0  0  0  0  0
  161.7220  209.0920  154.4070 C   0  0  2  0  0  3  0  0  0  0  0  0
  158.6890  209.5000  154.9360 S   0  0  0  0  0  0  0  0  0  0  0  0
  1  6  1  0  0  0  0
  1 14  1  0  0  0  0
  2  3  1  1  0  0  0
  2 13  1  0  0  0  0
  3 19  1  0  0  0  0
  4  7  1  0  0  0  0
  4 15  2  0  0  0  0
  5 14  1  1  0  0  0
  5 16  1  0  0  0  0
  5  2  1  0  0  0  0
  6 17  1  0  0  0  0
  7  3  2  0  0  0  0
  8 23  1  6  0  0  0
  9  1  2  0  0  0  0
 10 18  1  0  0  0  0
 11  4  1  0  0  0  0
 12  8  1  0  0  0  0
 13  8  1  0  0  0  0
 13 18  1  1  0  0  0
 15 20  1  0  0  0  0
 16 17  1  1  0  0  0
 16 12  1  0  0  0  0
 19 10  1  0  0  0  0
 20 19  2  0  0  0  0
 22 21  2  0  0  0  0
 23 22  1  0  0  0  0
 24 28  1  0  0  0  0
 24 27  2  0  0  0  0
 25 28  1  0  0  0  0
 29 26  2  6  0  0  0
 29 30  1  0  0  0  0
 29 31  1  0  0  0  0
 30 22  1  1  0  0  0
 30 25  1  0  0  0  0
 31 24  1  0  0  0  0
M  END
>  <MODEL>
9

>  <REMARK>
 VINA RESULT:       0.2      2.922      4.799
  Name = 
  2 active torsions:
  status: ('A' for Active; 'I' for Inactive)
    1  A    between atoms: C_5  and  C_30
    2  A    between atoms: C_10  and  N_16
                            x       y       z     vdW  Elec       q    Type
                         _______ _______ _______ _____ _____    ______ ____

>  <TORSDO>
F 2

$$$$
