=
 OpenBabel11122414003D

 37 41  0  0  1  0  0  0  0  0999 V2000
  161.9320  210.9990  150.2370 C   0  0  1  0  0  3  0  0  0  0  0  0
  161.9560  207.5330  151.8610 C   0  0  0  0  0  2  0  0  0  0  0  0
  161.7310  212.0240  147.9140 C   0  0  2  0  0  3  0  0  0  0  0  0
  161.5920  209.5510  150.2770 C   0  0  2  0  0  3  0  0  0  0  0  0
  162.5530  211.1360  148.8640 C   0  0  2  0  0  3  0  0  0  0  0  0
  161.9420  209.0530  151.6960 C   0  0  1  0  0  3  0  0  0  0  0  0
  161.3870  213.3550  148.5980 C   0  0  0  0  0  2  0  0  0  0  0  0
  162.7700  209.8560  148.3130 O   0  0  0  0  0  0  0  0  0  0  0  0
  160.3910  211.8530  151.8570 C   0  0  0  0  0  2  0  0  0  0  0  0
  161.0500  213.2010  150.0850 C   0  0  0  0  0  2  0  0  0  0  0  0
  160.1260  207.2270  150.2690 O   0  0  0  0  0  0  0  0  0  0  0  0
  160.6090  206.8700  151.5390 C   0  0  0  0  0  2  0  0  0  0  0  0
  160.7240  211.8190  150.4310 N   0  0  1  0  0  0  0  0  0  0  0  0
  162.3900  208.9040  149.2280 N   0  0  2  0  0  0  0  0  0  0  0  0
  161.1190  209.6890  152.7430 N   0  0  0  0  0  0  0  0  0  0  0  0
  161.0700  206.7670  149.3430 C   0  0  0  0  0  2  0  0  0  0  0  0
  161.5800  207.9230  148.4740 C   0  0  2  0  0  3  0  0  0  0  0  0
  159.9440  210.4870  152.3740 C   0  0  0  0  0  2  0  0  0  0  0  0
  162.4210  210.6960  154.5940 C   0  0  0  0  0  3  0  0  0  0  0  0
  161.5640  209.6900  154.1160 C   0  0  0  0  0  0  0  0  0  0  0  0
  161.1440  208.6830  155.0040 C   0  0  0  0  0  3  0  0  0  0  0  0
  161.1180  207.6120  157.2590 C   0  0  0  0  0  1  0  0  0  0  0  0
  162.4240  209.6890  156.7950 C   0  0  0  0  0  3  0  0  0  0  0  0
  161.5720  208.6830  156.3340 C   0  0  0  0  0  0  0  0  0  0  0  0
  162.8480  210.6960  155.9240 C   0  0  0  0  0  3  0  0  0  0  0  0
  162.3730  207.3620  147.4490 O   0  0  0  0  0  0  0  0  0  0  0  0
  161.7350  206.2270  146.8940 C   0  0  1  0  0  3  0  0  0  0  0  0
  160.9720  205.7910  144.6690 O   0  0  0  0  0  1  0  0  0  0  0  0
  160.7220  206.5660  145.8010 C   0  0  0  0  0  2  0  0  0  0  0  0
  162.7170  205.1380  146.4790 C   0  0  0  0  0  2  0  0  0  0  0  0
  162.1570  203.7530  146.7600 C   0  0  0  0  0  2  0  0  0  0  0  0
  161.6390  203.6880  148.1140 N   0  0  0  0  0  1  0  0  0  0  0  0
  160.5520  211.3650  147.5130 O   0  0  0  0  0  0  0  0  0  0  0  0
  159.8640  212.1820  146.5890 C   0  0  0  0  0  0  0  0  0  0  0  0
  158.6290  212.5560  147.0920 F   0  0  0  0  0  0  0  0  0  0  0  0
  160.5970  213.3150  146.2670 F   0  0  0  0  0  0  0  0  0  0  0  0
  159.6550  211.4560  145.4320 F   0  0  0  0  0  0  0  0  0  0  0  0
  1  4  1  0  0  0  0
  1 13  1  0  0  0  0
  3  7  1  0  0  0  0
  3  5  1  0  0  0  0
  4  6  1  0  0  0  0
  5  1  1  0  0  0  0
  6  2  1  0  0  0  0
  6 15  1  0  0  0  0
  7 10  1  0  0  0  0
  8  5  1  0  0  0  0
  8 14  1  0  0  0  0
  9 18  1  0  0  0  0
 10 13  1  0  0  0  0
 11 12  1  0  0  0  0
 12  2  1  0  0  0  0
 13  9  1  0  0  0  0
 14  4  1  0  0  0  0
 15 20  1  0  0  0  0
 16 11  1  0  0  0  0
 17 14  1  0  0  0  0
 17 16  1  0  0  0  0
 18 15  1  0  0  0  0
 19 25  1  0  0  0  0
 20 19  2  0  0  0  0
 20 21  1  0  0  0  0
 21 24  2  0  0  0  0
 24 23  1  0  0  0  0
 24 22  1  0  0  0  0
 25 23  2  0  0  0  0
 26 17  1  0  0  0  0
 27 26  1  0  0  0  0
 28 29  1  0  0  0  0
 29 27  1  0  0  0  0
 30 31  1  0  0  0  0
 30 27  1  0  0  0  0
 31 32  1  0  0  0  0
 33  3  1  0  0  0  0
 34 35  1  0  0  0  0
 34 33  1  0  0  0  0
 36 34  1  0  0  0  0
 37 34  1  0  0  0  0
M  END
>  <MODEL>
1

>  <REMARK>
 VINA RESULT:      -5.0      0.000      0.000
  Name = 
  8 active torsions:
  status: ('A' for Active; 'I' for Inactive)
    1  A    between atoms: O_1  and  C_4
    2  A    between atoms: O_1  and  C_27
    3  A    between atoms: C_2  and  O_22
    4  A    between atoms: C_4  and  C_12
    5  A    between atoms: C_4  and  C_37
    6  A    between atoms: C_6  and  O_22
    7  A    between atoms: C_8  and  C_12
    8  A    between atoms: N_23  and  C_30
                            x       y       z     vdW  Elec       q    Type
                         _______ _______ _______ _____ _____    ______ ____

>  <TORSDO>
F 8

$$$$
=
 OpenBabel11122414003D

 37 41  0  0  1  0  0  0  0  0999 V2000
  161.8770  205.3210  151.0220 C   0  0  1  0  0  3  0  0  0  0  0  0
  161.6770  205.2680  147.2000 C   0  0  0  0  0  2  0  0  0  0  0  0
  161.9780  207.0270  152.9100 C   0  0  2  0  0  3  0  0  0  0  0  0
  161.5270  205.9170  149.7040 C   0  0  2  0  0  3  0  0  0  0  0  0
  162.6680  206.4370  151.6680 C   0  0  2  0  0  3  0  0  0  0  0  0
  161.6910  204.7960  148.6540 C   0  0  1  0  0  3  0  0  0  0  0  0
  161.5560  205.9020  153.8670 C   0  0  0  0  0  2  0  0  0  0  0  0
  162.9460  207.4360  150.7120 O   0  0  0  0  0  0  0  0  0  0  0  0
  160.1470  203.6800  151.2310 C   0  0  0  0  0  2  0  0  0  0  0  0
  161.0320  204.6570  153.1420 C   0  0  0  0  0  2  0  0  0  0  0  0
  160.0620  207.0420  147.6690 O   0  0  0  0  0  0  0  0  0  0  0  0
  160.3780  205.9830  146.8020 C   0  0  0  0  0  2  0  0  0  0  0  0
  160.6580  204.9470  151.7590 N   0  0  1  0  0  0  0  0  0  0  0  0
  162.4480  207.0400  149.4940 N   0  0  2  0  0  0  0  0  0  0  0  0
  160.7450  203.6820  148.8560 N   0  0  0  0  0  0  0  0  0  0  0  0
  161.1140  207.9610  147.5730 C   0  0  0  0  0  2  0  0  0  0  0  0
  161.7360  208.2170  148.9510 C   0  0  2  0  0  3  0  0  0  0  0  0
  159.6310  203.8220  149.8000 C   0  0  0  0  0  2  0  0  0  0  0  0
  161.6690  201.3880  149.0140 C   0  0  0  0  0  3  0  0  0  0  0  0
  161.0130  202.3880  148.2750 C   0  0  0  0  0  0  0  0  0  0  0  0
  160.6170  202.1020  146.9560 C   0  0  0  0  0  3  0  0  0  0  0  0
  160.4470  200.5630  144.9970 C   0  0  0  0  0  1  0  0  0  0  0  0
  161.5260  199.8660  147.1380 C   0  0  0  0  0  3  0  0  0  0  0  0
  160.8720  200.8490  146.3920 C   0  0  0  0  0  0  0  0  0  0  0  0
  161.9240  200.1360  148.4500 C   0  0  0  0  0  3  0  0  0  0  0  0
  162.6500  209.2840  148.8100 O   0  0  0  0  0  0  0  0  0  0  0  0
  161.9920  210.5250  148.9860 C   0  0  1  0  0  3  0  0  0  0  0  0
  162.7690  210.4400  151.2480 O   0  0  0  0  0  1  0  0  0  0  0  0
  161.7090  210.8670  150.4480 C   0  0  0  0  0  2  0  0  0  0  0  0
  162.6630  211.6650  148.2270 C   0  0  0  0  0  2  0  0  0  0  0  0
  161.6550  212.7290  147.8270 C   0  0  0  0  0  2  0  0  0  0  0  0
  160.5700  212.1320  147.0680 N   0  0  0  0  0  1  0  0  0  0  0  0
  160.8560  207.7940  152.5380 O   0  0  0  0  0  0  0  0  0  0  0  0
  160.6700  208.8210  153.4900 C   0  0  0  0  0  0  0  0  0  0  0  0
  159.9180  209.8530  152.9530 F   0  0  0  0  0  0  0  0  0  0  0  0
  160.0540  208.3460  154.6390 F   0  0  0  0  0  0  0  0  0  0  0  0
  161.9080  209.3270  153.8370 F   0  0  0  0  0  0  0  0  0  0  0  0
  1  5  1  0  0  0  0
  1 13  1  0  0  0  0
  2  6  1  0  0  0  0
  3  7  1  0  0  0  0
  4  1  1  0  0  0  0
  5  3  1  0  0  0  0
  6 15  1  0  0  0  0
  6  4  1  0  0  0  0
  8  5  1  0  0  0  0
  9 13  1  0  0  0  0
 10  7  1  0  0  0  0
 12  2  1  0  0  0  0
 12 11  1  0  0  0  0
 13 10  1  0  0  0  0
 14  4  1  0  0  0  0
 14  8  1  0  0  0  0
 15 18  1  0  0  0  0
 16 11  1  0  0  0  0
 16 17  1  0  0  0  0
 17 14  1  0  0  0  0
 18  9  1  0  0  0  0
 20 15  1  0  0  0  0
 20 19  2  0  0  0  0
 21 20  1  0  0  0  0
 22 24  1  0  0  0  0
 23 25  2  0  0  0  0
 24 21  2  0  0  0  0
 24 23  1  0  0  0  0
 25 19  1  0  0  0  0
 26 17  1  0  0  0  0
 26 27  1  0  0  0  0
 27 29  1  0  0  0  0
 29 28  1  0  0  0  0
 30 27  1  0  0  0  0
 31 30  1  0  0  0  0
 32 31  1  0  0  0  0
 33  3  1  0  0  0  0
 33 34  1  0  0  0  0
 34 37  1  0  0  0  0
 34 36  1  0  0  0  0
 35 34  1  0  0  0  0
M  END
>  <MODEL>
2

>  <REMARK>
 VINA RESULT:      -4.9      3.224      7.893
  Name = 
  8 active torsions:
  status: ('A' for Active; 'I' for Inactive)
    1  A    between atoms: O_1  and  C_4
    2  A    between atoms: O_1  and  C_27
    3  A    between atoms: C_2  and  O_22
    4  A    between atoms: C_4  and  C_12
    5  A    between atoms: C_4  and  C_37
    6  A    between atoms: C_6  and  O_22
    7  A    between atoms: C_8  and  C_12
    8  A    between atoms: N_23  and  C_30
                            x       y       z     vdW  Elec       q    Type
                         _______ _______ _______ _____ _____    ______ ____

>  <TORSDO>
F 8

$$$$
=
 OpenBabel11122414003D

 37 41  0  0  1  0  0  0  0  0999 V2000
  160.3650  205.0020  151.0970 C   0  0  1  0  0  3  0  0  0  0  0  0
  161.2240  208.6720  150.4350 C   0  0  0  0  0  2  0  0  0  0  0  0
  160.3290  202.7870  149.8410 C   0  0  2  0  0  3  0  0  0  0  0  0
  161.0720  206.0860  150.3650 C   0  0  2  0  0  3  0  0  0  0  0  0
  159.7530  204.2080  149.9650 C   0  0  2  0  0  3  0  0  0  0  0  0
  160.8410  207.3850  151.1680 C   0  0  1  0  0  3  0  0  0  0  0  0
  160.3010  202.0830  151.2050 C   0  0  0  0  0  2  0  0  0  0  0  0
  159.8880  204.9240  148.7570 O   0  0  0  0  0  0  0  0  0  0  0  0
  161.6020  204.9820  153.1470 C   0  0  0  0  0  2  0  0  0  0  0  0
  160.6410  203.0150  152.3740 C   0  0  0  0  0  2  0  0  0  0  0  0
  163.0960  207.6000  149.2860 O   0  0  0  0  0  0  0  0  0  0  0  0
  162.7020  208.7280  150.0260 C   0  0  0  0  0  2  0  0  0  0  0  0
  161.3130  204.2330  151.9230 N   0  0  1  0  0  0  0  0  0  0  0  0
  160.4890  206.1320  149.0180 N   0  0  2  0  0  0  0  0  0  0  0  0
  161.4520  207.3420  152.5110 N   0  0  0  0  0  0  0  0  0  0  0  0
  162.3210  207.6010  148.1200 C   0  0  0  0  0  2  0  0  0  0  0  0
  161.5400  206.2880  147.9900 C   0  0  2  0  0  3  0  0  0  0  0  0
  162.3830  206.2640  152.8640 C   0  0  0  0  0  2  0  0  0  0  0  0
  160.7730  207.7840  154.8520 C   0  0  0  0  0  3  0  0  0  0  0  0
  160.9990  208.2440  153.5430 C   0  0  0  0  0  0  0  0  0  0  0  0
  160.7790  209.6040  153.2580 C   0  0  0  0  0  3  0  0  0  0  0  0
  160.1160  211.9130  153.9380 C   0  0  0  0  0  1  0  0  0  0  0  0
  160.1220  210.0080  155.5520 C   0  0  0  0  0  3  0  0  0  0  0  0
  160.3430  210.4790  154.2560 C   0  0  0  0  0  0  0  0  0  0  0  0
  160.3380  208.6600  155.8500 C   0  0  0  0  0  3  0  0  0  0  0  0
  160.9390  206.2790  146.7120 O   0  0  0  0  0  0  0  0  0  0  0  0
  161.8900  205.9430  145.7200 C   0  0  1  0  0  3  0  0  0  0  0  0
  163.5810  204.3280  145.2110 O   0  0  0  0  0  1  0  0  0  0  0  0
  163.0510  205.0990  146.2450 C   0  0  0  0  0  2  0  0  0  0  0  0
  161.2550  205.3620  144.4610 C   0  0  0  0  0  2  0  0  0  0  0  0
  160.0440  204.5070  144.7980 C   0  0  0  0  0  2  0  0  0  0  0  0
  160.4090  203.1010  144.7990 N   0  0  0  0  0  1  0  0  0  0  0  0
  161.6460  202.8260  149.3420 O   0  0  0  0  0  0  0  0  0  0  0  0
  161.7230  202.0080  148.1920 C   0  0  0  0  0  0  0  0  0  0  0  0
  162.4380  202.6420  147.1900 F   0  0  0  0  0  0  0  0  0  0  0  0
  162.3070  200.7830  148.4770 F   0  0  0  0  0  0  0  0  0  0  0  0
  160.4410  201.7820  147.7280 F   0  0  0  0  0  0  0  0  0  0  0  0
  1 13  1  0  0  0  0
  2  6  1  0  0  0  0
  3  5  1  0  0  0  0
  3  7  1  0  0  0  0
  4  1  1  0  0  0  0
  4  6  1  0  0  0  0
  5  1  1  0  0  0  0
  6 15  1  0  0  0  0
  7 10  1  0  0  0  0
  8 14  1  0  0  0  0
  8  5  1  0  0  0  0
 11 12  1  0  0  0  0
 12  2  1  0  0  0  0
 13 10  1  0  0  0  0
 13  9  1  0  0  0  0
 14  4  1  0  0  0  0
 15 18  1  0  0  0  0
 15 20  1  0  0  0  0
 16 11  1  0  0  0  0
 17 16  1  0  0  0  0
 17 14  1  0  0  0  0
 18  9  1  0  0  0  0
 19 25  1  0  0  0  0
 20 19  2  0  0  0  0
 21 20  1  0  0  0  0
 21 24  2  0  0  0  0
 22 24  1  0  0  0  0
 23 25  2  0  0  0  0
 24 23  1  0  0  0  0
 26 17  1  0  0  0  0
 27 29  1  0  0  0  0
 27 26  1  0  0  0  0
 28 29  1  0  0  0  0
 30 31  1  0  0  0  0
 30 27  1  0  0  0  0
 31 32  1  0  0  0  0
 33  3  1  0  0  0  0
 34 36  1  0  0  0  0
 34 33  1  0  0  0  0
 35 34  1  0  0  0  0
 37 34  1  0  0  0  0
M  END
>  <MODEL>
3

>  <REMARK>
 VINA RESULT:      -4.4      3.901      6.046
  Name = 
  8 active torsions:
  status: ('A' for Active; 'I' for Inactive)
    1  A    between atoms: O_1  and  C_4
    2  A    between atoms: O_1  and  C_27
    3  A    between atoms: C_2  and  O_22
    4  A    between atoms: C_4  and  C_12
    5  A    between atoms: C_4  and  C_37
    6  A    between atoms: C_6  and  O_22
    7  A    between atoms: C_8  and  C_12
    8  A    between atoms: N_23  and  C_30
                            x       y       z     vdW  Elec       q    Type
                         _______ _______ _______ _____ _____    ______ ____

>  <TORSDO>
F 8

$$$$
=
 OpenBabel11122414003D

 37 41  0  0  1  0  0  0  0  0999 V2000
  160.5060  205.1790  151.0720 C   0  0  1  0  0  3  0  0  0  0  0  0
  161.2470  208.7860  150.0280 C   0  0  0  0  0  2  0  0  0  0  0  0
  160.3040  202.8780  150.0000 C   0  0  2  0  0  3  0  0  0  0  0  0
  161.0980  206.2030  150.1700 C   0  0  2  0  0  3  0  0  0  0  0  0
  159.7450  204.3080  150.0980 C   0  0  2  0  0  3  0  0  0  0  0  0
  160.9770  207.5580  150.9000 C   0  0  1  0  0  3  0  0  0  0  0  0
  160.4710  202.2760  151.4030 C   0  0  0  0  0  2  0  0  0  0  0  0
  159.7060  204.9320  148.8340 O   0  0  0  0  0  0  0  0  0  0  0  0
  162.0170  205.3030  152.9250 C   0  0  0  0  0  2  0  0  0  0  0  0
  160.9670  203.2900  152.4400 C   0  0  0  0  0  2  0  0  0  0  0  0
  162.9440  207.6210  148.7100 O   0  0  0  0  0  0  0  0  0  0  0  0
  162.6530  208.8020  149.4130 C   0  0  0  0  0  2  0  0  0  0  0  0
  161.5630  204.4670  151.8110 N   0  0  1  0  0  0  0  0  0  0  0  0
  160.3320  206.1530  148.9190 N   0  0  2  0  0  0  0  0  0  0  0  0
  161.7690  207.6110  152.1430 N   0  0  0  0  0  0  0  0  0  0  0  0
  162.0140  207.5410  147.6670 C   0  0  0  0  0  2  0  0  0  0  0  0
  161.2280  206.2260  147.7450 C   0  0  2  0  0  3  0  0  0  0  0  0
  162.7450  206.5560  152.4410 C   0  0  0  0  0  2  0  0  0  0  0  0
  161.7000  209.9560  152.9380 C   0  0  0  0  0  3  0  0  0  0  0  0
  161.4620  208.5880  153.1600 C   0  0  0  0  0  0  0  0  0  0  0  0
  160.9130  208.1900  154.3920 C   0  0  0  0  0  3  0  0  0  0  0  0
  160.0310  208.6960  156.6720 C   0  0  0  0  0  1  0  0  0  0  0  0
  160.8540  210.4900  155.1430 C   0  0  0  0  0  3  0  0  0  0  0  0
  160.6110  209.1340  155.3760 C   0  0  0  0  0  0  0  0  0  0  0  0
  161.3980  210.9000  153.9230 C   0  0  0  0  0  3  0  0  0  0  0  0
  160.4540  206.1270  146.5680 O   0  0  0  0  0  0  0  0  0  0  0  0
  161.0190  205.1790  145.6820 C   0  0  1  0  0  3  0  0  0  0  0  0
  160.1040  203.2820  144.5480 O   0  0  0  0  0  1  0  0  0  0  0  0
  160.0440  204.6730  144.6200 C   0  0  0  0  0  2  0  0  0  0  0  0
  162.3520  205.6350  145.0980 C   0  0  0  0  0  2  0  0  0  0  0  0
  163.3970  204.5340  145.1830 C   0  0  0  0  0  2  0  0  0  0  0  0
  164.0600  204.5720  146.4740 N   0  0  0  0  0  1  0  0  0  0  0  0
  161.5380  202.8720  149.3200 O   0  0  0  0  0  0  0  0  0  0  0  0
  161.4450  201.9970  148.2140 C   0  0  0  0  0  0  0  0  0  0  0  0
  162.1370  200.8230  148.4620 F   0  0  0  0  0  0  0  0  0  0  0  0
  160.1250  201.7030  147.9060 F   0  0  0  0  0  0  0  0  0  0  0  0
  162.0210  202.6120  147.1190 F   0  0  0  0  0  0  0  0  0  0  0  0
  1 13  1  0  0  0  0
  2  6  1  0  0  0  0
  3  5  1  0  0  0  0
  3  7  1  0  0  0  0
  4  6  1  0  0  0  0
  4  1  1  0  0  0  0
  5  1  1  0  0  0  0
  6 15  1  0  0  0  0
  7 10  1  0  0  0  0
  8 14  1  0  0  0  0
  8  5  1  0  0  0  0
 11 12  1  0  0  0  0
 12  2  1  0  0  0  0
 13 10  1  0  0  0  0
 13  9  1  0  0  0  0
 14  4  1  0  0  0  0
 15 18  1  0  0  0  0
 15 20  1  0  0  0  0
 16 17  1  0  0  0  0
 16 11  1  0  0  0  0
 17 14  1  0  0  0  0
 18  9  1  0  0  0  0
 19 20  2  0  0  0  0
 19 25  1  0  0  0  0
 20 21  1  0  0  0  0
 21 24  2  0  0  0  0
 23 24  1  0  0  0  0
 24 22  1  0  0  0  0
 25 23  2  0  0  0  0
 26 17  1  0  0  0  0
 27 26  1  0  0  0  0
 28 29  1  0  0  0  0
 29 27  1  0  0  0  0
 30 31  1  0  0  0  0
 30 27  1  0  0  0  0
 31 32  1  0  0  0  0
 33  3  1  0  0  0  0
 34 35  1  0  0  0  0
 34 33  1  0  0  0  0
 36 34  1  0  0  0  0
 37 34  1  0  0  0  0
M  END
>  <MODEL>
4

>  <REMARK>
 VINA RESULT:      -4.1      3.814      5.858
  Name = 
  8 active torsions:
  status: ('A' for Active; 'I' for Inactive)
    1  A    between atoms: O_1  and  C_4
    2  A    between atoms: O_1  and  C_27
    3  A    between atoms: C_2  and  O_22
    4  A    between atoms: C_4  and  C_12
    5  A    between atoms: C_4  and  C_37
    6  A    between atoms: C_6  and  O_22
    7  A    between atoms: C_8  and  C_12
    8  A    between atoms: N_23  and  C_30
                            x       y       z     vdW  Elec       q    Type
                         _______ _______ _______ _____ _____    ______ ____

>  <TORSDO>
F 8

$$$$
=
 OpenBabel11122414003D

 37 41  0  0  1  0  0  0  0  0999 V2000
  160.7400  206.4010  150.5960 C   0  0  1  0  0  3  0  0  0  0  0  0
  161.2340  209.8330  152.2160 C   0  0  0  0  0  2  0  0  0  0  0  0
  161.0190  205.3020  148.3160 C   0  0  2  0  0  3  0  0  0  0  0  0
  161.3680  207.7470  150.6850 C   0  0  2  0  0  3  0  0  0  0  0  0
  160.2860  206.3640  149.1540 C   0  0  2  0  0  3  0  0  0  0  0  0
  160.9510  208.3400  152.0490 C   0  0  1  0  0  3  0  0  0  0  0  0
  160.9880  203.9450  149.0330 C   0  0  0  0  0  2  0  0  0  0  0  0
  160.4140  207.6470  148.5840 O   0  0  0  0  0  0  0  0  0  0  0  0
  161.8490  205.2830  152.4000 C   0  0  0  0  0  2  0  0  0  0  0  0
  161.1550  204.0600  150.5520 C   0  0  0  0  0  2  0  0  0  0  0  0
  163.2750  209.7160  150.8780 O   0  0  0  0  0  0  0  0  0  0  0  0
  162.7190  210.1940  152.0750 C   0  0  0  0  0  2  0  0  0  0  0  0
  161.7160  205.3520  150.9430 N   0  0  1  0  0  0  0  0  0  0  0  0
  160.8640  208.5210  149.5440 N   0  0  2  0  0  0  0  0  0  0  0  0
  161.4820  207.5710  153.1920 N   0  0  0  0  0  0  0  0  0  0  0  0
  162.5750  210.3390  149.8380 C   0  0  0  0  0  2  0  0  0  0  0  0
  161.9500  209.2940  148.9060 C   0  0  2  0  0  3  0  0  0  0  0  0
  162.5020  206.5390  152.9760 C   0  0  0  0  0  2  0  0  0  0  0  0
  160.1490  206.6300  155.0550 C   0  0  0  0  0  3  0  0  0  0  0  0
  160.8740  207.6950  154.4950 C   0  0  0  0  0  0  0  0  0  0  0  0
  161.0010  208.8870  155.2320 C   0  0  0  0  0  3  0  0  0  0  0  0
  160.5590  210.2740  157.2600 C   0  0  0  0  0  1  0  0  0  0  0  0
  159.6970  207.9410  157.0390 C   0  0  0  0  0  3  0  0  0  0  0  0
  160.4160  209.0090  156.4950 C   0  0  0  0  0  0  0  0  0  0  0  0
  159.5640  206.7510  156.3180 C   0  0  0  0  0  3  0  0  0  0  0  0
  161.4300  209.9830  147.7880 O   0  0  0  0  0  0  0  0  0  0  0  0
  161.5270  211.3820  147.9800 C   0  0  1  0  0  3  0  0  0  0  0  0
  162.7090  212.8330  146.4890 O   0  0  0  0  0  1  0  0  0  0  0  0
  162.8780  211.9650  147.5680 C   0  0  0  0  0  2  0  0  0  0  0  0
  160.3450  212.1450  147.3920 C   0  0  0  0  0  2  0  0  0  0  0  0
  159.9890  213.3520  148.2450 C   0  0  0  0  0  2  0  0  0  0  0  0
  160.2780  213.0820  149.6420 N   0  0  0  0  0  1  0  0  0  0  0  0
  162.3510  205.6930  148.0740 O   0  0  0  0  0  0  0  0  0  0  0  0
  162.6970  205.3400  146.7500 C   0  0  0  0  0  0  0  0  0  0  0  0
  162.5590  206.4270  145.9030 F   0  0  0  0  0  0  0  0  0  0  0  0
  163.9940  204.8540  146.6750 F   0  0  0  0  0  0  0  0  0  0  0  0
  161.8360  204.3480  146.3210 F   0  0  0  0  0  0  0  0  0  0  0  0
  1  4  1  0  0  0  0
  1 13  1  0  0  0  0
  3  7  1  0  0  0  0
  3  5  1  0  0  0  0
  4  6  1  0  0  0  0
  5  1  1  0  0  0  0
  6  2  1  0  0  0  0
  6 15  1  0  0  0  0
  7 10  1  0  0  0  0
  8  5  1  0  0  0  0
  8 14  1  0  0  0  0
  9 18  1  0  0  0  0
 10 13  1  0  0  0  0
 11 12  1  0  0  0  0
 12  2  1  0  0  0  0
 13  9  1  0  0  0  0
 14  4  1  0  0  0  0
 15 20  1  0  0  0  0
 16 11  1  0  0  0  0
 17 14  1  0  0  0  0
 17 16  1  0  0  0  0
 18 15  1  0  0  0  0
 19 25  1  0  0  0  0
 20 19  2  0  0  0  0
 20 21  1  0  0  0  0
 21 24  2  0  0  0  0
 24 23  1  0  0  0  0
 24 22  1  0  0  0  0
 25 23  2  0  0  0  0
 26 27  1  0  0  0  0
 26 17  1  0  0  0  0
 28 29  1  0  0  0  0
 29 27  1  0  0  0  0
 30 27  1  0  0  0  0
 30 31  1  0  0  0  0
 31 32  1  0  0  0  0
 33  3  1  0  0  0  0
 34 33  1  0  0  0  0
 35 34  1  0  0  0  0
 36 34  1  0  0  0  0
 37 34  1  0  0  0  0
M  END
>  <MODEL>
5

>  <REMARK>
 VINA RESULT:      -3.9      2.644      5.675
  Name = 
  8 active torsions:
  status: ('A' for Active; 'I' for Inactive)
    1  A    between atoms: O_1  and  C_4
    2  A    between atoms: O_1  and  C_27
    3  A    between atoms: C_2  and  O_22
    4  A    between atoms: C_4  and  C_12
    5  A    between atoms: C_4  and  C_37
    6  A    between atoms: C_6  and  O_22
    7  A    between atoms: C_8  and  C_12
    8  A    between atoms: N_23  and  C_30
                            x       y       z     vdW  Elec       q    Type
                         _______ _______ _______ _____ _____    ______ ____

>  <TORSDO>
F 8

$$$$
=
 OpenBabel11122414003D

 37 41  0  0  1  0  0  0  0  0999 V2000
  162.2470  208.8770  151.3870 C   0  0  1  0  0  3  0  0  0  0  0  0
  161.5980  207.3270  154.8260 C   0  0  0  0  0  2  0  0  0  0  0  0
  162.3070  208.1600  148.9440 C   0  0  2  0  0  3  0  0  0  0  0  0
  161.6520  207.8550  152.2900 C   0  0  2  0  0  3  0  0  0  0  0  0
  162.9250  208.0160  150.3460 C   0  0  2  0  0  3  0  0  0  0  0  0
  161.8610  208.3640  153.7330 C   0  0  1  0  0  3  0  0  0  0  0  0
  162.1840  209.6430  148.5690 C   0  0  0  0  0  2  0  0  0  0  0  0
  162.9280  206.6710  150.7710 O   0  0  0  0  0  0  0  0  0  0  0  0
  160.8310  210.7500  151.8580 C   0  0  0  0  0  2  0  0  0  0  0  0
  161.7780  210.5340  149.7480 C   0  0  0  0  0  2  0  0  0  0  0  0
  159.7950  206.2730  153.5570 O   0  0  0  0  0  0  0  0  0  0  0  0
  160.1660  206.7760  154.8150 C   0  0  0  0  0  2  0  0  0  0  0  0
  161.1980  209.7590  150.8440 N   0  0  1  0  0  0  0  0  0  0  0  0
  162.3550  206.5950  152.0180 N   0  0  2  0  0  0  0  0  0  0  0  0
  161.1320  209.6170  154.0080 N   0  0  0  0  0  0  0  0  0  0  0  0
  160.6710  205.2170  153.2780 C   0  0  0  0  0  2  0  0  0  0  0  0
  161.4070  205.4610  151.9550 C   0  0  2  0  0  3  0  0  0  0  0  0
  160.1310  210.1110  153.0560 C   0  0  0  0  0  2  0  0  0  0  0  0
  162.8100  210.3530  155.6750 C   0  0  0  0  0  3  0  0  0  0  0  0
  161.5260  210.4590  155.1120 C   0  0  0  0  0  0  0  0  0  0  0  0
  160.6320  211.4060  155.6430 C   0  0  0  0  0  3  0  0  0  0  0  0
  160.0550  213.2190  157.2590 C   0  0  0  0  0  1  0  0  0  0  0  0
  162.2900  212.1070  157.2600 C   0  0  0  0  0  3  0  0  0  0  0  0
  161.0120  212.2240  156.7100 C   0  0  0  0  0  0  0  0  0  0  0  0
  163.1890  211.1720  156.7420 C   0  0  0  0  0  3  0  0  0  0  0  0
  162.1200  204.2820  151.6440 O   0  0  0  0  0  0  0  0  0  0  0  0
  161.2520  203.3120  151.0880 C   0  0  1  0  0  3  0  0  0  0  0  0
  161.5160  203.5960  148.7270 O   0  0  0  0  0  1  0  0  0  0  0  0
  160.6070  203.7480  149.7740 C   0  0  0  0  0  2  0  0  0  0  0  0
  161.8840  201.9260  151.0100 C   0  0  0  0  0  2  0  0  0  0  0  0
  160.9240  200.9160  150.4040 C   0  0  0  0  0  2  0  0  0  0  0  0
  161.3180  200.6040  149.0410 N   0  0  0  0  0  1  0  0  0  0  0  0
  161.0420  207.5400  148.8930 O   0  0  0  0  0  0  0  0  0  0  0  0
  160.9730  206.7390  147.7310 C   0  0  0  0  0  0  0  0  0  0  0  0
  159.9030  205.8630  147.8060 F   0  0  0  0  0  0  0  0  0  0  0  0
  160.8600  207.5140  146.5860 F   0  0  0  0  0  0  0  0  0  0  0  0
  162.1330  205.9950  147.6410 F   0  0  0  0  0  0  0  0  0  0  0  0
  1  4  1  0  0  0  0
  3  5  1  0  0  0  0
  4  6  1  0  0  0  0
  5  8  1  0  0  0  0
  5  1  1  0  0  0  0
  6 15  1  0  0  0  0
  6  2  1  0  0  0  0
  7  3  1  0  0  0  0
  7 10  1  0  0  0  0
  8 14  1  0  0  0  0
  9 18  1  0  0  0  0
 10 13  1  0  0  0  0
 11 12  1  0  0  0  0
 12  2  1  0  0  0  0
 13  1  1  0  0  0  0
 13  9  1  0  0  0  0
 14  4  1  0  0  0  0
 15 20  1  0  0  0  0
 16 11  1  0  0  0  0
 17 14  1  0  0  0  0
 17 16  1  0  0  0  0
 18 15  1  0  0  0  0
 19 25  1  0  0  0  0
 20 21  1  0  0  0  0
 20 19  2  0  0  0  0
 21 24  2  0  0  0  0
 24 22  1  0  0  0  0
 24 23  1  0  0  0  0
 25 23  2  0  0  0  0
 26 17  1  0  0  0  0
 27 26  1  0  0  0  0
 28 29  1  0  0  0  0
 29 27  1  0  0  0  0
 30 27  1  0  0  0  0
 31 30  1  0  0  0  0
 32 31  1  0  0  0  0
 33  3  1  0  0  0  0
 34 35  1  0  0  0  0
 34 33  1  0  0  0  0
 36 34  1  0  0  0  0
 37 34  1  0  0  0  0
M  END
>  <MODEL>
6

>  <REMARK>
 VINA RESULT:      -3.8      2.879      3.931
  Name = 
  8 active torsions:
  status: ('A' for Active; 'I' for Inactive)
    1  A    between atoms: O_1  and  C_4
    2  A    between atoms: O_1  and  C_27
    3  A    between atoms: C_2  and  O_22
    4  A    between atoms: C_4  and  C_12
    5  A    between atoms: C_4  and  C_37
    6  A    between atoms: C_6  and  O_22
    7  A    between atoms: C_8  and  C_12
    8  A    between atoms: N_23  and  C_30
                            x       y       z     vdW  Elec       q    Type
                         _______ _______ _______ _____ _____    ______ ____

>  <TORSDO>
F 8

$$$$
=
 OpenBabel11122414003D

 37 41  0  0  1  0  0  0  0  0999 V2000
  161.8980  205.2950  151.2870 C   0  0  1  0  0  3  0  0  0  0  0  0
  161.8290  205.4290  147.4620 C   0  0  0  0  0  2  0  0  0  0  0  0
  161.9980  206.9040  153.2580 C   0  0  2  0  0  3  0  0  0  0  0  0
  161.6170  205.9650  149.9890 C   0  0  2  0  0  3  0  0  0  0  0  0
  162.7080  206.3460  152.0120 C   0  0  2  0  0  3  0  0  0  0  0  0
  161.7740  204.8890  148.8920 C   0  0  1  0  0  3  0  0  0  0  0  0
  161.5000  205.7540  154.1450 C   0  0  0  0  0  2  0  0  0  0  0  0
  163.0580  207.3760  151.1150 O   0  0  0  0  0  0  0  0  0  0  0  0
  160.0980  203.7170  151.3600 C   0  0  0  0  0  2  0  0  0  0  0  0
  160.9540  204.5660  153.3440 C   0  0  0  0  0  2  0  0  0  0  0  0
  160.2690  207.2430  147.9630 O   0  0  0  0  0  0  0  0  0  0  0  0
  160.5740  206.2140  147.0570 C   0  0  0  0  0  2  0  0  0  0  0  0
  160.6400  204.9350  151.9650 N   0  0  1  0  0  0  0  0  0  0  0  0
  162.5880  207.0590  149.8630 N   0  0  2  0  0  0  0  0  0  0  0  0
  160.7790  203.8050  149.0090 N   0  0  0  0  0  0  0  0  0  0  0  0
  161.3580  208.1220  147.9460 C   0  0  0  0  0  2  0  0  0  0  0  0
  161.9410  208.2870  149.3540 C   0  0  2  0  0  3  0  0  0  0  0  0
  159.6390  203.9470  149.9210 C   0  0  0  0  0  2  0  0  0  0  0  0
  161.6840  201.5000  149.0580 C   0  0  0  0  0  3  0  0  0  0  0  0
  161.0160  202.5300  148.3750 C   0  0  0  0  0  0  0  0  0  0  0  0
  160.5780  202.2940  147.0590 C   0  0  0  0  0  3  0  0  0  0  0  0
  160.3340  200.8270  145.0540 C   0  0  0  0  0  1  0  0  0  0  0  0
  161.4700  200.0460  147.1350 C   0  0  0  0  0  3  0  0  0  0  0  0
  160.8040  201.0600  146.4440 C   0  0  0  0  0  0  0  0  0  0  0  0
  161.9100  200.2660  148.4430 C   0  0  0  0  0  3  0  0  0  0  0  0
  162.9010  209.3220  149.2960 O   0  0  0  0  0  0  0  0  0  0  0  0
  162.3480  210.5360  149.7680 C   0  0  1  0  0  3  0  0  0  0  0  0
  162.8760  211.9540  147.9150 O   0  0  0  0  0  1  0  0  0  0  0  0
  161.8140  211.4400  148.6580 C   0  0  0  0  0  2  0  0  0  0  0  0
  161.3480  210.3310  150.9010 C   0  0  0  0  0  2  0  0  0  0  0  0
  160.5710  211.6060  151.1890 C   0  0  0  0  0  2  0  0  0  0  0  0
  160.3560  211.7490  152.6180 N   0  0  0  0  0  1  0  0  0  0  0  0
  160.9210  207.7330  152.8870 O   0  0  0  0  0  0  0  0  0  0  0  0
  160.4840  208.4500  154.0220 C   0  0  0  0  0  0  0  0  0  0  0  0
  159.6030  209.4540  153.6570 F   0  0  0  0  0  0  0  0  0  0  0  0
  159.8770  207.6150  154.9500 F   0  0  0  0  0  0  0  0  0  0  0  0
  161.5830  209.0380  154.6200 F   0  0  0  0  0  0  0  0  0  0  0  0
  1 13  1  0  0  0  0
  1  5  1  0  0  0  0
  2  6  1  0  0  0  0
  3  7  1  0  0  0  0
  4  1  1  0  0  0  0
  5  3  1  0  0  0  0
  6 15  1  0  0  0  0
  6  4  1  0  0  0  0
  8  5  1  0  0  0  0
  9 13  1  0  0  0  0
 10  7  1  0  0  0  0
 12  2  1  0  0  0  0
 12 11  1  0  0  0  0
 13 10  1  0  0  0  0
 14  4  1  0  0  0  0
 14  8  1  0  0  0  0
 15 18  1  0  0  0  0
 16 11  1  0  0  0  0
 16 17  1  0  0  0  0
 17 14  1  0  0  0  0
 18  9  1  0  0  0  0
 20 15  1  0  0  0  0
 20 19  2  0  0  0  0
 21 20  1  0  0  0  0
 22 24  1  0  0  0  0
 23 25  2  0  0  0  0
 24 21  2  0  0  0  0
 24 23  1  0  0  0  0
 25 19  1  0  0  0  0
 26 17  1  0  0  0  0
 26 27  1  0  0  0  0
 27 30  1  0  0  0  0
 28 29  1  0  0  0  0
 29 27  1  0  0  0  0
 30 31  1  0  0  0  0
 31 32  1  0  0  0  0
 33  3  1  0  0  0  0
 33 34  1  0  0  0  0
 34 37  1  0  0  0  0
 34 36  1  0  0  0  0
 35 34  1  0  0  0  0
M  END
>  <MODEL>
7

>  <REMARK>
 VINA RESULT:      -3.4      3.323      7.946
  Name = 
  8 active torsions:
  status: ('A' for Active; 'I' for Inactive)
    1  A    between atoms: O_1  and  C_4
    2  A    between atoms: O_1  and  C_27
    3  A    between atoms: C_2  and  O_22
    4  A    between atoms: C_4  and  C_12
    5  A    between atoms: C_4  and  C_37
    6  A    between atoms: C_6  and  O_22
    7  A    between atoms: C_8  and  C_12
    8  A    between atoms: N_23  and  C_30
                            x       y       z     vdW  Elec       q    Type
                         _______ _______ _______ _____ _____    ______ ____

>  <TORSDO>
F 8

$$$$
=
 OpenBabel11122414003D

 37 41  0  0  1  0  0  0  0  0999 V2000
  161.8800  205.8840  151.2410 C   0  0  1  0  0  3  0  0  0  0  0  0
  162.7530  208.4530  148.5410 C   0  0  0  0  0  2  0  0  0  0  0  0
  161.3180  205.8320  153.7250 C   0  0  2  0  0  3  0  0  0  0  0  0
  161.8630  207.2530  150.6590 C   0  0  2  0  0  3  0  0  0  0  0  0
  162.3700  206.1490  152.6470 C   0  0  2  0  0  3  0  0  0  0  0  0
  162.4000  207.1260  149.2160 C   0  0  1  0  0  3  0  0  0  0  0  0
  160.7370  204.4280  153.5020 C   0  0  0  0  0  2  0  0  0  0  0  0
  162.8230  207.4810  152.7480 O   0  0  0  0  0  0  0  0  0  0  0  0
  160.2940  204.7880  149.8220 C   0  0  0  0  0  2  0  0  0  0  0  0
  160.5350  204.0850  152.0210 C   0  0  0  0  0  2  0  0  0  0  0  0
  160.9370  209.6420  149.6660 O   0  0  0  0  0  0  0  0  0  0  0  0
  161.5640  209.4170  148.4290 C   0  0  0  0  0  2  0  0  0  0  0  0
  160.5370  205.2800  151.1790 N   0  0  1  0  0  0  0  0  0  0  0  0
  162.7160  208.0840  151.5180 N   0  0  2  0  0  0  0  0  0  0  0  0
  161.5260  206.3110  148.3510 N   0  0  0  0  0  0  0  0  0  0  0  0
  161.8980  210.2310  150.4960 C   0  0  0  0  0  2  0  0  0  0  0  0
  162.0920  209.4010  151.7710 C   0  0  2  0  0  3  0  0  0  0  0  0
  160.1860  205.9270  148.8100 C   0  0  0  0  0  2  0  0  0  0  0  0
  163.2030  204.9330  147.1580 C   0  0  0  0  0  3  0  0  0  0  0  0
  162.0450  205.7290  147.1370 C   0  0  0  0  0  0  0  0  0  0  0  0
  161.3970  205.9440  145.9070 C   0  0  0  0  0  3  0  0  0  0  0  0
  161.1990  205.6170  143.4400 C   0  0  0  0  0  1  0  0  0  0  0  0
  163.0490  204.5920  144.7670 C   0  0  0  0  0  3  0  0  0  0  0  0
  161.8960  205.3800  144.7300 C   0  0  0  0  0  0  0  0  0  0  0  0
  163.7020  204.3690  145.9810 C   0  0  0  0  0  3  0  0  0  0  0  0
  162.9220  210.1450  152.6370 O   0  0  0  0  0  0  0  0  0  0  0  0
  162.1460  210.8000  153.6240 C   0  0  1  0  0  3  0  0  0  0  0  0
  160.2430  212.1330  153.0530 O   0  0  0  0  0  1  0  0  0  0  0  0
  160.6510  210.8250  153.3110 C   0  0  0  0  0  2  0  0  0  0  0  0
  162.4510  210.3140  155.0370 C   0  0  0  0  0  2  0  0  0  0  0  0
  161.6960  211.1290  156.0750 C   0  0  0  0  0  2  0  0  0  0  0  0
  161.2830  210.2770  157.1760 N   0  0  0  0  0  1  0  0  0  0  0  0
  160.2870  206.7920  153.7100 O   0  0  0  0  0  0  0  0  0  0  0  0
  160.1450  207.3300  155.0090 C   0  0  0  0  0  0  0  0  0  0  0  0
  159.1960  206.6230  155.7290 F   0  0  0  0  0  0  0  0  0  0  0  0
  161.3500  207.3230  155.6960 F   0  0  0  0  0  0  0  0  0  0  0  0
  159.7140  208.6380  154.8970 F   0  0  0  0  0  0  0  0  0  0  0  0
  1  5  1  0  0  0  0
  2  6  1  0  0  0  0
  4  1  1  0  0  0  0
  4 14  1  0  0  0  0
  5  8  1  0  0  0  0
  5  3  1  0  0  0  0
  6  4  1  0  0  0  0
  7  3  1  0  0  0  0
  9 13  1  0  0  0  0
 10  7  1  0  0  0  0
 11 16  1  0  0  0  0
 12  2  1  0  0  0  0
 12 11  1  0  0  0  0
 13  1  1  0  0  0  0
 13 10  1  0  0  0  0
 14 17  1  0  0  0  0
 14  8  1  0  0  0  0
 15 18  1  0  0  0  0
 15  6  1  0  0  0  0
 16 17  1  0  0  0  0
 17 26  1  0  0  0  0
 18  9  1  0  0  0  0
 20 19  1  0  0  0  0
 20 15  1  0  0  0  0
 21 20  2  0  0  0  0
 22 24  1  0  0  0  0
 23 25  1  0  0  0  0
 24 23  2  0  0  0  0
 24 21  1  0  0  0  0
 25 19  2  0  0  0  0
 26 27  1  0  0  0  0
 27 30  1  0  0  0  0
 28 29  1  0  0  0  0
 29 27  1  0  0  0  0
 30 31  1  0  0  0  0
 31 32  1  0  0  0  0
 33  3  1  0  0  0  0
 33 34  1  0  0  0  0
 34 36  1  0  0  0  0
 34 35  1  0  0  0  0
 37 34  1  0  0  0  0
M  END
>  <MODEL>
8

>  <REMARK>
 VINA RESULT:      -3.3      3.648      8.445
  Name = 
  8 active torsions:
  status: ('A' for Active; 'I' for Inactive)
    1  A    between atoms: O_1  and  C_4
    2  A    between atoms: O_1  and  C_27
    3  A    between atoms: C_2  and  O_22
    4  A    between atoms: C_4  and  C_12
    5  A    between atoms: C_4  and  C_37
    6  A    between atoms: C_6  and  O_22
    7  A    between atoms: C_8  and  C_12
    8  A    between atoms: N_23  and  C_30
                            x       y       z     vdW  Elec       q    Type
                         _______ _______ _______ _____ _____    ______ ____

>  <TORSDO>
F 8

$$$$
=
 OpenBabel11122414003D

 37 41  0  0  1  0  0  0  0  0999 V2000
  161.1410  208.3650  150.0020 C   0  0  1  0  0  3  0  0  0  0  0  0
  160.6580  204.5750  150.2310 C   0  0  0  0  0  2  0  0  0  0  0  0
  161.4980  210.3470  151.5610 C   0  0  2  0  0  3  0  0  0  0  0  0
  161.2940  207.0470  150.6750 C   0  0  2  0  0  3  0  0  0  0  0  0
  160.5590  209.2150  151.1090 C   0  0  2  0  0  3  0  0  0  0  0  0
  160.8670  205.9740  149.6500 C   0  0  1  0  0  3  0  0  0  0  0  0
  162.0010  211.1360  150.3430 C   0  0  0  0  0  2  0  0  0  0  0  0
  160.1880  208.3930  152.1930 O   0  0  0  0  0  0  0  0  0  0  0  0
  162.7590  208.1500  148.2510 C   0  0  0  0  0  2  0  0  0  0  0  0
  162.2970  210.2500  149.1290 C   0  0  0  0  0  2  0  0  0  0  0  0
  162.4520  204.8580  151.8660 O   0  0  0  0  0  0  0  0  0  0  0  0
  161.9130  203.9950  150.8970 C   0  0  0  0  0  2  0  0  0  0  0  0
  162.4410  208.8430  149.5010 N   0  0  1  0  0  0  0  0  0  0  0  0
  160.4330  207.0810  151.8640 N   0  0  2  0  0  0  0  0  0  0  0  0
  161.7520  205.9280  148.4700 N   0  0  0  0  0  0  0  0  0  0  0  0
  161.4690  205.0140  152.8500 C   0  0  0  0  0  2  0  0  0  0  0  0
  161.1200  206.4950  153.0350 C   0  0  2  0  0  3  0  0  0  0  0  0
  163.0230  206.6620  148.4720 C   0  0  0  0  0  2  0  0  0  0  0  0
  160.8320  206.1150  146.1770 C   0  0  0  0  0  3  0  0  0  0  0  0
  161.2940  205.3220  147.2420 C   0  0  0  0  0  0  0  0  0  0  0  0
  161.3050  203.9240  147.0880 C   0  0  0  0  0  3  0  0  0  0  0  0
  160.8840  201.8570  145.7540 C   0  0  0  0  0  1  0  0  0  0  0  0
  160.4080  204.1350  144.8510 C   0  0  0  0  0  3  0  0  0  0  0  0
  160.8650  203.3350  145.9000 C   0  0  0  0  0  0  0  0  0  0  0  0
  160.3920  205.5250  144.9890 C   0  0  0  0  0  3  0  0  0  0  0  0
  160.2740  206.5920  154.1620 O   0  0  0  0  0  0  0  0  0  0  0  0
  160.6770  207.6670  154.9910 C   0  0  1  0  0  3  0  0  0  0  0  0
  159.3820  209.6750  155.1110 O   0  0  0  0  0  1  0  0  0  0  0  0
  159.5120  208.3980  155.6560 C   0  0  0  0  0  2  0  0  0  0  0  0
  161.7750  207.2770  155.9750 C   0  0  0  0  0  2  0  0  0  0  0  0
  161.6730  208.0820  157.2610 C   0  0  0  0  0  2  0  0  0  0  0  0
  162.6160  209.1860  157.2370 N   0  0  0  0  0  1  0  0  0  0  0  0
  162.5880  209.8290  152.2870 O   0  0  0  0  0  0  0  0  0  0  0  0
  162.6180  210.4360  153.5620 C   0  0  0  0  0  0  0  0  0  0  0  0
  161.6220  211.3930  153.6700 F   0  0  0  0  0  0  0  0  0  0  0  0
  162.4750  209.5000  154.5760 F   0  0  0  0  0  0  0  0  0  0  0  0
  163.8380  211.0660  153.7200 F   0  0  0  0  0  0  0  0  0  0  0  0
  1  4  1  0  0  0  0
  1  5  1  0  0  0  0
  2 12  1  0  0  0  0
  3 33  1  0  0  0  0
  4 14  1  0  0  0  0
  5  3  1  0  0  0  0
  5  8  1  0  0  0  0
  6  2  1  0  0  0  0
  6  4  1  0  0  0  0
  7  3  1  0  0  0  0
  9 18  1  0  0  0  0
  9 13  1  0  0  0  0
 10 13  1  0  0  0  0
 10  7  1  0  0  0  0
 11 16  1  0  0  0  0
 12 11  1  0  0  0  0
 13  1  1  0  0  0  0
 14  8  1  0  0  0  0
 14 17  1  0  0  0  0
 15 18  1  0  0  0  0
 15  6  1  0  0  0  0
 16 17  1  0  0  0  0
 17 26  1  0  0  0  0
 19 20  1  0  0  0  0
 20 15  1  0  0  0  0
 21 20  2  0  0  0  0
 22 24  1  0  0  0  0
 23 25  1  0  0  0  0
 23 24  2  0  0  0  0
 24 21  1  0  0  0  0
 25 19  2  0  0  0  0
 26 27  1  0  0  0  0
 27 29  1  0  0  0  0
 27 30  1  0  0  0  0
 28 29  1  0  0  0  0
 30 31  1  0  0  0  0
 32 31  1  0  0  0  0
 33 34  1  0  0  0  0
 34 35  1  0  0  0  0
 34 37  1  0  0  0  0
 34 36  1  0  0  0  0
M  END
>  <MODEL>
9

>  <REMARK>
 VINA RESULT:      -3.0      3.342      7.693
  Name = 
  8 active torsions:
  status: ('A' for Active; 'I' for Inactive)
    1  A    between atoms: O_1  and  C_4
    2  A    between atoms: O_1  and  C_27
    3  A    between atoms: C_2  and  O_22
    4  A    between atoms: C_4  and  C_12
    5  A    between atoms: C_4  and  C_37
    6  A    between atoms: C_6  and  O_22
    7  A    between atoms: C_8  and  C_12
    8  A    between atoms: N_23  and  C_30
                            x       y       z     vdW  Elec       q    Type
                         _______ _______ _______ _____ _____    ______ ____

>  <TORSDO>
F 8

$$$$
