=
 OpenBabel11122413423D

 37 44  0  0  1  0  0  0  0  0999 V2000
  160.6690  203.0780  149.4540 C   0  0  0  0  0  2  0  0  0  0  0  0
  161.7660  205.8120  146.2510 C   0  0  0  0  0  0  0  0  0  0  0  0
  161.3350  207.7290  149.9030 N   0  0  0  0  0  0  0  0  0  0  0  0
  160.2400  201.8260  150.0480 N   0  0  0  0  0  0  0  0  0  0  0  0
  161.6490  205.5740  152.8370 O   0  0  0  0  0  0  0  0  0  0  0  0
  161.9260  207.9360  147.5340 C   0  0  0  0  0  0  0  0  0  0  0  0
  160.9230  206.6820  150.6660 C   0  0  0  0  0  0  0  0  0  0  0  0
  161.8410  202.0470  151.8710 C   0  0  0  0  0  0  0  0  0  0  0  0
  161.2370  207.3080  148.6350 C   0  0  0  0  0  0  0  0  0  0  0  0
  160.9210  206.6360  152.2100 C   0  0  2  0  0  3  0  0  0  0  0  0
  162.5090  209.1170  147.7290 C   0  0  0  0  0  3  0  0  0  0  0  0
  161.3140  201.3610  150.7720 O   0  0  0  0  0  0  0  0  0  0  0  0
  160.7330  206.0520  148.5330 C   0  0  0  0  0  0  0  0  0  0  0  0
  163.0510  205.0680  146.5740 C   0  0  0  0  0  1  0  0  0  0  0  0
  161.4350  209.7830  151.3540 C   0  0  0  0  0  2  0  0  0  0  0  0
  162.3610  209.8460  149.0490 C   0  0  0  0  0  2  0  0  0  0  0  0
  160.6520  205.3320  147.2200 C   0  0  0  0  0  2  0  0  0  0  0  0
  161.1590  203.2040  152.5590 C   0  0  1  0  0  3  0  0  0  0  0  0
  161.6510  204.4430  152.0050 C   0  0  1  0  0  3  0  0  0  0  0  0
  162.1150  208.9250  150.2730 C   0  0  2  0  0  3  0  0  0  0  0  0
  160.5160  205.6180  149.8300 C   0  0  0  0  0  0  0  0  0  0  0  0
  162.0130  207.2320  146.3260 O   0  0  0  0  0  0  0  0  0  0  0  0
  161.2520  207.9750  152.8690 C   0  0  1  0  0  3  0  0  0  0  0  0
  161.3600  205.4590  144.8360 C   0  0  0  0  0  1  0  0  0  0  0  0
  160.2370  204.0630  151.7550 N   0  0  1  0  0  0  0  0  0  0  0  0
  162.9320  201.6430  152.3520 O   0  0  0  0  0  0  0  0  0  0  0  0
  160.1170  204.2200  150.2900 C   0  0  2  0  0  3  0  0  0  0  0  0
  160.5160  209.0430  152.2100 N   0  0  0  0  0  2  0  0  0  0  0  0
  160.5090  206.7610  154.9230 C   0  0  0  0  0  3  0  0  0  0  0  0
  160.9300  207.9570  154.3310 C   0  0  0  0  0  0  0  0  0  0  0  0
  161.0340  209.1190  155.1120 C   0  0  0  0  0  3  0  0  0  0  0  0
  160.8260  210.2590  157.2610 N   0  0  0  0  0  1  0  0  0  0  0  0
  160.3010  207.8830  157.0600 C   0  0  0  0  0  3  0  0  0  0  0  0
  160.7200  209.0800  156.4730 C   0  0  0  0  0  0  0  0  0  0  0  0
  160.1950  206.7230  156.2860 C   0  0  0  0  0  3  0  0  0  0  0  0
  161.1870  200.9800  147.9770 C   0  0  0  0  0  1  0  0  0  0  0  0
  160.0350  200.8870  148.9590 C   0  0  0  0  0  2  0  0  0  0  0  0
  1  4  1  0  0  0  0
  1 27  1  0  0  0  0
  2 22  1  0  0  0  0
  2 14  1  0  0  0  0
  2 17  1  0  0  0  0
  3 20  1  0  0  0  0
  3  7  1  0  0  0  0
  4 12  1  0  0  0  0
  6 11  2  0  0  0  0
  6  9  1  0  0  0  0
  8 26  2  0  0  0  0
  9  3  1  0  0  0  0
 10  7  1  6  0  0  0
 10  5  1  0  0  0  0
 10 23  1  0  0  0  0
 11 16  1  0  0  0  0
 12  8  1  0  0  0  0
 13  9  2  0  0  0  0
 13 21  1  0  0  0  0
 15 28  1  0  0  0  0
 17 13  1  0  0  0  0
 18  8  1  6  0  0  0
 19 18  1  0  0  0  0
 19  5  1  1  0  0  0
 20 16  1  6  0  0  0
 20 15  1  0  0  0  0
 21 27  1  0  0  0  0
 21  7  2  0  0  0  0
 22  6  1  0  0  0  0
 23 30  1  1  0  0  0
 24  2  1  0  0  0  0
 25 19  1  0  0  0  0
 25 18  1  0  0  0  0
 27 25  1  0  0  0  0
 28 23  1  0  0  0  0
 29 35  1  0  0  0  0
 30 29  2  0  0  0  0
 30 31  1  0  0  0  0
 31 34  2  0  0  0  0
 34 33  1  0  0  0  0
 34 32  1  0  0  0  0
 35 33  2  0  0  0  0
 36 37  1  0  0  0  0
 37  4  1  0  0  0  0
M  END
>  <MODEL>
1

>  <REMARK>
 VINA RESULT:      -6.9      0.000      0.000
  Name = 
  2 active torsions:
  status: ('A' for Active; 'I' for Inactive)
    1  A    between atoms: N_4  and  C_37
    2  A    between atoms: C_23  and  C_30
                            x       y       z     vdW  Elec       q    Type
                         _______ _______ _______ _____ _____    ______ ____

>  <TORSDO>
F 2

$$$$
=
 OpenBabel11122413423D

 37 44  0  0  1  0  0  0  0  0999 V2000
  161.9550  210.7570  148.4250 C   0  0  0  0  0  2  0  0  0  0  0  0
  161.8710  206.4690  147.6880 C   0  0  0  0  0  0  0  0  0  0  0  0
  161.3930  207.4050  151.6990 N   0  0  0  0  0  0  0  0  0  0  0  0
  162.1550  212.1590  148.1100 N   0  0  0  0  0  0  0  0  0  0  0  0
  160.2150  210.7980  152.3740 O   0  0  0  0  0  0  0  0  0  0  0  0
  161.4660  205.6430  149.9990 C   0  0  0  0  0  0  0  0  0  0  0  0
  161.5410  208.7550  151.6400 C   0  0  0  0  0  0  0  0  0  0  0  0
  160.1370  212.8030  149.3110 C   0  0  0  0  0  0  0  0  0  0  0  0
  161.8080  206.9470  150.5110 C   0  0  0  0  0  0  0  0  0  0  0  0
  161.1290  209.7570  152.7410 C   0  0  2  0  0  3  0  0  0  0  0  0
  160.9030  204.7570  150.8180 C   0  0  0  0  0  3  0  0  0  0  0  0
  160.9090  212.7390  148.1460 O   0  0  0  0  0  0  0  0  0  0  0  0
  162.2670  207.9320  149.6970 C   0  0  0  0  0  0  0  0  0  0  0  0
  160.5170  206.9630  147.2110 C   0  0  0  0  0  1  0  0  0  0  0  0
  160.9970  206.7500  154.0970 C   0  0  0  0  0  2  0  0  0  0  0  0
  160.7240  205.0670  152.2900 C   0  0  0  0  0  2  0  0  0  0  0  0
  162.6640  207.6670  148.2750 C   0  0  0  0  0  2  0  0  0  0  0  0
  160.6590  212.5060  150.6950 C   0  0  1  0  0  3  0  0  0  0  0  0
  160.3870  211.1250  151.0200 C   0  0  1  0  0  3  0  0  0  0  0  0
  160.5940  206.5770  152.6230 C   0  0  2  0  0  3  0  0  0  0  0  0
  162.1110  209.1150  150.3980 C   0  0  0  0  0  0  0  0  0  0  0  0
  161.6750  205.3970  148.6360 O   0  0  0  0  0  0  0  0  0  0  0  0
  160.6910  209.0960  154.0480 C   0  0  1  0  0  3  0  0  0  0  0  0
  162.6260  205.9320  146.4910 C   0  0  0  0  0  1  0  0  0  0  0  0
  161.7980  211.5480  150.8320 N   0  0  1  0  0  0  0  0  0  0  0  0
  158.9410  213.1810  149.2080 O   0  0  0  0  0  0  0  0  0  0  0  0
  162.3120  210.5370  149.8840 C   0  0  2  0  0  3  0  0  0  0  0  0
  161.6220  208.0330  154.3970 N   0  0  0  0  0  2  0  0  0  0  0  0
  161.7930  210.5730  155.7360 C   0  0  0  0  0  3  0  0  0  0  0  0
  160.6100  210.0920  155.1630 C   0  0  0  0  0  0  0  0  0  0  0  0
  159.3710  210.5430  155.6450 C   0  0  0  0  0  3  0  0  0  0  0  0
  158.0640  211.9220  157.1780 N   0  0  0  0  0  1  0  0  0  0  0  0
  160.5040  211.9450  157.2600 C   0  0  0  0  0  3  0  0  0  0  0  0
  159.3210  211.4670  156.6920 C   0  0  0  0  0  0  0  0  0  0  0  0
  161.7410  211.4980  156.7830 C   0  0  0  0  0  3  0  0  0  0  0  0
  161.8670  213.3330  146.0030 C   0  0  0  0  0  1  0  0  0  0  0  0
  162.6030  212.2240  146.7300 C   0  0  0  0  0  2  0  0  0  0  0  0
  1 27  1  0  0  0  0
  2 17  1  0  0  0  0
  2 22  1  0  0  0  0
  3 20  1  0  0  0  0
  4 12  1  0  0  0  0
  4  1  1  0  0  0  0
  5 10  1  0  0  0  0
  6  9  1  0  0  0  0
  6 11  2  0  0  0  0
  7  3  1  0  0  0  0
  9  3  1  0  0  0  0
 10  7  1  6  0  0  0
 10 23  1  0  0  0  0
 11 16  1  0  0  0  0
 12  8  1  0  0  0  0
 13 21  1  0  0  0  0
 13  9  2  0  0  0  0
 14  2  1  0  0  0  0
 15 28  1  0  0  0  0
 17 13  1  0  0  0  0
 18  8  1  6  0  0  0
 18 25  1  0  0  0  0
 18 19  1  0  0  0  0
 19  5  1  1  0  0  0
 20 16  1  6  0  0  0
 20 15  1  0  0  0  0
 21  7  2  0  0  0  0
 22  6  1  0  0  0  0
 23 28  1  0  0  0  0
 23 30  1  1  0  0  0
 24  2  1  0  0  0  0
 25 19  1  0  0  0  0
 26  8  2  0  0  0  0
 27 21  1  0  0  0  0
 27 25  1  0  0  0  0
 29 35  1  0  0  0  0
 30 31  1  0  0  0  0
 30 29  2  0  0  0  0
 31 34  2  0  0  0  0
 34 32  1  0  0  0  0
 34 33  1  0  0  0  0
 35 33  2  0  0  0  0
 36 37  1  0  0  0  0
 37  4  1  0  0  0  0
M  END
>  <MODEL>
2

>  <REMARK>
 VINA RESULT:      -6.3      2.802      6.267
  Name = 
  2 active torsions:
  status: ('A' for Active; 'I' for Inactive)
    1  A    between atoms: N_4  and  C_37
    2  A    between atoms: C_23  and  C_30
                            x       y       z     vdW  Elec       q    Type
                         _______ _______ _______ _____ _____    ______ ____

>  <TORSDO>
F 2

$$$$
=
 OpenBabel11122413423D

 37 44  0  0  1  0  0  0  0  0999 V2000
  160.1420  209.9390  155.0120 C   0  0  0  0  0  2  0  0  0  0  0  0
  156.3630  211.9880  155.6820 C   0  0  0  0  0  0  0  0  0  0  0  0
  158.1910  213.1380  152.1420 N   0  0  0  0  0  0  0  0  0  0  0  0
  161.2820  209.1050  155.3430 N   0  0  0  0  0  0  0  0  0  0  0  0
  160.6170  210.7560  150.8000 O   0  0  0  0  0  0  0  0  0  0  0  0
  156.2390  213.3530  153.6060 C   0  0  0  0  0  0  0  0  0  0  0  0
  159.3470  212.4260  152.2380 C   0  0  0  0  0  0  0  0  0  0  0  0
  161.2300  208.0240  153.1610 C   0  0  0  0  0  0  0  0  0  0  0  0
  157.6330  213.0780  153.3580 C   0  0  0  0  0  0  0  0  0  0  0  0
  160.3220  212.1310  151.0770 C   0  0  2  0  0  3  0  0  0  0  0  0
  155.5100  213.9070  152.6390 C   0  0  0  0  0  3  0  0  0  0  0  0
  161.1720  207.9810  154.5580 O   0  0  0  0  0  0  0  0  0  0  0  0
  158.3950  212.4030  154.2560 C   0  0  0  0  0  0  0  0  0  0  0  0
  155.9650  210.5890  155.2480 C   0  0  0  0  0  1  0  0  0  0  0  0
  158.2400  214.4530  149.9960 C   0  0  0  0  0  2  0  0  0  0  0  0
  156.1520  214.3450  151.3390 C   0  0  0  0  0  2  0  0  0  0  0  0
  157.9100  212.1040  155.6440 C   0  0  0  0  0  2  0  0  0  0  0  0
  161.6840  209.2230  152.3650 C   0  0  1  0  0  3  0  0  0  0  0  0
  160.5300  210.0040  151.9830 C   0  0  1  0  0  3  0  0  0  0  0  0
  157.4310  213.5570  150.9500 C   0  0  2  0  0  3  0  0  0  0  0  0
  159.5130  211.9690  153.5640 C   0  0  0  0  0  0  0  0  0  0  0  0
  155.6990  212.9510  154.8340 O   0  0  0  0  0  0  0  0  0  0  0  0
  159.9940  212.8780  149.7850 C   0  0  1  0  0  3  0  0  0  0  0  0
  155.8990  212.1900  157.1080 C   0  0  0  0  0  1  0  0  0  0  0  0
  161.4900  210.5820  152.9580 N   0  0  1  0  0  0  0  0  0  0  0  0
  160.9340  206.9800  152.5240 O   0  0  0  0  0  0  0  0  0  0  0  0
  160.6040  211.0250  154.0550 C   0  0  2  0  0  3  0  0  0  0  0  0
  159.6840  214.2680  150.0880 N   0  0  0  0  0  2  0  0  0  0  0  0
  162.1980  211.9420  149.0690 C   0  0  0  0  0  3  0  0  0  0  0  0
  161.1280  212.8080  148.8110 C   0  0  0  0  0  0  0  0  0  0  0  0
  161.1400  213.6000  147.6520 C   0  0  0  0  0  3  0  0  0  0  0  0
  162.2230  214.3260  145.5880 N   0  0  0  0  0  1  0  0  0  0  0  0
  163.2780  212.6560  147.0220 C   0  0  0  0  0  3  0  0  0  0  0  0
  162.2140  213.5230  146.7610 C   0  0  0  0  0  0  0  0  0  0  0  0
  163.2710  211.8650  148.1760 C   0  0  0  0  0  3  0  0  0  0  0  0
  160.1850  207.4650  156.7610 C   0  0  0  0  0  1  0  0  0  0  0  0
  161.1050  208.6700  156.7170 C   0  0  0  0  0  2  0  0  0  0  0  0
  1  4  1  0  0  0  0
  2 24  1  0  0  0  0
  3  7  1  0  0  0  0
  3  9  1  0  0  0  0
  4 37  1  0  0  0  0
  6 22  1  0  0  0  0
  7 21  2  0  0  0  0
  8 12  1  0  0  0  0
  9  6  1  0  0  0  0
  9 13  2  0  0  0  0
 10  5  1  6  0  0  0
 10  7  1  0  0  0  0
 11  6  2  0  0  0  0
 12  4  1  0  0  0  0
 13 17  1  0  0  0  0
 14  2  1  0  0  0  0
 15 28  1  0  0  0  0
 16 11  1  0  0  0  0
 17  2  1  0  0  0  0
 18 25  1  0  0  0  0
 18  8  1  1  0  0  0
 19  5  1  6  0  0  0
 19 18  1  0  0  0  0
 19 25  1  0  0  0  0
 20 15  1  6  0  0  0
 20 16  1  0  0  0  0
 20  3  1  0  0  0  0
 21 27  1  0  0  0  0
 21 13  1  0  0  0  0
 22  2  1  0  0  0  0
 23 30  1  6  0  0  0
 23 28  1  0  0  0  0
 23 10  1  0  0  0  0
 25 27  1  0  0  0  0
 26  8  2  0  0  0  0
 27  1  1  0  0  0  0
 30 29  1  0  0  0  0
 31 30  2  0  0  0  0
 32 34  1  0  0  0  0
 33 35  1  0  0  0  0
 34 33  2  0  0  0  0
 34 31  1  0  0  0  0
 35 29  2  0  0  0  0
 37 36  1  0  0  0  0
M  END
>  <MODEL>
3

>  <REMARK>
 VINA RESULT:      -6.0      4.775      8.951
  Name = 
  2 active torsions:
  status: ('A' for Active; 'I' for Inactive)
    1  A    between atoms: N_4  and  C_37
    2  A    between atoms: C_23  and  C_30
                            x       y       z     vdW  Elec       q    Type
                         _______ _______ _______ _____ _____    ______ ____

>  <TORSDO>
F 2

$$$$
=
 OpenBabel11122413423D

 37 44  0  0  1  0  0  0  0  0999 V2000
  162.2710  210.0150  148.3830 C   0  0  0  0  0  2  0  0  0  0  0  0
  161.7470  206.0990  146.5580 C   0  0  0  0  0  0  0  0  0  0  0  0
  161.3600  205.9970  150.6860 N   0  0  0  0  0  0  0  0  0  0  0  0
  162.6160  211.4230  148.4390 N   0  0  0  0  0  0  0  0  0  0  0  0
  160.5370  209.1950  152.2500 O   0  0  0  0  0  0  0  0  0  0  0  0
  161.2540  204.7430  148.5840 C   0  0  0  0  0  0  0  0  0  0  0  0
  161.6470  207.2940  150.9760 C   0  0  0  0  0  0  0  0  0  0  0  0
  160.6720  211.9290  149.8170 C   0  0  0  0  0  0  0  0  0  0  0  0
  161.7280  205.8270  149.4090 C   0  0  0  0  0  0  0  0  0  0  0  0
  161.3380  208.0090  152.3100 C   0  0  2  0  0  3  0  0  0  0  0  0
  160.6010  203.7340  149.1580 C   0  0  0  0  0  3  0  0  0  0  0  0
  161.4360  212.0950  148.6570 O   0  0  0  0  0  0  0  0  0  0  0  0
  162.2880  206.9390  148.8680 C   0  0  0  0  0  0  0  0  0  0  0  0
  160.4520  206.8340  146.2610 C   0  0  0  0  0  1  0  0  0  0  0  0
  160.8930  204.7810  152.8390 C   0  0  0  0  0  2  0  0  0  0  0  0
  160.4520  203.6650  150.6640 C   0  0  0  0  0  2  0  0  0  0  0  0
  162.6580  207.0170  147.4170 C   0  0  0  0  0  2  0  0  0  0  0  0
  161.1580  211.2300  151.0630 C   0  0  1  0  0  3  0  0  0  0  0  0
  160.7440  209.8470  151.0240 C   0  0  1  0  0  3  0  0  0  0  0  0
  160.4780  205.0400  151.3810 C   0  0  2  0  0  3  0  0  0  0  0  0
  162.2530  207.9070  149.8570 C   0  0  0  0  0  0  0  0  0  0  0  0
  161.4390  204.8420  147.1990 O   0  0  0  0  0  0  0  0  0  0  0  0
  160.8310  207.0760  153.4100 C   0  0  1  0  0  3  0  0  0  0  0  0
  162.4440  205.8210  145.2440 C   0  0  0  0  0  1  0  0  0  0  0  0
  162.1920  210.1600  150.9170 N   0  0  1  0  0  0  0  0  0  0  0  0
  159.5220  212.4390  149.8460 O   0  0  0  0  0  0  0  0  0  0  0  0
  162.6010  209.3860  149.7260 C   0  0  2  0  0  3  0  0  0  0  0  0
  161.6470  205.8720  153.4470 N   0  0  0  0  0  2  0  0  0  0  0  0
  160.0930  207.2130  155.7940 C   0  0  0  0  0  3  0  0  0  0  0  0
  160.8510  207.7490  154.7470 C   0  0  0  0  0  0  0  0  0  0  0  0
  161.6100  208.9110  154.9640 C   0  0  0  0  0  3  0  0  0  0  0  0
  162.3780  210.7020  156.4350 N   0  0  0  0  0  1  0  0  0  0  0  0
  160.8500  208.9860  157.2610 C   0  0  0  0  0  3  0  0  0  0  0  0
  161.6080  209.5260  156.2180 C   0  0  0  0  0  0  0  0  0  0  0  0
  160.0920  207.8300  157.0490 C   0  0  0  0  0  3  0  0  0  0  0  0
  162.6470  213.2270  146.8120 C   0  0  0  0  0  1  0  0  0  0  0  0
  163.0710  211.8020  147.1130 C   0  0  0  0  0  2  0  0  0  0  0  0
  1  4  1  0  0  0  0
  1 27  1  0  0  0  0
  2 22  1  0  0  0  0
  2 17  1  0  0  0  0
  3  7  1  0  0  0  0
  3 20  1  0  0  0  0
  4 12  1  0  0  0  0
  5 10  1  0  0  0  0
  6 11  2  0  0  0  0
  6  9  1  0  0  0  0
  8 26  2  0  0  0  0
  9  3  1  0  0  0  0
 10  7  1  6  0  0  0
 10 23  1  0  0  0  0
 11 16  1  0  0  0  0
 12  8  1  0  0  0  0
 13  9  2  0  0  0  0
 13 21  1  0  0  0  0
 14  2  1  0  0  0  0
 15 28  1  0  0  0  0
 17 13  1  0  0  0  0
 18  8  1  6  0  0  0
 19 18  1  0  0  0  0
 19  5  1  1  0  0  0
 20 16  1  6  0  0  0
 20 15  1  0  0  0  0
 21  7  2  0  0  0  0
 22  6  1  0  0  0  0
 23 28  1  0  0  0  0
 23 30  1  1  0  0  0
 24  2  1  0  0  0  0
 25 19  1  0  0  0  0
 25 18  1  0  0  0  0
 27 21  1  0  0  0  0
 27 25  1  0  0  0  0
 29 35  1  0  0  0  0
 30 31  1  0  0  0  0
 30 29  2  0  0  0  0
 31 34  2  0  0  0  0
 34 32  1  0  0  0  0
 34 33  1  0  0  0  0
 35 33  2  0  0  0  0
 36 37  1  0  0  0  0
 37  4  1  0  0  0  0
M  END
>  <MODEL>
4

>  <REMARK>
 VINA RESULT:      -5.9      2.282      5.670
  Name = 
  2 active torsions:
  status: ('A' for Active; 'I' for Inactive)
    1  A    between atoms: N_4  and  C_37
    2  A    between atoms: C_23  and  C_30
                            x       y       z     vdW  Elec       q    Type
                         _______ _______ _______ _____ _____    ______ ____

>  <TORSDO>
F 2

$$$$
=
 OpenBabel11122413423D

 37 44  0  0  1  0  0  0  0  0999 V2000
  160.9560  211.7390  149.0820 C   0  0  0  0  0  2  0  0  0  0  0  0
  162.1140  207.5600  149.4470 C   0  0  0  0  0  0  0  0  0  0  0  0
  160.9520  209.2130  153.0680 N   0  0  0  0  0  0  0  0  0  0  0  0
  160.8060  213.0280  148.4330 N   0  0  0  0  0  0  0  0  0  0  0  0
  158.8360  212.1810  152.8150 O   0  0  0  0  0  0  0  0  0  0  0  0
  161.6880  207.2060  151.8710 C   0  0  0  0  0  0  0  0  0  0  0  0
  160.7370  210.4970  152.6770 C   0  0  0  0  0  0  0  0  0  0  0  0
  158.5660  213.3190  149.3450 C   0  0  0  0  0  0  0  0  0  0  0  0
  161.6070  208.6350  152.0530 C   0  0  0  0  0  0  0  0  0  0  0  0
  159.9490  211.5620  153.4720 C   0  0  2  0  0  3  0  0  0  0  0  0
  161.2960  206.4080  152.8620 C   0  0  0  0  0  3  0  0  0  0  0  0
  159.4530  213.2160  148.2680 O   0  0  0  0  0  0  0  0  0  0  0  0
  161.8720  209.4960  151.0370 C   0  0  0  0  0  0  0  0  0  0  0  0
  160.7390  207.5190  148.8030 C   0  0  0  0  0  1  0  0  0  0  0  0
  160.4790  209.0400  155.5340 C   0  0  0  0  0  2  0  0  0  0  0  0
  160.8760  206.9820  154.2000 C   0  0  0  0  0  2  0  0  0  0  0  0
  162.4830  209.0380  149.7460 C   0  0  0  0  0  2  0  0  0  0  0  0
  158.9900  213.5120  150.7810 C   0  0  1  0  0  3  0  0  0  0  0  0
  159.0640  212.2240  151.4310 C   0  0  1  0  0  3  0  0  0  0  0  0
  160.3070  208.4240  154.1350 C   0  0  2  0  0  3  0  0  0  0  0  0
  161.3250  210.7110  151.4100 C   0  0  0  0  0  0  0  0  0  0  0  0
  162.1080  206.7250  150.6240 O   0  0  0  0  0  0  0  0  0  0  0  0
  159.5600  211.1210  154.8820 C   0  0  1  0  0  3  0  0  0  0  0  0
  163.1150  207.0040  148.4570 C   0  0  0  0  0  1  0  0  0  0  0  0
  160.3210  212.9810  151.2030 N   0  0  1  0  0  0  0  0  0  0  0  0
  157.3320  213.3020  149.0990 O   0  0  0  0  0  0  0  0  0  0  0  0
  161.1920  211.9730  150.5640 C   0  0  2  0  0  3  0  0  0  0  0  0
  160.6980  210.4820  155.5270 N   0  0  0  0  0  2  0  0  0  0  0  0
  160.0210  213.2220  156.1540 C   0  0  0  0  0  3  0  0  0  0  0  0
  159.0890  212.2790  155.7050 C   0  0  0  0  0  0  0  0  0  0  0  0
  157.7340  212.4280  156.0400 C   0  0  0  0  0  3  0  0  0  0  0  0
  155.9450  213.6620  157.1540 N   0  0  0  0  0  1  0  0  0  0  0  0
  158.2520  214.4530  157.2610 C   0  0  0  0  0  3  0  0  0  0  0  0
  157.3190  213.5130  156.8160 C   0  0  0  0  0  0  0  0  0  0  0  0
  159.6040  214.3080  156.9300 C   0  0  0  0  0  3  0  0  0  0  0  0
  162.8630  212.6400  147.1990 C   0  0  0  0  0  1  0  0  0  0  0  0
  161.3720  212.9020  147.1010 C   0  0  0  0  0  2  0  0  0  0  0  0
  1 27  1  0  0  0  0
  2 17  1  0  0  0  0
  2 22  1  0  0  0  0
  3 20  1  0  0  0  0
  4  1  1  0  0  0  0
  5 10  1  0  0  0  0
  6  9  1  0  0  0  0
  6 11  2  0  0  0  0
  7  3  1  0  0  0  0
  9  3  1  0  0  0  0
 10  7  1  6  0  0  0
 10 23  1  0  0  0  0
 11 16  1  0  0  0  0
 12  4  1  0  0  0  0
 12  8  1  0  0  0  0
 13 21  1  0  0  0  0
 13  9  2  0  0  0  0
 14  2  1  0  0  0  0
 17 13  1  0  0  0  0
 18  8  1  6  0  0  0
 18 25  1  0  0  0  0
 18 19  1  0  0  0  0
 19  5  1  1  0  0  0
 20 16  1  1  0  0  0
 20 15  1  0  0  0  0
 21  7  2  0  0  0  0
 22  6  1  0  0  0  0
 23 28  1  0  0  0  0
 23 30  1  1  0  0  0
 24  2  1  0  0  0  0
 25 19  1  0  0  0  0
 26  8  2  0  0  0  0
 27 25  1  0  0  0  0
 27 21  1  0  0  0  0
 28 15  1  0  0  0  0
 29 35  1  0  0  0  0
 30 31  1  0  0  0  0
 30 29  2  0  0  0  0
 31 34  2  0  0  0  0
 34 32  1  0  0  0  0
 34 33  1  0  0  0  0
 35 33  2  0  0  0  0
 37 36  1  0  0  0  0
 37  4  1  0  0  0  0
M  END
>  <MODEL>
5

>  <REMARK>
 VINA RESULT:      -5.7      3.775      7.299
  Name = 
  2 active torsions:
  status: ('A' for Active; 'I' for Inactive)
    1  A    between atoms: N_4  and  C_37
    2  A    between atoms: C_23  and  C_30
                            x       y       z     vdW  Elec       q    Type
                         _______ _______ _______ _____ _____    ______ ____

>  <TORSDO>
F 2

$$$$
=
 OpenBabel11122413423D

 37 44  0  0  1  0  0  0  0  0999 V2000
  161.8440  207.9090  151.7650 C   0  0  0  0  0  2  0  0  0  0  0  0
  159.8170  210.3580  154.7360 C   0  0  0  0  0  0  0  0  0  0  0  0
  160.5220  212.4050  151.1990 N   0  0  0  0  0  0  0  0  0  0  0  0
  162.5590  206.7560  151.2530 N   0  0  0  0  0  0  0  0  0  0  0  0
  161.0400  210.2960  148.2590 O   0  0  0  0  0  0  0  0  0  0  0  0
  159.5300  212.4600  153.4380 C   0  0  0  0  0  0  0  0  0  0  0  0
  161.2160  211.4540  150.5170 C   0  0  0  0  0  0  0  0  0  0  0  0
  161.2610  206.7620  149.1920 C   0  0  0  0  0  0  0  0  0  0  0  0
  160.4800  211.9750  152.4670 C   0  0  0  0  0  0  0  0  0  0  0  0
  161.4760  211.4460  148.9940 C   0  0  2  0  0  3  0  0  0  0  0  0
  158.8040  213.5380  153.1460 C   0  0  0  0  0  3  0  0  0  0  0  0
  161.7060  206.1420  150.3640 O   0  0  0  0  0  0  0  0  0  0  0  0
  161.1560  210.8130  152.6540 C   0  0  0  0  0  0  0  0  0  0  0  0
  158.7390  209.4280  154.2100 C   0  0  0  0  0  1  0  0  0  0  0  0
  160.3310  214.4500  149.7450 C   0  0  0  0  0  2  0  0  0  0  0  0
  159.0460  214.3110  151.8660 C   0  0  0  0  0  2  0  0  0  0  0  0
  161.1360  210.0840  153.9650 C   0  0  0  0  0  2  0  0  0  0  0  0
  161.8520  208.0280  148.6210 C   0  0  1  0  0  3  0  0  0  0  0  0
  161.0830  209.1600  149.0840 C   0  0  1  0  0  3  0  0  0  0  0  0
  159.6320  213.4700  150.7020 C   0  0  2  0  0  3  0  0  0  0  0  0
  161.6470  210.4490  151.4120 C   0  0  0  0  0  0  0  0  0  0  0  0
  159.3620  211.7230  154.6180 O   0  0  0  0  0  0  0  0  0  0  0  0
  161.0450  212.7290  148.2850 C   0  0  1  0  0  3  0  0  0  0  0  0
  160.0400  210.0420  156.2000 C   0  0  0  0  0  1  0  0  0  0  0  0
  162.4800  209.0030  149.5630 N   0  0  1  0  0  0  0  0  0  0  0  0
  160.3420  206.2020  148.5400 O   0  0  0  0  0  0  0  0  0  0  0  0
  162.3350  209.1440  151.0270 C   0  0  2  0  0  3  0  0  0  0  0  0
  161.4840  213.8850  149.0530 N   0  0  0  0  0  2  0  0  0  0  0  0
  162.9810  212.9310  146.7180 C   0  0  0  0  0  3  0  0  0  0  0  0
  161.6000  212.7970  146.8960 C   0  0  0  0  0  0  0  0  0  0  0  0
  160.7570  212.7370  145.7750 C   0  0  0  0  0  3  0  0  0  0  0  0
  160.4410  212.7480  143.3540 N   0  0  0  0  0  1  0  0  0  0  0  0
  162.6770  212.9420  144.3150 C   0  0  0  0  0  3  0  0  0  0  0  0
  161.2970  212.8090  144.4880 C   0  0  0  0  0  0  0  0  0  0  0  0
  163.5200  213.0030  145.4290 C   0  0  0  0  0  3  0  0  0  0  0  0
  161.6090  206.0220  153.3660 C   0  0  0  0  0  1  0  0  0  0  0  0
  162.7320  205.8360  152.3640 C   0  0  0  0  0  2  0  0  0  0  0  0
  2 24  1  0  0  0  0
  3  9  1  0  0  0  0
  4  1  1  0  0  0  0
  4 37  1  0  0  0  0
  6 22  1  0  0  0  0
  7  3  1  0  0  0  0
  7 21  2  0  0  0  0
  8 12  1  0  0  0  0
  9 13  2  0  0  0  0
  9  6  1  0  0  0  0
 10  5  1  6  0  0  0
 10  7  1  0  0  0  0
 11  6  2  0  0  0  0
 12  4  1  0  0  0  0
 13 17  1  0  0  0  0
 14  2  1  0  0  0  0
 16 11  1  0  0  0  0
 17  2  1  0  0  0  0
 18 19  1  0  0  0  0
 18  8  1  1  0  0  0
 18 25  1  0  0  0  0
 19  5  1  6  0  0  0
 19 25  1  0  0  0  0
 20 15  1  6  0  0  0
 20  3  1  0  0  0  0
 20 16  1  0  0  0  0
 21 13  1  0  0  0  0
 22  2  1  0  0  0  0
 23 30  1  6  0  0  0
 23 10  1  0  0  0  0
 23 28  1  0  0  0  0
 25 27  1  0  0  0  0
 26  8  2  0  0  0  0
 27 21  1  0  0  0  0
 27  1  1  0  0  0  0
 28 15  1  0  0  0  0
 29 30  1  0  0  0  0
 31 30  2  0  0  0  0
 32 34  1  0  0  0  0
 33 34  2  0  0  0  0
 33 35  1  0  0  0  0
 34 31  1  0  0  0  0
 35 29  2  0  0  0  0
 37 36  1  0  0  0  0
M  END
>  <MODEL>
6

>  <REMARK>
 VINA RESULT:      -4.2      3.608      8.103
  Name = 
  2 active torsions:
  status: ('A' for Active; 'I' for Inactive)
    1  A    between atoms: N_4  and  C_37
    2  A    between atoms: C_23  and  C_30
                            x       y       z     vdW  Elec       q    Type
                         _______ _______ _______ _____ _____    ______ ____

>  <TORSDO>
F 2

$$$$
=
 OpenBabel11122413423D

 37 44  0  0  1  0  0  0  0  0999 V2000
  161.7720  204.5080  147.7690 C   0  0  0  0  0  2  0  0  0  0  0  0
  161.0860  203.4630  151.9370 C   0  0  0  0  0  0  0  0  0  0  0  0
  161.6930  207.5290  151.3940 N   0  0  0  0  0  0  0  0  0  0  0  0
  162.0290  204.2700  146.3610 N   0  0  0  0  0  0  0  0  0  0  0  0
  161.0580  208.7580  148.0120 O   0  0  0  0  0  0  0  0  0  0  0  0
  161.1750  205.7240  152.9680 C   0  0  0  0  0  0  0  0  0  0  0  0
  161.9560  207.5470  150.0600 C   0  0  0  0  0  0  0  0  0  0  0  0
  160.4370  205.9900  145.6960 C   0  0  0  0  0  0  0  0  0  0  0  0
  161.7600  206.2410  151.7550 C   0  0  0  0  0  0  0  0  0  0  0  0
  161.9260  208.7950  149.1510 C   0  0  2  0  0  3  0  0  0  0  0  0
  160.7430  206.5820  153.8900 C   0  0  0  0  0  3  0  0  0  0  0  0
  160.8920  204.6670  145.6950 O   0  0  0  0  0  0  0  0  0  0  0  0
  162.1020  205.4220  150.7270 C   0  0  0  0  0  0  0  0  0  0  0  0
  159.7130  203.3850  151.2950 C   0  0  0  0  0  1  0  0  0  0  0  0
  161.8290  209.8860  152.2660 C   0  0  0  0  0  2  0  0  0  0  0  0
  160.9590  208.0730  153.7240 C   0  0  0  0  0  2  0  0  0  0  0  0
  162.1130  203.9290  150.8710 C   0  0  0  0  0  2  0  0  0  0  0  0
  161.2490  207.1690  146.1750 C   0  0  1  0  0  3  0  0  0  0  0  0
  160.9270  207.4360  147.5580 C   0  0  1  0  0  3  0  0  0  0  0  0
  161.0650  208.5520  152.2520 C   0  0  2  0  0  3  0  0  0  0  0  0
  162.2390  206.2360  149.6160 C   0  0  0  0  0  0  0  0  0  0  0  0
  161.0210  204.3370  153.0850 O   0  0  0  0  0  0  0  0  0  0  0  0
  161.7550  210.1110  149.9110 C   0  0  1  0  0  3  0  0  0  0  0  0
  161.4700  202.0740  152.4010 C   0  0  0  0  0  1  0  0  0  0  0  0
  162.2850  206.9350  147.2260 N   0  0  1  0  0  0  0  0  0  0  0  0
  159.2960  206.2230  145.2190 O   0  0  0  0  0  0  0  0  0  0  0  0
  162.4500  205.8080  148.1680 C   0  0  2  0  0  3  0  0  0  0  0  0
  162.6320  210.1250  151.0720 N   0  0  0  0  0  2  0  0  0  0  0  0
  163.2830  211.3640  148.3810 C   0  0  0  0  0  3  0  0  0  0  0  0
  162.0470  211.2880  149.0340 C   0  0  0  0  0  0  0  0  0  0  0  0
  161.1080  212.3180  148.8650 C   0  0  0  0  0  3  0  0  0  0  0  0
  160.4530  214.4530  147.8780 N   0  0  0  0  0  1  0  0  0  0  0  0
  162.6410  213.4820  147.3970 C   0  0  0  0  0  3  0  0  0  0  0  0
  161.4060  213.4120  148.0480 C   0  0  0  0  0  0  0  0  0  0  0  0
  163.5790  212.4590  147.5630 C   0  0  0  0  0  3  0  0  0  0  0  0
  160.8260  202.2860  145.6400 C   0  0  0  0  0  1  0  0  0  0  0  0
  162.1320  202.8320  146.1850 C   0  0  0  0  0  2  0  0  0  0  0  0
  1 27  1  0  0  0  0
  2 24  1  0  0  0  0
  2 22  1  0  0  0  0
  3  9  1  0  0  0  0
  3 20  1  0  0  0  0
  4  1  1  0  0  0  0
  6 22  1  0  0  0  0
  6 11  2  0  0  0  0
  7  3  1  0  0  0  0
  9  6  1  0  0  0  0
 10  5  1  6  0  0  0
 10 23  1  0  0  0  0
 10  7  1  0  0  0  0
 12  8  1  0  0  0  0
 12  4  1  0  0  0  0
 13 17  1  0  0  0  0
 13  9  2  0  0  0  0
 14  2  1  0  0  0  0
 16 11  1  0  0  0  0
 17  2  1  0  0  0  0
 18  8  1  1  0  0  0
 18 25  1  0  0  0  0
 18 19  1  0  0  0  0
 19  5  1  6  0  0  0
 20 15  1  1  0  0  0
 20 16  1  0  0  0  0
 21  7  2  0  0  0  0
 21 13  1  0  0  0  0
 23 30  1  6  0  0  0
 23 28  1  0  0  0  0
 25 19  1  0  0  0  0
 25 27  1  0  0  0  0
 26  8  2  0  0  0  0
 27 21  1  0  0  0  0
 28 15  1  0  0  0  0
 29 30  1  0  0  0  0
 31 30  2  0  0  0  0
 32 34  1  0  0  0  0
 33 35  1  0  0  0  0
 33 34  2  0  0  0  0
 34 31  1  0  0  0  0
 35 29  2  0  0  0  0
 36 37  1  0  0  0  0
 37  4  1  0  0  0  0
M  END
>  <MODEL>
7

>  <REMARK>
 VINA RESULT:      -4.1      2.405      6.142
  Name = 
  2 active torsions:
  status: ('A' for Active; 'I' for Inactive)
    1  A    between atoms: N_4  and  C_37
    2  A    between atoms: C_23  and  C_30
                            x       y       z     vdW  Elec       q    Type
                         _______ _______ _______ _____ _____    ______ ____

>  <TORSDO>
F 2

$$$$
