=
 OpenBabel11122413513D

 37 44  0  0  1  0  0  0  0  0999 V2000
  161.3580  209.7100  148.4470 C   0  0  0  0  0  2  0  0  0  0  0  0
  161.6380  205.8210  146.2230 C   0  0  0  0  0  0  0  0  0  0  0  0
  161.2310  205.4930  150.4170 C   0  0  0  0  0  0  0  0  0  0  0  0
  161.9570  210.9670  147.9860 N   0  0  0  0  0  0  0  0  0  0  0  0
  160.8970  208.6910  152.3620 O   0  0  0  0  0  0  0  0  0  0  0  0
  161.3350  204.3200  148.2780 C   0  0  0  0  0  0  0  0  0  0  0  0
  161.4540  206.7580  150.8170 C   0  0  2  0  0  3  0  0  0  0  0  0
  161.2490  211.7480  150.2430 C   0  0  0  0  0  0  0  0  0  0  0  0
  161.5440  205.3880  149.0290 C   0  0  0  0  0  0  0  0  0  0  0  0
  161.1900  207.3210  152.2080 C   0  0  0  0  0  0  0  0  0  0  0  0
  160.7970  203.0580  148.9190 C   0  0  0  0  0  3  0  0  0  0  0  0
  162.1610  211.9460  149.0660 C   0  0  0  0  0  2  0  0  0  0  0  0
  161.9620  206.6640  148.5570 C   0  0  0  0  0  0  0  0  0  0  0  0
  160.1840  206.2050  146.0020 C   0  0  0  0  0  1  0  0  0  0  0  0
  160.4180  204.3320  152.5770 C   0  0  0  0  0  2  0  0  0  0  0  0
  160.5040  203.1850  150.4150 C   0  0  0  0  0  3  0  0  0  0  0  0
  162.3210  206.8850  147.1190 C   0  0  0  0  0  2  0  0  0  0  0  0
  161.6360  210.7930  151.3340 C   0  0  1  0  0  3  0  0  0  0  0  0
  160.9090  209.5410  151.2420 C   0  0  1  0  0  3  0  0  0  0  0  0
  160.7070  204.3130  151.1200 C   0  0  0  0  0  0  0  0  0  0  0  0
  161.9210  207.5130  149.5830 C   0  0  0  0  0  0  0  0  0  0  0  0
  161.7110  204.3850  146.8160 C   0  0  0  0  0  2  0  0  0  0  0  0
  161.2160  206.5540  153.3300 C   0  0  0  0  0  0  0  0  0  0  0  0
  162.3310  205.8170  144.8770 C   0  0  0  0  0  1  0  0  0  0  0  0
  162.3240  209.5780  150.8190 N   0  0  1  0  0  0  0  0  0  0  0  0
  160.1940  212.3570  150.3080 O   0  0  0  0  0  0  0  0  0  0  0  0
  162.2590  208.9900  149.4680 C   0  0  2  0  0  3  0  0  0  0  0  0
  161.5220  205.0870  153.2900 C   0  0  0  0  0  2  0  0  0  0  0  0
  159.9080  206.6430  155.4610 C   0  0  0  0  0  3  0  0  0  0  0  0
  160.9680  207.1300  154.6790 C   0  0  0  0  0  0  0  0  0  0  0  0
  161.8080  208.1200  155.2170 C   0  0  0  0  0  3  0  0  0  0  0  0
  162.6280  209.8690  157.1470 Cl  0  0  0  0  0  0  0  0  0  0  0  0
  160.5120  208.1440  157.2610 C   0  0  0  0  0  3  0  0  0  0  0  0
  161.5770  208.6280  156.4990 C   0  0  0  0  0  0  0  0  0  0  0  0
  159.6780  207.1510  156.7430 C   0  0  0  0  0  3  0  0  0  0  0  0
  161.4760  212.9700  146.6930 C   0  0  0  0  0  1  0  0  0  0  0  0
  161.0320  211.5610  147.0350 C   0  0  0  0  0  2  0  0  0  0  0  0
  1 27  1  0  0  0  0
  2 22  1  0  0  0  0
  2 17  1  0  0  0  0
  3  7  1  0  0  0  0
  3 20  1  0  0  0  0
  4  1  1  0  0  0  0
  4 12  1  0  0  0  0
  6 11  2  0  0  0  0
  6  9  1  0  0  0  0
  7 21  1  6  0  0  0
  7 10  1  0  0  0  0
  8 26  2  0  0  0  0
  9  3  2  0  0  0  0
 10  5  1  0  0  0  0
 10 23  2  0  0  0  0
 11 16  1  0  0  0  0
 12  8  1  0  0  0  0
 13  9  1  0  0  0  0
 13 21  2  0  0  0  0
 14  2  1  0  0  0  0
 15 28  1  0  0  0  0
 16 20  2  0  0  0  0
 17 13  1  0  0  0  0
 18  8  1  6  0  0  0
 19 18  1  0  0  0  0
 19  5  1  1  0  0  0
 20 15  1  0  0  0  0
 22  6  1  0  0  0  0
 23 30  1  0  0  0  0
 24  2  1  0  0  0  0
 25 19  1  0  0  0  0
 25 18  1  0  0  0  0
 27 21  1  0  0  0  0
 27 25  1  0  0  0  0
 28 23  1  0  0  0  0
 29 35  1  0  0  0  0
 30 31  1  0  0  0  0
 30 29  2  0  0  0  0
 31 34  2  0  0  0  0
 34 32  1  0  0  0  0
 34 33  1  0  0  0  0
 35 33  2  0  0  0  0
 36 37  1  0  0  0  0
 37  4  1  0  0  0  0
M  END
>  <MODEL>
1

>  <REMARK>
 VINA RESULT:      -9.6      0.000      0.000
  Name = 
  2 active torsions:
  status: ('A' for Active; 'I' for Inactive)
    1  A    between atoms: N_4  and  C_37
    2  A    between atoms: C_23  and  C_30
                            x       y       z     vdW  Elec       q    Type
                         _______ _______ _______ _____ _____    ______ ____

>  <TORSDO>
F 2

$$$$
