=
 OpenBabel11122413573D

 37 42  0  0  1  0  0  0  0  0999 V2000
  161.9450  205.9760  151.6510 C   0  0  1  0  0  3  0  0  0  0  0  0
  162.2610  205.4830  148.2290 O   0  0  0  0  0  0  0  0  0  0  0  0
  161.3720  207.8940  153.2290 C   0  0  2  0  0  3  0  0  0  0  0  0
  161.4280  206.3940  150.2870 C   0  0  2  0  0  3  0  0  0  0  0  0
  162.4070  207.3000  152.2450 C   0  0  2  0  0  3  0  0  0  0  0  0
  161.3120  205.2670  149.2420 C   0  0  2  0  0  3  0  0  0  0  0  0
  160.7810  206.8010  154.1360 C   0  0  0  0  0  2  0  0  0  0  0  0
  162.6390  208.2110  151.0470 C   0  0  0  0  0  2  0  0  0  0  0  0
  160.9170  203.9150  152.2160 C   0  0  0  0  0  2  0  0  0  0  0  0
  161.2130  205.5130  153.7690 O   0  0  0  0  0  0  0  0  0  0  0  0
  160.4430  206.8110  147.3960 O   0  0  0  0  0  0  0  0  0  0  0  0
  161.6960  206.2030  147.1440 C   0  0  1  0  0  3  0  0  0  0  0  0
  160.8830  205.3520  152.4570 N   0  0  1  0  0  0  0  0  0  0  0  0
  162.3270  207.4570  149.8260 N   0  0  2  0  0  0  0  0  0  0  0  0
  161.3870  203.8270  149.7700 C   0  0  1  0  0  3  0  0  0  0  0  0
  161.5550  207.6770  147.4200 C   0  0  2  0  0  3  0  0  0  0  0  0
  161.6250  208.3000  148.8390 C   0  0  2  0  0  3  0  0  0  0  0  0
  160.3440  203.5660  150.8520 C   0  0  0  0  0  2  0  0  0  0  0  0
  161.2930  201.4670  148.9530 C   0  0  0  0  0  3  0  0  0  0  0  0
  161.2280  202.8330  148.6590 C   0  0  0  0  0  0  0  0  0  0  0  0
  161.0250  203.2490  147.3340 C   0  0  0  0  0  3  0  0  0  0  0  0
  160.6860  202.7170  145.0050 O   0  0  0  0  0  1  0  0  0  0  0  0
  160.9520  200.9390  146.6140 C   0  0  0  0  0  3  0  0  0  0  0  0
  160.8860  202.3030  146.3150 C   0  0  0  0  0  0  0  0  0  0  0  0
  161.1540  200.5210  147.9320 C   0  0  0  0  0  3  0  0  0  0  0  0
  162.3020  209.6780  148.6820 C   0  0  0  0  0  2  0  0  0  0  0  0
  161.3820  210.8210  148.7870 N   0  0  0  0  0  0  0  0  0  0  0  0
  160.5510  212.6310  150.1860 C   0  0  0  0  0  1  0  0  0  0  0  0
  161.5860  211.5330  150.0420 C   0  0  0  0  0  2  0  0  0  0  0  0
  161.6270  211.7490  147.6910 C   0  0  0  0  0  2  0  0  0  0  0  0
  163.0120  212.3560  147.8210 C   0  0  0  0  0  2  0  0  0  0  0  0
  162.9390  213.7430  147.6920 O   0  0  0  0  0  1  0  0  0  0  0  0
  160.3180  208.5280  152.5440 O   0  0  0  0  0  0  0  0  0  0  0  0
  160.1510  209.8160  153.0890 C   0  0  0  0  0  0  0  0  0  0  0  0
  159.2240  210.5480  152.3630 F   0  0  0  0  0  0  0  0  0  0  0  0
  159.7530  209.7400  154.4150 F   0  0  0  0  0  0  0  0  0  0  0  0
  161.3620  210.4780  153.0320 F   0  0  0  0  0  0  0  0  0  0  0  0
  1  5  1  0  0  0  0
  1 13  1  0  0  0  0
  2  6  1  0  0  0  0
  3  7  1  0  0  0  0
  4  1  1  0  0  0  0
  5  3  1  0  0  0  0
  6 15  1  0  0  0  0
  6  4  1  0  0  0  0
  8  5  1  0  0  0  0
  9 13  1  0  0  0  0
 10  7  1  0  0  0  0
 11 16  1  0  0  0  0
 12 11  1  0  0  0  0
 12 16  1  0  0  0  0
 12  2  1  0  0  0  0
 13 10  1  0  0  0  0
 14  4  1  0  0  0  0
 14  8  1  0  0  0  0
 15 18  1  0  0  0  0
 16 17  1  0  0  0  0
 17 14  1  0  0  0  0
 18  9  1  0  0  0  0
 20 19  1  0  0  0  0
 20 15  1  0  0  0  0
 21 20  2  0  0  0  0
 22 24  1  0  0  0  0
 23 25  1  0  0  0  0
 24 23  2  0  0  0  0
 24 21  1  0  0  0  0
 25 19  2  0  0  0  0
 26 27  1  0  0  0  0
 26 17  1  0  0  0  0
 27 29  1  0  0  0  0
 29 28  1  0  0  0  0
 30 31  1  0  0  0  0
 30 27  1  0  0  0  0
 32 31  1  0  0  0  0
 33 34  1  0  0  0  0
 33  3  1  0  0  0  0
 34 36  1  0  0  0  0
 35 34  1  0  0  0  0
 37 34  1  0  0  0  0
M  END
>  <MODEL>
1

>  <REMARK>
 VINA RESULT:      -7.8      0.000      0.000
  Name = 
  8 active torsions:
  status: ('A' for Active; 'I' for Inactive)
    1  A    between atoms: C_1  and  N_4
    2  A    between atoms: C_1  and  C_27
    3  A    between atoms: C_2  and  O_22
    4  A    between atoms: N_4  and  C_12
    5  A    between atoms: N_4  and  C_37
    6  A    between atoms: C_6  and  O_22
    7  A    between atoms: C_8  and  C_12
    8  A    between atoms: C_23  and  C_30
                            x       y       z     vdW  Elec       q    Type
                         _______ _______ _______ _____ _____    ______ ____

>  <TORSDO>
F 8

$$$$
=
 OpenBabel11122413573D

 37 42  0  0  1  0  0  0  0  0999 V2000
  161.8500  207.2230  152.1640 C   0  0  1  0  0  3  0  0  0  0  0  0
  162.2340  205.9200  148.9700 O   0  0  0  0  0  0  0  0  0  0  0  0
  161.2200  209.4550  153.2210 C   0  0  2  0  0  3  0  0  0  0  0  0
  161.3510  207.2880  150.7330 C   0  0  2  0  0  3  0  0  0  0  0  0
  162.2810  208.6600  152.4250 C   0  0  2  0  0  3  0  0  0  0  0  0
  161.2710  205.9380  149.9920 C   0  0  2  0  0  3  0  0  0  0  0  0
  160.6290  208.6040  154.3580 C   0  0  0  0  0  2  0  0  0  0  0  0
  162.5200  209.2580  151.0440 C   0  0  0  0  0  2  0  0  0  0  0  0
  160.8450  205.3410  153.2000 C   0  0  0  0  0  2  0  0  0  0  0  0
  161.0890  207.2740  154.3220 O   0  0  0  0  0  0  0  0  0  0  0  0
  160.4100  206.9700  147.8150 O   0  0  0  0  0  0  0  0  0  0  0  0
  161.6770  206.3440  147.7350 C   0  0  1  0  0  3  0  0  0  0  0  0
  160.7850  206.7930  153.0840 N   0  0  1  0  0  0  0  0  0  0  0  0
  162.2410  208.2240  150.0400 N   0  0  2  0  0  0  0  0  0  0  0  0
  161.3590  204.6720  150.8550 C   0  0  1  0  0  3  0  0  0  0  0  0
  161.5080  207.8380  147.6420 C   0  0  2  0  0  3  0  0  0  0  0  0
  161.5430  208.7880  148.8680 C   0  0  2  0  0  3  0  0  0  0  0  0
  160.3020  204.6610  151.9540 C   0  0  0  0  0  2  0  0  0  0  0  0
  161.1510  202.1890  150.6490 C   0  0  0  0  0  3  0  0  0  0  0  0
  161.2360  203.4340  150.0180 C   0  0  0  0  0  0  0  0  0  0  0  0
  161.2110  203.5040  148.6160 C   0  0  0  0  0  3  0  0  0  0  0  0
  161.0790  202.4080  146.4710 O   0  0  0  0  0  1  0  0  0  0  0  0
  161.0190  201.0940  148.4930 C   0  0  0  0  0  3  0  0  0  0  0  0
  161.1020  202.3360  147.8570 C   0  0  0  0  0  0  0  0  0  0  0  0
  161.0420  201.0210  149.8890 C   0  0  0  0  0  3  0  0  0  0  0  0
  162.2010  210.0990  148.3890 C   0  0  0  0  0  2  0  0  0  0  0  0
  161.3070  211.2670  148.4030 N   0  0  0  0  0  0  0  0  0  0  0  0
  163.2790  212.6410  148.0260 C   0  0  0  0  0  1  0  0  0  0  0  0
  162.0190  212.4570  148.8480 C   0  0  0  0  0  2  0  0  0  0  0  0
  160.8010  211.5120  147.0580 C   0  0  0  0  0  2  0  0  0  0  0  0
  159.7970  212.6510  147.0790 C   0  0  0  0  0  2  0  0  0  0  0  0
  160.0290  213.5110  146.0060 O   0  0  0  0  0  1  0  0  0  0  0  0
  160.1680  209.8830  152.3890 O   0  0  0  0  0  0  0  0  0  0  0  0
  159.9140  211.2420  152.6630 C   0  0  0  0  0  0  0  0  0  0  0  0
  158.5910  211.4370  153.0290 F   0  0  0  0  0  0  0  0  0  0  0  0
  160.7510  211.7050  153.6670 F   0  0  0  0  0  0  0  0  0  0  0  0
  160.1560  211.9750  151.5170 F   0  0  0  0  0  0  0  0  0  0  0  0
  1  5  1  0  0  0  0
  1 13  1  0  0  0  0
  2  6  1  0  0  0  0
  3  7  1  0  0  0  0
  4  1  1  0  0  0  0
  5  3  1  0  0  0  0
  6  4  1  0  0  0  0
  6 15  1  0  0  0  0
  8  5  1  0  0  0  0
 10  7  1  0  0  0  0
 12 11  1  0  0  0  0
 12  2  1  0  0  0  0
 13  9  1  0  0  0  0
 13 10  1  0  0  0  0
 14  4  1  0  0  0  0
 14  8  1  0  0  0  0
 15 18  1  0  0  0  0
 16 12  1  0  0  0  0
 16 11  1  0  0  0  0
 16 17  1  0  0  0  0
 17 14  1  0  0  0  0
 18  9  1  0  0  0  0
 20 19  1  0  0  0  0
 20 15  1  0  0  0  0
 21 20  2  0  0  0  0
 22 24  1  0  0  0  0
 23 25  1  0  0  0  0
 24 23  2  0  0  0  0
 24 21  1  0  0  0  0
 25 19  2  0  0  0  0
 26 27  1  0  0  0  0
 26 17  1  0  0  0  0
 27 29  1  0  0  0  0
 28 29  1  0  0  0  0
 30 31  1  0  0  0  0
 30 27  1  0  0  0  0
 32 31  1  0  0  0  0
 33 34  1  0  0  0  0
 33  3  1  0  0  0  0
 34 35  1  0  0  0  0
 34 36  1  0  0  0  0
 37 34  1  0  0  0  0
M  END
>  <MODEL>
2

>  <REMARK>
 VINA RESULT:      -7.4      1.311      1.675
  Name = 
  8 active torsions:
  status: ('A' for Active; 'I' for Inactive)
    1  A    between atoms: C_1  and  N_4
    2  A    between atoms: C_1  and  C_27
    3  A    between atoms: C_2  and  O_22
    4  A    between atoms: N_4  and  C_12
    5  A    between atoms: N_4  and  C_37
    6  A    between atoms: C_6  and  O_22
    7  A    between atoms: C_8  and  C_12
    8  A    between atoms: C_23  and  C_30
                            x       y       z     vdW  Elec       q    Type
                         _______ _______ _______ _____ _____    ______ ____

>  <TORSDO>
F 8

$$$$
=
 OpenBabel11122413573D

 37 42  0  0  1  0  0  0  0  0999 V2000
  160.4560  205.7750  150.3700 C   0  0  1  0  0  3  0  0  0  0  0  0
  160.7000  208.7560  152.1330 O   0  0  0  0  0  0  0  0  0  0  0  0
  161.2360  204.8480  148.1280 C   0  0  2  0  0  3  0  0  0  0  0  0
  161.3340  206.9810  150.6470 C   0  0  2  0  0  3  0  0  0  0  0  0
  160.2910  205.8310  148.8570 C   0  0  2  0  0  3  0  0  0  0  0  0
  161.3220  207.4970  152.1000 C   0  0  2  0  0  3  0  0  0  0  0  0
  161.2890  203.4920  148.8530 C   0  0  0  0  0  2  0  0  0  0  0  0
  160.5790  207.2790  148.4820 C   0  0  0  0  0  2  0  0  0  0  0  0
  160.7030  204.2660  152.1830 C   0  0  0  0  0  2  0  0  0  0  0  0
  160.5810  203.5110  150.0700 O   0  0  0  0  0  0  0  0  0  0  0  0
  162.9540  209.4110  151.6330 O   0  0  0  0  0  0  0  0  0  0  0  0
  161.6560  209.8010  152.0370 C   0  0  1  0  0  3  0  0  0  0  0  0
  161.1050  204.5290  150.8070 N   0  0  1  0  0  0  0  0  0  0  0  0
  160.8950  208.0200  149.7100 N   0  0  2  0  0  0  0  0  0  0  0  0
  160.7260  206.5590  153.1590 C   0  0  1  0  0  3  0  0  0  0  0  0
  162.1630  210.0140  150.6340 C   0  0  2  0  0  3  0  0  0  0  0  0
  161.9960  208.9790  149.4910 C   0  0  2  0  0  3  0  0  0  0  0  0
  161.4090  205.1960  153.1570 C   0  0  0  0  0  2  0  0  0  0  0  0
  159.9590  206.6910  155.5350 C   0  0  0  0  0  3  0  0  0  0  0  0
  160.8060  207.1660  154.5280 C   0  0  0  0  0  0  0  0  0  0  0  0
  161.7080  208.2040  154.8120 C   0  0  0  0  0  3  0  0  0  0  0  0
  162.6500  209.7850  156.3720 O   0  0  0  0  0  1  0  0  0  0  0  0
  160.9090  208.2790  157.0960 C   0  0  0  0  0  3  0  0  0  0  0  0
  161.7580  208.7580  156.0940 C   0  0  0  0  0  0  0  0  0  0  0  0
  160.0110  207.2460  156.8170 C   0  0  0  0  0  3  0  0  0  0  0  0
  161.7960  209.7890  148.1920 C   0  0  0  0  0  2  0  0  0  0  0  0
  161.8680  211.2470  148.3690 N   0  0  0  0  0  0  0  0  0  0  0  0
  162.9980  212.8960  146.9820 C   0  0  0  0  0  1  0  0  0  0  0  0
  163.1720  211.7530  147.9620 C   0  0  0  0  0  2  0  0  0  0  0  0
  160.8510  211.8910  147.5480 C   0  0  0  0  0  2  0  0  0  0  0  0
  160.0560  212.8790  148.3830 C   0  0  0  0  0  2  0  0  0  0  0  0
  160.6050  212.9720  149.6620 O   0  0  0  0  0  1  0  0  0  0  0  0
  162.5440  205.3620  148.0410 O   0  0  0  0  0  0  0  0  0  0  0  0
  163.0080  205.1650  146.7260 C   0  0  0  0  0  0  0  0  0  0  0  0
  162.8170  206.3010  145.9540 F   0  0  0  0  0  0  0  0  0  0  0  0
  164.3510  204.8190  146.7260 F   0  0  0  0  0  0  0  0  0  0  0  0
  162.2900  204.1310  146.1560 F   0  0  0  0  0  0  0  0  0  0  0  0
  1  4  1  0  0  0  0
  1 13  1  0  0  0  0
  3  7  1  0  0  0  0
  3  5  1  0  0  0  0
  4  6  1  0  0  0  0
  5  1  1  0  0  0  0
  6  2  1  0  0  0  0
  6 15  1  0  0  0  0
  7 10  1  0  0  0  0
  8  5  1  0  0  0  0
  8 14  1  0  0  0  0
  9 18  1  0  0  0  0
 10 13  1  0  0  0  0
 11 12  1  0  0  0  0
 12  2  1  0  0  0  0
 13  9  1  0  0  0  0
 14  4  1  0  0  0  0
 15 20  1  0  0  0  0
 16 11  1  0  0  0  0
 16 12  1  0  0  0  0
 17 14  1  0  0  0  0
 17 16  1  0  0  0  0
 18 15  1  0  0  0  0
 19 25  1  0  0  0  0
 20 21  1  0  0  0  0
 20 19  2  0  0  0  0
 21 24  2  0  0  0  0
 24 22  1  0  0  0  0
 24 23  1  0  0  0  0
 25 23  2  0  0  0  0
 26 27  1  0  0  0  0
 26 17  1  0  0  0  0
 28 29  1  0  0  0  0
 29 27  1  0  0  0  0
 30 27  1  0  0  0  0
 30 31  1  0  0  0  0
 31 32  1  0  0  0  0
 33  3  1  0  0  0  0
 34 36  1  0  0  0  0
 34 33  1  0  0  0  0
 35 34  1  0  0  0  0
 37 34  1  0  0  0  0
M  END
>  <MODEL>
3

>  <REMARK>
 VINA RESULT:      -7.0      3.118      6.408
  Name = 
  8 active torsions:
  status: ('A' for Active; 'I' for Inactive)
    1  A    between atoms: C_1  and  N_4
    2  A    between atoms: C_1  and  C_27
    3  A    between atoms: C_2  and  O_22
    4  A    between atoms: N_4  and  C_12
    5  A    between atoms: N_4  and  C_37
    6  A    between atoms: C_6  and  O_22
    7  A    between atoms: C_8  and  C_12
    8  A    between atoms: C_23  and  C_30
                            x       y       z     vdW  Elec       q    Type
                         _______ _______ _______ _____ _____    ______ ____

>  <TORSDO>
F 8

$$$$
