=
 OpenBabel11122414023D

 28 32  0  0  1  0  0  0  0  0999 V2000
  158.5870  212.5380  152.2760 C   0  0  0  0  0  0  0  0  0  0  0  0
  161.5540  209.8590  149.6980 O   0  0  0  0  0  0  0  0  0  0  0  0
  161.8690  210.8790  157.2610 O   0  0  0  0  0  0  0  0  0  0  0  0
  160.0260  213.3330  150.0010 C   0  0  0  0  0  3  0  0  0  0  0  0
  161.0940  209.2290  155.7790 N   0  0  0  0  0  0  0  0  0  0  0  0
  157.7930  212.2990  153.5200 C   0  0  0  0  0  2  0  0  0  0  0  0
  163.2390  210.3160  151.4410 O   0  0  0  0  0  0  0  0  0  0  0  0
  162.0580  209.4680  151.0580 S   0  0  0  0  0  0  0  0  0  0  0  0
  161.9670  206.8580  151.9960 C   0  0  0  0  0  0  0  0  0  0  0  0
  160.7590  209.6220  152.2620 C   0  0  1  0  0  3  0  0  0  0  0  0
  159.1170  214.4490  156.1720 O   0  0  0  0  0  0  0  0  0  0  0  0
  159.9450  210.6510  154.2550 C   0  0  1  0  0  3  0  0  0  0  0  0
  160.9400  207.2630  153.0210 C   0  0  0  0  0  2  0  0  0  0  0  0
  162.5090  207.7940  151.0510 N   0  0  0  0  0  2  0  0  0  0  0  0
  158.8110  213.3740  155.5940 C   0  0  0  0  0  0  0  0  0  0  0  0
  159.8860  211.9980  152.0410 C   0  0  0  0  0  0  0  0  0  0  0  0
  161.2100  210.5610  156.2350 C   0  0  0  0  0  0  0  0  0  0  0  0
  162.3310  205.6540  151.9450 O   0  0  0  0  0  0  0  0  0  0  0  0
  159.2990  212.0830  156.1680 C   0  0  0  0  0  2  0  0  0  0  0  0
  160.5880  212.4330  150.9060 C   0  0  0  0  0  3  0  0  0  0  0  0
  158.0360  213.4420  151.3570 C   0  0  0  0  0  3  0  0  0  0  0  0
  158.7460  213.8320  150.2230 C   0  0  0  0  0  3  0  0  0  0  0  0
  157.9800  213.4200  154.4300 N   0  0  0  0  0  2  0  0  0  0  0  0
  160.2880  209.1810  154.5750 C   0  0  1  0  0  3  0  0  0  0  0  0
  160.4830  211.5320  155.3870 C   0  0  2  0  0  3  0  0  0  0  0  0
  161.1300  208.7210  153.4060 C   0  0  2  0  0  3  0  0  0  0  0  0
  161.5730  208.0600  156.4950 C   0  0  0  0  0  1  0  0  0  0  0  0
  160.6080  210.9860  152.9190 C   0  0  2  0  0  3  0  0  0  0  0  0
  1  6  1  0  0  0  0
  2  8  2  0  0  0  0
  4 22  2  0  0  0  0
  4 20  1  0  0  0  0
  5 17  1  0  0  0  0
  5 27  1  0  0  0  0
  6 23  1  0  0  0  0
  8  7  2  0  0  0  0
  9 13  1  0  0  0  0
 10  8  1  6  0  0  0
 10 28  1  0  0  0  0
 10 26  1  0  0  0  0
 12 24  1  0  0  0  0
 12 25  1  0  0  0  0
 13 26  1  0  0  0  0
 14  8  1  0  0  0  0
 14  9  1  0  0  0  0
 15 19  1  0  0  0  0
 15 11  2  0  0  0  0
 16  1  1  0  0  0  0
 16 28  1  0  0  0  0
 17  3  2  0  0  0  0
 18  9  2  0  0  0  0
 20 16  2  0  0  0  0
 21  1  2  0  0  0  0
 22 21  1  0  0  0  0
 23 15  1  0  0  0  0
 24  5  1  0  0  0  0
 25 19  1  0  0  0  0
 25 17  1  0  0  0  0
 26 24  1  0  0  0  0
 28 12  1  0  0  0  0
M  END
>  <MODEL>
1

>  <REMARK>
 VINA RESULT:      -6.3      0.000      0.000
  Name = 
  0 active torsions:
  status: ('A' for Active; 'I' for Inactive)
                            x       y       z     vdW  Elec       q    Type
                         _______ _______ _______ _____ _____    ______ ____

>  <TORSDO>
F 0

$$$$
=
 OpenBabel11122414023D

 28 32  0  0  1  0  0  0  0  0999 V2000
  161.0890  207.4880  149.9570 C   0  0  0  0  0  0  0  0  0  0  0  0
  162.2070  205.9110  145.6110 O   0  0  0  0  0  0  0  0  0  0  0  0
  162.5170  201.8410  152.0670 O   0  0  0  0  0  0  0  0  0  0  0  0
  162.8790  208.6690  148.1470 C   0  0  0  0  0  3  0  0  0  0  0  0
  161.0520  202.0640  150.2430 N   0  0  0  0  0  0  0  0  0  0  0  0
  160.2140  206.9700  151.0530 C   0  0  0  0  0  2  0  0  0  0  0  0
  163.7320  204.3350  146.7400 O   0  0  0  0  0  0  0  0  0  0  0  0
  162.3080  204.5980  146.3350 S   0  0  0  0  0  0  0  0  0  0  0  0
  160.7010  202.4210  145.7210 C   0  0  0  0  0  0  0  0  0  0  0  0
  161.2410  204.5980  147.7570 C   0  0  1  0  0  3  0  0  0  0  0  0
  162.3300  206.0930  153.9100 O   0  0  0  0  0  0  0  0  0  0  0  0
  161.0100  204.4410  150.1260 C   0  0  1  0  0  3  0  0  0  0  0  0
  160.0110  202.5560  147.0540 C   0  0  0  0  0  2  0  0  0  0  0  0
  161.7390  203.3230  145.3070 N   0  0  0  0  0  2  0  0  0  0  0  0
  161.5140  205.9080  152.9710 C   0  0  0  0  0  0  0  0  0  0  0  0
  161.8720  206.6590  149.1000 C   0  0  0  0  0  0  0  0  0  0  0  0
  161.8650  202.5770  151.2780 C   0  0  0  0  0  0  0  0  0  0  0  0
  160.3280  201.5120  144.9340 O   0  0  0  0  0  0  0  0  0  0  0  0
  161.1510  204.5060  152.5970 C   0  0  0  0  0  2  0  0  0  0  0  0
  162.7730  207.2810  148.2220 C   0  0  0  0  0  3  0  0  0  0  0  0
  161.2070  208.8820  149.8690 C   0  0  0  0  0  3  0  0  0  0  0  0
  162.0890  209.4710  148.9650 C   0  0  0  0  0  3  0  0  0  0  0  0
  160.9360  207.0400  152.3160 N   0  0  0  0  0  2  0  0  0  0  0  0
  160.4440  203.1490  149.4990 C   0  0  1  0  0  3  0  0  0  0  0  0
  161.8700  204.0560  151.3350 C   0  0  2  0  0  3  0  0  0  0  0  0
  160.9610  203.1550  148.0770 C   0  0  2  0  0  3  0  0  0  0  0  0
  160.7410  200.6590  150.0500 C   0  0  0  0  0  1  0  0  0  0  0  0
  161.8370  205.1390  149.0470 C   0  0  2  0  0  3  0  0  0  0  0  0
  1  6  1  0  0  0  0
  2  8  2  0  0  0  0
  4 20  2  0  0  0  0
  4 22  1  0  0  0  0
  5 17  1  0  0  0  0
  6 23  1  0  0  0  0
  8  7  2  0  0  0  0
  9 13  1  0  0  0  0
 10  8  1  6  0  0  0
 10 26  1  0  0  0  0
 10 28  1  0  0  0  0
 12 25  1  0  0  0  0
 13 26  1  0  0  0  0
 14  9  1  0  0  0  0
 14  8  1  0  0  0  0
 15 11  2  0  0  0  0
 16  1  2  0  0  0  0
 17 25  1  0  0  0  0
 17  3  2  0  0  0  0
 18  9  2  0  0  0  0
 19 15  1  0  0  0  0
 20 16  1  0  0  0  0
 21  1  1  0  0  0  0
 22 21  2  0  0  0  0
 23 15  1  0  0  0  0
 24 12  1  0  0  0  0
 24  5  1  0  0  0  0
 25 19  1  0  0  0  0
 26 24  1  0  0  0  0
 27  5  1  0  0  0  0
 28 16  1  0  0  0  0
 28 12  1  0  0  0  0
M  END
>  <MODEL>
2

>  <REMARK>
 VINA RESULT:      -5.4      5.177      7.662
  Name = 
  0 active torsions:
  status: ('A' for Active; 'I' for Inactive)
                            x       y       z     vdW  Elec       q    Type
                         _______ _______ _______ _____ _____    ______ ____

>  <TORSDO>
F 0

$$$$
=
 OpenBabel11122414023D

 28 32  0  0  1  0  0  0  0  0999 V2000
  162.3120  206.0550  151.2010 C   0  0  0  0  0  0  0  0  0  0  0  0
  160.6090  201.6130  151.1590 O   0  0  0  0  0  0  0  0  0  0  0  0
  159.9780  206.7030  145.4990 O   0  0  0  0  0  0  0  0  0  0  0  0
  160.6590  204.8680  153.1340 C   0  0  0  0  0  3  0  0  0  0  0  0
  161.3260  204.8440  145.9980 N   0  0  0  0  0  0  0  0  0  0  0  0
  163.1460  206.8520  150.2500 C   0  0  0  0  0  2  0  0  0  0  0  0
  158.8930  202.4480  149.5960 O   0  0  0  0  0  0  0  0  0  0  0  0
  160.3090  201.9590  149.7280 S   0  0  0  0  0  0  0  0  0  0  0  0
  161.4210  200.5830  147.5890 C   0  0  0  0  0  0  0  0  0  0  0  0
  161.4540  203.1850  149.1390 C   0  0  1  0  0  3  0  0  0  0  0  0
  161.1070  209.5980  148.9420 O   0  0  0  0  0  0  0  0  0  0  0  0
  161.8160  205.3760  148.2660 C   0  0  1  0  0  3  0  0  0  0  0  0
  162.2150  201.8080  147.2170 C   0  0  0  0  0  2  0  0  0  0  0  0
  160.5480  200.5610  148.7300 N   0  0  0  0  0  2  0  0  0  0  0  0
  161.8040  208.5520  148.9060 C   0  0  0  0  0  0  0  0  0  0  0  0
  161.3260  205.1060  150.7970 C   0  0  0  0  0  0  0  0  0  0  0  0
  160.7020  206.0710  146.3150 C   0  0  0  0  0  0  0  0  0  0  0  0
  161.5560  199.5390  146.9000 O   0  0  0  0  0  0  0  0  0  0  0  0
  161.8650  207.7680  147.6340 C   0  0  0  0  0  2  0  0  0  0  0  0
  160.5020  204.5480  151.7860 C   0  0  0  0  0  3  0  0  0  0  0  0
  162.4580  206.3650  152.5600 C   0  0  0  0  0  3  0  0  0  0  0  0
  161.6440  205.7710  153.5220 C   0  0  0  0  0  3  0  0  0  0  0  0
  162.5420  208.1650  150.0690 N   0  0  0  0  0  2  0  0  0  0  0  0
  162.0780  204.3560  147.1370 C   0  0  1  0  0  3  0  0  0  0  0  0
  160.9850  206.5290  147.6930 C   0  0  2  0  0  3  0  0  0  0  0  0
  161.4730  203.0640  147.6410 C   0  0  2  0  0  3  0  0  0  0  0  0
  161.3480  204.2390  144.6780 C   0  0  0  0  0  1  0  0  0  0  0  0
  161.0640  204.6370  149.3730 C   0  0  2  0  0  3  0  0  0  0  0  0
  1 21  1  0  0  0  0
  3 17  2  0  0  0  0
  4 22  1  0  0  0  0
  5 17  1  0  0  0  0
  5 24  1  0  0  0  0
  6  1  1  0  0  0  0
  7  8  2  0  0  0  0
  8  2  2  0  0  0  0
  9 14  1  0  0  0  0
 10 28  1  0  0  0  0
 10  8  1  1  0  0  0
 12 28  1  0  0  0  0
 13  9  1  0  0  0  0
 13 26  1  0  0  0  0
 14  8  1  0  0  0  0
 15 11  2  0  0  0  0
 15 23  1  0  0  0  0
 16  1  2  0  0  0  0
 16 20  1  0  0  0  0
 17 25  1  0  0  0  0
 18  9  2  0  0  0  0
 19 25  1  0  0  0  0
 19 15  1  0  0  0  0
 20  4  2  0  0  0  0
 21 22  2  0  0  0  0
 23  6  1  0  0  0  0
 24 26  1  0  0  0  0
 24 12  1  0  0  0  0
 25 12  1  0  0  0  0
 26 10  1  0  0  0  0
 27  5  1  0  0  0  0
 28 16  1  0  0  0  0
M  END
>  <MODEL>
3

>  <REMARK>
 VINA RESULT:      -4.6      5.637      8.897
  Name = 
  0 active torsions:
  status: ('A' for Active; 'I' for Inactive)
                            x       y       z     vdW  Elec       q    Type
                         _______ _______ _______ _____ _____    ______ ____

>  <TORSDO>
F 0

$$$$
=
 OpenBabel11122414023D

 28 32  0  0  1  0  0  0  0  0999 V2000
  157.6640  213.1730  140.1900 C   0  0  0  0  0  0  0  0  0  0  0  0
  161.9300  214.4530  141.8610 O   0  0  0  0  0  0  0  0  0  0  0  0
  160.2800  207.8580  138.3800 O   0  0  0  0  0  0  0  0  0  0  0  0
  158.2550  214.0740  142.7810 C   0  0  0  0  0  3  0  0  0  0  0  0
  161.2850  209.9020  137.8040 N   0  0  0  0  0  0  0  0  0  0  0  0
  157.1850  212.6320  138.8810 C   0  0  0  0  0  2  0  0  0  0  0  0
  162.3730  212.0430  142.1440 O   0  0  0  0  0  0  0  0  0  0  0  0
  162.3540  213.1880  141.1700 S   0  0  0  0  0  0  0  0  0  0  0  0
  164.1870  213.1620  139.0870 C   0  0  0  0  0  0  0  0  0  0  0  0
  161.2640  212.8360  139.8100 C   0  0  1  0  0  3  0  0  0  0  0  0
  155.9690  209.2190  139.4120 O   0  0  0  0  0  0  0  0  0  0  0  0
  159.6870  211.3600  138.7970 C   0  0  1  0  0  3  0  0  0  0  0  0
  163.0960  212.7490  138.1340 C   0  0  0  0  0  2  0  0  0  0  0  0
  163.9290  213.4040  140.4790 N   0  0  0  0  0  2  0  0  0  0  0  0
  156.6920  210.1320  138.9370 C   0  0  0  0  0  0  0  0  0  0  0  0
  158.9170  212.8380  140.7830 C   0  0  0  0  0  0  0  0  0  0  0  0
  160.2620  209.1180  138.3820 C   0  0  0  0  0  0  0  0  0  0  0  0
  165.3500  213.3340  138.6390 O   0  0  0  0  0  0  0  0  0  0  0  0
  157.9130  209.7550  138.1610 C   0  0  0  0  0  2  0  0  0  0  0  0
  159.1720  213.2860  142.0880 C   0  0  0  0  0  3  0  0  0  0  0  0
  156.7520  213.9670  140.9000 C   0  0  0  0  0  3  0  0  0  0  0  0
  157.0470  214.4220  142.1840 C   0  0  0  0  0  3  0  0  0  0  0  0
  156.3060  211.4970  139.1250 N   0  0  0  0  0  2  0  0  0  0  0  0
  160.9920  211.3110  137.9750 C   0  0  1  0  0  3  0  0  0  0  0  0
  159.1800  209.9260  138.9860 C   0  0  2  0  0  3  0  0  0  0  0  0
  162.0320  211.9510  138.8680 C   0  0  2  0  0  3  0  0  0  0  0  0
  162.3850  209.3800  137.0130 C   0  0  0  0  0  1  0  0  0  0  0  0
  160.0240  212.0180  140.1350 C   0  0  2  0  0  3  0  0  0  0  0  0
  1 16  2  0  0  0  0
  1 21  1  0  0  0  0
  3 17  2  0  0  0  0
  5 24  1  0  0  0  0
  5 17  1  0  0  0  0
  6 23  1  0  0  0  0
  6  1  1  0  0  0  0
  8  2  2  0  0  0  0
  8  7  2  0  0  0  0
  9 14  1  0  0  0  0
 10 28  1  0  0  0  0
 10  8  1  1  0  0  0
 12 25  1  0  0  0  0
 12 28  1  0  0  0  0
 13 26  1  0  0  0  0
 13  9  1  0  0  0  0
 14  8  1  0  0  0  0
 15 23  1  0  0  0  0
 15 11  2  0  0  0  0
 16 20  1  0  0  0  0
 17 25  1  0  0  0  0
 18  9  2  0  0  0  0
 19 15  1  0  0  0  0
 19 25  1  0  0  0  0
 20  4  2  0  0  0  0
 21 22  2  0  0  0  0
 22  4  1  0  0  0  0
 24 12  1  0  0  0  0
 24 26  1  0  0  0  0
 26 10  1  0  0  0  0
 27  5  1  0  0  0  0
 28 16  1  0  0  0  0
M  END
>  <MODEL>
4

>  <REMARK>
 VINA RESULT:      -4.2     11.956     14.483
  Name = 
  0 active torsions:
  status: ('A' for Active; 'I' for Inactive)
                            x       y       z     vdW  Elec       q    Type
                         _______ _______ _______ _____ _____    ______ ____

>  <TORSDO>
F 0

$$$$
=
 OpenBabel11122414023D

 28 32  0  0  1  0  0  0  0  0999 V2000
  160.5560  209.2970  154.1510 C   0  0  0  0  0  0  0  0  0  0  0  0
  158.2250  212.0410  157.2610 O   0  0  0  0  0  0  0  0  0  0  0  0
  160.4730  214.1200  150.2630 O   0  0  0  0  0  0  0  0  0  0  0  0
  161.2790  209.8110  156.8140 C   0  0  0  0  0  3  0  0  0  0  0  0
  158.4800  213.4230  151.2930 N   0  0  0  0  0  0  0  0  0  0  0  0
  160.3470  208.9590  152.7100 C   0  0  0  0  0  2  0  0  0  0  0  0
  159.3130  213.9580  156.1530 O   0  0  0  0  0  0  0  0  0  0  0  0
  158.1760  212.9780  156.0870 S   0  0  0  0  0  0  0  0  0  0  0  0
  155.7920  213.8200  154.9420 C   0  0  0  0  0  0  0  0  0  0  0  0
  158.2270  212.0590  154.5660 C   0  0  1  0  0  3  0  0  0  0  0  0
  163.1280  210.3520  150.7780 O   0  0  0  0  0  0  0  0  0  0  0  0
  159.3530  211.5790  152.5170 C   0  0  1  0  0  3  0  0  0  0  0  0
  156.1170  213.0400  153.6950 C   0  0  0  0  0  2  0  0  0  0  0  0
  156.6630  213.8250  156.0840 N   0  0  0  0  0  2  0  0  0  0  0  0
  161.9350  210.1880  151.1400 C   0  0  0  0  0  0  0  0  0  0  0  0
  160.2860  210.5780  154.7190 C   0  0  0  0  0  0  0  0  0  0  0  0
  159.8590  213.3120  151.0110 C   0  0  0  0  0  0  0  0  0  0  0  0
  154.7060  214.4530  154.9960 O   0  0  0  0  0  0  0  0  0  0  0  0
  160.8910  211.1300  150.6310 C   0  0  0  0  0  2  0  0  0  0  0  0
  160.6790  210.8090  156.0460 C   0  0  0  0  0  3  0  0  0  0  0  0
  161.1580  208.3050  154.9360 C   0  0  0  0  0  3  0  0  0  0  0  0
  161.5110  208.5560  156.2610 C   0  0  0  0  0  3  0  0  0  0  0  0
  161.6110  209.0910  151.9990 N   0  0  0  0  0  2  0  0  0  0  0  0
  158.0650  212.3620  152.1880 C   0  0  1  0  0  3  0  0  0  0  0  0
  160.4990  212.1580  151.6810 C   0  0  2  0  0  3  0  0  0  0  0  0
  157.6230  212.9460  153.5130 C   0  0  2  0  0  3  0  0  0  0  0  0
  157.5740  214.3630  150.6550 C   0  0  0  0  0  1  0  0  0  0  0  0
  159.6100  211.7460  154.0150 C   0  0  2  0  0  3  0  0  0  0  0  0
  1 16  2  0  0  0  0
  1 21  1  0  0  0  0
  3 17  2  0  0  0  0
  5 24  1  0  0  0  0
  6  1  1  0  0  0  0
  8  7  2  0  0  0  0
  8  2  2  0  0  0  0
  9 18  2  0  0  0  0
  9 14  1  0  0  0  0
 10  8  1  1  0  0  0
 11 15  2  0  0  0  0
 12 28  1  0  0  0  0
 13  9  1  0  0  0  0
 14  8  1  0  0  0  0
 15 23  1  0  0  0  0
 16 20  1  0  0  0  0
 17  5  1  0  0  0  0
 17 25  1  0  0  0  0
 19 15  1  0  0  0  0
 19 25  1  0  0  0  0
 20  4  2  0  0  0  0
 21 22  2  0  0  0  0
 22  4  1  0  0  0  0
 23  6  1  0  0  0  0
 24 12  1  0  0  0  0
 24 26  1  0  0  0  0
 25 12  1  0  0  0  0
 26 13  1  0  0  0  0
 26 10  1  0  0  0  0
 27  5  1  0  0  0  0
 28 10  1  0  0  0  0
 28 16  1  0  0  0  0
M  END
>  <MODEL>
5

>  <REMARK>
 VINA RESULT:      -3.8      2.306      6.870
  Name = 
  0 active torsions:
  status: ('A' for Active; 'I' for Inactive)
                            x       y       z     vdW  Elec       q    Type
                         _______ _______ _______ _____ _____    ______ ____

>  <TORSDO>
F 0

$$$$
=
 OpenBabel11122414023D

 28 32  0  0  1  0  0  0  0  0999 V2000
  160.6220  203.8050  149.4350 C   0  0  0  0  0  0  0  0  0  0  0  0
  160.9950  205.0530  154.0100 O   0  0  0  0  0  0  0  0  0  0  0  0
  163.8310  208.9250  148.0690 O   0  0  0  0  0  0  0  0  0  0  0  0
  161.5820  202.2160  151.5390 C   0  0  0  0  0  3  0  0  0  0  0  0
  161.9590  209.0700  149.4800 N   0  0  0  0  0  0  0  0  0  0  0  0
  160.1900  204.5260  148.1980 C   0  0  0  0  0  2  0  0  0  0  0  0
  163.0810  206.2040  153.3690 O   0  0  0  0  0  0  0  0  0  0  0  0
  161.5820  206.3000  153.4110 S   0  0  0  0  0  0  0  0  0  0  0  0
  160.4440  208.8070  153.7620 C   0  0  0  0  0  0  0  0  0  0  0  0
  160.9240  206.5660  151.7810 C   0  0  1  0  0  3  0  0  0  0  0  0
  163.0840  204.8540  145.9780 O   0  0  0  0  0  0  0  0  0  0  0  0
  161.3210  206.7780  149.4380 C   0  0  1  0  0  3  0  0  0  0  0  0
  160.0880  208.8480  152.2980 C   0  0  0  0  0  2  0  0  0  0  0  0
  161.1030  207.6760  154.3520 N   0  0  0  0  0  2  0  0  0  0  0  0
  162.1330  205.2340  146.7070 C   0  0  0  0  0  0  0  0  0  0  0  0
  161.3490  204.4140  150.5010 C   0  0  0  0  0  0  0  0  0  0  0  0
  162.8510  208.3730  148.6360 C   0  0  0  0  0  0  0  0  0  0  0  0
  160.1200  209.7790  154.4930 O   0  0  0  0  0  0  0  0  0  0  0  0
  162.0370  206.6820  147.0710 C   0  0  0  0  0  2  0  0  0  0  0  0
  161.8330  203.5880  151.5260 C   0  0  0  0  0  3  0  0  0  0  0  0
  160.3770  202.4260  149.4630 C   0  0  0  0  0  3  0  0  0  0  0  0
  160.8460  201.6360  150.5110 C   0  0  0  0  0  3  0  0  0  0  0  0
  161.1590  204.2790  147.1380 N   0  0  0  0  0  2  0  0  0  0  0  0
  160.9460  208.1690  149.9920 C   0  0  1  0  0  3  0  0  0  0  0  0
  162.5150  206.9390  148.4920 C   0  0  2  0  0  3  0  0  0  0  0  0
  161.0850  208.0330  151.4920 C   0  0  2  0  0  3  0  0  0  0  0  0
  161.9560  210.5090  149.6790 C   0  0  0  0  0  1  0  0  0  0  0  0
  161.6680  205.8960  150.6370 C   0  0  2  0  0  3  0  0  0  0  0  0
  1 21  2  0  0  0  0
  1 16  1  0  0  0  0
  3 17  2  0  0  0  0
  5 27  1  0  0  0  0
  5 24  1  0  0  0  0
  6  1  1  0  0  0  0
  7  8  2  0  0  0  0
  8  2  2  0  0  0  0
  8 14  1  0  0  0  0
  9 14  1  0  0  0  0
  9 18  2  0  0  0  0
 10  8  1  1  0  0  0
 11 15  2  0  0  0  0
 12 24  1  0  0  0  0
 12 28  1  0  0  0  0
 13  9  1  0  0  0  0
 15 19  1  0  0  0  0
 15 23  1  0  0  0  0
 16 28  1  0  0  0  0
 16 20  2  0  0  0  0
 17  5  1  0  0  0  0
 19 25  1  0  0  0  0
 20  4  1  0  0  0  0
 21 22  1  0  0  0  0
 22  4  2  0  0  0  0
 23  6  1  0  0  0  0
 24 26  1  0  0  0  0
 25 17  1  0  0  0  0
 25 12  1  0  0  0  0
 26 10  1  0  0  0  0
 26 13  1  0  0  0  0
 28 10  1  0  0  0  0
M  END
>  <MODEL>
6

>  <REMARK>
 VINA RESULT:      -3.7      3.651      8.315
  Name = 
  0 active torsions:
  status: ('A' for Active; 'I' for Inactive)
                            x       y       z     vdW  Elec       q    Type
                         _______ _______ _______ _____ _____    ______ ____

>  <TORSDO>
F 0

$$$$
=
 OpenBabel11122414023D

 28 32  0  0  1  0  0  0  0  0999 V2000
  161.3630  210.1920  156.0850 C   0  0  0  0  0  0  0  0  0  0  0  0
  162.4090  207.5380  152.2780 O   0  0  0  0  0  0  0  0  0  0  0  0
  156.9830  212.9010  152.6420 O   0  0  0  0  0  0  0  0  0  0  0  0
  161.5260  207.3930  155.9790 C   0  0  0  0  0  3  0  0  0  0  0  0
  159.1720  212.7230  151.8070 N   0  0  0  0  0  0  0  0  0  0  0  0
  161.1860  211.6610  156.3050 C   0  0  0  0  0  2  0  0  0  0  0  0
  160.0560  207.8470  151.6050 O   0  0  0  0  0  0  0  0  0  0  0  0
  161.4270  208.4630  151.6170 S   0  0  0  0  0  0  0  0  0  0  0  0
  162.1250  210.1330  149.5120 C   0  0  0  0  0  0  0  0  0  0  0  0
  161.4030  210.0320  152.4520 C   0  0  1  0  0  3  0  0  0  0  0  0
  157.6870  212.2870  157.1840 O   0  0  0  0  0  0  0  0  0  0  0  0
  160.1690  211.6590  153.6870 C   0  0  1  0  0  3  0  0  0  0  0  0
  161.9260  211.3330  150.4010 C   0  0  0  0  0  2  0  0  0  0  0  0
  161.9420  208.7920  149.9940 N   0  0  0  0  0  2  0  0  0  0  0  0
  158.7460  212.3680  156.5100 C   0  0  0  0  0  0  0  0  0  0  0  0
  160.9610  209.5090  154.8990 C   0  0  0  0  0  0  0  0  0  0  0  0
  158.1850  212.5610  152.8050 C   0  0  0  0  0  0  0  0  0  0  0  0
  162.5000  210.3130  148.3250 O   0  0  0  0  0  0  0  0  0  0  0  0
  158.6920  212.9970  155.1550 C   0  0  0  0  0  2  0  0  0  0  0  0
  161.0350  208.1070  154.8870 C   0  0  0  0  0  3  0  0  0  0  0  0
  161.8550  209.4600  157.1730 C   0  0  0  0  0  3  0  0  0  0  0  0
  161.9440  208.0700  157.1200 C   0  0  0  0  0  3  0  0  0  0  0  0
  159.9690  211.8860  157.0740 N   0  0  0  0  0  2  0  0  0  0  0  0
  160.4490  212.2300  152.2810 C   0  0  1  0  0  3  0  0  0  0  0  0
  158.7100  211.9540  154.0480 C   0  0  2  0  0  3  0  0  0  0  0  0
  160.8790  211.0340  151.4610 C   0  0  2  0  0  3  0  0  0  0  0  0
  158.9760  213.4270  150.5520 C   0  0  0  0  0  1  0  0  0  0  0  0
  160.4400  210.1560  153.6240 C   0  0  2  0  0  3  0  0  0  0  0  0
  1  6  1  0  0  0  0
  1 21  1  0  0  0  0
  3 17  2  0  0  0  0
  4 22  1  0  0  0  0
  5 24  1  0  0  0  0
  5 17  1  0  0  0  0
  6 23  1  0  0  0  0
  7  8  2  0  0  0  0
  8  2  2  0  0  0  0
  9 14  1  0  0  0  0
  9 13  1  0  0  0  0
 10  8  1  6  0  0  0
 10 28  1  0  0  0  0
 12 25  1  0  0  0  0
 13 26  1  0  0  0  0
 14  8  1  0  0  0  0
 15 23  1  0  0  0  0
 15 11  2  0  0  0  0
 16  1  2  0  0  0  0
 17 25  1  0  0  0  0
 18  9  2  0  0  0  0
 19 15  1  0  0  0  0
 20 16  1  0  0  0  0
 20  4  2  0  0  0  0
 22 21  2  0  0  0  0
 24 12  1  0  0  0  0
 25 19  1  0  0  0  0
 26 24  1  0  0  0  0
 26 10  1  0  0  0  0
 27  5  1  0  0  0  0
 28 12  1  0  0  0  0
 28 16  1  0  0  0  0
M  END
>  <MODEL>
7

>  <REMARK>
 VINA RESULT:      -3.5      1.856      4.890
  Name = 
  0 active torsions:
  status: ('A' for Active; 'I' for Inactive)
                            x       y       z     vdW  Elec       q    Type
                         _______ _______ _______ _____ _____    ______ ____

>  <TORSDO>
F 0

$$$$
