=
 OpenBabel11122414333D

 34 40  0  0  1  0  0  0  0  0999 V2000
  161.4830  209.2950  150.8660 C   0  0  0  0  0  0  0  0  0  0  0  0
  160.8790  211.2100  152.2950 N   0  0  0  0  0  0  0  0  0  0  0  0
  160.4030  202.9250  149.5470 C   0  0  2  0  0  3  0  0  0  0  0  0
  161.5810  207.1740  149.5090 C   0  0  0  0  0  0  0  0  0  0  0  0
  161.3260  205.0010  150.6760 C   0  0  0  0  0  0  0  0  0  0  0  0
  161.1950  202.8400  152.0010 C   0  0  0  0  0  1  0  0  0  0  0  0
  159.7460  201.6020  149.9130 C   0  0  0  0  0  1  0  0  0  0  0  0
  161.8660  203.9380  147.8660 C   0  0  0  0  0  2  0  0  0  0  0  0
  160.8720  209.0460  153.2050 C   0  0  0  0  0  0  0  0  0  0  0  0
  159.8690  208.3440  156.0270 C   0  0  0  0  0  2  0  0  0  0  0  0
  161.2890  205.5800  151.8440 N   0  0  0  0  0  0  0  0  0  0  0  0
  161.0960  205.2340  148.0720 C   0  0  0  0  0  2  0  0  0  0  0  0
  160.9790  207.5700  153.1780 C   0  0  0  0  0  0  0  0  0  0  0  0
  160.5810  211.2680  153.5570 C   0  0  0  0  0  2  0  0  0  0  0  0
  161.3810  205.8390  149.4250 C   0  0  0  0  0  0  0  0  0  0  0  0
  161.0680  202.7690  148.2470 N   0  0  0  0  0  2  0  0  0  0  0  0
  160.3100  209.6490  155.5490 N   0  0  0  0  0  0  0  0  0  0  0  0
  161.8700  207.8240  150.8430 C   0  0  0  0  0  0  0  0  0  0  0  0
  161.3680  203.4810  150.6200 C   0  0  1  0  0  3  0  0  0  0  0  0
  161.3320  207.0000  152.0040 C   0  0  0  0  0  0  0  0  0  0  0  0
  162.3180  209.3700  148.5060 C   0  0  0  0  0  2  0  0  0  0  0  0
  160.8700  207.2680  155.6670 C   0  0  0  0  0  2  0  0  0  0  0  0
  161.6220  208.0300  148.2620 C   0  0  0  0  0  2  0  0  0  0  0  0
  160.5030  206.7050  154.3090 C   0  0  0  0  0  2  0  0  0  0  0  0
  160.5610  209.9200  154.1580 C   0  0  0  0  0  0  0  0  0  0  0  0
  161.6510  210.1460  149.6390 C   0  0  0  0  0  2  0  0  0  0  0  0
  161.0880  209.8310  152.0190 C   0  0  0  0  0  0  0  0  0  0  0  0
  160.4260  210.6870  156.4850 N   0  0  0  0  0  2  0  0  0  0  0  0
  159.1940  210.7240  157.2600 C   0  0  0  0  0  2  0  0  0  0  0  0
  158.4030  213.6540  155.3160 C   0  0  0  0  0  2  0  0  0  0  0  0
  157.3710  211.5290  155.7620 C   0  0  0  0  0  2  0  0  0  0  0  0
  158.3550  211.9190  156.8450 C   0  0  2  0  0  3  0  0  0  0  0  0
  157.3970  212.6640  154.7700 C   0  0  0  0  0  2  0  0  0  0  0  0
  159.2160  212.9580  156.3020 N   0  0  0  0  0  2  0  0  0  0  0  0
  1 27  1  0  0  0  0
  2 14  1  0  0  0  0
  3  7  1  1  0  0  0
  3 19  1  0  0  0  0
  4 18  1  0  0  0  0
  5 11  2  0  0  0  0
  8 12  1  0  0  0  0
  8 16  1  0  0  0  0
  9 25  2  0  0  0  0
 11 20  1  0  0  0  0
 12 15  1  0  0  0  0
 13  9  1  0  0  0  0
 13 24  1  0  0  0  0
 14 25  1  0  0  0  0
 15  4  2  0  0  0  0
 15  5  1  0  0  0  0
 16  3  1  0  0  0  0
 17 10  1  0  0  0  0
 17 28  1  0  0  0  0
 18  1  2  0  0  0  0
 18 20  1  0  0  0  0
 19  5  1  0  0  0  0
 19  6  1  1  0  0  0
 20 13  2  0  0  0  0
 21 26  1  0  0  0  0
 22 10  1  0  0  0  0
 23 21  1  0  0  0  0
 23  4  1  0  0  0  0
 24 22  1  0  0  0  0
 25 17  1  0  0  0  0
 26  1  1  0  0  0  0
 27  2  2  0  0  0  0
 27  9  1  0  0  0  0
 28 29  1  0  0  0  0
 30 34  1  0  0  0  0
 31 32  1  0  0  0  0
 32 29  1  6  0  0  0
 33 30  1  0  0  0  0
 33 31  1  0  0  0  0
 34 32  1  0  0  0  0
M  END
>  <MODEL>
1

>  <REMARK>
 VINA RESULT:      -9.5      0.000      0.000
  Name = 
  3 active torsions:
  status: ('A' for Active; 'I' for Inactive)
    1  A    between atoms: N_17  and  N_28
    2  A    between atoms: N_28  and  C_29
    3  A    between atoms: C_29  and  C_32
                            x       y       z     vdW  Elec       q    Type
                         _______ _______ _______ _____ _____    ______ ____

>  <TORSDO>
F 3

$$$$
=
 OpenBabel11122414333D

 34 40  0  0  1  0  0  0  0  0999 V2000
  161.1900  205.2550  151.7250 C   0  0  0  0  0  0  0  0  0  0  0  0
  160.9100  203.1740  150.4340 N   0  0  0  0  0  0  0  0  0  0  0  0
  160.2360  211.7790  151.8200 C   0  0  2  0  0  3  0  0  0  0  0  0
  161.0270  207.5450  152.7630 C   0  0  0  0  0  0  0  0  0  0  0  0
  161.3010  209.5340  151.3090 C   0  0  0  0  0  0  0  0  0  0  0  0
  161.7420  211.4850  149.7460 C   0  0  0  0  0  1  0  0  0  0  0  0
  159.8220  213.0560  151.1020 C   0  0  0  0  0  1  0  0  0  0  0  0
  161.0380  210.9730  153.9870 C   0  0  0  0  0  2  0  0  0  0  0  0
  161.3410  205.1840  149.3000 C   0  0  0  0  0  0  0  0  0  0  0  0
  161.3000  205.5030  146.2410 C   0  0  0  0  0  2  0  0  0  0  0  0
  161.5790  208.7940  150.2710 N   0  0  0  0  0  2  0  0  0  0  0  0
  160.2730  209.6860  153.7190 C   0  0  0  0  0  2  0  0  0  0  0  0
  161.5440  206.6440  149.1720 C   0  0  0  0  0  0  0  0  0  0  0  0
  161.0060  202.9450  149.1600 C   0  0  0  0  0  3  0  0  0  0  0  0
  160.9100  208.8840  152.6100 C   0  0  0  0  0  0  0  0  0  0  0  0
  160.4830  212.0990  153.2310 N   0  0  0  0  0  2  0  0  0  0  0  0
  161.4770  204.2680  146.9950 N   0  0  0  0  0  0  0  0  0  0  0  0
  161.6600  206.7010  151.6800 C   0  0  0  0  0  0  0  0  0  0  0  0
  161.4380  211.0440  151.1810 C   0  0  1  0  0  3  0  0  0  0  0  0
  161.5640  207.3660  150.3140 C   0  0  0  0  0  0  0  0  0  0  0  0
  161.2590  205.4940  154.2160 C   0  0  0  0  0  2  0  0  0  0  0  0
  162.2200  206.5890  146.7550 C   0  0  0  0  0  2  0  0  0  0  0  0
  160.6230  206.8760  154.0590 C   0  0  0  0  0  2  0  0  0  0  0  0
  161.5010  207.3510  147.8480 C   0  0  0  0  0  2  0  0  0  0  0  0
  161.2710  204.1920  148.4170 C   0  0  0  0  0  0  0  0  0  0  0  0
  160.9130  204.5840  153.0400 C   0  0  0  0  0  2  0  0  0  0  0  0
  161.1270  204.5710  150.5840 C   0  0  0  0  0  0  0  0  0  0  0  0
  161.7950  203.1020  146.2820 N   0  0  0  0  0  2  0  0  0  0  0  0
  160.6120  202.7090  145.5270 C   0  0  0  0  0  2  0  0  0  0  0  0
  160.5190  199.1390  145.0400 C   0  0  0  0  0  2  0  0  0  0  0  0
  161.2840  200.6440  146.7520 C   0  0  0  0  0  2  0  0  0  0  0  0
  160.2320  201.2790  145.8670 C   0  0  2  0  0  3  0  0  0  0  0  0
  161.4650  199.2460  146.2160 C   0  0  0  0  0  2  0  0  0  0  0  0
  160.1470  200.4900  144.6490 N   0  0  0  0  0  2  0  0  0  0  0  0
  1 26  1  0  0  0  0
  2 27  1  0  0  0  0
  3  7  1  6  0  0  0
  3 16  1  0  0  0  0
  4 23  1  0  0  0  0
  5 15  2  0  0  0  0
  9 27  1  0  0  0  0
 10 22  1  0  0  0  0
 10 17  1  0  0  0  0
 11 20  1  0  0  0  0
 11  5  1  0  0  0  0
 12  8  1  0  0  0  0
 13  9  1  0  0  0  0
 13 20  2  0  0  0  0
 14  2  2  0  0  0  0
 15  4  1  0  0  0  0
 15 12  1  0  0  0  0
 16  8  1  0  0  0  0
 17 25  1  0  0  0  0
 18  1  1  0  0  0  0
 18  4  2  0  0  0  0
 19  6  1  6  0  0  0
 19  5  1  0  0  0  0
 19  3  1  0  0  0  0
 20 18  1  0  0  0  0
 22 24  1  0  0  0  0
 23 21  1  0  0  0  0
 24 13  1  0  0  0  0
 25 14  1  0  0  0  0
 25  9  2  0  0  0  0
 26 21  1  0  0  0  0
 27  1  2  0  0  0  0
 28 17  1  0  0  0  0
 29 28  1  0  0  0  0
 30 33  1  0  0  0  0
 32 29  1  6  0  0  0
 32 31  1  0  0  0  0
 33 31  1  0  0  0  0
 34 30  1  0  0  0  0
 34 32  1  0  0  0  0
M  END
>  <MODEL>
2

>  <REMARK>
 VINA RESULT:      -8.3      2.239      9.637
  Name = 
  3 active torsions:
  status: ('A' for Active; 'I' for Inactive)
    1  A    between atoms: N_17  and  N_28
    2  A    between atoms: N_28  and  C_29
    3  A    between atoms: C_29  and  C_32
                            x       y       z     vdW  Elec       q    Type
                         _______ _______ _______ _____ _____    ______ ____

>  <TORSDO>
F 3

$$$$
=
 OpenBabel11122414333D

 34 40  0  0  1  0  0  0  0  0999 V2000
  160.7990  207.4060  154.4680 C   0  0  0  0  0  0  0  0  0  0  0  0
  160.9730  205.0670  153.7100 N   0  0  0  0  0  0  0  0  0  0  0  0
  158.5810  213.4480  153.0360 C   0  0  2  0  0  3  0  0  0  0  0  0
  160.1580  209.7970  154.9380 C   0  0  0  0  0  0  0  0  0  0  0  0
  160.0810  211.4030  153.0510 C   0  0  0  0  0  0  0  0  0  0  0  0
  160.1780  212.9790  151.0640 C   0  0  0  0  0  1  0  0  0  0  0  0
  157.9470  214.4130  152.0430 C   0  0  0  0  0  1  0  0  0  0  0  0
  159.4580  213.3490  155.3180 C   0  0  0  0  0  2  0  0  0  0  0  0
  161.0360  206.7990  152.1270 C   0  0  0  0  0  0  0  0  0  0  0  0
  161.0270  206.3760  149.0800 C   0  0  0  0  0  2  0  0  0  0  0  0
  160.5310  210.5100  152.2130 N   0  0  0  0  0  2  0  0  0  0  0  0
  158.9700  211.9090  155.3740 C   0  0  0  0  0  2  0  0  0  0  0  0
  160.9520  208.1990  151.6540 C   0  0  0  0  0  0  0  0  0  0  0  0
  161.1520  204.5690  152.5250 C   0  0  0  0  0  3  0  0  0  0  0  0
  159.7860  211.0120  154.4760 C   0  0  0  0  0  0  0  0  0  0  0  0
  158.7170  214.1330  154.3270 N   0  0  0  0  0  2  0  0  0  0  0  0
  161.4200  205.4130  150.1010 N   0  0  0  0  0  0  0  0  0  0  0  0
  160.9770  208.8650  154.0750 C   0  0  0  0  0  0  0  0  0  0  0  0
  159.9220  212.8370  152.5680 C   0  0  1  0  0  3  0  0  0  0  0  0
  160.7950  209.1580  152.5930 C   0  0  0  0  0  0  0  0  0  0  0  0
  160.7430  208.2330  156.8310 C   0  0  0  0  0  2  0  0  0  0  0  0
  161.7010  207.7120  149.3080 C   0  0  0  0  0  2  0  0  0  0  0  0
  159.8530  209.3850  156.3620 C   0  0  0  0  0  2  0  0  0  0  0  0
  160.8120  208.5530  150.2010 C   0  0  0  0  0  2  0  0  0  0  0  0
  161.1890  205.6340  151.5040 C   0  0  0  0  0  0  0  0  0  0  0  0
  160.6190  207.0220  155.9090 C   0  0  0  0  0  2  0  0  0  0  0  0
  160.9060  206.4750  153.5220 C   0  0  0  0  0  0  0  0  0  0  0  0
  161.9820  204.1990  149.6780 N   0  0  0  0  0  2  0  0  0  0  0  0
  160.9380  203.4380  149.0050 C   0  0  0  0  0  2  0  0  0  0  0  0
  160.7130  201.7690  145.8190 C   0  0  0  0  0  2  0  0  0  0  0  0
  161.5260  203.8840  146.6230 C   0  0  0  0  0  2  0  0  0  0  0  0
  161.4800  202.8400  147.7200 C   0  0  2  0  0  3  0  0  0  0  0  0
  161.0330  203.1820  145.3830 C   0  0  0  0  0  2  0  0  0  0  0  0
  160.6050  201.7680  147.2700 N   0  0  0  0  0  2  0  0  0  0  0  0
  1 26  1  0  0  0  0
  3  7  1  6  0  0  0
  3 16  1  0  0  0  0
  4 23  1  0  0  0  0
  5 15  2  0  0  0  0
  8 12  1  0  0  0  0
  9 27  1  0  0  0  0
 10 22  1  0  0  0  0
 10 17  1  0  0  0  0
 11 20  1  0  0  0  0
 11  5  1  0  0  0  0
 13  9  1  0  0  0  0
 13 20  2  0  0  0  0
 14  2  2  0  0  0  0
 15  4  1  0  0  0  0
 15 12  1  0  0  0  0
 16  8  1  0  0  0  0
 17 25  1  0  0  0  0
 18  1  1  0  0  0  0
 18  4  2  0  0  0  0
 19  6  1  6  0  0  0
 19  3  1  0  0  0  0
 19  5  1  0  0  0  0
 20 18  1  0  0  0  0
 22 24  1  0  0  0  0
 23 21  1  0  0  0  0
 24 13  1  0  0  0  0
 25  9  2  0  0  0  0
 25 14  1  0  0  0  0
 26 21  1  0  0  0  0
 27  2  1  0  0  0  0
 27  1  2  0  0  0  0
 28 17  1  0  0  0  0
 29 28  1  0  0  0  0
 30 34  1  0  0  0  0
 31 32  1  0  0  0  0
 32 29  1  1  0  0  0
 33 30  1  0  0  0  0
 33 31  1  0  0  0  0
 34 32  1  0  0  0  0
M  END
>  <MODEL>
3

>  <REMARK>
 VINA RESULT:      -8.0      1.638      9.075
  Name = 
  3 active torsions:
  status: ('A' for Active; 'I' for Inactive)
    1  A    between atoms: N_17  and  N_28
    2  A    between atoms: N_28  and  C_29
    3  A    between atoms: C_29  and  C_32
                            x       y       z     vdW  Elec       q    Type
                         _______ _______ _______ _____ _____    ______ ____

>  <TORSDO>
F 3

$$$$
=
 OpenBabel11122414333D

 34 40  0  0  1  0  0  0  0  0999 V2000
  160.8730  207.0660  154.0520 C   0  0  0  0  0  0  0  0  0  0  0  0
  161.0130  204.7630  153.1850 N   0  0  0  0  0  0  0  0  0  0  0  0
  158.7140  213.1930  152.9230 C   0  0  2  0  0  3  0  0  0  0  0  0
  160.2650  209.4400  154.6390 C   0  0  0  0  0  0  0  0  0  0  0  0
  160.1900  211.1330  152.8290 C   0  0  0  0  0  0  0  0  0  0  0  0
  160.2870  212.7990  150.9170 C   0  0  0  0  0  1  0  0  0  0  0  0
  158.0820  214.2100  151.9830 C   0  0  0  0  0  1  0  0  0  0  0  0
  159.6100  212.9780  155.1900 C   0  0  0  0  0  2  0  0  0  0  0  0
  161.0820  206.5670  151.6830 C   0  0  0  0  0  0  0  0  0  0  0  0
  161.0410  206.2860  148.6210 C   0  0  0  0  0  2  0  0  0  0  0  0
  160.6220  210.2750  151.9470 N   0  0  0  0  0  2  0  0  0  0  0  0
  159.1050  211.5430  155.1840 C   0  0  0  0  0  2  0  0  0  0  0  0
  161.0110  207.9880  151.2760 C   0  0  0  0  0  0  0  0  0  0  0  0
  161.1760  204.3190  151.9760 C   0  0  0  0  0  3  0  0  0  0  0  0
  159.9020  210.6800  154.2370 C   0  0  0  0  0  0  0  0  0  0  0  0
  158.8690  213.8160  154.2430 N   0  0  0  0  0  2  0  0  0  0  0  0
  161.4310  205.2720  149.5920 N   0  0  0  0  0  0  0  0  0  0  0  0
  161.0650  208.5400  153.7260 C   0  0  0  0  0  0  0  0  0  0  0  0
  160.0440  212.5900  152.4150 C   0  0  1  0  0  3  0  0  0  0  0  0
  160.8730  208.9030  152.2600 C   0  0  0  0  0  0  0  0  0  0  0  0
  160.8480  207.7830  156.4520 C   0  0  0  0  0  2  0  0  0  0  0  0
  161.7320  207.6020  148.9030 C   0  0  0  0  0  2  0  0  0  0  0  0
  159.9680  208.9660  156.0450 C   0  0  0  0  0  2  0  0  0  0  0  0
  160.8610  208.4100  149.8430 C   0  0  0  0  0  2  0  0  0  0  0  0
  161.2160  205.4290  151.0060 C   0  0  0  0  0  0  0  0  0  0  0  0
  160.7020  206.6180  155.4760 C   0  0  0  0  0  2  0  0  0  0  0  0
  160.9620  206.1790  153.0630 C   0  0  0  0  0  0  0  0  0  0  0  0
  161.9760  204.0730  149.1080 N   0  0  0  0  0  2  0  0  0  0  0  0
  161.5930  203.9460  147.7080 C   0  0  0  0  0  2  0  0  0  0  0  0
  160.9170  200.7190  146.2540 C   0  0  0  0  0  2  0  0  0  0  0  0
  161.2680  201.5930  148.4660 C   0  0  0  0  0  2  0  0  0  0  0  0
  160.8080  202.6650  147.4990 C   0  0  2  0  0  3  0  0  0  0  0  0
  161.3320  200.3240  147.6540 C   0  0  0  0  0  2  0  0  0  0  0  0
  161.0310  202.1660  146.1510 N   0  0  0  0  0  2  0  0  0  0  0  0
  1 26  1  0  0  0  0
  3  7  1  6  0  0  0
  3 16  1  0  0  0  0
  4 23  1  0  0  0  0
  5 15  2  0  0  0  0
  9 27  1  0  0  0  0
 10 22  1  0  0  0  0
 10 17  1  0  0  0  0
 11 20  1  0  0  0  0
 11  5  1  0  0  0  0
 12  8  1  0  0  0  0
 13  9  1  0  0  0  0
 13 20  2  0  0  0  0
 14  2  2  0  0  0  0
 15  4  1  0  0  0  0
 15 12  1  0  0  0  0
 16  8  1  0  0  0  0
 17 25  1  0  0  0  0
 18  1  1  0  0  0  0
 18  4  2  0  0  0  0
 19  6  1  6  0  0  0
 19  5  1  0  0  0  0
 19  3  1  0  0  0  0
 20 18  1  0  0  0  0
 22 24  1  0  0  0  0
 23 21  1  0  0  0  0
 24 13  1  0  0  0  0
 25  9  2  0  0  0  0
 25 14  1  0  0  0  0
 26 21  1  0  0  0  0
 27  2  1  0  0  0  0
 27  1  2  0  0  0  0
 28 17  1  0  0  0  0
 29 28  1  0  0  0  0
 30 33  1  0  0  0  0
 32 29  1  1  0  0  0
 32 31  1  0  0  0  0
 33 31  1  0  0  0  0
 34 30  1  0  0  0  0
 34 32  1  0  0  0  0
M  END
>  <MODEL>
4

>  <REMARK>
 VINA RESULT:      -8.0      1.724      9.159
  Name = 
  3 active torsions:
  status: ('A' for Active; 'I' for Inactive)
    1  A    between atoms: N_17  and  N_28
    2  A    between atoms: N_28  and  C_29
    3  A    between atoms: C_29  and  C_32
                            x       y       z     vdW  Elec       q    Type
                         _______ _______ _______ _____ _____    ______ ____

>  <TORSDO>
F 3

$$$$
=
 OpenBabel11122414333D

 34 40  0  0  1  0  0  0  0  0999 V2000
  161.4910  207.4650  149.4460 C   0  0  0  0  0  0  0  0  0  0  0  0
  161.7630  205.6860  147.7620 N   0  0  0  0  0  0  0  0  0  0  0  0
  162.0360  209.0670  155.8190 C   0  0  2  0  0  3  0  0  0  0  0  0
  161.6190  209.0130  151.4300 C   0  0  0  0  0  0  0  0  0  0  0  0
  161.0660  208.1190  153.6760 C   0  0  0  0  0  0  0  0  0  0  0  0
  160.3400  207.1250  155.8950 C   0  0  0  0  0  1  0  0  0  0  0  0
  162.2900  208.6490  157.2610 C   0  0  0  0  0  1  0  0  0  0  0  0
  161.5230  211.0340  154.4560 C   0  0  0  0  0  2  0  0  0  0  0  0
  161.0870  205.1210  149.9380 C   0  0  0  0  0  0  0  0  0  0  0  0
  160.7820  202.2410  150.9750 C   0  0  0  0  0  2  0  0  0  0  0  0
  160.7260  206.9610  153.1810 N   0  0  0  0  0  0  0  0  0  0  0  0
  162.3340  210.3920  153.3410 C   0  0  0  0  0  2  0  0  0  0  0  0
  160.7800  205.3710  151.3640 C   0  0  0  0  0  0  0  0  0  0  0  0
  161.5450  204.4080  147.8340 C   0  0  0  0  0  3  0  0  0  0  0  0
  161.6340  209.1820  152.7720 C   0  0  0  0  0  0  0  0  0  0  0  0
  161.9210  210.5300  155.7730 N   0  0  0  0  0  2  0  0  0  0  0  0
  160.7650  202.6820  149.5860 N   0  0  0  0  0  0  0  0  0  0  0  0
  160.9290  207.8170  150.8150 C   0  0  2  0  0  3  0  0  0  0  0  0
  160.8220  208.3770  155.1550 C   0  0  1  0  0  3  0  0  0  0  0  0
  160.8360  206.6520  151.7900 C   0  0  0  0  0  0  0  0  0  0  0  0
  161.6730  209.9360  149.0820 C   0  0  0  0  0  2  0  0  0  0  0  0
  159.8550  203.0830  151.8230 C   0  0  0  0  0  2  0  0  0  0  0  0
  162.2000  210.0660  150.5120 C   0  0  0  0  0  2  0  0  0  0  0  0
  160.6370  204.2610  152.3660 C   0  0  0  0  0  2  0  0  0  0  0  0
  161.1250  204.0190  149.1930 C   0  0  0  0  0  0  0  0  0  0  0  0
  161.9480  208.5480  148.5090 C   0  0  0  0  0  2  0  0  0  0  0  0
  161.4750  206.1910  149.0600 C   0  0  0  0  0  0  0  0  0  0  0  0
  160.4460  201.7370  148.5990 N   0  0  0  0  0  2  0  0  0  0  0  0
  161.5900  200.8460  148.4540 C   0  0  0  0  0  2  0  0  0  0  0  0
  161.0730  198.9720  145.4200 C   0  0  0  0  0  2  0  0  0  0  0  0
  160.8130  201.2570  146.1210 C   0  0  0  0  0  2  0  0  0  0  0  0
  161.8000  200.5060  146.9900 C   0  0  2  0  0  3  0  0  0  0  0  0
  160.3450  200.2580  145.0930 C   0  0  0  0  0  2  0  0  0  0  0  0
  161.5780  199.0840  146.7800 N   0  0  0  0  0  2  0  0  0  0  0  0
  2 14  2  0  0  0  0
  2 27  1  0  0  0  0
  3  7  1  1  0  0  0
  4 15  2  0  0  0  0
  5 19  1  0  0  0  0
  8 16  1  0  0  0  0
  9 13  1  0  0  0  0
 10 22  1  0  0  0  0
 11  5  2  0  0  0  0
 12  8  1  0  0  0  0
 13 20  2  0  0  0  0
 13 24  1  0  0  0  0
 14 25  1  0  0  0  0
 15 12  1  0  0  0  0
 15  5  1  0  0  0  0
 16  3  1  0  0  0  0
 17 10  1  0  0  0  0
 18  1  1  6  0  0  0
 18  4  1  0  0  0  0
 18 20  1  0  0  0  0
 19  3  1  0  0  0  0
 19  6  1  1  0  0  0
 20 11  1  0  0  0  0
 21 23  1  0  0  0  0
 22 24  1  0  0  0  0
 23  4  1  0  0  0  0
 25 17  1  0  0  0  0
 25  9  2  0  0  0  0
 26 21  1  0  0  0  0
 26  1  1  0  0  0  0
 27  1  2  0  0  0  0
 27  9  1  0  0  0  0
 28 17  1  0  0  0  0
 29 28  1  0  0  0  0
 30 34  1  0  0  0  0
 31 32  1  0  0  0  0
 32 29  1  1  0  0  0
 33 30  1  0  0  0  0
 33 31  1  0  0  0  0
 34 32  1  0  0  0  0
M  END
>  <MODEL>
5

>  <REMARK>
 VINA RESULT:      -7.9      2.108      8.891
  Name = 
  3 active torsions:
  status: ('A' for Active; 'I' for Inactive)
    1  A    between atoms: N_17  and  N_28
    2  A    between atoms: N_28  and  C_29
    3  A    between atoms: C_29  and  C_32
                            x       y       z     vdW  Elec       q    Type
                         _______ _______ _______ _____ _____    ______ ____

>  <TORSDO>
F 3

$$$$
=
 OpenBabel11122414333D

 34 40  0  0  1  0  0  0  0  0999 V2000
  160.9180  204.9500  152.2420 C   0  0  0  0  0  0  0  0  0  0  0  0
  161.3880  206.1690  154.3320 N   0  0  0  0  0  0  0  0  0  0  0  0
  162.1750  204.5180  145.7840 C   0  0  2  0  0  3  0  0  0  0  0  0
  160.9490  203.8650  149.9680 C   0  0  0  0  0  0  0  0  0  0  0  0
  161.1440  205.3090  147.9620 C   0  0  0  0  0  0  0  0  0  0  0  0
  161.2030  206.8990  145.9850 C   0  0  0  0  0  1  0  0  0  0  0  0
  162.8200  205.0930  144.5300 C   0  0  0  0  0  1  0  0  0  0  0  0
  160.8300  202.6220  146.5490 C   0  0  0  0  0  2  0  0  0  0  0  0
  161.3550  207.3400  152.2970 C   0  0  0  0  0  0  0  0  0  0  0  0
  162.1530  210.2930  151.9720 C   0  0  0  0  0  2  0  0  0  0  0  0
  161.0860  206.3950  148.6820 N   0  0  0  0  0  0  0  0  0  0  0  0
  161.5650  202.7200  147.8770 C   0  0  0  0  0  2  0  0  0  0  0  0
  161.2690  207.4890  150.8270 C   0  0  0  0  0  0  0  0  0  0  0  0
  161.5900  207.4330  154.5520 C   0  0  0  0  0  2  0  0  0  0  0  0
  161.1730  203.9630  148.6380 C   0  0  0  0  0  0  0  0  0  0  0  0
  161.6120  203.2030  145.4540 N   0  0  0  0  0  2  0  0  0  0  0  0
  161.7320  209.6250  153.1970 N   0  0  0  0  0  0  0  0  0  0  0  0
  160.5530  205.0830  150.7710 C   0  0  0  0  0  0  0  0  0  0  0  0
  161.1260  205.4400  146.4460 C   0  0  1  0  0  3  0  0  0  0  0  0
  161.0120  206.3740  150.1090 C   0  0  0  0  0  0  0  0  0  0  0  0
  160.2610  202.5450  152.0070 C   0  0  0  0  0  2  0  0  0  0  0  0
  161.1960  209.9980  150.8370 C   0  0  0  0  0  2  0  0  0  0  0  0
  160.9910  202.5210  150.6630 C   0  0  0  0  0  2  0  0  0  0  0  0
  161.6700  208.7510  150.1200 C   0  0  0  0  0  2  0  0  0  0  0  0
  161.5830  208.1970  153.2890 C   0  0  0  0  0  0  0  0  0  0  0  0
  160.8310  203.6180  152.9320 C   0  0  0  0  0  2  0  0  0  0  0  0
  161.2180  206.0530  152.9250 C   0  0  0  0  0  0  0  0  0  0  0  0
  161.5320  210.4130  154.3410 N   0  0  0  0  0  2  0  0  0  0  0  0
  160.5860  211.4650  153.9940 C   0  0  0  0  0  2  0  0  0  0  0  0
  157.3800  211.0790  155.5920 C   0  0  0  0  0  2  0  0  0  0  0  0
  158.1860  211.9090  153.4850 C   0  0  0  0  0  2  0  0  0  0  0  0
  159.1650  210.9490  154.1290 C   0  0  2  0  0  3  0  0  0  0  0  0
  157.0190  211.9870  154.4370 C   0  0  0  0  0  2  0  0  0  0  0  0
  158.8130  210.8400  155.5360 N   0  0  0  0  0  2  0  0  0  0  0  0
  1 27  1  0  0  0  0
  1 26  1  0  0  0  0
  2 14  1  0  0  0  0
  3  7  1  6  0  0  0
  3 19  1  0  0  0  0
  4 23  1  0  0  0  0
  4 18  1  0  0  0  0
  5 15  1  0  0  0  0
  5 11  2  0  0  0  0
  8 12  1  0  0  0  0
  9 27  1  0  0  0  0
  9 25  2  0  0  0  0
 10 17  1  0  0  0  0
 11 20  1  0  0  0  0
 12 15  1  0  0  0  0
 13  9  1  0  0  0  0
 15  4  2  0  0  0  0
 16  3  1  0  0  0  0
 16  8  1  0  0  0  0
 17 25  1  0  0  0  0
 17 28  1  0  0  0  0
 18  1  2  0  0  0  0
 19  6  1  1  0  0  0
 19  5  1  0  0  0  0
 20 18  1  0  0  0  0
 20 13  2  0  0  0  0
 21 26  1  0  0  0  0
 22 10  1  0  0  0  0
 23 21  1  0  0  0  0
 24 13  1  0  0  0  0
 24 22  1  0  0  0  0
 25 14  1  0  0  0  0
 27  2  2  0  0  0  0
 29 28  1  0  0  0  0
 31 32  1  0  0  0  0
 31 33  1  0  0  0  0
 32 29  1  1  0  0  0
 32 34  1  0  0  0  0
 33 30  1  0  0  0  0
 34 30  1  0  0  0  0
M  END
>  <MODEL>
6

>  <REMARK>
 VINA RESULT:      -7.6      1.663      4.189
  Name = 
  3 active torsions:
  status: ('A' for Active; 'I' for Inactive)
    1  A    between atoms: N_17  and  N_28
    2  A    between atoms: N_28  and  C_29
    3  A    between atoms: C_29  and  C_32
                            x       y       z     vdW  Elec       q    Type
                         _______ _______ _______ _____ _____    ______ ____

>  <TORSDO>
F 3

$$$$
=
 OpenBabel11122414333D

 34 40  0  0  1  0  0  0  0  0999 V2000
  161.9340  208.5340  150.2480 C   0  0  0  0  0  0  0  0  0  0  0  0
  161.5140  210.5760  151.5630 N   0  0  0  0  0  0  0  0  0  0  0  0
  160.2960  202.2140  149.3220 C   0  0  2  0  0  3  0  0  0  0  0  0
  161.8340  206.3350  149.0210 C   0  0  0  0  0  0  0  0  0  0  0  0
  161.4060  204.2660  150.3190 C   0  0  0  0  0  0  0  0  0  0  0  0
  161.1040  202.2080  151.7720 C   0  0  0  0  0  1  0  0  0  0  0  0
  159.5310  200.9770  149.7720 C   0  0  0  0  0  1  0  0  0  0  0  0
  161.8210  202.9950  147.5750 C   0  0  0  0  0  2  0  0  0  0  0  0
  161.3310  208.4780  152.6010 C   0  0  0  0  0  0  0  0  0  0  0  0
  160.3020  208.0360  155.4660 C   0  0  0  0  0  2  0  0  0  0  0  0
  161.4320  204.9150  151.4490 N   0  0  0  0  0  0  0  0  0  0  0  0
  161.1680  204.3620  147.7060 C   0  0  0  0  0  2  0  0  0  0  0  0
  161.3100  207.0000  152.6620 C   0  0  0  0  0  0  0  0  0  0  0  0
  161.2350  210.7340  152.8210 C   0  0  0  0  0  2  0  0  0  0  0  0
  161.5190  205.0200  149.0190 C   0  0  0  0  0  0  0  0  0  0  0  0
  160.9300  201.9240  148.0310 N   0  0  0  0  0  2  0  0  0  0  0  0
  160.8490  209.2660  154.9080 N   0  0  0  0  0  0  0  0  0  0  0  0
  162.1930  207.0360  150.3120 C   0  0  0  0  0  0  0  0  0  0  0  0
  161.3160  202.7470  150.3540 C   0  0  1  0  0  3  0  0  0  0  0  0
  161.5990  206.3330  151.5240 C   0  0  0  0  0  0  0  0  0  0  0  0
  162.7470  208.3950  147.8830 C   0  0  0  0  0  2  0  0  0  0  0  0
  161.2020  206.8570  155.1660 C   0  0  0  0  0  2  0  0  0  0  0  0
  161.9350  207.1080  147.7250 C   0  0  0  0  0  2  0  0  0  0  0  0
  160.7730  206.2490  153.8470 C   0  0  0  0  0  2  0  0  0  0  0  0
  161.1060  209.4320  153.5020 C   0  0  0  0  0  0  0  0  0  0  0  0
  162.1620  209.2920  148.9710 C   0  0  0  0  0  2  0  0  0  0  0  0
  161.6000  209.1700  151.3690 C   0  0  0  0  0  0  0  0  0  0  0  0
  161.0640  210.3450  155.7790 N   0  0  0  0  0  2  0  0  0  0  0  0
  160.9710  211.5710  154.9960 C   0  0  0  0  0  2  0  0  0  0  0  0
  157.6250  212.8580  155.3510 C   0  0  0  0  0  2  0  0  0  0  0  0
  159.2570  211.8330  156.7870 C   0  0  0  0  0  2  0  0  0  0  0  0
  159.8940  212.4720  155.5700 C   0  0  2  0  0  3  0  0  0  0  0  0
  157.7780  212.0920  156.6470 C   0  0  0  0  0  2  0  0  0  0  0  0
  158.8460  212.6750  154.5820 N   0  0  0  0  0  2  0  0  0  0  0  0
  1 18  2  0  0  0  0
  1 27  1  0  0  0  0
  2 14  1  0  0  0  0
  3  7  1  1  0  0  0
  3 19  1  0  0  0  0
  4 18  1  0  0  0  0
  5 19  1  0  0  0  0
  5 11  2  0  0  0  0
  8 12  1  0  0  0  0
  8 16  1  0  0  0  0
  9 13  1  0  0  0  0
  9 25  2  0  0  0  0
 11 20  1  0  0  0  0
 12 15  1  0  0  0  0
 13 24  1  0  0  0  0
 14 25  1  0  0  0  0
 15  4  2  0  0  0  0
 15  5  1  0  0  0  0
 16  3  1  0  0  0  0
 17 10  1  0  0  0  0
 17 28  1  0  0  0  0
 18 20  1  0  0  0  0
 19  6  1  1  0  0  0
 20 13  2  0  0  0  0
 21 26  1  0  0  0  0
 22 10  1  0  0  0  0
 23 21  1  0  0  0  0
 23  4  1  0  0  0  0
 24 22  1  0  0  0  0
 25 17  1  0  0  0  0
 26  1  1  0  0  0  0
 27  2  2  0  0  0  0
 27  9  1  0  0  0  0
 29 28  1  0  0  0  0
 30 33  1  0  0  0  0
 32 29  1  6  0  0  0
 32 31  1  0  0  0  0
 33 31  1  0  0  0  0
 34 30  1  0  0  0  0
 34 32  1  0  0  0  0
M  END
>  <MODEL>
7

>  <REMARK>
 VINA RESULT:      -6.9      0.966      1.227
  Name = 
  3 active torsions:
  status: ('A' for Active; 'I' for Inactive)
    1  A    between atoms: N_17  and  N_28
    2  A    between atoms: N_28  and  C_29
    3  A    between atoms: C_29  and  C_32
                            x       y       z     vdW  Elec       q    Type
                         _______ _______ _______ _____ _____    ______ ____

>  <TORSDO>
F 3

$$$$
=
 OpenBabel11122414333D

 34 40  0  0  1  0  0  0  0  0999 V2000
  161.8220  208.2310  149.3200 C   0  0  0  0  0  0  0  0  0  0  0  0
  162.3310  206.6890  147.4670 N   0  0  0  0  0  0  0  0  0  0  0  0
  161.7150  209.0430  155.8630 C   0  0  2  0  0  3  0  0  0  0  0  0
  161.6940  209.5220  151.4800 C   0  0  0  0  0  0  0  0  0  0  0  0
  160.9890  208.3330  153.5390 C   0  0  0  0  0  0  0  0  0  0  0  0
  160.1180  207.0420  155.5420 C   0  0  0  0  0  1  0  0  0  0  0  0
  161.8600  208.4580  157.2610 C   0  0  0  0  0  1  0  0  0  0  0  0
  161.2270  211.1430  154.7050 C   0  0  0  0  0  2  0  0  0  0  0  0
  161.4940  205.8290  149.4850 C   0  0  0  0  0  0  0  0  0  0  0  0
  161.2420  202.8330  150.1320 C   0  0  0  0  0  2  0  0  0  0  0  0
  160.7530  207.2340  152.8770 N   0  0  0  0  0  0  0  0  0  0  0  0
  162.1650  210.6790  153.6020 C   0  0  0  0  0  2  0  0  0  0  0  0
  161.0480  205.8870  150.8950 C   0  0  0  0  0  0  0  0  0  0  0  0
  162.1730  205.4040  147.3620 C   0  0  0  0  0  3  0  0  0  0  0  0
  161.5810  209.5230  152.8280 C   0  0  0  0  0  0  0  0  0  0  0  0
  161.5310  210.4950  155.9840 N   0  0  0  0  0  2  0  0  0  0  0  0
  161.3270  203.4430  148.8110 N   0  0  0  0  0  0  0  0  0  0  0  0
  161.1220  208.3870  150.6620 C   0  0  2  0  0  3  0  0  0  0  0  0
  160.6010  208.3950  155.0090 C   0  0  1  0  0  3  0  0  0  0  0  0
  161.0020  207.1060  151.4760 C   0  0  0  0  0  0  0  0  0  0  0  0
  161.9110  210.7340  149.2760 C   0  0  0  0  0  2  0  0  0  0  0  0
  160.2020  203.5260  150.9840 C   0  0  0  0  0  2  0  0  0  0  0  0
  162.3010  210.7030  150.7540 C   0  0  0  0  0  2  0  0  0  0  0  0
  160.8730  204.6560  151.7370 C   0  0  0  0  0  2  0  0  0  0  0  0
  161.6540  204.8320  148.6190 C   0  0  0  0  0  0  0  0  0  0  0  0
  162.3050  209.4390  148.5690 C   0  0  0  0  0  2  0  0  0  0  0  0
  161.9040  207.0150  148.7830 C   0  0  0  0  0  0  0  0  0  0  0  0
  161.1460  202.6170  147.6910 N   0  0  0  0  0  2  0  0  0  0  0  0
  161.8670  203.2180  146.5770 C   0  0  0  0  0  2  0  0  0  0  0  0
  159.3310  201.7320  144.4920 C   0  0  0  0  0  2  0  0  0  0  0  0
  160.3270  203.9060  144.7410 C   0  0  0  0  0  2  0  0  0  0  0  0
  161.2280  202.8060  145.2640 C   0  0  2  0  0  3  0  0  0  0  0  0
  159.0940  203.2030  144.2310 C   0  0  0  0  0  2  0  0  0  0  0  0
  160.4060  201.6240  145.4670 N   0  0  0  0  0  2  0  0  0  0  0  0
  2 27  1  0  0  0  0
  3 16  1  0  0  0  0
  3  7  1  1  0  0  0
  4 15  2  0  0  0  0
  5 19  1  0  0  0  0
  8 16  1  0  0  0  0
  9 13  1  0  0  0  0
 10 22  1  0  0  0  0
 11  5  2  0  0  0  0
 12  8  1  0  0  0  0
 13 20  2  0  0  0  0
 13 24  1  0  0  0  0
 14  2  2  0  0  0  0
 14 25  1  0  0  0  0
 15  5  1  0  0  0  0
 15 12  1  0  0  0  0
 17 10  1  0  0  0  0
 18  1  1  6  0  0  0
 18 20  1  0  0  0  0
 18  4  1  0  0  0  0
 19  6  1  1  0  0  0
 19  3  1  0  0  0  0
 20 11  1  0  0  0  0
 21 23  1  0  0  0  0
 22 24  1  0  0  0  0
 23  4  1  0  0  0  0
 25 17  1  0  0  0  0
 25  9  2  0  0  0  0
 26 21  1  0  0  0  0
 26  1  1  0  0  0  0
 27  1  2  0  0  0  0
 27  9  1  0  0  0  0
 28 17  1  0  0  0  0
 29 28  1  0  0  0  0
 30 34  1  0  0  0  0
 31 32  1  0  0  0  0
 32 34  1  0  0  0  0
 32 29  1  1  0  0  0
 33 30  1  0  0  0  0
 33 31  1  0  0  0  0
M  END
>  <MODEL>
8

>  <REMARK>
 VINA RESULT:      -6.8      1.969      8.569
  Name = 
  3 active torsions:
  status: ('A' for Active; 'I' for Inactive)
    1  A    between atoms: N_17  and  N_28
    2  A    between atoms: N_28  and  C_29
    3  A    between atoms: C_29  and  C_32
                            x       y       z     vdW  Elec       q    Type
                         _______ _______ _______ _____ _____    ______ ____

>  <TORSDO>
F 3

$$$$
