=
 OpenBabel11122412393D

 30 35  0  0  1  0  0  0  0  0999 V2000
  161.4990  208.0000  150.9390 C   0  0  0  0  0  0  0  0  0  0  0  0
  161.1970  208.9810  153.2420 C   0  0  0  0  0  0  0  0  0  0  0  0
  160.9670  204.1830  152.3810 N   0  0  0  0  0  0  0  0  0  0  0  0
  161.5380  206.8550  150.1050 C   0  0  0  0  0  0  0  0  0  0  0  0
  161.6560  209.2870  150.3240 N   0  0  0  0  0  0  0  0  0  0  0  0
  163.7240  208.1170  148.1710 O   0  0  0  0  0  1  0  0  0  0  0  0
  162.0850  204.8540  147.7270 C   0  0  1  0  0  3  0  0  0  0  0  0
  162.3390  208.2860  148.2050 C   0  0  2  0  0  3  0  0  0  0  0  0
  161.7400  203.8430  148.8100 C   0  0  2  0  0  3  0  0  0  0  0  0
  161.1410  203.5280  151.2130 C   0  0  0  0  0  0  0  0  0  0  0  0
  162.0020  209.4580  149.0800 C   0  0  0  0  0  0  0  0  0  0  0  0
  161.7090  207.0610  148.6940 N   0  0  0  0  0  0  0  0  0  0  0  0
  160.9450  208.7660  154.6020 C   0  0  0  0  0  3  0  0  0  0  0  0
  160.6880  202.9370  148.2030 C   0  0  0  0  0  2  0  0  0  0  0  0
  161.8970  204.0950  146.4220 C   0  0  0  0  0  2  0  0  0  0  0  0
  161.4430  210.6620  152.7850 Cl  0  0  0  0  0  0  0  0  0  0  0  0
  161.0960  205.4730  152.0290 C   0  0  0  0  0  0  0  0  0  0  0  0
  160.7440  207.4840  155.1020 C   0  0  0  0  0  3  0  0  0  0  0  0
  161.2490  207.8750  152.3440 C   0  0  0  0  0  0  0  0  0  0  0  0
  161.3400  205.5900  150.6870 C   0  0  0  0  0  0  0  0  0  0  0  0
  161.1550  202.0370  151.1460 C   0  0  0  0  0  1  0  0  0  0  0  0
  161.3620  204.3440  150.1450 N   0  0  0  0  0  0  0  0  0  0  0  0
  161.0220  202.8850  146.7250 C   0  0  0  0  0  2  0  0  0  0  0  0
  159.7260  205.9040  147.8010 C   0  0  0  0  0  1  0  0  0  0  0  0
  160.7930  206.3900  154.2470 C   0  0  0  0  0  3  0  0  0  0  0  0
  161.0410  206.5720  152.8830 C   0  0  0  0  0  0  0  0  0  0  0  0
  161.2350  206.1190  147.7000 C   0  0  2  0  0  3  0  0  0  0  0  0
  162.1140  210.7430  148.5440 O   0  0  0  0  0  0  0  0  0  0  0  0
  161.6960  213.0920  148.3160 C   0  0  0  0  0  1  0  0  0  0  0  0
  161.6820  211.8990  149.2480 C   0  0  0  0  0  2  0  0  0  0  0  0
  1 19  1  0  0  0  0
  2 13  1  0  0  0  0
  4 20  1  0  0  0  0
  4  1  2  0  0  0  0
  5  1  1  0  0  0  0
  7 15  1  6  0  0  0
  7  9  1  0  0  0  0
  8  6  1  1  0  0  0
  8 12  1  0  0  0  0
  8 11  1  0  0  0  0
  9 14  1  6  0  0  0
  9 22  1  0  0  0  0
 10  3  2  0  0  0  0
 11  5  2  0  0  0  0
 12  4  1  0  0  0  0
 13 18  2  0  0  0  0
 15 23  1  0  0  0  0
 16  2  1  0  0  0  0
 17  3  1  0  0  0  0
 17 26  1  0  0  0  0
 19 26  1  0  0  0  0
 19  2  2  0  0  0  0
 20 17  2  0  0  0  0
 21 10  1  0  0  0  0
 22 20  1  0  0  0  0
 22 10  1  0  0  0  0
 23 14  1  0  0  0  0
 25 18  1  0  0  0  0
 26 25  2  0  0  0  0
 27  7  1  0  0  0  0
 27 24  1  1  0  0  0
 27 12  1  0  0  0  0
 28 11  1  0  0  0  0
 28 30  1  0  0  0  0
 29 30  1  0  0  0  0
M  END
>  <MODEL>
1

>  <REMARK>
 VINA RESULT:      -7.6      0.000      0.000
  Name = 
  2 active torsions:
  status: ('A' for Active; 'I' for Inactive)
    1  A    between atoms: C_11  and  O_28
    2  A    between atoms: O_28  and  C_30
                            x       y       z     vdW  Elec       q    Type
                         _______ _______ _______ _____ _____    ______ ____

>  <TORSDO>
F 2

$$$$
=
 OpenBabel11122412393D

 30 35  0  0  1  0  0  0  0  0999 V2000
  161.4970  208.4620  151.2720 C   0  0  0  0  0  0  0  0  0  0  0  0
  161.7080  206.4060  149.8270 C   0  0  0  0  0  0  0  0  0  0  0  0
  160.5110  206.1850  154.5530 N   0  0  0  0  0  0  0  0  0  0  0  0
  161.2300  209.0280  152.5420 C   0  0  0  0  0  0  0  0  0  0  0  0
  161.8720  209.3470  150.2050 N   0  0  0  0  0  0  0  0  0  0  0  0
  159.9310  211.6510  151.3020 O   0  0  0  0  0  1  0  0  0  0  0  0
  160.4730  211.0060  154.8820 C   0  0  1  0  0  3  0  0  0  0  0  0
  161.2690  211.3170  151.5150 C   0  0  2  0  0  3  0  0  0  0  0  0
  160.2840  209.6880  155.6180 C   0  0  2  0  0  3  0  0  0  0  0  0
  160.3340  207.2000  155.4250 C   0  0  0  0  0  0  0  0  0  0  0  0
  161.8150  210.6450  150.2880 C   0  0  0  0  0  0  0  0  0  0  0  0
  161.3760  210.4490  152.6860 N   0  0  0  0  0  0  0  0  0  0  0  0
  161.6440  205.0120  149.7280 C   0  0  0  0  0  3  0  0  0  0  0  0
  161.0710  209.8220  156.9050 C   0  0  0  0  0  2  0  0  0  0  0  0
  160.6220  212.0420  155.9860 C   0  0  0  0  0  2  0  0  0  0  0  0
  162.1010  207.2440  148.3310 Cl  0  0  0  0  0  0  0  0  0  0  0  0
  160.8690  206.8140  153.4210 C   0  0  0  0  0  0  0  0  0  0  0  0
  161.3300  204.2260  150.8320 C   0  0  0  0  0  3  0  0  0  0  0  0
  161.4520  207.0440  151.0760 C   0  0  0  0  0  0  0  0  0  0  0  0
  160.9060  208.1690  153.6080 C   0  0  0  0  0  0  0  0  0  0  0  0
  159.8490  206.9610  156.8170 C   0  0  0  0  0  1  0  0  0  0  0  0
  160.5730  208.4330  154.8990 N   0  0  0  0  0  0  0  0  0  0  0  0
  160.9930  211.2940  157.2600 C   0  0  0  0  0  2  0  0  0  0  0  0
  162.9970  210.5770  154.5360 C   0  0  0  0  0  1  0  0  0  0  0  0
  161.0740  204.8250  152.0590 C   0  0  0  0  0  3  0  0  0  0  0  0
  161.1320  206.2150  152.1910 C   0  0  0  0  0  0  0  0  0  0  0  0
  161.6790  211.0830  153.9530 C   0  0  2  0  0  3  0  0  0  0  0  0
  162.2180  211.4440  149.2150 O   0  0  0  0  0  0  0  0  0  0  0  0
  160.8050  213.0470  148.1310 C   0  0  0  0  0  1  0  0  0  0  0  0
  161.3970  211.6550  148.0760 C   0  0  0  0  0  2  0  0  0  0  0  0
  1  4  1  0  0  0  0
  2 19  1  0  0  0  0
  3 10  2  0  0  0  0
  4 12  1  0  0  0  0
  4 20  2  0  0  0  0
  5 11  2  0  0  0  0
  5  1  1  0  0  0  0
  7  9  1  0  0  0  0
  7 15  1  1  0  0  0
  8  6  1  6  0  0  0
  8 12  1  0  0  0  0
  9 14  1  1  0  0  0
 10 21  1  0  0  0  0
 11  8  1  0  0  0  0
 12 27  1  0  0  0  0
 13  2  2  0  0  0  0
 13 18  1  0  0  0  0
 14 23  1  0  0  0  0
 15 23  1  0  0  0  0
 16  2  1  0  0  0  0
 17 20  1  0  0  0  0
 17  3  1  0  0  0  0
 18 25  2  0  0  0  0
 19  1  2  0  0  0  0
 19 26  1  0  0  0  0
 20 22  1  0  0  0  0
 22 10  1  0  0  0  0
 22  9  1  0  0  0  0
 25 26  1  0  0  0  0
 26 17  2  0  0  0  0
 27 24  1  1  0  0  0
 27  7  1  0  0  0  0
 28 11  1  0  0  0  0
 30 29  1  0  0  0  0
 30 28  1  0  0  0  0
M  END
>  <MODEL>
2

>  <REMARK>
 VINA RESULT:      -6.9      2.344      6.236
  Name = 
  2 active torsions:
  status: ('A' for Active; 'I' for Inactive)
    1  A    between atoms: C_11  and  O_28
    2  A    between atoms: O_28  and  C_30
                            x       y       z     vdW  Elec       q    Type
                         _______ _______ _______ _____ _____    ______ ____

>  <TORSDO>
F 2

$$$$
=
 OpenBabel11122412393D

 30 35  0  0  1  0  0  0  0  0999 V2000
  161.3670  204.0850  148.2180 C   0  0  0  0  0  0  0  0  0  0  0  0
  161.1020  201.6080  148.6090 C   0  0  0  0  0  0  0  0  0  0  0  0
  160.9850  204.8680  152.2390 N   0  0  0  0  0  0  0  0  0  0  0  0
  161.4320  205.3960  148.7510 C   0  0  0  0  0  0  0  0  0  0  0  0
  161.5540  203.9220  146.8040 N   0  0  0  0  0  0  0  0  0  0  0  0
  160.0750  206.7000  146.1880 O   0  0  0  0  0  1  0  0  0  0  0  0
  161.3620  208.5300  149.1080 C   0  0  1  0  0  3  0  0  0  0  0  0
  161.4000  206.3280  146.4210 C   0  0  2  0  0  3  0  0  0  0  0  0
  161.2500  208.1240  150.5700 C   0  0  2  0  0  3  0  0  0  0  0  0
  161.0800  206.2130  152.1660 C   0  0  0  0  0  0  0  0  0  0  0  0
  161.6080  204.9140  145.9620 C   0  0  0  0  0  0  0  0  0  0  0  0
  161.7060  206.4740  147.8430 N   0  0  0  0  0  0  0  0  0  0  0  0
  160.9190  200.5620  149.5200 C   0  0  0  0  0  3  0  0  0  0  0  0
  162.3130  208.9210  151.2980 C   0  0  0  0  0  2  0  0  0  0  0  0
  161.8270  209.9770  149.1480 C   0  0  0  0  0  2  0  0  0  0  0  0
  161.2070  201.1190  146.9220 Cl  0  0  0  0  0  0  0  0  0  0  0  0
  161.1230  204.4830  150.9590 C   0  0  0  0  0  0  0  0  0  0  0  0
  160.8070  200.8070  150.8850 C   0  0  0  0  0  3  0  0  0  0  0  0
  161.1790  202.9520  149.0750 C   0  0  0  0  0  0  0  0  0  0  0  0
  161.2960  205.5660  150.1410 C   0  0  0  0  0  0  0  0  0  0  0  0
  160.9040  207.0760  153.3710 C   0  0  0  0  0  1  0  0  0  0  0  0
  161.2800  206.6890  150.9060 N   0  0  0  0  0  0  0  0  0  0  0  0
  162.4210  210.2240  150.5290 C   0  0  0  0  0  2  0  0  0  0  0  0
  163.7060  207.4710  148.8790 C   0  0  0  0  0  1  0  0  0  0  0  0
  160.8760  202.1100  151.3630 C   0  0  0  0  0  3  0  0  0  0  0  0
  161.0600  203.1770  150.4780 C   0  0  0  0  0  0  0  0  0  0  0  0
  162.3300  207.7130  148.2620 C   0  0  2  0  0  3  0  0  0  0  0  0
  161.8150  204.6800  144.6010 O   0  0  0  0  0  0  0  0  0  0  0  0
  161.5810  205.8860  142.5430 C   0  0  0  0  0  1  0  0  0  0  0  0
  160.8760  205.0770  143.6120 C   0  0  0  0  0  2  0  0  0  0  0  0
  1  4  2  0  0  0  0
  1 19  1  0  0  0  0
  2 19  2  0  0  0  0
  2 13  1  0  0  0  0
  4 20  1  0  0  0  0
  5  1  1  0  0  0  0
  7 15  1  1  0  0  0
  7  9  1  0  0  0  0
  8  6  1  1  0  0  0
  8 12  1  0  0  0  0
  9 22  1  0  0  0  0
  9 14  1  1  0  0  0
 10  3  2  0  0  0  0
 10 21  1  0  0  0  0
 11  8  1  0  0  0  0
 11  5  2  0  0  0  0
 12 27  1  0  0  0  0
 12  4  1  0  0  0  0
 13 18  2  0  0  0  0
 15 23  1  0  0  0  0
 16  2  1  0  0  0  0
 17  3  1  0  0  0  0
 18 25  1  0  0  0  0
 19 26  1  0  0  0  0
 20 22  1  0  0  0  0
 20 17  2  0  0  0  0
 22 10  1  0  0  0  0
 23 14  1  0  0  0  0
 26 17  1  0  0  0  0
 26 25  2  0  0  0  0
 27 24  1  1  0  0  0
 27  7  1  0  0  0  0
 28 11  1  0  0  0  0
 29 30  1  0  0  0  0
 30 28  1  0  0  0  0
M  END
>  <MODEL>
3

>  <REMARK>
 VINA RESULT:      -6.2      2.868      5.910
  Name = 
  2 active torsions:
  status: ('A' for Active; 'I' for Inactive)
    1  A    between atoms: C_11  and  O_28
    2  A    between atoms: O_28  and  C_30
                            x       y       z     vdW  Elec       q    Type
                         _______ _______ _______ _____ _____    ______ ____

>  <TORSDO>
F 2

$$$$
