=
 OpenBabel11122413123D

 31 36  0  0  1  0  0  0  0  0999 V2000
  161.6480  207.1060  152.4230 C   0  0  0  0  0  0  0  0  0  0  0  0
  159.5640  209.9880  153.7530 C   0  0  2  0  0  3  0  0  0  0  0  0
  160.1630  210.3660  155.1420 C   0  0  1  0  0  3  0  0  0  0  0  0
  162.0880  210.4150  156.7380 C   0  0  1  0  0  3  0  0  0  0  0  0
  160.4940  209.1900  152.8760 C   0  0  0  0  0  0  0  0  0  0  0  0
  162.3280  207.7100  151.3630 C   0  0  0  0  0  3  0  0  0  0  0  0
  161.6820  210.2150  155.2780 C   0  0  0  0  0  2  0  0  0  0  0  0
  160.1110  212.0350  152.4110 C   0  0  2  0  0  3  0  0  0  0  0  0
  161.8770  205.8050  152.7210 F   0  0  0  0  0  0  0  0  0  0  0  0
  158.2860  211.9990  155.3600 C   0  0  0  0  0  2  0  0  0  0  0  0
  163.4730  210.3110  156.8540 O   0  0  0  0  0  1  0  0  0  0  0  0
  160.8860  211.2120  151.3740 C   0  0  0  0  0  2  0  0  0  0  0  0
  158.9660  211.1860  152.9890 C   0  0  2  0  0  3  0  0  0  0  0  0
  160.7350  207.8440  153.1790 C   0  0  0  0  0  3  0  0  0  0  0  0
  161.6330  211.7840  157.2470 C   0  0  0  0  0  2  0  0  0  0  0  0
  161.1860  209.8030  151.8100 C   0  0  0  0  0  0  0  0  0  0  0  0
  162.0930  209.0520  151.0540 C   0  0  0  0  0  3  0  0  0  0  0  0
  157.9770  211.9910  153.8580 C   0  0  0  0  0  2  0  0  0  0  0  0
  159.7660  211.7730  155.6050 C   0  0  1  0  0  3  0  0  0  0  0  0
  160.1240  211.9540  157.0730 C   0  0  0  0  0  2  0  0  0  0  0  0
  158.4410  212.9030  151.1390 O   0  0  0  0  0  0  0  0  0  0  0  0
  159.5430  213.0180  150.3540 C   0  0  2  0  0  3  0  0  0  0  0  0
  159.6210  213.2550  151.7780 N   0  0  2  0  0  0  0  0  0  0  0  0
  158.6850  213.6200  146.9650 C   0  0  1  0  0  3  0  0  0  0  0  0
  158.0230  214.4510  148.9770 C   0  0  0  0  0  2  0  0  0  0  0  0
  161.6570  214.2350  148.9500 O   0  0  0  0  0  1  0  0  0  0  0  0
  158.3950  212.6080  145.8770 C   0  0  0  0  0  1  0  0  0  0  0  0
  157.8000  213.4190  148.0420 O   0  0  0  0  0  0  0  0  0  0  0  0
  160.4080  214.4530  148.4710 N   0  0  0  0  0  0  0  0  0  0  0  0
  159.4330  214.3330  149.5710 C   0  0  2  0  0  3  0  0  0  0  0  0
  160.1340  213.4580  147.4350 C   0  0  0  0  0  2  0  0  0  0  0  0
  1  9  1  0  0  0  0
  1 14  1  0  0  0  0
  2  5  1  6  0  0  0
  2  3  1  0  0  0  0
  3  7  1  6  0  0  0
  3 19  1  0  0  0  0
  4 11  1  6  0  0  0
  4 15  1  0  0  0  0
  5 14  2  0  0  0  0
  6  1  2  0  0  0  0
  7  4  1  0  0  0  0
  8 12  1  6  0  0  0
  8 13  1  0  0  0  0
 12 16  1  0  0  0  0
 13  2  1  0  0  0  0
 13 18  1  1  0  0  0
 16  5  1  0  0  0  0
 17  6  1  0  0  0  0
 17 16  2  0  0  0  0
 18 10  1  0  0  0  0
 19 10  1  1  0  0  0
 19 20  1  0  0  0  0
 20 15  1  0  0  0  0
 22 21  1  1  0  0  0
 22 23  1  0  0  0  0
 23 21  1  1  0  0  0
 23  8  1  0  0  0  0
 24 27  1  6  0  0  0
 24 31  1  0  0  0  0
 24 28  1  0  0  0  0
 28 25  1  0  0  0  0
 29 26  1  0  0  0  0
 29 30  1  0  0  0  0
 30 25  1  6  0  0  0
 30 22  1  0  0  0  0
 31 29  1  0  0  0  0
M  END
>  <MODEL>
1

>  <REMARK>
 VINA RESULT:      -6.5      0.000      0.000
  Name = 
  2 active torsions:
  status: ('A' for Active; 'I' for Inactive)
    1  A    between atoms: C_5  and  C_30
    2  A    between atoms: C_10  and  N_16
                            x       y       z     vdW  Elec       q    Type
                         _______ _______ _______ _____ _____    ______ ____

>  <TORSDO>
F 2

$$$$
