=
 OpenBabel11122413293D

 31 35  0  0  1  0  0  0  0  0999 V2000
  160.8640  207.6160  156.3750 C   0  0  0  0  0  0  0  0  0  0  0  0
  161.9200  208.8530  152.9380 C   0  0  2  0  0  3  0  0  0  0  0  0
  161.5110  207.7760  151.9410 C   0  0  0  0  0  0  0  0  0  0  0  0
  160.8260  205.4930  151.4480 C   0  0  0  0  0  0  0  0  0  0  0  0
  161.1790  208.7510  154.2510 C   0  0  0  0  0  0  0  0  0  0  0  0
  159.7730  208.4400  156.6580 C   0  0  0  0  0  3  0  0  0  0  0  0
  161.1660  206.4840  152.3710 C   0  0  0  0  0  3  0  0  0  0  0  0
  160.3140  210.6760  152.2620 C   0  0  2  0  0  3  0  0  0  0  0  0
  161.2410  206.6640  157.2600 F   0  0  0  0  0  0  0  0  0  0  0  0
  161.9370  209.3350  150.0810 N   0  0  0  0  0  2  0  0  0  0  0  0
  160.4490  204.1360  151.9210 C   0  0  0  0  0  1  0  0  0  0  0  0
  159.7060  210.7480  153.6640 C   0  0  0  0  0  2  0  0  0  0  0  0
  161.7930  210.2730  152.3480 C   0  0  2  0  0  3  0  0  0  0  0  0
  161.5650  207.7730  155.1780 C   0  0  0  0  0  3  0  0  0  0  0  0
  160.8380  205.7770  150.0800 C   0  0  0  0  0  3  0  0  0  0  0  0
  160.0770  209.5870  154.5430 C   0  0  0  0  0  0  0  0  0  0  0  0
  159.3880  209.4270  155.7490 C   0  0  0  0  0  3  0  0  0  0  0  0
  162.4880  210.3380  150.9850 C   0  0  0  0  0  2  0  0  0  0  0  0
  161.5580  208.0410  150.5560 C   0  0  0  0  0  0  0  0  0  0  0  0
  161.2050  207.0490  149.6360 C   0  0  0  0  0  3  0  0  0  0  0  0
  157.8810  212.1400  152.0130 O   0  0  0  0  0  0  0  0  0  0  0  0
  158.9250  212.6560  151.5260 C   0  0  0  0  0  0  0  0  0  0  0  0
  160.1750  211.9700  151.6100 N   0  0  0  0  0  2  0  0  0  0  0  0
  157.6730  213.8230  148.1480 C   0  0  1  0  0  3  0  0  0  0  0  0
  157.4290  214.4380  150.5700 C   0  0  0  0  0  2  0  0  0  0  0  0
  161.0140  213.5900  149.7950 O   0  0  0  0  0  1  0  0  0  0  0  0
  157.0460  213.0490  147.0090 C   0  0  0  0  0  1  0  0  0  0  0  0
  156.8120  213.6730  149.3990 C   0  0  0  0  0  2  0  0  0  0  0  0
  159.7220  214.0630  149.5620 C   0  0  2  0  0  3  0  0  0  0  0  0
  158.8710  213.9910  150.8410 C   0  0  2  0  0  3  0  0  0  0  0  0
  159.0790  213.2940  148.4090 C   0  0  0  0  0  2  0  0  0  0  0  0
  1  6  1  0  0  0  0
  1  9  1  0  0  0  0
  2  3  1  6  0  0  0
  2  5  1  0  0  0  0
  3  7  1  0  0  0  0
  4 11  1  0  0  0  0
  4  7  2  0  0  0  0
  5 16  2  0  0  0  0
  5 14  1  0  0  0  0
  8 23  1  1  0  0  0
  8 13  1  0  0  0  0
  8 12  1  0  0  0  0
 10 19  1  0  0  0  0
 10 18  1  0  0  0  0
 12 16  1  0  0  0  0
 13 18  1  6  0  0  0
 13  2  1  0  0  0  0
 14  1  2  0  0  0  0
 15  4  1  0  0  0  0
 16 17  1  0  0  0  0
 17  6  2  0  0  0  0
 19  3  2  0  0  0  0
 20 15  2  0  0  0  0
 20 19  1  0  0  0  0
 22 23  1  0  0  0  0
 22 21  2  0  0  0  0
 24 27  1  6  0  0  0
 24 31  1  0  0  0  0
 24 28  1  0  0  0  0
 25 30  1  0  0  0  0
 28 25  1  0  0  0  0
 29 26  1  1  0  0  0
 29 30  1  0  0  0  0
 30 22  1  6  0  0  0
 31 29  1  0  0  0  0
M  END
>  <MODEL>
1

>  <REMARK>
 VINA RESULT:      -7.2      0.000      0.000
  Name = 
  2 active torsions:
  status: ('A' for Active; 'I' for Inactive)
    1  A    between atoms: C_5  and  C_30
    2  A    between atoms: C_10  and  N_16
                            x       y       z     vdW  Elec       q    Type
                         _______ _______ _______ _____ _____    ______ ____

>  <TORSDO>
F 2

$$$$
=
 OpenBabel11122413293D

 31 35  0  0  1  0  0  0  0  0999 V2000
  160.9950  204.6510  144.8320 C   0  0  0  0  0  0  0  0  0  0  0  0
  160.4120  205.1860  148.5510 C   0  0  2  0  0  3  0  0  0  0  0  0
  160.8170  203.8930  149.2480 C   0  0  0  0  0  0  0  0  0  0  0  0
  161.3340  201.5150  149.1720 C   0  0  0  0  0  0  0  0  0  0  0  0
  161.0030  205.3200  147.1670 C   0  0  0  0  0  0  0  0  0  0  0  0
  162.1230  205.4390  144.5980 C   0  0  0  0  0  3  0  0  0  0  0  0
  160.9950  202.7040  148.5210 C   0  0  0  0  0  3  0  0  0  0  0  0
  162.2400  206.7030  149.3940 C   0  0  2  0  0  3  0  0  0  0  0  0
  160.4430  203.9420  143.8190 F   0  0  0  0  0  0  0  0  0  0  0  0
  160.7290  205.0390  151.4270 N   0  0  0  0  0  2  0  0  0  0  0  0
  161.5330  200.2700  148.3860 C   0  0  0  0  0  1  0  0  0  0  0  0
  162.7070  207.0350  147.9760 C   0  0  0  0  0  2  0  0  0  0  0  0
  160.7300  206.4320  149.4030 C   0  0  2  0  0  3  0  0  0  0  0  0
  160.4360  204.5940  146.1100 C   0  0  0  0  0  3  0  0  0  0  0  0
  161.4860  201.4970  150.5600 C   0  0  0  0  0  3  0  0  0  0  0  0
  162.1440  206.1200  146.9260 C   0  0  0  0  0  0  0  0  0  0  0  0
  162.6890  206.1770  145.6400 C   0  0  0  0  0  3  0  0  0  0  0  0
  160.1850  206.2490  150.8230 C   0  0  0  0  0  2  0  0  0  0  0  0
  160.9360  203.8550  150.6530 C   0  0  0  0  0  0  0  0  0  0  0  0
  161.2860  202.6650  151.2990 C   0  0  0  0  0  3  0  0  0  0  0  0
  161.5360  209.4290  148.9450 O   0  0  0  0  0  0  0  0  0  0  0  0
  162.1750  209.1570  150.0000 C   0  0  0  0  0  0  0  0  0  0  0  0
  162.5650  207.8130  150.2790 N   0  0  0  0  0  2  0  0  0  0  0  0
  160.2130  211.2590  152.4640 C   0  0  1  0  0  3  0  0  0  0  0  0
  162.2760  209.8290  152.4220 C   0  0  0  0  0  2  0  0  0  0  0  0
  162.0890  211.9420  149.3110 O   0  0  0  0  0  1  0  0  0  0  0  0
  158.7350  211.2720  152.7900 C   0  0  0  0  0  1  0  0  0  0  0  0
  160.7840  209.8730  152.7530 C   0  0  0  0  0  2  0  0  0  0  0  0
  161.9010  211.6020  150.6520 C   0  0  2  0  0  3  0  0  0  0  0  0
  162.5460  210.2420  150.9690 C   0  0  2  0  0  3  0  0  0  0  0  0
  160.4130  211.6170  150.9960 C   0  0  0  0  0  2  0  0  0  0  0  0
  1 14  1  0  0  0  0
  2  5  1  6  0  0  0
  2  3  1  0  0  0  0
  2 13  1  0  0  0  0
  3 19  1  0  0  0  0
  4 15  2  0  0  0  0
  6  1  2  0  0  0  0
  6 17  1  0  0  0  0
  7  4  1  0  0  0  0
  7  3  2  0  0  0  0
  8 13  1  0  0  0  0
  8 23  1  1  0  0  0
  9  1  1  0  0  0  0
 11  4  1  0  0  0  0
 12  8  1  0  0  0  0
 13 18  1  1  0  0  0
 14  5  2  0  0  0  0
 15 20  1  0  0  0  0
 16  5  1  0  0  0  0
 16 12  1  0  0  0  0
 17 16  2  0  0  0  0
 18 10  1  0  0  0  0
 19 20  2  0  0  0  0
 19 10  1  0  0  0  0
 21 22  2  0  0  0  0
 22 23  1  0  0  0  0
 24 28  1  0  0  0  0
 24 27  1  6  0  0  0
 25 28  1  0  0  0  0
 29 26  1  6  0  0  0
 29 30  1  0  0  0  0
 29 31  1  0  0  0  0
 30 22  1  6  0  0  0
 30 25  1  0  0  0  0
 31 24  1  0  0  0  0
M  END
>  <MODEL>
2

>  <REMARK>
 VINA RESULT:      -6.5      3.803      6.926
  Name = 
  2 active torsions:
  status: ('A' for Active; 'I' for Inactive)
    1  A    between atoms: C_5  and  C_30
    2  A    between atoms: C_10  and  N_16
                            x       y       z     vdW  Elec       q    Type
                         _______ _______ _______ _____ _____    ______ ____

>  <TORSDO>
F 2

$$$$
=
 OpenBabel11122413293D

 31 35  0  0  1  0  0  0  0  0999 V2000
  160.8600  206.2540  146.4320 C   0  0  0  0  0  0  0  0  0  0  0  0
  160.2400  205.0210  149.9750 C   0  0  2  0  0  3  0  0  0  0  0  0
  160.7100  203.5720  150.0230 C   0  0  0  0  0  0  0  0  0  0  0  0
  161.3500  201.5120  148.8950 C   0  0  0  0  0  0  0  0  0  0  0  0
  160.8270  205.7930  148.8160 C   0  0  0  0  0  0  0  0  0  0  0  0
  161.9460  207.1130  146.6080 C   0  0  0  0  0  3  0  0  0  0  0  0
  160.9520  202.8510  148.8420 C   0  0  0  0  0  3  0  0  0  0  0  0
  161.9840  206.0740  151.4600 C   0  0  2  0  0  3  0  0  0  0  0  0
  160.3480  206.0550  145.1940 F   0  0  0  0  0  0  0  0  0  0  0  0
  160.5560  203.6030  152.4810 N   0  0  0  0  0  2  0  0  0  0  0  0
  161.6160  200.7680  147.6360 C   0  0  0  0  0  1  0  0  0  0  0  0
  162.4370  207.0320  150.3570 C   0  0  0  0  0  2  0  0  0  0  0  0
  160.4900  205.7600  151.3060 C   0  0  2  0  0  3  0  0  0  0  0  0
  160.3020  205.5990  147.5310 C   0  0  0  0  0  3  0  0  0  0  0  0
  161.4990  200.8750  150.1280 C   0  0  0  0  0  3  0  0  0  0  0  0
  161.9250  206.6660  148.9920 C   0  0  0  0  0  0  0  0  0  0  0  0
  162.4700  207.3240  147.8860 C   0  0  0  0  0  3  0  0  0  0  0  0
  159.9520  204.9300  152.4750 C   0  0  0  0  0  2  0  0  0  0  0  0
  160.8270  202.9080  151.2620 C   0  0  0  0  0  0  0  0  0  0  0  0
  161.2370  201.5720  151.3100 C   0  0  0  0  0  3  0  0  0  0  0  0
  160.6070  208.3220  152.5430 O   0  0  0  0  0  0  0  0  0  0  0  0
  161.5150  207.8000  153.2470 C   0  0  0  0  0  0  0  0  0  0  0  0
  162.2490  206.6760  152.7590 N   0  0  0  0  0  2  0  0  0  0  0  0
  159.6220  209.9120  155.7560 C   0  0  1  0  0  3  0  0  0  0  0  0
  160.9440  207.7780  155.6970 C   0  0  0  0  0  2  0  0  0  0  0  0
  162.6330  210.4170  153.6100 O   0  0  0  0  0  1  0  0  0  0  0  0
  158.2260  210.4930  155.7000 C   0  0  0  0  0  1  0  0  0  0  0  0
  159.5430  208.3910  155.6530 C   0  0  0  0  0  2  0  0  0  0  0  0
  161.8650  209.8930  154.6510 C   0  0  2  0  0  3  0  0  0  0  0  0
  161.8480  208.3560  154.6010 C   0  0  2  0  0  3  0  0  0  0  0  0
  160.4540  210.4770  154.6100 C   0  0  0  0  0  2  0  0  0  0  0  0
  1  6  2  0  0  0  0
  1 14  1  0  0  0  0
  2  5  1  6  0  0  0
  2  3  1  0  0  0  0
  2 13  1  0  0  0  0
  3 19  1  0  0  0  0
  4 15  2  0  0  0  0
  5 16  1  0  0  0  0
  6 17  1  0  0  0  0
  7  4  1  0  0  0  0
  7  3  2  0  0  0  0
  8 23  1  1  0  0  0
  9  1  1  0  0  0  0
 11  4  1  0  0  0  0
 12  8  1  0  0  0  0
 13  8  1  0  0  0  0
 13 18  1  1  0  0  0
 14  5  2  0  0  0  0
 15 20  1  0  0  0  0
 16 12  1  0  0  0  0
 17 16  2  0  0  0  0
 18 10  1  0  0  0  0
 19 20  2  0  0  0  0
 19 10  1  0  0  0  0
 21 22  2  0  0  0  0
 23 22  1  0  0  0  0
 24 27  1  6  0  0  0
 28 25  1  0  0  0  0
 28 24  1  0  0  0  0
 29 26  1  6  0  0  0
 30 22  1  6  0  0  0
 30 29  1  0  0  0  0
 30 25  1  0  0  0  0
 31 29  1  0  0  0  0
 31 24  1  0  0  0  0
M  END
>  <MODEL>
3

>  <REMARK>
 VINA RESULT:      -6.3      4.494      7.031
  Name = 
  2 active torsions:
  status: ('A' for Active; 'I' for Inactive)
    1  A    between atoms: C_5  and  C_30
    2  A    between atoms: C_10  and  N_16
                            x       y       z     vdW  Elec       q    Type
                         _______ _______ _______ _____ _____    ______ ____

>  <TORSDO>
F 2

$$$$
=
 OpenBabel11122413293D

 31 35  0  0  1  0  0  0  0  0999 V2000
  160.6340  209.6330  154.6200 C   0  0  0  0  0  0  0  0  0  0  0  0
  162.0610  210.2110  151.1430 C   0  0  2  0  0  3  0  0  0  0  0  0
  161.7060  208.9830  150.3140 C   0  0  0  0  0  0  0  0  0  0  0  0
  160.9770  206.6650  150.1630 C   0  0  0  0  0  0  0  0  0  0  0  0
  161.1960  210.3630  152.3720 C   0  0  0  0  0  0  0  0  0  0  0  0
  159.5560  210.5190  154.6430 C   0  0  0  0  0  3  0  0  0  0  0  0
  161.2690  207.7980  150.9280 C   0  0  0  0  0  3  0  0  0  0  0  0
  160.6030  211.9210  150.0000 C   0  0  2  0  0  3  0  0  0  0  0  0
  160.8860  208.8450  155.6920 F   0  0  0  0  0  0  0  0  0  0  0  0
  162.3700  210.1750  148.2630 N   0  0  0  0  0  2  0  0  0  0  0  0
  160.5020  205.4240  150.8270 C   0  0  0  0  0  1  0  0  0  0  0  0
  159.8680  212.2570  151.2990 C   0  0  0  0  0  2  0  0  0  0  0  0
  162.0490  211.5050  150.3030 C   0  0  2  0  0  3  0  0  0  0  0  0
  161.4510  209.5570  153.4900 C   0  0  0  0  0  3  0  0  0  0  0  0
  161.1310  206.7000  148.7750 C   0  0  0  0  0  3  0  0  0  0  0  0
  160.1060  211.2630  152.4000 C   0  0  0  0  0  0  0  0  0  0  0  0
  159.2990  211.3370  153.5400 C   0  0  0  0  0  3  0  0  0  0  0  0
  162.8730  211.3100  149.0270 C   0  0  0  0  0  2  0  0  0  0  0  0
  161.8940  208.9960  148.9160 C   0  0  0  0  0  0  0  0  0  0  0  0
  161.5900  207.8640  148.1540 C   0  0  0  0  0  3  0  0  0  0  0  0
  159.8110  211.8950  147.2620 O   0  0  0  0  0  0  0  0  0  0  0  0
  160.1630  213.0010  147.7570 C   0  0  0  0  0  0  0  0  0  0  0  0
  160.5790  213.0810  149.1200 N   0  0  0  0  0  2  0  0  0  0  0  0
  159.8510  213.6700  144.0420 C   0  0  1  0  0  3  0  0  0  0  0  0
  158.8260  214.4530  146.1960 C   0  0  0  0  0  2  0  0  0  0  0  0
  162.5520  214.0770  146.5860 O   0  0  0  0  0  1  0  0  0  0  0  0
  159.6860  212.7150  142.8800 C   0  0  0  0  0  1  0  0  0  0  0  0
  158.6790  213.5050  145.0060 C   0  0  0  0  0  2  0  0  0  0  0  0
  161.3420  214.3320  145.9370 C   0  0  2  0  0  3  0  0  0  0  0  0
  160.1620  214.2480  146.9200 C   0  0  2  0  0  3  0  0  0  0  0  0
  161.1660  213.3790  144.7570 C   0  0  0  0  0  2  0  0  0  0  0  0
  1  6  1  0  0  0  0
  1  9  1  0  0  0  0
  2  3  1  6  0  0  0
  2  5  1  0  0  0  0
  3  7  1  0  0  0  0
  4 11  1  0  0  0  0
  4  7  2  0  0  0  0
  5 16  2  0  0  0  0
  5 14  1  0  0  0  0
  8 23  1  6  0  0  0
  8 13  1  0  0  0  0
  8 12  1  0  0  0  0
 10 19  1  0  0  0  0
 10 18  1  0  0  0  0
 12 16  1  0  0  0  0
 13 18  1  6  0  0  0
 13  2  1  0  0  0  0
 14  1  2  0  0  0  0
 15  4  1  0  0  0  0
 16 17  1  0  0  0  0
 17  6  2  0  0  0  0
 19  3  2  0  0  0  0
 20 15  2  0  0  0  0
 20 19  1  0  0  0  0
 21 22  2  0  0  0  0
 22 23  1  0  0  0  0
 24 27  1  6  0  0  0
 24 31  1  0  0  0  0
 24 28  1  0  0  0  0
 25 30  1  0  0  0  0
 28 25  1  0  0  0  0
 29 26  1  1  0  0  0
 29 30  1  0  0  0  0
 30 22  1  6  0  0  0
 31 29  1  0  0  0  0
M  END
>  <MODEL>
4

>  <REMARK>
 VINA RESULT:      -6.1      2.270      3.172
  Name = 
  2 active torsions:
  status: ('A' for Active; 'I' for Inactive)
    1  A    between atoms: C_5  and  C_30
    2  A    between atoms: C_10  and  N_16
                            x       y       z     vdW  Elec       q    Type
                         _______ _______ _______ _____ _____    ______ ____

>  <TORSDO>
F 2

$$$$
=
 OpenBabel11122413293D

 31 35  0  0  1  0  0  0  0  0999 V2000
  161.0090  203.8180  145.5260 C   0  0  0  0  0  0  0  0  0  0  0  0
  160.4660  205.6810  148.7960 C   0  0  2  0  0  3  0  0  0  0  0  0
  160.8300  204.7150  149.9160 C   0  0  0  0  0  0  0  0  0  0  0  0
  161.2640  202.4550  150.7090 C   0  0  0  0  0  0  0  0  0  0  0  0
  161.0540  205.2850  147.4620 C   0  0  0  0  0  0  0  0  0  0  0  0
  162.1630  204.4290  145.0310 C   0  0  0  0  0  3  0  0  0  0  0  0
  160.9630  203.3380  149.6700 C   0  0  0  0  0  3  0  0  0  0  0  0
  162.3500  207.3370  149.0460 C   0  0  2  0  0  3  0  0  0  0  0  0
  160.4280  202.8090  144.8350 F   0  0  0  0  0  0  0  0  0  0  0  0
  160.7940  206.5730  151.5320 N   0  0  0  0  0  2  0  0  0  0  0  0
  161.4160  201.0030  150.4290 C   0  0  0  0  0  1  0  0  0  0  0  0
  162.8210  207.1170  147.6080 C   0  0  0  0  0  2  0  0  0  0  0  0
  160.8310  207.1400  149.1420 C   0  0  2  0  0  3  0  0  0  0  0  0
  160.4560  204.2460  146.7350 C   0  0  0  0  0  3  0  0  0  0  0  0
  161.4230  202.9340  152.0110 C   0  0  0  0  0  3  0  0  0  0  0  0
  162.2200  205.9040  146.9560 C   0  0  0  0  0  0  0  0  0  0  0  0
  162.7600  205.4740  145.7400 C   0  0  0  0  0  3  0  0  0  0  0  0
  160.2880  207.5020  150.5270 C   0  0  0  0  0  2  0  0  0  0  0  0
  160.9560  205.1840  151.2410 C   0  0  0  0  0  0  0  0  0  0  0  0
  161.2680  204.2970  152.2760 C   0  0  0  0  0  3  0  0  0  0  0  0
  161.3900  209.7560  147.8820 O   0  0  0  0  0  0  0  0  0  0  0  0
  162.1940  209.8540  148.8510 C   0  0  0  0  0  0  0  0  0  0  0  0
  162.7180  208.6800  149.4730 N   0  0  0  0  0  2  0  0  0  0  0  0
  161.0460  213.3980  148.1710 C   0  0  1  0  0  3  0  0  0  0  0  0
  161.5020  211.9030  150.1360 C   0  0  0  0  0  2  0  0  0  0  0  0
  164.1630  211.4530  147.5100 O   0  0  0  0  0  1  0  0  0  0  0  0
  159.9640  213.9240  147.2540 C   0  0  0  0  0  1  0  0  0  0  0  0
  160.4270  212.4580  149.2020 C   0  0  0  0  0  2  0  0  0  0  0  0
  163.1930  212.1180  148.2620 C   0  0  2  0  0  3  0  0  0  0  0  0
  162.6210  211.2010  149.3560 C   0  0  2  0  0  3  0  0  0  0  0  0
  162.0960  212.6610  147.3470 C   0  0  0  0  0  2  0  0  0  0  0  0
  1 14  1  0  0  0  0
  2  5  1  6  0  0  0
  2 13  1  0  0  0  0
  2  3  1  0  0  0  0
  3 19  1  0  0  0  0
  4 15  2  0  0  0  0
  6  1  2  0  0  0  0
  6 17  1  0  0  0  0
  7  3  2  0  0  0  0
  7  4  1  0  0  0  0
  8 13  1  0  0  0  0
  8 23  1  6  0  0  0
  9  1  1  0  0  0  0
 11  4  1  0  0  0  0
 12  8  1  0  0  0  0
 13 18  1  1  0  0  0
 14  5  2  0  0  0  0
 15 20  1  0  0  0  0
 16  5  1  0  0  0  0
 16 12  1  0  0  0  0
 17 16  2  0  0  0  0
 18 10  1  0  0  0  0
 19 10  1  0  0  0  0
 19 20  2  0  0  0  0
 21 22  2  0  0  0  0
 22 23  1  0  0  0  0
 24 27  1  6  0  0  0
 24 28  1  0  0  0  0
 28 25  1  0  0  0  0
 29 26  1  6  0  0  0
 29 30  1  0  0  0  0
 30 22  1  6  0  0  0
 30 25  1  0  0  0  0
 31 24  1  0  0  0  0
 31 29  1  0  0  0  0
M  END
>  <MODEL>
5

>  <REMARK>
 VINA RESULT:      -5.8      4.115      6.395
  Name = 
  2 active torsions:
  status: ('A' for Active; 'I' for Inactive)
    1  A    between atoms: C_5  and  C_30
    2  A    between atoms: C_10  and  N_16
                            x       y       z     vdW  Elec       q    Type
                         _______ _______ _______ _____ _____    ______ ____

>  <TORSDO>
F 2

$$$$
=
 OpenBabel11122413293D

 31 35  0  0  1  0  0  0  0  0999 V2000
  162.1430  213.1270  147.8880 C   0  0  0  0  0  0  0  0  0  0  0  0
  159.6950  214.0660  150.6410 C   0  0  2  0  0  3  0  0  0  0  0  0
  158.3050  214.0410  150.0180 C   0  0  0  0  0  0  0  0  0  0  0  0
  156.8590  214.0390  148.0600 C   0  0  0  0  0  0  0  0  0  0  0  0
  160.7120  213.2830  149.8440 C   0  0  0  0  0  0  0  0  0  0  0  0
  162.5200  211.8350  148.2610 C   0  0  0  0  0  3  0  0  0  0  0  0
  158.1370  214.0280  148.6240 C   0  0  0  0  0  3  0  0  0  0  0  0
  159.4940  212.0830  152.1850 C   0  0  2  0  0  3  0  0  0  0  0  0
  162.6480  213.6790  146.7590 F   0  0  0  0  0  0  0  0  0  0  0  0
  157.2960  214.1690  152.2620 N   0  0  0  0  0  2  0  0  0  0  0  0
  156.6990  214.0090  146.5830 C   0  0  0  0  0  1  0  0  0  0  0  0
  160.6820  211.3730  151.5330 C   0  0  0  0  0  2  0  0  0  0  0  0
  159.6830  213.6040  152.1130 C   0  0  2  0  0  3  0  0  0  0  0  0
  161.2450  213.8480  148.6770 C   0  0  0  0  0  3  0  0  0  0  0  0
  155.7320  214.0780  148.8840 C   0  0  0  0  0  3  0  0  0  0  0  0
  161.0980  211.9760  150.2210 C   0  0  0  0  0  0  0  0  0  0  0  0
  162.0050  211.2670  149.4280 C   0  0  0  0  0  3  0  0  0  0  0  0
  158.5990  214.3570  152.8900 C   0  0  0  0  0  2  0  0  0  0  0  0
  157.1610  214.1190  150.8400 C   0  0  0  0  0  0  0  0  0  0  0  0
  155.8830  214.1190  150.2710 C   0  0  0  0  0  3  0  0  0  0  0  0
  160.1270  209.4770  153.1530 O   0  0  0  0  0  0  0  0  0  0  0  0
  159.7170  210.3270  153.9910 C   0  0  0  0  0  0  0  0  0  0  0  0
  159.3740  211.6470  153.5700 N   0  0  0  0  0  2  0  0  0  0  0  0
  162.0240  210.5000  156.9890 C   0  0  1  0  0  3  0  0  0  0  0  0
  159.6940  211.1870  156.3550 C   0  0  0  0  0  2  0  0  0  0  0  0
  160.4490  207.7490  155.0180 O   0  0  0  0  0  1  0  0  0  0  0  0
  163.4560  210.9760  157.1040 C   0  0  0  0  0  1  0  0  0  0  0  0
  161.1470  211.6450  156.4900 C   0  0  0  0  0  2  0  0  0  0  0  0
  160.5140  208.8360  155.8920 C   0  0  2  0  0  3  0  0  0  0  0  0
  159.5700  209.9630  155.4400 C   0  0  2  0  0  3  0  0  0  0  0  0
  161.9560  209.3230  156.0220 C   0  0  0  0  0  2  0  0  0  0  0  0
  1  6  2  0  0  0  0
  1 14  1  0  0  0  0
  2  5  1  6  0  0  0
  2 13  1  0  0  0  0
  3  2  1  0  0  0  0
  3 19  1  0  0  0  0
  4  7  1  0  0  0  0
  4 15  2  0  0  0  0
  5 16  1  0  0  0  0
  6 17  1  0  0  0  0
  7  3  2  0  0  0  0
  8 23  1  1  0  0  0
  9  1  1  0  0  0  0
 10 18  1  0  0  0  0
 11  4  1  0  0  0  0
 12  8  1  0  0  0  0
 13  8  1  0  0  0  0
 13 18  1  1  0  0  0
 14  5  2  0  0  0  0
 15 20  1  0  0  0  0
 16 12  1  0  0  0  0
 17 16  2  0  0  0  0
 19 10  1  0  0  0  0
 20 19  2  0  0  0  0
 21 22  2  0  0  0  0
 23 22  1  0  0  0  0
 24 27  1  6  0  0  0
 25 28  1  0  0  0  0
 28 24  1  0  0  0  0
 29 26  1  6  0  0  0
 29 31  1  0  0  0  0
 30 22  1  6  0  0  0
 30 29  1  0  0  0  0
 30 25  1  0  0  0  0
 31 24  1  0  0  0  0
M  END
>  <MODEL>
6

>  <REMARK>
 VINA RESULT:      -5.2      3.727      7.949
  Name = 
  2 active torsions:
  status: ('A' for Active; 'I' for Inactive)
    1  A    between atoms: C_5  and  C_30
    2  A    between atoms: C_10  and  N_16
                            x       y       z     vdW  Elec       q    Type
                         _______ _______ _______ _____ _____    ______ ____

>  <TORSDO>
F 2

$$$$
=
 OpenBabel11122413293D

 31 35  0  0  1  0  0  0  0  0999 V2000
  160.7440  201.5380  148.7740 C   0  0  0  0  0  0  0  0  0  0  0  0
  162.2860  204.8090  149.9500 C   0  0  2  0  0  3  0  0  0  0  0  0
  161.7810  205.8940  149.0070 C   0  0  0  0  0  0  0  0  0  0  0  0
  160.7500  206.5680  146.9070 C   0  0  0  0  0  0  0  0  0  0  0  0
  161.4310  203.5630  149.9260 C   0  0  0  0  0  0  0  0  0  0  0  0
  159.7940  201.2900  149.7670 C   0  0  0  0  0  3  0  0  0  0  0  0
  161.1800  205.5660  147.7810 C   0  0  0  0  0  3  0  0  0  0  0  0
  161.0870  205.4970  152.0580 C   0  0  2  0  0  3  0  0  0  0  0  0
  160.8730  200.6830  147.7320 F   0  0  0  0  0  0  0  0  0  0  0  0
  162.6280  207.6230  150.5440 N   0  0  0  0  0  2  0  0  0  0  0  0
  160.1030  206.2030  145.6210 C   0  0  0  0  0  1  0  0  0  0  0  0
  160.3850  204.1430  152.1770 C   0  0  0  0  0  2  0  0  0  0  0  0
  162.4600  205.3240  151.3930 C   0  0  2  0  0  3  0  0  0  0  0  0
  161.5600  202.6680  148.8550 C   0  0  0  0  0  3  0  0  0  0  0  0
  160.9270  207.9120  147.2440 C   0  0  0  0  0  3  0  0  0  0  0  0
  160.4710  203.3070  150.9310 C   0  0  0  0  0  0  0  0  0  0  0  0
  159.6650  202.1680  150.8460 C   0  0  0  0  0  3  0  0  0  0  0  0
  163.2680  206.6240  151.3920 C   0  0  0  0  0  2  0  0  0  0  0  0
  161.9890  207.2540  149.3200 C   0  0  0  0  0  0  0  0  0  0  0  0
  161.5470  208.2540  148.4470 C   0  0  0  0  0  3  0  0  0  0  0  0
  160.4750  208.1960  152.7420 O   0  0  0  0  0  0  0  0  0  0  0  0
  160.8980  207.4430  153.6620 C   0  0  0  0  0  0  0  0  0  0  0  0
  161.2310  206.0820  153.3830 N   0  0  0  0  0  2  0  0  0  0  0  0
  159.0480  209.9970  155.7580 C   0  0  1  0  0  3  0  0  0  0  0  0
  159.8680  207.6320  155.9490 C   0  0  0  0  0  2  0  0  0  0  0  0
  162.4580  209.7770  154.2560 O   0  0  0  0  0  1  0  0  0  0  0  0
  157.8480  210.8570  155.4300 C   0  0  0  0  0  1  0  0  0  0  0  0
  158.6680  208.5240  155.6320 C   0  0  0  0  0  2  0  0  0  0  0  0
  161.4070  209.4650  155.1200 C   0  0  2  0  0  3  0  0  0  0  0  0
  161.0720  207.9650  155.0590 C   0  0  2  0  0  3  0  0  0  0  0  0
  160.1890  210.3310  154.8040 C   0  0  0  0  0  2  0  0  0  0  0  0
  1 14  2  0  0  0  0
  1  6  1  0  0  0  0
  2  3  1  6  0  0  0
  2 13  1  0  0  0  0
  3 19  1  0  0  0  0
  4 15  2  0  0  0  0
  4  7  1  0  0  0  0
  5  2  1  0  0  0  0
  5 16  2  0  0  0  0
  6 17  2  0  0  0  0
  7  3  2  0  0  0  0
  8 12  1  0  0  0  0
  8 23  1  1  0  0  0
  9  1  1  0  0  0  0
 10 18  1  0  0  0  0
 11  4  1  0  0  0  0
 13 18  1  6  0  0  0
 13  8  1  0  0  0  0
 14  5  1  0  0  0  0
 15 20  1  0  0  0  0
 16 12  1  0  0  0  0
 17 16  1  0  0  0  0
 19 10  1  0  0  0  0
 20 19  2  0  0  0  0
 21 22  2  0  0  0  0
 23 22  1  0  0  0  0
 24 27  1  6  0  0  0
 28 24  1  0  0  0  0
 28 25  1  0  0  0  0
 29 26  1  6  0  0  0
 30 22  1  6  0  0  0
 30 29  1  0  0  0  0
 30 25  1  0  0  0  0
 31 29  1  0  0  0  0
 31 24  1  0  0  0  0
M  END
>  <MODEL>
7

>  <REMARK>
 VINA RESULT:      -5.2      4.216      6.772
  Name = 
  2 active torsions:
  status: ('A' for Active; 'I' for Inactive)
    1  A    between atoms: C_5  and  C_30
    2  A    between atoms: C_10  and  N_16
                            x       y       z     vdW  Elec       q    Type
                         _______ _______ _______ _____ _____    ______ ____

>  <TORSDO>
F 2

$$$$
=
 OpenBabel11122413293D

 31 35  0  0  1  0  0  0  0  0999 V2000
  161.9890  206.4530  147.2970 C   0  0  0  0  0  0  0  0  0  0  0  0
  162.4720  208.9720  150.1040 C   0  0  2  0  0  3  0  0  0  0  0  0
  161.8760  210.2880  149.6190 C   0  0  0  0  0  0  0  0  0  0  0  0
  161.0670  211.7130  147.8190 C   0  0  0  0  0  0  0  0  0  0  0  0
  161.9630  207.7750  149.3340 C   0  0  0  0  0  0  0  0  0  0  0  0
  160.9800  205.6350  147.8100 C   0  0  0  0  0  3  0  0  0  0  0  0
  161.5810  210.4910  148.2610 C   0  0  0  0  0  3  0  0  0  0  0  0
  160.8150  208.4100  151.9200 C   0  0  2  0  0  3  0  0  0  0  0  0
  162.4900  206.2160  146.0610 F   0  0  0  0  0  0  0  0  0  0  0  0
  162.0140  211.1940  151.9050 N   0  0  0  0  0  2  0  0  0  0  0  0
  160.7460  211.9060  146.3810 C   0  0  0  0  0  1  0  0  0  0  0  0
  160.4560  207.0740  151.2670 C   0  0  0  0  0  2  0  0  0  0  0  0
  162.2780  208.7680  151.6210 C   0  0  2  0  0  3  0  0  0  0  0  0
  162.4790  207.5170  148.0560 C   0  0  0  0  0  3  0  0  0  0  0  0
  160.8530  212.7510  148.7280 C   0  0  0  0  0  3  0  0  0  0  0  0
  160.9450  206.9430  149.8520 C   0  0  0  0  0  0  0  0  0  0  0  0
  160.4680  205.8750  149.0860 C   0  0  0  0  0  3  0  0  0  0  0  0
  162.7330  210.0170  152.3800 C   0  0  0  0  0  2  0  0  0  0  0  0
  161.6920  211.3560  150.5220 C   0  0  0  0  0  0  0  0  0  0  0  0
  161.1670  212.5730  150.0770 C   0  0  0  0  0  3  0  0  0  0  0  0
  159.4230  210.3320  153.4980 O   0  0  0  0  0  0  0  0  0  0  0  0
  159.8800  209.3140  154.0880 C   0  0  0  0  0  0  0  0  0  0  0  0
  160.5950  208.3180  153.3560 N   0  0  0  0  0  2  0  0  0  0  0  0
  162.0190  210.0930  157.1150 C   0  0  1  0  0  3  0  0  0  0  0  0
  159.6740  210.4820  156.3070 C   0  0  0  0  0  2  0  0  0  0  0  0
  160.7680  206.9730  155.4900 O   0  0  0  0  0  1  0  0  0  0  0  0
  163.4010  210.7020  157.2140 C   0  0  0  0  0  1  0  0  0  0  0  0
  161.0770  211.0790  156.4290 C   0  0  0  0  0  2  0  0  0  0  0  0
  160.7030  208.1700  156.2060 C   0  0  2  0  0  3  0  0  0  0  0  0
  159.6930  209.1390  155.5670 C   0  0  2  0  0  3  0  0  0  0  0  0
  162.0930  208.7930  156.3200 C   0  0  0  0  0  2  0  0  0  0  0  0
  1  6  2  0  0  0  0
  1 14  1  0  0  0  0
  2  5  1  6  0  0  0
  2 13  1  0  0  0  0
  3  2  1  0  0  0  0
  3 19  1  0  0  0  0
  4  7  1  0  0  0  0
  4 15  2  0  0  0  0
  5 16  1  0  0  0  0
  6 17  1  0  0  0  0
  7  3  2  0  0  0  0
  8 23  1  1  0  0  0
  9  1  1  0  0  0  0
 10 18  1  0  0  0  0
 11  4  1  0  0  0  0
 12  8  1  0  0  0  0
 13  8  1  0  0  0  0
 13 18  1  1  0  0  0
 14  5  2  0  0  0  0
 15 20  1  0  0  0  0
 16 12  1  0  0  0  0
 17 16  2  0  0  0  0
 19 10  1  0  0  0  0
 20 19  2  0  0  0  0
 21 22  2  0  0  0  0
 23 22  1  0  0  0  0
 24 27  1  6  0  0  0
 25 28  1  0  0  0  0
 28 24  1  0  0  0  0
 29 26  1  6  0  0  0
 29 31  1  0  0  0  0
 30 22  1  6  0  0  0
 30 29  1  0  0  0  0
 30 25  1  0  0  0  0
 31 24  1  0  0  0  0
M  END
>  <MODEL>
8

>  <REMARK>
 VINA RESULT:      -4.9      3.095      7.002
  Name = 
  2 active torsions:
  status: ('A' for Active; 'I' for Inactive)
    1  A    between atoms: C_5  and  C_30
    2  A    between atoms: C_10  and  N_16
                            x       y       z     vdW  Elec       q    Type
                         _______ _______ _______ _____ _____    ______ ____

>  <TORSDO>
F 2

$$$$
=
 OpenBabel11122413293D

 31 35  0  0  1  0  0  0  0  0999 V2000
  162.1870  213.1320  147.6460 C   0  0  0  0  0  0  0  0  0  0  0  0
  159.6890  214.1160  150.3380 C   0  0  2  0  0  3  0  0  0  0  0  0
  158.3080  214.0640  149.6950 C   0  0  0  0  0  0  0  0  0  0  0  0
  156.8930  214.0020  147.7150 C   0  0  0  0  0  0  0  0  0  0  0  0
  160.7240  213.3230  149.5760 C   0  0  0  0  0  0  0  0  0  0  0  0
  162.5680  211.8530  148.0570 C   0  0  0  0  0  3  0  0  0  0  0  0
  158.1620  214.0150  148.2990 C   0  0  0  0  0  3  0  0  0  0  0  0
  159.4800  212.1700  151.9270 C   0  0  2  0  0  3  0  0  0  0  0  0
  162.7040  213.6610  146.5120 F   0  0  0  0  0  0  0  0  0  0  0  0
  157.2640  214.2380  151.9190 N   0  0  0  0  0  2  0  0  0  0  0  0
  156.7560  213.9340  146.2370 C   0  0  0  0  0  1  0  0  0  0  0  0
  160.6840  211.4550  151.3110 C   0  0  0  0  0  2  0  0  0  0  0  0
  159.6570  213.6910  151.8210 C   0  0  2  0  0  3  0  0  0  0  0  0
  161.2710  213.8640  148.4040 C   0  0  0  0  0  3  0  0  0  0  0  0
  155.7530  214.0510  148.5200 C   0  0  0  0  0  3  0  0  0  0  0  0
  161.1160  212.0300  149.9910 C   0  0  0  0  0  0  0  0  0  0  0  0
  162.0410  211.3090  149.2300 C   0  0  0  0  0  3  0  0  0  0  0  0
  158.5550  214.4530  152.5620 C   0  0  0  0  0  2  0  0  0  0  0  0
  157.1510  214.1520  150.4970 C   0  0  0  0  0  0  0  0  0  0  0  0
  155.8820  214.1270  149.9090 C   0  0  0  0  0  3  0  0  0  0  0  0
  160.0040  209.5600  152.9470 O   0  0  0  0  0  0  0  0  0  0  0  0
  159.6300  210.4430  153.7680 C   0  0  0  0  0  0  0  0  0  0  0  0
  159.3430  211.7680  153.3200 N   0  0  0  0  0  2  0  0  0  0  0  0
  158.9010  212.5050  156.8600 C   0  0  1  0  0  3  0  0  0  0  0  0
  158.0550  210.4290  155.7290 C   0  0  0  0  0  2  0  0  0  0  0  0
  161.8170  210.5290  155.6240 O   0  0  0  0  0  1  0  0  0  0  0  0
  158.6780  213.9930  157.0210 C   0  0  0  0  0  1  0  0  0  0  0  0
  157.8450  211.9320  155.9180 C   0  0  0  0  0  2  0  0  0  0  0  0
  160.5340  210.7590  156.1250 C   0  0  2  0  0  3  0  0  0  0  0  0
  159.4680  210.1140  155.2240 C   0  0  2  0  0  3  0  0  0  0  0  0
  160.2980  212.2580  156.2990 C   0  0  0  0  0  2  0  0  0  0  0  0
  1  6  2  0  0  0  0
  1 14  1  0  0  0  0
  2  5  1  6  0  0  0
  2 13  1  0  0  0  0
  3  2  1  0  0  0  0
  3 19  1  0  0  0  0
  4  7  1  0  0  0  0
  4 15  2  0  0  0  0
  5 16  1  0  0  0  0
  6 17  1  0  0  0  0
  7  3  2  0  0  0  0
  8 23  1  1  0  0  0
  9  1  1  0  0  0  0
 10 18  1  0  0  0  0
 11  4  1  0  0  0  0
 12  8  1  0  0  0  0
 13  8  1  0  0  0  0
 13 18  1  1  0  0  0
 14  5  2  0  0  0  0
 15 20  1  0  0  0  0
 16 12  1  0  0  0  0
 17 16  2  0  0  0  0
 19 10  1  0  0  0  0
 20 19  2  0  0  0  0
 21 22  2  0  0  0  0
 23 22  1  0  0  0  0
 24 27  1  6  0  0  0
 25 28  1  0  0  0  0
 28 24  1  0  0  0  0
 29 26  1  6  0  0  0
 29 31  1  0  0  0  0
 30 22  1  6  0  0  0
 30 25  1  0  0  0  0
 30 29  1  0  0  0  0
 31 24  1  0  0  0  0
M  END
>  <MODEL>
9

>  <REMARK>
 VINA RESULT:      -4.7      3.865      7.694
  Name = 
  2 active torsions:
  status: ('A' for Active; 'I' for Inactive)
    1  A    between atoms: C_5  and  C_30
    2  A    between atoms: C_10  and  N_16
                            x       y       z     vdW  Elec       q    Type
                         _______ _______ _______ _____ _____    ______ ____

>  <TORSDO>
F 2

$$$$
