=
 OpenBabel11122413413D

 37 42  0  0  1  0  0  0  0  0999 V2000
  161.3460  208.3390  156.2510 C   0  0  1  0  0  0  0  0  0  0  0  0
  159.9900  210.1560  152.6840 C   0  0  1  0  0  3  0  0  0  0  0  0
  162.8510  210.6250  151.4900 C   0  0  0  0  0  1  0  0  0  0  0  0
  160.0690  210.2870  155.1630 C   0  0  2  0  0  3  0  0  0  0  0  0
  160.6900  209.2770  151.6500 C   0  0  1  0  0  3  0  0  0  0  0  0
  160.7190  209.7570  153.9040 C   0  0  1  0  0  3  0  0  0  0  0  0
  161.6730  210.0220  150.7290 C   0  0  1  0  0  3  0  0  0  0  0  0
  160.0680  211.7590  155.0980 N   0  0  0  0  0  2  0  0  0  0  0  0
  160.8490  208.3250  153.8520 N   0  0  2  0  0  0  0  0  0  0  0  0
  160.2440  207.5390  156.5570 O   0  0  0  0  0  1  0  0  0  0  0  0
  159.6050  212.2800  151.3070 C   0  0  0  0  0  2  0  0  0  0  0  0
  159.4540  212.2600  153.8490 C   0  0  0  0  0  2  0  0  0  0  0  0
  161.8660  207.9850  154.8440 C   0  0  0  0  0  2  0  0  0  0  0  0
  160.1430  211.6690  152.6050 C   0  0  1  0  0  3  0  0  0  0  0  0
  161.3350  208.1410  152.4790 C   0  0  1  0  0  3  0  0  0  0  0  0
  160.9440  209.8270  156.3400 C   0  0  0  0  0  2  0  0  0  0  0  0
  160.9300  211.0480  149.8400 C   0  0  1  0  0  3  0  0  0  0  0  0
  162.4430  208.0690  157.2600 C   0  0  0  0  0  1  0  0  0  0  0  0
  159.6050  211.3840  150.2150 O   0  0  0  0  0  0  0  0  0  0  0  0
  161.4910  206.5450  150.6840 O   0  0  0  0  0  0  0  0  0  0  0  0
  160.4850  206.0640  149.9090 N   0  0  0  0  0  0  0  0  0  0  0  0
  160.2230  203.9910  151.2070 C   0  0  2  0  0  3  0  0  0  0  0  0
  160.6170  204.6120  149.8650 C   0  0  0  0  0  2  0  0  0  0  0  0
  161.2750  204.2480  152.2940 C   0  0  1  0  0  3  0  0  0  0  0  0
  162.5630  203.9650  151.8330 O   0  0  0  0  0  1  0  0  0  0  0  0
  161.2240  205.6530  152.9100 C   0  0  0  0  0  2  0  0  0  0  0  0
  160.0530  202.6170  151.0430 O   0  0  0  0  0  1  0  0  0  0  0  0
  160.8930  206.7840  151.9290 C   0  0  1  0  0  3  0  0  0  0  0  0
  162.2160  206.6590  148.3120 C   0  0  0  0  0  1  0  0  0  0  0  0
  160.7250  206.5430  148.5580 C   0  0  0  0  0  2  0  0  0  0  0  0
  161.4660  213.4750  149.3630 C   0  0  0  0  0  3  0  0  0  0  0  0
  161.7110  212.1150  149.1270 C   0  0  0  0  0  0  0  0  0  0  0  0
  162.7040  211.7380  148.2170 C   0  0  0  0  0  3  0  0  0  0  0  0
  164.4090  212.3440  146.6650 F   0  0  0  0  0  0  0  0  0  0  0  0
  163.2010  214.0680  147.7820 C   0  0  0  0  0  3  0  0  0  0  0  0
  163.4480  212.7130  147.5450 C   0  0  0  0  0  0  0  0  0  0  0  0
  162.2100  214.4500  148.6920 C   0  0  0  0  0  3  0  0  0  0  0  0
  1 16  1  0  0  0  0
  1 10  1  0  0  0  0
  1 18  1  1  0  0  0
  2  6  1  0  0  0  0
  4 16  1  0  0  0  0
  5 15  1  0  0  0  0
  5  2  1  0  0  0  0
  6  4  1  0  0  0  0
  7  3  1  0  0  0  0
  7  5  1  0  0  0  0
  8  4  1  0  0  0  0
  9  6  1  0  0  0  0
  9 13  1  0  0  0  0
 11 14  1  0  0  0  0
 12  8  1  0  0  0  0
 13  1  1  0  0  0  0
 14  2  1  0  0  0  0
 14 12  1  0  0  0  0
 15  9  1  0  0  0  0
 17 19  1  0  0  0  0
 17  7  1  0  0  0  0
 19 11  1  0  0  0  0
 20 28  1  0  0  0  0
 21 20  1  0  0  0  0
 22 24  1  0  0  0  0
 23 21  1  0  0  0  0
 23 22  1  0  0  0  0
 24 26  1  0  0  0  0
 25 24  1  0  0  0  0
 27 22  1  0  0  0  0
 28 15  1  0  0  0  0
 28 26  1  0  0  0  0
 29 30  1  0  0  0  0
 30 21  1  0  0  0  0
 32 31  1  0  0  0  0
 32 17  1  0  0  0  0
 33 32  2  0  0  0  0
 34 36  1  0  0  0  0
 35 37  1  0  0  0  0
 36 35  2  0  0  0  0
 36 33  1  0  0  0  0
 37 31  2  0  0  0  0
M  END
>  <MODEL>
1

>  <REMARK>
 VINA RESULT:      -1.2      0.000      0.000
  Name = 
  3 active torsions:
  status: ('A' for Active; 'I' for Inactive)
    1  A    between atoms: N_4  and  C_37
    2  A    between atoms: C_21  and  C_27
    3  A    between atoms: C_23  and  C_30
                            x       y       z     vdW  Elec       q    Type
                         _______ _______ _______ _____ _____    ______ ____

>  <TORSDO>
F 3

$$$$
=
 OpenBabel11122413413D

 37 42  0  0  1  0  0  0  0  0999 V2000
  158.8880  211.5490  154.2970 C   0  0  1  0  0  0  0  0  0  0  0  0
  161.6280  208.5430  153.1460 C   0  0  1  0  0  3  0  0  0  0  0  0
  159.6210  207.0190  151.2810 C   0  0  0  0  0  1  0  0  0  0  0  0
  160.4040  209.6050  155.0290 C   0  0  2  0  0  3  0  0  0  0  0  0
  161.5410  208.6650  151.6270 C   0  0  1  0  0  3  0  0  0  0  0  0
  160.4430  209.3290  153.5420 C   0  0  1  0  0  3  0  0  0  0  0  0
  161.0520  207.3970  150.9040 C   0  0  1  0  0  3  0  0  0  0  0  0
  160.3450  208.3130  155.7360 N   0  0  0  0  0  2  0  0  0  0  0  0
  160.4390  210.5060  152.7130 N   0  0  2  0  0  0  0  0  0  0  0  0
  159.7700  212.5930  154.5840 O   0  0  0  0  0  1  0  0  0  0  0  0
  162.4770  206.1380  153.3730 C   0  0  0  0  0  2  0  0  0  0  0  0
  161.4360  207.4040  155.3230 C   0  0  0  0  0  2  0  0  0  0  0  0
  159.1010  211.0770  152.8460 C   0  0  0  0  0  2  0  0  0  0  0  0
  161.4380  207.1810  153.7990 C   0  0  1  0  0  3  0  0  0  0  0  0
  160.6550  209.9120  151.3880 C   0  0  1  0  0  3  0  0  0  0  0  0
  159.1130  210.3940  155.2990 C   0  0  0  0  0  2  0  0  0  0  0  0
  162.0580  206.2350  151.0840 C   0  0  1  0  0  3  0  0  0  0  0  0
  157.4680  212.0530  154.4450 C   0  0  0  0  0  1  0  0  0  0  0  0
  163.0370  206.3820  152.0990 O   0  0  0  0  0  0  0  0  0  0  0  0
  161.4270  210.3960  149.1600 O   0  0  0  0  0  0  0  0  0  0  0  0
  162.7030  210.6210  148.7530 N   0  0  0  0  0  0  0  0  0  0  0  0
  162.4820  213.0700  148.7880 C   0  0  2  0  0  3  0  0  0  0  0  0
  162.6970  211.8240  147.9270 C   0  0  0  0  0  2  0  0  0  0  0  0
  161.0380  213.1790  149.2980 C   0  0  1  0  0  3  0  0  0  0  0  0
  160.1170  212.9670  148.2680 O   0  0  0  0  0  1  0  0  0  0  0  0
  160.7170  212.2760  150.4960 C   0  0  0  0  0  2  0  0  0  0  0  0
  162.7930  214.2040  148.0370 O   0  0  0  0  0  1  0  0  0  0  0  0
  161.3820  210.8940  150.4690 C   0  0  1  0  0  3  0  0  0  0  0  0
  162.1550  208.3380  148.1310 C   0  0  0  0  0  1  0  0  0  0  0  0
  163.0690  209.5200  147.8780 C   0  0  0  0  0  2  0  0  0  0  0  0
  161.4760  203.8720  151.7800 C   0  0  0  0  0  3  0  0  0  0  0  0
  161.6320  204.8290  150.7680 C   0  0  0  0  0  0  0  0  0  0  0  0
  161.3830  204.4760  149.4370 C   0  0  0  0  0  3  0  0  0  0  0  0
  160.7400  202.8380  147.8300 F   0  0  0  0  0  0  0  0  0  0  0  0
  160.8260  202.2240  150.1310 C   0  0  0  0  0  3  0  0  0  0  0  0
  160.9800  203.1760  149.1190 C   0  0  0  0  0  0  0  0  0  0  0  0
  161.0730  202.5720  151.4620 C   0  0  0  0  0  3  0  0  0  0  0  0
  1 18  1  1  0  0  0
  1 10  1  0  0  0  0
  1 16  1  0  0  0  0
  2  6  1  0  0  0  0
  2 14  1  0  0  0  0
  4 16  1  0  0  0  0
  4  8  1  0  0  0  0
  5  2  1  0  0  0  0
  6  4  1  0  0  0  0
  7 17  1  0  0  0  0
  7  3  1  0  0  0  0
  7  5  1  0  0  0  0
  9 13  1  0  0  0  0
  9  6  1  0  0  0  0
 11 14  1  0  0  0  0
 12  8  1  0  0  0  0
 13  1  1  0  0  0  0
 14 12  1  0  0  0  0
 15  5  1  0  0  0  0
 15  9  1  0  0  0  0
 17 19  1  0  0  0  0
 19 11  1  0  0  0  0
 20 28  1  0  0  0  0
 21 20  1  0  0  0  0
 22 24  1  0  0  0  0
 23 21  1  0  0  0  0
 23 22  1  0  0  0  0
 24 26  1  0  0  0  0
 25 24  1  0  0  0  0
 27 22  1  0  0  0  0
 28 26  1  0  0  0  0
 28 15  1  0  0  0  0
 30 29  1  0  0  0  0
 30 21  1  0  0  0  0
 32 17  1  0  0  0  0
 32 31  2  0  0  0  0
 33 32  1  0  0  0  0
 34 36  1  0  0  0  0
 35 37  2  0  0  0  0
 36 33  2  0  0  0  0
 36 35  1  0  0  0  0
 37 31  1  0  0  0  0
M  END
>  <MODEL>
2

>  <REMARK>
 VINA RESULT:      -1.2      2.642      6.769
  Name = 
  3 active torsions:
  status: ('A' for Active; 'I' for Inactive)
    1  A    between atoms: N_4  and  C_37
    2  A    between atoms: C_21  and  C_27
    3  A    between atoms: C_23  and  C_30
                            x       y       z     vdW  Elec       q    Type
                         _______ _______ _______ _____ _____    ______ ____

>  <TORSDO>
F 3

$$$$
=
 OpenBabel11122413413D

 37 42  0  0  1  0  0  0  0  0999 V2000
  161.3660  210.4210  154.7800 C   0  0  1  0  0  0  0  0  0  0  0  0
  160.0060  211.3730  150.8930 C   0  0  1  0  0  3  0  0  0  0  0  0
  162.8660  211.8010  149.6810 C   0  0  0  0  0  1  0  0  0  0  0  0
  159.9940  212.0090  153.2930 C   0  0  2  0  0  3  0  0  0  0  0  0
  160.7980  210.3570  150.0730 C   0  0  1  0  0  3  0  0  0  0  0  0
  160.7200  211.2850  152.1820 C   0  0  1  0  0  3  0  0  0  0  0  0
  161.7580  210.9700  149.0380 C   0  0  1  0  0  3  0  0  0  0  0  0
  159.8940  213.4330  152.9290 N   0  0  0  0  0  2  0  0  0  0  0  0
  160.9500  209.8850  152.4260 N   0  0  2  0  0  0  0  0  0  0  0  0
  160.3110  209.6210  155.2230 O   0  0  0  0  0  1  0  0  0  0  0  0
  159.5210  213.1390  149.1040 C   0  0  0  0  0  2  0  0  0  0  0  0
  159.2880  213.6240  151.5930 C   0  0  0  0  0  2  0  0  0  0  0  0
  161.9550  209.8300  153.4850 C   0  0  0  0  0  2  0  0  0  0  0  0
  160.0570  212.8450  150.5100 C   0  0  1  0  0  3  0  0  0  0  0  0
  161.4930  209.4630  151.1300 C   0  0  1  0  0  3  0  0  0  0  0  0
  160.8590  211.8630  154.5550 C   0  0  0  0  0  2  0  0  0  0  0  0
  160.9760  211.7370  147.9440 C   0  0  1  0  0  3  0  0  0  0  0  0
  162.4440  210.4440  155.8430 C   0  0  0  0  0  1  0  0  0  0  0  0
  159.6190  212.0430  148.2180 O   0  0  0  0  0  0  0  0  0  0  0  0
  162.1050  207.4360  149.9850 O   0  0  0  0  0  0  0  0  0  0  0  0
  161.3650  206.7280  149.0930 N   0  0  0  0  0  0  0  0  0  0  0  0
  160.5840  205.0920  150.7550 C   0  0  2  0  0  3  0  0  0  0  0  0
  161.4150  205.3260  149.4920 C   0  0  0  0  0  2  0  0  0  0  0  0
  161.2560  205.6730  152.0060 C   0  0  1  0  0  3  0  0  0  0  0  0
  162.6050  205.3120  152.0730 O   0  0  0  0  0  1  0  0  0  0  0  0
  161.1010  207.1910  152.1650 C   0  0  0  0  0  2  0  0  0  0  0  0
  160.3910  203.7210  150.9280 O   0  0  0  0  0  1  0  0  0  0  0  0
  161.1630  207.9940  150.8600 C   0  0  1  0  0  3  0  0  0  0  0  0
  161.1180  206.3550  146.7050 C   0  0  0  0  0  1  0  0  0  0  0  0
  162.0440  206.8190  147.8110 C   0  0  0  0  0  2  0  0  0  0  0  0
  162.6800  213.5650  147.5460 C   0  0  0  0  0  3  0  0  0  0  0  0
  161.7050  212.6920  147.0430 C   0  0  0  0  0  0  0  0  0  0  0  0
  161.4060  212.7020  145.6760 C   0  0  0  0  0  3  0  0  0  0  0  0
  161.7830  213.5850  143.4940 F   0  0  0  0  0  0  0  0  0  0  0  0
  163.0460  214.4480  145.3220 C   0  0  0  0  0  3  0  0  0  0  0  0
  162.0760  213.5790  144.8170 C   0  0  0  0  0  0  0  0  0  0  0  0
  163.3500  214.4410  146.6870 C   0  0  0  0  0  3  0  0  0  0  0  0
  1 10  1  0  0  0  0
  1 18  1  1  0  0  0
  2  6  1  0  0  0  0
  4 16  1  0  0  0  0
  5  2  1  0  0  0  0
  5 15  1  0  0  0  0
  6  9  1  0  0  0  0
  6  4  1  0  0  0  0
  7  3  1  0  0  0  0
  7  5  1  0  0  0  0
  8  4  1  0  0  0  0
  9 13  1  0  0  0  0
 11 14  1  0  0  0  0
 12  8  1  0  0  0  0
 13  1  1  0  0  0  0
 14  2  1  0  0  0  0
 14 12  1  0  0  0  0
 15  9  1  0  0  0  0
 16  1  1  0  0  0  0
 17 19  1  0  0  0  0
 17  7  1  0  0  0  0
 19 11  1  0  0  0  0
 20 28  1  0  0  0  0
 21 23  1  0  0  0  0
 21 20  1  0  0  0  0
 22 27  1  0  0  0  0
 22 24  1  0  0  0  0
 23 22  1  0  0  0  0
 24 25  1  0  0  0  0
 24 26  1  0  0  0  0
 28 15  1  0  0  0  0
 28 26  1  0  0  0  0
 29 30  1  0  0  0  0
 30 21  1  0  0  0  0
 32 31  1  0  0  0  0
 32 17  1  0  0  0  0
 33 32  2  0  0  0  0
 34 36  1  0  0  0  0
 35 37  1  0  0  0  0
 36 35  2  0  0  0  0
 36 33  1  0  0  0  0
 37 31  2  0  0  0  0
M  END
>  <MODEL>
3

>  <REMARK>
 VINA RESULT:      -0.8      1.735      2.242
  Name = 
  3 active torsions:
  status: ('A' for Active; 'I' for Inactive)
    1  A    between atoms: N_4  and  C_37
    2  A    between atoms: C_21  and  C_27
    3  A    between atoms: C_23  and  C_30
                            x       y       z     vdW  Elec       q    Type
                         _______ _______ _______ _____ _____    ______ ____

>  <TORSDO>
F 3

$$$$
=
 OpenBabel11122413413D

 37 42  0  0  1  0  0  0  0  0999 V2000
  159.4790  211.1020  153.7890 C   0  0  1  0  0  0  0  0  0  0  0  0
  162.0310  208.4320  151.7340 C   0  0  1  0  0  3  0  0  0  0  0  0
  159.7310  206.9600  150.1920 C   0  0  0  0  0  1  0  0  0  0  0  0
  161.2120  209.2090  153.9460 C   0  0  2  0  0  3  0  0  0  0  0  0
  161.5970  208.6980  150.2940 C   0  0  1  0  0  3  0  0  0  0  0  0
  160.9280  209.0870  152.4660 C   0  0  1  0  0  3  0  0  0  0  0  0
  161.0200  207.4760  149.5570 C   0  0  1  0  0  3  0  0  0  0  0  0
  161.3770  207.8530  154.4980 N   0  0  0  0  0  2  0  0  0  0  0  0
  160.6810  210.3370  151.7960 N   0  0  2  0  0  0  0  0  0  0  0  0
  160.3510  212.1730  153.9920 O   0  0  0  0  0  1  0  0  0  0  0  0
  163.0240  206.0840  151.4960 C   0  0  0  0  0  2  0  0  0  0  0  0
  162.3890  207.0700  153.7560 C   0  0  0  0  0  2  0  0  0  0  0  0
  159.3810  210.7940  152.2820 C   0  0  0  0  0  2  0  0  0  0  0  0
  162.0580  207.0010  152.2540 C   0  0  1  0  0  3  0  0  0  0  0  0
  160.6210  209.8950  150.3980 C   0  0  1  0  0  3  0  0  0  0  0  0
  159.9790  209.8730  154.5800 C   0  0  0  0  0  2  0  0  0  0  0  0
  162.0960  206.3780  149.3800 C   0  0  1  0  0  3  0  0  0  0  0  0
  158.1060  211.4850  154.3000 C   0  0  0  0  0  1  0  0  0  0  0  0
  163.2690  206.4930  150.1660 O   0  0  0  0  0  0  0  0  0  0  0  0
  161.3410  212.1830  150.1860 O   0  0  0  0  0  0  0  0  0  0  0  0
  160.7580  213.1740  149.4630 N   0  0  0  0  0  0  0  0  0  0  0  0
  162.2800  212.9280  147.5480 C   0  0  2  0  0  3  0  0  0  0  0  0
  161.8070  213.8290  148.6890 C   0  0  0  0  0  2  0  0  0  0  0  0
  163.1230  211.7490  148.0530 C   0  0  1  0  0  3  0  0  0  0  0  0
  164.1000  212.1720  148.9580 O   0  0  0  0  0  1  0  0  0  0  0  0
  162.3070  210.5930  148.6500 C   0  0  0  0  0  2  0  0  0  0  0  0
  163.0350  213.6830  146.6500 O   0  0  0  0  0  1  0  0  0  0  0  0
  161.0750  211.0140  149.4600 C   0  0  1  0  0  3  0  0  0  0  0  0
  158.7640  214.0340  150.5520 C   0  0  0  0  0  1  0  0  0  0  0  0
  160.2680  214.1590  150.4130 C   0  0  0  0  0  2  0  0  0  0  0  0
  161.2730  204.0620  149.9830 C   0  0  0  0  0  3  0  0  0  0  0  0
  161.6770  204.9840  149.0070 C   0  0  0  0  0  0  0  0  0  0  0  0
  161.6880  204.6060  147.6600 C   0  0  0  0  0  3  0  0  0  0  0  0
  161.3100  202.9550  145.9830 F   0  0  0  0  0  0  0  0  0  0  0  0
  160.8960  202.3990  148.2640 C   0  0  0  0  0  3  0  0  0  0  0  0
  161.2980  203.3160  147.2890 C   0  0  0  0  0  0  0  0  0  0  0  0
  160.8820  202.7720  149.6110 C   0  0  0  0  0  3  0  0  0  0  0  0
  1 10  1  0  0  0  0
  1 18  1  1  0  0  0
  1 16  1  0  0  0  0
  2 14  1  0  0  0  0
  2  6  1  0  0  0  0
  4  8  1  0  0  0  0
  4 16  1  0  0  0  0
  5 15  1  0  0  0  0
  5  2  1  0  0  0  0
  6  4  1  0  0  0  0
  7  3  1  0  0  0  0
  7  5  1  0  0  0  0
  9 13  1  0  0  0  0
  9  6  1  0  0  0  0
 11 14  1  0  0  0  0
 12  8  1  0  0  0  0
 13  1  1  0  0  0  0
 14 12  1  0  0  0  0
 15  9  1  0  0  0  0
 17  7  1  0  0  0  0
 17 19  1  0  0  0  0
 19 11  1  0  0  0  0
 21 20  1  0  0  0  0
 21 30  1  0  0  0  0
 22 24  1  0  0  0  0
 22 23  1  0  0  0  0
 23 21  1  0  0  0  0
 24 26  1  0  0  0  0
 24 25  1  0  0  0  0
 26 28  1  0  0  0  0
 27 22  1  0  0  0  0
 28 20  1  0  0  0  0
 28 15  1  0  0  0  0
 30 29  1  0  0  0  0
 32 17  1  0  0  0  0
 32 31  2  0  0  0  0
 33 32  1  0  0  0  0
 34 36  1  0  0  0  0
 35 37  2  0  0  0  0
 36 33  2  0  0  0  0
 36 35  1  0  0  0  0
 37 31  1  0  0  0  0
M  END
>  <MODEL>
4

>  <REMARK>
 VINA RESULT:      -0.3      2.762      6.984
  Name = 
  3 active torsions:
  status: ('A' for Active; 'I' for Inactive)
    1  A    between atoms: N_4  and  C_37
    2  A    between atoms: C_21  and  C_27
    3  A    between atoms: C_23  and  C_30
                            x       y       z     vdW  Elec       q    Type
                         _______ _______ _______ _____ _____    ______ ____

>  <TORSDO>
F 3

$$$$
=
 OpenBabel11122413413D

 37 42  0  0  1  0  0  0  0  0999 V2000
  161.5890  210.4090  154.1890 C   0  0  1  0  0  0  0  0  0  0  0  0
  160.2610  211.1190  150.2390 C   0  0  1  0  0  3  0  0  0  0  0  0
  163.0890  211.8760  149.1140 C   0  0  0  0  0  1  0  0  0  0  0  0
  160.0860  211.7890  152.6240 C   0  0  2  0  0  3  0  0  0  0  0  0
  161.2010  210.1950  149.4680 C   0  0  1  0  0  3  0  0  0  0  0  0
  160.9350  211.1420  151.5530 C   0  0  1  0  0  3  0  0  0  0  0  0
  162.1150  210.9040  148.4520 C   0  0  1  0  0  3  0  0  0  0  0  0
  159.8250  213.1840  152.2260 N   0  0  0  0  0  2  0  0  0  0  0  0
  161.3260  209.7850  151.8350 N   0  0  2  0  0  0  0  0  0  0  0  0
  160.6250  209.4920  154.6140 O   0  0  0  0  0  1  0  0  0  0  0  0
  159.6270  212.7810  148.3980 C   0  0  0  0  0  2  0  0  0  0  0  0
  159.2480  213.2750  150.8670 C   0  0  0  0  0  2  0  0  0  0  0  0
  162.2920  209.8730  152.9270 C   0  0  0  0  0  2  0  0  0  0  0  0
  160.1450  212.5790  149.8270 C   0  0  1  0  0  3  0  0  0  0  0  0
  161.9620  209.4120  150.5660 C   0  0  1  0  0  3  0  0  0  0  0  0
  160.9170  211.7730  153.9170 C   0  0  0  0  0  2  0  0  0  0  0  0
  161.2830  211.5500  147.3180 C   0  0  1  0  0  3  0  0  0  0  0  0
  162.6180  210.5820  155.2860 C   0  0  0  0  0  1  0  0  0  0  0  0
  159.8910  211.6900  147.5400 O   0  0  0  0  0  0  0  0  0  0  0  0
  160.7330  207.3940  151.0270 O   0  0  0  0  0  0  0  0  0  0  0  0
  161.1980  206.2450  151.5840 N   0  0  0  0  0  0  0  0  0  0  0  0
  161.5030  205.1030  149.4270 C   0  0  2  0  0  3  0  0  0  0  0  0
  160.7410  205.1360  150.7530 C   0  0  0  0  0  2  0  0  0  0  0  0
  161.0760  206.2370  148.4860 C   0  0  1  0  0  3  0  0  0  0  0  0
  159.6840  206.3320  148.4010 O   0  0  0  0  0  1  0  0  0  0  0  0
  161.6850  207.6050  148.8200 C   0  0  0  0  0  2  0  0  0  0  0  0
  161.2800  203.8760  148.8030 O   0  0  0  0  0  1  0  0  0  0  0  0
  161.8260  207.9090  150.3170 C   0  0  1  0  0  3  0  0  0  0  0  0
  161.5570  206.1990  153.9860 C   0  0  0  0  0  1  0  0  0  0  0  0
  160.5370  206.1000  152.8690 C   0  0  0  0  0  2  0  0  0  0  0  0
  162.8290  213.5150  146.9250 C   0  0  0  0  0  3  0  0  0  0  0  0
  161.9220  212.5720  146.4210 C   0  0  0  0  0  0  0  0  0  0  0  0
  161.6060  212.5750  145.0580 C   0  0  0  0  0  3  0  0  0  0  0  0
  161.8830  213.5120  142.8840 F   0  0  0  0  0  0  0  0  0  0  0  0
  163.0950  214.4530  144.7080 C   0  0  0  0  0  3  0  0  0  0  0  0
  162.1910  213.5140  144.2030 C   0  0  0  0  0  0  0  0  0  0  0  0
  163.4140  214.4530  146.0700 C   0  0  0  0  0  3  0  0  0  0  0  0
  1 10  1  0  0  0  0
  1 18  1  1  0  0  0
  2  6  1  0  0  0  0
  4 16  1  0  0  0  0
  5  2  1  0  0  0  0
  5 15  1  0  0  0  0
  6  9  1  0  0  0  0
  6  4  1  0  0  0  0
  7  3  1  0  0  0  0
  7  5  1  0  0  0  0
  8  4  1  0  0  0  0
  9 13  1  0  0  0  0
 11 14  1  0  0  0  0
 12  8  1  0  0  0  0
 13  1  1  0  0  0  0
 14  2  1  0  0  0  0
 14 12  1  0  0  0  0
 15  9  1  0  0  0  0
 16  1  1  0  0  0  0
 17 19  1  0  0  0  0
 17  7  1  0  0  0  0
 19 11  1  0  0  0  0
 20 21  1  0  0  0  0
 21 30  1  0  0  0  0
 22 23  1  0  0  0  0
 23 21  1  0  0  0  0
 24 26  1  0  0  0  0
 24 22  1  0  0  0  0
 25 24  1  0  0  0  0
 26 28  1  0  0  0  0
 27 22  1  0  0  0  0
 28 15  1  0  0  0  0
 28 20  1  0  0  0  0
 30 29  1  0  0  0  0
 32 31  1  0  0  0  0
 32 17  1  0  0  0  0
 33 32  2  0  0  0  0
 34 36  1  0  0  0  0
 35 37  1  0  0  0  0
 36 35  2  0  0  0  0
 36 33  1  0  0  0  0
 37 31  2  0  0  0  0
M  END
>  <MODEL>
5

>  <REMARK>
 VINA RESULT:      -0.0      2.049      3.170
  Name = 
  3 active torsions:
  status: ('A' for Active; 'I' for Inactive)
    1  A    between atoms: N_4  and  C_37
    2  A    between atoms: C_21  and  C_27
    3  A    between atoms: C_23  and  C_30
                            x       y       z     vdW  Elec       q    Type
                         _______ _______ _______ _____ _____    ______ ____

>  <TORSDO>
F 3

$$$$
=
 OpenBabel11122413413D

 37 42  0  0  1  0  0  0  0  0999 V2000
  162.0350  206.6950  147.8640 C   0  0  1  0  0  0  0  0  0  0  0  0
  160.6930  208.4890  151.4480 C   0  0  1  0  0  3  0  0  0  0  0  0
  163.5240  209.4910  152.3500 C   0  0  0  0  0  1  0  0  0  0  0  0
  160.9080  206.3800  150.1540 C   0  0  2  0  0  3  0  0  0  0  0  0
  161.2490  209.9000  151.2690 C   0  0  1  0  0  3  0  0  0  0  0  0
  161.4380  207.7770  150.3910 C   0  0  1  0  0  3  0  0  0  0  0  0
  162.2550  210.3390  152.3470 C   0  0  1  0  0  3  0  0  0  0  0  0
  161.0530  205.6130  151.4030 N   0  0  0  0  0  2  0  0  0  0  0  0
  161.4200  208.6310  149.2330 N   0  0  2  0  0  0  0  0  0  0  0  0
  160.8740  206.7810  147.0930 O   0  0  0  0  0  1  0  0  0  0  0  0
  160.4560  208.4010  153.9960 C   0  0  0  0  0  2  0  0  0  0  0  0
  160.4300  206.3020  152.5540 C   0  0  0  0  0  2  0  0  0  0  0  0
  162.4460  208.1020  148.3370 C   0  0  0  0  0  2  0  0  0  0  0  0
  160.9940  207.7250  152.7300 C   0  0  1  0  0  3  0  0  0  0  0  0
  161.8170  209.9120  149.8290 C   0  0  1  0  0  3  0  0  0  0  0  0
  161.7900  205.7520  149.0630 C   0  0  0  0  0  2  0  0  0  0  0  0
  161.5760  210.4270  153.7350 C   0  0  1  0  0  3  0  0  0  0  0  0
  163.1480  206.1210  147.0120 C   0  0  0  0  0  1  0  0  0  0  0  0
  160.3120  209.8010  153.8740 O   0  0  0  0  0  0  0  0  0  0  0  0
  161.3070  212.2650  149.7880 O   0  0  0  0  0  0  0  0  0  0  0  0
  160.0880  212.8500  149.6520 N   0  0  0  0  0  0  0  0  0  0  0  0
  160.3470  213.2630  147.2410 C   0  0  2  0  0  3  0  0  0  0  0  0
  160.2080  213.8850  148.6310 C   0  0  0  0  0  2  0  0  0  0  0  0
  161.7260  212.6230  147.0300 C   0  0  1  0  0  3  0  0  0  0  0  0
  162.7530  213.4820  147.4320 O   0  0  0  0  0  1  0  0  0  0  0  0
  161.8960  211.2450  147.6820 C   0  0  0  0  0  2  0  0  0  0  0  0
  160.1420  214.2480  146.2760 O   0  0  0  0  0  1  0  0  0  0  0  0
  161.2140  211.0800  149.0460 C   0  0  1  0  0  3  0  0  0  0  0  0
  158.9410  212.6490  151.7840 C   0  0  0  0  0  1  0  0  0  0  0  0
  159.8030  213.5320  150.9030 C   0  0  0  0  0  2  0  0  0  0  0  0
  162.0930  209.7660  156.1230 C   0  0  0  0  0  3  0  0  0  0  0  0
  162.4240  210.4960  154.9730 C   0  0  0  0  0  0  0  0  0  0  0  0
  163.5690  211.3010  154.9700 C   0  0  0  0  0  3  0  0  0  0  0  0
  165.4840  212.1580  156.1020 F   0  0  0  0  0  0  0  0  0  0  0  0
  164.0430  210.6490  157.2540 C   0  0  0  0  0  3  0  0  0  0  0  0
  164.3770  211.3770  156.1090 C   0  0  0  0  0  0  0  0  0  0  0  0
  162.9010  209.8420  157.2610 C   0  0  0  0  0  3  0  0  0  0  0  0
  1 18  1  6  0  0  0
  1 13  1  0  0  0  0
  1 16  1  0  0  0  0
  2 14  1  0  0  0  0
  4  6  1  0  0  0  0
  4  8  1  0  0  0  0
  5  2  1  0  0  0  0
  5  7  1  0  0  0  0
  6  2  1  0  0  0  0
  7  3  1  0  0  0  0
  7 17  1  0  0  0  0
  8 12  1  0  0  0  0
  9 15  1  0  0  0  0
  9  6  1  0  0  0  0
 10  1  1  0  0  0  0
 12 14  1  0  0  0  0
 13  9  1  0  0  0  0
 14 11  1  0  0  0  0
 15  5  1  0  0  0  0
 16  4  1  0  0  0  0
 17 19  1  0  0  0  0
 17 32  1  0  0  0  0
 19 11  1  0  0  0  0
 21 20  1  0  0  0  0
 21 30  1  0  0  0  0
 22 23  1  0  0  0  0
 23 21  1  0  0  0  0
 24 22  1  0  0  0  0
 24 25  1  0  0  0  0
 24 26  1  0  0  0  0
 26 28  1  0  0  0  0
 27 22  1  0  0  0  0
 28 20  1  0  0  0  0
 28 15  1  0  0  0  0
 30 29  1  0  0  0  0
 31 37  1  0  0  0  0
 32 31  2  0  0  0  0
 33 32  1  0  0  0  0
 33 36  2  0  0  0  0
 34 36  1  0  0  0  0
 35 37  2  0  0  0  0
 36 35  1  0  0  0  0
M  END
>  <MODEL>
6

>  <REMARK>
 VINA RESULT:       0.3      2.857      7.337
  Name = 
  3 active torsions:
  status: ('A' for Active; 'I' for Inactive)
    1  A    between atoms: N_4  and  C_37
    2  A    between atoms: C_21  and  C_27
    3  A    between atoms: C_23  and  C_30
                            x       y       z     vdW  Elec       q    Type
                         _______ _______ _______ _____ _____    ______ ____

>  <TORSDO>
F 3

$$$$
=
 OpenBabel11122413413D

 37 42  0  0  1  0  0  0  0  0999 V2000
  160.2850  210.0840  153.5180 C   0  0  1  0  0  0  0  0  0  0  0  0
  162.4920  208.0660  150.5300 C   0  0  1  0  0  3  0  0  0  0  0  0
  159.9820  206.9460  149.0210 C   0  0  0  0  0  1  0  0  0  0  0  0
  162.0090  208.2600  152.9590 C   0  0  2  0  0  3  0  0  0  0  0  0
  161.8550  208.6610  149.2760 C   0  0  1  0  0  3  0  0  0  0  0  0
  161.5120  208.4920  151.5490 C   0  0  1  0  0  3  0  0  0  0  0  0
  161.1680  207.6380  148.3540 C   0  0  1  0  0  3  0  0  0  0  0  0
  162.2440  206.8160  153.1330 N   0  0  0  0  0  2  0  0  0  0  0  0
  161.1790  209.8600  151.2480 N   0  0  2  0  0  0  0  0  0  0  0  0
  161.1850  211.0980  153.8490 O   0  0  0  0  0  1  0  0  0  0  0  0
  163.4240  205.8760  149.5870 C   0  0  0  0  0  2  0  0  0  0  0  0
  163.1320  206.2660  152.0860 C   0  0  0  0  0  2  0  0  0  0  0  0
  159.9670  210.1470  152.0110 C   0  0  0  0  0  2  0  0  0  0  0  0
  162.5850  206.5540  150.6760 C   0  0  1  0  0  3  0  0  0  0  0  0
  160.9130  209.7680  149.8080 C   0  0  1  0  0  3  0  0  0  0  0  0
  160.8870  208.7140  153.9050 C   0  0  0  0  0  2  0  0  0  0  0  0
  162.1990  206.6470  147.7610 C   0  0  1  0  0  3  0  0  0  0  0  0
  159.0040  210.2910  154.2980 C   0  0  0  0  0  1  0  0  0  0  0  0
  163.4760  206.6020  148.3760 O   0  0  0  0  0  0  0  0  0  0  0  0
  161.4340  212.1040  150.0660 O   0  0  0  0  0  0  0  0  0  0  0  0
  160.7420  213.1690  149.5840 N   0  0  0  0  0  0  0  0  0  0  0  0
  162.1940  213.4630  147.6210 C   0  0  2  0  0  3  0  0  0  0  0  0
  161.6990  214.0620  148.9390 C   0  0  0  0  0  2  0  0  0  0  0  0
  163.1500  212.2840  147.8440 C   0  0  1  0  0  3  0  0  0  0  0  0
  164.1290  212.5950  148.7920 O   0  0  0  0  0  1  0  0  0  0  0  0
  162.4580  210.9620  148.2030 C   0  0  0  0  0  2  0  0  0  0  0  0
  162.8440  214.4530  146.8850 O   0  0  0  0  0  1  0  0  0  0  0  0
  161.2330  211.0940  149.1150 C   0  0  1  0  0  3  0  0  0  0  0  0
  158.7700  213.4950  150.9650 C   0  0  0  0  0  1  0  0  0  0  0  0
  160.2160  213.8870  150.7330 C   0  0  0  0  0  2  0  0  0  0  0  0
  161.6590  204.1760  147.8500 C   0  0  0  0  0  3  0  0  0  0  0  0
  161.7220  205.3730  147.1240 C   0  0  0  0  0  0  0  0  0  0  0  0
  161.3280  205.3900  145.7820 C   0  0  0  0  0  3  0  0  0  0  0  0
  160.4940  204.2380  143.8680 F   0  0  0  0  0  0  0  0  0  0  0  0
  160.8150  203.0260  145.8940 C   0  0  0  0  0  3  0  0  0  0  0  0
  160.8750  204.2180  145.1680 C   0  0  0  0  0  0  0  0  0  0  0  0
  161.2060  203.0040  147.2370 C   0  0  0  0  0  3  0  0  0  0  0  0
  1 10  1  0  0  0  0
  1 16  1  0  0  0  0
  1 18  1  1  0  0  0
  2 14  1  0  0  0  0
  2  6  1  0  0  0  0
  4  8  1  0  0  0  0
  4 16  1  0  0  0  0
  5 15  1  0  0  0  0
  5  2  1  0  0  0  0
  6  4  1  0  0  0  0
  7  3  1  0  0  0  0
  7  5  1  0  0  0  0
  9  6  1  0  0  0  0
  9 13  1  0  0  0  0
 11 14  1  0  0  0  0
 12  8  1  0  0  0  0
 13  1  1  0  0  0  0
 14 12  1  0  0  0  0
 15  9  1  0  0  0  0
 17  7  1  0  0  0  0
 17 19  1  0  0  0  0
 19 11  1  0  0  0  0
 21 20  1  0  0  0  0
 21 30  1  0  0  0  0
 22 24  1  0  0  0  0
 22 23  1  0  0  0  0
 23 21  1  0  0  0  0
 24 26  1  0  0  0  0
 24 25  1  0  0  0  0
 26 28  1  0  0  0  0
 27 22  1  0  0  0  0
 28 15  1  0  0  0  0
 28 20  1  0  0  0  0
 30 29  1  0  0  0  0
 32 17  1  0  0  0  0
 32 31  2  0  0  0  0
 33 32  1  0  0  0  0
 34 36  1  0  0  0  0
 35 37  2  0  0  0  0
 36 33  2  0  0  0  0
 36 35  1  0  0  0  0
 37 31  1  0  0  0  0
M  END
>  <MODEL>
7

>  <REMARK>
 VINA RESULT:       0.8      2.952      7.122
  Name = 
  3 active torsions:
  status: ('A' for Active; 'I' for Inactive)
    1  A    between atoms: N_4  and  C_37
    2  A    between atoms: C_21  and  C_27
    3  A    between atoms: C_23  and  C_30
                            x       y       z     vdW  Elec       q    Type
                         _______ _______ _______ _____ _____    ______ ____

>  <TORSDO>
F 3

$$$$
=
 OpenBabel11122413413D

 37 42  0  0  1  0  0  0  0  0999 V2000
  159.6530  211.5530  152.8060 C   0  0  1  0  0  0  0  0  0  0  0  0
  162.1670  208.6570  151.0270 C   0  0  1  0  0  3  0  0  0  0  0  0
  159.8790  207.2310  149.4250 C   0  0  0  0  0  1  0  0  0  0  0  0
  161.2700  209.5830  153.1500 C   0  0  2  0  0  3  0  0  0  0  0  0
  161.8280  208.8740  149.5540 C   0  0  1  0  0  3  0  0  0  0  0  0
  161.0620  209.4030  151.6630 C   0  0  1  0  0  3  0  0  0  0  0  0
  161.2280  207.6480  148.8420 C   0  0  1  0  0  3  0  0  0  0  0  0
  161.3310  208.2490  153.7730 N   0  0  0  0  0  2  0  0  0  0  0  0
  160.9200  210.6300  150.9230 N   0  0  2  0  0  0  0  0  0  0  0  0
  160.5690  212.5860  153.0090 O   0  0  0  0  0  1  0  0  0  0  0  0
  163.0440  206.2530  150.9560 C   0  0  0  0  0  2  0  0  0  0  0  0
  162.3390  207.3800  153.1280 C   0  0  0  0  0  2  0  0  0  0  0  0
  159.6220  211.1760  151.3120 C   0  0  0  0  0  2  0  0  0  0  0  0
  162.0880  207.2550  151.6140 C   0  0  1  0  0  3  0  0  0  0  0  0
  160.9140  210.1230  149.5460 C   0  0  1  0  0  3  0  0  0  0  0  0
  160.0410  210.3400  153.6800 C   0  0  0  0  0  2  0  0  0  0  0  0
  162.2510  206.4890  148.7780 C   0  0  1  0  0  3  0  0  0  0  0  0
  158.2760  212.0300  153.2180 C   0  0  0  0  0  1  0  0  0  0  0  0
  163.3840  206.5830  149.6250 O   0  0  0  0  0  0  0  0  0  0  0  0
  160.4450  211.9560  148.0570 O   0  0  0  0  0  0  0  0  0  0  0  0
  160.7250  212.0430  146.7310 N   0  0  0  0  0  0  0  0  0  0  0  0
  162.7840  213.3470  147.0580 C   0  0  2  0  0  3  0  0  0  0  0  0
  161.3610  213.3350  146.4980 C   0  0  0  0  0  2  0  0  0  0  0  0
  162.8010  213.3970  148.5920 C   0  0  1  0  0  3  0  0  0  0  0  0
  161.9330  214.3780  149.0790 O   0  0  0  0  0  1  0  0  0  0  0  0
  162.5250  212.0520  149.2760 C   0  0  0  0  0  2  0  0  0  0  0  0
  163.4660  214.4530  146.5520 O   0  0  0  0  0  1  0  0  0  0  0  0
  161.4790  211.1700  148.5840 C   0  0  1  0  0  3  0  0  0  0  0  0
  159.6780  211.8900  144.5440 C   0  0  0  0  0  1  0  0  0  0  0  0
  159.4510  212.0750  146.0310 C   0  0  0  0  0  2  0  0  0  0  0  0
  161.9250  204.5740  147.1560 C   0  0  0  0  0  3  0  0  0  0  0  0
  161.7790  205.1020  148.4470 C   0  0  0  0  0  0  0  0  0  0  0  0
  161.1910  204.3240  149.4500 C   0  0  0  0  0  3  0  0  0  0  0  0
  160.1790  202.2790  150.1410 F   0  0  0  0  0  0  0  0  0  0  0  0
  160.8940  202.5060  147.8790 C   0  0  0  0  0  3  0  0  0  0  0  0
  160.7480  203.0290  149.1660 C   0  0  0  0  0  0  0  0  0  0  0  0
  161.4840  203.2780  146.8730 C   0  0  0  0  0  3  0  0  0  0  0  0
  1 10  1  0  0  0  0
  1 18  1  1  0  0  0
  1 16  1  0  0  0  0
  2 14  1  0  0  0  0
  2  6  1  0  0  0  0
  4 16  1  0  0  0  0
  4  8  1  0  0  0  0
  5  2  1  0  0  0  0
  6  4  1  0  0  0  0
  7  3  1  0  0  0  0
  7  5  1  0  0  0  0
  9 13  1  0  0  0  0
  9  6  1  0  0  0  0
 11 14  1  0  0  0  0
 12  8  1  0  0  0  0
 13  1  1  0  0  0  0
 14 12  1  0  0  0  0
 15  5  1  0  0  0  0
 15  9  1  0  0  0  0
 17  7  1  0  0  0  0
 17 19  1  0  0  0  0
 19 11  1  0  0  0  0
 20 28  1  0  0  0  0
 21 20  1  0  0  0  0
 22 24  1  0  0  0  0
 23 21  1  0  0  0  0
 23 22  1  0  0  0  0
 24 25  1  0  0  0  0
 24 26  1  0  0  0  0
 27 22  1  0  0  0  0
 28 26  1  0  0  0  0
 28 15  1  0  0  0  0
 29 30  1  0  0  0  0
 30 21  1  0  0  0  0
 31 32  1  0  0  0  0
 32 17  1  0  0  0  0
 32 33  2  0  0  0  0
 35 36  2  0  0  0  0
 36 33  1  0  0  0  0
 36 34  1  0  0  0  0
 37 31  2  0  0  0  0
 37 35  1  0  0  0  0
M  END
>  <MODEL>
8

>  <REMARK>
 VINA RESULT:       1.2      3.158      7.273
  Name = 
  3 active torsions:
  status: ('A' for Active; 'I' for Inactive)
    1  A    between atoms: N_4  and  C_37
    2  A    between atoms: C_21  and  C_27
    3  A    between atoms: C_23  and  C_30
                            x       y       z     vdW  Elec       q    Type
                         _______ _______ _______ _____ _____    ______ ____

>  <TORSDO>
F 3

$$$$
