=
 OpenBabel11122414013D

 37 43  0  0  1  0  0  0  0  0999 V2000
  159.7400  210.4130  154.2970 C   0  0  0  0  0  0  0  0  0  0  0  0
  161.7790  208.2300  152.0200 C   0  0  1  0  0  3  0  0  0  0  0  0
  162.5680  209.4650  148.9090 O   0  0  0  0  0  0  0  0  0  0  0  0
  161.3550  208.7970  154.5320 C   0  0  2  0  0  3  0  0  0  0  0  0
  161.2200  209.1350  150.9220 C   0  0  2  0  0  3  0  0  0  0  0  0
  161.9680  209.2100  153.1900 C   0  0  2  0  0  3  0  0  0  0  0  0
  161.5050  208.7260  149.4630 C   0  0  2  0  0  3  0  0  0  0  0  0
  161.6290  207.3220  154.7770 C   0  0  0  0  0  2  0  0  0  0  0  0
  161.4200  210.5490  152.6950 C   0  0  2  0  0  3  0  0  0  0  0  0
  160.4730  211.2560  155.1290 F   0  0  0  0  0  0  0  0  0  0  0  0
  160.9070  205.9710  151.2760 C   0  0  0  0  0  2  0  0  0  0  0  0
  161.0260  206.4200  153.6940 C   0  0  0  0  0  2  0  0  0  0  0  0
  160.0250  210.6550  152.9370 O   0  0  0  0  0  0  0  0  0  0  0  0
  160.8230  210.5190  147.4350 C   0  0  0  0  0  1  0  0  0  0  0  0
  162.0610  210.6570  148.3260 C   0  0  1  0  0  3  0  0  0  0  0  0
  160.8010  207.0780  152.3230 C   0  0  1  0  0  3  0  0  0  0  0  0
  161.6720  210.4830  151.2540 N   0  0  2  0  0  0  0  0  0  0  0  0
  159.9710  209.0530  154.6000 O   0  0  0  0  0  0  0  0  0  0  0  0
  161.6840  207.2100  149.2500 C   0  0  1  0  0  3  0  0  0  0  0  0
  158.4020  210.6790  154.5080 F   0  0  0  0  0  0  0  0  0  0  0  0
  161.9650  211.7700  149.2750 N   0  0  0  0  0  2  0  0  0  0  0  0
  161.0430  211.4910  150.3800 C   0  0  2  0  0  3  0  0  0  0  0  0
  160.5320  206.4320  149.8760 C   0  0  0  0  0  2  0  0  0  0  0  0
  160.4760  206.4980  147.1380 C   0  0  0  0  0  2  0  0  0  0  0  0
  161.8290  206.7970  147.7790 C   0  0  2  0  0  3  0  0  0  0  0  0
  162.8210  205.6440  147.5790 C   0  0  0  0  0  2  0  0  0  0  0  0
  163.7440  204.4010  145.7650 O   0  0  0  0  0  0  0  0  0  0  0  0
  161.6630  205.3450  145.3280 N   0  0  0  0  0  2  0  0  0  0  0  0
  162.7970  205.1200  146.1740 C   0  0  0  0  0  0  0  0  0  0  0  0
  160.6620  206.3610  145.6340 C   0  0  0  0  0  2  0  0  0  0  0  0
  160.7710  212.8320  151.0990 C   0  0  1  0  0  3  0  0  0  0  0  0
  160.0820  213.8730  150.2810 N   0  0  0  0  0  0  0  0  0  0  0  0
  159.3410  213.0740  151.2650 C   0  0  2  0  0  3  0  0  0  0  0  0
  159.1080  213.9050  152.5090 C   0  0  0  0  0  2  0  0  0  0  0  0
  157.9130  213.5160  153.1130 O   0  0  0  0  0  1  0  0  0  0  0  0
  160.2620  214.1190  147.9800 F   0  0  0  0  0  0  0  0  0  0  0  0
  159.6180  213.4110  148.9760 C   0  0  0  0  0  2  0  0  0  0  0  0
  1 20  1  0  0  0  0
  1 18  1  0  0  0  0
  1 10  1  0  0  0  0
  2 16  1  0  0  0  0
  2  6  1  0  0  0  0
  3  7  1  0  0  0  0
  4 18  1  0  0  0  0
  4  8  1  0  0  0  0
  5 17  1  0  0  0  0
  5  2  1  0  0  0  0
  6  4  1  0  0  0  0
  7  5  1  0  0  0  0
  9 13  1  0  0  0  0
  9  6  1  0  0  0  0
 11 16  1  0  0  0  0
 12  8  1  0  0  0  0
 13  1  1  0  0  0  0
 14 15  1  0  0  0  0
 15  3  1  0  0  0  0
 15 21  1  0  0  0  0
 16 12  1  0  0  0  0
 17  9  1  0  0  0  0
 19  7  1  0  0  0  0
 19 23  1  0  0  0  0
 21 22  1  0  0  0  0
 22 31  1  0  0  0  0
 22 17  1  0  0  0  0
 23 11  1  0  0  0  0
 24 25  1  0  0  0  0
 25 19  1  0  0  0  0
 26 25  1  0  0  0  0
 27 29  2  0  0  0  0
 28 30  1  0  0  0  0
 28 29  1  0  0  0  0
 29 26  1  0  0  0  0
 30 24  1  0  0  0  0
 31 33  1  0  0  0  0
 32 31  1  0  0  0  0
 32 33  1  0  0  0  0
 33 34  1  0  0  0  0
 34 35  1  0  0  0  0
 36 37  1  0  0  0  0
 37 32  1  0  0  0  0
M  END
>  <MODEL>
1

>  <REMARK>
 VINA RESULT:      -5.0      0.000      0.000
  Name = 
  4 active torsions:
  status: ('A' for Active; 'I' for Inactive)
    1  A    between atoms: C_1  and  C_27
    2  A    between atoms: N_4  and  C_37
    3  A    between atoms: C_8  and  C_12
    4  A    between atoms: C_23  and  C_30
                            x       y       z     vdW  Elec       q    Type
                         _______ _______ _______ _____ _____    ______ ____

>  <TORSDO>
F 4

$$$$
=
 OpenBabel11122414013D

 37 43  0  0  1  0  0  0  0  0999 V2000
  159.9830  211.1860  154.2840 C   0  0  0  0  0  0  0  0  0  0  0  0
  161.6540  207.9020  153.5560 C   0  0  1  0  0  3  0  0  0  0  0  0
  162.7860  207.3610  150.3540 O   0  0  0  0  0  0  0  0  0  0  0  0
  161.2480  209.6590  155.4430 C   0  0  2  0  0  3  0  0  0  0  0  0
  161.3220  208.2410  152.1030 C   0  0  2  0  0  3  0  0  0  0  0  0
  161.9810  209.2820  154.1500 C   0  0  2  0  0  3  0  0  0  0  0  0
  161.5810  207.1460  151.0500 C   0  0  2  0  0  3  0  0  0  0  0  0
  161.2260  208.4600  156.3760 C   0  0  0  0  0  2  0  0  0  0  0  0
  161.7190  210.2840  153.0260 C   0  0  2  0  0  3  0  0  0  0  0  0
  160.8300  212.2040  154.7140 F   0  0  0  0  0  0  0  0  0  0  0  0
  160.3960  205.7220  153.8440 C   0  0  0  0  0  2  0  0  0  0  0  0
  160.5050  207.2510  155.7700 C   0  0  0  0  0  2  0  0  0  0  0  0
  160.3620  210.7010  153.0140 O   0  0  0  0  0  0  0  0  0  0  0  0
  161.3330  207.8260  148.3530 C   0  0  0  0  0  1  0  0  0  0  0  0
  162.5390  208.1880  149.2260 C   0  0  1  0  0  3  0  0  0  0  0  0
  160.4630  207.1970  154.2340 C   0  0  1  0  0  3  0  0  0  0  0  0
  162.0100  209.4980  151.8250 N   0  0  2  0  0  0  0  0  0  0  0  0
  159.9370  210.1210  155.2090 O   0  0  0  0  0  0  0  0  0  0  0  0
  161.4750  205.7050  151.5890 C   0  0  1  0  0  3  0  0  0  0  0  0
  158.7130  211.7170  154.1770 F   0  0  0  0  0  0  0  0  0  0  0  0
  162.6200  209.6190  149.5300 N   0  0  0  0  0  2  0  0  0  0  0  0
  161.6200  210.0460  150.5110 C   0  0  2  0  0  3  0  0  0  0  0  0
  160.1720  205.5050  152.3550 C   0  0  0  0  0  2  0  0  0  0  0  0
  160.8300  204.9960  149.2430 C   0  0  0  0  0  2  0  0  0  0  0  0
  161.5950  204.6220  150.5100 C   0  0  2  0  0  3  0  0  0  0  0  0
  161.2070  203.2280  151.0190 C   0  0  0  0  0  2  0  0  0  0  0  0
  161.1310  200.9970  150.1810 O   0  0  0  0  0  0  0  0  0  0  0  0
  160.9620  202.6480  148.5500 N   0  0  0  0  0  2  0  0  0  0  0  0
  161.1330  202.2240  149.9070 C   0  0  0  0  0  0  0  0  0  0  0  0
  161.2070  204.0240  148.1340 C   0  0  0  0  0  2  0  0  0  0  0  0
  161.5810  211.5910  150.4860 C   0  0  1  0  0  3  0  0  0  0  0  0
  161.4740  212.2080  149.1310 N   0  0  0  0  0  0  0  0  0  0  0  0
  160.2970  212.0890  150.0010 C   0  0  2  0  0  3  0  0  0  0  0  0
  160.0050  213.4340  150.6330 C   0  0  0  0  0  2  0  0  0  0  0  0
  158.8730  213.3330  151.4420 O   0  0  0  0  0  1  0  0  0  0  0  0
  160.4300  211.8280  147.0940 F   0  0  0  0  0  0  0  0  0  0  0  0
  161.2520  211.2580  148.0450 C   0  0  0  0  0  2  0  0  0  0  0  0
  1 10  1  0  0  0  0
  1 18  1  0  0  0  0
  2  6  1  0  0  0  0
  2 16  1  0  0  0  0
  3  7  1  0  0  0  0
  4  8  1  0  0  0  0
  5  2  1  0  0  0  0
  6  4  1  0  0  0  0
  7 19  1  0  0  0  0
  7  5  1  0  0  0  0
  9  6  1  0  0  0  0
 11 16  1  0  0  0  0
 12  8  1  0  0  0  0
 13  9  1  0  0  0  0
 13  1  1  0  0  0  0
 14 15  1  0  0  0  0
 15 21  1  0  0  0  0
 15  3  1  0  0  0  0
 16 12  1  0  0  0  0
 17  5  1  0  0  0  0
 17  9  1  0  0  0  0
 18  4  1  0  0  0  0
 19 23  1  0  0  0  0
 20  1  1  0  0  0  0
 21 22  1  0  0  0  0
 22 17  1  0  0  0  0
 23 11  1  0  0  0  0
 24 25  1  0  0  0  0
 25 26  1  0  0  0  0
 25 19  1  0  0  0  0
 28 29  1  0  0  0  0
 29 27  2  0  0  0  0
 29 26  1  0  0  0  0
 30 28  1  0  0  0  0
 30 24  1  0  0  0  0
 31 22  1  0  0  0  0
 32 33  1  0  0  0  0
 32 31  1  0  0  0  0
 33 31  1  0  0  0  0
 33 34  1  0  0  0  0
 34 35  1  0  0  0  0
 36 37  1  0  0  0  0
 37 32  1  0  0  0  0
M  END
>  <MODEL>
2

>  <REMARK>
 VINA RESULT:      -4.9      1.962      2.601
  Name = 
  4 active torsions:
  status: ('A' for Active; 'I' for Inactive)
    1  A    between atoms: C_1  and  C_27
    2  A    between atoms: N_4  and  C_37
    3  A    between atoms: C_8  and  C_12
    4  A    between atoms: C_23  and  C_30
                            x       y       z     vdW  Elec       q    Type
                         _______ _______ _______ _____ _____    ______ ____

>  <TORSDO>
F 4

$$$$
=
 OpenBabel11122414013D

 37 43  0  0  1  0  0  0  0  0999 V2000
  161.6760  208.5460  149.0610 C   0  0  0  0  0  0  0  0  0  0  0  0
  161.3300  211.7150  151.0480 C   0  0  1  0  0  3  0  0  0  0  0  0
  160.8940  211.4290  154.4470 O   0  0  0  0  0  0  0  0  0  0  0  0
  162.4430  210.7060  148.9140 C   0  0  2  0  0  3  0  0  0  0  0  0
  160.6970  210.7970  152.0940 C   0  0  2  0  0  3  0  0  0  0  0  0
  162.4240  210.8200  150.4420 C   0  0  2  0  0  3  0  0  0  0  0  0
  160.0510  211.4710  153.3200 C   0  0  2  0  0  3  0  0  0  0  0  0
  162.2180  212.0800  148.3050 C   0  0  0  0  0  2  0  0  0  0  0  0
  162.2600  209.4590  151.1190 C   0  0  2  0  0  3  0  0  0  0  0  0
  162.9780  208.0800  148.9040 F   0  0  0  0  0  0  0  0  0  0  0  0
  159.4220  213.3200  150.5960 C   0  0  0  0  0  2  0  0  0  0  0  0
  160.8720  212.6930  148.7070 C   0  0  0  0  0  2  0  0  0  0  0  0
  161.3250  208.6480  150.4240 O   0  0  0  0  0  0  0  0  0  0  0  0
  159.2030  209.8420  155.4240 C   0  0  0  0  0  1  0  0  0  0  0  0
  160.6630  210.2250  155.1650 C   0  0  1  0  0  3  0  0  0  0  0  0
  160.2730  212.1860  150.0290 C   0  0  1  0  0  3  0  0  0  0  0  0
  161.7270  209.8200  152.4340 N   0  0  2  0  0  0  0  0  0  0  0  0
  161.4880  209.7930  148.4240 O   0  0  0  0  0  0  0  0  0  0  0  0
  159.5110  212.8900  153.0560 C   0  0  1  0  0  3  0  0  0  0  0  0
  160.8300  207.6300  148.4680 F   0  0  0  0  0  0  0  0  0  0  0  0
  161.4760  209.1030  154.6880 N   0  0  0  0  0  2  0  0  0  0  0  0
  161.1880  208.7490  153.2960 C   0  0  2  0  0  3  0  0  0  0  0  0
  158.6180  212.9120  151.8200 C   0  0  0  0  0  2  0  0  0  0  0  0
  159.6220  213.6030  155.4860 C   0  0  0  0  0  2  0  0  0  0  0  0
  158.7470  213.5000  154.2390 C   0  0  2  0  0  3  0  0  0  0  0  0
  157.4250  212.7780  154.5300 C   0  0  0  0  0  2  0  0  0  0  0  0
  155.5850  212.9950  156.0310 O   0  0  0  0  0  0  0  0  0  0  0  0
  157.5810  213.9010  156.8120 N   0  0  0  0  0  2  0  0  0  0  0  0
  156.7950  213.2510  155.8060 C   0  0  0  0  0  0  0  0  0  0  0  0
  158.9010  214.4500  156.5250 C   0  0  0  0  0  2  0  0  0  0  0  0
  161.8370  207.3710  153.0280 C   0  0  1  0  0  3  0  0  0  0  0  0
  161.3300  206.2490  153.8690 N   0  0  0  0  0  0  0  0  0  0  0  0
  160.8730  206.4190  152.4840 C   0  0  2  0  0  3  0  0  0  0  0  0
  161.5900  205.4240  151.5960 C   0  0  0  0  0  2  0  0  0  0  0  0
  160.7760  205.0960  150.5130 O   0  0  0  0  0  1  0  0  0  0  0  0
  160.5540  206.5790  156.0320 F   0  0  0  0  0  0  0  0  0  0  0  0
  160.1790  206.5840  154.7030 C   0  0  0  0  0  2  0  0  0  0  0  0
  1 13  1  0  0  0  0
  2  5  1  0  0  0  0
  3 15  1  0  0  0  0
  4  6  1  0  0  0  0
  5 17  1  0  0  0  0
  5  7  1  0  0  0  0
  6  2  1  0  0  0  0
  6  9  1  0  0  0  0
  7  3  1  0  0  0  0
  8 12  1  0  0  0  0
  8  4  1  0  0  0  0
  9 17  1  0  0  0  0
 10  1  1  0  0  0  0
 11 23  1  0  0  0  0
 12 16  1  0  0  0  0
 13  9  1  0  0  0  0
 15 14  1  0  0  0  0
 16 11  1  0  0  0  0
 16  2  1  0  0  0  0
 17 22  1  0  0  0  0
 18  4  1  0  0  0  0
 18  1  1  0  0  0  0
 19  7  1  0  0  0  0
 19 25  1  0  0  0  0
 20  1  1  0  0  0  0
 21 15  1  0  0  0  0
 22 21  1  0  0  0  0
 23 19  1  0  0  0  0
 24 30  1  0  0  0  0
 25 26  1  0  0  0  0
 25 24  1  0  0  0  0
 26 29  1  0  0  0  0
 29 27  2  0  0  0  0
 29 28  1  0  0  0  0
 30 28  1  0  0  0  0
 31 22  1  0  0  0  0
 31 32  1  0  0  0  0
 32 37  1  0  0  0  0
 33 31  1  0  0  0  0
 33 32  1  0  0  0  0
 34 33  1  0  0  0  0
 35 34  1  0  0  0  0
 37 36  1  0  0  0  0
M  END
>  <MODEL>
3

>  <REMARK>
 VINA RESULT:      -4.8      3.093      8.270
  Name = 
  4 active torsions:
  status: ('A' for Active; 'I' for Inactive)
    1  A    between atoms: C_1  and  C_27
    2  A    between atoms: N_4  and  C_37
    3  A    between atoms: C_8  and  C_12
    4  A    between atoms: C_23  and  C_30
                            x       y       z     vdW  Elec       q    Type
                         _______ _______ _______ _____ _____    ______ ____

>  <TORSDO>
F 4

$$$$
=
 OpenBabel11122414013D

 37 43  0  0  1  0  0  0  0  0999 V2000
  161.5940  208.3620  148.3250 C   0  0  0  0  0  0  0  0  0  0  0  0
  161.6820  210.7750  151.2020 C   0  0  1  0  0  3  0  0  0  0  0  0
  161.5320  209.4750  154.3820 O   0  0  0  0  0  0  0  0  0  0  0  0
  162.5150  210.4220  148.7540 C   0  0  2  0  0  3  0  0  0  0  0  0
  161.0750  209.6110  151.9850 C   0  0  2  0  0  3  0  0  0  0  0  0
  162.6430  210.0590  150.2380 C   0  0  2  0  0  3  0  0  0  0  0  0
  160.5970  209.9030  153.4210 C   0  0  2  0  0  3  0  0  0  0  0  0
  162.3470  211.9260  148.6170 C   0  0  0  0  0  2  0  0  0  0  0  0
  162.4320  208.5650  150.4850 C   0  0  2  0  0  3  0  0  0  0  0  0
  162.8360  207.9050  147.8920 F   0  0  0  0  0  0  0  0  0  0  0  0
  159.8760  212.5320  151.4690 C   0  0  0  0  0  2  0  0  0  0  0  0
  161.0950  212.4490  149.3320 C   0  0  0  0  0  2  0  0  0  0  0  0
  161.3770  208.0540  149.6850 O   0  0  0  0  0  0  0  0  0  0  0  0
  159.8150  207.7480  155.0140 C   0  0  0  0  0  1  0  0  0  0  0  0
  161.2720  208.1210  154.7240 C   0  0  1  0  0  3  0  0  0  0  0  0
  160.5790  211.5880  150.4960 C   0  0  1  0  0  3  0  0  0  0  0  0
  162.0500  208.5270  151.8990 N   0  0  2  0  0  0  0  0  0  0  0  0
  161.4500  209.7510  148.1200 O   0  0  0  0  0  0  0  0  0  0  0  0
  160.1510  211.3600  153.6590 C   0  0  1  0  0  3  0  0  0  0  0  0
  160.6280  207.7150  147.5800 F   0  0  0  0  0  0  0  0  0  0  0  0
  161.9460  207.1620  153.8440 N   0  0  0  0  0  2  0  0  0  0  0  0
  161.5070  207.2710  152.4500 C   0  0  2  0  0  3  0  0  0  0  0  0
  159.1550  211.8050  152.5940 C   0  0  0  0  0  2  0  0  0  0  0  0
  158.2040  210.9050  155.2170 C   0  0  0  0  0  2  0  0  0  0  0  0
  159.5470  211.6100  155.0470 C   0  0  2  0  0  3  0  0  0  0  0  0
  159.4560  213.1010  155.3970 C   0  0  0  0  0  2  0  0  0  0  0  0
  158.7720  214.4450  157.2450 O   0  0  0  0  0  0  0  0  0  0  0  0
  157.7660  212.3490  157.1500 N   0  0  0  0  0  2  0  0  0  0  0  0
  158.6820  213.3350  156.6600 C   0  0  0  0  0  0  0  0  0  0  0  0
  157.7960  210.9680  156.6820 C   0  0  0  0  0  2  0  0  0  0  0  0
  162.0170  206.0130  151.7090 C   0  0  1  0  0  3  0  0  0  0  0  0
  161.5870  204.7070  152.2890 N   0  0  0  0  0  0  0  0  0  0  0  0
  160.9200  205.2630  151.1040 C   0  0  2  0  0  3  0  0  0  0  0  0
  161.4190  204.5450  149.8680 C   0  0  0  0  0  2  0  0  0  0  0  0
  160.9290  203.2400  149.8570 O   0  0  0  0  0  1  0  0  0  0  0  0
  159.9480  203.6110  153.5120 F   0  0  0  0  0  0  0  0  0  0  0  0
  160.6110  204.8130  153.3700 C   0  0  0  0  0  2  0  0  0  0  0  0
  1 13  1  0  0  0  0
  2  5  1  0  0  0  0
  3 15  1  0  0  0  0
  4  6  1  0  0  0  0
  5  7  1  0  0  0  0
  6  9  1  0  0  0  0
  6  2  1  0  0  0  0
  7 19  1  0  0  0  0
  7  3  1  0  0  0  0
  8  4  1  0  0  0  0
  8 12  1  0  0  0  0
  9 17  1  0  0  0  0
 10  1  1  0  0  0  0
 11 23  1  0  0  0  0
 12 16  1  0  0  0  0
 13  9  1  0  0  0  0
 15 14  1  0  0  0  0
 16  2  1  0  0  0  0
 16 11  1  0  0  0  0
 17  5  1  0  0  0  0
 17 22  1  0  0  0  0
 18  1  1  0  0  0  0
 18  4  1  0  0  0  0
 19 25  1  0  0  0  0
 20  1  1  0  0  0  0
 21 15  1  0  0  0  0
 22 21  1  0  0  0  0
 23 19  1  0  0  0  0
 24 30  1  0  0  0  0
 25 24  1  0  0  0  0
 25 26  1  0  0  0  0
 26 29  1  0  0  0  0
 29 28  1  0  0  0  0
 29 27  2  0  0  0  0
 30 28  1  0  0  0  0
 31 32  1  0  0  0  0
 31 22  1  0  0  0  0
 32 37  1  0  0  0  0
 33 31  1  0  0  0  0
 33 32  1  0  0  0  0
 34 33  1  0  0  0  0
 35 34  1  0  0  0  0
 37 36  1  0  0  0  0
M  END
>  <MODEL>
4

>  <REMARK>
 VINA RESULT:      -4.0      3.268      8.326
  Name = 
  4 active torsions:
  status: ('A' for Active; 'I' for Inactive)
    1  A    between atoms: C_1  and  C_27
    2  A    between atoms: N_4  and  C_37
    3  A    between atoms: C_8  and  C_12
    4  A    between atoms: C_23  and  C_30
                            x       y       z     vdW  Elec       q    Type
                         _______ _______ _______ _____ _____    ______ ____

>  <TORSDO>
F 4

$$$$
=
 OpenBabel11122414013D

 37 43  0  0  1  0  0  0  0  0999 V2000
  160.1930  210.8650  153.9040 C   0  0  0  0  0  0  0  0  0  0  0  0
  161.7370  207.7730  152.4330 C   0  0  1  0  0  3  0  0  0  0  0  0
  162.6120  207.8530  149.1080 O   0  0  0  0  0  0  0  0  0  0  0  0
  161.5100  209.1370  154.6470 C   0  0  2  0  0  3  0  0  0  0  0  0
  161.3030  208.3880  151.1020 C   0  0  2  0  0  3  0  0  0  0  0  0
  162.1360  209.0110  153.2530 C   0  0  2  0  0  3  0  0  0  0  0  0
  161.4590  207.5150  149.8420 C   0  0  2  0  0  3  0  0  0  0  0  0
  161.5340  207.7810  155.3320 C   0  0  0  0  0  2  0  0  0  0  0  0
  161.8110  210.2130  152.3660 C   0  0  2  0  0  3  0  0  0  0  0  0
  161.0910  211.7770  154.4540 F   0  0  0  0  0  0  0  0  0  0  0  0
  160.4590  205.5860  152.3950 C   0  0  0  0  0  2  0  0  0  0  0  0
  160.7440  206.7150  154.5640 C   0  0  0  0  0  2  0  0  0  0  0  0
  160.4650  210.6320  152.5400 O   0  0  0  0  0  0  0  0  0  0  0  0
  161.0230  208.7040  147.3530 C   0  0  0  0  0  1  0  0  0  0  0  0
  162.2980  208.8840  148.1820 C   0  0  1  0  0  3  0  0  0  0  0  0
  160.5860  206.9580  153.0540 C   0  0  1  0  0  3  0  0  0  0  0  0
  161.9940  209.6720  151.0180 N   0  0  2  0  0  0  0  0  0  0  0  0
  160.1950  209.6420  154.6090 O   0  0  0  0  0  0  0  0  0  0  0  0
  161.3640  205.9980  150.1020 C   0  0  1  0  0  3  0  0  0  0  0  0
  158.9290  211.4140  154.0010 F   0  0  0  0  0  0  0  0  0  0  0  0
  162.4320  210.2290  148.7470 N   0  0  0  0  0  2  0  0  0  0  0  0
  161.5170  210.4640  149.8680 C   0  0  2  0  0  3  0  0  0  0  0  0
  160.1190  205.6620  150.9140 C   0  0  0  0  0  2  0  0  0  0  0  0
  161.2990  203.6520  149.1460 C   0  0  0  0  0  2  0  0  0  0  0  0
  161.3810  205.1430  148.8290 C   0  0  2  0  0  3  0  0  0  0  0  0
  162.5660  205.4650  147.9090 C   0  0  0  0  0  2  0  0  0  0  0  0
  163.3920  204.7750  145.7810 O   0  0  0  0  0  0  0  0  0  0  0  0
  162.0780  203.1910  146.8670 N   0  0  0  0  0  2  0  0  0  0  0  0
  162.6820  204.4870  146.7780 C   0  0  0  0  0  0  0  0  0  0  0  0
  161.0500  202.8850  147.8550 C   0  0  0  0  0  2  0  0  0  0  0  0
  161.5080  211.9860  150.1420 C   0  0  1  0  0  3  0  0  0  0  0  0
  161.2370  212.8500  148.9560 N   0  0  0  0  0  0  0  0  0  0  0  0
  160.1820  212.5620  149.9370 C   0  0  2  0  0  3  0  0  0  0  0  0
  160.0050  213.7600  150.8470 C   0  0  0  0  0  2  0  0  0  0  0  0
  158.9370  213.5320  151.7130 O   0  0  0  0  0  1  0  0  0  0  0  0
  161.6070  212.5730  146.6820 F   0  0  0  0  0  0  0  0  0  0  0  0
  160.8530  212.1240  147.7490 C   0  0  0  0  0  2  0  0  0  0  0  0
  1 20  1  0  0  0  0
  1 10  1  0  0  0  0
  1 18  1  0  0  0  0
  2 16  1  0  0  0  0
  2  6  1  0  0  0  0
  3  7  1  0  0  0  0
  4  8  1  0  0  0  0
  5  2  1  0  0  0  0
  6  4  1  0  0  0  0
  7 19  1  0  0  0  0
  7  5  1  0  0  0  0
  9 13  1  0  0  0  0
  9  6  1  0  0  0  0
 11 16  1  0  0  0  0
 12  8  1  0  0  0  0
 13  1  1  0  0  0  0
 14 15  1  0  0  0  0
 15 21  1  0  0  0  0
 15  3  1  0  0  0  0
 16 12  1  0  0  0  0
 17  5  1  0  0  0  0
 17  9  1  0  0  0  0
 18  4  1  0  0  0  0
 19 23  1  0  0  0  0
 21 22  1  0  0  0  0
 22 31  1  0  0  0  0
 22 17  1  0  0  0  0
 23 11  1  0  0  0  0
 25 24  1  0  0  0  0
 25 19  1  0  0  0  0
 26 25  1  0  0  0  0
 27 29  2  0  0  0  0
 28 30  1  0  0  0  0
 29 28  1  0  0  0  0
 29 26  1  0  0  0  0
 30 24  1  0  0  0  0
 32 33  1  0  0  0  0
 32 31  1  0  0  0  0
 33 31  1  0  0  0  0
 33 34  1  0  0  0  0
 34 35  1  0  0  0  0
 36 37  1  0  0  0  0
 37 32  1  0  0  0  0
M  END
>  <MODEL>
5

>  <REMARK>
 VINA RESULT:      -3.0      1.402      1.624
  Name = 
  4 active torsions:
  status: ('A' for Active; 'I' for Inactive)
    1  A    between atoms: C_1  and  C_27
    2  A    between atoms: N_4  and  C_37
    3  A    between atoms: C_8  and  C_12
    4  A    between atoms: C_23  and  C_30
                            x       y       z     vdW  Elec       q    Type
                         _______ _______ _______ _____ _____    ______ ____

>  <TORSDO>
F 4

$$$$
=
 OpenBabel11122414013D

 37 43  0  0  1  0  0  0  0  0999 V2000
  158.0940  211.9770  156.1970 C   0  0  0  0  0  0  0  0  0  0  0  0
  158.1680  212.2100  152.4490 C   0  0  1  0  0  3  0  0  0  0  0  0
  160.6810  210.5450  150.7950 O   0  0  0  0  0  0  0  0  0  0  0  0
  156.5600  212.2150  154.5050 C   0  0  2  0  0  3  0  0  0  0  0  0
  159.6290  211.7920  152.6150 C   0  0  2  0  0  3  0  0  0  0  0  0
  157.4680  211.4160  153.5640 C   0  0  2  0  0  3  0  0  0  0  0  0
  160.5160  211.8260  151.3560 C   0  0  2  0  0  3  0  0  0  0  0  0
  155.7310  213.1950  153.6900 C   0  0  0  0  0  2  0  0  0  0  0  0
  158.5870  210.6970  154.3190 C   0  0  2  0  0  3  0  0  0  0  0  0
  157.3480  210.9200  156.7140 F   0  0  0  0  0  0  0  0  0  0  0  0
  158.4350  214.4530  151.3010 C   0  0  0  0  0  2  0  0  0  0  0  0
  156.5930  214.1970  152.9140 C   0  0  0  0  0  2  0  0  0  0  0  0
  159.1220  211.5160  155.3480 O   0  0  0  0  0  0  0  0  0  0  0  0
  163.0820  210.7370  151.5220 C   0  0  0  0  0  1  0  0  0  0  0  0
  161.8010  209.9070  151.3930 C   0  0  1  0  0  3  0  0  0  0  0  0
  158.0230  213.7390  152.5860 C   0  0  1  0  0  3  0  0  0  0  0  0
  159.5930  210.4890  153.2740 N   0  0  2  0  0  0  0  0  0  0  0  0
  157.2790  212.8990  155.5050 O   0  0  0  0  0  0  0  0  0  0  0  0
  160.0870  212.8660  150.3020 C   0  0  1  0  0  3  0  0  0  0  0  0
  158.6790  212.6350  157.2610 F   0  0  0  0  0  0  0  0  0  0  0  0
  161.4640  209.1760  152.6180 N   0  0  0  0  0  2  0  0  0  0  0  0
  160.9440  210.0510  153.6720 C   0  0  2  0  0  3  0  0  0  0  0  0
  159.8960  214.2380  150.9380 C   0  0  0  0  0  2  0  0  0  0  0  0
  161.7450  214.3520  149.0900 C   0  0  0  0  0  2  0  0  0  0  0  0
  161.0530  212.9910  149.1170 C   0  0  2  0  0  3  0  0  0  0  0  0
  160.3920  212.6620  147.7720 C   0  0  0  0  0  2  0  0  0  0  0  0
  161.0290  212.5020  145.4800 O   0  0  0  0  0  0  0  0  0  0  0  0
  162.3640  213.9160  146.7570 N   0  0  0  0  0  2  0  0  0  0  0  0
  161.2850  212.9860  146.6120 C   0  0  0  0  0  0  0  0  0  0  0  0
  162.8700  214.3120  148.0660 C   0  0  0  0  0  2  0  0  0  0  0  0
  160.9550  209.2390  154.9890 C   0  0  1  0  0  3  0  0  0  0  0  0
  162.0980  209.5190  155.9060 N   0  0  0  0  0  0  0  0  0  0  0  0
  160.7730  210.1000  156.1530 C   0  0  2  0  0  3  0  0  0  0  0  0
  160.0840  209.3230  157.2550 C   0  0  0  0  0  2  0  0  0  0  0  0
  160.0300  207.9730  156.9100 O   0  0  0  0  0  1  0  0  0  0  0  0
  163.8920  210.8770  156.4760 F   0  0  0  0  0  0  0  0  0  0  0  0
  162.9450  210.6370  155.5000 C   0  0  0  0  0  2  0  0  0  0  0  0
  1 10  1  0  0  0  0
  1 20  1  0  0  0  0
  2 16  1  0  0  0  0
  2  5  1  0  0  0  0
  2  6  1  0  0  0  0
  3  7  1  0  0  0  0
  3 15  1  0  0  0  0
  4 18  1  0  0  0  0
  5 17  1  0  0  0  0
  6  9  1  0  0  0  0
  6  4  1  0  0  0  0
  7  5  1  0  0  0  0
  8  4  1  0  0  0  0
  9 13  1  0  0  0  0
 11 16  1  0  0  0  0
 12  8  1  0  0  0  0
 13  1  1  0  0  0  0
 15 14  1  0  0  0  0
 15 21  1  0  0  0  0
 16 12  1  0  0  0  0
 17 22  1  0  0  0  0
 17  9  1  0  0  0  0
 18  1  1  0  0  0  0
 19 23  1  0  0  0  0
 19  7  1  0  0  0  0
 21 22  1  0  0  0  0
 22 31  1  0  0  0  0
 23 11  1  0  0  0  0
 24 25  1  0  0  0  0
 25 19  1  0  0  0  0
 26 25  1  0  0  0  0
 27 29  2  0  0  0  0
 28 30  1  0  0  0  0
 29 28  1  0  0  0  0
 29 26  1  0  0  0  0
 30 24  1  0  0  0  0
 31 32  1  0  0  0  0
 31 33  1  0  0  0  0
 32 33  1  0  0  0  0
 33 34  1  0  0  0  0
 35 34  1  0  0  0  0
 37 32  1  0  0  0  0
 37 36  1  0  0  0  0
M  END
>  <MODEL>
6

>  <REMARK>
 VINA RESULT:      -2.1      3.997      6.298
  Name = 
  4 active torsions:
  status: ('A' for Active; 'I' for Inactive)
    1  A    between atoms: C_1  and  C_27
    2  A    between atoms: N_4  and  C_37
    3  A    between atoms: C_8  and  C_12
    4  A    between atoms: C_23  and  C_30
                            x       y       z     vdW  Elec       q    Type
                         _______ _______ _______ _____ _____    ______ ____

>  <TORSDO>
F 4

$$$$
