=
 OpenBabel11122412493D

 32 37  0  0  1  0  0  0  0  0999 V2000
  159.6420  212.8560  147.9310 C   0  0  0  0  0  2  0  0  0  0  0  0
  160.5640  210.7720  152.5480 C   0  0  1  0  0  3  0  0  0  0  0  0
  161.9370  206.0540  151.7990 C   0  0  0  0  0  3  0  0  0  0  0  0
  161.7220  205.7900  153.1520 C   0  0  0  0  0  3  0  0  0  0  0  0
  159.3040  211.4080  154.5880 N   0  0  0  0  0  0  0  0  0  0  0  0
  159.8020  211.3350  155.9730 C   0  0  2  0  0  3  0  0  0  0  0  0
  160.9390  212.4960  150.7820 C   0  0  1  0  0  3  0  0  0  0  0  0
  161.7260  210.1360  150.4240 C   0  0  0  0  0  2  0  0  0  0  0  0
  162.0610  211.4390  156.7180 C   0  0  0  0  0  0  0  0  0  0  0  0
  162.2700  211.9090  148.3830 S   0  0  0  0  0  0  0  0  0  0  0  0
  161.6460  207.3180  151.2810 C   0  0  0  0  0  3  0  0  0  0  0  0
  160.7490  209.6620  151.5030 C   0  0  1  0  0  3  0  0  0  0  0  0
  161.1580  208.3390  152.1120 C   0  0  0  0  0  0  0  0  0  0  0  0
  160.3890  209.0990  154.4220 C   0  0  1  0  0  3  0  0  0  0  0  0
  161.5710  212.6510  157.2610 N   0  0  0  0  0  0  0  0  0  0  0  0
  159.3010  213.6840  149.1770 C   0  0  0  0  0  2  0  0  0  0  0  0
  161.1690  211.3830  149.7450 C   0  0  2  0  0  3  0  0  0  0  0  0
  159.9270  213.0060  156.7180 S   0  0  0  0  0  0  0  0  0  0  0  0
  160.4560  213.8180  150.1780 C   0  0  0  0  0  2  0  0  0  0  0  0
  161.1000  213.0190  147.4890 C   0  0  1  0  0  3  0  0  0  0  0  0
  161.2110  206.7860  153.9860 C   0  0  0  0  0  3  0  0  0  0  0  0
  160.9120  208.0560  153.4750 C   0  0  0  0  0  0  0  0  0  0  0  0
  161.4710  209.6040  155.2530 N   0  0  0  0  0  0  0  0  0  0  0  0
  159.9820  212.0140  151.8690 C   0  0  0  0  0  2  0  0  0  0  0  0
  157.8520  211.4100  154.6570 C   0  0  0  0  0  1  0  0  0  0  0  0
  163.4840  211.0290  156.8710 C   0  0  0  0  0  1  0  0  0  0  0  0
  159.6820  210.2780  153.6980 C   0  0  2  0  0  3  0  0  0  0  0  0
  161.1710  210.7570  156.0260 C   0  0  0  0  0  0  0  0  0  0  0  0
  161.2280  212.7660  145.9950 C   0  0  0  0  0  2  0  0  0  0  0  0
  162.3750  213.5280  145.4210 C   0  0  0  0  0  0  0  0  0  0  0  0
  163.0560  214.4530  146.2010 O   0  0  0  0  0  1  0  0  0  0  0  0
  162.7620  213.3040  144.1740 C   0  0  0  0  0  2  0  0  0  0  0  0
  1 16  1  0  0  0  0
  2 24  1  6  0  0  0
  2 27  1  0  0  0  0
  3  4  1  0  0  0  0
  4 21  2  0  0  0  0
  5 25  1  0  0  0  0
  5  6  1  0  0  0  0
  6 28  1  6  0  0  0
  6 18  1  0  0  0  0
  7 19  1  6  0  0  0
  7 24  1  0  0  0  0
  9 26  1  0  0  0  0
  9 15  2  0  0  0  0
 10 17  1  0  0  0  0
 11  3  2  0  0  0  0
 11 13  1  0  0  0  0
 12  8  1  6  0  0  0
 12 13  1  0  0  0  0
 12  2  1  0  0  0  0
 13 22  2  0  0  0  0
 14 22  1  6  0  0  0
 14 23  1  0  0  0  0
 16 19  1  0  0  0  0
 17  8  1  1  0  0  0
 17  7  1  0  0  0  0
 18 15  1  0  0  0  0
 20 29  1  6  0  0  0
 20  1  1  0  0  0  0
 20 10  1  0  0  0  0
 22 21  1  0  0  0  0
 23 28  2  0  0  0  0
 27 14  1  0  0  0  0
 27  5  1  1  0  0  0
 28  9  1  0  0  0  0
 30 29  1  0  0  0  0
 30 31  1  0  0  0  0
 32 30  2  0  0  0  0
M  END
>  <MODEL>
1

>  <REMARK>
 VINA RESULT:      -3.8      0.000      0.000
  Name = 
  2 active torsions:
  status: ('A' for Active; 'I' for Inactive)
    1  A    between atoms: C_20  and  C_29
    2  A    between atoms: C_29  and  C_30
                            x       y       z     vdW  Elec       q    Type
                         _______ _______ _______ _____ _____    ______ ____

>  <TORSDO>
F 2

$$$$
=
 OpenBabel11122412493D

 32 37  0  0  1  0  0  0  0  0999 V2000
  162.3900  204.0430  150.9780 C   0  0  0  0  0  2  0  0  0  0  0  0
  160.9810  208.8890  151.9960 C   0  0  1  0  0  3  0  0  0  0  0  0
  161.9890  211.6080  147.9590 C   0  0  0  0  0  3  0  0  0  0  0  0
  161.8480  212.7690  148.7200 C   0  0  0  0  0  3  0  0  0  0  0  0
  161.1420  209.8900  154.2600 N   0  0  0  0  0  0  0  0  0  0  0  0
  160.3040  210.9820  154.7880 C   0  0  2  0  0  3  0  0  0  0  0  0
  160.5180  206.4450  151.7940 C   0  0  1  0  0  3  0  0  0  0  0  0
  160.9310  207.8220  149.7320 C   0  0  0  0  0  2  0  0  0  0  0  0
  158.0940  211.5730  154.1260 C   0  0  0  0  0  0  0  0  0  0  0  0
  160.3920  205.1510  149.3080 S   0  0  0  0  0  0  0  0  0  0  0  0
  161.8830  210.3560  148.5690 C   0  0  0  0  0  3  0  0  0  0  0  0
  161.6150  208.8850  150.5970 C   0  0  1  0  0  3  0  0  0  0  0  0
  161.6140  210.2480  149.9430 C   0  0  0  0  0  0  0  0  0  0  0  0
  161.2180  211.3890  152.1900 C   0  0  1  0  0  3  0  0  0  0  0  0
  157.8400  211.1250  155.4450 N   0  0  0  0  0  0  0  0  0  0  0  0
  161.9420  204.3790  152.4060 C   0  0  0  0  0  2  0  0  0  0  0  0
  161.1110  206.4500  150.3750 C   0  0  2  0  0  3  0  0  0  0  0  0
  159.2720  210.4020  156.1880 S   0  0  0  0  0  0  0  0  0  0  0  0
  160.5800  205.0810  152.4890 C   0  0  0  0  0  2  0  0  0  0  0  0
  161.2210  203.6830  150.0550 C   0  0  1  0  0  3  0  0  0  0  0  0
  161.6070  212.6790  150.0920 C   0  0  0  0  0  3  0  0  0  0  0  0
  161.5040  211.4280  150.7150 C   0  0  0  0  0  0  0  0  0  0  0  0
  159.8210  211.7120  152.4350 N   0  0  0  0  0  0  0  0  0  0  0  0
  161.1850  207.5200  152.6490 C   0  0  0  0  0  2  0  0  0  0  0  0
  162.3580  209.8660  155.0560 C   0  0  0  0  0  1  0  0  0  0  0  0
  156.9990  212.0360  153.2300 C   0  0  0  0  0  1  0  0  0  0  0  0
  161.5690  210.0230  152.8420 C   0  0  2  0  0  3  0  0  0  0  0  0
  159.3550  211.4820  153.7570 C   0  0  0  0  0  0  0  0  0  0  0  0
  161.6930  202.7650  148.9400 C   0  0  0  0  0  2  0  0  0  0  0  0
  160.9310  201.4830  148.9440 C   0  0  0  0  0  0  0  0  0  0  0  0
  161.3770  200.4070  148.1880 O   0  0  0  0  0  1  0  0  0  0  0  0
  159.8430  201.3600  149.6890 C   0  0  0  0  0  2  0  0  0  0  0  0
  1 16  1  0  0  0  0
  2 24  1  1  0  0  0
  2 27  1  0  0  0  0
  3 11  2  0  0  0  0
  3  4  1  0  0  0  0
  4 21  2  0  0  0  0
  5  6  1  0  0  0  0
  5 25  1  0  0  0  0
  6 28  1  6  0  0  0
  6 18  1  0  0  0  0
  7 19  1  1  0  0  0
  7 24  1  0  0  0  0
  9 15  2  0  0  0  0
 10 20  1  0  0  0  0
 10 17  1  0  0  0  0
 11 13  1  0  0  0  0
 12  8  1  6  0  0  0
 12  2  1  0  0  0  0
 13 12  1  0  0  0  0
 13 22  2  0  0  0  0
 14 22  1  6  0  0  0
 14 23  1  0  0  0  0
 14 27  1  0  0  0  0
 15 18  1  0  0  0  0
 16 19  1  0  0  0  0
 17  8  1  6  0  0  0
 17  7  1  0  0  0  0
 20 29  1  6  0  0  0
 20  1  1  0  0  0  0
 21 22  1  0  0  0  0
 23 28  2  0  0  0  0
 26  9  1  0  0  0  0
 27  5  1  1  0  0  0
 28  9  1  0  0  0  0
 29 30  1  0  0  0  0
 30 32  2  0  0  0  0
 31 30  1  0  0  0  0
M  END
>  <MODEL>
2

>  <REMARK>
 VINA RESULT:      -3.4      3.548      6.982
  Name = 
  2 active torsions:
  status: ('A' for Active; 'I' for Inactive)
    1  A    between atoms: C_20  and  C_29
    2  A    between atoms: C_29  and  C_30
                            x       y       z     vdW  Elec       q    Type
                         _______ _______ _______ _____ _____    ______ ____

>  <TORSDO>
F 2

$$$$
=
 OpenBabel11122412493D

 32 37  0  0  1  0  0  0  0  0999 V2000
  162.3630  206.4490  153.6960 C   0  0  0  0  0  2  0  0  0  0  0  0
  159.7310  210.8740  153.6870 C   0  0  1  0  0  3  0  0  0  0  0  0
  160.8510  213.2590  149.4720 C   0  0  0  0  0  3  0  0  0  0  0  0
  160.3100  214.4300  150.0040 C   0  0  0  0  0  3  0  0  0  0  0  0
  159.2280  212.1460  155.7570 N   0  0  0  0  0  0  0  0  0  0  0  0
  158.0810  213.0470  155.9640 C   0  0  2  0  0  3  0  0  0  0  0  0
  159.8780  208.3860  153.8110 C   0  0  1  0  0  3  0  0  0  0  0  0
  160.3550  209.5670  151.6450 C   0  0  0  0  0  2  0  0  0  0  0  0
  155.9620  212.9840  154.8790 C   0  0  0  0  0  0  0  0  0  0  0  0
  160.5220  206.8150  151.5780 S   0  0  0  0  0  0  0  0  0  0  0  0
  160.9150  212.1020  150.2520 C   0  0  0  0  0  3  0  0  0  0  0  0
  160.6040  210.8630  152.4230 C   0  0  1  0  0  3  0  0  0  0  0  0
  160.4210  212.0950  151.5660 C   0  0  0  0  0  0  0  0  0  0  0  0
  159.3580  213.3580  153.5100 C   0  0  1  0  0  3  0  0  0  0  0  0
  155.5690  212.6460  156.1960 N   0  0  0  0  0  0  0  0  0  0  0  0
  161.5870  206.8300  154.9630 C   0  0  0  0  0  2  0  0  0  0  0  0
  160.7140  208.3710  152.5210 C   0  0  2  0  0  3  0  0  0  0  0  0
  156.9590  212.3990  157.2610 S   0  0  0  0  0  0  0  0  0  0  0  0
  160.1120  207.1740  154.7180 C   0  0  0  0  0  2  0  0  0  0  0  0
  161.5020  205.7010  152.6720 C   0  0  1  0  0  3  0  0  0  0  0  0
  159.8390  214.4460  151.3180 C   0  0  0  0  0  3  0  0  0  0  0  0
  159.9030  213.2930  152.1110 C   0  0  0  0  0  0  0  0  0  0  0  0
  157.9030  213.3490  153.4780 N   0  0  0  0  0  0  0  0  0  0  0  0
  160.1100  209.6880  154.5750 C   0  0  0  0  0  2  0  0  0  0  0  0
  160.2440  212.5210  156.7260 C   0  0  0  0  0  1  0  0  0  0  0  0
  154.9830  213.0480  153.7590 C   0  0  0  0  0  1  0  0  0  0  0  0
  159.8760  212.2120  154.4200 C   0  0  2  0  0  3  0  0  0  0  0  0
  157.2590  213.1690  154.7300 C   0  0  0  0  0  0  0  0  0  0  0  0
  162.3730  204.8050  151.8070 C   0  0  0  0  0  2  0  0  0  0  0  0
  161.5520  203.7720  151.1120 C   0  0  0  0  0  0  0  0  0  0  0  0
  161.2660  203.9050  149.7600 O   0  0  0  0  0  1  0  0  0  0  0  0
  161.1180  202.7120  151.7780 C   0  0  0  0  0  2  0  0  0  0  0  0
  1 16  1  0  0  0  0
  2 27  1  0  0  0  0
  2 24  1  1  0  0  0
  3  4  2  0  0  0  0
  3 11  1  0  0  0  0
  4 21  1  0  0  0  0
  5  6  1  0  0  0  0
  5 25  1  0  0  0  0
  6 28  1  6  0  0  0
  6 18  1  0  0  0  0
  7 24  1  1  0  0  0
  7 19  1  0  0  0  0
  9 15  2  0  0  0  0
 10 17  1  0  0  0  0
 10 20  1  0  0  0  0
 11 13  2  0  0  0  0
 12  8  1  6  0  0  0
 12  2  1  0  0  0  0
 13 22  1  0  0  0  0
 13 12  1  0  0  0  0
 14 22  1  6  0  0  0
 14 27  1  0  0  0  0
 15 18  1  0  0  0  0
 17  8  1  6  0  0  0
 17  7  1  0  0  0  0
 19 16  1  0  0  0  0
 20 29  1  6  0  0  0
 20  1  1  0  0  0  0
 21 22  2  0  0  0  0
 23 14  1  0  0  0  0
 23 28  2  0  0  0  0
 26  9  1  0  0  0  0
 27  5  1  1  0  0  0
 28  9  1  0  0  0  0
 30 32  2  0  0  0  0
 30 29  1  0  0  0  0
 31 30  1  0  0  0  0
M  END
>  <MODEL>
3

>  <REMARK>
 VINA RESULT:      -2.9      3.123      6.841
  Name = 
  2 active torsions:
  status: ('A' for Active; 'I' for Inactive)
    1  A    between atoms: C_20  and  C_29
    2  A    between atoms: C_29  and  C_30
                            x       y       z     vdW  Elec       q    Type
                         _______ _______ _______ _____ _____    ______ ____

>  <TORSDO>
F 2

$$$$
=
 OpenBabel11122412493D

 32 37  0  0  1  0  0  0  0  0999 V2000
  162.0000  203.1890  151.2610 C   0  0  0  0  0  2  0  0  0  0  0  0
  160.9900  208.1680  152.0960 C   0  0  1  0  0  3  0  0  0  0  0  0
  162.2720  210.6510  147.9850 C   0  0  0  0  0  3  0  0  0  0  0  0
  162.2200  211.8460  148.7050 C   0  0  0  0  0  3  0  0  0  0  0  0
  161.2060  209.2300  154.3270 N   0  0  0  0  0  0  0  0  0  0  0  0
  160.4570  210.4050  154.8050 C   0  0  2  0  0  3  0  0  0  0  0  0
  160.3260  205.7650  151.9680 C   0  0  1  0  0  3  0  0  0  0  0  0
  160.8790  207.0310  149.8680 C   0  0  0  0  0  2  0  0  0  0  0  0
  158.3120  211.1550  154.0900 C   0  0  0  0  0  0  0  0  0  0  0  0
  160.1220  204.4010  149.5250 S   0  0  0  0  0  0  0  0  0  0  0  0
  162.0540  209.4350  148.6360 C   0  0  0  0  0  3  0  0  0  0  0  0
  161.6390  208.0620  150.7070 C   0  0  1  0  0  3  0  0  0  0  0  0
  161.7600  209.3980  150.0080 C   0  0  0  0  0  0  0  0  0  0  0  0
  161.4340  210.6440  152.2100 C   0  0  1  0  0  3  0  0  0  0  0  0
  158.0050  210.7760  155.4190 N   0  0  0  0  0  0  0  0  0  0  0  0
  161.5630  203.6100  152.6700 C   0  0  0  0  0  2  0  0  0  0  0  0
  160.9350  205.6720  150.5590 C   0  0  2  0  0  3  0  0  0  0  0  0
  159.3620  209.9620  156.2080 S   0  0  0  0  0  0  0  0  0  0  0  0
  160.2650  204.4260  152.7090 C   0  0  0  0  0  2  0  0  0  0  0  0
  160.8160  202.8960  150.3340 C   0  0  1  0  0  3  0  0  0  0  0  0
  161.9560  211.8240  150.0760 C   0  0  0  0  0  3  0  0  0  0  0  0
  161.7410  210.6090  150.7390 C   0  0  0  0  0  0  0  0  0  0  0  0
  160.0660  211.0910  152.4220 N   0  0  0  0  0  0  0  0  0  0  0  0
  161.0700  206.8100  152.7970 C   0  0  0  0  0  2  0  0  0  0  0  0
  162.4060  209.1310  155.1420 C   0  0  0  0  0  1  0  0  0  0  0  0
  157.2720  211.6770  153.1620 C   0  0  0  0  0  1  0  0  0  0  0  0
  161.6610  209.2770  152.9120 C   0  0  2  0  0  3  0  0  0  0  0  0
  159.5660  210.9470  153.7430 C   0  0  0  0  0  0  0  0  0  0  0  0
  161.2230  201.9040  149.2570 C   0  0  0  0  0  2  0  0  0  0  0  0
  161.2060  202.5410  147.9090 C   0  0  0  0  0  0  0  0  0  0  0  0
  161.9560  203.6850  147.6700 O   0  0  0  0  0  1  0  0  0  0  0  0
  160.4960  202.0010  146.9290 C   0  0  0  0  0  2  0  0  0  0  0  0
  1 16  1  0  0  0  0
  2 24  1  1  0  0  0
  2 27  1  0  0  0  0
  3 11  2  0  0  0  0
  3  4  1  0  0  0  0
  4 21  2  0  0  0  0
  5  6  1  0  0  0  0
  5 25  1  0  0  0  0
  6 28  1  6  0  0  0
  6 18  1  0  0  0  0
  7 19  1  1  0  0  0
  7 24  1  0  0  0  0
  9 15  2  0  0  0  0
 10 20  1  0  0  0  0
 10 17  1  0  0  0  0
 11 13  1  0  0  0  0
 12  8  1  6  0  0  0
 12  2  1  0  0  0  0
 13 12  1  0  0  0  0
 13 22  2  0  0  0  0
 14 22  1  6  0  0  0
 14 23  1  0  0  0  0
 14 27  1  0  0  0  0
 15 18  1  0  0  0  0
 16 19  1  0  0  0  0
 17  8  1  6  0  0  0
 17  7  1  0  0  0  0
 20 29  1  6  0  0  0
 20  1  1  0  0  0  0
 21 22  1  0  0  0  0
 23 28  2  0  0  0  0
 26  9  1  0  0  0  0
 27  5  1  1  0  0  0
 28  9  1  0  0  0  0
 30 29  1  0  0  0  0
 31 30  1  0  0  0  0
 32 30  2  0  0  0  0
M  END
>  <MODEL>
4

>  <REMARK>
 VINA RESULT:      -2.6      3.365      6.812
  Name = 
  2 active torsions:
  status: ('A' for Active; 'I' for Inactive)
    1  A    between atoms: C_20  and  C_29
    2  A    between atoms: C_29  and  C_30
                            x       y       z     vdW  Elec       q    Type
                         _______ _______ _______ _____ _____    ______ ____

>  <TORSDO>
F 2

$$$$
=
 OpenBabel11122412493D

 32 37  0  0  1  0  0  0  0  0999 V2000
  162.6380  205.0510  148.6930 C   0  0  0  0  0  2  0  0  0  0  0  0
  161.2360  209.7480  150.2690 C   0  0  1  0  0  3  0  0  0  0  0  0
  162.7050  212.9800  146.7910 C   0  0  0  0  0  3  0  0  0  0  0  0
  162.5130  214.0240  147.6960 C   0  0  0  0  0  3  0  0  0  0  0  0
  161.1880  210.4070  152.6600 N   0  0  0  0  0  0  0  0  0  0  0  0
  160.3250  211.4410  153.2580 C   0  0  2  0  0  3  0  0  0  0  0  0
  160.7440  207.3760  149.6670 C   0  0  1  0  0  3  0  0  0  0  0  0
  161.3940  209.0190  147.8790 C   0  0  0  0  0  2  0  0  0  0  0  0
  158.2060  212.2000  152.4780 C   0  0  0  0  0  0  0  0  0  0  0  0
  160.8430  206.4580  147.0180 S   0  0  0  0  0  0  0  0  0  0  0  0
  162.5120  211.6590  147.1980 C   0  0  0  0  0  3  0  0  0  0  0  0
  162.0090  209.9220  148.9520 C   0  0  1  0  0  3  0  0  0  0  0  0
  162.1030  211.3640  148.5090 C   0  0  0  0  0  0  0  0  0  0  0  0
  161.5060  212.1840  150.8490 C   0  0  1  0  0  3  0  0  0  0  0  0
  157.8100  211.5760  153.6860 N   0  0  0  0  0  0  0  0  0  0  0  0
  162.0540  205.1940  150.1050 C   0  0  0  0  0  2  0  0  0  0  0  0
  161.4780  207.5640  148.3290 C   0  0  2  0  0  3  0  0  0  0  0  0
  159.1440  210.7030  154.4510 S   0  0  0  0  0  0  0  0  0  0  0  0
  160.7060  205.9260  150.1570 C   0  0  0  0  0  2  0  0  0  0  0  0
  161.5600  204.8700  147.6190 C   0  0  1  0  0  3  0  0  0  0  0  0
  162.1330  213.7470  149.0110 C   0  0  0  0  0  3  0  0  0  0  0  0
  161.9410  212.4240  149.4310 C   0  0  0  0  0  0  0  0  0  0  0  0
  160.0980  212.5180  151.0020 N   0  0  0  0  0  0  0  0  0  0  0  0
  161.3440  208.2930  150.7310 C   0  0  0  0  0  2  0  0  0  0  0  0
  162.3170  210.2250  153.5580 C   0  0  0  0  0  1  0  0  0  0  0  0
  157.2180  212.8260  151.5570 C   0  0  0  0  0  1  0  0  0  0  0  0
  161.7590  210.7270  151.3250 C   0  0  2  0  0  3  0  0  0  0  0  0
  159.4960  212.1180  152.2240 C   0  0  0  0  0  0  0  0  0  0  0  0
  162.1230  204.1050  146.4320 C   0  0  0  0  0  2  0  0  0  0  0  0
  161.0470  203.3640  145.7140 C   0  0  0  0  0  0  0  0  0  0  0  0
  160.4080  203.9460  144.6270 O   0  0  0  0  0  1  0  0  0  0  0  0
  160.7160  202.1390  146.0950 C   0  0  0  0  0  2  0  0  0  0  0  0
  1 16  1  0  0  0  0
  2 24  1  1  0  0  0
  2 27  1  0  0  0  0
  3 11  2  0  0  0  0
  3  4  1  0  0  0  0
  4 21  2  0  0  0  0
  5  6  1  0  0  0  0
  5 25  1  0  0  0  0
  6 28  1  6  0  0  0
  6 18  1  0  0  0  0
  7 19  1  1  0  0  0
  7 24  1  0  0  0  0
  9 15  2  0  0  0  0
 10 20  1  0  0  0  0
 10 17  1  0  0  0  0
 11 13  1  0  0  0  0
 12  8  1  6  0  0  0
 12  2  1  0  0  0  0
 13 12  1  0  0  0  0
 13 22  2  0  0  0  0
 14 22  1  6  0  0  0
 14 23  1  0  0  0  0
 14 27  1  0  0  0  0
 15 18  1  0  0  0  0
 16 19  1  0  0  0  0
 17  8  1  6  0  0  0
 17  7  1  0  0  0  0
 20 29  1  6  0  0  0
 20  1  1  0  0  0  0
 21 22  1  0  0  0  0
 23 28  2  0  0  0  0
 26  9  1  0  0  0  0
 27  5  1  1  0  0  0
 28  9  1  0  0  0  0
 30 32  2  0  0  0  0
 30 29  1  0  0  0  0
 31 30  1  0  0  0  0
M  END
>  <MODEL>
5

>  <REMARK>
 VINA RESULT:      -0.8      3.603      6.698
  Name = 
  2 active torsions:
  status: ('A' for Active; 'I' for Inactive)
    1  A    between atoms: C_20  and  C_29
    2  A    between atoms: C_29  and  C_30
                            x       y       z     vdW  Elec       q    Type
                         _______ _______ _______ _____ _____    ______ ____

>  <TORSDO>
F 2

$$$$
