=
 OpenBabel11122413553D

 37 43  0  0  1  0  0  0  0  0999 V2000
  162.5310  205.7060  147.1960 C   0  0  0  0  0  0  0  0  0  0  0  0
  160.7010  205.9260  150.5770 N   0  0  1  0  0  0  0  0  0  0  0  0
  160.3230  208.7890  152.1420 O   0  0  0  0  0  0  0  0  0  0  0  0
  160.7250  204.7640  148.2730 C   0  0  2  0  0  3  0  0  0  0  0  0
  161.4900  207.1450  150.8360 C   0  0  2  0  0  3  0  0  0  0  0  0
  160.4420  206.0190  149.1200 C   0  0  2  0  0  3  0  0  0  0  0  0
  161.2700  207.7560  152.2250 C   0  0  2  0  0  3  0  0  0  0  0  0
  160.2340  203.5640  149.0450 C   0  0  0  0  0  2  0  0  0  0  0  0
  161.1180  207.2780  148.5990 C   0  0  2  0  0  3  0  0  0  0  0  0
  161.7390  205.8850  146.0690 F   0  0  0  0  0  0  0  0  0  0  0  0
  161.4050  204.4900  152.4850 C   0  0  0  0  0  2  0  0  0  0  0  0
  161.0040  203.4210  150.3520 C   0  0  0  0  0  2  0  0  0  0  0  0
  162.5280  206.9620  148.0580 C   0  0  0  0  0  2  0  0  0  0  0  0
  162.4670  210.1790  152.0450 C   0  0  0  0  0  2  0  0  0  0  0  0
  160.9450  210.0710  152.1150 C   0  0  1  0  0  3  0  0  0  0  0  0
  161.4970  204.7400  150.9780 C   0  0  1  0  0  3  0  0  0  0  0  0
  161.1590  208.1200  149.7920 N   0  0  2  0  0  0  0  0  0  0  0  0
  162.0940  204.6070  147.9630 O   0  0  0  0  0  0  0  0  0  0  0  0
  160.9360  206.7660  153.3380 C   0  0  1  0  0  3  0  0  0  0  0  0
  163.8270  205.4690  146.7830 F   0  0  0  0  0  0  0  0  0  0  0  0
  161.6570  210.3740  150.7760 C   0  0  2  0  0  3  0  0  0  0  0  0
  162.1010  209.2600  149.7970 C   0  0  2  0  0  3  0  0  0  0  0  0
  161.9370  205.6230  153.3410 C   0  0  0  0  0  2  0  0  0  0  0  0
  160.0570  206.9700  155.6690 C   0  0  0  0  0  3  0  0  0  0  0  0
  160.9200  207.4450  154.6740 C   0  0  0  0  0  0  0  0  0  0  0  0
  161.7410  208.5520  154.9400 C   0  0  0  0  0  3  0  0  0  0  0  0
  162.5690  210.3450  156.4670 C   0  0  0  0  0  1  0  0  0  0  0  0
  160.8360  208.6940  157.1810 C   0  0  0  0  0  3  0  0  0  0  0  0
  161.6990  209.1740  156.1910 C   0  0  0  0  0  0  0  0  0  0  0  0
  160.0160  207.5930  156.9200 C   0  0  0  0  0  3  0  0  0  0  0  0
  162.2140  209.9190  148.4130 C   0  0  0  0  0  2  0  0  0  0  0  0
  162.0320  211.4410  148.4480 C   0  0  1  0  0  3  0  0  0  0  0  0
  163.1330  212.7370  146.7700 O   0  0  0  0  0  1  0  0  0  0  0  0
  163.2950  212.1860  148.0410 C   0  0  0  0  0  2  0  0  0  0  0  0
  160.9200  211.8520  147.6030 N   0  0  0  0  0  2  0  0  0  0  0  0
  160.2570  212.9640  148.2660 C   0  0  0  0  0  2  0  0  0  0  0  0
  159.8540  214.0060  147.2430 C   0  0  0  0  0  1  0  0  0  0  0  0
  1 18  1  0  0  0  0
  1 13  1  0  0  0  0
  2  5  1  0  0  0  0
  2 16  1  0  0  0  0
  3  7  1  0  0  0  0
  4  8  1  0  0  0  0
  4  6  1  0  0  0  0
  5  7  1  0  0  0  0
  6  2  1  0  0  0  0
  7 19  1  0  0  0  0
  8 12  1  0  0  0  0
  9  6  1  0  0  0  0
  9 17  1  0  0  0  0
 10  1  1  0  0  0  0
 11 23  1  0  0  0  0
 12 16  1  0  0  0  0
 13  9  1  0  0  0  0
 14 15  1  0  0  0  0
 15  3  1  0  0  0  0
 16 11  1  0  0  0  0
 17 22  1  0  0  0  0
 17  5  1  0  0  0  0
 18  4  1  0  0  0  0
 19 23  1  0  0  0  0
 19 25  1  0  0  0  0
 20  1  1  0  0  0  0
 21 14  1  0  0  0  0
 21 15  1  0  0  0  0
 22 21  1  0  0  0  0
 24 30  1  0  0  0  0
 25 26  1  0  0  0  0
 25 24  2  0  0  0  0
 26 29  2  0  0  0  0
 29 27  1  0  0  0  0
 29 28  1  0  0  0  0
 30 28  2  0  0  0  0
 31 32  1  0  0  0  0
 31 22  1  0  0  0  0
 33 34  1  0  0  0  0
 34 32  1  0  0  0  0
 35 36  1  0  0  0  0
 35 32  1  0  0  0  0
 37 36  1  0  0  0  0
M  END
>  <MODEL>
1

>  <REMARK>
 VINA RESULT:      -8.6      0.000      0.000
  Name = 
  6 active torsions:
  status: ('A' for Active; 'I' for Inactive)
    1  A    between atoms: C_1  and  CA_4
    2  A    between atoms: C_1  and  C_27
    3  A    between atoms: CA_4  and  N_12
    4  A    between atoms: CA_4  and  C_37
    5  A    between atoms: C_8  and  N_12
    6  A    between atoms: C_23  and  C_30
                            x       y       z     vdW  Elec       q    Type
                         _______ _______ _______ _____ _____    ______ ____

>  <TORSDO>
F 6

$$$$
=
 OpenBabel11122413553D

 37 43  0  0  1  0  0  0  0  0999 V2000
  160.4700  210.9150  153.8500 C   0  0  0  0  0  0  0  0  0  0  0  0
  161.7010  207.4460  152.7180 N   0  0  1  0  0  0  0  0  0  0  0  0
  162.7450  206.9110  149.6500 O   0  0  0  0  0  0  0  0  0  0  0  0
  161.6660  209.1270  154.6760 C   0  0  2  0  0  3  0  0  0  0  0  0
  161.3280  207.8460  151.3490 C   0  0  2  0  0  3  0  0  0  0  0  0
  162.2060  208.7150  153.2940 C   0  0  2  0  0  3  0  0  0  0  0  0
  161.5110  206.7460  150.2970 C   0  0  2  0  0  3  0  0  0  0  0  0
  161.6020  207.8880  155.5350 C   0  0  0  0  0  2  0  0  0  0  0  0
  162.0770  209.8000  152.2350 C   0  0  2  0  0  3  0  0  0  0  0  0
  161.4460  211.7690  154.3440 F   0  0  0  0  0  0  0  0  0  0  0  0
  160.2650  205.4360  153.0330 C   0  0  0  0  0  2  0  0  0  0  0  0
  160.6290  206.8780  154.9420 C   0  0  0  0  0  2  0  0  0  0  0  0
  160.7480  210.5670  152.3930 C   0  0  0  0  0  2  0  0  0  0  0  0
  161.2250  208.0640  147.9480 C   0  0  0  0  0  2  0  0  0  0  0  0
  162.5940  207.5440  148.3830 C   0  0  1  0  0  3  0  0  0  0  0  0
  160.5050  206.9010  153.4070 C   0  0  1  0  0  3  0  0  0  0  0  0
  162.1250  209.0250  150.9970 N   0  0  2  0  0  0  0  0  0  0  0  0
  160.3900  209.7300  154.6100 O   0  0  0  0  0  0  0  0  0  0  0  0
  161.3150  205.3160  150.7950 C   0  0  1  0  0  3  0  0  0  0  0  0
  159.2520  211.5630  153.9140 F   0  0  0  0  0  0  0  0  0  0  0  0
  162.2470  209.0470  148.4910 C   0  0  2  0  0  3  0  0  0  0  0  0
  161.6250  209.6700  149.7630 C   0  0  2  0  0  3  0  0  0  0  0  0
  160.0070  205.2000  151.5580 C   0  0  0  0  0  2  0  0  0  0  0  0
  161.0640  202.9930  149.9070 C   0  0  0  0  0  3  0  0  0  0  0  0
  161.3400  204.3420  149.6560 C   0  0  0  0  0  0  0  0  0  0  0  0
  161.6460  204.7550  148.3490 C   0  0  0  0  0  3  0  0  0  0  0  0
  161.9980  204.2670  145.9260 C   0  0  0  0  0  1  0  0  0  0  0  0
  161.3950  202.4790  147.5640 C   0  0  0  0  0  3  0  0  0  0  0  0
  161.6720  203.8250  147.3060 C   0  0  0  0  0  0  0  0  0  0  0  0
  161.0910  202.0640  148.8630 C   0  0  0  0  0  3  0  0  0  0  0  0
  161.9600  211.1700  149.7210 C   0  0  0  0  0  2  0  0  0  0  0  0
  161.6250  211.8290  148.3780 C   0  0  1  0  0  3  0  0  0  0  0  0
  160.3930  213.2300  149.8690 O   0  0  0  0  0  1  0  0  0  0  0  0
  160.6070  212.9500  148.5190 C   0  0  0  0  0  2  0  0  0  0  0  0
  162.8290  212.3310  147.7300 N   0  0  0  0  0  2  0  0  0  0  0  0
  162.4660  213.5440  147.0160 C   0  0  0  0  0  2  0  0  0  0  0  0
  162.6510  213.3380  145.5260 C   0  0  0  0  0  1  0  0  0  0  0  0
  1 20  1  0  0  0  0
  1 10  1  0  0  0  0
  1 18  1  0  0  0  0
  2  6  1  0  0  0  0
  2 16  1  0  0  0  0
  3  7  1  0  0  0  0
  4  8  1  0  0  0  0
  5  2  1  0  0  0  0
  6  4  1  0  0  0  0
  7 19  1  0  0  0  0
  7  5  1  0  0  0  0
  9 13  1  0  0  0  0
  9  6  1  0  0  0  0
 11 16  1  0  0  0  0
 12  8  1  0  0  0  0
 13  1  1  0  0  0  0
 14 15  1  0  0  0  0
 14 21  1  0  0  0  0
 15 21  1  0  0  0  0
 15  3  1  0  0  0  0
 16 12  1  0  0  0  0
 17  5  1  0  0  0  0
 17  9  1  0  0  0  0
 18  4  1  0  0  0  0
 19 23  1  0  0  0  0
 21 22  1  0  0  0  0
 22 17  1  0  0  0  0
 23 11  1  0  0  0  0
 25 24  1  0  0  0  0
 25 19  1  0  0  0  0
 26 25  2  0  0  0  0
 27 29  1  0  0  0  0
 28 30  1  0  0  0  0
 29 28  2  0  0  0  0
 29 26  1  0  0  0  0
 30 24  2  0  0  0  0
 31 22  1  0  0  0  0
 32 34  1  0  0  0  0
 32 31  1  0  0  0  0
 34 33  1  0  0  0  0
 35 32  1  0  0  0  0
 36 35  1  0  0  0  0
 37 36  1  0  0  0  0
M  END
>  <MODEL>
2

>  <REMARK>
 VINA RESULT:      -6.1      2.849      6.139
  Name = 
  6 active torsions:
  status: ('A' for Active; 'I' for Inactive)
    1  A    between atoms: C_1  and  CA_4
    2  A    between atoms: C_1  and  C_27
    3  A    between atoms: CA_4  and  N_12
    4  A    between atoms: CA_4  and  C_37
    5  A    between atoms: C_8  and  N_12
    6  A    between atoms: C_23  and  C_30
                            x       y       z     vdW  Elec       q    Type
                         _______ _______ _______ _____ _____    ______ ____

>  <TORSDO>
F 6

$$$$
