=
 OpenBabel11122414143D

 28 32  0  0  1  0  0  0  0  0999 V2000
  161.0520  208.6800  156.2100 C   0  0  2  0  0  3  0  0  0  0  0  0
  156.6480  210.3530  154.7980 O   0  0  0  0  0  1  0  0  0  0  0  0
  162.3020  210.9660  151.0110 C   0  0  0  0  0  2  0  0  0  0  0  0
  162.7510  211.0610  156.6900 C   0  0  0  0  0  2  0  0  0  0  0  0
  160.0270  211.5500  151.5690 N   0  0  0  0  0  0  0  0  0  0  0  0
  160.8570  207.3970  155.4010 C   0  0  0  0  0  2  0  0  0  0  0  0
  157.5590  210.6650  156.9630 C   0  0  0  0  0  1  0  0  0  0  0  0
  157.4130  211.2360  155.5640 C   0  0  1  0  0  0  0  0  0  0  0  0
  157.0100  213.5940  154.5860 C   0  0  2  0  0  3  0  0  0  0  0  0
  158.8090  211.4230  154.9290 C   0  0  2  0  0  3  0  0  0  0  0  0
  160.8740  205.9910  152.2530 C   0  0  0  0  0  1  0  0  0  0  0  0
  159.5710  209.8570  153.1820 C   0  0  1  0  0  3  0  0  0  0  0  0
  157.4840  212.9140  153.3100 C   0  0  0  0  0  2  0  0  0  0  0  0
  156.6650  212.5720  155.6770 C   0  0  0  0  0  2  0  0  0  0  0  0
  160.8230  207.3410  152.9380 C   0  0  2  0  0  3  0  0  0  0  0  0
  160.9120  209.9820  155.3990 C   0  0  2  0  0  3  0  0  0  0  0  0
  161.1480  210.6880  151.6070 C   0  0  0  0  0  0  0  0  0  0  0  0
  155.7990  214.4530  154.2920 C   0  0  0  0  0  1  0  0  0  0  0  0
  161.1500  208.3530  152.0110 O   0  0  0  0  0  0  0  0  0  0  0  0
  161.2840  211.1740  156.2860 C   0  0  0  0  0  2  0  0  0  0  0  0
  162.3340  208.6180  157.0050 C   0  0  0  0  0  3  0  0  0  0  0  0
  163.0770  209.7060  157.2610 C   0  0  0  0  0  3  0  0  0  0  0  0
  161.7370  207.3320  154.1590 C   0  0  0  0  0  2  0  0  0  0  0  0
  159.0030  211.1050  152.4950 C   0  0  1  0  0  3  0  0  0  0  0  0
  160.9960  209.6190  152.6180 C   0  0  2  0  0  3  0  0  0  0  0  0
  158.7800  212.1480  153.5750 C   0  0  2  0  0  3  0  0  0  0  0  0
  159.8470  212.6470  150.6300 C   0  0  0  0  0  1  0  0  0  0  0  0
  159.5310  210.0940  154.7040 C   0  0  1  0  0  3  0  0  0  0  0  0
  1  6  1  6  0  0  0
  1 21  1  0  0  0  0
  2  8  1  0  0  0  0
  3 17  2  0  0  0  0
  4 22  1  0  0  0  0
  5 17  1  0  0  0  0
  5 24  1  0  0  0  0
  8 14  1  0  0  0  0
  8  7  1  1  0  0  0
  9 18  1  6  0  0  0
  9 14  1  0  0  0  0
 10  8  1  0  0  0  0
 11 15  1  0  0  0  0
 12 28  1  0  0  0  0
 13 26  1  0  0  0  0
 13  9  1  0  0  0  0
 15 23  1  0  0  0  0
 16  1  1  0  0  0  0
 16 20  1  0  0  0  0
 17 25  1  0  0  0  0
 19 25  1  0  0  0  0
 19 15  1  0  0  0  0
 20  4  1  0  0  0  0
 21 22  2  0  0  0  0
 23  6  1  0  0  0  0
 24 12  1  0  0  0  0
 24 26  1  0  0  0  0
 25 12  1  0  0  0  0
 26 10  1  0  0  0  0
 27  5  1  0  0  0  0
 28 10  1  0  0  0  0
 28 16  1  0  0  0  0
M  END
>  <MODEL>
1

>  <REMARK>
 VINA RESULT:      -3.0      0.000      0.000
  Name = 
  0 active torsions:
  status: ('A' for Active; 'I' for Inactive)
                            x       y       z     vdW  Elec       q    Type
                         _______ _______ _______ _____ _____    ______ ____

>  <TORSDO>
F 0

$$$$
