=
 OpenBabel11122413013D

 32 37  0  0  1  0  0  0  0  0999 V2000
  159.9400  211.2180  153.7190 C   0  0  0  0  0  0  0  0  0  0  0  0
  161.1170  212.9530  149.3300 C   0  0  0  0  0  3  0  0  0  0  0  0
  159.8750  213.7490  149.2950 C   0  0  0  0  0  3  0  0  0  0  0  0
  157.9980  212.0950  155.0310 C   0  0  2  0  0  3  0  0  0  0  0  0
  157.1490  213.3590  155.0370 C   0  0  2  0  0  3  0  0  0  0  0  0
  161.3410  209.4660  154.7970 C   0  0  2  0  0  3  0  0  0  0  0  0
  161.9940  210.3800  152.5600 C   0  0  0  0  0  2  0  0  0  0  0  0
  155.3820  214.4490  153.9970 N   0  0  0  0  0  0  0  0  0  0  0  0
  161.3130  212.0220  150.2690 C   0  0  0  0  0  3  0  0  0  0  0  0
  160.7720  211.1860  152.5420 N   0  0  0  0  0  0  0  0  0  0  0  0
  160.2320  211.6680  151.2660 C   0  0  1  0  0  3  0  0  0  0  0  0
  158.5570  212.9260  152.6020 C   0  0  0  0  0  0  0  0  0  0  0  0
  154.9730  214.2170  155.3330 N   0  0  0  0  0  2  0  0  0  0  0  0
  161.8140  209.1060  153.3860 C   0  0  2  0  0  3  0  0  0  0  0  0
  155.9860  213.3740  155.9770 C   0  0  0  0  0  2  0  0  0  0  0  0
  158.9970  213.6920  150.2990 C   0  0  0  0  0  3  0  0  0  0  0  0
  159.2470  212.8010  151.4540 C   0  0  0  0  0  0  0  0  0  0  0  0
  157.4680  213.9730  152.7230 C   0  0  0  0  0  2  0  0  0  0  0  0
  160.1990  210.3260  154.7690 O   0  0  0  0  0  0  0  0  0  0  0  0
  158.7640  212.0740  156.2000 O   0  0  0  0  0  1  0  0  0  0  0  0
  154.2650  214.0790  153.1460 C   0  0  0  0  0  1  0  0  0  0  0  0
  158.8970  212.0670  153.7930 C   0  0  0  0  0  0  0  0  0  0  0  0
  156.4500  213.5000  153.7410 C   0  0  1  0  0  3  0  0  0  0  0  0
  161.1280  208.0770  151.2290 C   0  0  0  0  0  2  0  0  0  0  0  0
  160.8300  208.1610  152.7120 C   0  0  1  0  0  3  0  0  0  0  0  0
  161.5820  206.9680  152.1540 C   0  0  1  0  0  3  0  0  0  0  0  0
  160.6290  205.7940  152.0450 C   0  0  0  0  0  2  0  0  0  0  0  0
  161.1920  204.7680  151.1260 C   0  0  0  0  0  0  0  0  0  0  0  0
  161.9750  203.8890  151.5690 O   0  0  0  0  0  1  0  0  0  0  0  0
  160.8240  204.7580  149.7860 O   0  0  0  0  0  0  0  0  0  0  0  0
  161.9690  211.1820  156.3340 O   0  0  0  0  0  1  0  0  0  0  0  0
  162.4660  210.1120  155.5910 C   0  0  0  0  0  2  0  0  0  0  0  0
  1 22  2  0  0  0  0
  1 19  1  0  0  0  0
  2  9  2  0  0  0  0
  3  2  1  0  0  0  0
  3 16  2  0  0  0  0
  4  5  1  0  0  0  0
  4 20  1  1  0  0  0
  5 15  1  1  0  0  0
  6 32  1  6  0  0  0
  8 13  1  0  0  0  0
 10  7  1  0  0  0  0
 10  1  1  0  0  0  0
 11  9  1  6  0  0  0
 11 17  1  0  0  0  0
 11 10  1  0  0  0  0
 12 18  1  0  0  0  0
 12 22  1  0  0  0  0
 13 15  1  0  0  0  0
 14  7  1  6  0  0  0
 14  6  1  0  0  0  0
 16 17  1  0  0  0  0
 17 12  2  0  0  0  0
 19  6  1  0  0  0  0
 21  8  1  0  0  0  0
 22  4  1  0  0  0  0
 23 18  1  6  0  0  0
 23  8  1  0  0  0  0
 23  5  1  0  0  0  0
 24 26  1  0  0  0  0
 25 24  1  6  0  0  0
 25 14  1  0  0  0  0
 26 27  1  6  0  0  0
 26 25  1  0  0  0  0
 28 29  1  0  0  0  0
 28 27  1  0  0  0  0
 30 28  2  0  0  0  0
 32 31  1  0  0  0  0
M  END
>  <MODEL>
1

>  <REMARK>
 VINA RESULT:      -5.1      0.000      0.000
  Name = 
  4 active torsions:
  status: ('A' for Active; 'I' for Inactive)
    1  A    between atoms: C_7  and  C_19
    2  A    between atoms: C_10  and  C_17
    3  A    between atoms: C_20  and  C_29
    4  A    between atoms: C_29  and  C_30
                            x       y       z     vdW  Elec       q    Type
                         _______ _______ _______ _____ _____    ______ ____

>  <TORSDO>
F 4

$$$$
=
 OpenBabel11122413013D

 32 37  0  0  1  0  0  0  0  0999 V2000
  160.4910  209.9450  152.5510 C   0  0  0  0  0  0  0  0  0  0  0  0
  161.6820  209.7130  157.2610 C   0  0  0  0  0  3  0  0  0  0  0  0
  161.8890  208.2570  157.1530 C   0  0  0  0  0  3  0  0  0  0  0  0
  160.7460  207.9930  151.0060 C   0  0  2  0  0  3  0  0  0  0  0  0
  161.5380  206.6930  150.9890 C   0  0  2  0  0  3  0  0  0  0  0  0
  159.6900  212.0830  151.5580 C   0  0  2  0  0  3  0  0  0  0  0  0
  160.3450  212.0000  153.9730 C   0  0  0  0  0  2  0  0  0  0  0  0
  161.6060  204.5160  151.7930 N   0  0  0  0  0  0  0  0  0  0  0  0
  161.1060  210.4040  156.2720 C   0  0  0  0  0  3  0  0  0  0  0  0
  160.5730  210.5580  153.8520 N   0  0  0  0  0  0  0  0  0  0  0  0
  160.5440  209.7110  155.0500 C   0  0  1  0  0  3  0  0  0  0  0  0
  161.2520  207.8380  153.5780 C   0  0  0  0  0  0  0  0  0  0  0  0
  161.4870  204.4140  150.3860 N   0  0  0  0  0  2  0  0  0  0  0  0
  159.2890  212.4860  152.9800 C   0  0  2  0  0  3  0  0  0  0  0  0
  161.2630  205.7610  149.8520 C   0  0  0  0  0  2  0  0  0  0  0  0
  161.6760  207.6190  155.9990 C   0  0  0  0  0  3  0  0  0  0  0  0
  161.1990  208.3670  154.8140 C   0  0  0  0  0  0  0  0  0  0  0  0
  161.7750  206.4290  153.3780 C   0  0  0  0  0  2  0  0  0  0  0  0
  159.9960  210.6890  151.4700 O   0  0  0  0  0  0  0  0  0  0  0  0
  161.2570  208.8320  150.0120 O   0  0  0  0  0  1  0  0  0  0  0  0
  160.6640  203.5690  152.3630 C   0  0  0  0  0  1  0  0  0  0  0  0
  160.8460  208.6570  152.3810 C   0  0  0  0  0  0  0  0  0  0  0  0
  161.1360  205.8460  152.1340 C   0  0  1  0  0  3  0  0  0  0  0  0
  157.7450  211.8970  154.8380 C   0  0  0  0  0  2  0  0  0  0  0  0
  157.9190  211.9260  153.3330 C   0  0  1  0  0  3  0  0  0  0  0  0
  157.1010  213.0000  154.0240 C   0  0  1  0  0  3  0  0  0  0  0  0
  155.6280  212.6950  153.8320 C   0  0  0  0  0  2  0  0  0  0  0  0
  154.9440  213.8670  153.2200 C   0  0  0  0  0  0  0  0  0  0  0  0
  154.0220  214.4530  153.8430 O   0  0  0  0  0  1  0  0  0  0  0  0
  155.3480  214.3360  151.9760 O   0  0  0  0  0  0  0  0  0  0  0  0
  160.6490  213.3440  149.7720 O   0  0  0  0  0  1  0  0  0  0  0  0
  160.8720  212.9120  151.0800 C   0  0  0  0  0  2  0  0  0  0  0  0
  1 10  1  0  0  0  0
  3  2  1  0  0  0  0
  4 20  1  6  0  0  0
  4 22  1  0  0  0  0
  5 15  1  6  0  0  0
  5  4  1  0  0  0  0
  5 23  1  0  0  0  0
  6 32  1  1  0  0  0
  6 14  1  0  0  0  0
  8 23  1  0  0  0  0
  8 21  1  0  0  0  0
  9  2  2  0  0  0  0
 10  7  1  0  0  0  0
 10 11  1  0  0  0  0
 11  9  1  1  0  0  0
 12 17  2  0  0  0  0
 13  8  1  0  0  0  0
 14 25  1  0  0  0  0
 14  7  1  1  0  0  0
 15 13  1  0  0  0  0
 16  3  2  0  0  0  0
 17 11  1  0  0  0  0
 17 16  1  0  0  0  0
 18 12  1  0  0  0  0
 19  6  1  0  0  0  0
 19  1  1  0  0  0  0
 22  1  2  0  0  0  0
 22 12  1  0  0  0  0
 23 18  1  1  0  0  0
 25 26  1  0  0  0  0
 25 24  1  1  0  0  0
 26 27  1  6  0  0  0
 26 24  1  0  0  0  0
 28 27  1  0  0  0  0
 28 29  1  0  0  0  0
 30 28  2  0  0  0  0
 31 32  1  0  0  0  0
M  END
>  <MODEL>
2

>  <REMARK>
 VINA RESULT:      -4.9      2.904      8.057
  Name = 
  4 active torsions:
  status: ('A' for Active; 'I' for Inactive)
    1  A    between atoms: C_7  and  C_19
    2  A    between atoms: C_10  and  C_17
    3  A    between atoms: C_20  and  C_29
    4  A    between atoms: C_29  and  C_30
                            x       y       z     vdW  Elec       q    Type
                         _______ _______ _______ _____ _____    ______ ____

>  <TORSDO>
F 4

$$$$
=
 OpenBabel11122413013D

 32 37  0  0  1  0  0  0  0  0999 V2000
  160.9940  212.2550  140.5930 C   0  0  0  0  0  0  0  0  0  0  0  0
  157.1670  214.1780  138.2890 C   0  0  0  0  0  3  0  0  0  0  0  0
  156.5070  214.4530  139.5800 C   0  0  0  0  0  3  0  0  0  0  0  0
  161.2650  212.3810  143.0780 C   0  0  2  0  0  3  0  0  0  0  0  0
  160.7100  213.2380  144.2080 C   0  0  2  0  0  3  0  0  0  0  0  0
  162.8320  211.1830  139.3030 C   0  0  2  0  0  3  0  0  0  0  0  0
  160.8960  212.2100  138.0930 C   0  0  0  0  0  2  0  0  0  0  0  0
  158.8860  213.5600  145.6080 N   0  0  0  0  0  0  0  0  0  0  0  0
  158.2620  213.4150  138.2220 C   0  0  0  0  0  3  0  0  0  0  0  0
  160.2590  212.5020  139.3790 N   0  0  0  0  0  0  0  0  0  0  0  0
  158.8080  212.7110  139.4440 C   0  0  1  0  0  3  0  0  0  0  0  0
  159.1360  213.2910  141.8380 C   0  0  0  0  0  0  0  0  0  0  0  0
  159.9760  213.2300  146.4490 N   0  0  0  0  0  2  0  0  0  0  0  0
  161.8060  210.9850  138.1830 C   0  0  2  0  0  3  0  0  0  0  0  0
  161.1050  212.8450  145.5960 C   0  0  0  0  0  2  0  0  0  0  0  0
  157.0850  214.1010  140.7310 C   0  0  0  0  0  3  0  0  0  0  0  0
  158.3890  213.4010  140.7250 C   0  0  0  0  0  0  0  0  0  0  0  0
  158.6300  213.8610  143.1490 C   0  0  0  0  0  2  0  0  0  0  0  0
  162.2060  211.5540  140.5340 O   0  0  0  0  0  0  0  0  0  0  0  0
  162.6220  212.6810  142.9260 O   0  0  0  0  0  1  0  0  0  0  0  0
  157.7520  212.7770  146.0650 C   0  0  0  0  0  1  0  0  0  0  0  0
  160.5000  212.6550  141.7810 C   0  0  0  0  0  0  0  0  0  0  0  0
  159.2420  213.0710  144.2890 C   0  0  1  0  0  3  0  0  0  0  0  0
  161.0950  208.8100  137.2110 C   0  0  0  0  0  2  0  0  0  0  0  0
  160.9900  209.7220  138.4160 C   0  0  1  0  0  3  0  0  0  0  0  0
  161.9180  208.5240  138.4490 C   0  0  1  0  0  3  0  0  0  0  0  0
  161.2610  207.4170  139.2500 C   0  0  0  0  0  2  0  0  0  0  0  0
  162.2500  206.8120  140.1840 C   0  0  0  0  0  0  0  0  0  0  0  0
  163.4200  206.5680  139.7900 O   0  0  0  0  0  0  0  0  0  0  0  0
  161.8930  206.5500  141.5010 O   0  0  0  0  0  1  0  0  0  0  0  0
  163.8260  213.2970  139.7930 O   0  0  0  0  0  1  0  0  0  0  0  0
  163.8670  212.2230  138.9040 C   0  0  0  0  0  2  0  0  0  0  0  0
  1 22  2  0  0  0  0
  2  3  1  0  0  0  0
  3 16  2  0  0  0  0
  4 20  1  6  0  0  0
  4  5  1  0  0  0  0
  5 23  1  0  0  0  0
  5 15  1  1  0  0  0
  6 32  1  6  0  0  0
  6 19  1  0  0  0  0
  7 10  1  0  0  0  0
  8 21  1  0  0  0  0
  8 13  1  0  0  0  0
  9  2  2  0  0  0  0
 10 11  1  0  0  0  0
 10  1  1  0  0  0  0
 11  9  1  6  0  0  0
 11 17  1  0  0  0  0
 12 18  1  0  0  0  0
 14  7  1  1  0  0  0
 14 25  1  0  0  0  0
 14  6  1  0  0  0  0
 15 13  1  0  0  0  0
 17 16  1  0  0  0  0
 17 12  2  0  0  0  0
 19  1  1  0  0  0  0
 22 12  1  0  0  0  0
 22  4  1  0  0  0  0
 23 18  1  6  0  0  0
 23  8  1  0  0  0  0
 24 26  1  0  0  0  0
 25 24  1  6  0  0  0
 25 26  1  0  0  0  0
 26 27  1  1  0  0  0
 27 28  1  0  0  0  0
 28 30  1  0  0  0  0
 29 28  2  0  0  0  0
 32 31  1  0  0  0  0
M  END
>  <MODEL>
3

>  <REMARK>
 VINA RESULT:      -4.8      9.715     12.496
  Name = 
  4 active torsions:
  status: ('A' for Active; 'I' for Inactive)
    1  A    between atoms: C_7  and  C_19
    2  A    between atoms: C_10  and  C_17
    3  A    between atoms: C_20  and  C_29
    4  A    between atoms: C_29  and  C_30
                            x       y       z     vdW  Elec       q    Type
                         _______ _______ _______ _____ _____    ______ ____

>  <TORSDO>
F 4

$$$$
=
 OpenBabel11122413013D

 32 37  0  0  1  0  0  0  0  0999 V2000
  161.6860  209.4410  149.6540 C   0  0  0  0  0  0  0  0  0  0  0  0
  161.4610  209.7670  154.5020 C   0  0  0  0  0  3  0  0  0  0  0  0
  161.1820  208.3210  154.6020 C   0  0  0  0  0  3  0  0  0  0  0  0
  161.6540  207.2450  148.4550 C   0  0  2  0  0  3  0  0  0  0  0  0
  161.9330  205.7900  148.8060 C   0  0  2  0  0  3  0  0  0  0  0  0
  161.9450  211.4900  148.2660 C   0  0  2  0  0  3  0  0  0  0  0  0
  161.8820  211.6780  150.7620 C   0  0  0  0  0  2  0  0  0  0  0  0
  161.0470  203.8860  149.7950 N   0  0  0  0  0  0  0  0  0  0  0  0
  161.4320  210.3950  153.3230 C   0  0  0  0  0  3  0  0  0  0  0  0
  161.6300  210.2380  150.8540 N   0  0  0  0  0  0  0  0  0  0  0  0
  161.0050  209.6820  152.0600 C   0  0  1  0  0  3  0  0  0  0  0  0
  161.3910  207.4390  151.0610 C   0  0  0  0  0  0  0  0  0  0  0  0
  161.2710  203.5580  148.4360 N   0  0  0  0  0  2  0  0  0  0  0  0
  161.3510  212.2570  149.4510 C   0  0  2  0  0  3  0  0  0  0  0  0
  161.6640  204.7840  147.7330 C   0  0  0  0  0  2  0  0  0  0  0  0
  161.0720  207.5680  153.5040 C   0  0  0  0  0  3  0  0  0  0  0  0
  161.2030  208.1840  152.1650 C   0  0  0  0  0  0  0  0  0  0  0  0
  161.4380  205.9270  151.1670 C   0  0  0  0  0  2  0  0  0  0  0  0
  161.7720  210.0780  148.4080 O   0  0  0  0  0  0  0  0  0  0  0  0
  162.6600  207.6890  147.5920 O   0  0  0  0  0  1  0  0  0  0  0  0
  159.7250  203.3880  150.1350 C   0  0  0  0  0  1  0  0  0  0  0  0
  161.6130  208.0980  149.7250 C   0  0  0  0  0  0  0  0  0  0  0  0
  160.9850  205.3350  149.8470 C   0  0  1  0  0  3  0  0  0  0  0  0
  159.2580  213.4280  150.1100 C   0  0  0  0  0  2  0  0  0  0  0  0
  159.8300  212.2070  149.4160 C   0  0  1  0  0  3  0  0  0  0  0  0
  159.3080  213.3720  148.5970 C   0  0  1  0  0  3  0  0  0  0  0  0
  157.9370  213.0170  148.0570 C   0  0  0  0  0  2  0  0  0  0  0  0
  158.0500  212.5800  146.6380 C   0  0  0  0  0  0  0  0  0  0  0  0
  157.0250  212.2040  146.0120 O   0  0  0  0  0  1  0  0  0  0  0  0
  159.2800  212.6220  145.9940 O   0  0  0  0  0  0  0  0  0  0  0  0
  163.5740  213.1950  147.8850 O   0  0  0  0  0  1  0  0  0  0  0  0
  163.4190  211.8250  148.0970 C   0  0  0  0  0  2  0  0  0  0  0  0
  1 22  2  0  0  0  0
  1 10  1  0  0  0  0
  2  3  1  0  0  0  0
  4 20  1  6  0  0  0
  4  5  1  0  0  0  0
  4 22  1  0  0  0  0
  5 15  1  6  0  0  0
  5 23  1  0  0  0  0
  6 32  1  1  0  0  0
  6 19  1  0  0  0  0
  6 14  1  0  0  0  0
  7 10  1  0  0  0  0
  8 23  1  0  0  0  0
  8 21  1  0  0  0  0
  9  2  2  0  0  0  0
 10 11  1  0  0  0  0
 11 17  1  0  0  0  0
 11  9  1  1  0  0  0
 12 18  1  0  0  0  0
 12 17  2  0  0  0  0
 13  8  1  0  0  0  0
 14  7  1  1  0  0  0
 15 13  1  0  0  0  0
 16  3  2  0  0  0  0
 17 16  1  0  0  0  0
 19  1  1  0  0  0  0
 22 12  1  0  0  0  0
 23 18  1  1  0  0  0
 25 14  1  0  0  0  0
 25 24  1  1  0  0  0
 26 27  1  6  0  0  0
 26 25  1  0  0  0  0
 26 24  1  0  0  0  0
 28 27  1  0  0  0  0
 29 28  1  0  0  0  0
 30 28  2  0  0  0  0
 31 32  1  0  0  0  0
M  END
>  <MODEL>
4

>  <REMARK>
 VINA RESULT:      -4.6      4.237      8.347
  Name = 
  4 active torsions:
  status: ('A' for Active; 'I' for Inactive)
    1  A    between atoms: C_7  and  C_19
    2  A    between atoms: C_10  and  C_17
    3  A    between atoms: C_20  and  C_29
    4  A    between atoms: C_29  and  C_30
                            x       y       z     vdW  Elec       q    Type
                         _______ _______ _______ _____ _____    ______ ____

>  <TORSDO>
F 4

$$$$
=
 OpenBabel11122413013D

 32 37  0  0  1  0  0  0  0  0999 V2000
  161.5810  209.5640  149.7820 C   0  0  0  0  0  0  0  0  0  0  0  0
  161.4070  209.7590  154.6390 C   0  0  0  0  0  3  0  0  0  0  0  0
  161.2060  208.2990  154.7060 C   0  0  0  0  0  3  0  0  0  0  0  0
  161.6490  207.3990  148.5290 C   0  0  2  0  0  3  0  0  0  0  0  0
  162.0090  205.9530  148.8400 C   0  0  2  0  0  3  0  0  0  0  0  0
  161.7130  211.6570  148.4420 C   0  0  2  0  0  3  0  0  0  0  0  0
  161.6740  211.7800  150.9420 C   0  0  0  0  0  2  0  0  0  0  0  0
  161.2380  203.9810  149.7930 N   0  0  0  0  0  0  0  0  0  0  0  0
  161.3280  210.4140  153.4760 C   0  0  0  0  0  3  0  0  0  0  0  0
  161.5000  210.3270  151.0020 N   0  0  0  0  0  0  0  0  0  0  0  0
  160.9220  209.7090  152.2010 C   0  0  1  0  0  3  0  0  0  0  0  0
  161.4120  207.5150  151.1420 C   0  0  0  0  0  0  0  0  0  0  0  0
  161.4600  203.6980  148.4230 N   0  0  0  0  0  2  0  0  0  0  0  0
  161.0950  212.3620  149.6530 C   0  0  2  0  0  3  0  0  0  0  0  0
  161.7780  204.9590  147.7460 C   0  0  0  0  0  2  0  0  0  0  0  0
  161.1210  207.5680  153.5920 C   0  0  0  0  0  3  0  0  0  0  0  0
  161.2000  208.2230  152.2670 C   0  0  0  0  0  0  0  0  0  0  0  0
  161.5400  206.0060  151.2100 C   0  0  0  0  0  2  0  0  0  0  0  0
  161.6150  210.2350  148.5510 O   0  0  0  0  0  0  0  0  0  0  0  0
  162.6170  207.9170  147.6640 O   0  0  0  0  0  1  0  0  0  0  0  0
  159.9500  203.4050  150.1360 C   0  0  0  0  0  1  0  0  0  0  0  0
  161.5810  208.2170  149.8200 C   0  0  0  0  0  0  0  0  0  0  0  0
  161.1010  205.4220  149.8810 C   0  0  1  0  0  3  0  0  0  0  0  0
  159.0030  212.7330  150.9460 C   0  0  0  0  0  2  0  0  0  0  0  0
  159.5780  212.2320  149.6360 C   0  0  1  0  0  3  0  0  0  0  0  0
  158.9560  213.6130  149.7150 C   0  0  1  0  0  3  0  0  0  0  0  0
  157.5680  213.5600  149.1070 C   0  0  0  0  0  2  0  0  0  0  0  0
  156.5660  214.0610  150.0890 C   0  0  0  0  0  0  0  0  0  0  0  0
  156.9380  214.4400  151.2290 O   0  0  0  0  0  1  0  0  0  0  0  0
  155.2260  214.1430  149.7320 O   0  0  0  0  0  0  0  0  0  0  0  0
  163.2300  213.4130  147.8820 O   0  0  0  0  0  1  0  0  0  0  0  0
  163.1640  212.0730  148.2630 C   0  0  0  0  0  2  0  0  0  0  0  0
  1 22  2  0  0  0  0
  1 10  1  0  0  0  0
  2  3  1  0  0  0  0
  4 20  1  6  0  0  0
  4  5  1  0  0  0  0
  4 22  1  0  0  0  0
  5 15  1  6  0  0  0
  5 23  1  0  0  0  0
  6 32  1  1  0  0  0
  6 19  1  0  0  0  0
  6 14  1  0  0  0  0
  7 10  1  0  0  0  0
  8 23  1  0  0  0  0
  8 21  1  0  0  0  0
  9  2  2  0  0  0  0
 10 11  1  0  0  0  0
 11 17  1  0  0  0  0
 11  9  1  1  0  0  0
 12 18  1  0  0  0  0
 12 17  2  0  0  0  0
 13  8  1  0  0  0  0
 14  7  1  1  0  0  0
 15 13  1  0  0  0  0
 16  3  2  0  0  0  0
 17 16  1  0  0  0  0
 19  1  1  0  0  0  0
 22 12  1  0  0  0  0
 23 18  1  1  0  0  0
 25 14  1  0  0  0  0
 25 26  1  0  0  0  0
 25 24  1  1  0  0  0
 26 27  1  6  0  0  0
 26 24  1  0  0  0  0
 27 28  1  0  0  0  0
 28 29  1  0  0  0  0
 30 28  2  0  0  0  0
 31 32  1  0  0  0  0
M  END
>  <MODEL>
5

>  <REMARK>
 VINA RESULT:      -3.9      3.814      8.435
  Name = 
  4 active torsions:
  status: ('A' for Active; 'I' for Inactive)
    1  A    between atoms: C_7  and  C_19
    2  A    between atoms: C_10  and  C_17
    3  A    between atoms: C_20  and  C_29
    4  A    between atoms: C_29  and  C_30
                            x       y       z     vdW  Elec       q    Type
                         _______ _______ _______ _____ _____    ______ ____

>  <TORSDO>
F 4

$$$$
=
 OpenBabel11122413013D

 32 37  0  0  1  0  0  0  0  0999 V2000
  160.0300  210.9290  154.3250 C   0  0  0  0  0  0  0  0  0  0  0  0
  160.3740  207.0590  157.2510 C   0  0  0  0  0  3  0  0  0  0  0  0
  160.7810  206.2150  156.1120 C   0  0  0  0  0  3  0  0  0  0  0  0
  160.8050  210.8850  151.9460 C   0  0  2  0  0  3  0  0  0  0  0  0
  161.7470  210.0330  151.1070 C   0  0  2  0  0  3  0  0  0  0  0  0
  159.1550  213.0910  155.1950 C   0  0  2  0  0  3  0  0  0  0  0  0
  159.3690  211.1260  156.7320 C   0  0  0  0  0  2  0  0  0  0  0  0
  161.9460  208.0370  149.9380 N   0  0  0  0  0  0  0  0  0  0  0  0
  159.9020  208.2950  157.0600 C   0  0  0  0  0  3  0  0  0  0  0  0
  159.7970  210.3000  155.6000 N   0  0  0  0  0  0  0  0  0  0  0  0
  159.6620  208.8400  155.6700 C   0  0  1  0  0  3  0  0  0  0  0  0
  160.8560  208.7620  153.4920 C   0  0  0  0  0  0  0  0  0  0  0  0
  162.0970  209.0710  148.9830 N   0  0  0  0  0  2  0  0  0  0  0  0
  158.4560  212.2660  156.2800 C   0  0  2  0  0  3  0  0  0  0  0  0
  161.8020  210.3450  149.6450 C   0  0  0  0  0  2  0  0  0  0  0  0
  160.8630  206.7220  154.8790 C   0  0  0  0  0  3  0  0  0  0  0  0
  160.5150  208.1390  154.6350 C   0  0  0  0  0  0  0  0  0  0  0  0
  161.5820  207.9990  152.4010 C   0  0  0  0  0  2  0  0  0  0  0  0
  159.6470  212.2650  154.1360 O   0  0  0  0  0  0  0  0  0  0  0  0
  161.3760  212.1520  152.0970 O   0  0  0  0  0  1  0  0  0  0  0  0
  161.0460  207.0560  149.3560 C   0  0  0  0  0  1  0  0  0  0  0  0
  160.5710  210.2300  153.3090 C   0  0  0  0  0  0  0  0  0  0  0  0
  161.2570  208.6370  151.0650 C   0  0  1  0  0  3  0  0  0  0  0  0
  156.0640  211.8850  156.8410 C   0  0  0  0  0  2  0  0  0  0  0  0
  157.1270  211.7240  155.7730 C   0  0  1  0  0  3  0  0  0  0  0  0
  156.1250  212.8580  155.6820 C   0  0  1  0  0  3  0  0  0  0  0  0
  155.0660  212.4960  154.6590 C   0  0  0  0  0  2  0  0  0  0  0  0
  155.0750  213.4870  153.5480 C   0  0  0  0  0  0  0  0  0  0  0  0
  154.0470  214.1700  153.3060 O   0  0  0  0  0  1  0  0  0  0  0  0
  156.2300  213.6840  152.8010 O   0  0  0  0  0  0  0  0  0  0  0  0
  159.8920  214.4430  157.0190 O   0  0  0  0  0  1  0  0  0  0  0  0
  160.2870  213.9110  155.7920 C   0  0  0  0  0  2  0  0  0  0  0  0
  1 10  1  0  0  0  0
  3  2  1  0  0  0  0
  4 20  1  1  0  0  0
  4 22  1  0  0  0  0
  5 15  1  6  0  0  0
  5  4  1  0  0  0  0
  6 32  1  1  0  0  0
  6 14  1  0  0  0  0
  8 23  1  0  0  0  0
  9  2  2  0  0  0  0
 10 11  1  0  0  0  0
 10  7  1  0  0  0  0
 11  9  1  1  0  0  0
 12 17  2  0  0  0  0
 13 15  1  0  0  0  0
 13  8  1  0  0  0  0
 14  7  1  6  0  0  0
 16  3  2  0  0  0  0
 17 16  1  0  0  0  0
 17 11  1  0  0  0  0
 18 12  1  0  0  0  0
 19  1  1  0  0  0  0
 19  6  1  0  0  0  0
 21  8  1  0  0  0  0
 22 12  1  0  0  0  0
 22  1  2  0  0  0  0
 23  5  1  0  0  0  0
 23 18  1  1  0  0  0
 25 14  1  0  0  0  0
 25 24  1  1  0  0  0
 26 27  1  6  0  0  0
 26 25  1  0  0  0  0
 26 24  1  0  0  0  0
 28 27  1  0  0  0  0
 29 28  1  0  0  0  0
 30 28  2  0  0  0  0
 32 31  1  0  0  0  0
M  END
>  <MODEL>
6

>  <REMARK>
 VINA RESULT:      -2.6      3.264      7.556
  Name = 
  4 active torsions:
  status: ('A' for Active; 'I' for Inactive)
    1  A    between atoms: C_7  and  C_19
    2  A    between atoms: C_10  and  C_17
    3  A    between atoms: C_20  and  C_29
    4  A    between atoms: C_29  and  C_30
                            x       y       z     vdW  Elec       q    Type
                         _______ _______ _______ _____ _____    ______ ____

>  <TORSDO>
F 4

$$$$
=
 OpenBabel11122413013D

 32 37  0  0  1  0  0  0  0  0999 V2000
  161.0110  209.4600  151.1860 C   0  0  0  0  0  0  0  0  0  0  0  0
  163.3290  212.2490  147.9450 C   0  0  0  0  0  3  0  0  0  0  0  0
  162.4500  213.3880  148.2720 C   0  0  0  0  0  3  0  0  0  0  0  0
  159.3130  210.3810  152.7760 C   0  0  2  0  0  3  0  0  0  0  0  0
  158.9510  211.7500  153.3360 C   0  0  2  0  0  3  0  0  0  0  0  0
  161.5640  207.0420  151.3890 C   0  0  2  0  0  3  0  0  0  0  0  0
  162.8050  208.4690  149.7490 C   0  0  0  0  0  2  0  0  0  0  0  0
  157.8280  213.7320  152.8900 N   0  0  0  0  0  0  0  0  0  0  0  0
  163.0600  211.0190  148.3920 C   0  0  0  0  0  3  0  0  0  0  0  0
  161.9440  209.6020  150.0970 N   0  0  0  0  0  0  0  0  0  0  0  0
  161.7910  210.7180  149.1570 C   0  0  1  0  0  3  0  0  0  0  0  0
  160.4660  211.8500  150.9290 C   0  0  0  0  0  0  0  0  0  0  0  0
  157.1750  213.1510  154.0030 N   0  0  0  0  0  2  0  0  0  0  0  0
  162.0870  207.1350  149.9530 C   0  0  2  0  0  3  0  0  0  0  0  0
  157.7390  211.8120  154.2090 C   0  0  0  0  0  2  0  0  0  0  0  0
  161.4680  213.2580  149.1690 C   0  0  0  0  0  3  0  0  0  0  0  0
  161.2320  211.9550  149.8280 C   0  0  0  0  0  0  0  0  0  0  0  0
  159.7910  213.0810  151.5020 C   0  0  0  0  0  2  0  0  0  0  0  0
  160.7980  208.1940  151.7490 O   0  0  0  0  0  0  0  0  0  0  0  0
  159.8480  209.6110  153.8120 O   0  0  0  0  0  1  0  0  0  0  0  0
  156.7880  214.1770  151.9790 C   0  0  0  0  0  1  0  0  0  0  0  0
  160.3180  210.5260  151.6320 C   0  0  0  0  0  0  0  0  0  0  0  0
  158.5360  212.6480  152.2350 C   0  0  1  0  0  3  0  0  0  0  0  0
  161.2070  207.8420  147.7370 C   0  0  0  0  0  2  0  0  0  0  0  0
  160.9490  206.9770  148.9540 C   0  0  1  0  0  3  0  0  0  0  0  0
  161.4840  206.3550  147.6790 C   0  0  1  0  0  3  0  0  0  0  0  0
  160.3470  205.6550  146.9600 C   0  0  0  0  0  2  0  0  0  0  0  0
  160.8410  205.0660  145.6840 C   0  0  0  0  0  0  0  0  0  0  0  0
  161.1990  203.8610  145.6450 O   0  0  0  0  0  1  0  0  0  0  0  0
  160.8700  205.8380  144.5290 O   0  0  0  0  0  0  0  0  0  0  0  0
  162.2540  206.2140  153.5190 O   0  0  0  0  0  1  0  0  0  0  0  0
  162.7140  206.8490  152.3660 C   0  0  0  0  0  2  0  0  0  0  0  0
  1 22  2  0  0  0  0
  1 19  1  0  0  0  0
  2  3  1  0  0  0  0
  2  9  2  0  0  0  0
  3 16  2  0  0  0  0
  4  5  1  0  0  0  0
  4 20  1  1  0  0  0
  5 15  1  1  0  0  0
  6 19  1  0  0  0  0
  6 32  1  1  0  0  0
  7 10  1  0  0  0  0
  8 13  1  0  0  0  0
 10  1  1  0  0  0  0
 11  9  1  1  0  0  0
 11 17  1  0  0  0  0
 11 10  1  0  0  0  0
 12 18  1  0  0  0  0
 12 22  1  0  0  0  0
 13 15  1  0  0  0  0
 14  7  1  1  0  0  0
 14  6  1  0  0  0  0
 16 17  1  0  0  0  0
 17 12  2  0  0  0  0
 21  8  1  0  0  0  0
 22  4  1  0  0  0  0
 23 18  1  1  0  0  0
 23  8  1  0  0  0  0
 23  5  1  0  0  0  0
 25 24  1  6  0  0  0
 25 14  1  0  0  0  0
 26 27  1  6  0  0  0
 26 24  1  0  0  0  0
 26 25  1  0  0  0  0
 28 27  1  0  0  0  0
 29 28  1  0  0  0  0
 30 28  2  0  0  0  0
 32 31  1  0  0  0  0
M  END
>  <MODEL>
7

>  <REMARK>
 VINA RESULT:      -2.6      2.601      3.719
  Name = 
  4 active torsions:
  status: ('A' for Active; 'I' for Inactive)
    1  A    between atoms: C_7  and  C_19
    2  A    between atoms: C_10  and  C_17
    3  A    between atoms: C_20  and  C_29
    4  A    between atoms: C_29  and  C_30
                            x       y       z     vdW  Elec       q    Type
                         _______ _______ _______ _____ _____    ______ ____

>  <TORSDO>
F 4

$$$$
