=
 OpenBabel11122412453D

 30 35  0  0  1  0  0  0  0  0999 V2000
  161.0520  210.2930  152.6670 C   0  0  2  0  0  3  0  0  0  0  0  0
  160.0710  212.5430  151.9700 C   0  0  0  0  0  0  0  0  0  0  0  0
  162.0070  209.6780  148.6340 O   0  0  0  0  0  0  0  0  0  0  0  0
  161.2580  208.9130  152.0160 C   0  0  2  0  0  3  0  0  0  0  0  0
  159.9600  210.1890  153.5610 O   0  0  0  0  0  0  0  0  0  0  0  0
  160.2260  207.0450  154.8180 O   0  0  0  0  0  0  0  0  0  0  0  0
  160.8440  205.9950  151.5520 C   0  0  1  0  0  3  0  0  0  0  0  0
  160.6920  208.0210  154.2470 C   0  0  0  0  0  0  0  0  0  0  0  0
  160.7580  206.8020  150.2370 C   0  0  2  0  0  3  0  0  0  0  0  0
  161.9250  208.3060  148.5760 C   0  0  0  0  0  0  0  0  0  0  0  0
  160.3710  209.4330  154.6790 C   0  0  2  0  0  3  0  0  0  0  0  0
  161.6570  207.8990  153.0970 C   0  0  1  0  0  3  0  0  0  0  0  0
  159.8450  213.5320  151.0090 C   0  0  0  0  0  3  0  0  0  0  0  0
  160.4810  205.7580  149.1700 C   0  0  0  0  0  2  0  0  0  0  0  0
  161.0780  204.5410  151.1630 C   0  0  0  0  0  2  0  0  0  0  0  0
  159.5920  212.7560  153.2580 O   0  0  0  0  0  1  0  0  0  0  0  0
  162.2600  210.1310  149.9510 C   0  0  2  0  0  3  0  0  0  0  0  0
  160.3520  213.3900  149.7210 C   0  0  0  0  0  3  0  0  0  0  0  0
  160.7830  211.3660  151.6330 C   0  0  0  0  0  0  0  0  0  0  0  0
  162.2450  208.8720  150.8450 C   0  0  2  0  0  3  0  0  0  0  0  0
  161.8340  207.6860  147.4840 O   0  0  0  0  0  0  0  0  0  0  0  0
  162.0250  207.6480  149.9050 C   0  0  1  0  0  3  0  0  0  0  0  0
  161.1430  204.4890  149.6530 C   0  0  0  0  0  2  0  0  0  0  0  0
  162.1190  205.5640  153.5790 O   0  0  0  0  0  1  0  0  0  0  0  0
  161.1010  212.2640  149.3910 C   0  0  0  0  0  3  0  0  0  0  0  0
  161.3230  211.2480  150.3310 C   0  0  0  0  0  0  0  0  0  0  0  0
  161.9120  206.4820  152.5450 C   0  0  1  0  0  3  0  0  0  0  0  0
  159.2920  209.4750  155.7530 C   0  0  0  0  0  2  0  0  0  0  0  0
  157.6160  211.1600  155.7640 O   0  0  0  0  0  1  0  0  0  0  0  0
  158.9470  210.9120  156.0930 C   0  0  0  0  0  2  0  0  0  0  0  0
  1 19  1  6  0  0  0
  1  5  1  0  0  0  0
  2 16  1  0  0  0  0
  3 17  1  0  0  0  0
  4  1  1  0  0  0  0
  4 12  1  0  0  0  0
  5 11  1  0  0  0  0
  7 27  1  0  0  0  0
  8 11  1  0  0  0  0
  8  6  2  0  0  0  0
  9  7  1  0  0  0  0
 10  3  1  0  0  0  0
 10 22  1  0  0  0  0
 11 28  1  0  0  0  0
 12  8  1  0  0  0  0
 13  2  2  0  0  0  0
 14 23  1  0  0  0  0
 14  9  1  0  0  0  0
 15  7  1  0  0  0  0
 17 26  1  0  0  0  0
 17 20  1  0  0  0  0
 18 13  1  0  0  0  0
 19  2  1  0  0  0  0
 20  4  1  0  0  0  0
 21 10  2  0  0  0  0
 22  9  1  0  0  0  0
 22 20  1  0  0  0  0
 23 15  1  0  0  0  0
 25 18  2  0  0  0  0
 25 26  1  0  0  0  0
 26 19  2  0  0  0  0
 27 12  1  0  0  0  0
 27 24  1  0  0  0  0
 28 30  1  0  0  0  0
 29 30  1  0  0  0  0
M  END
>  <MODEL>
1

>  <REMARK>
 VINA RESULT:      -8.1      0.000      0.000
  Name = 
  2 active torsions:
  status: ('A' for Active; 'I' for Inactive)
    1  A    between atoms: C_11  and  C_28
    2  A    between atoms: C_28  and  C_30
                            x       y       z     vdW  Elec       q    Type
                         _______ _______ _______ _____ _____    ______ ____

>  <TORSDO>
F 2

$$$$
=
 OpenBabel11122412453D

 30 35  0  0  1  0  0  0  0  0999 V2000
  161.8400  205.7830  149.7760 C   0  0  2  0  0  3  0  0  0  0  0  0
  160.9210  203.4060  149.6260 C   0  0  0  0  0  0  0  0  0  0  0  0
  161.3240  205.5140  153.9250 O   0  0  0  0  0  0  0  0  0  0  0  0
  161.6740  206.9880  150.7180 C   0  0  2  0  0  3  0  0  0  0  0  0
  161.1060  206.0510  148.5980 O   0  0  0  0  0  0  0  0  0  0  0  0
  161.4490  209.4020  148.1620 O   0  0  0  0  0  0  0  0  0  0  0  0
  160.8290  209.7180  151.5780 C   0  0  1  0  0  3  0  0  0  0  0  0
  161.7970  208.3370  148.6540 C   0  0  0  0  0  0  0  0  0  0  0  0
  160.3930  208.6370  152.5920 C   0  0  2  0  0  3  0  0  0  0  0  0
  161.0860  206.8350  154.2220 C   0  0  0  0  0  0  0  0  0  0  0  0
  161.7860  207.0480  147.8660 C   0  0  2  0  0  3  0  0  0  0  0  0
  162.3030  208.2280  150.0680 C   0  0  1  0  0  3  0  0  0  0  0  0
  160.4910  202.2230  150.2320 C   0  0  0  0  0  3  0  0  0  0  0  0
  159.6690  209.4100  153.6800 C   0  0  0  0  0  2  0  0  0  0  0  0
  160.7680  211.0550  152.3040 C   0  0  0  0  0  2  0  0  0  0  0  0
  160.9250  203.4710  148.2370 O   0  0  0  0  0  1  0  0  0  0  0  0
  162.0470  205.3710  152.7170 C   0  0  2  0  0  3  0  0  0  0  0  0
  160.5200  202.0900  151.6160 C   0  0  0  0  0  3  0  0  0  0  0  0
  161.3540  204.4990  150.4170 C   0  0  0  0  0  0  0  0  0  0  0  0
  162.2030  206.7970  152.1430 C   0  0  2  0  0  3  0  0  0  0  0  0
  160.5720  207.1950  155.3140 O   0  0  0  0  0  0  0  0  0  0  0  0
  161.5560  207.7740  153.1700 C   0  0  1  0  0  3  0  0  0  0  0  0
  160.3180  210.7730  153.7210 C   0  0  0  0  0  2  0  0  0  0  0  0
  162.6570  210.6240  150.2510 O   0  0  0  0  0  1  0  0  0  0  0  0
  160.9960  203.1360  152.4030 C   0  0  0  0  0  3  0  0  0  0  0  0
  161.4130  204.3400  151.8210 C   0  0  0  0  0  0  0  0  0  0  0  0
  162.2110  209.4940  150.9440 C   0  0  1  0  0  3  0  0  0  0  0  0
  161.1380  207.2140  146.4980 C   0  0  0  0  0  2  0  0  0  0  0  0
  162.5320  205.5390  145.5510 O   0  0  0  0  0  1  0  0  0  0  0  0
  161.2010  205.9110  145.7270 C   0  0  0  0  0  2  0  0  0  0  0  0
  1  5  1  6  0  0  0
  1 19  1  0  0  0  0
  1  4  1  0  0  0  0
  2 13  2  0  0  0  0
  2 19  1  0  0  0  0
  3 10  1  0  0  0  0
  4 20  1  0  0  0  0
  6  8  2  0  0  0  0
  7 15  1  0  0  0  0
  7  9  1  0  0  0  0
  8 12  1  0  0  0  0
  9 22  1  0  0  0  0
  9 14  1  0  0  0  0
 10 21  2  0  0  0  0
 11  5  1  0  0  0  0
 11  8  1  0  0  0  0
 12  4  1  0  0  0  0
 12 27  1  0  0  0  0
 13 18  1  0  0  0  0
 14 23  1  0  0  0  0
 15 23  1  0  0  0  0
 16  2  1  0  0  0  0
 17  3  1  0  0  0  0
 18 25  2  0  0  0  0
 19 26  2  0  0  0  0
 20 17  1  0  0  0  0
 20 22  1  0  0  0  0
 22 10  1  0  0  0  0
 24 27  1  0  0  0  0
 26 25  1  0  0  0  0
 26 17  1  0  0  0  0
 27  7  1  0  0  0  0
 28 11  1  0  0  0  0
 29 30  1  0  0  0  0
 30 28  1  0  0  0  0
M  END
>  <MODEL>
2

>  <REMARK>
 VINA RESULT:      -7.8      2.084      7.460
  Name = 
  2 active torsions:
  status: ('A' for Active; 'I' for Inactive)
    1  A    between atoms: C_11  and  C_28
    2  A    between atoms: C_28  and  C_30
                            x       y       z     vdW  Elec       q    Type
                         _______ _______ _______ _____ _____    ______ ____

>  <TORSDO>
F 2

$$$$
=
 OpenBabel11122412453D

 30 35  0  0  1  0  0  0  0  0999 V2000
  161.2360  208.9500  153.1920 C   0  0  2  0  0  3  0  0  0  0  0  0
  160.1300  211.2350  153.4580 C   0  0  0  0  0  0  0  0  0  0  0  0
  161.7790  209.9010  149.1470 O   0  0  0  0  0  0  0  0  0  0  0  0
  161.4090  207.9170  152.0650 C   0  0  2  0  0  3  0  0  0  0  0  0
  160.2480  208.4620  154.0770 O   0  0  0  0  0  0  0  0  0  0  0  0
  160.7250  205.0990  154.0640 O   0  0  0  0  0  0  0  0  0  0  0  0
  161.0240  205.3450  150.6000 C   0  0  1  0  0  3  0  0  0  0  0  0
  161.1030  206.2430  153.8530 C   0  0  0  0  0  0  0  0  0  0  0  0
  160.7800  206.5670  149.6870 C   0  0  2  0  0  3  0  0  0  0  0  0
  161.7270  208.6410  148.5970 C   0  0  0  0  0  0  0  0  0  0  0  0
  160.7930  207.3790  154.7990 C   0  0  2  0  0  3  0  0  0  0  0  0
  161.9450  206.6070  152.6580 C   0  0  1  0  0  3  0  0  0  0  0  0
  159.7790  212.4880  152.9510 C   0  0  0  0  0  3  0  0  0  0  0  0
  160.4200  205.9660  148.3390 C   0  0  0  0  0  2  0  0  0  0  0  0
  161.2540  204.1490  149.6860 C   0  0  0  0  0  2  0  0  0  0  0  0
  159.7830  210.9360  154.7720 O   0  0  0  0  0  1  0  0  0  0  0  0
  162.1560  209.8610  150.5100 C   0  0  2  0  0  3  0  0  0  0  0  0
  160.1510  212.8550  151.6610 C   0  0  0  0  0  3  0  0  0  0  0  0
  160.8330  210.3070  152.6520 C   0  0  0  0  0  0  0  0  0  0  0  0
  162.2680  208.3640  150.8780 C   0  0  2  0  0  3  0  0  0  0  0  0
  161.5380  208.4550  147.3660 O   0  0  0  0  0  0  0  0  0  0  0  0
  161.9830  207.5540  149.5780 C   0  0  1  0  0  3  0  0  0  0  0  0
  161.1610  204.6520  148.2620 C   0  0  0  0  0  2  0  0  0  0  0  0
  162.5160  204.2890  152.2070 O   0  0  0  0  0  1  0  0  0  0  0  0
  160.8910  211.9740  150.8770 C   0  0  0  0  0  3  0  0  0  0  0  0
  161.2370  210.7030  151.3550 C   0  0  0  0  0  0  0  0  0  0  0  0
  162.1770  205.5050  151.6040 C   0  0  1  0  0  3  0  0  0  0  0  0
  159.8320  206.9620  155.9040 C   0  0  0  0  0  2  0  0  0  0  0  0
  161.6020  208.0150  157.0890 O   0  0  0  0  0  1  0  0  0  0  0  0
  160.3940  207.3420  157.2600 C   0  0  0  0  0  2  0  0  0  0  0  0
  1 19  1  6  0  0  0
  1  5  1  0  0  0  0
  2 16  1  0  0  0  0
  3 17  1  0  0  0  0
  4 12  1  0  0  0  0
  4  1  1  0  0  0  0
  5 11  1  0  0  0  0
  7 27  1  0  0  0  0
  8  6  2  0  0  0  0
  8 11  1  0  0  0  0
  9  7  1  0  0  0  0
 10  3  1  0  0  0  0
 10 22  1  0  0  0  0
 11 28  1  0  0  0  0
 12  8  1  0  0  0  0
 13  2  1  0  0  0  0
 14  9  1  0  0  0  0
 15  7  1  0  0  0  0
 17 20  1  0  0  0  0
 17 26  1  0  0  0  0
 18 13  2  0  0  0  0
 19  2  2  0  0  0  0
 20  4  1  0  0  0  0
 21 10  2  0  0  0  0
 22  9  1  0  0  0  0
 22 20  1  0  0  0  0
 23 14  1  0  0  0  0
 23 15  1  0  0  0  0
 25 26  2  0  0  0  0
 25 18  1  0  0  0  0
 26 19  1  0  0  0  0
 27 24  1  0  0  0  0
 27 12  1  0  0  0  0
 28 30  1  0  0  0  0
 29 30  1  0  0  0  0
M  END
>  <MODEL>
3

>  <REMARK>
 VINA RESULT:      -7.6      1.342      1.915
  Name = 
  2 active torsions:
  status: ('A' for Active; 'I' for Inactive)
    1  A    between atoms: C_11  and  C_28
    2  A    between atoms: C_28  and  C_30
                            x       y       z     vdW  Elec       q    Type
                         _______ _______ _______ _____ _____    ______ ____

>  <TORSDO>
F 2

$$$$
=
 OpenBabel11122412453D

 30 35  0  0  1  0  0  0  0  0999 V2000
  160.4240  212.1250  151.8390 C   0  0  2  0  0  3  0  0  0  0  0  0
  159.4360  213.6640  150.0590 C   0  0  0  0  0  0  0  0  0  0  0  0
  162.2150  209.9820  148.7160 O   0  0  0  0  0  0  0  0  0  0  0  0
  160.8610  210.6520  151.9260 C   0  0  2  0  0  3  0  0  0  0  0  0
  159.1860  212.2480  152.5120 O   0  0  0  0  0  0  0  0  0  0  0  0
  159.4300  210.0460  155.0870 O   0  0  0  0  0  0  0  0  0  0  0  0
  160.7700  207.7960  152.7870 C   0  0  1  0  0  3  0  0  0  0  0  0
  159.9260  210.7390  154.2090 C   0  0  0  0  0  0  0  0  0  0  0  0
  160.8910  207.9290  151.2530 C   0  0  2  0  0  3  0  0  0  0  0  0
  162.2510  208.7270  149.2780 C   0  0  0  0  0  0  0  0  0  0  0  0
  159.4190  212.1270  153.8990 C   0  0  2  0  0  3  0  0  0  0  0  0
  161.1090  210.2840  153.3950 C   0  0  1  0  0  3  0  0  0  0  0  0
  159.3340  214.0890  148.7320 C   0  0  0  0  0  3  0  0  0  0  0  0
  160.9140  206.4960  150.7500 C   0  0  0  0  0  2  0  0  0  0  0  0
  161.1870  206.3750  153.1420 C   0  0  0  0  0  2  0  0  0  0  0  0
  158.6930  214.3360  151.0240 O   0  0  0  0  0  1  0  0  0  0  0  0
  162.1630  210.9950  149.7030 C   0  0  2  0  0  3  0  0  0  0  0  0
  160.0990  213.4840  147.7390 C   0  0  0  0  0  3  0  0  0  0  0  0
  160.2880  212.5860  150.4030 C   0  0  0  0  0  0  0  0  0  0  0  0
  162.0640  210.2630  151.0610 C   0  0  2  0  0  3  0  0  0  0  0  0
  162.4290  207.6890  148.5890 O   0  0  0  0  0  0  0  0  0  0  0  0
  162.1310  208.7360  150.7600 C   0  0  1  0  0  3  0  0  0  0  0  0
  161.5590  205.6830  151.8480 C   0  0  0  0  0  2  0  0  0  0  0  0
  161.6410  208.4950  154.9500 O   0  0  0  0  0  1  0  0  0  0  0  0
  160.9830  212.4600  148.0720 C   0  0  0  0  0  3  0  0  0  0  0  0
  161.0870  212.0020  149.3920 C   0  0  0  0  0  0  0  0  0  0  0  0
  161.5760  208.8280  153.5930 C   0  0  1  0  0  3  0  0  0  0  0  0
  158.1460  212.4600  154.6650 C   0  0  0  0  0  2  0  0  0  0  0  0
  155.9520  213.2730  154.2510 O   0  0  0  0  0  1  0  0  0  0  0  0
  157.2820  213.4100  153.8590 C   0  0  0  0  0  2  0  0  0  0  0  0
  1 19  1  6  0  0  0
  1  4  1  0  0  0  0
  1  5  1  0  0  0  0
  2 19  1  0  0  0  0
  2 16  1  0  0  0  0
  3 10  1  0  0  0  0
  3 17  1  0  0  0  0
  4 12  1  0  0  0  0
  5 11  1  0  0  0  0
  7 15  1  0  0  0  0
  7 27  1  0  0  0  0
  8  6  2  0  0  0  0
  9  7  1  0  0  0  0
 10 22  1  0  0  0  0
 11  8  1  0  0  0  0
 11 28  1  0  0  0  0
 12 27  1  0  0  0  0
 12  8  1  0  0  0  0
 13  2  2  0  0  0  0
 14  9  1  0  0  0  0
 14 23  1  0  0  0  0
 17 20  1  0  0  0  0
 18 25  2  0  0  0  0
 18 13  1  0  0  0  0
 20  4  1  0  0  0  0
 21 10  2  0  0  0  0
 22 20  1  0  0  0  0
 22  9  1  0  0  0  0
 23 15  1  0  0  0  0
 25 26  1  0  0  0  0
 26 17  1  0  0  0  0
 26 19  2  0  0  0  0
 27 24  1  0  0  0  0
 30 29  1  0  0  0  0
 30 28  1  0  0  0  0
M  END
>  <MODEL>
4

>  <REMARK>
 VINA RESULT:      -7.0      1.543      2.307
  Name = 
  2 active torsions:
  status: ('A' for Active; 'I' for Inactive)
    1  A    between atoms: C_11  and  C_28
    2  A    between atoms: C_28  and  C_30
                            x       y       z     vdW  Elec       q    Type
                         _______ _______ _______ _____ _____    ______ ____

>  <TORSDO>
F 2

$$$$
=
 OpenBabel11122412453D

 30 35  0  0  1  0  0  0  0  0999 V2000
  161.5720  204.7650  148.7560 C   0  0  2  0  0  3  0  0  0  0  0  0
  160.4950  202.4510  148.7930 C   0  0  0  0  0  0  0  0  0  0  0  0
  161.5660  204.6210  152.9440 O   0  0  0  0  0  0  0  0  0  0  0  0
  161.6000  205.9990  149.6750 C   0  0  2  0  0  3  0  0  0  0  0  0
  160.7120  205.0560  147.6710 O   0  0  0  0  0  0  0  0  0  0  0  0
  161.2070  208.3660  147.0970 O   0  0  0  0  0  0  0  0  0  0  0  0
  161.0430  208.7960  150.5520 C   0  0  1  0  0  3  0  0  0  0  0  0
  161.5460  207.2910  147.5730 C   0  0  0  0  0  0  0  0  0  0  0  0
  160.6710  207.7690  151.6440 C   0  0  2  0  0  3  0  0  0  0  0  0
  161.4510  205.9610  153.2280 C   0  0  0  0  0  0  0  0  0  0  0  0
  161.3560  205.9890  146.8310 C   0  0  2  0  0  3  0  0  0  0  0  0
  162.2190  207.1800  148.9160 C   0  0  1  0  0  3  0  0  0  0  0  0
  160.0710  201.3120  149.4820 C   0  0  0  0  0  3  0  0  0  0  0  0
  160.1400  208.6110  152.7910 C   0  0  0  0  0  2  0  0  0  0  0  0
  161.1570  210.1500  151.2400 C   0  0  0  0  0  2  0  0  0  0  0  0
  160.3270  202.4860  147.4120 O   0  0  0  0  0  1  0  0  0  0  0  0
  162.1220  204.4050  151.6600 C   0  0  2  0  0  3  0  0  0  0  0  0
  160.2660  201.2080  150.8550 C   0  0  0  0  0  3  0  0  0  0  0  0
  161.0910  203.5300  149.4900 C   0  0  0  0  0  0  0  0  0  0  0  0
  162.2920  205.8050  151.0280 C   0  0  2  0  0  3  0  0  0  0  0  0
  161.1020  206.3770  154.3640 O   0  0  0  0  0  0  0  0  0  0  0  0
  161.8420  206.8440  152.0980 C   0  0  1  0  0  3  0  0  0  0  0  0
  160.8730  209.9290  152.7090 C   0  0  0  0  0  2  0  0  0  0  0  0
  162.7410  209.5520  148.9820 O   0  0  0  0  0  1  0  0  0  0  0  0
  160.9020  202.2370  151.5450 C   0  0  0  0  0  3  0  0  0  0  0  0
  161.3160  203.3990  150.8810 C   0  0  0  0  0  0  0  0  0  0  0  0
  162.3170  208.4690  149.7580 C   0  0  1  0  0  3  0  0  0  0  0  0
  160.5530  206.1680  145.5500 C   0  0  0  0  0  2  0  0  0  0  0  0
  159.4730  204.5290  144.2110 O   0  0  0  0  0  1  0  0  0  0  0  0
  160.7230  204.9590  144.6520 C   0  0  0  0  0  2  0  0  0  0  0  0
  1  5  1  6  0  0  0
  1 19  1  0  0  0  0
  1  4  1  0  0  0  0
  2 13  2  0  0  0  0
  2 19  1  0  0  0  0
  3 10  1  0  0  0  0
  4 20  1  0  0  0  0
  6  8  2  0  0  0  0
  7 15  1  0  0  0  0
  7  9  1  0  0  0  0
  8 12  1  0  0  0  0
  9 22  1  0  0  0  0
  9 14  1  0  0  0  0
 10 21  2  0  0  0  0
 11  8  1  0  0  0  0
 11  5  1  0  0  0  0
 12  4  1  0  0  0  0
 12 27  1  0  0  0  0
 13 18  1  0  0  0  0
 15 23  1  0  0  0  0
 16  2  1  0  0  0  0
 17  3  1  0  0  0  0
 18 25  2  0  0  0  0
 19 26  2  0  0  0  0
 20 17  1  0  0  0  0
 20 22  1  0  0  0  0
 22 10  1  0  0  0  0
 23 14  1  0  0  0  0
 24 27  1  0  0  0  0
 26 25  1  0  0  0  0
 26 17  1  0  0  0  0
 27  7  1  0  0  0  0
 28 11  1  0  0  0  0
 29 30  1  0  0  0  0
 30 28  1  0  0  0  0
M  END
>  <MODEL>
5

>  <REMARK>
 VINA RESULT:      -5.8      2.544      7.961
  Name = 
  2 active torsions:
  status: ('A' for Active; 'I' for Inactive)
    1  A    between atoms: C_11  and  C_28
    2  A    between atoms: C_28  and  C_30
                            x       y       z     vdW  Elec       q    Type
                         _______ _______ _______ _____ _____    ______ ____

>  <TORSDO>
F 2

$$$$
=
 OpenBabel11122412453D

 30 35  0  0  1  0  0  0  0  0999 V2000
  161.7910  208.9340  151.7320 C   0  0  2  0  0  3  0  0  0  0  0  0
  161.2930  206.7950  153.0330 C   0  0  0  0  0  0  0  0  0  0  0  0
  159.8880  211.0270  154.8230 O   0  0  0  0  0  0  0  0  0  0  0  0
  161.1520  210.3260  151.5830 C   0  0  2  0  0  3  0  0  0  0  0  0
  161.4890  208.1940  150.5650 O   0  0  0  0  0  0  0  0  0  0  0  0
  161.5350  210.5170  148.0870 O   0  0  0  0  0  0  0  0  0  0  0  0
  159.7190  212.5720  150.2380 C   0  0  1  0  0  3  0  0  0  0  0  0
  161.8200  210.1360  149.2150 C   0  0  0  0  0  0  0  0  0  0  0  0
  159.0960  212.2350  151.6110 C   0  0  2  0  0  3  0  0  0  0  0  0
  159.3960  212.0990  154.1170 C   0  0  0  0  0  0  0  0  0  0  0  0
  162.2510  208.7160  149.4970 C   0  0  2  0  0  3  0  0  0  0  0  0
  161.8070  211.0590  150.4050 C   0  0  1  0  0  3  0  0  0  0  0  0
  160.8320  206.1430  154.1780 C   0  0  0  0  0  3  0  0  0  0  0  0
  157.9440  213.2140  151.7540 C   0  0  0  0  0  2  0  0  0  0  0  0
  159.2370  213.9680  149.8650 C   0  0  0  0  0  2  0  0  0  0  0  0
  161.7760  206.0210  151.9830 O   0  0  0  0  0  1  0  0  0  0  0  0
  161.0020  210.4420  154.1750 C   0  0  2  0  0  3  0  0  0  0  0  0
  160.3890  206.8750  155.2760 C   0  0  0  0  0  3  0  0  0  0  0  0
  161.2780  208.2090  152.9590 C   0  0  0  0  0  0  0  0  0  0  0  0
  161.1660  211.2020  152.8400 C   0  0  2  0  0  3  0  0  0  0  0  0
  158.4890  212.8440  154.5740 O   0  0  0  0  0  0  0  0  0  0  0  0
  160.0820  212.3210  152.8170 C   0  0  1  0  0  3  0  0  0  0  0  0
  158.3590  214.4530  150.9970 C   0  0  0  0  0  2  0  0  0  0  0  0
  161.7660  213.0480  149.0100 O   0  0  0  0  0  1  0  0  0  0  0  0
  160.4210  208.2660  155.2390 C   0  0  0  0  0  3  0  0  0  0  0  0
  160.8590  208.9450  154.0930 C   0  0  0  0  0  0  0  0  0  0  0  0
  161.2530  212.4810  150.1810 C   0  0  1  0  0  3  0  0  0  0  0  0
  162.1090  207.8170  148.2770 C   0  0  0  0  0  2  0  0  0  0  0  0
  161.5260  205.5290  148.5440 O   0  0  0  0  0  1  0  0  0  0  0  0
  160.9920  206.8150  148.4910 C   0  0  0  0  0  2  0  0  0  0  0  0
  1  5  1  6  0  0  0
  1 19  1  0  0  0  0
  2 13  1  0  0  0  0
  4  1  1  0  0  0  0
  4 20  1  0  0  0  0
  6  8  2  0  0  0  0
  7  9  1  0  0  0  0
  8 11  1  0  0  0  0
  8 12  1  0  0  0  0
  9 14  1  0  0  0  0
  9 22  1  0  0  0  0
 10 21  2  0  0  0  0
 10  3  1  0  0  0  0
 11  5  1  0  0  0  0
 12  4  1  0  0  0  0
 13 18  2  0  0  0  0
 15  7  1  0  0  0  0
 15 23  1  0  0  0  0
 16  2  1  0  0  0  0
 17  3  1  0  0  0  0
 19  2  2  0  0  0  0
 19 26  1  0  0  0  0
 20 17  1  0  0  0  0
 22 20  1  0  0  0  0
 22 10  1  0  0  0  0
 23 14  1  0  0  0  0
 24 27  1  0  0  0  0
 25 18  1  0  0  0  0
 26 17  1  0  0  0  0
 26 25  2  0  0  0  0
 27  7  1  0  0  0  0
 27 12  1  0  0  0  0
 28 30  1  0  0  0  0
 28 11  1  0  0  0  0
 30 29  1  0  0  0  0
M  END
>  <MODEL>
6

>  <REMARK>
 VINA RESULT:      -5.8      1.600      6.907
  Name = 
  2 active torsions:
  status: ('A' for Active; 'I' for Inactive)
    1  A    between atoms: C_11  and  C_28
    2  A    between atoms: C_28  and  C_30
                            x       y       z     vdW  Elec       q    Type
                         _______ _______ _______ _____ _____    ______ ____

>  <TORSDO>
F 2

$$$$
=
 OpenBabel11122412453D

 30 35  0  0  1  0  0  0  0  0999 V2000
  161.4950  209.6040  152.2420 C   0  0  2  0  0  3  0  0  0  0  0  0
  161.5650  207.1120  152.7890 C   0  0  0  0  0  0  0  0  0  0  0  0
  159.2380  210.1100  155.7370 O   0  0  0  0  0  0  0  0  0  0  0  0
  160.5360  210.7790  152.5030 C   0  0  2  0  0  3  0  0  0  0  0  0
  161.3450  209.2170  150.8900 O   0  0  0  0  0  0  0  0  0  0  0  0
  160.7560  212.1390  149.2620 O   0  0  0  0  0  0  0  0  0  0  0  0
  158.5650  212.9240  151.8560 C   0  0  1  0  0  3  0  0  0  0  0  0
  161.1580  211.5040  150.2280 C   0  0  0  0  0  0  0  0  0  0  0  0
  158.0830  212.0370  153.0250 C   0  0  2  0  0  3  0  0  0  0  0  0
  158.4820  211.2000  155.3760 C   0  0  0  0  0  0  0  0  0  0  0  0
  161.9260  210.2130  150.0760 C   0  0  2  0  0  3  0  0  0  0  0  0
  160.9590  211.9780  151.6430 C   0  0  1  0  0  3  0  0  0  0  0  0
  161.3090  206.0440  153.6520 C   0  0  0  0  0  3  0  0  0  0  0  0
  156.7330  212.6180  153.4100 C   0  0  0  0  0  2  0  0  0  0  0  0
  157.7500  214.2100  151.9130 C   0  0  0  0  0  2  0  0  0  0  0  0
  162.1890  206.8430  151.5760 O   0  0  0  0  0  1  0  0  0  0  0  0
  160.4400  210.0390  154.9920 C   0  0  2  0  0  3  0  0  0  0  0  0
  160.7370  206.2690  154.9010 C   0  0  0  0  0  3  0  0  0  0  0  0
  161.2080  208.4320  153.1580 C   0  0  0  0  0  0  0  0  0  0  0  0
  160.3770  211.1950  153.9690 C   0  0  2  0  0  3  0  0  0  0  0  0
  157.4370  211.5260  155.9990 O   0  0  0  0  0  0  0  0  0  0  0  0
  159.0550  211.9730  154.2430 C   0  0  1  0  0  3  0  0  0  0  0  0
  156.8150  214.0940  153.0960 C   0  0  0  0  0  2  0  0  0  0  0  0
  160.3980  214.2330  150.9360 O   0  0  0  0  0  1  0  0  0  0  0  0
  160.4320  207.5680  155.2990 C   0  0  0  0  0  3  0  0  0  0  0  0
  160.6590  208.6540  154.4440 C   0  0  0  0  0  0  0  0  0  0  0  0
  160.0730  213.2230  151.8470 C   0  0  1  0  0  3  0  0  0  0  0  0
  161.9680  209.7340  148.6310 C   0  0  0  0  0  2  0  0  0  0  0  0
  162.8930  207.5750  148.2700 O   0  0  0  0  0  1  0  0  0  0  0  0
  161.7050  208.2420  148.5650 C   0  0  0  0  0  2  0  0  0  0  0  0
  1  5  1  6  0  0  0
  1  4  1  0  0  0  0
  1 19  1  0  0  0  0
  2 19  2  0  0  0  0
  2 13  1  0  0  0  0
  4 20  1  0  0  0  0
  6  8  2  0  0  0  0
  7 15  1  0  0  0  0
  7  9  1  0  0  0  0
  8 12  1  0  0  0  0
  9 14  1  0  0  0  0
  9 22  1  0  0  0  0
 10  3  1  0  0  0  0
 10 21  2  0  0  0  0
 11  8  1  0  0  0  0
 11  5  1  0  0  0  0
 12 27  1  0  0  0  0
 12  4  1  0  0  0  0
 13 18  2  0  0  0  0
 15 23  1  0  0  0  0
 16  2  1  0  0  0  0
 17  3  1  0  0  0  0
 18 25  1  0  0  0  0
 19 26  1  0  0  0  0
 20 22  1  0  0  0  0
 20 17  1  0  0  0  0
 22 10  1  0  0  0  0
 23 14  1  0  0  0  0
 24 27  1  0  0  0  0
 26 17  1  0  0  0  0
 26 25  2  0  0  0  0
 27  7  1  0  0  0  0
 28 11  1  0  0  0  0
 29 30  1  0  0  0  0
 30 28  1  0  0  0  0
M  END
>  <MODEL>
7

>  <REMARK>
 VINA RESULT:      -5.4      1.803      7.176
  Name = 
  2 active torsions:
  status: ('A' for Active; 'I' for Inactive)
    1  A    between atoms: C_11  and  C_28
    2  A    between atoms: C_28  and  C_30
                            x       y       z     vdW  Elec       q    Type
                         _______ _______ _______ _____ _____    ______ ____

>  <TORSDO>
F 2

$$$$
=
 OpenBabel11122412453D

 30 35  0  0  1  0  0  0  0  0999 V2000
  162.1200  207.6720  149.3990 C   0  0  2  0  0  3  0  0  0  0  0  0
  161.3060  206.1130  147.5490 C   0  0  0  0  0  0  0  0  0  0  0  0
  161.5820  204.4800  152.0590 O   0  0  0  0  0  0  0  0  0  0  0  0
  161.8930  207.8230  150.9130 C   0  0  2  0  0  3  0  0  0  0  0  0
  161.3840  208.6900  148.7490 O   0  0  0  0  0  0  0  0  0  0  0  0
  161.5850  211.3310  150.8750 O   0  0  0  0  0  0  0  0  0  0  0  0
  160.9240  209.0710  153.4440 C   0  0  1  0  0  3  0  0  0  0  0  0
  161.9740  210.2480  150.4610 C   0  0  0  0  0  0  0  0  0  0  0  0
  160.5270  207.5810  153.3520 C   0  0  2  0  0  3  0  0  0  0  0  0
  161.2860  205.1740  153.2080 C   0  0  0  0  0  0  0  0  0  0  0  0
  162.0260  209.9240  148.9860 C   0  0  2  0  0  3  0  0  0  0  0  0
  162.4740  209.1640  151.3800 C   0  0  1  0  0  3  0  0  0  0  0  0
  160.9230  204.8470  147.0990 C   0  0  0  0  0  3  0  0  0  0  0  0
  159.7610  207.3120  154.6350 C   0  0  0  0  0  2  0  0  0  0  0  0
  160.7990  209.4710  154.9090 C   0  0  0  0  0  2  0  0  0  0  0  0
  161.3180  207.1610  146.6340 O   0  0  0  0  0  1  0  0  0  0  0  0
  162.3210  205.2700  151.1460 C   0  0  2  0  0  3  0  0  0  0  0  0
  160.9470  203.7570  147.9630 C   0  0  0  0  0  3  0  0  0  0  0  0
  161.6850  206.3090  148.8990 C   0  0  0  0  0  0  0  0  0  0  0  0
  162.4190  206.6750  151.7820 C   0  0  2  0  0  3  0  0  0  0  0  0
  160.7470  204.6230  154.2040 O   0  0  0  0  0  0  0  0  0  0  0  0
  161.7220  206.5950  153.1730 C   0  0  1  0  0  3  0  0  0  0  0  0
  160.3510  208.2430  155.6700 C   0  0  0  0  0  2  0  0  0  0  0  0
  162.7210  210.7000  153.2460 O   0  0  0  0  0  1  0  0  0  0  0  0
  161.3700  203.9240  149.2790 C   0  0  0  0  0  3  0  0  0  0  0  0
  161.7390  205.1880  149.7600 C   0  0  0  0  0  0  0  0  0  0  0  0
  162.3200  209.4070  152.8950 C   0  0  1  0  0  3  0  0  0  0  0  0
  161.3820  211.0100  148.1350 C   0  0  0  0  0  2  0  0  0  0  0  0
  161.8820  213.3320  148.2170 O   0  0  0  0  0  1  0  0  0  0  0  0
  162.3920  212.0970  147.8210 C   0  0  0  0  0  2  0  0  0  0  0  0
  1  5  1  6  0  0  0
  1  4  1  0  0  0  0
  2 19  1  0  0  0  0
  3 10  1  0  0  0  0
  4 12  1  0  0  0  0
  4 20  1  0  0  0  0
  5 11  1  0  0  0  0
  7 15  1  0  0  0  0
  8  6  2  0  0  0  0
  8 12  1  0  0  0  0
  9  7  1  0  0  0  0
  9 14  1  0  0  0  0
 10 21  2  0  0  0  0
 11  8  1  0  0  0  0
 12 27  1  0  0  0  0
 13  2  2  0  0  0  0
 13 18  1  0  0  0  0
 14 23  1  0  0  0  0
 15 23  1  0  0  0  0
 16  2  1  0  0  0  0
 17 20  1  0  0  0  0
 17  3  1  0  0  0  0
 18 25  2  0  0  0  0
 19  1  1  0  0  0  0
 19 26  2  0  0  0  0
 20 22  1  0  0  0  0
 22 10  1  0  0  0  0
 22  9  1  0  0  0  0
 25 26  1  0  0  0  0
 26 17  1  0  0  0  0
 27 24  1  0  0  0  0
 27  7  1  0  0  0  0
 28 11  1  0  0  0  0
 30 28  1  0  0  0  0
 30 29  1  0  0  0  0
M  END
>  <MODEL>
8

>  <REMARK>
 VINA RESULT:      -5.3      2.147      6.304
  Name = 
  2 active torsions:
  status: ('A' for Active; 'I' for Inactive)
    1  A    between atoms: C_11  and  C_28
    2  A    between atoms: C_28  and  C_30
                            x       y       z     vdW  Elec       q    Type
                         _______ _______ _______ _____ _____    ______ ____

>  <TORSDO>
F 2

$$$$
=
 OpenBabel11122412453D

 30 35  0  0  1  0  0  0  0  0999 V2000
  160.8250  210.2150  150.7910 C   0  0  2  0  0  3  0  0  0  0  0  0
  161.3550  212.2020  149.2800 C   0  0  0  0  0  0  0  0  0  0  0  0
  159.5900  212.9890  153.6790 O   0  0  0  0  0  0  0  0  0  0  0  0
  160.7820  209.9430  152.3050 C   0  0  2  0  0  3  0  0  0  0  0  0
  162.0020  209.6200  150.2800 O   0  0  0  0  0  0  0  0  0  0  0  0
  162.3750  206.8060  152.1430 O   0  0  0  0  0  0  0  0  0  0  0  0
  161.6160  208.7710  154.9200 C   0  0  1  0  0  3  0  0  0  0  0  0
  161.7020  207.7310  151.7100 C   0  0  0  0  0  0  0  0  0  0  0  0
  161.4390  210.3040  155.0090 C   0  0  2  0  0  3  0  0  0  0  0  0
  159.8860  212.2880  154.8240 C   0  0  0  0  0  0  0  0  0  0  0  0
  161.8320  208.2190  150.2860 C   0  0  2  0  0  3  0  0  0  0  0  0
  160.6620  208.4320  152.5440 C   0  0  1  0  0  3  0  0  0  0  0  0
  161.3210  213.5720  149.0070 C   0  0  0  0  0  3  0  0  0  0  0  0
  161.7750  210.6400  156.4510 C   0  0  0  0  0  2  0  0  0  0  0  0
  161.5830  208.2400  156.3470 C   0  0  0  0  0  2  0  0  0  0  0  0
  161.9180  211.3560  148.3300 O   0  0  0  0  0  1  0  0  0  0  0  0
  159.3980  212.1260  152.5730 C   0  0  2  0  0  3  0  0  0  0  0  0
  160.7200  214.4530  149.9000 C   0  0  0  0  0  3  0  0  0  0  0  0
  160.8140  211.7000  150.4880 C   0  0  0  0  0  0  0  0  0  0  0  0
  159.7040  210.7010  153.0870 C   0  0  2  0  0  3  0  0  0  0  0  0
  159.9680  212.8470  155.9490 O   0  0  0  0  0  0  0  0  0  0  0  0
  160.0250  210.8240  154.6060 C   0  0  1  0  0  3  0  0  0  0  0  0
  161.3790  209.4280  157.2610 C   0  0  0  0  0  2  0  0  0  0  0  0
  160.6330  206.6620  154.2080 O   0  0  0  0  0  1  0  0  0  0  0  0
  160.1340  213.9660  151.0660 C   0  0  0  0  0  3  0  0  0  0  0  0
  160.1730  212.5990  151.3720 C   0  0  0  0  0  0  0  0  0  0  0  0
  160.5870  208.0490  154.0360 C   0  0  1  0  0  3  0  0  0  0  0  0
  162.9900  207.5570  149.5530 C   0  0  0  0  0  2  0  0  0  0  0  0
  161.2080  207.3240  147.9990 O   0  0  0  0  0  1  0  0  0  0  0  0
  162.5920  207.2350  148.1260 C   0  0  0  0  0  2  0  0  0  0  0  0
  1  5  1  1  0  0  0
  1  4  1  0  0  0  0
  2 19  1  0  0  0  0
  3 10  1  0  0  0  0
  4 12  1  0  0  0  0
  4 20  1  0  0  0  0
  5 11  1  0  0  0  0
  7  9  1  0  0  0  0
  7 15  1  0  0  0  0
  8  6  2  0  0  0  0
  8 12  1  0  0  0  0
  9 14  1  0  0  0  0
 10 21  2  0  0  0  0
 11  8  1  0  0  0  0
 12 27  1  0  0  0  0
 13  2  2  0  0  0  0
 13 18  1  0  0  0  0
 14 23  1  0  0  0  0
 15 23  1  0  0  0  0
 16  2  1  0  0  0  0
 17 20  1  0  0  0  0
 17  3  1  0  0  0  0
 18 25  2  0  0  0  0
 19  1  1  0  0  0  0
 19 26  2  0  0  0  0
 20 22  1  0  0  0  0
 22 10  1  0  0  0  0
 22  9  1  0  0  0  0
 25 26  1  0  0  0  0
 26 17  1  0  0  0  0
 27 24  1  0  0  0  0
 27  7  1  0  0  0  0
 28 11  1  0  0  0  0
 29 30  1  0  0  0  0
 30 28  1  0  0  0  0
M  END
>  <MODEL>
9

>  <REMARK>
 VINA RESULT:      -5.2      1.694      5.473
  Name = 
  2 active torsions:
  status: ('A' for Active; 'I' for Inactive)
    1  A    between atoms: C_11  and  C_28
    2  A    between atoms: C_28  and  C_30
                            x       y       z     vdW  Elec       q    Type
                         _______ _______ _______ _____ _____    ______ ____

>  <TORSDO>
F 2

$$$$
