=
 OpenBabel11122413153D

 31 35  0  0  1  0  0  0  0  0999 V2000
  160.6070  207.5460  155.1410 C   0  0  0  0  0  0  0  0  0  0  0  0
  161.6760  208.0480  151.5650 N   0  0  0  0  0  0  0  0  0  0  0  0
  161.3850  206.8380  150.8220 C   0  0  0  0  0  0  0  0  0  0  0  0
  159.8660  212.9640  151.1410 O   0  0  0  0  0  0  0  0  0  0  0  0
  160.6350  212.7230  150.1730 C   0  0  0  0  0  0  0  0  0  0  0  0
  160.8710  204.4600  150.7330 C   0  0  0  0  0  0  0  0  0  0  0  0
  161.1600  208.2760  152.8930 C   0  0  0  0  0  0  0  0  0  0  0  0
  160.1020  208.8170  155.4330 C   0  0  0  0  0  3  0  0  0  0  0  0
  161.1490  205.6140  151.4690 C   0  0  0  0  0  3  0  0  0  0  0  0
  161.3640  210.4470  151.0860 C   0  0  0  0  0  0  0  0  0  0  0  0
  160.5790  206.5740  156.0840 F   0  0  0  0  0  0  0  0  0  0  0  0
  161.5420  208.1750  148.7050 C   0  0  0  0  0  2  0  0  0  0  0  0
  160.5790  202.9450  151.5590 Cl  0  0  0  0  0  0  0  0  0  0  0  0
  160.7010  210.5850  152.2000 N   0  0  0  0  0  0  0  0  0  0  0  0
  162.2430  209.2330  150.8860 C   0  0  2  0  0  3  0  0  0  0  0  0
  161.3860  211.5020  150.1140 N   0  0  0  0  0  2  0  0  0  0  0  0
  161.1320  207.2750  153.8750 C   0  0  0  0  0  3  0  0  0  0  0  0
  160.8200  204.5160  149.3390 C   0  0  0  0  0  3  0  0  0  0  0  0
  160.6710  209.5590  153.2000 C   0  0  0  0  0  0  0  0  0  0  0  0
  160.1330  209.8230  154.4630 C   0  0  0  0  0  3  0  0  0  0  0  0
  162.6170  208.9800  149.4170 C   0  0  0  0  0  2  0  0  0  0  0  0
  161.3440  206.8790  149.4150 C   0  0  0  0  0  0  0  0  0  0  0  0
  161.0520  205.7270  148.6810 C   0  0  0  0  0  3  0  0  0  0  0  0
  158.9510  213.0490  146.8030 C   0  0  1  0  0  3  0  0  0  0  0  0
  159.4060  214.4530  148.8350 C   0  0  0  0  0  2  0  0  0  0  0  0
  162.5820  212.4060  147.9150 C   0  0  0  0  0  1  0  0  0  0  0  0
  158.0110  212.2240  146.1870 O   0  0  0  0  0  1  0  0  0  0  0  0
  158.3880  213.5570  148.1280 C   0  0  0  0  0  2  0  0  0  0  0  0
  161.2720  213.1510  147.7330 C   0  0  2  0  0  3  0  0  0  0  0  0
  160.7370  213.7270  149.0580 C   0  0  2  0  0  3  0  0  0  0  0  0
  160.2400  212.2660  147.0360 C   0  0  0  0  0  2  0  0  0  0  0  0
  1  8  1  0  0  0  0
  1 11  1  0  0  0  0
  2  7  1  0  0  0  0
  3  9  1  0  0  0  0
  3  2  1  0  0  0  0
  5  4  2  0  0  0  0
  6  9  2  0  0  0  0
  6 13  1  0  0  0  0
  7 19  2  0  0  0  0
  7 17  1  0  0  0  0
 10 14  2  0  0  0  0
 12 22  1  0  0  0  0
 12 21  1  0  0  0  0
 14 19  1  0  0  0  0
 15 21  1  6  0  0  0
 15 10  1  0  0  0  0
 15  2  1  0  0  0  0
 16  5  1  0  0  0  0
 16 10  1  0  0  0  0
 17  1  2  0  0  0  0
 18  6  1  0  0  0  0
 19 20  1  0  0  0  0
 20  8  2  0  0  0  0
 22  3  2  0  0  0  0
 23 18  2  0  0  0  0
 23 22  1  0  0  0  0
 24 27  1  1  0  0  0
 24 31  1  0  0  0  0
 24 28  1  0  0  0  0
 25 30  1  0  0  0  0
 28 25  1  0  0  0  0
 29 26  1  1  0  0  0
 29 30  1  0  0  0  0
 30  5  1  1  0  0  0
 31 29  1  0  0  0  0
M  END
>  <MODEL>
1

>  <REMARK>
 VINA RESULT:      -9.3      0.000      0.000
  Name = 
  1 active torsions:
  status: ('A' for Active; 'I' for Inactive)
    1  A    between atoms: C_5  and  C_30
                            x       y       z     vdW  Elec       q    Type
                         _______ _______ _______ _____ _____    ______ ____

>  <TORSDO>
F 1

$$$$
=
 OpenBabel11122413153D

 31 35  0  0  1  0  0  0  0  0999 V2000
  161.1680  202.1700  150.8430 C   0  0  0  0  0  0  0  0  0  0  0  0
  161.9500  205.5970  149.4910 N   0  0  0  0  0  0  0  0  0  0  0  0
  161.5040  205.6630  148.1140 C   0  0  0  0  0  0  0  0  0  0  0  0
  160.4870  208.2270  153.7990 O   0  0  0  0  0  0  0  0  0  0  0  0
  161.1470  208.9970  153.0510 C   0  0  0  0  0  0  0  0  0  0  0  0
  160.8050  204.5910  146.0430 C   0  0  0  0  0  0  0  0  0  0  0  0
  161.5730  204.5160  150.3700 C   0  0  0  0  0  0  0  0  0  0  0  0
  160.7890  202.4950  152.1480 C   0  0  0  0  0  3  0  0  0  0  0  0
  161.2340  204.5030  147.3690 C   0  0  0  0  0  3  0  0  0  0  0  0
  161.7790  207.1450  151.4040 C   0  0  0  0  0  0  0  0  0  0  0  0
  161.1500  200.8790  150.4350 F   0  0  0  0  0  0  0  0  0  0  0  0
  161.5730  208.1660  148.2770 C   0  0  0  0  0  2  0  0  0  0  0  0
  160.4740  203.1320  145.1340 Cl  0  0  0  0  0  0  0  0  0  0  0  0
  161.2310  206.2030  152.1190 N   0  0  0  0  0  0  0  0  0  0  0  0
  162.5430  206.7810  150.1500 C   0  0  2  0  0  3  0  0  0  0  0  0
  161.7940  208.5000  151.8720 N   0  0  0  0  0  2  0  0  0  0  0  0
  161.5560  203.1770  149.9540 C   0  0  0  0  0  3  0  0  0  0  0  0
  160.6350  205.8410  145.4450 C   0  0  0  0  0  3  0  0  0  0  0  0
  161.2110  204.8350  151.6910 C   0  0  0  0  0  0  0  0  0  0  0  0
  160.8100  203.8270  152.5730 C   0  0  0  0  0  3  0  0  0  0  0  0
  162.7640  207.9680  149.2000 C   0  0  0  0  0  2  0  0  0  0  0  0
  161.3410  206.9180  147.4950 C   0  0  0  0  0  0  0  0  0  0  0  0
  160.8980  207.0040  146.1730 C   0  0  0  0  0  3  0  0  0  0  0  0
  160.1080  211.0110  156.0780 C   0  0  1  0  0  3  0  0  0  0  0  0
  162.1250  210.6970  154.6150 C   0  0  0  0  0  2  0  0  0  0  0  0
  158.9260  210.9080  152.4130 C   0  0  0  0  0  1  0  0  0  0  0  0
  159.4940  210.6010  157.2600 O   0  0  0  0  0  1  0  0  0  0  0  0
  161.4360  210.2770  155.9150 C   0  0  0  0  0  2  0  0  0  0  0  0
  159.8560  211.1370  153.5910 C   0  0  2  0  0  3  0  0  0  0  0  0
  161.2250  210.4580  153.3980 C   0  0  2  0  0  3  0  0  0  0  0  0
  159.1860  210.7150  154.8990 C   0  0  0  0  0  2  0  0  0  0  0  0
  1  8  1  0  0  0  0
  2 15  1  0  0  0  0
  2  7  1  0  0  0  0
  3  2  1  0  0  0  0
  5  4  2  0  0  0  0
  6  9  1  0  0  0  0
  7 19  2  0  0  0  0
  8 20  2  0  0  0  0
  9  3  2  0  0  0  0
 10 16  1  0  0  0  0
 10 14  2  0  0  0  0
 11  1  1  0  0  0  0
 12 21  1  0  0  0  0
 13  6  1  0  0  0  0
 15 21  1  6  0  0  0
 15 10  1  0  0  0  0
 16  5  1  0  0  0  0
 17  7  1  0  0  0  0
 17  1  2  0  0  0  0
 18  6  2  0  0  0  0
 18 23  1  0  0  0  0
 19 14  1  0  0  0  0
 19 20  1  0  0  0  0
 22  3  1  0  0  0  0
 22 12  1  0  0  0  0
 23 22  2  0  0  0  0
 24 27  1  1  0  0  0
 25 28  1  0  0  0  0
 28 24  1  0  0  0  0
 29 26  1  6  0  0  0
 29 31  1  0  0  0  0
 30  5  1  1  0  0  0
 30 29  1  0  0  0  0
 30 25  1  0  0  0  0
 31 24  1  0  0  0  0
M  END
>  <MODEL>
2

>  <REMARK>
 VINA RESULT:      -7.8      3.816      5.791
  Name = 
  1 active torsions:
  status: ('A' for Active; 'I' for Inactive)
    1  A    between atoms: C_5  and  C_30
                            x       y       z     vdW  Elec       q    Type
                         _______ _______ _______ _____ _____    ______ ____

>  <TORSDO>
F 1

$$$$
=
 OpenBabel11122413153D

 31 35  0  0  1  0  0  0  0  0999 V2000
  161.2140  205.8890  153.7200 C   0  0  0  0  0  0  0  0  0  0  0  0
  162.0340  207.1180  150.2560 N   0  0  0  0  0  0  0  0  0  0  0  0
  161.6260  206.1090  149.2990 C   0  0  0  0  0  0  0  0  0  0  0  0
  160.4560  212.0680  151.0470 O   0  0  0  0  0  0  0  0  0  0  0  0
  161.1360  212.0170  149.9880 C   0  0  0  0  0  0  0  0  0  0  0  0
  160.9840  203.8270  148.7480 C   0  0  0  0  0  0  0  0  0  0  0  0
  161.6330  207.0700  151.6410 C   0  0  0  0  0  0  0  0  0  0  0  0
  160.7990  207.0820  154.3180 C   0  0  0  0  0  3  0  0  0  0  0  0
  161.3770  204.7820  149.6870 C   0  0  0  0  0  3  0  0  0  0  0  0
  161.8120  209.5730  150.3290 C   0  0  0  0  0  0  0  0  0  0  0  0
  161.2060  204.7370  154.4320 F   0  0  0  0  0  0  0  0  0  0  0  0
  161.6920  207.8680  147.5110 C   0  0  0  0  0  2  0  0  0  0  0  0
  160.6770  202.1790  149.2530 Cl  0  0  0  0  0  0  0  0  0  0  0  0
  161.2440  209.4890  151.4980 N   0  0  0  0  0  0  0  0  0  0  0  0
  162.6100  208.4010  149.8000 C   0  0  2  0  0  3  0  0  0  0  0  0
  161.8160  210.8130  149.6070 N   0  0  0  0  0  2  0  0  0  0  0  0
  161.6270  205.8810  152.3850 C   0  0  0  0  0  3  0  0  0  0  0  0
  160.8310  204.1860  147.4070 C   0  0  0  0  0  3  0  0  0  0  0  0
  161.2350  208.2710  152.2550 C   0  0  0  0  0  0  0  0  0  0  0  0
  160.8090  208.2730  153.5870 C   0  0  0  0  0  3  0  0  0  0  0  0
  162.8580  208.4610  148.2850 C   0  0  0  0  0  2  0  0  0  0  0  0
  161.4810  206.4560  147.9420 C   0  0  0  0  0  0  0  0  0  0  0  0
  161.0750  205.5010  147.0060 C   0  0  0  0  0  3  0  0  0  0  0  0
  159.5390  212.9370  146.6870 C   0  0  1  0  0  3  0  0  0  0  0  0
  159.8370  213.9120  148.9810 C   0  0  0  0  0  2  0  0  0  0  0  0
  163.1690  212.2910  147.8020 C   0  0  0  0  0  1  0  0  0  0  0  0
  158.6760  212.2050  145.8730 O   0  0  0  0  0  1  0  0  0  0  0  0
  158.9030  213.1240  148.0620 C   0  0  0  0  0  2  0  0  0  0  0  0
  161.8190  212.9790  147.7190 C   0  0  2  0  0  3  0  0  0  0  0  0
  161.2060  213.2350  149.1090 C   0  0  2  0  0  3  0  0  0  0  0  0
  160.8690  212.1990  146.8100 C   0  0  0  0  0  2  0  0  0  0  0  0
  1  8  1  0  0  0  0
  1 11  1  0  0  0  0
  2  7  1  0  0  0  0
  3  9  1  0  0  0  0
  3  2  1  0  0  0  0
  5  4  2  0  0  0  0
  6 13  1  0  0  0  0
  6  9  2  0  0  0  0
  7 19  2  0  0  0  0
  7 17  1  0  0  0  0
 10 14  2  0  0  0  0
 12 22  1  0  0  0  0
 12 21  1  0  0  0  0
 14 19  1  0  0  0  0
 15 21  1  6  0  0  0
 15  2  1  0  0  0  0
 15 10  1  0  0  0  0
 16  5  1  0  0  0  0
 16 10  1  0  0  0  0
 17  1  2  0  0  0  0
 18  6  1  0  0  0  0
 19 20  1  0  0  0  0
 20  8  2  0  0  0  0
 22  3  2  0  0  0  0
 23 18  2  0  0  0  0
 23 22  1  0  0  0  0
 24 27  1  6  0  0  0
 24 31  1  0  0  0  0
 24 28  1  0  0  0  0
 25 30  1  0  0  0  0
 28 25  1  0  0  0  0
 29 26  1  1  0  0  0
 29 30  1  0  0  0  0
 30  5  1  6  0  0  0
 31 29  1  0  0  0  0
M  END
>  <MODEL>
3

>  <REMARK>
 VINA RESULT:      -7.7      1.191      1.549
  Name = 
  1 active torsions:
  status: ('A' for Active; 'I' for Inactive)
    1  A    between atoms: C_5  and  C_30
                            x       y       z     vdW  Elec       q    Type
                         _______ _______ _______ _____ _____    ______ ____

>  <TORSDO>
F 1

$$$$
=
 OpenBabel11122413153D

 31 35  0  0  1  0  0  0  0  0999 V2000
  161.2430  205.4230  153.5200 C   0  0  0  0  0  0  0  0  0  0  0  0
  161.8370  207.7500  150.6190 N   0  0  0  0  0  0  0  0  0  0  0  0
  161.6040  207.0220  149.3880 C   0  0  0  0  0  0  0  0  0  0  0  0
  159.4470  211.9110  152.7600 O   0  0  0  0  0  0  0  0  0  0  0  0
  160.1240  212.2910  151.7680 C   0  0  0  0  0  0  0  0  0  0  0  0
  161.3550  204.9370  148.1560 C   0  0  0  0  0  0  0  0  0  0  0  0
  161.4530  207.2250  151.9070 C   0  0  0  0  0  0  0  0  0  0  0  0
  160.6340  206.2990  154.4240 C   0  0  0  0  0  3  0  0  0  0  0  0
  161.5830  205.6180  149.3540 C   0  0  0  0  0  3  0  0  0  0  0  0
  161.2040  210.0010  151.4030 C   0  0  0  0  0  0  0  0  0  0  0  0
  161.4310  204.1260  153.8590 F   0  0  0  0  0  0  0  0  0  0  0  0
  161.3690  209.2220  148.2050 C   0  0  0  0  0  2  0  0  0  0  0  0
  161.3320  203.1870  148.1360 Cl  0  0  0  0  0  0  0  0  0  0  0  0
  160.6600  209.4790  152.4670 N   0  0  0  0  0  0  0  0  0  0  0  0
  162.1870  209.1870  150.5910 C   0  0  2  0  0  3  0  0  0  0  0  0
  160.9970  211.3830  151.0810 N   0  0  0  0  0  2  0  0  0  0  0  0
  161.6490  205.8830  152.2640 C   0  0  0  0  0  3  0  0  0  0  0  0
  161.1420  205.6520  146.9750 C   0  0  0  0  0  3  0  0  0  0  0  0
  160.8580  208.1060  152.8280 C   0  0  0  0  0  0  0  0  0  0  0  0
  160.4400  207.6400  154.0790 C   0  0  0  0  0  3  0  0  0  0  0  0
  162.4180  209.7370  149.1760 C   0  0  0  0  0  2  0  0  0  0  0  0
  161.4000  207.7310  148.1890 C   0  0  0  0  0  0  0  0  0  0  0  0
  161.1590  207.0490  146.9940 C   0  0  0  0  0  3  0  0  0  0  0  0
  157.3310  214.2120  150.0920 C   0  0  1  0  0  3  0  0  0  0  0  0
  158.8800  214.4510  152.0540 C   0  0  0  0  0  2  0  0  0  0  0  0
  160.8530  213.1170  148.9800 C   0  0  0  0  0  1  0  0  0  0  0  0
  156.0630  213.7900  149.6980 O   0  0  0  0  0  1  0  0  0  0  0  0
  157.4890  214.0090  151.5970 C   0  0  0  0  0  2  0  0  0  0  0  0
  159.7880  213.8540  149.7720 C   0  0  2  0  0  3  0  0  0  0  0  0
  159.9850  213.7100  151.2930 C   0  0  2  0  0  3  0  0  0  0  0  0
  158.3900  213.4180  149.3330 C   0  0  0  0  0  2  0  0  0  0  0  0
  1 11  1  0  0  0  0
  1  8  1  0  0  0  0
  2  7  1  0  0  0  0
  3  2  1  0  0  0  0
  5  4  2  0  0  0  0
  6  9  2  0  0  0  0
  7 17  1  0  0  0  0
  7 19  2  0  0  0  0
  9  3  1  0  0  0  0
 10 14  2  0  0  0  0
 12 21  1  0  0  0  0
 13  6  1  0  0  0  0
 14 19  1  0  0  0  0
 15 21  1  6  0  0  0
 15  2  1  0  0  0  0
 15 10  1  0  0  0  0
 16 10  1  0  0  0  0
 16  5  1  0  0  0  0
 17  1  2  0  0  0  0
 18 23  2  0  0  0  0
 18  6  1  0  0  0  0
 19 20  1  0  0  0  0
 20  8  2  0  0  0  0
 22 12  1  0  0  0  0
 22  3  2  0  0  0  0
 23 22  1  0  0  0  0
 24 27  1  6  0  0  0
 24 28  1  0  0  0  0
 28 25  1  0  0  0  0
 29 26  1  6  0  0  0
 29 30  1  0  0  0  0
 30  5  1  6  0  0  0
 30 25  1  0  0  0  0
 31 29  1  0  0  0  0
 31 24  1  0  0  0  0
M  END
>  <MODEL>
4

>  <REMARK>
 VINA RESULT:      -6.8      1.833      2.397
  Name = 
  1 active torsions:
  status: ('A' for Active; 'I' for Inactive)
    1  A    between atoms: C_5  and  C_30
                            x       y       z     vdW  Elec       q    Type
                         _______ _______ _______ _____ _____    ______ ____

>  <TORSDO>
F 1

$$$$
