=
 OpenBabel11122413133D

 31 35  0  0  1  0  0  0  0  0999 V2000
  161.3290  206.7930  153.0260 C   0  0  0  0  0  0  0  0  0  0  0  0
  159.5370  210.0650  153.7460 C   0  0  2  0  0  3  0  0  0  0  0  0
  160.0930  210.5520  155.1090 C   0  0  1  0  0  3  0  0  0  0  0  0
  161.9550  210.8290  156.7430 C   0  0  1  0  0  3  0  0  0  0  0  0
  160.3950  209.0320  153.0600 C   0  0  0  0  0  0  0  0  0  0  0  0
  162.0740  207.1170  151.8890 C   0  0  0  0  0  3  0  0  0  0  0  0
  161.6070  210.4550  155.2980 C   0  0  0  0  0  2  0  0  0  0  0  0
  160.4010  211.7650  152.1340 C   0  0  2  0  0  3  0  0  0  0  0  0
  161.4210  205.5220  153.5770 O   0  0  0  0  0  1  0  0  0  0  0  0
  158.3500  212.1780  154.9800 O   0  0  0  0  0  0  0  0  0  0  0  0
  163.4580  210.7940  156.9260 C   0  0  0  0  0  1  0  0  0  0  0  0
  161.0110  210.6910  151.2300 C   0  0  0  0  0  2  0  0  0  0  0  0
  159.1340  211.2240  152.8070 C   0  0  2  0  0  3  0  0  0  0  0  0
  160.4930  207.7480  153.6100 C   0  0  0  0  0  3  0  0  0  0  0  0
  161.4270  212.2250  157.1030 C   0  0  0  0  0  2  0  0  0  0  0  0
  161.1560  209.3620  151.9150 C   0  0  0  0  0  0  0  0  0  0  0  0
  161.9810  208.3960  151.3320 C   0  0  0  0  0  3  0  0  0  0  0  0
  158.3640  212.3370  153.5740 C   0  0  0  0  0  2  0  0  0  0  0  0
  159.6830  211.9980  155.3650 C   0  0  1  0  0  3  0  0  0  0  0  0
  159.9270  212.3450  156.8230 C   0  0  0  0  0  2  0  0  0  0  0  0
  160.1430  213.0320  151.3270 C   0  0  0  0  0  2  0  0  0  0  0  0
  161.4670  212.3530  149.4790 O   0  0  0  0  0  0  0  0  0  0  0  0
  160.3390  212.7560  149.8690 C   0  0  0  0  0  0  0  0  0  0  0  0
  157.3000  213.5940  146.9890 N   0  0  0  0  0  0  0  0  0  0  0  0
  159.6570  213.2210  147.5080 C   0  0  0  0  0  2  0  0  0  0  0  0
  157.4990  212.4490  150.3240 O   0  0  0  0  0  0  0  0  0  0  0  0
  156.4070  214.4520  146.2350 C   0  0  0  0  0  1  0  0  0  0  0  0
  158.6460  214.1370  146.8200 C   0  0  0  0  0  2  0  0  0  0  0  0
  157.9000  213.0140  149.2730 C   0  0  0  0  0  0  0  0  0  0  0  0
  159.2950  213.0150  148.9120 N   0  0  0  0  0  0  0  0  0  0  0  0
  156.9160  213.7230  148.3940 C   0  0  0  0  0  2  0  0  0  0  0  0
  1  9  1  0  0  0  0
  1 14  1  0  0  0  0
  2  5  1  6  0  0  0
  2  3  1  0  0  0  0
  3  7  1  6  0  0  0
  3 19  1  0  0  0  0
  4 11  1  6  0  0  0
  4 15  1  0  0  0  0
  5 14  2  0  0  0  0
  6  1  2  0  0  0  0
  7  4  1  0  0  0  0
  8 21  1  6  0  0  0
  8 13  1  0  0  0  0
 10 19  1  0  0  0  0
 12 16  1  0  0  0  0
 12  8  1  0  0  0  0
 13 18  1  1  0  0  0
 13  2  1  0  0  0  0
 16  5  1  0  0  0  0
 17  6  1  0  0  0  0
 17 16  2  0  0  0  0
 18 10  1  0  0  0  0
 19 20  1  1  0  0  0
 20 15  1  0  0  0  0
 22 23  2  0  0  0  0
 23 21  1  0  0  0  0
 24 31  1  0  0  0  0
 25 30  1  0  0  0  0
 27 24  1  0  0  0  0
 28 24  1  0  0  0  0
 28 25  1  0  0  0  0
 29 26  2  0  0  0  0
 30 29  1  0  0  0  0
 30 23  1  0  0  0  0
 31 29  1  0  0  0  0
M  END
>  <MODEL>
1

>  <REMARK>
 VINA RESULT:      -5.0      0.000      0.000
  Name = 
  2 active torsions:
  status: ('A' for Active; 'I' for Inactive)
    1  A    between atoms: C_5  and  C_16
    2  A    between atoms: C_10  and  C_16
                            x       y       z     vdW  Elec       q    Type
                         _______ _______ _______ _____ _____    ______ ____

>  <TORSDO>
F 2

$$$$
=
 OpenBabel11122413133D

 31 35  0  0  1  0  0  0  0  0999 V2000
  162.4630  213.0110  144.2510 C   0  0  0  0  0  0  0  0  0  0  0  0
  162.0670  213.6450  140.5260 C   0  0  2  0  0  3  0  0  0  0  0  0
  162.4560  212.3130  139.8340 C   0  0  1  0  0  3  0  0  0  0  0  0
  162.5000  209.8220  139.7420 C   0  0  1  0  0  3  0  0  0  0  0  0
  161.7350  213.5080  141.9900 C   0  0  0  0  0  0  0  0  0  0  0  0
  161.1460  213.1250  144.7040 C   0  0  0  0  0  3  0  0  0  0  0  0
  161.8910  211.0350  140.4540 C   0  0  0  0  0  2  0  0  0  0  0  0
  159.6220  213.8410  140.0530 C   0  0  2  0  0  3  0  0  0  0  0  0
  163.4800  212.7070  145.1450 O   0  0  0  0  0  1  0  0  0  0  0  0
  162.3490  213.5920  137.8210 O   0  0  0  0  0  0  0  0  0  0  0  0
  161.9020  208.5520  140.3080 C   0  0  0  0  0  1  0  0  0  0  0  0
  159.2870  214.0380  141.5340 C   0  0  0  0  0  2  0  0  0  0  0  0
  160.9990  214.4430  139.7450 C   0  0  2  0  0  3  0  0  0  0  0  0
  162.7560  213.2010  142.8990 C   0  0  0  0  0  3  0  0  0  0  0  0
  162.2500  209.8760  138.2280 C   0  0  0  0  0  2  0  0  0  0  0  0
  160.4020  213.6140  142.4480 C   0  0  0  0  0  0  0  0  0  0  0  0
  160.1210  213.4320  143.8050 C   0  0  0  0  0  3  0  0  0  0  0  0
  161.2990  214.4530  138.2180 C   0  0  0  0  0  2  0  0  0  0  0  0
  162.0500  212.3380  138.3650 C   0  0  1  0  0  3  0  0  0  0  0  0
  162.7350  211.1990  137.6290 C   0  0  0  0  0  2  0  0  0  0  0  0
  158.5150  214.4360  139.1910 C   0  0  0  0  0  2  0  0  0  0  0  0
  158.5050  212.5890  137.7000 O   0  0  0  0  0  0  0  0  0  0  0  0
  157.8180  213.3470  138.4360 C   0  0  0  0  0  0  0  0  0  0  0  0
  153.5660  212.9520  138.4640 N   0  0  0  0  0  0  0  0  0  0  0  0
  155.7110  212.5030  137.3850 C   0  0  0  0  0  2  0  0  0  0  0  0
  156.1210  213.8980  140.7120 O   0  0  0  0  0  0  0  0  0  0  0  0
  152.2060  213.3790  138.1950 C   0  0  0  0  0  1  0  0  0  0  0  0
  154.2910  213.0360  137.1980 C   0  0  0  0  0  2  0  0  0  0  0  0
  155.5970  213.6750  139.5890 C   0  0  0  0  0  0  0  0  0  0  0  0
  156.3860  213.2070  138.4790 N   0  0  0  0  0  0  0  0  0  0  0  0
  154.1340  213.9280  139.3930 C   0  0  0  0  0  2  0  0  0  0  0  0
  1  6  1  0  0  0  0
  1  9  1  0  0  0  0
  2  5  1  1  0  0  0
  3  7  1  1  0  0  0
  3  2  1  0  0  0  0
  4 11  1  1  0  0  0
  4  7  1  0  0  0  0
  5 16  2  0  0  0  0
  5 14  1  0  0  0  0
  8 21  1  6  0  0  0
  8 12  1  0  0  0  0
 10 18  1  0  0  0  0
 10 19  1  0  0  0  0
 12 16  1  0  0  0  0
 13 18  1  6  0  0  0
 13  8  1  0  0  0  0
 13  2  1  0  0  0  0
 14  1  2  0  0  0  0
 15  4  1  0  0  0  0
 16 17  1  0  0  0  0
 17  6  2  0  0  0  0
 19 20  1  6  0  0  0
 19  3  1  0  0  0  0
 20 15  1  0  0  0  0
 22 23  2  0  0  0  0
 23 30  1  0  0  0  0
 23 21  1  0  0  0  0
 24 31  1  0  0  0  0
 25 30  1  0  0  0  0
 27 24  1  0  0  0  0
 28 25  1  0  0  0  0
 28 24  1  0  0  0  0
 29 26  2  0  0  0  0
 30 29  1  0  0  0  0
 31 29  1  0  0  0  0
M  END
>  <MODEL>
2

>  <REMARK>
 VINA RESULT:      -4.4      9.085     13.114
  Name = 
  2 active torsions:
  status: ('A' for Active; 'I' for Inactive)
    1  A    between atoms: C_5  and  C_16
    2  A    between atoms: C_10  and  C_16
                            x       y       z     vdW  Elec       q    Type
                         _______ _______ _______ _____ _____    ______ ____

>  <TORSDO>
F 2

$$$$
=
 OpenBabel11122413133D

 31 35  0  0  1  0  0  0  0  0999 V2000
  162.3950  212.2160  148.7120 C   0  0  0  0  0  0  0  0  0  0  0  0
  162.4920  209.0530  150.8160 C   0  0  2  0  0  3  0  0  0  0  0  0
  161.6890  209.3840  152.1010 C   0  0  1  0  0  3  0  0  0  0  0  0
  159.7960  210.5030  153.2740 C   0  0  1  0  0  3  0  0  0  0  0  0
  162.2300  209.9890  149.6630 C   0  0  0  0  0  0  0  0  0  0  0  0
  161.6600  211.7990  147.5990 C   0  0  0  0  0  3  0  0  0  0  0  0
  160.3680  210.1280  151.9030 C   0  0  0  0  0  2  0  0  0  0  0  0
  161.0680  207.3480  149.6750 C   0  0  2  0  0  3  0  0  0  0  0  0
  162.8430  213.5270  148.7970 O   0  0  0  0  0  1  0  0  0  0  0  0
  162.5300  207.2940  152.8900 O   0  0  0  0  0  0  0  0  0  0  0  0
  158.4580  211.1880  153.0930 C   0  0  0  0  0  1  0  0  0  0  0  0
  161.0610  208.1390  148.3640 C   0  0  0  0  0  2  0  0  0  0  0  0
  162.3970  207.5660  150.4090 C   0  0  2  0  0  3  0  0  0  0  0  0
  162.6780  211.3150  149.7410 C   0  0  0  0  0  3  0  0  0  0  0  0
  159.6220  209.2660  154.1680 C   0  0  0  0  0  2  0  0  0  0  0  0
  161.4790  209.5710  148.5420 C   0  0  0  0  0  0  0  0  0  0  0  0
  161.2100  210.4780  147.5130 C   0  0  0  0  0  3  0  0  0  0  0  0
  162.5390  206.6280  151.6420 C   0  0  0  0  0  2  0  0  0  0  0  0
  161.3950  208.1110  152.8870 C   0  0  1  0  0  3  0  0  0  0  0  0
  160.9270  208.4750  154.2850 C   0  0  0  0  0  2  0  0  0  0  0  0
  160.7880  205.8770  149.3900 C   0  0  0  0  0  2  0  0  0  0  0  0
  162.3250  206.2630  147.6250 O   0  0  0  0  0  0  0  0  0  0  0  0
  161.5820  205.4270  148.2040 C   0  0  0  0  0  0  0  0  0  0  0  0
  161.1530  201.5100  146.5600 N   0  0  0  0  0  0  0  0  0  0  0  0
  161.8210  203.8430  146.2840 C   0  0  0  0  0  2  0  0  0  0  0  0
  161.1000  203.0300  149.7480 O   0  0  0  0  0  0  0  0  0  0  0  0
  160.4360  200.4310  145.9090 C   0  0  0  0  0  1  0  0  0  0  0  0
  161.0020  202.6880  145.7080 C   0  0  0  0  0  2  0  0  0  0  0  0
  161.0290  202.9810  148.4920 C   0  0  0  0  0  0  0  0  0  0  0  0
  161.4500  204.0940  147.6790 N   0  0  0  0  0  0  0  0  0  0  0  0
  160.4720  201.7590  147.8290 C   0  0  0  0  0  2  0  0  0  0  0  0
  1  9  1  0  0  0  0
  1 14  1  0  0  0  0
  2  5  1  6  0  0  0
  2  3  1  0  0  0  0
  3  7  1  6  0  0  0
  3 19  1  0  0  0  0
  4 11  1  6  0  0  0
  4 15  1  0  0  0  0
  5 14  2  0  0  0  0
  6  1  2  0  0  0  0
  7  4  1  0  0  0  0
  8 21  1  6  0  0  0
  8 13  1  0  0  0  0
 12 16  1  0  0  0  0
 12  8  1  0  0  0  0
 13  2  1  0  0  0  0
 13 18  1  1  0  0  0
 15 20  1  0  0  0  0
 16  5  1  0  0  0  0
 17  6  1  0  0  0  0
 17 16  2  0  0  0  0
 18 10  1  0  0  0  0
 19 10  1  0  0  0  0
 19 20  1  1  0  0  0
 22 23  2  0  0  0  0
 23 21  1  0  0  0  0
 24 31  1  0  0  0  0
 25 30  1  0  0  0  0
 27 24  1  0  0  0  0
 28 25  1  0  0  0  0
 28 24  1  0  0  0  0
 29 26  2  0  0  0  0
 30 23  1  0  0  0  0
 30 29  1  0  0  0  0
 31 29  1  0  0  0  0
M  END
>  <MODEL>
3

>  <REMARK>
 VINA RESULT:      -3.8      4.562      7.645
  Name = 
  2 active torsions:
  status: ('A' for Active; 'I' for Inactive)
    1  A    between atoms: C_5  and  C_16
    2  A    between atoms: C_10  and  C_16
                            x       y       z     vdW  Elec       q    Type
                         _______ _______ _______ _____ _____    ______ ____

>  <TORSDO>
F 2

$$$$
=
 OpenBabel11122413133D

 31 35  0  0  1  0  0  0  0  0999 V2000
  161.2850  200.5650  148.6360 C   0  0  0  0  0  0  0  0  0  0  0  0
  162.2400  204.1720  147.9220 C   0  0  2  0  0  3  0  0  0  0  0  0
  161.8200  204.4300  146.4510 C   0  0  1  0  0  3  0  0  0  0  0  0
  160.2650  204.1140  144.5290 C   0  0  1  0  0  3  0  0  0  0  0  0
  161.5810  202.9720  148.5530 C   0  0  0  0  0  0  0  0  0  0  0  0
  160.2950  200.7170  149.6100 C   0  0  0  0  0  3  0  0  0  0  0  0
  160.4430  203.9100  146.0380 C   0  0  0  0  0  2  0  0  0  0  0  0
  160.6880  205.6330  149.2240 C   0  0  2  0  0  3  0  0  0  0  0  0
  161.6310  199.2970  148.1900 O   0  0  0  0  0  1  0  0  0  0  0  0
  163.0180  206.4790  146.7080 O   0  0  0  0  0  0  0  0  0  0  0  0
  158.8820  203.6570  144.1180 C   0  0  0  0  0  1  0  0  0  0  0  0
  160.2380  204.4700  150.1130 C   0  0  0  0  0  2  0  0  0  0  0  0
  162.1510  205.4360  148.8070 C   0  0  2  0  0  3  0  0  0  0  0  0
  161.9250  201.6890  148.1080 C   0  0  0  0  0  3  0  0  0  0  0  0
  160.4570  205.5860  144.1350 C   0  0  0  0  0  2  0  0  0  0  0  0
  160.5740  203.1250  149.5310 C   0  0  0  0  0  0  0  0  0  0  0  0
  159.9460  201.9930  150.0610 C   0  0  0  0  0  3  0  0  0  0  0  0
  162.7190  206.6850  148.0760 C   0  0  0  0  0  2  0  0  0  0  0  0
  161.8690  205.9220  146.1380 C   0  0  1  0  0  3  0  0  0  0  0  0
  161.7990  206.1270  144.6340 C   0  0  0  0  0  2  0  0  0  0  0  0
  160.4560  206.9540  149.9490 C   0  0  0  0  0  2  0  0  0  0  0  0
  161.2060  205.7210  151.8330 O   0  0  0  0  0  0  0  0  0  0  0  0
  160.9680  206.8610  151.3520 C   0  0  0  0  0  0  0  0  0  0  0  0
  161.3300  210.3060  153.8490 N   0  0  0  0  0  0  0  0  0  0  0  0
  161.1190  207.8830  153.6300 C   0  0  0  0  0  2  0  0  0  0  0  0
  161.7380  209.4940  150.4350 O   0  0  0  0  0  0  0  0  0  0  0  0
  160.8310  211.4450  154.5950 C   0  0  0  0  0  1  0  0  0  0  0  0
  160.5740  209.1420  154.3040 C   0  0  0  0  0  2  0  0  0  0  0  0
  161.3220  209.3470  151.6150 C   0  0  0  0  0  0  0  0  0  0  0  0
  161.1140  208.0350  152.1730 N   0  0  0  0  0  0  0  0  0  0  0  0
  161.0090  210.5540  152.4440 C   0  0  0  0  0  2  0  0  0  0  0  0
  1  6  1  0  0  0  0
  2  5  1  1  0  0  0
  2 13  1  0  0  0  0
  3  7  1  1  0  0  0
  3  2  1  0  0  0  0
  4 11  1  1  0  0  0
  4  7  1  0  0  0  0
  5 16  2  0  0  0  0
  6 17  2  0  0  0  0
  8 21  1  1  0  0  0
  8 12  1  0  0  0  0
  9  1  1  0  0  0  0
 10 18  1  0  0  0  0
 13 18  1  6  0  0  0
 13  8  1  0  0  0  0
 14  5  1  0  0  0  0
 14  1  2  0  0  0  0
 15  4  1  0  0  0  0
 15 20  1  0  0  0  0
 16 17  1  0  0  0  0
 16 12  1  0  0  0  0
 19 20  1  6  0  0  0
 19  3  1  0  0  0  0
 19 10  1  0  0  0  0
 21 23  1  0  0  0  0
 23 22  2  0  0  0  0
 23 30  1  0  0  0  0
 24 28  1  0  0  0  0
 24 27  1  0  0  0  0
 25 28  1  0  0  0  0
 26 29  2  0  0  0  0
 29 30  1  0  0  0  0
 29 31  1  0  0  0  0
 30 25  1  0  0  0  0
 31 24  1  0  0  0  0
M  END
>  <MODEL>
4

>  <REMARK>
 VINA RESULT:      -3.6      5.386      9.192
  Name = 
  2 active torsions:
  status: ('A' for Active; 'I' for Inactive)
    1  A    between atoms: C_5  and  C_16
    2  A    between atoms: C_10  and  C_16
                            x       y       z     vdW  Elec       q    Type
                         _______ _______ _______ _____ _____    ______ ____

>  <TORSDO>
F 2

$$$$
=
 OpenBabel11122413133D

 31 35  0  0  1  0  0  0  0  0999 V2000
  161.0790  205.1410  144.8820 C   0  0  0  0  0  0  0  0  0  0  0  0
  160.3550  205.0840  148.6110 C   0  0  2  0  0  3  0  0  0  0  0  0
  160.3840  203.5870  149.0170 C   0  0  1  0  0  3  0  0  0  0  0  0
  161.3140  201.2820  148.8260 C   0  0  1  0  0  3  0  0  0  0  0  0
  161.0290  205.3820  147.2960 C   0  0  0  0  0  0  0  0  0  0  0  0
  162.3070  205.8060  144.8370 C   0  0  0  0  0  3  0  0  0  0  0  0
  161.5320  202.7520  148.4510 C   0  0  0  0  0  2  0  0  0  0  0  0
  162.3490  206.0310  149.7780 C   0  0  2  0  0  3  0  0  0  0  0  0
  160.4910  204.6890  143.7080 O   0  0  0  0  0  1  0  0  0  0  0  0
  159.5260  204.3720  151.1010 O   0  0  0  0  0  0  0  0  0  0  0  0
  162.4760  200.4540  148.3210 C   0  0  0  0  0  1  0  0  0  0  0  0
  162.8970  206.6370  148.4840 C   0  0  0  0  0  2  0  0  0  0  0  0
  160.8160  206.0270  149.7440 C   0  0  2  0  0  3  0  0  0  0  0  0
  160.4420  204.9280  146.1070 C   0  0  0  0  0  3  0  0  0  0  0  0
  161.1800  201.1050  150.3450 C   0  0  0  0  0  2  0  0  0  0  0  0
  162.2750  206.0460  147.2500 C   0  0  0  0  0  0  0  0  0  0  0  0
  162.8990  206.2620  146.0180 C   0  0  0  0  0  3  0  0  0  0  0  0
  160.2060  205.6120  151.1140 C   0  0  0  0  0  2  0  0  0  0  0  0
  160.4100  203.4480  150.5350 C   0  0  1  0  0  3  0  0  0  0  0  0
  160.0890  202.0140  150.9190 C   0  0  0  0  0  2  0  0  0  0  0  0
  162.9090  206.7860  150.9780 C   0  0  0  0  0  2  0  0  0  0  0  0
  162.1390  208.8390  150.0690 O   0  0  0  0  0  0  0  0  0  0  0  0
  162.2380  208.1190  151.0990 C   0  0  0  0  0  0  0  0  0  0  0  0
  160.9520  209.6610  154.8670 N   0  0  0  0  0  0  0  0  0  0  0  0
  161.6090  210.0570  152.5480 C   0  0  0  0  0  2  0  0  0  0  0  0
  161.1520  206.5250  153.2540 O   0  0  0  0  0  0  0  0  0  0  0  0
  161.1420  210.1490  156.2200 C   0  0  0  0  0  1  0  0  0  0  0  0
  161.8320  210.4510  154.0080 C   0  0  0  0  0  2  0  0  0  0  0  0
  161.4260  207.7370  153.4580 C   0  0  0  0  0  0  0  0  0  0  0  0
  161.7820  208.6140  152.3710 N   0  0  0  0  0  0  0  0  0  0  0  0
  161.4110  208.2730  154.8560 C   0  0  0  0  0  2  0  0  0  0  0  0
  1 14  1  0  0  0  0
  2  5  1  6  0  0  0
  2  3  1  0  0  0  0
  2 13  1  0  0  0  0
  3  7  1  6  0  0  0
  3 19  1  0  0  0  0
  4 11  1  1  0  0  0
  4 15  1  0  0  0  0
  6  1  2  0  0  0  0
  6 17  1  0  0  0  0
  7  4  1  0  0  0  0
  8 21  1  1  0  0  0
  9  1  1  0  0  0  0
 10 18  1  0  0  0  0
 12  8  1  0  0  0  0
 13  8  1  0  0  0  0
 13 18  1  1  0  0  0
 14  5  2  0  0  0  0
 15 20  1  0  0  0  0
 16  5  1  0  0  0  0
 16 12  1  0  0  0  0
 17 16  2  0  0  0  0
 19 20  1  6  0  0  0
 19 10  1  0  0  0  0
 21 23  1  0  0  0  0
 22 23  2  0  0  0  0
 23 30  1  0  0  0  0
 24 27  1  0  0  0  0
 25 28  1  0  0  0  0
 26 29  2  0  0  0  0
 28 24  1  0  0  0  0
 29 31  1  0  0  0  0
 30 25  1  0  0  0  0
 30 29  1  0  0  0  0
 31 24  1  0  0  0  0
M  END
>  <MODEL>
5

>  <REMARK>
 VINA RESULT:      -2.3      4.853      8.621
  Name = 
  2 active torsions:
  status: ('A' for Active; 'I' for Inactive)
    1  A    between atoms: C_5  and  C_16
    2  A    between atoms: C_10  and  C_16
                            x       y       z     vdW  Elec       q    Type
                         _______ _______ _______ _____ _____    ______ ____

>  <TORSDO>
F 2

$$$$
