=
 OpenBabel11122412463D

 30 35  0  0  1  0  0  0  0  0999 V2000
  161.0370  205.7290  149.8890 C   0  0  0  0  0  0  0  0  0  0  0  0
  161.0540  203.2320  149.6230 C   0  0  0  0  0  0  0  0  0  0  0  0
  160.9910  205.3920  153.9850 N   0  0  0  0  0  0  0  0  0  0  0  0
  161.0880  206.8710  150.7420 C   0  0  0  0  0  0  0  0  0  0  0  0
  160.8600  205.9660  148.4140 C   0  0  0  0  0  2  0  0  0  0  0  0
  161.6750  209.4420  148.2140 O   0  0  0  0  0  0  0  0  0  0  0  0
  160.4370  209.6740  151.8890 C   0  0  1  0  0  3  0  0  0  0  0  0
  161.5620  208.3010  148.7430 C   0  0  0  0  0  0  0  0  0  0  0  0
  160.4300  208.9130  153.2030 C   0  0  2  0  0  3  0  0  0  0  0  0
  160.8860  206.7060  154.2710 C   0  0  0  0  0  0  0  0  0  0  0  0
  161.7710  207.0710  147.9130 C   0  0  2  0  0  3  0  0  0  0  0  0
  161.3320  208.1760  150.1580 N   0  0  0  0  0  0  0  0  0  0  0  0
  161.0800  201.9680  150.2190 C   0  0  0  0  0  3  0  0  0  0  0  0
  161.2120  209.7770  154.1730 C   0  0  0  0  0  2  0  0  0  0  0  0
  160.4950  211.1400  152.2830 C   0  0  0  0  0  2  0  0  0  0  0  0
  161.0370  203.2890  148.2350 O   0  0  0  0  0  1  0  0  0  0  0  0
  161.0660  205.3740  152.6450 C   0  0  0  0  0  0  0  0  0  0  0  0
  161.1110  201.8320  151.6050 C   0  0  0  0  0  3  0  0  0  0  0  0
  161.0570  204.4040  150.4280 C   0  0  0  0  0  0  0  0  0  0  0  0
  161.0240  206.6460  152.1370 C   0  0  0  0  0  0  0  0  0  0  0  0
  160.6520  207.1810  155.6660 C   0  0  0  0  0  1  0  0  0  0  0  0
  160.9000  207.5160  153.1750 N   0  0  0  0  0  0  0  0  0  0  0  0
  160.9360  211.2010  153.7390 C   0  0  0  0  0  2  0  0  0  0  0  0
  162.9820  209.2790  151.6280 C   0  0  0  0  0  1  0  0  0  0  0  0
  161.1160  202.9650  152.4130 C   0  0  0  0  0  3  0  0  0  0  0  0
  161.0950  204.2410  151.8410 C   0  0  0  0  0  0  0  0  0  0  0  0
  161.6060  209.3540  150.9690 C   0  0  2  0  0  3  0  0  0  0  0  0
  161.4790  207.3370  146.5110 N   0  0  0  0  0  2  0  0  0  0  0  0
  161.5030  205.4740  144.9620 C   0  0  0  0  0  1  0  0  0  0  0  0
  160.7030  206.2140  146.0140 C   0  0  0  0  0  2  0  0  0  0  0  0
  1 19  2  0  0  0  0
  1  4  1  0  0  0  0
  2 13  2  0  0  0  0
  2 19  1  0  0  0  0
  3 10  2  0  0  0  0
  4 20  2  0  0  0  0
  5  1  1  0  0  0  0
  6  8  2  0  0  0  0
  7 15  1  1  0  0  0
  7  9  1  0  0  0  0
  8 12  1  0  0  0  0
  9 14  1  1  0  0  0
 10 21  1  0  0  0  0
 11 28  1  6  0  0  0
 11  5  1  0  0  0  0
 11  8  1  0  0  0  0
 12  4  1  0  0  0  0
 12 27  1  0  0  0  0
 13 18  1  0  0  0  0
 15 23  1  0  0  0  0
 16  2  1  0  0  0  0
 17  3  1  0  0  0  0
 18 25  2  0  0  0  0
 19 26  1  0  0  0  0
 20 17  1  0  0  0  0
 20 22  1  0  0  0  0
 22  9  1  0  0  0  0
 22 10  1  0  0  0  0
 23 14  1  0  0  0  0
 26 25  1  0  0  0  0
 26 17  2  0  0  0  0
 27 24  1  1  0  0  0
 27  7  1  0  0  0  0
 29 30  1  0  0  0  0
 30 28  1  0  0  0  0
M  END
>  <MODEL>
1

>  <REMARK>
 VINA RESULT:      -8.4      0.000      0.000
  Name = 
  2 active torsions:
  status: ('A' for Active; 'I' for Inactive)
    1  A    between atoms: C_11  and  N_28
    2  A    between atoms: N_28  and  C_30
                            x       y       z     vdW  Elec       q    Type
                         _______ _______ _______ _____ _____    ______ ____

>  <TORSDO>
F 2

$$$$
=
 OpenBabel11122412463D

 30 35  0  0  1  0  0  0  0  0999 V2000
  161.7330  208.4860  151.6710 C   0  0  0  0  0  0  0  0  0  0  0  0
  161.4270  209.2240  154.0520 C   0  0  0  0  0  0  0  0  0  0  0  0
  160.7980  204.6050  152.6500 N   0  0  0  0  0  0  0  0  0  0  0  0
  161.6490  207.4570  150.6860 C   0  0  0  0  0  0  0  0  0  0  0  0
  162.2720  209.8220  151.2410 C   0  0  0  0  0  2  0  0  0  0  0  0
  162.0180  209.5100  147.6880 O   0  0  0  0  0  0  0  0  0  0  0  0
  162.4080  205.6880  148.2600 C   0  0  1  0  0  3  0  0  0  0  0  0
  161.8470  209.1990  148.8990 C   0  0  0  0  0  0  0  0  0  0  0  0
  162.0100  204.5690  149.2070 C   0  0  2  0  0  3  0  0  0  0  0  0
  161.0180  204.0570  151.4370 C   0  0  0  0  0  0  0  0  0  0  0  0
  161.6630  210.2740  149.9260 C   0  0  2  0  0  3  0  0  0  0  0  0
  161.7290  207.8160  149.2830 N   0  0  0  0  0  0  0  0  0  0  0  0
  161.0900  208.8990  155.3680 C   0  0  0  0  0  3  0  0  0  0  0  0
  161.1560  203.6270  148.3810 C   0  0  0  0  0  2  0  0  0  0  0  0
  162.4680  205.0390  146.8870 C   0  0  0  0  0  2  0  0  0  0  0  0
  161.7670  210.5440  153.7810 O   0  0  0  0  0  1  0  0  0  0  0  0
  161.0280  205.9110  152.4430 C   0  0  0  0  0  0  0  0  0  0  0  0
  160.7270  207.5990  155.7130 C   0  0  0  0  0  3  0  0  0  0  0  0
  161.4050  208.2260  153.0390 C   0  0  0  0  0  0  0  0  0  0  0  0
  161.3620  206.1470  151.1360 C   0  0  0  0  0  0  0  0  0  0  0  0
  160.9930  202.5780  151.2370 C   0  0  0  0  0  1  0  0  0  0  0  0
  161.3680  204.9580  150.4760 N   0  0  0  0  0  0  0  0  0  0  0  0
  161.7200  203.7160  146.9780 C   0  0  0  0  0  2  0  0  0  0  0  0
  159.9590  206.5210  148.1500 C   0  0  0  0  0  1  0  0  0  0  0  0
  160.6960  206.6060  154.7380 C   0  0  0  0  0  3  0  0  0  0  0  0
  161.0250  206.9070  153.4120 C   0  0  0  0  0  0  0  0  0  0  0  0
  161.4460  206.8660  148.2180 C   0  0  2  0  0  3  0  0  0  0  0  0
  162.3000  211.5120  149.4990 N   0  0  0  0  0  2  0  0  0  0  0  0
  161.4900  213.0630  147.8230 C   0  0  0  0  0  1  0  0  0  0  0  0
  161.2380  212.4530  149.1860 C   0  0  0  0  0  2  0  0  0  0  0  0
  1 19  1  0  0  0  0
  2 13  1  0  0  0  0
  4 20  1  0  0  0  0
  4  1  2  0  0  0  0
  5  1  1  0  0  0  0
  6  8  2  0  0  0  0
  7 15  1  6  0  0  0
  7  9  1  0  0  0  0
  8 12  1  0  0  0  0
  8 11  1  0  0  0  0
  9 14  1  6  0  0  0
  9 22  1  0  0  0  0
 10  3  2  0  0  0  0
 11 28  1  6  0  0  0
 11  5  1  0  0  0  0
 12  4  1  0  0  0  0
 13 18  2  0  0  0  0
 15 23  1  0  0  0  0
 16  2  1  0  0  0  0
 17  3  1  0  0  0  0
 17 26  1  0  0  0  0
 19 26  1  0  0  0  0
 19  2  2  0  0  0  0
 20 17  2  0  0  0  0
 21 10  1  0  0  0  0
 22 20  1  0  0  0  0
 22 10  1  0  0  0  0
 23 14  1  0  0  0  0
 25 18  1  0  0  0  0
 26 25  2  0  0  0  0
 27 24  1  1  0  0  0
 27  7  1  0  0  0  0
 27 12  1  0  0  0  0
 29 30  1  0  0  0  0
 30 28  1  0  0  0  0
M  END
>  <MODEL>
2

>  <REMARK>
 VINA RESULT:      -7.7      2.060      5.600
  Name = 
  2 active torsions:
  status: ('A' for Active; 'I' for Inactive)
    1  A    between atoms: C_11  and  N_28
    2  A    between atoms: N_28  and  C_30
                            x       y       z     vdW  Elec       q    Type
                         _______ _______ _______ _____ _____    ______ ____

>  <TORSDO>
F 2

$$$$
=
 OpenBabel11122412463D

 30 35  0  0  1  0  0  0  0  0999 V2000
  161.2080  207.9090  151.4160 C   0  0  0  0  0  0  0  0  0  0  0  0
  161.6320  210.3340  150.9140 C   0  0  0  0  0  0  0  0  0  0  0  0
  161.9370  206.8720  147.5060 N   0  0  0  0  0  0  0  0  0  0  0  0
  161.2000  206.5510  150.9800 C   0  0  0  0  0  0  0  0  0  0  0  0
  160.7380  208.1970  152.8150 C   0  0  0  0  0  2  0  0  0  0  0  0
  160.8630  204.9150  154.2280 O   0  0  0  0  0  0  0  0  0  0  0  0
  160.2610  203.6220  150.6150 C   0  0  1  0  0  3  0  0  0  0  0  0
  161.0520  205.8210  153.3690 C   0  0  0  0  0  0  0  0  0  0  0  0
  160.6200  203.9000  149.1650 C   0  0  2  0  0  3  0  0  0  0  0  0
  161.6470  205.5590  147.6130 C   0  0  0  0  0  0  0  0  0  0  0  0
  161.3320  207.2240  153.8160 C   0  0  2  0  0  3  0  0  0  0  0  0
  161.0980  205.4950  151.9680 N   0  0  0  0  0  0  0  0  0  0  0  0
  161.9890  211.3160  149.9870 C   0  0  0  0  0  3  0  0  0  0  0  0
  161.3900  202.6790  148.7000 C   0  0  0  0  0  2  0  0  0  0  0  0
  160.1200  202.1120  150.7030 C   0  0  0  0  0  2  0  0  0  0  0  0
  161.3640  210.7420  152.2150 O   0  0  0  0  0  1  0  0  0  0  0  0
  161.7810  207.3250  148.7590 C   0  0  0  0  0  0  0  0  0  0  0  0
  162.2840  210.9810  148.6680 C   0  0  0  0  0  3  0  0  0  0  0  0
  161.5620  208.9690  150.5220 C   0  0  0  0  0  0  0  0  0  0  0  0
  161.4210  206.3070  149.6040 C   0  0  0  0  0  0  0  0  0  0  0  0
  161.5770  204.6790  146.4090 C   0  0  0  0  0  1  0  0  0  0  0  0
  161.3230  205.1630  148.8760 N   0  0  0  0  0  0  0  0  0  0  0  0
  160.7890  201.5210  149.4700 C   0  0  0  0  0  2  0  0  0  0  0  0
  162.7510  203.7840  151.3050 C   0  0  0  0  0  1  0  0  0  0  0  0
  162.2250  209.6510  148.2610 C   0  0  0  0  0  3  0  0  0  0  0  0
  161.8730  208.6490  149.1710 C   0  0  0  0  0  0  0  0  0  0  0  0
  161.2910  204.0920  151.6320 C   0  0  2  0  0  3  0  0  0  0  0  0
  160.7580  207.4730  155.1310 N   0  0  0  0  0  2  0  0  0  0  0  0
  161.9740  208.8530  156.7070 C   0  0  0  0  0  1  0  0  0  0  0  0
  161.0800  208.8450  155.4850 C   0  0  0  0  0  2  0  0  0  0  0  0
  1  5  1  0  0  0  0
  2 16  1  0  0  0  0
  3 10  2  0  0  0  0
  3 17  1  0  0  0  0
  4  1  1  0  0  0  0
  4 12  1  0  0  0  0
  5 11  1  0  0  0  0
  7 15  1  6  0  0  0
  7 27  1  0  0  0  0
  8 11  1  0  0  0  0
  8  6  2  0  0  0  0
  9 14  1  1  0  0  0
  9  7  1  0  0  0  0
 10 22  1  0  0  0  0
 11 28  1  1  0  0  0
 12  8  1  0  0  0  0
 13  2  2  0  0  0  0
 14 23  1  0  0  0  0
 17 26  2  0  0  0  0
 17 20  1  0  0  0  0
 18 13  1  0  0  0  0
 19  2  1  0  0  0  0
 19  1  2  0  0  0  0
 20  4  2  0  0  0  0
 21 10  1  0  0  0  0
 22  9  1  0  0  0  0
 22 20  1  0  0  0  0
 23 15  1  0  0  0  0
 25 18  2  0  0  0  0
 25 26  1  0  0  0  0
 26 19  1  0  0  0  0
 27 24  1  6  0  0  0
 27 12  1  0  0  0  0
 28 30  1  0  0  0  0
 30 29  1  0  0  0  0
M  END
>  <MODEL>
3

>  <REMARK>
 VINA RESULT:      -7.0      1.995      7.188
  Name = 
  2 active torsions:
  status: ('A' for Active; 'I' for Inactive)
    1  A    between atoms: C_11  and  N_28
    2  A    between atoms: N_28  and  C_30
                            x       y       z     vdW  Elec       q    Type
                         _______ _______ _______ _____ _____    ______ ____

>  <TORSDO>
F 2

$$$$
=
 OpenBabel11122412463D

 30 35  0  0  1  0  0  0  0  0999 V2000
  161.1540  207.5910  150.9260 C   0  0  0  0  0  0  0  0  0  0  0  0
  161.4000  205.3380  149.8440 C   0  0  0  0  0  0  0  0  0  0  0  0
  160.7300  205.8720  154.6360 N   0  0  0  0  0  0  0  0  0  0  0  0
  161.0280  208.3730  152.1120 C   0  0  0  0  0  0  0  0  0  0  0  0
  161.1060  208.3090  149.6060 C   0  0  0  0  0  2  0  0  0  0  0  0
  161.6530  211.6750  150.6810 O   0  0  0  0  0  0  0  0  0  0  0  0
  160.0420  210.5850  154.0430 C   0  0  1  0  0  3  0  0  0  0  0  0
  161.5810  210.4190  150.7790 C   0  0  0  0  0  0  0  0  0  0  0  0
  159.9660  209.4200  155.0160 C   0  0  2  0  0  3  0  0  0  0  0  0
  160.4910  207.0030  155.3300 C   0  0  0  0  0  0  0  0  0  0  0  0
  161.9700  209.5570  149.6170 C   0  0  2  0  0  3  0  0  0  0  0  0
  161.2230  209.8080  152.0330 N   0  0  0  0  0  0  0  0  0  0  0  0
  161.4690  203.9480  149.9810 C   0  0  0  0  0  3  0  0  0  0  0  0
  160.5760  209.9330  156.3060 C   0  0  0  0  0  2  0  0  0  0  0  0
  159.9420  211.8290  154.9090 C   0  0  0  0  0  2  0  0  0  0  0  0
  161.5160  205.8650  148.5640 O   0  0  0  0  0  1  0  0  0  0  0  0
  160.9390  206.3160  153.3870 C   0  0  0  0  0  0  0  0  0  0  0  0
  161.3720  203.3480  151.2340 C   0  0  0  0  0  3  0  0  0  0  0  0
  161.2280  206.1630  150.9890 C   0  0  0  0  0  0  0  0  0  0  0  0
  160.8450  207.6820  153.3330 C   0  0  0  0  0  0  0  0  0  0  0  0
  160.0820  206.9620  156.7650 C   0  0  0  0  0  1  0  0  0  0  0  0
  160.5480  208.1390  154.5780 N   0  0  0  0  0  0  0  0  0  0  0  0
  160.2300  211.4080  156.3440 C   0  0  0  0  0  2  0  0  0  0  0  0
  162.6240  210.4110  153.9740 C   0  0  0  0  0  1  0  0  0  0  0  0
  161.2060  204.1360  152.3690 C   0  0  0  0  0  3  0  0  0  0  0  0
  161.1380  205.5290  152.2590 C   0  0  0  0  0  0  0  0  0  0  0  0
  161.3190  210.6490  153.2170 C   0  0  2  0  0  3  0  0  0  0  0  0
  161.7980  210.2740  148.3610 N   0  0  0  0  0  2  0  0  0  0  0  0
  162.3680  212.4690  147.5110 C   0  0  0  0  0  1  0  0  0  0  0  0
  162.8580  211.2640  148.2850 C   0  0  0  0  0  2  0  0  0  0  0  0
  1 19  2  0  0  0  0
  1  4  1  0  0  0  0
  2 13  2  0  0  0  0
  2 19  1  0  0  0  0
  3 10  2  0  0  0  0
  4 20  2  0  0  0  0
  5 11  1  0  0  0  0
  5  1  1  0  0  0  0
  6  8  2  0  0  0  0
  7 15  1  1  0  0  0
  7  9  1  0  0  0  0
  8 12  1  0  0  0  0
  9 14  1  1  0  0  0
 10 21  1  0  0  0  0
 11 28  1  6  0  0  0
 11  8  1  0  0  0  0
 12  4  1  0  0  0  0
 12 27  1  0  0  0  0
 13 18  1  0  0  0  0
 14 23  1  0  0  0  0
 15 23  1  0  0  0  0
 16  2  1  0  0  0  0
 17  3  1  0  0  0  0
 18 25  2  0  0  0  0
 19 26  1  0  0  0  0
 20 17  1  0  0  0  0
 20 22  1  0  0  0  0
 22  9  1  0  0  0  0
 22 10  1  0  0  0  0
 26 25  1  0  0  0  0
 26 17  2  0  0  0  0
 27 24  1  1  0  0  0
 27  7  1  0  0  0  0
 29 30  1  0  0  0  0
 30 28  1  0  0  0  0
M  END
>  <MODEL>
4

>  <REMARK>
 VINA RESULT:      -6.3      1.941      2.783
  Name = 
  2 active torsions:
  status: ('A' for Active; 'I' for Inactive)
    1  A    between atoms: C_11  and  N_28
    2  A    between atoms: N_28  and  C_30
                            x       y       z     vdW  Elec       q    Type
                         _______ _______ _______ _____ _____    ______ ____

>  <TORSDO>
F 2

$$$$
=
 OpenBabel11122412463D

 30 35  0  0  1  0  0  0  0  0999 V2000
  161.5880  206.1090  150.3920 C   0  0  0  0  0  0  0  0  0  0  0  0
  161.2120  205.3430  152.7540 C   0  0  0  0  0  0  0  0  0  0  0  0
  160.6030  202.3970  148.9270 N   0  0  0  0  0  0  0  0  0  0  0  0
  161.5290  205.8400  148.9920 C   0  0  0  0  0  0  0  0  0  0  0  0
  162.1460  207.4360  150.8250 C   0  0  0  0  0  2  0  0  0  0  0  0
  162.0010  209.2390  147.7410 O   0  0  0  0  0  0  0  0  0  0  0  0
  162.3540  205.7800  146.0070 C   0  0  1  0  0  3  0  0  0  0  0  0
  161.7910  208.2890  148.5450 C   0  0  0  0  0  0  0  0  0  0  0  0
  161.9210  204.3290  146.1250 C   0  0  2  0  0  3  0  0  0  0  0  0
  160.8580  202.6460  147.6260 C   0  0  0  0  0  0  0  0  0  0  0  0
  161.5810  208.5770  150.0000 C   0  0  2  0  0  3  0  0  0  0  0  0
  161.6550  206.9410  148.0570 N   0  0  0  0  0  0  0  0  0  0  0  0
  160.8320  204.3250  153.6320 C   0  0  0  0  0  3  0  0  0  0  0  0
  161.0880  204.0560  144.8870 C   0  0  0  0  0  2  0  0  0  0  0  0
  162.4530  206.0420  144.5140 C   0  0  0  0  0  2  0  0  0  0  0  0
  161.5670  206.5690  153.3030 O   0  0  0  0  0  1  0  0  0  0  0  0
  160.8460  203.5770  149.5180 C   0  0  0  0  0  0  0  0  0  0  0  0
  160.4520  203.0730  153.1540 C   0  0  0  0  0  3  0  0  0  0  0  0
  161.2160  205.1140  151.3500 C   0  0  0  0  0  0  0  0  0  0  0  0
  161.2210  204.5170  148.5950 C   0  0  0  0  0  0  0  0  0  0  0  0
  160.8310  201.5550  146.6070 C   0  0  0  0  0  1  0  0  0  0  0  0
  161.2420  203.9280  147.3700 N   0  0  0  0  0  0  0  0  0  0  0  0
  161.6960  204.9270  143.8060 C   0  0  0  0  0  2  0  0  0  0  0  0
  159.9140  206.5780  146.3440 C   0  0  0  0  0  1  0  0  0  0  0  0
  160.4460  202.8260  151.7850 C   0  0  0  0  0  3  0  0  0  0  0  0
  160.8180  203.8300  150.8840 C   0  0  0  0  0  0  0  0  0  0  0  0
  161.3990  206.7880  146.6320 C   0  0  2  0  0  3  0  0  0  0  0  0
  162.2370  209.8200  150.3820 N   0  0  0  0  0  2  0  0  0  0  0  0
  161.0690  210.5840  152.3620 C   0  0  0  0  0  1  0  0  0  0  0  0
  162.2840  209.8510  151.8330 C   0  0  0  0  0  2  0  0  0  0  0  0
  1  5  1  0  0  0  0
  1 19  1  0  0  0  0
  2 16  1  0  0  0  0
  2 13  1  0  0  0  0
  3 17  1  0  0  0  0
  4  1  2  0  0  0  0
  6  8  2  0  0  0  0
  7 15  1  6  0  0  0
  7  9  1  0  0  0  0
  7 27  1  0  0  0  0
  8 11  1  0  0  0  0
  9 14  1  6  0  0  0
  9 22  1  0  0  0  0
 10  3  2  0  0  0  0
 11 28  1  1  0  0  0
 11  5  1  0  0  0  0
 12  8  1  0  0  0  0
 12  4  1  0  0  0  0
 17 26  1  0  0  0  0
 18 13  2  0  0  0  0
 19  2  2  0  0  0  0
 20  4  1  0  0  0  0
 20 17  2  0  0  0  0
 21 10  1  0  0  0  0
 22 10  1  0  0  0  0
 22 20  1  0  0  0  0
 23 15  1  0  0  0  0
 23 14  1  0  0  0  0
 25 18  1  0  0  0  0
 26 19  1  0  0  0  0
 26 25  2  0  0  0  0
 27 24  1  1  0  0  0
 27 12  1  0  0  0  0
 28 30  1  0  0  0  0
 30 29  1  0  0  0  0
M  END
>  <MODEL>
5

>  <REMARK>
 VINA RESULT:      -5.7      2.154      6.019
  Name = 
  2 active torsions:
  status: ('A' for Active; 'I' for Inactive)
    1  A    between atoms: C_11  and  N_28
    2  A    between atoms: N_28  and  C_30
                            x       y       z     vdW  Elec       q    Type
                         _______ _______ _______ _____ _____    ______ ____

>  <TORSDO>
F 2

$$$$
