=
 OpenBabel11122412443D

 30 35  0  0  1  0  0  0  0  0999 V2000
  160.7980  211.9580  151.0660 C   0  0  2  0  0  3  0  0  0  0  0  0
  160.8770  213.7250  149.2340 C   0  0  0  0  0  0  0  0  0  0  0  0
  161.6270  209.1740  148.5160 O   0  0  0  0  0  0  0  0  0  0  0  0
  160.6440  210.4310  151.2630 C   0  0  2  0  0  3  0  0  0  0  0  0
  159.7060  212.6340  151.6280 O   0  0  0  0  0  0  0  0  0  0  0  0
  158.0630  210.8800  153.1470 O   0  0  0  0  0  1  0  0  0  0  0  0
  161.0530  207.8300  153.1210 C   0  0  1  0  0  3  0  0  0  0  0  0
  159.4270  211.0610  153.3840 C   0  0  2  0  0  3  0  0  0  0  0  0
  160.7900  207.4640  151.6640 C   0  0  2  0  0  3  0  0  0  0  0  0
  161.3220  208.0410  149.2410 C   0  0  0  0  0  0  0  0  0  0  0  0
  159.8570  212.4760  153.0080 C   0  0  2  0  0  3  0  0  0  0  0  0
  160.1870  210.0460  152.6300 N   0  0  2  0  0  0  0  0  0  0  0  0
  161.9240  214.3150  148.3900 C   0  0  0  0  0  3  0  0  0  0  0  0
  161.1200  205.9920  151.6750 C   0  0  0  0  0  2  0  0  0  0  0  0
  162.2010  207.0600  153.5630 N   0  0  0  0  0  2  0  0  0  0  0  0
  159.9240  214.4530  149.6160 O   0  0  0  0  0  0  0  0  0  0  0  0
  162.3190  210.0820  149.3510 C   0  0  2  0  0  3  0  0  0  0  0  0
  162.9120  213.5620  147.9130 C   0  0  0  0  0  3  0  0  0  0  0  0
  160.8850  212.2440  149.5640 C   0  0  1  0  0  3  0  0  0  0  0  0
  161.9330  209.6910  150.7920 C   0  0  2  0  0  3  0  0  0  0  0  0
  160.7920  207.0200  148.7280 O   0  0  0  0  0  0  0  0  0  0  0  0
  161.7360  208.1640  150.6650 C   0  0  1  0  0  3  0  0  0  0  0  0
  162.1370  205.8180  152.7960 C   0  0  0  0  0  2  0  0  0  0  0  0
  161.0510  209.5290  154.7930 O   0  0  0  0  0  1  0  0  0  0  0  0
  162.9970  212.1290  148.2320 C   0  0  0  0  0  3  0  0  0  0  0  0
  162.0850  211.5160  148.9930 C   0  0  0  0  0  0  0  0  0  0  0  0
  161.1990  209.3220  153.4170 C   0  0  1  0  0  3  0  0  0  0  0  0
  159.0450  213.5170  153.7640 C   0  0  0  0  0  2  0  0  0  0  0  0
  156.7980  214.2220  153.0050 C   0  0  0  0  0  1  0  0  0  0  0  0
  158.2850  214.4020  152.7920 C   0  0  0  0  0  2  0  0  0  0  0  0
  1  4  1  0  0  0  0
  1  5  1  6  0  0  0
  2 19  1  0  0  0  0
  2 16  2  0  0  0  0
  3 10  1  0  0  0  0
  3 17  1  0  0  0  0
  4 12  1  0  0  0  0
  5 11  1  0  0  0  0
  6  8  1  0  0  0  0
  7 27  1  0  0  0  0
  7 15  1  0  0  0  0
  9 14  1  0  0  0  0
  9  7  1  0  0  0  0
 10 22  1  0  0  0  0
 11  8  1  0  0  0  0
 11 28  1  0  0  0  0
 12  8  1  0  0  0  0
 12 27  1  0  0  0  0
 13  2  1  0  0  0  0
 14 23  1  0  0  0  0
 17 20  1  0  0  0  0
 18 25  1  0  0  0  0
 18 13  2  0  0  0  0
 19  1  1  0  0  0  0
 20  4  1  0  0  0  0
 21 10  2  0  0  0  0
 22 20  1  0  0  0  0
 22  9  1  0  0  0  0
 23 15  1  0  0  0  0
 25 26  2  0  0  0  0
 26 17  1  0  0  0  0
 26 19  1  0  0  0  0
 27 24  1  0  0  0  0
 30 29  1  0  0  0  0
 30 28  1  0  0  0  0
M  END
>  <MODEL>
1

>  <REMARK>
 VINA RESULT:      -5.5      0.000      0.000
  Name = 
  2 active torsions:
  status: ('A' for Active; 'I' for Inactive)
    1  A    between atoms: C_11  and  C_28
    2  A    between atoms: C_28  and  C_30
                            x       y       z     vdW  Elec       q    Type
                         _______ _______ _______ _____ _____    ______ ____

>  <TORSDO>
F 2

$$$$
=
 OpenBabel11122412443D

 30 35  0  0  1  0  0  0  0  0999 V2000
  161.1380  209.6600  151.2060 C   0  0  2  0  0  3  0  0  0  0  0  0
  161.3110  211.7720  149.7920 C   0  0  0  0  0  0  0  0  0  0  0  0
  161.3610  211.7350  154.4600 O   0  0  0  0  0  0  0  0  0  0  0  0
  161.4290  209.1370  152.6320 C   0  0  2  0  0  3  0  0  0  0  0  0
  161.9510  209.0050  150.2710 O   0  0  0  0  0  0  0  0  0  0  0  0
  163.3540  206.8320  151.4510 O   0  0  0  0  0  1  0  0  0  0  0  0
  160.8890  206.9500  154.9370 C   0  0  1  0  0  3  0  0  0  0  0  0
  161.9640  206.9580  151.4740 C   0  0  2  0  0  3  0  0  0  0  0  0
  161.5650  208.2050  155.4780 C   0  0  2  0  0  3  0  0  0  0  0  0
  161.6100  210.7500  155.3940 C   0  0  0  0  0  0  0  0  0  0  0  0
  161.4680  207.6940  150.2320 C   0  0  2  0  0  3  0  0  0  0  0  0
  161.5620  207.6530  152.7110 N   0  0  2  0  0  0  0  0  0  0  0  0
  160.4520  212.9340  149.5340 C   0  0  0  0  0  3  0  0  0  0  0  0
  161.4340  207.9810  156.9640 C   0  0  0  0  0  2  0  0  0  0  0  0
  159.7730  206.6430  155.8130 N   0  0  0  0  0  2  0  0  0  0  0  0
  162.0310  211.3300  148.8590 O   0  0  0  0  0  0  0  0  0  0  0  0
  160.3660  211.2780  153.5650 C   0  0  2  0  0  3  0  0  0  0  0  0
  159.7260  213.4690  150.5120 C   0  0  0  0  0  3  0  0  0  0  0  0
  161.4070  211.1680  151.1810 C   0  0  1  0  0  3  0  0  0  0  0  0
  160.4120  209.7380  153.6490 C   0  0  2  0  0  3  0  0  0  0  0  0
  162.3800  210.9150  156.3760 O   0  0  0  0  0  0  0  0  0  0  0  0
  160.8280  209.5140  155.1200 C   0  0  1  0  0  3  0  0  0  0  0  0
  160.1930  207.1150  157.1310 C   0  0  0  0  0  2  0  0  0  0  0  0
  160.2400  205.6900  153.0190 O   0  0  0  0  0  1  0  0  0  0  0  0
  159.7450  212.9040  151.8690 C   0  0  0  0  0  3  0  0  0  0  0  0
  160.4990  211.8460  152.1860 C   0  0  0  0  0  0  0  0  0  0  0  0
  160.4810  206.9960  153.4650 C   0  0  1  0  0  3  0  0  0  0  0  0
  161.9170  206.9910  148.9590 C   0  0  0  0  0  2  0  0  0  0  0  0
  161.2300  204.6490  148.5500 C   0  0  0  0  0  1  0  0  0  0  0  0
  160.8090  206.0980  148.4310 C   0  0  0  0  0  2  0  0  0  0  0  0
  1  5  1  6  0  0  0
  1  4  1  0  0  0  0
  2 19  1  0  0  0  0
  3 10  1  0  0  0  0
  4 12  1  0  0  0  0
  4 20  1  0  0  0  0
  6  8  1  0  0  0  0
  7  9  1  0  0  0  0
  7 15  1  0  0  0  0
  8 12  1  0  0  0  0
  9 14  1  0  0  0  0
 10 21  2  0  0  0  0
 11  5  1  0  0  0  0
 11  8  1  0  0  0  0
 12 27  1  0  0  0  0
 13  2  1  0  0  0  0
 13 18  2  0  0  0  0
 14 23  1  0  0  0  0
 15 23  1  0  0  0  0
 16  2  2  0  0  0  0
 17 20  1  0  0  0  0
 17  3  1  0  0  0  0
 18 25  1  0  0  0  0
 19  1  1  0  0  0  0
 19 26  1  0  0  0  0
 20 22  1  0  0  0  0
 22 10  1  0  0  0  0
 22  9  1  0  0  0  0
 24 27  1  0  0  0  0
 25 26  2  0  0  0  0
 26 17  1  0  0  0  0
 27  7  1  0  0  0  0
 28 11  1  0  0  0  0
 30 29  1  0  0  0  0
 30 28  1  0  0  0  0
M  END
>  <MODEL>
2

>  <REMARK>
 VINA RESULT:      -5.4      2.219      5.347
  Name = 
  2 active torsions:
  status: ('A' for Active; 'I' for Inactive)
    1  A    between atoms: C_11  and  C_28
    2  A    between atoms: C_28  and  C_30
                            x       y       z     vdW  Elec       q    Type
                         _______ _______ _______ _____ _____    ______ ____

>  <TORSDO>
F 2

$$$$
=
 OpenBabel11122412443D

 30 35  0  0  1  0  0  0  0  0999 V2000
  160.1040  211.6150  151.8030 C   0  0  2  0  0  3  0  0  0  0  0  0
  159.2270  213.8390  150.9240 C   0  0  0  0  0  0  0  0  0  0  0  0
  159.0420  212.5360  155.4030 O   0  0  0  0  0  0  0  0  0  0  0  0
  160.5480  210.9270  153.1150 C   0  0  2  0  0  3  0  0  0  0  0  0
  161.1870  211.7290  150.9210 O   0  0  0  0  0  0  0  0  0  0  0  0
  163.4520  210.2880  151.8590 O   0  0  0  0  0  1  0  0  0  0  0  0
  161.1050  208.2140  154.7620 C   0  0  1  0  0  3  0  0  0  0  0  0
  162.2000  209.7080  151.6450 C   0  0  2  0  0  3  0  0  0  0  0  0
  160.9990  209.4320  155.6740 C   0  0  2  0  0  3  0  0  0  0  0  0
  159.7170  211.5830  156.1380 C   0  0  0  0  0  0  0  0  0  0  0  0
  161.4600  210.4200  150.5160 C   0  0  2  0  0  3  0  0  0  0  0  0
  161.4300  209.7420  152.9030 N   0  0  2  0  0  0  0  0  0  0  0  0
  157.9030  214.4530  150.7600 C   0  0  0  0  0  3  0  0  0  0  0  0
  160.9250  208.7700  157.0270 C   0  0  0  0  0  2  0  0  0  0  0  0
  160.2680  207.1720  155.3290 N   0  0  0  0  0  2  0  0  0  0  0  0
  160.1200  214.0840  150.0720 O   0  0  0  0  0  0  0  0  0  0  0  0
  158.4790  211.9210  154.2610 C   0  0  2  0  0  3  0  0  0  0  0  0
  156.9550  214.2700  151.6750 C   0  0  0  0  0  3  0  0  0  0  0  0
  159.5490  213.0000  152.1480 C   0  0  1  0  0  3  0  0  0  0  0  0
  159.3150  210.6460  154.0260 C   0  0  2  0  0  3  0  0  0  0  0  0
  160.2360  211.8230  157.2610 O   0  0  0  0  0  0  0  0  0  0  0  0
  159.7090  210.2550  155.4680 C   0  0  1  0  0  3  0  0  0  0  0  0
  160.3090  207.4010  156.7710 C   0  0  0  0  0  2  0  0  0  0  0  0
  161.3090  207.3880  152.5350 O   0  0  0  0  0  1  0  0  0  0  0  0
  157.1930  213.4340  152.8610 C   0  0  0  0  0  3  0  0  0  0  0  0
  158.3700  212.8390  153.0840 C   0  0  0  0  0  0  0  0  0  0  0  0
  160.8110  208.4620  153.2840 C   0  0  1  0  0  3  0  0  0  0  0  0
  162.2760  210.4110  149.2310 C   0  0  0  0  0  2  0  0  0  0  0  0
  163.0860  212.3590  147.9390 C   0  0  0  0  0  1  0  0  0  0  0  0
  161.8610  211.5620  148.3340 C   0  0  0  0  0  2  0  0  0  0  0  0
  1  5  1  6  0  0  0
  1 19  1  0  0  0  0
  1  4  1  0  0  0  0
  2 19  1  0  0  0  0
  3 10  1  0  0  0  0
  4 20  1  0  0  0  0
  7 15  1  0  0  0  0
  7  9  1  0  0  0  0
  8  6  1  0  0  0  0
  8 12  1  0  0  0  0
  9 14  1  0  0  0  0
 10 21  2  0  0  0  0
 11  5  1  0  0  0  0
 11  8  1  0  0  0  0
 12  4  1  0  0  0  0
 12 27  1  0  0  0  0
 13  2  1  0  0  0  0
 13 18  2  0  0  0  0
 15 23  1  0  0  0  0
 16  2  2  0  0  0  0
 17  3  1  0  0  0  0
 18 25  1  0  0  0  0
 19 26  1  0  0  0  0
 20 17  1  0  0  0  0
 20 22  1  0  0  0  0
 22  9  1  0  0  0  0
 22 10  1  0  0  0  0
 23 14  1  0  0  0  0
 24 27  1  0  0  0  0
 25 26  2  0  0  0  0
 26 17  1  0  0  0  0
 27  7  1  0  0  0  0
 28 11  1  0  0  0  0
 29 30  1  0  0  0  0
 30 28  1  0  0  0  0
M  END
>  <MODEL>
3

>  <REMARK>
 VINA RESULT:      -5.2      2.073      5.188
  Name = 
  2 active torsions:
  status: ('A' for Active; 'I' for Inactive)
    1  A    between atoms: C_11  and  C_28
    2  A    between atoms: C_28  and  C_30
                            x       y       z     vdW  Elec       q    Type
                         _______ _______ _______ _____ _____    ______ ____

>  <TORSDO>
F 2

$$$$
=
 OpenBabel11122412443D

 30 35  0  0  1  0  0  0  0  0999 V2000
  161.4480  207.8690  152.4240 C   0  0  2  0  0  3  0  0  0  0  0  0
  160.9160  207.2330  154.8330 C   0  0  0  0  0  0  0  0  0  0  0  0
  160.3880  211.5270  153.0800 O   0  0  0  0  0  0  0  0  0  0  0  0
  161.1450  208.9590  151.3700 C   0  0  2  0  0  3  0  0  0  0  0  0
  160.9210  206.6360  152.0160 O   0  0  0  0  0  0  0  0  0  0  0  0
  159.9720  206.7430  149.3370 O   0  0  0  0  0  1  0  0  0  0  0  0
  161.9560  210.4600  148.6360 C   0  0  1  0  0  3  0  0  0  0  0  0
  161.2800  207.0630  149.7080 C   0  0  2  0  0  3  0  0  0  0  0  0
  160.9420  211.2540  149.4530 C   0  0  2  0  0  3  0  0  0  0  0  0
  160.2890  212.0170  151.7930 C   0  0  0  0  0  0  0  0  0  0  0  0
  161.7090  206.2520  150.9280 C   0  0  2  0  0  3  0  0  0  0  0  0
  161.3690  208.5130  149.9640 N   0  0  2  0  0  0  0  0  0  0  0  0
  161.4890  207.5410  156.1490 C   0  0  0  0  0  3  0  0  0  0  0  0
  160.9670  212.5780  148.7290 C   0  0  0  0  0  2  0  0  0  0  0  0
  163.0140  211.3740  148.2470 N   0  0  0  0  0  2  0  0  0  0  0  0
  160.4260  206.0910  154.6360 O   0  0  0  0  0  0  0  0  0  0  0  0
  161.5520  210.7310  153.1800 C   0  0  2  0  0  3  0  0  0  0  0  0
  161.9560  208.7580  156.4160 C   0  0  0  0  0  3  0  0  0  0  0  0
  160.8250  208.2990  153.7560 C   0  0  1  0  0  3  0  0  0  0  0  0
  161.8730  210.2880  151.7380 C   0  0  2  0  0  3  0  0  0  0  0  0
  159.4030  212.8380  151.4380 O   0  0  0  0  0  0  0  0  0  0  0  0
  161.3720  211.4960  150.9160 C   0  0  1  0  0  3  0  0  0  0  0  0
  162.3570  212.6730  148.1140 C   0  0  0  0  0  2  0  0  0  0  0  0
  163.0890  208.3870  148.3140 O   0  0  0  0  0  1  0  0  0  0  0  0
  161.9330  209.8200  155.4000 C   0  0  0  0  0  3  0  0  0  0  0  0
  161.4300  209.6220  154.1780 C   0  0  0  0  0  0  0  0  0  0  0  0
  162.4920  209.1900  149.2940 C   0  0  1  0  0  3  0  0  0  0  0  0
  161.5810  204.7580  150.6680 C   0  0  0  0  0  2  0  0  0  0  0  0
  161.2060  202.5380  151.6940 C   0  0  0  0  0  1  0  0  0  0  0  0
  161.2060  204.0300  151.9460 C   0  0  0  0  0  2  0  0  0  0  0  0
  1  5  1  6  0  0  0
  1 19  1  0  0  0  0
  2 13  1  0  0  0  0
  3 17  1  0  0  0  0
  4 20  1  0  0  0  0
  4  1  1  0  0  0  0
  6  8  1  0  0  0  0
  7 27  1  0  0  0  0
  7  9  1  0  0  0  0
  8 12  1  0  0  0  0
  8 11  1  0  0  0  0
  9 22  1  0  0  0  0
 10  3  1  0  0  0  0
 11  5  1  0  0  0  0
 12  4  1  0  0  0  0
 13 18  2  0  0  0  0
 14  9  1  0  0  0  0
 15  7  1  0  0  0  0
 16  2  2  0  0  0  0
 17 26  1  0  0  0  0
 19 26  1  0  0  0  0
 19  2  1  0  0  0  0
 20 17  1  0  0  0  0
 21 10  2  0  0  0  0
 22 20  1  0  0  0  0
 22 10  1  0  0  0  0
 23 15  1  0  0  0  0
 23 14  1  0  0  0  0
 24 27  1  0  0  0  0
 25 18  1  0  0  0  0
 26 25  2  0  0  0  0
 27 12  1  0  0  0  0
 28 11  1  0  0  0  0
 28 30  1  0  0  0  0
 29 30  1  0  0  0  0
M  END
>  <MODEL>
4

>  <REMARK>
 VINA RESULT:      -5.1      2.094      6.951
  Name = 
  2 active torsions:
  status: ('A' for Active; 'I' for Inactive)
    1  A    between atoms: C_11  and  C_28
    2  A    between atoms: C_28  and  C_30
                            x       y       z     vdW  Elec       q    Type
                         _______ _______ _______ _____ _____    ______ ____

>  <TORSDO>
F 2

$$$$
=
 OpenBabel11122412443D

 30 35  0  0  1  0  0  0  0  0999 V2000
  161.4600  205.1010  149.3390 C   0  0  2  0  0  3  0  0  0  0  0  0
  161.9530  205.3750  151.8230 C   0  0  0  0  0  0  0  0  0  0  0  0
  161.3300  201.2570  149.7160 O   0  0  0  0  0  0  0  0  0  0  0  0
  161.5130  204.0470  148.2090 C   0  0  2  0  0  3  0  0  0  0  0  0
  162.3610  206.1430  149.0780 O   0  0  0  0  0  0  0  0  0  0  0  0
  163.4560  205.9420  146.4610 O   0  0  0  0  0  1  0  0  0  0  0  0
  160.5260  203.0570  145.3050 C   0  0  1  0  0  3  0  0  0  0  0  0
  162.0850  206.0070  146.7240 C   0  0  2  0  0  3  0  0  0  0  0  0
  161.1870  201.9390  146.1030 C   0  0  2  0  0  3  0  0  0  0  0  0
  161.3870  200.8520  148.3980 C   0  0  0  0  0  0  0  0  0  0  0  0
  161.8160  206.8230  147.9860 C   0  0  2  0  0  3  0  0  0  0  0  0
  161.5500  204.6380  146.8390 N   0  0  2  0  0  0  0  0  0  0  0  0
  161.2070  205.1630  153.0700 C   0  0  0  0  0  3  0  0  0  0  0  0
  160.8310  200.7390  145.2610 C   0  0  0  0  0  2  0  0  0  0  0  0
  159.2810  202.5360  144.7720 N   0  0  0  0  0  2  0  0  0  0  0  0
  162.7740  206.3270  151.7610 O   0  0  0  0  0  0  0  0  0  0  0  0
  160.4500  202.3580  149.8210 C   0  0  2  0  0  3  0  0  0  0  0  0
  160.3800  204.1290  153.1960 C   0  0  0  0  0  3  0  0  0  0  0  0
  161.8140  204.4100  150.6600 C   0  0  1  0  0  3  0  0  0  0  0  0
  160.3970  202.9780  148.4090 C   0  0  2  0  0  3  0  0  0  0  0  0
  162.0160  199.8280  148.0210 O   0  0  0  0  0  0  0  0  0  0  0  0
  160.5840  201.7360  147.5100 C   0  0  1  0  0  3  0  0  0  0  0  0
  159.5320  201.1120  144.5590 C   0  0  0  0  0  2  0  0  0  0  0  0
  160.0890  205.3930  145.1100 O   0  0  0  0  0  1  0  0  0  0  0  0
  160.1710  203.1830  152.0890 C   0  0  0  0  0  3  0  0  0  0  0  0
  160.8120  203.3060  150.9220 C   0  0  0  0  0  0  0  0  0  0  0  0
  160.3370  204.3810  146.0450 C   0  0  1  0  0  3  0  0  0  0  0  0
  162.4020  208.2220  147.8730 C   0  0  0  0  0  2  0  0  0  0  0  0
  161.9650  210.5350  148.6360 C   0  0  0  0  0  1  0  0  0  0  0  0
  161.9560  209.0780  149.0440 C   0  0  0  0  0  2  0  0  0  0  0  0
  1  5  1  6  0  0  0
  1 19  1  0  0  0  0
  2 13  1  0  0  0  0
  3 17  1  0  0  0  0
  4 20  1  0  0  0  0
  4  1  1  0  0  0  0
  6  8  1  0  0  0  0
  7 27  1  0  0  0  0
  7  9  1  0  0  0  0
  8 12  1  0  0  0  0
  8 11  1  0  0  0  0
  9 22  1  0  0  0  0
 10  3  1  0  0  0  0
 11  5  1  0  0  0  0
 12  4  1  0  0  0  0
 13 18  2  0  0  0  0
 14  9  1  0  0  0  0
 15  7  1  0  0  0  0
 16  2  2  0  0  0  0
 17 26  1  0  0  0  0
 19 26  1  0  0  0  0
 19  2  1  0  0  0  0
 20 17  1  0  0  0  0
 21 10  2  0  0  0  0
 22 10  1  0  0  0  0
 22 20  1  0  0  0  0
 23 15  1  0  0  0  0
 23 14  1  0  0  0  0
 24 27  1  0  0  0  0
 25 18  1  0  0  0  0
 26 25  2  0  0  0  0
 27 12  1  0  0  0  0
 28 11  1  0  0  0  0
 28 30  1  0  0  0  0
 29 30  1  0  0  0  0
M  END
>  <MODEL>
5

>  <REMARK>
 VINA RESULT:      -4.7      4.929      8.603
  Name = 
  2 active torsions:
  status: ('A' for Active; 'I' for Inactive)
    1  A    between atoms: C_11  and  C_28
    2  A    between atoms: C_28  and  C_30
                            x       y       z     vdW  Elec       q    Type
                         _______ _______ _______ _____ _____    ______ ____

>  <TORSDO>
F 2

$$$$
=
 OpenBabel11122412443D

 30 35  0  0  1  0  0  0  0  0999 V2000
  161.0890  203.3240  146.4720 C   0  0  2  0  0  3  0  0  0  0  0  0
  160.5430  200.9730  145.6580 C   0  0  0  0  0  0  0  0  0  0  0  0
  160.3710  202.3020  150.1290 O   0  0  0  0  0  0  0  0  0  0  0  0
  160.8670  204.2640  147.6800 C   0  0  2  0  0  3  0  0  0  0  0  0
  160.4480  203.8320  145.3340 O   0  0  0  0  0  0  0  0  0  0  0  0
  159.4680  206.4650  145.7790 O   0  0  0  0  0  1  0  0  0  0  0  0
  161.7630  206.8640  149.3590 C   0  0  1  0  0  3  0  0  0  0  0  0
  160.8050  206.0980  145.9470 C   0  0  2  0  0  3  0  0  0  0  0  0
  160.8370  205.9520  150.1570 C   0  0  2  0  0  3  0  0  0  0  0  0
  160.2940  203.5340  150.7460 C   0  0  0  0  0  0  0  0  0  0  0  0
  161.1800  204.9710  144.9880 C   0  0  2  0  0  3  0  0  0  0  0  0
  161.0270  205.7100  147.3520 N   0  0  2  0  0  0  0  0  0  0  0  0
  161.1630  199.6480  145.7870 C   0  0  0  0  0  3  0  0  0  0  0  0
  160.9680  206.5480  151.5370 C   0  0  0  0  0  2  0  0  0  0  0  0
  162.8920  207.1930  150.2110 N   0  0  0  0  0  2  0  0  0  0  0  0
  159.9500  201.2640  144.5870 O   0  0  0  0  0  0  0  0  0  0  0  0
  161.4610  202.3060  149.2290 C   0  0  2  0  0  3  0  0  0  0  0  0
  161.7410  199.2800  146.9270 C   0  0  0  0  0  3  0  0  0  0  0  0
  160.5290  201.9420  146.8250 C   0  0  1  0  0  3  0  0  0  0  0  0
  161.7160  203.7910  148.8990 C   0  0  2  0  0  3  0  0  0  0  0  0
  159.4790  203.7890  151.6720 O   0  0  0  0  0  0  0  0  0  0  0  0
  161.3110  204.4840  150.2190 C   0  0  1  0  0  3  0  0  0  0  0  0
  162.3510  207.1860  151.5680 C   0  0  0  0  0  2  0  0  0  0  0  0
  162.7010  207.4070  147.2360 O   0  0  0  0  0  1  0  0  0  0  0  0
  161.7960  200.1910  148.0800 C   0  0  0  0  0  3  0  0  0  0  0  0
  161.2560  201.4140  148.0440 C   0  0  0  0  0  0  0  0  0  0  0  0
  162.1950  206.3420  147.9900 C   0  0  1  0  0  3  0  0  0  0  0  0
  160.9150  205.3670  143.5430 C   0  0  0  0  0  2  0  0  0  0  0  0
  161.8810  206.3580  141.4920 C   0  0  0  0  0  1  0  0  0  0  0  0
  162.1900  205.8690  142.8900 C   0  0  0  0  0  2  0  0  0  0  0  0
  1  5  1  6  0  0  0
  1 19  1  0  0  0  0
  1  4  1  0  0  0  0
  2 13  1  0  0  0  0
  2 19  1  0  0  0  0
  3 10  1  0  0  0  0
  4 20  1  0  0  0  0
  6  8  1  0  0  0  0
  7  9  1  0  0  0  0
  7 15  1  0  0  0  0
  8 12  1  0  0  0  0
  9 22  1  0  0  0  0
  9 14  1  0  0  0  0
 10 21  2  0  0  0  0
 11  5  1  0  0  0  0
 11  8  1  0  0  0  0
 12  4  1  0  0  0  0
 12 27  1  0  0  0  0
 13 18  2  0  0  0  0
 14 23  1  0  0  0  0
 15 23  1  0  0  0  0
 16  2  2  0  0  0  0
 17  3  1  0  0  0  0
 18 25  1  0  0  0  0
 19 26  1  0  0  0  0
 20 17  1  0  0  0  0
 20 22  1  0  0  0  0
 22 10  1  0  0  0  0
 24 27  1  0  0  0  0
 26 25  2  0  0  0  0
 26 17  1  0  0  0  0
 27  7  1  0  0  0  0
 28 11  1  0  0  0  0
 29 30  1  0  0  0  0
 30 28  1  0  0  0  0
M  END
>  <MODEL>
6

>  <REMARK>
 VINA RESULT:      -4.3      5.302      9.462
  Name = 
  2 active torsions:
  status: ('A' for Active; 'I' for Inactive)
    1  A    between atoms: C_11  and  C_28
    2  A    between atoms: C_28  and  C_30
                            x       y       z     vdW  Elec       q    Type
                         _______ _______ _______ _____ _____    ______ ____

>  <TORSDO>
F 2

$$$$
=
 OpenBabel11122412443D

 30 35  0  0  1  0  0  0  0  0999 V2000
  161.1680  204.7260  148.8770 C   0  0  2  0  0  3  0  0  0  0  0  0
  161.3260  203.6350  146.5810 C   0  0  0  0  0  0  0  0  0  0  0  0
  162.1840  208.1500  147.4000 O   0  0  0  0  0  0  0  0  0  0  0  0
  161.6430  205.9760  149.6530 C   0  0  2  0  0  3  0  0  0  0  0  0
  161.7270  203.5660  149.4310 O   0  0  0  0  0  0  0  0  0  0  0  0
  163.0640  204.1210  151.8790 O   0  0  0  0  0  1  0  0  0  0  0  0
  161.2730  207.9890  152.1420 C   0  0  1  0  0  3  0  0  0  0  0  0
  161.7220  204.4260  151.6440 C   0  0  2  0  0  3  0  0  0  0  0  0
  162.1680  208.5730  151.0550 C   0  0  2  0  0  3  0  0  0  0  0  0
  162.4810  208.8620  148.5440 C   0  0  0  0  0  0  0  0  0  0  0  0
  161.1030  203.4240  150.6730 C   0  0  2  0  0  3  0  0  0  0  0  0
  161.6220  205.8060  151.1350 N   0  0  2  0  0  0  0  0  0  0  0  0
  160.5700  203.7210  145.3250 C   0  0  0  0  0  3  0  0  0  0  0  0
  162.2740  210.0070  151.5120 C   0  0  0  0  0  2  0  0  0  0  0  0
  160.3000  209.0060  152.4990 N   0  0  0  0  0  2  0  0  0  0  0  0
  161.8190  202.5270  146.9180 O   0  0  0  0  0  0  0  0  0  0  0  0
  161.0030  207.4020  147.6180 C   0  0  2  0  0  3  0  0  0  0  0  0
  160.0900  204.8880  144.9030 C   0  0  0  0  0  3  0  0  0  0  0  0
  161.5940  204.8750  147.4130 C   0  0  1  0  0  3  0  0  0  0  0  0
  160.8920  207.2460  149.1480 C   0  0  2  0  0  3  0  0  0  0  0  0
  163.4240  209.6940  148.6090 O   0  0  0  0  0  0  0  0  0  0  0  0
  161.5310  208.5610  149.6490 C   0  0  1  0  0  3  0  0  0  0  0  0
  160.9920  210.2760  152.2890 C   0  0  0  0  0  2  0  0  0  0  0  0
  160.1640  206.0640  153.0070 O   0  0  0  0  0  1  0  0  0  0  0  0
  160.2810  206.1170  145.6870 C   0  0  0  0  0  3  0  0  0  0  0  0
  160.9570  206.1240  146.8400 C   0  0  0  0  0  0  0  0  0  0  0  0
  160.6220  206.6450  151.8180 C   0  0  1  0  0  3  0  0  0  0  0  0
  161.2420  201.9990  151.1880 C   0  0  0  0  0  2  0  0  0  0  0  0
  159.6920  201.3050  149.3880 C   0  0  0  0  0  1  0  0  0  0  0  0
  161.0130  201.0060  150.0640 C   0  0  0  0  0  2  0  0  0  0  0  0
  1  5  1  1  0  0  0
  1  4  1  0  0  0  0
  2 16  2  0  0  0  0
  2 19  1  0  0  0  0
  3 17  1  0  0  0  0
  3 10  1  0  0  0  0
  4 12  1  0  0  0  0
  5 11  1  0  0  0  0
  7 15  1  0  0  0  0
  8  6  1  0  0  0  0
  9 14  1  0  0  0  0
  9  7  1  0  0  0  0
 10 21  2  0  0  0  0
 10 22  1  0  0  0  0
 11 28  1  0  0  0  0
 11  8  1  0  0  0  0
 12  8  1  0  0  0  0
 12 27  1  0  0  0  0
 13  2  1  0  0  0  0
 14 23  1  0  0  0  0
 17 20  1  0  0  0  0
 18 13  2  0  0  0  0
 18 25  1  0  0  0  0
 19  1  1  0  0  0  0
 20 22  1  0  0  0  0
 20  4  1  0  0  0  0
 22  9  1  0  0  0  0
 23 15  1  0  0  0  0
 25 26  2  0  0  0  0
 26 19  1  0  0  0  0
 26 17  1  0  0  0  0
 27  7  1  0  0  0  0
 27 24  1  0  0  0  0
 29 30  1  0  0  0  0
 30 28  1  0  0  0  0
M  END
>  <MODEL>
7

>  <REMARK>
 VINA RESULT:      -4.3      3.327      7.476
  Name = 
  2 active torsions:
  status: ('A' for Active; 'I' for Inactive)
    1  A    between atoms: C_11  and  C_28
    2  A    between atoms: C_28  and  C_30
                            x       y       z     vdW  Elec       q    Type
                         _______ _______ _______ _____ _____    ______ ____

>  <TORSDO>
F 2

$$$$
=
 OpenBabel11122412443D

 30 35  0  0  1  0  0  0  0  0999 V2000
  161.2560  204.4560  149.3260 C   0  0  2  0  0  3  0  0  0  0  0  0
  160.7680  201.9680  149.5620 C   0  0  0  0  0  0  0  0  0  0  0  0
  160.7640  204.9860  153.1230 O   0  0  0  0  0  0  0  0  0  0  0  0
  161.0560  205.8000  150.0660 C   0  0  2  0  0  3  0  0  0  0  0  0
  160.5380  204.4510  148.1230 O   0  0  0  0  0  0  0  0  0  0  0  0
  159.4730  207.0200  147.5320 O   0  0  0  0  0  1  0  0  0  0  0  0
  161.9260  208.8730  150.4990 C   0  0  1  0  0  3  0  0  0  0  0  0
  160.8310  206.7770  147.7490 C   0  0  2  0  0  3  0  0  0  0  0  0
  161.0800  208.3430  151.6520 C   0  0  2  0  0  3  0  0  0  0  0  0
  160.6680  206.3600  153.1960 C   0  0  0  0  0  0  0  0  0  0  0  0
  161.2040  205.3660  147.3030 C   0  0  2  0  0  3  0  0  0  0  0  0
  161.1390  206.9940  149.1750 N   0  0  2  0  0  0  0  0  0  0  0  0
  161.4480  200.8190  150.1740 C   0  0  0  0  0  3  0  0  0  0  0  0
  161.2550  209.4480  152.6640 C   0  0  0  0  0  2  0  0  0  0  0  0
  163.0810  209.5370  151.0740 N   0  0  0  0  0  2  0  0  0  0  0  0
  160.1110  201.7910  148.5040 O   0  0  0  0  0  0  0  0  0  0  0  0
  161.8070  204.6450  152.2310 C   0  0  2  0  0  3  0  0  0  0  0  0
  162.0980  200.9530  151.3280 C   0  0  0  0  0  3  0  0  0  0  0  0
  160.7720  203.3250  150.2400 C   0  0  1  0  0  3  0  0  0  0  0  0
  161.9840  205.8750  151.3160 C   0  0  2  0  0  3  0  0  0  0  0  0
  159.8900  206.9520  153.9900 O   0  0  0  0  0  0  0  0  0  0  0  0
  161.6170  207.0340  152.2690 C   0  0  1  0  0  3  0  0  0  0  0  0
  162.6090  210.0690  152.3500 C   0  0  0  0  0  2  0  0  0  0  0  0
  162.7330  208.5290  148.2820 O   0  0  0  0  0  1  0  0  0  0  0  0
  162.1720  202.2530  152.0110 C   0  0  0  0  0  3  0  0  0  0  0  0
  161.5810  203.3470  151.5200 C   0  0  0  0  0  0  0  0  0  0  0  0
  162.3100  207.8490  149.4310 C   0  0  1  0  0  3  0  0  0  0  0  0
  160.8510  205.1390  145.8410 C   0  0  0  0  0  2  0  0  0  0  0  0
  163.2850  204.7030  145.9220 C   0  0  0  0  0  1  0  0  0  0  0  0
  162.0260  204.5240  145.1030 C   0  0  0  0  0  2  0  0  0  0  0  0
  1  5  1  6  0  0  0
  1  4  1  0  0  0  0
  1 19  1  0  0  0  0
  2 13  1  0  0  0  0
  2 19  1  0  0  0  0
  3 10  1  0  0  0  0
  4 20  1  0  0  0  0
  6  8  1  0  0  0  0
  7 15  1  0  0  0  0
  7  9  1  0  0  0  0
  8 12  1  0  0  0  0
  9 22  1  0  0  0  0
  9 14  1  0  0  0  0
 10 21  2  0  0  0  0
 11  8  1  0  0  0  0
 11  5  1  0  0  0  0
 12 27  1  0  0  0  0
 12  4  1  0  0  0  0
 13 18  2  0  0  0  0
 15 23  1  0  0  0  0
 16  2  2  0  0  0  0
 17  3  1  0  0  0  0
 18 25  1  0  0  0  0
 19 26  1  0  0  0  0
 20 17  1  0  0  0  0
 20 22  1  0  0  0  0
 22 10  1  0  0  0  0
 23 14  1  0  0  0  0
 24 27  1  0  0  0  0
 26 25  2  0  0  0  0
 26 17  1  0  0  0  0
 27  7  1  0  0  0  0
 28 11  1  0  0  0  0
 30 28  1  0  0  0  0
 30 29  1  0  0  0  0
M  END
>  <MODEL>
8

>  <REMARK>
 VINA RESULT:      -4.2      3.687      8.258
  Name = 
  2 active torsions:
  status: ('A' for Active; 'I' for Inactive)
    1  A    between atoms: C_11  and  C_28
    2  A    between atoms: C_28  and  C_30
                            x       y       z     vdW  Elec       q    Type
                         _______ _______ _______ _____ _____    ______ ____

>  <TORSDO>
F 2

$$$$
=
 OpenBabel11122412443D

 30 35  0  0  1  0  0  0  0  0999 V2000
  161.3780  207.7920  151.0070 C   0  0  2  0  0  3  0  0  0  0  0  0
  161.6470  209.0870  153.1830 C   0  0  0  0  0  0  0  0  0  0  0  0
  161.6780  204.4290  152.8870 O   0  0  0  0  0  0  0  0  0  0  0  0
  161.6410  206.3970  150.3930 C   0  0  2  0  0  3  0  0  0  0  0  0
  162.1650  208.7610  150.3700 O   0  0  0  0  0  0  0  0  0  0  0  0
  163.4700  207.7010  148.0760 O   0  0  0  0  0  1  0  0  0  0  0  0
  160.9990  204.2170  148.1080 C   0  0  1  0  0  3  0  0  0  0  0  0
  162.0860  207.6730  148.2610 C   0  0  2  0  0  3  0  0  0  0  0  0
  161.7270  203.6070  149.3010 C   0  0  2  0  0  3  0  0  0  0  0  0
  161.8820  203.5500  151.8420 C   0  0  0  0  0  0  0  0  0  0  0  0
  161.6270  208.8730  149.0850 C   0  0  2  0  0  3  0  0  0  0  0  0
  161.7100  206.4000  148.9030 N   0  0  2  0  0  0  0  0  0  0  0  0
  160.8400  209.2820  154.3940 C   0  0  0  0  0  3  0  0  0  0  0  0
  161.5810  202.1350  149.0020 C   0  0  0  0  0  2  0  0  0  0  0  0
  159.8690  203.3600  147.8010 N   0  0  0  0  0  2  0  0  0  0  0  0
  162.3510  210.0420  152.7630 O   0  0  0  0  0  0  0  0  0  0  0  0
  160.6680  205.3480  152.5240 C   0  0  2  0  0  3  0  0  0  0  0  0
  160.1340  208.2760  154.9050 C   0  0  0  0  0  3  0  0  0  0  0  0
  161.7120  207.7330  152.5010 C   0  0  1  0  0  3  0  0  0  0  0  0
  160.6480  205.3490  150.9810 C   0  0  2  0  0  3  0  0  0  0  0  0
  162.6550  202.5590  151.9200 O   0  0  0  0  0  0  0  0  0  0  0  0
  161.0490  203.8920  150.6580 C   0  0  1  0  0  3  0  0  0  0  0  0
  160.3030  202.0170  148.1820 C   0  0  0  0  0  2  0  0  0  0  0  0
  160.3040  206.2020  146.9850 O   0  0  0  0  0  1  0  0  0  0  0  0
  160.1240  206.9520  154.2650 C   0  0  0  0  0  3  0  0  0  0  0  0
  160.8310  206.6930  153.1610 C   0  0  0  0  0  0  0  0  0  0  0  0
  160.5990  205.6840  148.2520 C   0  0  1  0  0  3  0  0  0  0  0  0
  162.0500  210.1820  148.4340 C   0  0  0  0  0  2  0  0  0  0  0  0
  161.5810  212.5960  148.7050 C   0  0  0  0  0  1  0  0  0  0  0  0
  161.9550  211.3220  149.4310 C   0  0  0  0  0  2  0  0  0  0  0  0
  1  5  1  6  0  0  0
  1 19  1  0  0  0  0
  2 13  1  0  0  0  0
  4 20  1  0  0  0  0
  4  1  1  0  0  0  0
  6  8  1  0  0  0  0
  7 27  1  0  0  0  0
  7  9  1  0  0  0  0
  8 12  1  0  0  0  0
  8 11  1  0  0  0  0
  9 22  1  0  0  0  0
 10 21  2  0  0  0  0
 10  3  1  0  0  0  0
 11  5  1  0  0  0  0
 12  4  1  0  0  0  0
 13 18  2  0  0  0  0
 14  9  1  0  0  0  0
 15  7  1  0  0  0  0
 15 23  1  0  0  0  0
 16  2  2  0  0  0  0
 17  3  1  0  0  0  0
 17 26  1  0  0  0  0
 19 26  1  0  0  0  0
 19  2  1  0  0  0  0
 20 17  1  0  0  0  0
 22 20  1  0  0  0  0
 22 10  1  0  0  0  0
 23 14  1  0  0  0  0
 24 27  1  0  0  0  0
 25 18  1  0  0  0  0
 26 25  2  0  0  0  0
 27 12  1  0  0  0  0
 28 11  1  0  0  0  0
 28 30  1  0  0  0  0
 29 30  1  0  0  0  0
M  END
>  <MODEL>
9

>  <REMARK>
 VINA RESULT:      -4.2      3.076      6.278
  Name = 
  2 active torsions:
  status: ('A' for Active; 'I' for Inactive)
    1  A    between atoms: C_11  and  C_28
    2  A    between atoms: C_28  and  C_30
                            x       y       z     vdW  Elec       q    Type
                         _______ _______ _______ _____ _____    ______ ____

>  <TORSDO>
F 2

$$$$
