=
 OpenBabel11122413443D

 37 44  0  0  1  0  0  0  0  0999 V2000
  160.8130  204.4340  147.8180 C   0  0  0  0  0  2  0  0  0  0  0  0
  160.7620  203.6330  152.2830 C   0  0  0  0  0  0  0  0  0  0  0  0
  161.3740  207.7350  151.2070 C   0  0  0  0  0  0  0  0  0  0  0  0
  161.2700  203.5780  146.7210 N   0  0  0  0  0  0  0  0  0  0  0  0
  161.5400  208.5220  147.4490 O   0  0  0  0  0  0  0  0  0  0  0  0
  161.2060  206.1050  153.0930 C   0  0  0  0  0  0  0  0  0  0  0  0
  161.8100  207.4620  149.7810 C   0  0  0  0  0  0  0  0  0  0  0  0
  161.0580  205.4820  145.2990 C   0  0  0  0  0  0  0  0  0  0  0  0
  161.2320  206.4630  151.6730 C   0  0  0  0  0  0  0  0  0  0  0  0
  162.0180  208.6430  148.7910 C   0  0  2  0  0  3  0  0  0  0  0  0
  160.9090  207.1130  154.0870 C   0  0  0  0  0  3  0  0  0  0  0  0
  161.7180  204.1750  145.4850 C   0  0  0  0  0  2  0  0  0  0  0  0
  161.2310  205.5660  150.6480 C   0  0  0  0  0  0  0  0  0  0  0  0
  159.3310  203.5920  152.0110 C   0  0  0  0  0  1  0  0  0  0  0  0
  161.4570  210.3290  151.8770 C   0  0  0  0  0  2  0  0  0  0  0  0
  161.1420  208.4740  153.6560 C   0  0  0  0  0  3  0  0  0  0  0  0
  161.4250  204.0950  150.9870 C   0  0  0  0  0  2  0  0  0  0  0  0
  161.8690  206.5780  145.8040 C   0  0  1  0  0  3  0  0  0  0  0  0
  161.1420  207.2550  146.9800 C   0  0  1  0  0  3  0  0  0  0  0  0
  161.3770  208.8300  152.2810 C   0  0  0  0  0  0  0  0  0  0  0  0
  161.5230  206.1070  149.4220 N   0  0  0  0  0  0  0  0  0  0  0  0
  161.2370  204.6390  153.4540 C   0  0  0  0  0  2  0  0  0  0  0  0
  161.6170  210.0260  149.2730 C   0  0  1  0  0  3  0  0  0  0  0  0
  160.9670  202.1910  152.5410 C   0  0  0  0  0  1  0  0  0  0  0  0
  162.3310  206.3120  147.1720 C   0  0  1  0  0  3  0  0  0  0  0  0
  160.0260  205.7640  144.7050 O   0  0  0  0  0  0  0  0  0  0  0  0
  161.9470  205.3350  148.2570 C   0  0  2  0  0  3  0  0  0  0  0  0
  162.2100  210.4270  150.5490 C   0  0  0  0  0  2  0  0  0  0  0  0
  161.6670  201.7840  148.0400 O   0  0  0  0  0  0  0  0  0  0  0  0
  161.6510  202.2990  146.8880 C   0  0  0  0  0  3  0  0  0  0  0  0
  163.1130  211.7360  148.2610 C   0  0  0  0  0  3  0  0  0  0  0  0
  161.8880  211.0840  148.2670 C   0  0  0  0  0  0  0  0  0  0  0  0
  160.8320  211.7030  147.5420 C   0  0  0  0  0  3  0  0  0  0  0  0
  159.8470  213.4720  145.6660 Cl  0  0  0  0  0  0  0  0  0  0  0  0
  162.3920  213.2990  146.6260 C   0  0  0  0  0  3  0  0  0  0  0  0
  161.1010  212.7770  146.7040 C   0  0  0  0  0  0  0  0  0  0  0  0
  163.3540  212.7930  147.4590 N   0  0  0  0  0  0  0  0  0  0  0  0
  1 27  1  0  0  0  0
  2 24  1  0  0  0  0
  2 22  1  0  0  0  0
  3  9  1  0  0  0  0
  3 20  1  0  0  0  0
  4 30  1  0  0  0  0
  4  1  1  0  0  0  0
  6 22  1  0  0  0  0
  6 11  2  0  0  0  0
  7  3  2  0  0  0  0
  8 12  1  0  0  0  0
  9  6  1  0  0  0  0
 10  5  1  6  0  0  0
 10 23  1  0  0  0  0
 10  7  1  0  0  0  0
 12  4  1  0  0  0  0
 13 17  1  0  0  0  0
 13  9  2  0  0  0  0
 14  2  1  0  0  0  0
 15 20  1  0  0  0  0
 16 11  1  0  0  0  0
 17  2  1  0  0  0  0
 18  8  1  1  0  0  0
 18 19  1  0  0  0  0
 18 25  1  0  0  0  0
 19 25  1  0  0  0  0
 19  5  1  6  0  0  0
 20 16  2  0  0  0  0
 21  7  1  0  0  0  0
 21 13  1  0  0  0  0
 23 32  1  6  0  0  0
 23 28  1  0  0  0  0
 25 27  1  0  0  0  0
 26  8  2  0  0  0  0
 27 21  1  0  0  0  0
 28 15  1  0  0  0  0
 30 29  2  0  0  0  0
 31 32  1  0  0  0  0
 33 32  2  0  0  0  0
 34 36  1  0  0  0  0
 35 36  2  0  0  0  0
 35 37  1  0  0  0  0
 36 33  1  0  0  0  0
 37 31  2  0  0  0  0
M  END
>  <MODEL>
1

>  <REMARK>
 VINA RESULT:      -5.6      0.000      0.000
  Name = 
  1 active torsions:
  status: ('A' for Active; 'I' for Inactive)
    1  A    between atoms: C_23  and  C_30
                            x       y       z     vdW  Elec       q    Type
                         _______ _______ _______ _____ _____    ______ ____

>  <TORSDO>
F 1

$$$$
=
 OpenBabel11122413443D

 37 44  0  0  1  0  0  0  0  0999 V2000
  160.4400  211.8400  149.1090 C   0  0  0  0  0  2  0  0  0  0  0  0
  162.2600  207.7120  149.5780 C   0  0  0  0  0  0  0  0  0  0  0  0
  160.5500  209.3310  153.1570 C   0  0  0  0  0  0  0  0  0  0  0  0
  160.8360  212.9410  148.2260 N   0  0  0  0  0  0  0  0  0  0  0  0
  159.0690  212.8700  152.9090 O   0  0  0  0  0  0  0  0  0  0  0  0
  161.7830  207.4030  152.1550 C   0  0  0  0  0  0  0  0  0  0  0  0
  160.5550  210.7760  152.6960 C   0  0  0  0  0  0  0  0  0  0  0  0
  159.3210  214.3180  149.4540 C   0  0  0  0  0  0  0  0  0  0  0  0
  161.1650  208.7300  152.1000 C   0  0  0  0  0  0  0  0  0  0  0  0
  159.8610  211.8700  153.5560 C   0  0  2  0  0  3  0  0  0  0  0  0
  161.4160  206.4780  153.2040 C   0  0  0  0  0  3  0  0  0  0  0  0
  160.5200  214.3020  148.5920 C   0  0  0  0  0  2  0  0  0  0  0  0
  161.2240  209.5690  151.0290 C   0  0  0  0  0  0  0  0  0  0  0  0
  161.0040  207.3530  148.9310 C   0  0  0  0  0  1  0  0  0  0  0  0
  159.6730  209.0090  155.6690 C   0  0  0  0  0  2  0  0  0  0  0  0
  160.8480  207.0950  154.3830 C   0  0  0  0  0  3  0  0  0  0  0  0
  162.1640  209.2040  149.8890 C   0  0  0  0  0  2  0  0  0  0  0  0
  159.6670  214.3060  150.8670 C   0  0  1  0  0  3  0  0  0  0  0  0
  159.1540  213.0050  151.5090 C   0  0  1  0  0  3  0  0  0  0  0  0
  160.4190  208.4680  154.4180 C   0  0  0  0  0  0  0  0  0  0  0  0
  160.8100  210.8500  151.2900 N   0  0  0  0  0  0  0  0  0  0  0  0
  162.5910  206.9500  150.9630 C   0  0  0  0  0  2  0  0  0  0  0  0
  159.0660  211.3990  154.7610 C   0  0  1  0  0  3  0  0  0  0  0  0
  163.1670  207.4280  148.4450 C   0  0  0  0  0  1  0  0  0  0  0  0
  160.6290  213.2390  151.1710 C   0  0  1  0  0  3  0  0  0  0  0  0
  158.1420  214.4480  149.1570 O   0  0  0  0  0  0  0  0  0  0  0  0
  161.1170  212.0060  150.4510 C   0  0  2  0  0  3  0  0  0  0  0  0
  159.8050  210.5340  155.6820 C   0  0  0  0  0  2  0  0  0  0  0  0
  162.4170  211.7450  147.1390 O   0  0  0  0  0  0  0  0  0  0  0  0
  161.7840  212.8270  147.2800 C   0  0  0  0  0  3  0  0  0  0  0  0
  159.2750  213.2830  156.3700 C   0  0  0  0  0  3  0  0  0  0  0  0
  158.4740  212.5220  155.5310 C   0  0  0  0  0  0  0  0  0  0  0  0
  157.0680  212.6280  155.7200 C   0  0  0  0  0  3  0  0  0  0  0  0
  154.8080  213.8810  156.6900 Cl  0  0  0  0  0  0  0  0  0  0  0  0
  157.4100  214.4530  157.2610 C   0  0  0  0  0  3  0  0  0  0  0  0
  156.5520  213.6130  156.5520 C   0  0  0  0  0  0  0  0  0  0  0  0
  158.7580  214.2210  157.1910 N   0  0  0  0  0  0  0  0  0  0  0  0
  1 27  1  0  0  0  0
  2 17  1  0  0  0  0
  2 22  1  0  0  0  0
  3 20  1  0  0  0  0
  4 12  1  0  0  0  0
  4  1  1  0  0  0  0
  5 10  1  0  0  0  0
  6 11  2  0  0  0  0
  7  3  2  0  0  0  0
  9  6  1  0  0  0  0
  9  3  1  0  0  0  0
 10  7  1  6  0  0  0
 10 23  1  0  0  0  0
 11 16  1  0  0  0  0
 12  8  1  0  0  0  0
 13 21  1  0  0  0  0
 13  9  2  0  0  0  0
 14  2  1  0  0  0  0
 15 28  1  0  0  0  0
 16 20  2  0  0  0  0
 17 13  1  0  0  0  0
 18  8  1  6  0  0  0
 18 25  1  0  0  0  0
 18 19  1  0  0  0  0
 19  5  1  1  0  0  0
 20 15  1  0  0  0  0
 21  7  1  0  0  0  0
 22  6  1  0  0  0  0
 23 32  1  1  0  0  0
 23 28  1  0  0  0  0
 24  2  1  0  0  0  0
 25 19  1  0  0  0  0
 26  8  2  0  0  0  0
 27 25  1  0  0  0  0
 27 21  1  0  0  0  0
 29 30  2  0  0  0  0
 30  4  1  0  0  0  0
 31 37  1  0  0  0  0
 32 33  1  0  0  0  0
 32 31  2  0  0  0  0
 33 36  2  0  0  0  0
 36 34  1  0  0  0  0
 36 35  1  0  0  0  0
 37 35  2  0  0  0  0
M  END
>  <MODEL>
2

>  <REMARK>
 VINA RESULT:      -5.2      4.504      7.537
  Name = 
  1 active torsions:
  status: ('A' for Active; 'I' for Inactive)
    1  A    between atoms: C_23  and  C_30
                            x       y       z     vdW  Elec       q    Type
                         _______ _______ _______ _____ _____    ______ ____

>  <TORSDO>
F 1

$$$$
=
 OpenBabel11122413443D

 37 44  0  0  1  0  0  0  0  0999 V2000
  160.8960  207.5840  151.9620 C   0  0  0  0  0  2  0  0  0  0  0  0
  159.5600  210.2230  155.4010 C   0  0  0  0  0  0  0  0  0  0  0  0
  160.1400  212.2800  151.6870 C   0  0  0  0  0  0  0  0  0  0  0  0
  161.7310  206.3800  151.9790 N   0  0  0  0  0  0  0  0  0  0  0  0
  161.3720  210.1640  148.7230 O   0  0  0  0  0  0  0  0  0  0  0  0
  159.5400  212.5200  154.1000 C   0  0  0  0  0  0  0  0  0  0  0  0
  161.0070  211.2130  151.0480 C   0  0  0  0  0  0  0  0  0  0  0  0
  161.8070  206.5390  149.5990 C   0  0  0  0  0  0  0  0  0  0  0  0
  159.9660  211.7490  152.9290 C   0  0  0  0  0  0  0  0  0  0  0  0
  161.4110  211.3300  149.5510 C   0  0  2  0  0  3  0  0  0  0  0  0
  158.8770  213.7920  153.9250 C   0  0  0  0  0  3  0  0  0  0  0  0
  162.4830  206.0130  150.8010 C   0  0  0  0  0  2  0  0  0  0  0  0
  160.3460  210.4410  152.9590 C   0  0  0  0  0  0  0  0  0  0  0  0
  158.2870  209.6020  155.0600 C   0  0  0  0  0  1  0  0  0  0  0  0
  159.8100  214.4530  150.1540 C   0  0  0  0  0  2  0  0  0  0  0  0
  159.1200  214.4300  152.6490 C   0  0  0  0  0  3  0  0  0  0  0  0
  160.5460  209.7880  154.3190 C   0  0  0  0  0  2  0  0  0  0  0  0
  162.3380  207.8340  149.2000 C   0  0  1  0  0  3  0  0  0  0  0  0
  161.2370  208.9010  149.3320 C   0  0  1  0  0  3  0  0  0  0  0  0
  159.7300  213.7500  151.5380 C   0  0  0  0  0  0  0  0  0  0  0  0
  160.9520  210.0020  151.8090 N   0  0  0  0  0  0  0  0  0  0  0  0
  159.5770  211.8380  155.4470 C   0  0  0  0  0  2  0  0  0  0  0  0
  160.7740  212.4530  148.7510 C   0  0  1  0  0  3  0  0  0  0  0  0
  159.7920  209.5330  156.6880 C   0  0  0  0  0  1  0  0  0  0  0  0
  162.3840  208.7630  150.3360 C   0  0  1  0  0  3  0  0  0  0  0  0
  160.9850  206.0100  148.8640 O   0  0  0  0  0  0  0  0  0  0  0  0
  161.7690  208.7950  151.7140 C   0  0  2  0  0  3  0  0  0  0  0  0
  160.9190  213.7840  149.3400 C   0  0  0  0  0  2  0  0  0  0  0  0
  161.8510  206.2700  154.2340 O   0  0  0  0  0  0  0  0  0  0  0  0
  162.1430  205.7800  153.1090 C   0  0  0  0  0  3  0  0  0  0  0  0
  162.5090  213.0060  147.0580 C   0  0  0  0  0  3  0  0  0  0  0  0
  161.2510  212.4970  147.3460 C   0  0  0  0  0  0  0  0  0  0  0  0
  160.3480  212.3730  146.2540 C   0  0  0  0  0  3  0  0  0  0  0  0
  159.7500  212.2470  143.5620 Cl  0  0  0  0  0  0  0  0  0  0  0  0
  162.1260  212.9170  144.7170 C   0  0  0  0  0  3  0  0  0  0  0  0
  160.8020  212.5480  144.9530 C   0  0  0  0  0  0  0  0  0  0  0  0
  162.9300  213.1930  145.7910 N   0  0  0  0  0  0  0  0  0  0  0  0
  1  4  1  0  0  0  0
  2 22  1  0  0  0  0
  2 24  1  0  0  0  0
  3  9  1  0  0  0  0
  4 30  1  0  0  0  0
  6 22  1  0  0  0  0
  7  3  2  0  0  0  0
  7 21  1  0  0  0  0
  8 12  1  0  0  0  0
  9 13  2  0  0  0  0
  9  6  1  0  0  0  0
 10  5  1  6  0  0  0
 10  7  1  0  0  0  0
 11  6  2  0  0  0  0
 12  4  1  0  0  0  0
 13 17  1  0  0  0  0
 14  2  1  0  0  0  0
 15 20  1  0  0  0  0
 16 11  1  0  0  0  0
 17  2  1  0  0  0  0
 18 19  1  0  0  0  0
 18  8  1  1  0  0  0
 18 25  1  0  0  0  0
 19  5  1  6  0  0  0
 19 25  1  0  0  0  0
 20  3  1  0  0  0  0
 20 16  2  0  0  0  0
 21 13  1  0  0  0  0
 23 32  1  6  0  0  0
 23 28  1  0  0  0  0
 23 10  1  0  0  0  0
 25 27  1  0  0  0  0
 26  8  2  0  0  0  0
 27 21  1  0  0  0  0
 27  1  1  0  0  0  0
 28 15  1  0  0  0  0
 30 29  2  0  0  0  0
 31 32  1  0  0  0  0
 33 32  2  0  0  0  0
 34 36  1  0  0  0  0
 35 36  2  0  0  0  0
 35 37  1  0  0  0  0
 36 33  1  0  0  0  0
 37 31  2  0  0  0  0
M  END
>  <MODEL>
3

>  <REMARK>
 VINA RESULT:      -4.8      2.782      5.055
  Name = 
  1 active torsions:
  status: ('A' for Active; 'I' for Inactive)
    1  A    between atoms: C_23  and  C_30
                            x       y       z     vdW  Elec       q    Type
                         _______ _______ _______ _____ _____    ______ ____

>  <TORSDO>
F 1

$$$$
=
 OpenBabel11122413443D

 37 44  0  0  1  0  0  0  0  0999 V2000
  161.7810  211.8450  150.6440 C   0  0  0  0  0  2  0  0  0  0  0  0
  160.7210  210.6450  154.8880 C   0  0  0  0  0  0  0  0  0  0  0  0
  161.2110  207.3680  152.1700 C   0  0  0  0  0  0  0  0  0  0  0  0
  161.4000  213.0410  149.8890 N   0  0  0  0  0  0  0  0  0  0  0  0
  162.0100  208.2660  148.5190 O   0  0  0  0  0  0  0  0  0  0  0  0
  160.6350  208.0340  154.5080 C   0  0  0  0  0  0  0  0  0  0  0  0
  161.0400  208.1850  150.9040 C   0  0  0  0  0  0  0  0  0  0  0  0
  162.2970  211.9670  147.9560 C   0  0  0  0  0  0  0  0  0  0  0  0
  160.9850  208.3230  153.1160 C   0  0  0  0  0  0  0  0  0  0  0  0
  161.2940  207.5320  149.5160 C   0  0  2  0  0  3  0  0  0  0  0  0
  160.9170  206.7320  155.0690 C   0  0  0  0  0  3  0  0  0  0  0  0
  161.3570  212.9940  148.4460 C   0  0  0  0  0  2  0  0  0  0  0  0
  161.0180  209.5690  152.5670 C   0  0  0  0  0  0  0  0  0  0  0  0
  162.1370  210.9390  155.0640 C   0  0  0  0  0  1  0  0  0  0  0  0
  161.5250  204.7450  151.7210 C   0  0  0  0  0  2  0  0  0  0  0  0
  161.0680  205.6730  154.0940 C   0  0  0  0  0  3  0  0  0  0  0  0
  160.4560  210.7230  153.3860 C   0  0  0  0  0  2  0  0  0  0  0  0
  161.6410  210.6860  147.7450 C   0  0  1  0  0  3  0  0  0  0  0  0
  162.2280  209.6440  148.7140 C   0  0  1  0  0  3  0  0  0  0  0  0
  161.2070  205.9230  152.6830 C   0  0  0  0  0  0  0  0  0  0  0  0
  161.1090  209.5840  151.1990 N   0  0  0  0  0  0  0  0  0  0  0  0
  160.2270  209.1900  155.3900 C   0  0  0  0  0  2  0  0  0  0  0  0
  161.8610  206.1230  149.5100 C   0  0  1  0  0  3  0  0  0  0  0  0
  160.1720  211.8060  155.6200 C   0  0  0  0  0  1  0  0  0  0  0  0
  160.8560  210.2900  148.9200 C   0  0  1  0  0  3  0  0  0  0  0  0
  163.4660  212.0720  147.6120 O   0  0  0  0  0  0  0  0  0  0  0  0
  160.7920  210.7370  150.3610 C   0  0  2  0  0  3  0  0  0  0  0  0
  161.1070  205.1560  150.3080 C   0  0  0  0  0  2  0  0  0  0  0  0
  160.3720  214.0420  151.6370 O   0  0  0  0  0  0  0  0  0  0  0  0
  160.7370  214.0780  150.4290 C   0  0  0  0  0  3  0  0  0  0  0  0
  162.4170  206.4240  147.1050 C   0  0  0  0  0  3  0  0  0  0  0  0
  162.0340  205.5810  148.1390 C   0  0  0  0  0  0  0  0  0  0  0  0
  161.4850  204.3230  147.7660 C   0  0  0  0  0  3  0  0  0  0  0  0
  161.0240  202.2800  145.9690 Cl  0  0  0  0  0  0  0  0  0  0  0  0
  162.0860  204.7380  145.4670 C   0  0  0  0  0  3  0  0  0  0  0  0
  161.5490  203.9010  146.4440 C   0  0  0  0  0  0  0  0  0  0  0  0
  162.4530  206.0090  145.8220 N   0  0  0  0  0  0  0  0  0  0  0  0
  2 14  1  0  0  0  0
  2 22  1  0  0  0  0
  2 24  1  0  0  0  0
  3 20  1  0  0  0  0
  3  9  1  0  0  0  0
  4 30  1  0  0  0  0
  4  1  1  0  0  0  0
  6 11  2  0  0  0  0
  6 22  1  0  0  0  0
  7 21  1  0  0  0  0
  7  3  2  0  0  0  0
  8 12  1  0  0  0  0
  9  6  1  0  0  0  0
 10  5  1  6  0  0  0
 10  7  1  0  0  0  0
 12  4  1  0  0  0  0
 13  9  2  0  0  0  0
 13 17  1  0  0  0  0
 15 20  1  0  0  0  0
 16 11  1  0  0  0  0
 17  2  1  0  0  0  0
 18  8  1  1  0  0  0
 18 19  1  0  0  0  0
 18 25  1  0  0  0  0
 19  5  1  6  0  0  0
 19 25  1  0  0  0  0
 20 16  2  0  0  0  0
 21 13  1  0  0  0  0
 23 32  1  6  0  0  0
 23 10  1  0  0  0  0
 23 28  1  0  0  0  0
 25 27  1  0  0  0  0
 26  8  2  0  0  0  0
 27  1  1  0  0  0  0
 27 21  1  0  0  0  0
 28 15  1  0  0  0  0
 30 29  2  0  0  0  0
 31 32  1  0  0  0  0
 33 32  2  0  0  0  0
 34 36  1  0  0  0  0
 35 37  1  0  0  0  0
 35 36  2  0  0  0  0
 36 33  1  0  0  0  0
 37 31  2  0  0  0  0
M  END
>  <MODEL>
4

>  <REMARK>
 VINA RESULT:      -3.9      2.857      6.704
  Name = 
  1 active torsions:
  status: ('A' for Active; 'I' for Inactive)
    1  A    between atoms: C_23  and  C_30
                            x       y       z     vdW  Elec       q    Type
                         _______ _______ _______ _____ _____    ______ ____

>  <TORSDO>
F 1

$$$$
=
 OpenBabel11122413443D

 37 44  0  0  1  0  0  0  0  0999 V2000
  160.8050  206.2240  151.3800 C   0  0  0  0  0  2  0  0  0  0  0  0
  159.9950  207.9600  155.4920 C   0  0  0  0  0  0  0  0  0  0  0  0
  160.4930  210.8700  152.3860 C   0  0  0  0  0  0  0  0  0  0  0  0
  161.5170  204.9990  151.0080 N   0  0  0  0  0  0  0  0  0  0  0  0
  161.2880  209.5210  148.8760 O   0  0  0  0  0  0  0  0  0  0  0  0
  160.1020  210.5120  154.8280 C   0  0  0  0  0  0  0  0  0  0  0  0
  161.2020  209.9460  151.4150 C   0  0  0  0  0  0  0  0  0  0  0  0
  161.4310  205.7710  148.7520 C   0  0  0  0  0  0  0  0  0  0  0  0
  160.3610  210.0460  153.4630 C   0  0  0  0  0  0  0  0  0  0  0  0
  161.5020  210.4220  149.9650 C   0  0  2  0  0  3  0  0  0  0  0  0
  159.5540  211.8320  155.0490 C   0  0  0  0  0  3  0  0  0  0  0  0
  162.1400  204.8980  149.7080 C   0  0  0  0  0  2  0  0  0  0  0  0
  160.6130  208.7520  153.1210 C   0  0  0  0  0  0  0  0  0  0  0  0
  158.6440  207.5470  155.1300 C   0  0  0  0  0  1  0  0  0  0  0  0
  160.2630  213.3880  151.4980 C   0  0  0  0  0  2  0  0  0  0  0  0
  159.7620  212.7630  153.9600 C   0  0  0  0  0  3  0  0  0  0  0  0
  160.8490  207.7510  154.2430 C   0  0  0  0  0  2  0  0  0  0  0  0
  162.0540  207.0820  148.6460 C   0  0  1  0  0  3  0  0  0  0  0  0
  161.0760  208.1560  149.1530 C   0  0  1  0  0  3  0  0  0  0  0  0
  160.2190  212.3540  152.6580 C   0  0  0  0  0  0  0  0  0  0  0  0
  161.0860  208.5860  151.8450 N   0  0  0  0  0  0  0  0  0  0  0  0
  160.1720  209.5000  155.9460 C   0  0  0  0  0  2  0  0  0  0  0  0
  160.9200  211.7600  149.5450 C   0  0  1  0  0  3  0  0  0  0  0  0
  160.2530  206.9410  156.5310 C   0  0  0  0  0  1  0  0  0  0  0  0
  162.2750  207.6740  149.9720 C   0  0  1  0  0  3  0  0  0  0  0  0
  160.5080  205.5160  147.9900 O   0  0  0  0  0  0  0  0  0  0  0  0
  161.7710  207.3880  151.3660 C   0  0  2  0  0  3  0  0  0  0  0  0
  161.2380  212.8750  150.4370 C   0  0  0  0  0  2  0  0  0  0  0  0
  161.7950  204.2920  153.1380 O   0  0  0  0  0  0  0  0  0  0  0  0
  161.9530  204.0940  151.9010 C   0  0  0  0  0  3  0  0  0  0  0  0
  162.5510  212.6590  147.8970 C   0  0  0  0  0  3  0  0  0  0  0  0
  161.2920  212.1360  148.1580 C   0  0  0  0  0  0  0  0  0  0  0  0
  160.3050  212.3160  147.1490 C   0  0  0  0  0  3  0  0  0  0  0  0
  159.5030  212.8810  144.5700 Cl  0  0  0  0  0  0  0  0  0  0  0  0
  161.9900  213.1660  145.6460 C   0  0  0  0  0  3  0  0  0  0  0  0
  160.6700  212.7940  145.8970 C   0  0  0  0  0  0  0  0  0  0  0  0
  162.8860  213.1410  146.6830 N   0  0  0  0  0  0  0  0  0  0  0  0
  2 22  1  0  0  0  0
  2 24  1  0  0  0  0
  3 20  1  0  0  0  0
  3  9  1  0  0  0  0
  4  1  1  0  0  0  0
  4 30  1  0  0  0  0
  6 11  2  0  0  0  0
  6 22  1  0  0  0  0
  7 21  1  0  0  0  0
  7  3  2  0  0  0  0
  8 12  1  0  0  0  0
  9  6  1  0  0  0  0
 10  5  1  6  0  0  0
 10  7  1  0  0  0  0
 12  4  1  0  0  0  0
 13  9  2  0  0  0  0
 13 17  1  0  0  0  0
 14  2  1  0  0  0  0
 15 20  1  0  0  0  0
 16 11  1  0  0  0  0
 17  2  1  0  0  0  0
 18  8  1  1  0  0  0
 18 19  1  0  0  0  0
 18 25  1  0  0  0  0
 19  5  1  6  0  0  0
 19 25  1  0  0  0  0
 20 16  2  0  0  0  0
 21 13  1  0  0  0  0
 23 32  1  6  0  0  0
 23 10  1  0  0  0  0
 23 28  1  0  0  0  0
 25 27  1  0  0  0  0
 26  8  2  0  0  0  0
 27  1  1  0  0  0  0
 27 21  1  0  0  0  0
 28 15  1  0  0  0  0
 30 29  2  0  0  0  0
 31 32  1  0  0  0  0
 33 32  2  0  0  0  0
 34 36  1  0  0  0  0
 35 36  2  0  0  0  0
 35 37  1  0  0  0  0
 36 33  1  0  0  0  0
 37 31  2  0  0  0  0
M  END
>  <MODEL>
5

>  <REMARK>
 VINA RESULT:      -3.2      2.143      3.725
  Name = 
  1 active torsions:
  status: ('A' for Active; 'I' for Inactive)
    1  A    between atoms: C_23  and  C_30
                            x       y       z     vdW  Elec       q    Type
                         _______ _______ _______ _____ _____    ______ ____

>  <TORSDO>
F 1

$$$$
=
 OpenBabel11122413443D

 37 44  0  0  1  0  0  0  0  0999 V2000
  160.8160  211.3000  149.0800 C   0  0  0  0  0  2  0  0  0  0  0  0
  162.2440  207.0130  148.6760 C   0  0  0  0  0  0  0  0  0  0  0  0
  160.8650  208.0780  152.5900 C   0  0  0  0  0  0  0  0  0  0  0  0
  161.2780  212.5070  148.3900 N   0  0  0  0  0  0  0  0  0  0  0  0
  159.7260  211.7170  153.0830 O   0  0  0  0  0  0  0  0  0  0  0  0
  161.8560  206.2710  151.1780 C   0  0  0  0  0  0  0  0  0  0  0  0
  160.9890  209.5770  152.4000 C   0  0  0  0  0  0  0  0  0  0  0  0
  159.9620  213.7570  149.9390 C   0  0  0  0  0  0  0  0  0  0  0  0
  161.3690  207.6340  151.4050 C   0  0  0  0  0  0  0  0  0  0  0  0
  160.4450  210.5480  153.4860 C   0  0  2  0  0  3  0  0  0  0  0  0
  161.4480  205.2020  152.0620 C   0  0  0  0  0  3  0  0  0  0  0  0
  161.1140  213.7980  149.0160 C   0  0  0  0  0  2  0  0  0  0  0  0
  161.4620  208.6500  150.5030 C   0  0  0  0  0  0  0  0  0  0  0  0
  160.9310  206.8940  148.0540 C   0  0  0  0  0  1  0  0  0  0  0  0
  160.0750  207.3710  155.0510 C   0  0  0  0  0  2  0  0  0  0  0  0
  160.9970  205.6350  153.3670 C   0  0  0  0  0  3  0  0  0  0  0  0
  162.3080  208.4230  149.2580 C   0  0  0  0  0  2  0  0  0  0  0  0
  160.3690  213.4520  151.3030 C   0  0  1  0  0  3  0  0  0  0  0  0
  159.7610  212.1030  151.7280 C   0  0  1  0  0  3  0  0  0  0  0  0
  160.7070  207.0090  153.6780 C   0  0  0  0  0  0  0  0  0  0  0  0
  161.1870  209.8910  151.0180 N   0  0  0  0  0  0  0  0  0  0  0  0
  162.5620  205.9790  149.8760 C   0  0  0  0  0  2  0  0  0  0  0  0
  159.6640  209.9310  154.6330 C   0  0  1  0  0  3  0  0  0  0  0  0
  163.0670  206.8670  147.4560 C   0  0  0  0  0  1  0  0  0  0  0  0
  161.2340  212.2670  151.3470 C   0  0  1  0  0  3  0  0  0  0  0  0
  158.7890  214.0440  149.7460 O   0  0  0  0  0  0  0  0  0  0  0  0
  161.5670  211.1510  150.3860 C   0  0  2  0  0  3  0  0  0  0  0  0
  160.3560  208.8480  155.3330 C   0  0  0  0  0  2  0  0  0  0  0  0
  162.6830  211.4010  147.0060 O   0  0  0  0  0  0  0  0  0  0  0  0
  162.1660  212.4900  147.3810 C   0  0  0  0  0  3  0  0  0  0  0  0
  157.8950  210.9660  156.0410 C   0  0  0  0  0  3  0  0  0  0  0  0
  159.2200  210.9380  155.6300 C   0  0  0  0  0  0  0  0  0  0  0  0
  160.0020  212.0920  155.9150 C   0  0  0  0  0  3  0  0  0  0  0  0
  160.5000  214.4500  157.2590 Cl  0  0  0  0  0  0  0  0  0  0  0  0
  158.2060  212.9800  157.2600 C   0  0  0  0  0  3  0  0  0  0  0  0
  159.5010  213.0800  156.7530 C   0  0  0  0  0  0  0  0  0  0  0  0
  157.4160  211.9440  156.8370 N   0  0  0  0  0  0  0  0  0  0  0  0
  1 27  1  0  0  0  0
  2 17  1  0  0  0  0
  2 22  1  0  0  0  0
  3 20  1  0  0  0  0
  4 12  1  0  0  0  0
  4  1  1  0  0  0  0
  5 10  1  0  0  0  0
  6  9  1  0  0  0  0
  6 11  2  0  0  0  0
  7  3  2  0  0  0  0
  9  3  1  0  0  0  0
 10  7  1  6  0  0  0
 10 23  1  0  0  0  0
 11 16  1  0  0  0  0
 12  8  1  0  0  0  0
 13 21  1  0  0  0  0
 13  9  2  0  0  0  0
 14  2  1  0  0  0  0
 15 28  1  0  0  0  0
 16 20  2  0  0  0  0
 17 13  1  0  0  0  0
 18  8  1  6  0  0  0
 18 25  1  0  0  0  0
 18 19  1  0  0  0  0
 19  5  1  1  0  0  0
 20 15  1  0  0  0  0
 21  7  1  0  0  0  0
 22  6  1  0  0  0  0
 23 28  1  0  0  0  0
 23 32  1  1  0  0  0
 24  2  1  0  0  0  0
 25 19  1  0  0  0  0
 26  8  2  0  0  0  0
 27 21  1  0  0  0  0
 27 25  1  0  0  0  0
 29 30  2  0  0  0  0
 30  4  1  0  0  0  0
 31 37  1  0  0  0  0
 32 33  1  0  0  0  0
 32 31  2  0  0  0  0
 33 36  2  0  0  0  0
 36 34  1  0  0  0  0
 36 35  1  0  0  0  0
 37 35  2  0  0  0  0
M  END
>  <MODEL>
6

>  <REMARK>
 VINA RESULT:      -2.8      3.900      7.218
  Name = 
  1 active torsions:
  status: ('A' for Active; 'I' for Inactive)
    1  A    between atoms: C_23  and  C_30
                            x       y       z     vdW  Elec       q    Type
                         _______ _______ _______ _____ _____    ______ ____

>  <TORSDO>
F 1

$$$$
=
 OpenBabel11122413443D

 37 44  0  0  1  0  0  0  0  0999 V2000
  161.5690  207.6100  153.9700 C   0  0  0  0  0  2  0  0  0  0  0  0
  160.8510  203.5890  151.9970 C   0  0  0  0  0  0  0  0  0  0  0  0
  161.4460  206.8400  149.2700 C   0  0  0  0  0  0  0  0  0  0  0  0
  161.0510  208.1350  155.2360 N   0  0  0  0  0  0  0  0  0  0  0  0
  161.9620  210.3170  150.8240 O   0  0  0  0  0  0  0  0  0  0  0  0
  160.9530  204.4000  149.4880 C   0  0  0  0  0  0  0  0  0  0  0  0
  161.1380  207.9410  150.2660 C   0  0  0  0  0  0  0  0  0  0  0  0
  161.9190  210.2580  154.5790 C   0  0  0  0  0  0  0  0  0  0  0  0
  161.1990  205.7380  150.0320 C   0  0  0  0  0  0  0  0  0  0  0  0
  161.3640  209.4290  149.8760 C   0  0  2  0  0  3  0  0  0  0  0  0
  161.3700  204.0810  148.1410 C   0  0  0  0  0  3  0  0  0  0  0  0
  160.9290  209.5620  155.4240 C   0  0  0  0  0  2  0  0  0  0  0  0
  161.1010  206.0690  151.3500 C   0  0  0  0  0  0  0  0  0  0  0  0
  162.2470  203.4260  152.3830 C   0  0  0  0  0  1  0  0  0  0  0  0
  161.9430  207.7390  146.7950 C   0  0  0  0  0  2  0  0  0  0  0  0
  161.5490  205.2260  147.2750 C   0  0  0  0  0  3  0  0  0  0  0  0
  160.4960  205.0430  152.2990 C   0  0  0  0  0  2  0  0  0  0  0  0
  161.3570  210.6550  153.2970 C   0  0  1  0  0  3  0  0  0  0  0  0
  162.0790  209.9020  152.1650 C   0  0  1  0  0  3  0  0  0  0  0  0
  161.5870  206.5790  147.7650 C   0  0  0  0  0  0  0  0  0  0  0  0
  161.1130  207.4170  151.5970 N   0  0  0  0  0  0  0  0  0  0  0  0
  160.5050  203.3200  150.4420 C   0  0  0  0  0  2  0  0  0  0  0  0
  162.0410  209.6980  148.5430 C   0  0  1  0  0  3  0  0  0  0  0  0
  160.2540  202.6480  152.9690 C   0  0  0  0  0  1  0  0  0  0  0  0
  160.6740  209.5310  152.6440 C   0  0  1  0  0  3  0  0  0  0  0  0
  163.0550  210.6290  154.8410 O   0  0  0  0  0  0  0  0  0  0  0  0
  160.6560  208.0340  152.8400 C   0  0  2  0  0  3  0  0  0  0  0  0
  161.4130  209.0440  147.3940 C   0  0  0  0  0  2  0  0  0  0  0  0
  160.0470  206.2010  155.8400 O   0  0  0  0  0  0  0  0  0  0  0  0
  160.3390  207.3990  156.1070 C   0  0  0  0  0  3  0  0  0  0  0  0
  163.4170  211.7620  148.3680 C   0  0  0  0  0  3  0  0  0  0  0  0
  162.1780  211.1470  148.2520 C   0  0  0  0  0  0  0  0  0  0  0  0
  161.0420  212.0030  148.2050 C   0  0  0  0  0  3  0  0  0  0  0  0
  159.8270  214.4530  147.8390 Cl  0  0  0  0  0  0  0  0  0  0  0  0
  162.4930  213.9230  148.0340 C   0  0  0  0  0  3  0  0  0  0  0  0
  161.2120  213.3740  148.0610 C   0  0  0  0  0  0  0  0  0  0  0  0
  163.5640  213.0970  148.2480 N   0  0  0  0  0  0  0  0  0  0  0  0
  1  4  1  0  0  0  0
  2 17  1  0  0  0  0
  2 14  1  0  0  0  0
  2 24  1  0  0  0  0
  3  9  1  0  0  0  0
  3  7  2  0  0  0  0
  4 12  1  0  0  0  0
  4 30  1  0  0  0  0
  6  9  1  0  0  0  0
  6 22  1  0  0  0  0
  7 21  1  0  0  0  0
  8 26  2  0  0  0  0
  8 12  1  0  0  0  0
  9 13  2  0  0  0  0
 10  7  1  1  0  0  0
 10  5  1  0  0  0  0
 11  6  2  0  0  0  0
 13 21  1  0  0  0  0
 13 17  1  0  0  0  0
 15 28  1  0  0  0  0
 15 20  1  0  0  0  0
 16 20  2  0  0  0  0
 16 11  1  0  0  0  0
 18  8  1  1  0  0  0
 19  5  1  6  0  0  0
 19 25  1  0  0  0  0
 19 18  1  0  0  0  0
 20  3  1  0  0  0  0
 21 27  1  0  0  0  0
 22  2  1  0  0  0  0
 23 32  1  6  0  0  0
 23 10  1  0  0  0  0
 25 27  1  0  0  0  0
 25 18  1  0  0  0  0
 27  1  1  0  0  0  0
 28 23  1  0  0  0  0
 29 30  2  0  0  0  0
 32 31  1  0  0  0  0
 33 32  2  0  0  0  0
 34 36  1  0  0  0  0
 35 36  2  0  0  0  0
 35 37  1  0  0  0  0
 36 33  1  0  0  0  0
 37 31  2  0  0  0  0
M  END
>  <MODEL>
7

>  <REMARK>
 VINA RESULT:      -2.8      2.614      5.563
  Name = 
  1 active torsions:
  status: ('A' for Active; 'I' for Inactive)
    1  A    between atoms: C_23  and  C_30
                            x       y       z     vdW  Elec       q    Type
                         _______ _______ _______ _____ _____    ______ ____

>  <TORSDO>
F 1

$$$$
=
 OpenBabel11122413443D

 37 44  0  0  1  0  0  0  0  0999 V2000
  161.2400  207.5740  151.4150 C   0  0  0  0  0  2  0  0  0  0  0  0
  160.1740  209.9370  155.1370 C   0  0  0  0  0  0  0  0  0  0  0  0
  160.2040  212.2230  151.5130 C   0  0  0  0  0  0  0  0  0  0  0  0
  162.1340  206.4240  151.2630 N   0  0  0  0  0  0  0  0  0  0  0  0
  161.1950  210.3510  148.3050 O   0  0  0  0  0  0  0  0  0  0  0  0
  159.8780  212.2950  153.9890 C   0  0  0  0  0  0  0  0  0  0  0  0
  161.0470  211.2470  150.7160 C   0  0  0  0  0  0  0  0  0  0  0  0
  161.9240  206.7160  148.9040 C   0  0  0  0  0  0  0  0  0  0  0  0
  160.2050  211.6160  152.7330 C   0  0  0  0  0  0  0  0  0  0  0  0
  161.2670  211.4700  149.1930 C   0  0  2  0  0  3  0  0  0  0  0  0
  159.1310  213.5330  153.9680 C   0  0  0  0  0  3  0  0  0  0  0  0
  162.7620  206.1670  149.9880 C   0  0  0  0  0  2  0  0  0  0  0  0
  160.6570  210.3350  152.6390 C   0  0  0  0  0  0  0  0  0  0  0  0
  158.9040  209.2590  154.9060 C   0  0  0  0  0  1  0  0  0  0  0  0
  159.5800  214.4530  150.1630 C   0  0  0  0  0  2  0  0  0  0  0  0
  159.1890  214.2530  152.7150 C   0  0  0  0  0  3  0  0  0  0  0  0
  161.0480  209.6210  153.9250 C   0  0  0  0  0  2  0  0  0  0  0  0
  162.3340  208.0610  148.5270 C   0  0  1  0  0  3  0  0  0  0  0  0
  161.2000  209.0510  148.8480 C   0  0  1  0  0  3  0  0  0  0  0  0
  159.7010  213.6720  151.5020 C   0  0  0  0  0  0  0  0  0  0  0  0
  161.1470  209.9960  151.4040 N   0  0  0  0  0  0  0  0  0  0  0  0
  160.1080  211.5450  155.2790 C   0  0  0  0  0  2  0  0  0  0  0  0
  160.4810  212.5940  148.5410 C   0  0  1  0  0  3  0  0  0  0  0  0
  160.5910  209.1930  156.3450 C   0  0  0  0  0  1  0  0  0  0  0  0
  162.4610  208.9280  149.7050 C   0  0  1  0  0  3  0  0  0  0  0  0
  161.0510  206.1790  148.2360 O   0  0  0  0  0  0  0  0  0  0  0  0
  162.0100  208.8470  151.1440 C   0  0  2  0  0  3  0  0  0  0  0  0
  160.6220  213.8980  149.1900 C   0  0  0  0  0  2  0  0  0  0  0  0
  162.5230  206.1990  153.4790 O   0  0  0  0  0  0  0  0  0  0  0  0
  162.7080  205.7890  152.3000 C   0  0  0  0  0  3  0  0  0  0  0  0
  159.8950  212.2660  146.1460 C   0  0  0  0  0  3  0  0  0  0  0  0
  160.7880  212.7430  147.0960 C   0  0  0  0  0  0  0  0  0  0  0  0
  162.1060  213.0300  146.6450 C   0  0  0  0  0  3  0  0  0  0  0  0
  163.9730  213.5420  144.6780 Cl  0  0  0  0  0  0  0  0  0  0  0  0
  161.4040  212.6890  144.3620 C   0  0  0  0  0  3  0  0  0  0  0  0
  162.3900  213.0350  145.2860 C   0  0  0  0  0  0  0  0  0  0  0  0
  160.1920  212.2550  144.8310 N   0  0  0  0  0  0  0  0  0  0  0  0
  2 22  1  0  0  0  0
  2 24  1  0  0  0  0
  3  9  1  0  0  0  0
  4  1  1  0  0  0  0
  4 30  1  0  0  0  0
  6 22  1  0  0  0  0
  7 21  1  0  0  0  0
  7  3  2  0  0  0  0
  8 12  1  0  0  0  0
  9  6  1  0  0  0  0
 10  5  1  6  0  0  0
 10  7  1  0  0  0  0
 11  6  2  0  0  0  0
 12  4  1  0  0  0  0
 13  9  2  0  0  0  0
 13 17  1  0  0  0  0
 14  2  1  0  0  0  0
 15 20  1  0  0  0  0
 16 11  1  0  0  0  0
 17  2  1  0  0  0  0
 18 19  1  0  0  0  0
 18  8  1  1  0  0  0
 18 25  1  0  0  0  0
 19  5  1  6  0  0  0
 19 25  1  0  0  0  0
 20  3  1  0  0  0  0
 20 16  2  0  0  0  0
 21 13  1  0  0  0  0
 23 32  1  6  0  0  0
 23 28  1  0  0  0  0
 23 10  1  0  0  0  0
 25 27  1  0  0  0  0
 26  8  2  0  0  0  0
 27 21  1  0  0  0  0
 27  1  1  0  0  0  0
 28 15  1  0  0  0  0
 30 29  2  0  0  0  0
 31 32  1  0  0  0  0
 33 32  2  0  0  0  0
 34 36  1  0  0  0  0
 35 37  1  0  0  0  0
 35 36  2  0  0  0  0
 36 33  1  0  0  0  0
 37 31  2  0  0  0  0
M  END
>  <MODEL>
8

>  <REMARK>
 VINA RESULT:      -2.7      2.719      4.898
  Name = 
  1 active torsions:
  status: ('A' for Active; 'I' for Inactive)
    1  A    between atoms: C_23  and  C_30
                            x       y       z     vdW  Elec       q    Type
                         _______ _______ _______ _____ _____    ______ ____

>  <TORSDO>
F 1

$$$$
