=
 OpenBabel11122412503D

 32 37  0  0  1  0  0  0  0  0999 V2000
  157.6900  213.4340  146.0890 C   0  0  0  0  0  2  0  0  0  0  0  0
  160.0730  212.9550  151.1720 C   0  0  1  0  0  3  0  0  0  0  0  0
  162.0350  209.2350  148.6360 C   0  0  0  0  0  2  0  0  0  0  0  0
  162.2150  208.4000  149.9040 C   0  0  0  0  0  2  0  0  0  0  0  0
  159.4850  212.6200  153.5510 C   0  0  0  0  0  0  0  0  0  0  0  0
  159.4220  211.7630  154.7360 C   0  0  0  0  0  0  0  0  0  0  0  0
  158.7240  213.6930  149.2040 C   0  0  1  0  0  3  0  0  0  0  0  0
  161.1970  213.4060  149.0810 C   0  0  0  0  0  2  0  0  0  0  0  0
  159.7160  209.9700  155.9580 C   0  0  0  0  0  0  0  0  0  0  0  0
  159.9460  214.0770  147.0240 C   0  0  0  0  0  2  0  0  0  0  0  0
  162.1920  210.7220  148.9480 C   0  0  0  0  0  2  0  0  0  0  0  0
  161.2090  212.5810  150.3030 N   0  0  2  0  0  0  0  0  0  0  0  0
  161.1560  211.1380  150.0010 C   0  0  2  0  0  3  0  0  0  0  0  0
  160.5870  210.7700  152.3980 N   0  0  0  0  0  0  0  0  0  0  0  0
  159.0820  210.9660  156.6950 C   0  0  0  0  0  3  0  0  0  0  0  0
  157.2080  212.7330  147.3540 C   0  0  0  0  0  2  0  0  0  0  0  0
  159.8880  213.2650  148.3060 C   0  0  2  0  0  3  0  0  0  0  0  0
  158.9240  212.0300  155.9200 O   0  0  0  0  0  0  0  0  0  0  0  0
  157.3370  213.6760  148.5460 C   0  0  0  0  0  2  0  0  0  0  0  0
  159.2050  213.3360  145.9190 C   0  0  2  0  0  3  0  0  0  0  0  0
  161.2290  208.8430  150.9840 C   0  0  0  0  0  2  0  0  0  0  0  0
  161.4250  210.3300  151.2780 C   0  0  1  0  0  3  0  0  0  0  0  0
  160.5330  209.9620  153.5570 N   0  0  0  0  0  2  0  0  0  0  0  0
  158.7190  212.8320  150.4550 C   0  0  0  0  0  2  0  0  0  0  0  0
  158.9560  213.9060  153.5930 O   0  0  0  0  0  1  0  0  0  0  0  0
  160.0970  208.6120  156.4290 C   0  0  0  0  0  1  0  0  0  0  0  0
  160.0570  212.1290  152.4280 C   0  0  0  0  0  0  0  0  0  0  0  0
  159.9160  210.5070  154.7160 C   0  0  0  0  0  0  0  0  0  0  0  0
  159.5900  213.8940  144.6310 N   0  0  0  0  0  2  0  0  0  0  0  0
  160.0070  213.0810  143.5340 C   0  0  0  0  0  0  0  0  0  0  0  0
  160.0810  211.8280  143.6520 O   0  0  0  0  0  0  0  0  0  0  0  0
  160.3630  213.7200  142.2400 C   0  0  0  0  0  1  0  0  0  0  0  0
  1 16  1  0  0  0  0
  2 24  1  6  0  0  0
  2 27  1  0  0  0  0
  3 11  1  0  0  0  0
  3  4  1  0  0  0  0
  4 21  1  0  0  0  0
  5 25  1  0  0  0  0
  5  6  1  0  0  0  0
  6 18  1  0  0  0  0
  7 19  1  6  0  0  0
  7 24  1  0  0  0  0
  9 26  1  0  0  0  0
  9 15  2  0  0  0  0
 12  8  1  6  0  0  0
 12  2  1  0  0  0  0
 13 11  1  6  0  0  0
 13 12  1  0  0  0  0
 13 22  1  0  0  0  0
 14 27  1  0  0  0  0
 14 23  1  0  0  0  0
 16 19  1  0  0  0  0
 17 10  1  6  0  0  0
 17  8  1  0  0  0  0
 17  7  1  0  0  0  0
 18 15  1  0  0  0  0
 20 29  1  6  0  0  0
 20  1  1  0  0  0  0
 20 10  1  0  0  0  0
 22 21  1  6  0  0  0
 22 14  1  0  0  0  0
 23 28  1  0  0  0  0
 27  5  2  0  0  0  0
 28  6  2  0  0  0  0
 28  9  1  0  0  0  0
 30 31  2  0  0  0  0
 30 29  1  0  0  0  0
 32 30  1  0  0  0  0
M  END
>  <MODEL>
1

>  <REMARK>
 VINA RESULT:      -5.3      0.000      0.000
  Name = 
  1 active torsions:
  status: ('A' for Active; 'I' for Inactive)
    1  A    between atoms: C_20  and  N_29
                            x       y       z     vdW  Elec       q    Type
                         _______ _______ _______ _____ _____    ______ ____

>  <TORSDO>
F 1

$$$$
=
 OpenBabel11122412503D

 32 37  0  0  1  0  0  0  0  0999 V2000
  159.8080  210.0980  153.7000 C   0  0  0  0  0  2  0  0  0  0  0  0
  161.1760  213.3170  149.2830 C   0  0  1  0  0  3  0  0  0  0  0  0
  156.2750  213.5950  149.4240 C   0  0  0  0  0  2  0  0  0  0  0  0
  156.1940  213.8160  147.9130 C   0  0  0  0  0  2  0  0  0  0  0  0
  162.3180  213.1960  147.0920 C   0  0  0  0  0  0  0  0  0  0  0  0
  162.2620  213.1650  145.6300 C   0  0  0  0  0  0  0  0  0  0  0  0
  161.2300  211.8200  151.2820 C   0  0  1  0  0  3  0  0  0  0  0  0
  160.0860  214.0340  151.3160 C   0  0  0  0  0  2  0  0  0  0  0  0
  161.3620  213.2240  143.6350 C   0  0  0  0  0  0  0  0  0  0  0  0
  160.0080  212.5920  153.3560 C   0  0  0  0  0  2  0  0  0  0  0  0
  157.5530  214.2130  149.9860 C   0  0  0  0  0  2  0  0  0  0  0  0
  160.0480  214.0900  149.8430 N   0  0  2  0  0  0  0  0  0  0  0  0
  158.7730  213.5850  149.3000 C   0  0  2  0  0  3  0  0  0  0  0  0
  159.8920  213.4770  147.0760 N   0  0  0  0  0  0  0  0  0  0  0  0
  162.7410  213.0600  143.5450 C   0  0  0  0  0  3  0  0  0  0  0  0
  160.0600  209.7340  152.2420 C   0  0  0  0  0  2  0  0  0  0  0  0
  160.0340  212.5990  151.8380 C   0  0  2  0  0  3  0  0  0  0  0  0
  163.2450  213.0300  144.7710 O   0  0  0  0  0  0  0  0  0  0  0  0
  161.3640  210.3710  151.7700 C   0  0  0  0  0  2  0  0  0  0  0  0
  159.1200  211.4550  153.8430 C   0  0  2  0  0  3  0  0  0  0  0  0
  157.4310  213.2480  147.2190 C   0  0  0  0  0  2  0  0  0  0  0  0
  158.6880  213.8980  147.7990 C   0  0  1  0  0  3  0  0  0  0  0  0
  159.8590  213.4620  145.6630 N   0  0  0  0  0  2  0  0  0  0  0  0
  161.1840  211.8570  149.7640 C   0  0  0  0  0  2  0  0  0  0  0  0
  163.5390  213.0570  147.7460 O   0  0  0  0  0  1  0  0  0  0  0  0
  160.3960  213.3180  142.5090 C   0  0  0  0  0  1  0  0  0  0  0  0
  161.1640  213.3530  147.7800 C   0  0  0  0  0  0  0  0  0  0  0  0
  161.0890  213.2840  144.9740 C   0  0  0  0  0  0  0  0  0  0  0  0
  158.7760  211.6840  155.2380 N   0  0  0  0  0  2  0  0  0  0  0  0
  157.4320  211.6300  155.7190 C   0  0  0  0  0  0  0  0  0  0  0  0
  156.4750  211.4000  154.9320 O   0  0  0  0  0  0  0  0  0  0  0  0
  157.1580  211.8510  157.1630 C   0  0  0  0  0  1  0  0  0  0  0  0
  1 20  1  0  0  0  0
  2 24  1  6  0  0  0
  2 12  1  0  0  0  0
  3 11  1  0  0  0  0
  4  3  1  0  0  0  0
  5 25  1  0  0  0  0
  5 27  2  0  0  0  0
  6  5  1  0  0  0  0
  7 24  1  6  0  0  0
  7 19  1  0  0  0  0
  7 17  1  0  0  0  0
  9 28  1  0  0  0  0
 10 20  1  0  0  0  0
 12  8  1  1  0  0  0
 13 12  1  0  0  0  0
 13 11  1  1  0  0  0
 14 27  1  0  0  0  0
 14 22  1  0  0  0  0
 15  9  2  0  0  0  0
 15 18  1  0  0  0  0
 16  1  1  0  0  0  0
 17  8  1  1  0  0  0
 17 10  1  0  0  0  0
 18  6  1  0  0  0  0
 19 16  1  0  0  0  0
 20 29  1  1  0  0  0
 21  4  1  0  0  0  0
 22 21  1  6  0  0  0
 22 13  1  0  0  0  0
 23 14  1  0  0  0  0
 26  9  1  0  0  0  0
 27  2  1  0  0  0  0
 28  6  2  0  0  0  0
 28 23  1  0  0  0  0
 29 30  1  0  0  0  0
 30 32  1  0  0  0  0
 31 30  2  0  0  0  0
M  END
>  <MODEL>
2

>  <REMARK>
 VINA RESULT:      -4.7      1.984      8.600
  Name = 
  1 active torsions:
  status: ('A' for Active; 'I' for Inactive)
    1  A    between atoms: C_20  and  N_29
                            x       y       z     vdW  Elec       q    Type
                         _______ _______ _______ _____ _____    ______ ____

>  <TORSDO>
F 1

$$$$
=
 OpenBabel11122412503D

 32 37  0  0  1  0  0  0  0  0999 V2000
  161.6570  208.7890  150.9670 C   0  0  0  0  0  2  0  0  0  0  0  0
  161.4000  212.9010  147.1240 C   0  0  1  0  0  3  0  0  0  0  0  0
  157.0810  213.2290  149.4390 C   0  0  0  0  0  2  0  0  0  0  0  0
  156.3980  213.7880  148.1910 C   0  0  0  0  0  2  0  0  0  0  0  0
  161.4920  213.2590  144.6780 C   0  0  0  0  0  0  0  0  0  0  0  0
  160.8230  213.5620  143.4130 C   0  0  0  0  0  0  0  0  0  0  0  0
  162.1170  210.9880  148.5620 C   0  0  1  0  0  3  0  0  0  0  0  0
  161.3570  213.1580  149.5270 C   0  0  0  0  0  2  0  0  0  0  0  0
  159.1800  214.0890  142.0640 C   0  0  0  0  0  0  0  0  0  0  0  0
  161.9790  211.2920  151.0690 C   0  0  0  0  0  2  0  0  0  0  0  0
  158.5390  213.6800  149.4980 C   0  0  0  0  0  2  0  0  0  0  0  0
  160.7090  213.5470  148.2600 N   0  0  2  0  0  0  0  0  0  0  0  0
  159.2760  213.2010  148.2390 C   0  0  2  0  0  3  0  0  0  0  0  0
  159.3340  213.5810  145.7770 N   0  0  0  0  0  0  0  0  0  0  0  0
  160.3640  213.9250  141.3520 C   0  0  0  0  0  3  0  0  0  0  0  0
  161.2290  208.7610  149.5050 C   0  0  0  0  0  2  0  0  0  0  0  0
  161.3650  211.6430  149.7250 C   0  0  2  0  0  3  0  0  0  0  0  0
  161.3300  213.6070  142.2030 O   0  0  0  0  0  0  0  0  0  0  0  0
  162.2760  209.4640  148.6480 C   0  0  0  0  0  2  0  0  0  0  0  0
  161.2540  210.0900  151.6600 C   0  0  2  0  0  3  0  0  0  0  0  0
  157.1540  213.3710  146.9310 C   0  0  0  0  0  2  0  0  0  0  0  0
  158.6030  213.8490  147.0200 C   0  0  1  0  0  3  0  0  0  0  0  0
  158.7080  213.8870  144.5480 N   0  0  0  0  0  2  0  0  0  0  0  0
  161.4410  211.3700  147.2560 C   0  0  0  0  0  2  0  0  0  0  0  0
  162.8490  212.9530  144.6930 O   0  0  0  0  0  1  0  0  0  0  0  0
  157.8470  214.4530  141.5150 C   0  0  0  0  0  1  0  0  0  0  0  0
  160.7610  213.2780  145.8160 C   0  0  0  0  0  0  0  0  0  0  0  0
  159.5040  213.8490  143.3710 C   0  0  0  0  0  0  0  0  0  0  0  0
  161.5590  210.0030  153.0800 N   0  0  0  0  0  2  0  0  0  0  0  0
  160.7730  210.6580  154.0770 C   0  0  0  0  0  0  0  0  0  0  0  0
  159.7830  211.3670  153.7540 O   0  0  0  0  0  0  0  0  0  0  0  0
  161.1310  210.5040  155.5120 C   0  0  0  0  0  1  0  0  0  0  0  0
  1 20  1  0  0  0  0
  2 24  1  1  0  0  0
  2 12  1  0  0  0  0
  3 11  1  0  0  0  0
  4  3  1  0  0  0  0
  5 25  1  0  0  0  0
  5 27  2  0  0  0  0
  6  5  1  0  0  0  0
  7 24  1  6  0  0  0
  7 19  1  0  0  0  0
  7 17  1  0  0  0  0
  9 28  1  0  0  0  0
 10 20  1  0  0  0  0
 12  8  1  1  0  0  0
 13 12  1  0  0  0  0
 13 11  1  1  0  0  0
 14 27  1  0  0  0  0
 14 22  1  0  0  0  0
 15  9  2  0  0  0  0
 15 18  1  0  0  0  0
 16  1  1  0  0  0  0
 17  8  1  6  0  0  0
 17 10  1  0  0  0  0
 18  6  1  0  0  0  0
 19 16  1  0  0  0  0
 20 29  1  1  0  0  0
 21  4  1  0  0  0  0
 22 21  1  6  0  0  0
 22 13  1  0  0  0  0
 23 14  1  0  0  0  0
 26  9  1  0  0  0  0
 27  2  1  0  0  0  0
 28  6  2  0  0  0  0
 28 23  1  0  0  0  0
 29 30  1  0  0  0  0
 30 32  1  0  0  0  0
 31 30  2  0  0  0  0
M  END
>  <MODEL>
3

>  <REMARK>
 VINA RESULT:      -3.8      1.542      8.979
  Name = 
  1 active torsions:
  status: ('A' for Active; 'I' for Inactive)
    1  A    between atoms: C_20  and  N_29
                            x       y       z     vdW  Elec       q    Type
                         _______ _______ _______ _____ _____    ______ ____

>  <TORSDO>
F 1

$$$$
=
 OpenBabel11122412503D

 32 37  0  0  1  0  0  0  0  0999 V2000
  158.8560  210.4160  155.9240 C   0  0  0  0  0  2  0  0  0  0  0  0
  161.6460  206.5590  152.9090 C   0  0  1  0  0  3  0  0  0  0  0  0
  161.8980  210.5920  150.1170 C   0  0  0  0  0  2  0  0  0  0  0  0
  161.9720  209.7610  148.8360 C   0  0  0  0  0  2  0  0  0  0  0  0
  161.3230  204.3580  151.8280 C   0  0  0  0  0  0  0  0  0  0  0  0
  161.1520  203.5480  150.6220 C   0  0  0  0  0  0  0  0  0  0  0  0
  160.3490  207.7620  154.6730 C   0  0  1  0  0  3  0  0  0  0  0  0
  162.5470  208.5970  153.8450 C   0  0  0  0  0  2  0  0  0  0  0  0
  161.0110  203.1040  148.4830 C   0  0  0  0  0  0  0  0  0  0  0  0
  161.3070  209.9280  155.5600 C   0  0  0  0  0  2  0  0  0  0  0  0
  162.5770  209.8570  151.2710 C   0  0  0  0  0  2  0  0  0  0  0  0
  162.4610  207.7610  152.6330 N   0  0  2  0  0  0  0  0  0  0  0  0
  161.8950  208.4990  151.4880 C   0  0  2  0  0  3  0  0  0  0  0  0
  161.5830  206.2970  150.3660 N   0  0  0  0  0  0  0  0  0  0  0  0
  160.8500  201.9440  149.2340 C   0  0  0  0  0  3  0  0  0  0  0  0
  158.3560  209.3760  154.9290 C   0  0  0  0  0  2  0  0  0  0  0  0
  161.1680  209.0160  154.3530 C   0  0  2  0  0  3  0  0  0  0  0  0
  160.9420  202.2560  150.5200 O   0  0  0  0  0  0  0  0  0  0  0  0
  158.9540  208.0140  155.2640 C   0  0  0  0  0  2  0  0  0  0  0  0
  160.2150  210.9880  155.5230 C   0  0  2  0  0  3  0  0  0  0  0  0
  161.3500  208.3820  149.0530 C   0  0  0  0  0  2  0  0  0  0  0  0
  162.0620  207.6730  150.2050 C   0  0  1  0  0  3  0  0  0  0  0  0
  161.4320  205.4960  149.2110 N   0  0  0  0  0  2  0  0  0  0  0  0
  160.2390  206.9080  153.4210 C   0  0  0  0  0  2  0  0  0  0  0  0
  161.2580  203.7610  153.0840 O   0  0  0  0  0  1  0  0  0  0  0  0
  160.9890  203.2210  147.0000 C   0  0  0  0  0  1  0  0  0  0  0  0
  161.5370  205.6860  151.6900 C   0  0  0  0  0  0  0  0  0  0  0  0
  161.1980  204.1060  149.3940 C   0  0  0  0  0  0  0  0  0  0  0  0
  160.5750  212.0720  156.4240 N   0  0  0  0  0  2  0  0  0  0  0  0
  160.0700  213.4000  156.2720 C   0  0  0  0  0  0  0  0  0  0  0  0
  159.2980  213.6900  155.3190 O   0  0  0  0  0  0  0  0  0  0  0  0
  160.4630  214.4520  157.2460 C   0  0  0  0  0  1  0  0  0  0  0  0
  2 24  1  6  0  0  0
  3 11  1  0  0  0  0
  4 21  1  0  0  0  0
  4  3  1  0  0  0  0
  5 25  1  0  0  0  0
  6  5  1  0  0  0  0
  7 24  1  6  0  0  0
  7 19  1  0  0  0  0
  9 15  2  0  0  0  0
  9 28  1  0  0  0  0
 12  2  1  0  0  0  0
 12  8  1  1  0  0  0
 13 11  1  6  0  0  0
 13 12  1  0  0  0  0
 14 27  1  0  0  0  0
 15 18  1  0  0  0  0
 16 19  1  0  0  0  0
 16  1  1  0  0  0  0
 17  8  1  1  0  0  0
 17  7  1  0  0  0  0
 17 10  1  0  0  0  0
 18  6  1  0  0  0  0
 20 10  1  0  0  0  0
 20  1  1  0  0  0  0
 20 29  1  1  0  0  0
 22 21  1  6  0  0  0
 22 14  1  0  0  0  0
 22 13  1  0  0  0  0
 23 28  1  0  0  0  0
 23 14  1  0  0  0  0
 26  9  1  0  0  0  0
 27  5  2  0  0  0  0
 27  2  1  0  0  0  0
 28  6  2  0  0  0  0
 30 29  1  0  0  0  0
 30 32  1  0  0  0  0
 31 30  2  0  0  0  0
M  END
>  <MODEL>
4

>  <REMARK>
 VINA RESULT:      -3.0      4.537      8.646
  Name = 
  1 active torsions:
  status: ('A' for Active; 'I' for Inactive)
    1  A    between atoms: C_20  and  N_29
                            x       y       z     vdW  Elec       q    Type
                         _______ _______ _______ _____ _____    ______ ____

>  <TORSDO>
F 1

$$$$
=
 OpenBabel11122412503D

 32 37  0  0  1  0  0  0  0  0999 V2000
  158.7980  212.5920  144.8100 C   0  0  0  0  0  2  0  0  0  0  0  0
  158.5010  213.6890  150.3280 C   0  0  1  0  0  3  0  0  0  0  0  0
  162.3670  210.6810  149.9680 C   0  0  0  0  0  2  0  0  0  0  0  0
  162.1430  210.1420  151.3810 C   0  0  0  0  0  2  0  0  0  0  0  0
  156.9690  213.4630  152.2570 C   0  0  0  0  0  0  0  0  0  0  0  0
  156.5870  212.8030  153.5060 C   0  0  0  0  0  0  0  0  0  0  0  0
  158.1090  213.6120  147.8620 C   0  0  1  0  0  3  0  0  0  0  0  0
  160.3130  214.2570  148.8330 C   0  0  0  0  0  2  0  0  0  0  0  0
  156.7420  211.4210  155.1970 C   0  0  0  0  0  0  0  0  0  0  0  0
  160.0630  214.1450  146.3480 C   0  0  0  0  0  2  0  0  0  0  0  0
  161.9430  212.1450  149.8810 C   0  0  0  0  0  2  0  0  0  0  0  0
  159.9670  213.6580  150.1360 N   0  0  2  0  0  0  0  0  0  0  0  0
  160.4620  212.2750  150.2610 C   0  0  2  0  0  3  0  0  0  0  0  0
  158.9460  212.0290  152.2230 N   0  0  0  0  0  0  0  0  0  0  0  0
  155.5890  212.1930  155.3000 C   0  0  0  0  0  3  0  0  0  0  0  0
  157.9850  211.9290  145.9150 C   0  0  0  0  0  2  0  0  0  0  0  0
  159.6270  213.5400  147.6710 C   0  0  2  0  0  3  0  0  0  0  0  0
  155.5340  213.0130  154.2600 O   0  0  0  0  0  0  0  0  0  0  0  0
  157.2680  212.9950  146.7370 C   0  0  0  0  0  2  0  0  0  0  0  0
  160.1720  213.0460  145.3000 C   0  0  2  0  0  3  0  0  0  0  0  0
  160.6840  210.3180  151.7980 C   0  0  0  0  0  2  0  0  0  0  0  0
  160.3000  211.7950  151.7100 C   0  0  1  0  0  3  0  0  0  0  0  0
  158.5700  211.4140  153.4390 N   0  0  0  0  0  2  0  0  0  0  0  0
  157.7450  212.9780  149.1940 C   0  0  0  0  0  2  0  0  0  0  0  0
  156.1550  214.4530  151.7150 O   0  0  0  0  0  1  0  0  0  0  0  0
  157.2080  210.3760  156.1460 C   0  0  0  0  0  1  0  0  0  0  0  0
  158.1160  213.0830  151.6490 C   0  0  0  0  0  0  0  0  0  0  0  0
  157.3540  211.8310  154.0440 C   0  0  0  0  0  0  0  0  0  0  0  0
  160.9540  213.5390  144.1750 N   0  0  0  0  0  2  0  0  0  0  0  0
  162.3800  213.4550  144.1330 C   0  0  0  0  0  0  0  0  0  0  0  0
  163.0250  212.9630  145.0970 O   0  0  0  0  0  0  0  0  0  0  0  0
  163.1100  213.9580  142.9400 C   0  0  0  0  0  1  0  0  0  0  0  0
  1 20  1  0  0  0  0
  1 16  1  0  0  0  0
  2 24  1  6  0  0  0
  2 27  1  0  0  0  0
  3  4  1  0  0  0  0
  4 21  1  0  0  0  0
  5  6  1  0  0  0  0
  6 28  2  0  0  0  0
  6 18  1  0  0  0  0
  7 19  1  6  0  0  0
  7 24  1  0  0  0  0
  9 15  2  0  0  0  0
  9 26  1  0  0  0  0
 11  3  1  0  0  0  0
 12  8  1  6  0  0  0
 12 13  1  0  0  0  0
 12  2  1  0  0  0  0
 13 11  1  1  0  0  0
 13 22  1  0  0  0  0
 14 23  1  0  0  0  0
 16 19  1  0  0  0  0
 17 10  1  6  0  0  0
 17  7  1  0  0  0  0
 17  8  1  0  0  0  0
 18 15  1  0  0  0  0
 20 29  1  6  0  0  0
 20 10  1  0  0  0  0
 22 21  1  6  0  0  0
 22 14  1  0  0  0  0
 23 28  1  0  0  0  0
 25  5  1  0  0  0  0
 27 14  1  0  0  0  0
 27  5  2  0  0  0  0
 28  9  1  0  0  0  0
 30 29  1  0  0  0  0
 30 31  2  0  0  0  0
 32 30  1  0  0  0  0
M  END
>  <MODEL>
5

>  <REMARK>
 VINA RESULT:      -2.8      2.032      2.400
  Name = 
  1 active torsions:
  status: ('A' for Active; 'I' for Inactive)
    1  A    between atoms: C_20  and  N_29
                            x       y       z     vdW  Elec       q    Type
                         _______ _______ _______ _____ _____    ______ ____

>  <TORSDO>
F 1

$$$$
=
 OpenBabel11122412503D

 32 37  0  0  1  0  0  0  0  0999 V2000
  159.2120  210.5390  155.3320 C   0  0  0  0  0  2  0  0  0  0  0  0
  162.0470  207.7400  151.3480 C   0  0  1  0  0  3  0  0  0  0  0  0
  161.4340  212.2020  149.3910 C   0  0  0  0  0  2  0  0  0  0  0  0
  161.4440  211.6360  147.9720 C   0  0  0  0  0  2  0  0  0  0  0  0
  161.8640  205.7460  149.8960 C   0  0  0  0  0  0  0  0  0  0  0  0
  161.6400  205.1510  148.5780 C   0  0  0  0  0  0  0  0  0  0  0  0
  160.8480  208.4020  153.4380 C   0  0  1  0  0  3  0  0  0  0  0  0
  162.8010  209.6850  152.5680 C   0  0  0  0  0  2  0  0  0  0  0  0
  161.2810  205.0840  146.4190 C   0  0  0  0  0  0  0  0  0  0  0  0
  161.6370  210.4890  154.6290 C   0  0  0  0  0  2  0  0  0  0  0  0
  162.3420  211.3790  150.3020 C   0  0  0  0  0  2  0  0  0  0  0  0
  162.6630  209.0780  151.2310 N   0  0  2  0  0  0  0  0  0  0  0  0
  161.8680  209.9200  150.3180 C   0  0  2  0  0  3  0  0  0  0  0  0
  161.6890  207.9340  148.8230 N   0  0  0  0  0  0  0  0  0  0  0  0
  161.3640  203.7970  146.9410 C   0  0  0  0  0  3  0  0  0  0  0  0
  158.7200  209.6330  154.2100 C   0  0  0  0  0  2  0  0  0  0  0  0
  161.4580  209.7990  153.2880 C   0  0  2  0  0  3  0  0  0  0  0  0
  161.5810  203.8820  148.2460 O   0  0  0  0  0  0  0  0  0  0  0  0
  159.5220  208.3350  154.2070 C   0  0  0  0  0  2  0  0  0  0  0  0
  160.4260  211.3670  154.9140 C   0  0  2  0  0  3  0  0  0  0  0  0
  161.0310  210.1650  147.9760 C   0  0  0  0  0  2  0  0  0  0  0  0
  161.9690  209.3720  148.8870 C   0  0  1  0  0  3  0  0  0  0  0  0
  161.4910  207.3420  147.5550 N   0  0  0  0  0  2  0  0  0  0  0  0
  160.6850  207.7810  152.0610 C   0  0  0  0  0  2  0  0  0  0  0  0
  162.0350  204.9300  151.0090 O   0  0  0  0  0  1  0  0  0  0  0  0
  161.0530  205.4620  144.9990 C   0  0  0  0  0  1  0  0  0  0  0  0
  161.8910  207.0950  149.9990 C   0  0  0  0  0  0  0  0  0  0  0  0
  161.4580  205.9220  147.4850 C   0  0  0  0  0  0  0  0  0  0  0  0
  160.7610  212.3110  155.9680 N   0  0  0  0  0  2  0  0  0  0  0  0
  160.0660  213.5470  156.1450 C   0  0  0  0  0  0  0  0  0  0  0  0
  159.1340  213.8790  155.3650 O   0  0  0  0  0  0  0  0  0  0  0  0
  160.4490  214.4520  157.2600 C   0  0  0  0  0  1  0  0  0  0  0  0
  2 24  1  6  0  0  0
  3 11  1  0  0  0  0
  4 21  1  0  0  0  0
  4  3  1  0  0  0  0
  5 27  2  0  0  0  0
  5 25  1  0  0  0  0
  6  5  1  0  0  0  0
  7 24  1  6  0  0  0
  7 19  1  0  0  0  0
  9 15  2  0  0  0  0
  9 28  1  0  0  0  0
 10 20  1  0  0  0  0
 12  2  1  0  0  0  0
 12  8  1  1  0  0  0
 13 11  1  6  0  0  0
 13 12  1  0  0  0  0
 14 22  1  0  0  0  0
 14 27  1  0  0  0  0
 15 18  1  0  0  0  0
 16  1  1  0  0  0  0
 17  8  1  1  0  0  0
 17  7  1  0  0  0  0
 17 10  1  0  0  0  0
 18  6  1  0  0  0  0
 19 16  1  0  0  0  0
 20  1  1  0  0  0  0
 20 29  1  1  0  0  0
 22 21  1  6  0  0  0
 22 13  1  0  0  0  0
 23 14  1  0  0  0  0
 26  9  1  0  0  0  0
 27  2  1  0  0  0  0
 28 23  1  0  0  0  0
 28  6  2  0  0  0  0
 29 30  1  0  0  0  0
 30 32  1  0  0  0  0
 31 30  2  0  0  0  0
M  END
>  <MODEL>
6

>  <REMARK>
 VINA RESULT:      -2.6      3.656      8.389
  Name = 
  1 active torsions:
  status: ('A' for Active; 'I' for Inactive)
    1  A    between atoms: C_20  and  N_29
                            x       y       z     vdW  Elec       q    Type
                         _______ _______ _______ _____ _____    ______ ____

>  <TORSDO>
F 1

$$$$
