=
 OpenBabel11122412303D

 30 35  0  0  1  0  0  0  0  0999 V2000
  158.9280  211.5150  155.2800 C   0  0  0  0  0  0  0  0  0  0  0  0
  156.7040  212.5040  155.8860 C   0  0  0  0  0  0  0  0  0  0  0  0
  158.8020  213.2970  151.4750 N   0  0  0  0  0  2  0  0  0  0  0  0
  159.9950  211.4110  154.3530 C   0  0  0  0  0  0  0  0  0  0  0  0
  159.0120  210.8070  156.4870 O   0  0  0  0  0  0  0  0  0  0  0  0
  162.2520  209.6320  156.6030 O   0  0  0  0  0  0  0  0  0  0  0  0
  161.0870  209.4360  152.5950 C   0  0  1  0  0  3  0  0  0  0  0  0
  161.2270  210.0000  156.0520 C   0  0  0  0  0  0  0  0  0  0  0  0
  160.8120  210.4820  151.4980 C   0  0  2  0  0  3  0  0  0  0  0  0
  160.0370  212.7910  150.9750 C   0  0  0  0  0  0  0  0  0  0  0  0
  159.9020  209.7070  156.6800 C   0  0  2  0  0  3  0  0  0  0  0  0
  161.2990  210.7270  154.7370 C   0  0  1  0  0  3  0  0  0  0  0  0
  155.6030  213.2810  155.5140 C   0  0  0  0  0  3  0  0  0  0  0  0
  161.8300  210.2150  150.4140 C   0  0  0  0  0  2  0  0  0  0  0  0
  161.7360  208.2610  151.8780 C   0  0  0  0  0  2  0  0  0  0  0  0
  156.6730  211.9230  157.2600 C   0  0  0  0  0  1  0  0  0  0  0  0
  158.7560  212.7930  152.8020 C   0  0  0  0  0  0  0  0  0  0  0  0
  155.5430  213.8850  154.2590 C   0  0  0  0  0  3  0  0  0  0  0  0
  157.7840  212.3180  154.9790 C   0  0  0  0  0  0  0  0  0  0  0  0
  159.8710  212.0590  153.1240 C   0  0  0  0  0  0  0  0  0  0  0  0
  160.4520  213.0530  149.8160 O   0  0  0  0  0  0  0  0  0  0  0  0
  160.7900  211.9420  151.9590 C   0  0  1  0  0  3  0  0  0  0  0  0
  162.0590  208.7180  150.4610 C   0  0  0  0  0  2  0  0  0  0  0  0
  163.1760  210.5430  153.2710 C   0  0  0  0  0  1  0  0  0  0  0  0
  156.5910  213.7230  153.3580 C   0  0  0  0  0  3  0  0  0  0  0  0
  157.7070  212.9560  153.7050 C   0  0  0  0  0  0  0  0  0  0  0  0
  161.9480  209.8870  153.7120 N   0  0  0  0  0  0  0  0  0  0  0  0
  159.3230  208.4310  156.0760 C   0  0  0  0  0  2  0  0  0  0  0  0
  160.4800  206.6150  154.8250 C   0  0  0  0  0  1  0  0  0  0  0  0
  160.3060  207.2780  156.1770 C   0  0  0  0  0  2  0  0  0  0  0  0
  1  5  1  0  0  0  0
  2 16  1  0  0  0  0
  3 17  1  0  0  0  0
  4  1  2  0  0  0  0
  5 11  1  0  0  0  0
  7 15  1  6  0  0  0
  7 27  1  0  0  0  0
  8  6  2  0  0  0  0
  8 11  1  0  0  0  0
  9 14  1  6  0  0  0
  9 22  1  0  0  0  0
  9  7  1  0  0  0  0
 10  3  1  0  0  0  0
 11 28  1  6  0  0  0
 12  4  1  6  0  0  0
 12  8  1  0  0  0  0
 13  2  1  0  0  0  0
 14 23  1  0  0  0  0
 17 20  2  0  0  0  0
 17 26  1  0  0  0  0
 18 13  2  0  0  0  0
 19  1  1  0  0  0  0
 19  2  2  0  0  0  0
 20  4  1  0  0  0  0
 21 10  2  0  0  0  0
 22 10  1  6  0  0  0
 22 20  1  0  0  0  0
 23 15  1  0  0  0  0
 24 27  1  0  0  0  0
 25 26  2  0  0  0  0
 25 18  1  0  0  0  0
 26 19  1  0  0  0  0
 27 12  1  0  0  0  0
 28 30  1  0  0  0  0
 29 30  1  0  0  0  0
M  END
>  <MODEL>
1

>  <REMARK>
 VINA RESULT:      -4.4      0.000      0.000
  Name = 
  2 active torsions:
  status: ('A' for Active; 'I' for Inactive)
    1  A    between atoms: C_11  and  C_28
    2  A    between atoms: C_28  and  C_30
                            x       y       z     vdW  Elec       q    Type
                         _______ _______ _______ _____ _____    ______ ____

>  <TORSDO>
F 2

$$$$
=
 OpenBabel11122412303D

 30 35  0  0  1  0  0  0  0  0999 V2000
  161.9420  207.7460  149.6060 C   0  0  0  0  0  0  0  0  0  0  0  0
  161.6660  205.7250  148.1460 C   0  0  0  0  0  0  0  0  0  0  0  0
  160.6720  205.6060  152.9920 N   0  0  0  0  0  2  0  0  0  0  0  0
  161.9170  208.3160  150.9030 C   0  0  0  0  0  0  0  0  0  0  0  0
  162.2850  208.5610  148.5180 O   0  0  0  0  0  0  0  0  0  0  0  0
  163.4360  211.4900  149.9310 O   0  0  0  0  0  0  0  0  0  0  0  0
  160.3070  210.1730  152.3680 C   0  0  1  0  0  3  0  0  0  0  0  0
  162.7650  210.4710  149.8860 C   0  0  0  0  0  0  0  0  0  0  0  0
  160.1240  209.0030  153.3530 C   0  0  2  0  0  3  0  0  0  0  0  0
  160.7540  206.6650  153.9420 C   0  0  0  0  0  0  0  0  0  0  0  0
  162.2380  209.9880  148.5730 C   0  0  2  0  0  3  0  0  0  0  0  0
  162.4550  209.7180  151.1510 C   0  0  1  0  0  3  0  0  0  0  0  0
  161.3020  204.3810  148.0280 C   0  0  0  0  0  3  0  0  0  0  0  0
  159.8820  209.6370  154.7030 C   0  0  0  0  0  2  0  0  0  0  0  0
  159.5440  211.3380  152.9820 C   0  0  0  0  0  2  0  0  0  0  0  0
  162.1200  206.4040  146.8980 C   0  0  0  0  0  1  0  0  0  0  0  0
  161.1350  206.2070  151.7920 C   0  0  0  0  0  0  0  0  0  0  0  0
  160.8820  203.6510  149.1380 C   0  0  0  0  0  3  0  0  0  0  0  0
  161.6110  206.3690  149.4140 C   0  0  0  0  0  0  0  0  0  0  0  0
  161.5030  207.5180  151.9700 C   0  0  0  0  0  0  0  0  0  0  0  0
  160.4490  206.5080  155.1530 O   0  0  0  0  0  0  0  0  0  0  0  0
  161.2470  207.9620  153.3680 C   0  0  1  0  0  3  0  0  0  0  0  0
  159.1520  210.9280  154.3950 C   0  0  0  0  0  2  0  0  0  0  0  0
  162.5060  210.7510  153.3040 C   0  0  0  0  0  1  0  0  0  0  0  0
  160.8270  204.2580  150.3900 C   0  0  0  0  0  3  0  0  0  0  0  0
  161.1910  205.5990  150.5390 C   0  0  0  0  0  0  0  0  0  0  0  0
  161.7070  210.5710  152.0960 N   0  0  0  0  0  0  0  0  0  0  0  0
  160.8090  210.4890  148.3830 C   0  0  0  0  0  2  0  0  0  0  0  0
  160.5480  212.9650  148.4390 C   0  0  0  0  0  1  0  0  0  0  0  0
  160.7760  211.7580  147.5500 C   0  0  0  0  0  2  0  0  0  0  0  0
  1  4  1  0  0  0  0
  2 19  1  0  0  0  0
  3 10  1  0  0  0  0
  4 12  1  0  0  0  0
  4 20  2  0  0  0  0
  5 11  1  0  0  0  0
  5  1  1  0  0  0  0
  7 15  1  1  0  0  0
  7  9  1  0  0  0  0
  8  6  2  0  0  0  0
  9 22  1  0  0  0  0
  9 14  1  1  0  0  0
 10 21  2  0  0  0  0
 11 28  1  1  0  0  0
 11  8  1  0  0  0  0
 12  8  1  6  0  0  0
 12 27  1  0  0  0  0
 13  2  2  0  0  0  0
 13 18  1  0  0  0  0
 15 23  1  0  0  0  0
 16  2  1  0  0  0  0
 17 20  1  0  0  0  0
 17  3  1  0  0  0  0
 18 25  2  0  0  0  0
 19  1  2  0  0  0  0
 19 26  1  0  0  0  0
 22 20  1  6  0  0  0
 22 10  1  0  0  0  0
 23 14  1  0  0  0  0
 25 26  1  0  0  0  0
 26 17  2  0  0  0  0
 27  7  1  0  0  0  0
 27 24  1  0  0  0  0
 30 28  1  0  0  0  0
 30 29  1  0  0  0  0
M  END
>  <MODEL>
2

>  <REMARK>
 VINA RESULT:      -4.2      2.860      7.811
  Name = 
  2 active torsions:
  status: ('A' for Active; 'I' for Inactive)
    1  A    between atoms: C_11  and  C_28
    2  A    between atoms: C_28  and  C_30
                            x       y       z     vdW  Elec       q    Type
                         _______ _______ _______ _____ _____    ______ ____

>  <TORSDO>
F 2

$$$$
=
 OpenBabel11122412303D

 30 35  0  0  1  0  0  0  0  0999 V2000
  161.5810  210.1110  149.8910 C   0  0  0  0  0  0  0  0  0  0  0  0
  162.2100  207.6940  149.6640 C   0  0  0  0  0  0  0  0  0  0  0  0
  160.0190  209.4530  153.7360 N   0  0  0  0  0  2  0  0  0  0  0  0
  161.0720  211.1600  150.6970 C   0  0  0  0  0  0  0  0  0  0  0  0
  161.9920  210.4050  148.5830 O   0  0  0  0  0  0  0  0  0  0  0  0
  161.9670  213.8490  148.3970 O   0  0  0  0  0  0  0  0  0  0  0  0
  158.7240  212.7920  150.8110 C   0  0  1  0  0  3  0  0  0  0  0  0
  161.6050  212.7600  148.8130 C   0  0  0  0  0  0  0  0  0  0  0  0
  158.5780  212.2150  152.2320 C   0  0  2  0  0  3  0  0  0  0  0  0
  159.5810  210.7830  154.0070 C   0  0  0  0  0  0  0  0  0  0  0  0
  161.5820  211.5850  147.8890 C   0  0  2  0  0  3  0  0  0  0  0  0
  161.1630  212.6100  150.2430 C   0  0  1  0  0  3  0  0  0  0  0  0
  162.2320  206.4110  150.2170 C   0  0  0  0  0  3  0  0  0  0  0  0
  157.8370  213.2650  153.0260 C   0  0  0  0  0  2  0  0  0  0  0  0
  157.5630  213.7620  150.6490 C   0  0  0  0  0  2  0  0  0  0  0  0
  162.8010  207.8410  148.3010 C   0  0  0  0  0  1  0  0  0  0  0  0
  160.6230  209.5620  152.4560 C   0  0  0  0  0  0  0  0  0  0  0  0
  161.7240  206.1710  151.4920 C   0  0  0  0  0  3  0  0  0  0  0  0
  161.6630  208.7800  150.4030 C   0  0  0  0  0  0  0  0  0  0  0  0
  160.5970  210.8460  151.9700 C   0  0  0  0  0  0  0  0  0  0  0  0
  159.0120  211.0980  155.0840 O   0  0  0  0  0  0  0  0  0  0  0  0
  159.8770  211.7570  152.9020 C   0  0  1  0  0  3  0  0  0  0  0  0
  156.9210  213.9320  152.0200 C   0  0  0  0  0  2  0  0  0  0  0  0
  160.3820  214.4530  151.5450 C   0  0  0  0  0  1  0  0  0  0  0  0
  161.1900  207.2190  152.2370 C   0  0  0  0  0  3  0  0  0  0  0  0
  161.1600  208.5130  151.7110 C   0  0  0  0  0  0  0  0  0  0  0  0
  160.0040  213.4790  150.5250 N   0  0  0  0  0  0  0  0  0  0  0  0
  160.1790  211.4150  147.3150 C   0  0  0  0  0  2  0  0  0  0  0  0
  158.1850  212.8840  147.0640 C   0  0  0  0  0  1  0  0  0  0  0  0
  159.6570  212.7190  146.7400 C   0  0  0  0  0  2  0  0  0  0  0  0
  1 19  2  0  0  0  0
  1  4  1  0  0  0  0
  2 13  2  0  0  0  0
  2 19  1  0  0  0  0
  3 10  1  0  0  0  0
  4 20  2  0  0  0  0
  5  1  1  0  0  0  0
  6  8  2  0  0  0  0
  7 15  1  1  0  0  0
  7  9  1  0  0  0  0
  9 22  1  0  0  0  0
  9 14  1  1  0  0  0
 10 21  2  0  0  0  0
 11 28  1  1  0  0  0
 11  5  1  0  0  0  0
 11  8  1  0  0  0  0
 12  8  1  6  0  0  0
 12 27  1  0  0  0  0
 12  4  1  0  0  0  0
 13 18  1  0  0  0  0
 15 23  1  0  0  0  0
 16  2  1  0  0  0  0
 17  3  1  0  0  0  0
 18 25  2  0  0  0  0
 19 26  1  0  0  0  0
 20 17  1  0  0  0  0
 22 20  1  6  0  0  0
 22 10  1  0  0  0  0
 23 14  1  0  0  0  0
 26 25  1  0  0  0  0
 26 17  2  0  0  0  0
 27  7  1  0  0  0  0
 27 24  1  0  0  0  0
 30 29  1  0  0  0  0
 30 28  1  0  0  0  0
M  END
>  <MODEL>
3

>  <REMARK>
 VINA RESULT:      -3.9      2.265      7.288
  Name = 
  2 active torsions:
  status: ('A' for Active; 'I' for Inactive)
    1  A    between atoms: C_11  and  C_28
    2  A    between atoms: C_28  and  C_30
                            x       y       z     vdW  Elec       q    Type
                         _______ _______ _______ _____ _____    ______ ____

>  <TORSDO>
F 2

$$$$
=
 OpenBabel11122412303D

 30 35  0  0  1  0  0  0  0  0999 V2000
  160.8360  210.4940  151.8050 C   0  0  0  0  0  0  0  0  0  0  0  0
  161.7760  208.6630  150.3710 C   0  0  0  0  0  0  0  0  0  0  0  0
  160.6580  207.9380  155.1360 N   0  0  0  0  0  2  0  0  0  0  0  0
  160.4210  210.9380  153.0850 C   0  0  0  0  0  0  0  0  0  0  0  0
  160.7710  211.3880  150.7270 O   0  0  0  0  0  0  0  0  0  0  0  0
  160.0920  214.4530  152.1580 O   0  0  0  0  0  0  0  0  0  0  0  0
  157.9740  211.6300  154.3960 C   0  0  1  0  0  3  0  0  0  0  0  0
  160.0680  213.2340  152.0860 C   0  0  0  0  0  0  0  0  0  0  0  0
  158.3700  210.5210  155.3880 C   0  0  2  0  0  3  0  0  0  0  0  0
  160.0990  208.8610  156.0680 C   0  0  0  0  0  0  0  0  0  0  0  0
  159.9700  212.5720  150.7490 C   0  0  2  0  0  3  0  0  0  0  0  0
  160.1160  212.4070  153.3410 C   0  0  1  0  0  3  0  0  0  0  0  0
  162.1890  207.3330  150.2550 C   0  0  0  0  0  3  0  0  0  0  0  0
  157.7350  210.9040  156.7050 C   0  0  0  0  0  2  0  0  0  0  0  0
  156.6680  212.2010  154.9300 C   0  0  0  0  0  2  0  0  0  0  0  0
  161.8880  209.5040  149.1430 C   0  0  0  0  0  1  0  0  0  0  0  0
  160.8150  208.7180  153.9600 C   0  0  0  0  0  0  0  0  0  0  0  0
  162.1430  206.4700  151.3470 C   0  0  0  0  0  3  0  0  0  0  0  0
  161.2990  209.1550  151.6180 C   0  0  0  0  0  0  0  0  0  0  0  0
  160.4190  210.0210  154.1360 C   0  0  0  0  0  0  0  0  0  0  0  0
  159.8400  208.5420  157.2580 O   0  0  0  0  0  0  0  0  0  0  0  0
  159.8700  210.2330  155.5030 C   0  0  1  0  0  3  0  0  0  0  0  0
  156.4550  211.6170  156.3210 C   0  0  0  0  0  2  0  0  0  0  0  0
  159.4600  213.2660  155.4710 C   0  0  0  0  0  1  0  0  0  0  0  0
  161.6860  206.9300  152.5790 C   0  0  0  0  0  3  0  0  0  0  0  0
  161.2740  208.2570  152.7270 C   0  0  0  0  0  0  0  0  0  0  0  0
  158.9660  212.7140  154.2140 N   0  0  0  0  0  0  0  0  0  0  0  0
  158.5110  212.2440  150.4490 C   0  0  0  0  0  2  0  0  0  0  0  0
  157.0530  213.0410  148.5950 C   0  0  0  0  0  1  0  0  0  0  0  0
  157.7860  213.4410  149.8600 C   0  0  0  0  0  2  0  0  0  0  0  0
  1  4  1  0  0  0  0
  2 19  1  0  0  0  0
  3 10  1  0  0  0  0
  4 12  1  0  0  0  0
  4 20  2  0  0  0  0
  5 11  1  0  0  0  0
  5  1  1  0  0  0  0
  7 15  1  1  0  0  0
  7  9  1  0  0  0  0
  8  6  2  0  0  0  0
  9 22  1  0  0  0  0
  9 14  1  1  0  0  0
 10 21  2  0  0  0  0
 11 28  1  1  0  0  0
 11  8  1  0  0  0  0
 12  8  1  6  0  0  0
 12 27  1  0  0  0  0
 13  2  2  0  0  0  0
 13 18  1  0  0  0  0
 15 23  1  0  0  0  0
 16  2  1  0  0  0  0
 17 20  1  0  0  0  0
 17  3  1  0  0  0  0
 18 25  2  0  0  0  0
 19  1  2  0  0  0  0
 19 26  1  0  0  0  0
 22 20  1  6  0  0  0
 22 10  1  0  0  0  0
 23 14  1  0  0  0  0
 25 26  1  0  0  0  0
 26 17  2  0  0  0  0
 27  7  1  0  0  0  0
 27 24  1  0  0  0  0
 29 30  1  0  0  0  0
 30 28  1  0  0  0  0
M  END
>  <MODEL>
4

>  <REMARK>
 VINA RESULT:      -3.9      1.727      6.829
  Name = 
  2 active torsions:
  status: ('A' for Active; 'I' for Inactive)
    1  A    between atoms: C_11  and  C_28
    2  A    between atoms: C_28  and  C_30
                            x       y       z     vdW  Elec       q    Type
                         _______ _______ _______ _____ _____    ______ ____

>  <TORSDO>
F 2

$$$$
=
 OpenBabel11122412303D

 30 35  0  0  1  0  0  0  0  0999 V2000
  161.7730  205.5190  149.7860 C   0  0  0  0  0  0  0  0  0  0  0  0
  161.2060  203.1050  149.4070 C   0  0  0  0  0  0  0  0  0  0  0  0
  160.9070  205.1890  153.8850 N   0  0  0  0  0  2  0  0  0  0  0  0
  161.9570  206.5920  150.6930 C   0  0  0  0  0  0  0  0  0  0  0  0
  161.9920  205.7450  148.4190 O   0  0  0  0  0  0  0  0  0  0  0  0
  163.4560  208.8640  148.2610 O   0  0  0  0  0  0  0  0  0  0  0  0
  160.6530  209.0510  151.3550 C   0  0  1  0  0  3  0  0  0  0  0  0
  162.7430  207.9990  148.7440 C   0  0  0  0  0  0  0  0  0  0  0  0
  160.5620  208.4450  152.7680 C   0  0  2  0  0  3  0  0  0  0  0  0
  161.1690  206.5410  154.2550 C   0  0  0  0  0  0  0  0  0  0  0  0
  162.0140  207.0530  147.8440 C   0  0  2  0  0  3  0  0  0  0  0  0
  162.5840  207.9020  150.2360 C   0  0  1  0  0  3  0  0  0  0  0  0
  160.7710  201.8860  149.9350 C   0  0  0  0  0  3  0  0  0  0  0  0
  160.5420  209.6200  153.7170 C   0  0  0  0  0  2  0  0  0  0  0  0
  160.0350  210.4370  151.4700 C   0  0  0  0  0  2  0  0  0  0  0  0
  161.5060  203.1280  147.9460 C   0  0  0  0  0  1  0  0  0  0  0  0
  161.2200  205.1640  152.5000 C   0  0  0  0  0  0  0  0  0  0  0  0
  160.4830  201.7530  151.2910 C   0  0  0  0  0  3  0  0  0  0  0  0
  161.3600  204.2350  150.2580 C   0  0  0  0  0  0  0  0  0  0  0  0
  161.6650  206.3790  152.0400 C   0  0  0  0  0  0  0  0  0  0  0  0
  161.0330  206.9530  155.4370 O   0  0  0  0  0  0  0  0  0  0  0  0
  161.6310  207.4050  153.1180 C   0  0  1  0  0  3  0  0  0  0  0  0
  159.8310  210.7190  152.9530 C   0  0  0  0  0  2  0  0  0  0  0  0
  162.9850  209.7520  151.6930 C   0  0  0  0  0  1  0  0  0  0  0  0
  160.6330  202.8430  152.1440 C   0  0  0  0  0  3  0  0  0  0  0  0
  161.0720  204.0720  151.6460 C   0  0  0  0  0  0  0  0  0  0  0  0
  162.0150  209.1490  150.7830 N   0  0  0  0  0  0  0  0  0  0  0  0
  160.5950  207.5640  147.6100 C   0  0  0  0  0  2  0  0  0  0  0  0
  160.4560  206.2030  145.5290 C   0  0  0  0  0  1  0  0  0  0  0  0
  159.7670  206.5560  146.8330 C   0  0  0  0  0  2  0  0  0  0  0  0
  1 19  2  0  0  0  0
  1  4  1  0  0  0  0
  2 13  2  0  0  0  0
  2 19  1  0  0  0  0
  3 10  1  0  0  0  0
  4 20  2  0  0  0  0
  5  1  1  0  0  0  0
  6  8  2  0  0  0  0
  7 15  1  1  0  0  0
  7  9  1  0  0  0  0
  9 22  1  0  0  0  0
  9 14  1  1  0  0  0
 10 21  2  0  0  0  0
 11 28  1  1  0  0  0
 11  5  1  0  0  0  0
 11  8  1  0  0  0  0
 12  8  1  6  0  0  0
 12  4  1  0  0  0  0
 12 27  1  0  0  0  0
 13 18  1  0  0  0  0
 15 23  1  0  0  0  0
 16  2  1  0  0  0  0
 17  3  1  0  0  0  0
 18 25  2  0  0  0  0
 19 26  1  0  0  0  0
 20 17  1  0  0  0  0
 22 20  1  6  0  0  0
 22 10  1  0  0  0  0
 23 14  1  0  0  0  0
 26 25  1  0  0  0  0
 26 17  2  0  0  0  0
 27  7  1  0  0  0  0
 27 24  1  0  0  0  0
 29 30  1  0  0  0  0
 30 28  1  0  0  0  0
M  END
>  <MODEL>
5

>  <REMARK>
 VINA RESULT:      -3.7      3.921      8.420
  Name = 
  2 active torsions:
  status: ('A' for Active; 'I' for Inactive)
    1  A    between atoms: C_11  and  C_28
    2  A    between atoms: C_28  and  C_30
                            x       y       z     vdW  Elec       q    Type
                         _______ _______ _______ _____ _____    ______ ____

>  <TORSDO>
F 2

$$$$
=
 OpenBabel11122412303D

 30 35  0  0  1  0  0  0  0  0999 V2000
  157.4730  212.7770  153.4830 C   0  0  0  0  0  0  0  0  0  0  0  0
  155.5360  213.9140  152.3660 C   0  0  0  0  0  0  0  0  0  0  0  0
  159.6640  212.7510  149.8970 N   0  0  0  0  0  2  0  0  0  0  0  0
  158.8030  212.2930  153.4050 C   0  0  0  0  0  0  0  0  0  0  0  0
  156.7820  212.6580  154.6970 O   0  0  0  0  0  0  0  0  0  0  0  0
  159.1690  211.6700  156.9830 O   0  0  0  0  0  0  0  0  0  0  0  0
  160.1370  209.7630  153.3930 C   0  0  1  0  0  3  0  0  0  0  0  0
  158.6680  211.7580  155.8730 C   0  0  0  0  0  0  0  0  0  0  0  0
  160.6910  210.2330  152.0360 C   0  0  2  0  0  3  0  0  0  0  0  0
  160.8310  212.0880  150.3790 C   0  0  0  0  0  0  0  0  0  0  0  0
  157.1790  211.7530  155.7290 C   0  0  2  0  0  3  0  0  0  0  0  0
  159.5470  211.8500  154.6570 C   0  0  1  0  0  3  0  0  0  0  0  0
  154.9780  214.4480  151.2010 C   0  0  0  0  0  3  0  0  0  0  0  0
  162.0200  209.5350  151.8710 C   0  0  0  0  0  2  0  0  0  0  0  0
  160.7670  208.3980  153.6340 C   0  0  0  0  0  2  0  0  0  0  0  0
  154.6960  213.9790  153.5970 C   0  0  0  0  0  1  0  0  0  0  0  0
  158.8520  212.8650  151.0560 C   0  0  0  0  0  0  0  0  0  0  0  0
  155.6880  214.4530  150.0020 C   0  0  0  0  0  3  0  0  0  0  0  0
  156.8490  213.3640  152.3400 C   0  0  0  0  0  0  0  0  0  0  0  0
  159.4570  212.3490  152.1750 C   0  0  0  0  0  0  0  0  0  0  0  0
  161.8130  211.8300  149.6350 O   0  0  0  0  0  0  0  0  0  0  0  0
  160.7790  211.7500  151.8400 C   0  0  1  0  0  3  0  0  0  0  0  0
  161.8450  208.2040  152.5760 C   0  0  0  0  0  2  0  0  0  0  0  0
  161.8040  211.0680  154.6430 C   0  0  0  0  0  1  0  0  0  0  0  0
  156.9760  213.9280  149.9540 C   0  0  0  0  0  3  0  0  0  0  0  0
  157.5620  213.3930  151.1040 C   0  0  0  0  0  0  0  0  0  0  0  0
  160.4070  210.6560  154.5430 N   0  0  0  0  0  0  0  0  0  0  0  0
  156.7030  210.3370  155.4210 C   0  0  0  0  0  2  0  0  0  0  0  0
  154.4600  210.3290  156.5030 C   0  0  0  0  0  1  0  0  0  0  0  0
  155.2040  210.3000  155.1830 C   0  0  0  0  0  2  0  0  0  0  0  0
  1  5  1  0  0  0  0
  2 16  1  0  0  0  0
  3 10  1  0  0  0  0
  3 17  1  0  0  0  0
  4  1  1  0  0  0  0
  5 11  1  0  0  0  0
  7 15  1  1  0  0  0
  7 27  1  0  0  0  0
  8  6  2  0  0  0  0
  9 14  1  1  0  0  0
  9  7  1  0  0  0  0
 11 28  1  6  0  0  0
 11  8  1  0  0  0  0
 12  4  1  6  0  0  0
 12  8  1  0  0  0  0
 13  2  2  0  0  0  0
 14 23  1  0  0  0  0
 17 26  2  0  0  0  0
 17 20  1  0  0  0  0
 18 13  1  0  0  0  0
 19  2  1  0  0  0  0
 19  1  2  0  0  0  0
 20  4  2  0  0  0  0
 21 10  2  0  0  0  0
 22 10  1  6  0  0  0
 22  9  1  0  0  0  0
 22 20  1  0  0  0  0
 23 15  1  0  0  0  0
 25 18  2  0  0  0  0
 25 26  1  0  0  0  0
 26 19  1  0  0  0  0
 27 24  1  0  0  0  0
 27 12  1  0  0  0  0
 30 28  1  0  0  0  0
 30 29  1  0  0  0  0
M  END
>  <MODEL>
6

>  <REMARK>
 VINA RESULT:      -3.7      1.809      3.160
  Name = 
  2 active torsions:
  status: ('A' for Active; 'I' for Inactive)
    1  A    between atoms: C_11  and  C_28
    2  A    between atoms: C_28  and  C_30
                            x       y       z     vdW  Elec       q    Type
                         _______ _______ _______ _____ _____    ______ ____

>  <TORSDO>
F 2

$$$$
=
 OpenBabel11122412303D

 30 35  0  0  1  0  0  0  0  0999 V2000
  160.4260  212.1100  152.1640 C   0  0  0  0  0  0  0  0  0  0  0  0
  160.1320  213.2340  149.9410 C   0  0  0  0  0  0  0  0  0  0  0  0
  162.2890  208.8010  150.3650 N   0  0  0  0  0  2  0  0  0  0  0  0
  160.9510  211.0300  152.9150 C   0  0  0  0  0  0  0  0  0  0  0  0
  159.7330  213.1260  152.8380 O   0  0  0  0  0  0  0  0  0  0  0  0
  160.2890  212.5090  156.1850 O   0  0  0  0  0  0  0  0  0  0  0  0
  159.9520  208.7680  154.3540 C   0  0  1  0  0  3  0  0  0  0  0  0
  160.1620  212.2060  155.0100 C   0  0  0  0  0  0  0  0  0  0  0  0
  160.8330  207.9560  153.3870 C   0  0  2  0  0  3  0  0  0  0  0  0
  162.5060  208.0270  151.5420 C   0  0  0  0  0  0  0  0  0  0  0  0
  159.1960  212.9580  154.1510 C   0  0  2  0  0  3  0  0  0  0  0  0
  160.9590  211.0660  154.4360 C   0  0  1  0  0  3  0  0  0  0  0  0
  160.3040  213.1960  148.5540 C   0  0  0  0  0  3  0  0  0  0  0  0
  161.2090  206.6980  154.1340 C   0  0  0  0  0  2  0  0  0  0  0  0
  159.3230  207.7410  155.2850 C   0  0  0  0  0  2  0  0  0  0  0  0
  159.4770  214.4530  150.4960 C   0  0  0  0  0  1  0  0  0  0  0  0
  161.6970  209.9920  150.8620 C   0  0  0  0  0  0  0  0  0  0  0  0
  160.9240  212.1110  147.9370 C   0  0  0  0  0  3  0  0  0  0  0  0
  160.5910  212.1540  150.7450 C   0  0  0  0  0  0  0  0  0  0  0  0
  161.5750  209.9870  152.2290 C   0  0  0  0  0  0  0  0  0  0  0  0
  163.0520  206.8940  151.5120 O   0  0  0  0  0  0  0  0  0  0  0  0
  162.0410  208.6950  152.8040 C   0  0  1  0  0  3  0  0  0  0  0  0
  160.0190  206.4110  155.0280 C   0  0  0  0  0  2  0  0  0  0  0  0
  161.8650  209.3230  155.7950 C   0  0  0  0  0  1  0  0  0  0  0  0
  161.3870  211.0460  148.7040 C   0  0  0  0  0  3  0  0  0  0  0  0
  161.2340  211.0590  150.0930 C   0  0  0  0  0  0  0  0  0  0  0  0
  160.6520  209.8070  155.1430 N   0  0  0  0  0  0  0  0  0  0  0  0
  157.8680  212.2080  154.1010 C   0  0  0  0  0  2  0  0  0  0  0  0
  156.2300  211.4100  155.7980 C   0  0  0  0  0  1  0  0  0  0  0  0
  156.9590  212.6190  155.2460 C   0  0  0  0  0  2  0  0  0  0  0  0
  1  5  1  0  0  0  0
  1  4  1  0  0  0  0
  2 16  1  0  0  0  0
  2 19  1  0  0  0  0
  3 17  1  0  0  0  0
  3 10  1  0  0  0  0
  5 11  1  0  0  0  0
  7 27  1  0  0  0  0
  7 15  1  1  0  0  0
  8  6  2  0  0  0  0
  9 14  1  1  0  0  0
  9  7  1  0  0  0  0
 11 28  1  6  0  0  0
 11  8  1  0  0  0  0
 12  4  1  6  0  0  0
 12  8  1  0  0  0  0
 12 27  1  0  0  0  0
 13  2  2  0  0  0  0
 14 23  1  0  0  0  0
 17 20  1  0  0  0  0
 18 13  1  0  0  0  0
 18 25  2  0  0  0  0
 19  1  2  0  0  0  0
 20 22  1  0  0  0  0
 20  4  2  0  0  0  0
 21 10  2  0  0  0  0
 22 10  1  6  0  0  0
 22  9  1  0  0  0  0
 23 15  1  0  0  0  0
 25 26  1  0  0  0  0
 26 19  1  0  0  0  0
 26 17  2  0  0  0  0
 27 24  1  0  0  0  0
 28 30  1  0  0  0  0
 30 29  1  0  0  0  0
M  END
>  <MODEL>
7

>  <REMARK>
 VINA RESULT:      -3.5      1.933      5.118
  Name = 
  2 active torsions:
  status: ('A' for Active; 'I' for Inactive)
    1  A    between atoms: C_11  and  C_28
    2  A    between atoms: C_28  and  C_30
                            x       y       z     vdW  Elec       q    Type
                         _______ _______ _______ _____ _____    ______ ____

>  <TORSDO>
F 2

$$$$
=
 OpenBabel11122412303D

 30 35  0  0  1  0  0  0  0  0999 V2000
  161.5710  209.7960  151.2190 C   0  0  0  0  0  0  0  0  0  0  0  0
  161.4510  207.9690  152.9330 C   0  0  0  0  0  0  0  0  0  0  0  0
  159.1230  212.2910  153.5520 N   0  0  0  0  0  2  0  0  0  0  0  0
  161.2570  211.1260  150.8420 C   0  0  0  0  0  0  0  0  0  0  0  0
  162.3130  209.0020  150.3340 O   0  0  0  0  0  0  0  0  0  0  0  0
  163.3980  211.1760  147.8860 O   0  0  0  0  0  0  0  0  0  0  0  0
  159.5620  212.4460  148.9520 C   0  0  1  0  0  3  0  0  0  0  0  0
  162.6370  210.7740  148.7520 C   0  0  0  0  0  0  0  0  0  0  0  0
  158.9540  213.1180  150.1970 C   0  0  2  0  0  3  0  0  0  0  0  0
  159.0740  213.4090  152.6690 C   0  0  0  0  0  0  0  0  0  0  0  0
  162.4420  209.3040  148.9430 C   0  0  2  0  0  3  0  0  0  0  0  0
  161.8850  211.7570  149.6070 C   0  0  1  0  0  3  0  0  0  0  0  0
  160.9590  207.5160  154.1600 C   0  0  0  0  0  3  0  0  0  0  0  0
  158.4280  214.4530  149.7260 C   0  0  0  0  0  2  0  0  0  0  0  0
  158.8190  213.0460  147.7670 C   0  0  0  0  0  2  0  0  0  0  0  0
  162.3260  207.0250  152.1780 C   0  0  0  0  0  1  0  0  0  0  0  0
  159.9820  211.3810  152.8810 C   0  0  0  0  0  0  0  0  0  0  0  0
  160.1500  208.3280  154.9520 C   0  0  0  0  0  3  0  0  0  0  0  0
  161.1270  209.2760  152.4740 C   0  0  0  0  0  0  0  0  0  0  0  0
  160.4560  211.8850  151.6950 C   0  0  0  0  0  0  0  0  0  0  0  0
  158.4210  214.4510  152.9380 O   0  0  0  0  0  0  0  0  0  0  0  0
  159.8780  213.2280  151.4140 C   0  0  1  0  0  3  0  0  0  0  0  0
  157.9930  214.2120  148.2950 C   0  0  0  0  0  2  0  0  0  0  0  0
  161.4640  214.0030  148.9130 C   0  0  0  0  0  1  0  0  0  0  0  0
  159.8250  209.6130  154.5270 C   0  0  0  0  0  3  0  0  0  0  0  0
  160.3080  210.0950  153.3070 C   0  0  0  0  0  0  0  0  0  0  0  0
  161.0220  212.6180  148.7760 N   0  0  0  0  0  0  0  0  0  0  0  0
  161.2060  208.8500  148.1740 C   0  0  0  0  0  2  0  0  0  0  0  0
  160.4760  206.5800  148.8910 C   0  0  0  0  0  1  0  0  0  0  0  0
  161.2650  207.3650  147.8620 C   0  0  0  0  0  2  0  0  0  0  0  0
  1 19  1  0  0  0  0
  2 13  1  0  0  0  0
  4  1  2  0  0  0  0
  4 20  1  0  0  0  0
  5  1  1  0  0  0  0
  6  8  2  0  0  0  0
  7 15  1  6  0  0  0
  7  9  1  0  0  0  0
  8 11  1  0  0  0  0
  9 14  1  6  0  0  0
  9 22  1  0  0  0  0
 10 21  2  0  0  0  0
 10  3  1  0  0  0  0
 11 28  1  6  0  0  0
 11  5  1  0  0  0  0
 12  8  1  6  0  0  0
 12  4  1  0  0  0  0
 13 18  2  0  0  0  0
 15 23  1  0  0  0  0
 16  2  1  0  0  0  0
 17 26  1  0  0  0  0
 17  3  1  0  0  0  0
 19  2  2  0  0  0  0
 19 26  1  0  0  0  0
 20 17  2  0  0  0  0
 22 20  1  1  0  0  0
 22 10  1  0  0  0  0
 23 14  1  0  0  0  0
 25 18  1  0  0  0  0
 26 25  2  0  0  0  0
 27 24  1  0  0  0  0
 27  7  1  0  0  0  0
 27 12  1  0  0  0  0
 30 28  1  0  0  0  0
 30 29  1  0  0  0  0
M  END
>  <MODEL>
8

>  <REMARK>
 VINA RESULT:      -3.2      2.787      6.004
  Name = 
  2 active torsions:
  status: ('A' for Active; 'I' for Inactive)
    1  A    between atoms: C_11  and  C_28
    2  A    between atoms: C_28  and  C_30
                            x       y       z     vdW  Elec       q    Type
                         _______ _______ _______ _____ _____    ______ ____

>  <TORSDO>
F 2

$$$$
=
 OpenBabel11122412303D

 30 35  0  0  1  0  0  0  0  0999 V2000
  161.1820  210.9030  151.3650 C   0  0  0  0  0  0  0  0  0  0  0  0
  160.6610  212.9790  150.0580 C   0  0  0  0  0  0  0  0  0  0  0  0
  162.2400  208.8350  147.8620 N   0  0  0  0  0  2  0  0  0  0  0  0
  161.6790  209.5760  151.3830 C   0  0  0  0  0  0  0  0  0  0  0  0
  160.7600  211.4810  152.5700 O   0  0  0  0  0  0  0  0  0  0  0  0
  161.8010  209.2880  155.0200 O   0  0  0  0  0  0  0  0  0  0  0  0
  160.6480  206.9340  151.7650 C   0  0  1  0  0  3  0  0  0  0  0  0
  161.4310  209.6030  153.9000 C   0  0  0  0  0  0  0  0  0  0  0  0
  161.2300  206.6690  150.3640 C   0  0  2  0  0  3  0  0  0  0  0  0
  162.5510  207.5780  148.4570 C   0  0  0  0  0  0  0  0  0  0  0  0
  160.4420  210.7110  153.7300 C   0  0  2  0  0  3  0  0  0  0  0  0
  161.9550  208.8630  152.7000 C   0  0  1  0  0  3  0  0  0  0  0  0
  160.5830  213.6190  148.8170 C   0  0  0  0  0  3  0  0  0  0  0  0
  161.5570  205.1950  150.3280 C   0  0  0  0  0  2  0  0  0  0  0  0
  160.0580  205.6050  152.2140 C   0  0  0  0  0  2  0  0  0  0  0  0
  160.2820  213.7920  151.2500 C   0  0  0  0  0  1  0  0  0  0  0  0
  161.9090  209.6510  148.9770 C   0  0  0  0  0  0  0  0  0  0  0  0
  160.9330  212.9540  147.6440 C   0  0  0  0  0  3  0  0  0  0  0  0
  161.1030  211.6290  150.1370 C   0  0  0  0  0  0  0  0  0  0  0  0
  162.0270  208.9820  150.1700 C   0  0  0  0  0  0  0  0  0  0  0  0
  162.9260  206.5860  147.7780 O   0  0  0  0  0  0  0  0  0  0  0  0
  162.4070  207.5590  149.9520 C   0  0  1  0  0  3  0  0  0  0  0  0
  160.5130  204.5480  151.2160 C   0  0  0  0  0  2  0  0  0  0  0  0
  162.8400  206.6490  152.8420 C   0  0  0  0  0  1  0  0  0  0  0  0
  161.3740  211.6350  147.6970 C   0  0  0  0  0  3  0  0  0  0  0  0
  161.4690  210.9720  148.9240 C   0  0  0  0  0  0  0  0  0  0  0  0
  161.6090  207.4310  152.7770 N   0  0  0  0  0  0  0  0  0  0  0  0
  159.0370  210.1260  153.6230 C   0  0  0  0  0  2  0  0  0  0  0  0
  158.4910  211.9930  155.1780 C   0  0  0  0  0  1  0  0  0  0  0  0
  157.9840  211.1420  154.0300 C   0  0  0  0  0  2  0  0  0  0  0  0
  1  4  1  0  0  0  0
  1  5  1  0  0  0  0
  2 19  1  0  0  0  0
  2 16  1  0  0  0  0
  3 10  1  0  0  0  0
  3 17  1  0  0  0  0
  5 11  1  0  0  0  0
  7 15  1  1  0  0  0
  7 27  1  0  0  0  0
  8  6  2  0  0  0  0
  9 14  1  1  0  0  0
  9  7  1  0  0  0  0
 11 28  1  6  0  0  0
 11  8  1  0  0  0  0
 12  4  1  6  0  0  0
 12 27  1  0  0  0  0
 12  8  1  0  0  0  0
 13  2  2  0  0  0  0
 14 23  1  0  0  0  0
 17 20  1  0  0  0  0
 18 25  2  0  0  0  0
 18 13  1  0  0  0  0
 19  1  2  0  0  0  0
 20  4  2  0  0  0  0
 21 10  2  0  0  0  0
 22 10  1  6  0  0  0
 22 20  1  0  0  0  0
 22  9  1  0  0  0  0
 23 15  1  0  0  0  0
 25 26  1  0  0  0  0
 26 17  2  0  0  0  0
 26 19  1  0  0  0  0
 27 24  1  0  0  0  0
 28 30  1  0  0  0  0
 30 29  1  0  0  0  0
M  END
>  <MODEL>
9

>  <REMARK>
 VINA RESULT:      -2.1      2.659      5.321
  Name = 
  2 active torsions:
  status: ('A' for Active; 'I' for Inactive)
    1  A    between atoms: C_11  and  C_28
    2  A    between atoms: C_28  and  C_30
                            x       y       z     vdW  Elec       q    Type
                         _______ _______ _______ _____ _____    ______ ____

>  <TORSDO>
F 2

$$$$
