=
 OpenBabel11122414403D

 34 42  0  0  1  0  0  0  0  0999 V2000
  161.4480  207.1290  148.4910 C   0  0  2  0  0  3  0  0  0  0  0  0
  161.8140  209.4060  149.1570 O   0  0  0  0  0  0  0  0  0  0  0  0
  161.2950  200.6070  149.7660 C   0  0  2  0  0  3  0  0  0  0  0  0
  160.8170  204.7520  148.0520 C   0  0  1  0  0  3  0  0  0  0  0  0
  161.4170  203.1600  149.9960 C   0  0  2  0  0  3  0  0  0  0  0  0
  161.6120  201.6770  151.9920 C   0  0  0  0  0  1  0  0  0  0  0  0
  162.3970  200.8230  148.9130 O   0  0  0  0  0  0  0  0  0  0  0  0
  160.7740  202.1290  147.6730 C   0  0  1  0  0  3  0  0  0  0  0  0
  162.3590  207.7700  150.8100 C   0  0  2  0  0  3  0  0  0  0  0  0
  160.9540  208.4980  153.6280 C   0  0  0  0  0  2  0  0  0  0  0  0
  160.9700  204.2660  150.7440 O   0  0  0  0  0  0  0  0  0  0  0  0
  159.6710  202.6750  148.3610 O   0  0  0  0  0  0  0  0  0  0  0  0
  161.4550  206.5920  151.2260 C   0  0  1  0  0  3  0  0  0  0  0  0
  162.1670  210.0830  150.3310 C   0  0  0  0  0  2  0  0  0  0  0  0
  160.9120  203.3140  148.5630 C   0  0  2  0  0  0  0  0  0  0  0  0
  161.1350  200.7550  148.2830 C   0  0  2  0  0  3  0  0  0  0  0  0
  160.7940  209.2080  152.2870 C   0  0  2  0  0  3  0  0  0  0  0  0
  161.7550  205.6700  148.8480 C   0  0  2  0  0  3  0  0  0  0  0  0
  160.9740  201.8430  150.6260 C   0  0  2  0  0  3  0  0  0  0  0  0
  161.7870  205.3620  150.3780 C   0  0  2  0  0  3  0  0  0  0  0  0
  160.8440  206.3740  146.1610 C   0  0  0  0  0  2  0  0  0  0  0  0
  160.6170  207.0180  153.5280 C   0  0  0  0  0  2  0  0  0  0  0  0
  161.0990  204.9180  146.5620 C   0  0  0  0  0  2  0  0  0  0  0  0
  161.6460  206.2680  152.7000 C   0  0  0  0  0  2  0  0  0  0  0  0
  162.1160  209.1080  151.4950 C   0  0  1  0  0  3  0  0  0  0  0  0
  161.6960  207.3360  146.9940 C   0  0  0  0  0  2  0  0  0  0  0  0
  162.3020  208.0990  149.3130 C   0  0  1  0  0  3  0  0  0  0  0  0
  160.4280  210.6360  152.5600 C   0  0  0  0  0  3  0  0  0  0  0  0
  159.3720  210.9400  153.3200 C   0  0  0  0  0  3  0  0  0  0  0  0
  156.9710  213.5850  153.2720 C   0  0  0  0  0  2  0  0  0  0  0  0
  159.0980  213.2440  152.3800 C   0  0  0  0  0  2  0  0  0  0  0  0
  158.9770  212.3570  153.6130 C   0  0  0  0  0  3  0  0  0  0  0  0
  157.8260  214.0130  152.3560 C   0  0  0  0  0  2  0  0  0  0  0  0
  157.5250  212.4560  154.0660 C   0  0  0  0  0  2  0  0  0  0  0  0
  1 26  1  6  0  0  0
  1 18  1  0  0  0  0
  1 27  1  0  0  0  0
  2 27  1  0  0  0  0
  2 14  1  0  0  0  0
  3  7  1  6  0  0  0
  3 19  1  0  0  0  0
  4 23  1  6  0  0  0
  4 15  1  0  0  0  0
  4 18  1  0  0  0  0
  5 19  1  0  0  0  0
  5 11  1  1  0  0  0
  8 16  1  0  0  0  0
  8 12  1  1  0  0  0
  8 15  1  0  0  0  0
  9 13  1  0  0  0  0
  9 25  1  0  0  0  0
 12 15  1  0  0  0  0
 13 24  1  0  0  0  0
 14 25  1  0  0  0  0
 15  5  1  0  0  0  0
 16  7  1  0  0  0  0
 16  3  1  0  0  0  0
 17 28  1  0  0  0  0
 17 10  1  0  0  0  0
 18 20  1  0  0  0  0
 19  6  1  0  0  0  0
 20 11  1  0  0  0  0
 20 13  1  0  0  0  0
 21 23  1  0  0  0  0
 21 26  1  0  0  0  0
 22 10  1  0  0  0  0
 24 22  1  0  0  0  0
 25 17  1  0  0  0  0
 27  9  1  0  0  0  0
 28 29  2  0  0  0  0
 29 32  1  0  0  0  0
 30 34  1  0  0  0  0
 31 32  1  0  0  0  0
 32 34  1  0  0  0  0
 33 31  1  0  0  0  0
 33 30  1  0  0  0  0
M  END
>  <MODEL>
1

>  <REMARK>
 VINA RESULT:      -7.7      0.000      0.000
  Name = 
  2 active torsions:
  status: ('A' for Active; 'I' for Inactive)
    1  A    between atoms: C_17  and  C_28
    2  A    between atoms: C_29  and  C_32
                            x       y       z     vdW  Elec       q    Type
                         _______ _______ _______ _____ _____    ______ ____

>  <TORSDO>
F 2

$$$$
=
 OpenBabel11122414403D

 34 42  0  0  1  0  0  0  0  0999 V2000
  161.6770  209.5040  151.4240 C   0  0  2  0  0  3  0  0  0  0  0  0
  161.8530  210.9150  153.3570 O   0  0  0  0  0  0  0  0  0  0  0  0
  161.2130  203.5210  148.5630 C   0  0  2  0  0  3  0  0  0  0  0  0
  161.1850  207.9220  149.5540 C   0  0  1  0  0  3  0  0  0  0  0  0
  161.2660  205.4400  150.2670 C   0  0  2  0  0  3  0  0  0  0  0  0
  160.9420  203.0780  151.0000 C   0  0  0  0  0  1  0  0  0  0  0  0
  162.4980  204.0150  148.2550 O   0  0  0  0  0  0  0  0  0  0  0  0
  161.2480  206.0190  147.7100 C   0  0  1  0  0  3  0  0  0  0  0  0
  161.9560  208.5720  153.8050 C   0  0  2  0  0  3  0  0  0  0  0  0
  159.8690  207.7740  156.1400 C   0  0  0  0  0  2  0  0  0  0  0  0
  160.6390  205.9790  151.4060 O   0  0  0  0  0  0  0  0  0  0  0  0
  160.0030  206.2360  148.3360 O   0  0  0  0  0  0  0  0  0  0  0  0
  160.9780  207.5170  153.2500 C   0  0  1  0  0  3  0  0  0  0  0  0
  161.8900  210.7450  154.7470 C   0  0  0  0  0  2  0  0  0  0  0  0
  161.1490  206.4540  149.1300 C   0  0  2  0  0  0  0  0  0  0  0  0
  161.4420  204.5060  147.4570 C   0  0  2  0  0  3  0  0  0  0  0  0
  160.0600  209.1330  155.4750 C   0  0  2  0  0  3  0  0  0  0  0  0
  161.8840  208.0740  150.9120 C   0  0  2  0  0  3  0  0  0  0  0  0
  160.6790  204.0820  149.8930 C   0  0  2  0  0  3  0  0  0  0  0  0
  161.5210  206.9520  151.9350 C   0  0  2  0  0  3  0  0  0  0  0  0
  161.6970  210.3040  149.0310 C   0  0  0  0  0  2  0  0  0  0  0  0
  159.5720  206.6830  155.1240 C   0  0  0  0  0  2  0  0  0  0  0  0
  161.8430  208.8590  148.5450 C   0  0  0  0  0  2  0  0  0  0  0  0
  160.7820  206.3900  154.2530 C   0  0  0  0  0  2  0  0  0  0  0  0
  161.5420  209.3030  155.0750 C   0  0  1  0  0  3  0  0  0  0  0  0
  162.3030  210.4830  150.4270 C   0  0  0  0  0  2  0  0  0  0  0  0
  162.2870  209.6950  152.8150 C   0  0  1  0  0  3  0  0  0  0  0  0
  159.6320  210.1900  156.4480 C   0  0  0  0  0  3  0  0  0  0  0  0
  158.5520  210.9410  156.2150 C   0  0  0  0  0  3  0  0  0  0  0  0
  156.2940  213.5550  157.1270 C   0  0  0  0  0  2  0  0  0  0  0  0
  158.5900  213.3860  156.7500 C   0  0  0  0  0  2  0  0  0  0  0  0
  158.0960  212.0070  157.1680 C   0  0  0  0  0  3  0  0  0  0  0  0
  157.3890  214.2550  156.8680 C   0  0  0  0  0  2  0  0  0  0  0  0
  156.5760  212.0980  157.2260 C   0  0  0  0  0  2  0  0  0  0  0  0
  1 26  1  6  0  0  0
  1 27  1  0  0  0  0
  2 14  1  0  0  0  0
  3  7  1  1  0  0  0
  3 19  1  0  0  0  0
  4 23  1  6  0  0  0
  4 18  1  0  0  0  0
  5 11  1  1  0  0  0
  8 12  1  6  0  0  0
  8 15  1  0  0  0  0
  9 25  1  0  0  0  0
 11 20  1  0  0  0  0
 12 15  1  0  0  0  0
 13  9  1  0  0  0  0
 13 24  1  0  0  0  0
 14 25  1  0  0  0  0
 15  4  1  0  0  0  0
 15  5  1  0  0  0  0
 16  8  1  0  0  0  0
 16  7  1  0  0  0  0
 16  3  1  0  0  0  0
 17 10  1  0  0  0  0
 17 28  1  0  0  0  0
 18  1  1  0  0  0  0
 18 20  1  0  0  0  0
 19  5  1  0  0  0  0
 19  6  1  0  0  0  0
 20 13  1  0  0  0  0
 21 26  1  0  0  0  0
 22 10  1  0  0  0  0
 23 21  1  0  0  0  0
 24 22  1  0  0  0  0
 25 17  1  0  0  0  0
 27  2  1  0  0  0  0
 27  9  1  0  0  0  0
 29 28  2  0  0  0  0
 29 32  1  0  0  0  0
 30 34  1  0  0  0  0
 31 33  1  0  0  0  0
 31 32  1  0  0  0  0
 32 34  1  0  0  0  0
 33 30  1  0  0  0  0
M  END
>  <MODEL>
2

>  <REMARK>
 VINA RESULT:      -7.7      2.181      3.487
  Name = 
  2 active torsions:
  status: ('A' for Active; 'I' for Inactive)
    1  A    between atoms: C_17  and  C_28
    2  A    between atoms: C_29  and  C_32
                            x       y       z     vdW  Elec       q    Type
                         _______ _______ _______ _____ _____    ______ ____

>  <TORSDO>
F 2

$$$$
=
 OpenBabel11122414403D

 34 42  0  0  1  0  0  0  0  0999 V2000
  160.6250  207.0480  154.2110 C   0  0  2  0  0  3  0  0  0  0  0  0
  161.6170  205.0220  153.3930 O   0  0  0  0  0  0  0  0  0  0  0  0
  159.2330  213.5250  153.6620 C   0  0  2  0  0  3  0  0  0  0  0  0
  159.3990  209.1530  154.7620 C   0  0  1  0  0  3  0  0  0  0  0  0
  159.9750  211.1140  153.1830 C   0  0  2  0  0  3  0  0  0  0  0  0
  160.1980  212.8980  151.4530 C   0  0  0  0  0  1  0  0  0  0  0  0
  160.1760  213.4040  154.7050 O   0  0  0  0  0  0  0  0  0  0  0  0
  158.6900  211.6240  155.4110 C   0  0  1  0  0  3  0  0  0  0  0  0
  162.0760  206.9690  152.0880 C   0  0  2  0  0  3  0  0  0  0  0  0
  161.4280  206.4210  148.9700 C   0  0  0  0  0  2  0  0  0  0  0  0
  159.9390  210.0720  152.2380 O   0  0  0  0  0  0  0  0  0  0  0  0
  157.8890  210.9820  154.4440 O   0  0  0  0  0  0  0  0  0  0  0  0
  161.0220  207.9920  151.6190 C   0  0  1  0  0  3  0  0  0  0  0  0
  162.3300  204.6190  152.2550 C   0  0  0  0  0  2  0  0  0  0  0  0
  159.2580  210.6420  154.4470 C   0  0  2  0  0  0  0  0  0  0  0  0
  158.8360  213.1200  155.0500 C   0  0  2  0  0  3  0  0  0  0  0  0
  161.1850  205.4940  150.1570 C   0  0  2  0  0  3  0  0  0  0  0  0
  160.6530  208.5760  154.0920 C   0  0  2  0  0  3  0  0  0  0  0  0
  159.3700  212.3980  152.6220 C   0  0  2  0  0  3  0  0  0  0  0  0
  160.9010  209.1170  152.6490 C   0  0  2  0  0  3  0  0  0  0  0  0
  159.4380  207.2970  156.4230 C   0  0  0  0  0  2  0  0  0  0  0  0
  160.7500  207.7690  149.1570 C   0  0  0  0  0  2  0  0  0  0  0  0
  159.4260  208.8180  156.2510 C   0  0  0  0  0  2  0  0  0  0  0  0
  161.4070  208.5730  150.2660 C   0  0  0  0  0  2  0  0  0  0  0  0
  162.2770  205.7320  151.2220 C   0  0  1  0  0  3  0  0  0  0  0  0
  160.6280  206.6660  155.6930 C   0  0  0  0  0  2  0  0  0  0  0  0
  161.8150  206.4080  153.4910 C   0  0  1  0  0  3  0  0  0  0  0  0
  161.2110  204.0810  149.6550 C   0  0  0  0  0  3  0  0  0  0  0  0
  160.1060  203.3310  149.6620 C   0  0  0  0  0  3  0  0  0  0  0  0
  161.8230  200.3650  148.6530 C   0  0  0  0  0  2  0  0  0  0  0  0
  160.3130  201.8400  147.6620 C   0  0  0  0  0  2  0  0  0  0  0  0
  160.0960  201.9140  149.1680 C   0  0  0  0  0  3  0  0  0  0  0  0
  161.3340  200.7730  147.4920 C   0  0  0  0  0  2  0  0  0  0  0  0
  161.2110  201.0890  149.7990 C   0  0  0  0  0  2  0  0  0  0  0  0
  1 26  1  1  0  0  0
  2 27  1  0  0  0  0
  3  7  1  1  0  0  0
  3 16  1  0  0  0  0
  4 23  1  1  0  0  0
  5 11  1  6  0  0  0
  5 15  1  0  0  0  0
  6 19  1  0  0  0  0
  7 16  1  0  0  0  0
  8 12  1  6  0  0  0
  9 27  1  0  0  0  0
 10 22  1  0  0  0  0
 10 17  1  0  0  0  0
 11 20  1  0  0  0  0
 12 15  1  0  0  0  0
 13  9  1  0  0  0  0
 13 20  1  0  0  0  0
 14  2  1  0  0  0  0
 15  4  1  0  0  0  0
 15  8  1  0  0  0  0
 16  8  1  0  0  0  0
 17 25  1  0  0  0  0
 18  1  1  0  0  0  0
 18  4  1  0  0  0  0
 19  5  1  0  0  0  0
 19  3  1  0  0  0  0
 20 18  1  0  0  0  0
 22 24  1  0  0  0  0
 23 21  1  0  0  0  0
 24 13  1  0  0  0  0
 25  9  1  0  0  0  0
 25 14  1  0  0  0  0
 26 21  1  0  0  0  0
 27  1  1  0  0  0  0
 28 29  2  0  0  0  0
 28 17  1  0  0  0  0
 30 34  1  0  0  0  0
 31 32  1  0  0  0  0
 32 29  1  0  0  0  0
 32 34  1  0  0  0  0
 33 31  1  0  0  0  0
 33 30  1  0  0  0  0
M  END
>  <MODEL>
3

>  <REMARK>
 VINA RESULT:      -7.2      2.292      9.295
  Name = 
  2 active torsions:
  status: ('A' for Active; 'I' for Inactive)
    1  A    between atoms: C_17  and  C_28
    2  A    between atoms: C_29  and  C_32
                            x       y       z     vdW  Elec       q    Type
                         _______ _______ _______ _____ _____    ______ ____

>  <TORSDO>
F 2

$$$$
=
 OpenBabel11122414403D

 34 42  0  0  1  0  0  0  0  0999 V2000
  160.6890  207.3870  154.0100 C   0  0  2  0  0  3  0  0  0  0  0  0
  161.8370  205.5040  153.0620 O   0  0  0  0  0  0  0  0  0  0  0  0
  158.9460  213.8020  153.9910 C   0  0  2  0  0  3  0  0  0  0  0  0
  159.3160  209.3600  154.6890 C   0  0  1  0  0  3  0  0  0  0  0  0
  159.8500  211.4910  153.3300 C   0  0  2  0  0  3  0  0  0  0  0  0
  160.0500  213.4410  151.7880 C   0  0  0  0  0  1  0  0  0  0  0  0
  159.8440  213.6320  155.0670 O   0  0  0  0  0  0  0  0  0  0  0  0
  158.4330  211.7150  155.5250 C   0  0  1  0  0  3  0  0  0  0  0  0
  162.2420  207.5900  151.9700 C   0  0  2  0  0  3  0  0  0  0  0  0
  161.7770  207.3080  148.7840 C   0  0  0  0  0  2  0  0  0  0  0  0
  159.9220  210.5430  152.2930 O   0  0  0  0  0  0  0  0  0  0  0  0
  157.7180  211.1260  154.4610 O   0  0  0  0  0  0  0  0  0  0  0  0
  161.1540  208.5950  151.5420 C   0  0  1  0  0  3  0  0  0  0  0  0
  162.6260  205.2520  151.9310 C   0  0  0  0  0  2  0  0  0  0  0  0
  159.1030  210.8630  154.5060 C   0  0  2  0  0  0  0  0  0  0  0  0
  158.5080  213.2450  155.3120 C   0  0  2  0  0  3  0  0  0  0  0  0
  161.5330  206.2590  149.8660 C   0  0  2  0  0  3  0  0  0  0  0  0
  160.6330  208.9180  154.0350 C   0  0  2  0  0  3  0  0  0  0  0  0
  159.1980  212.7890  152.8600 C   0  0  2  0  0  3  0  0  0  0  0  0
  160.9170  209.6080  152.6640 C   0  0  2  0  0  3  0  0  0  0  0  0
  159.3860  207.3580  156.1700 C   0  0  0  0  0  2  0  0  0  0  0  0
  161.0130  208.5930  149.0590 C   0  0  0  0  0  2  0  0  0  0  0  0
  159.2920  208.8860  156.1390 C   0  0  0  0  0  2  0  0  0  0  0  0
  161.5680  209.3220  150.2710 C   0  0  0  0  0  2  0  0  0  0  0  0
  162.5570  206.4540  151.0050 C   0  0  1  0  0  3  0  0  0  0  0  0
  160.6440  206.8650  155.4490 C   0  0  0  0  0  2  0  0  0  0  0  0
  161.9480  206.8830  153.2990 C   0  0  1  0  0  3  0  0  0  0  0  0
  161.6660  204.9050  149.2370 C   0  0  0  0  0  3  0  0  0  0  0  0
  161.8180  204.7740  147.9160 C   0  0  0  0  0  3  0  0  0  0  0  0
  160.6060  202.2520  145.6950 C   0  0  0  0  0  2  0  0  0  0  0  0
  161.1310  202.3670  147.9650 C   0  0  0  0  0  2  0  0  0  0  0  0
  161.9540  203.4340  147.2540 C   0  0  0  0  0  3  0  0  0  0  0  0
  160.4280  201.6550  146.8650 C   0  0  0  0  0  2  0  0  0  0  0  0
  161.4590  203.4640  145.8140 C   0  0  0  0  0  2  0  0  0  0  0  0
  1 18  1  0  0  0  0
  1 26  1  1  0  0  0
  2 27  1  0  0  0  0
  3  7  1  1  0  0  0
  3 16  1  0  0  0  0
  4 23  1  1  0  0  0
  5 11  1  6  0  0  0
  5 15  1  0  0  0  0
  6 19  1  0  0  0  0
  7 16  1  0  0  0  0
  8 12  1  6  0  0  0
  9 27  1  0  0  0  0
 10 22  1  0  0  0  0
 10 17  1  0  0  0  0
 11 20  1  0  0  0  0
 12 15  1  0  0  0  0
 13  9  1  0  0  0  0
 13 20  1  0  0  0  0
 14  2  1  0  0  0  0
 15  4  1  0  0  0  0
 15  8  1  0  0  0  0
 16  8  1  0  0  0  0
 17 25  1  0  0  0  0
 18  4  1  0  0  0  0
 19  5  1  0  0  0  0
 19  3  1  0  0  0  0
 20 18  1  0  0  0  0
 22 24  1  0  0  0  0
 23 21  1  0  0  0  0
 24 13  1  0  0  0  0
 25 14  1  0  0  0  0
 25  9  1  0  0  0  0
 26 21  1  0  0  0  0
 27  1  1  0  0  0  0
 28 17  1  0  0  0  0
 29 28  2  0  0  0  0
 30 34  1  0  0  0  0
 30 33  1  0  0  0  0
 32 29  1  0  0  0  0
 32 31  1  0  0  0  0
 33 31  1  0  0  0  0
 34 32  1  0  0  0  0
M  END
>  <MODEL>
4

>  <REMARK>
 VINA RESULT:      -6.9      2.368      9.293
  Name = 
  2 active torsions:
  status: ('A' for Active; 'I' for Inactive)
    1  A    between atoms: C_17  and  C_28
    2  A    between atoms: C_29  and  C_32
                            x       y       z     vdW  Elec       q    Type
                         _______ _______ _______ _____ _____    ______ ____

>  <TORSDO>
F 2

$$$$
=
 OpenBabel11122414403D

 34 42  0  0  1  0  0  0  0  0999 V2000
  161.6060  208.2790  149.9610 C   0  0  2  0  0  3  0  0  0  0  0  0
  161.3060  206.8900  148.0280 O   0  0  0  0  0  0  0  0  0  0  0  0
  160.8700  209.5270  156.4490 C   0  0  2  0  0  3  0  0  0  0  0  0
  162.1040  209.4510  152.1100 C   0  0  1  0  0  3  0  0  0  0  0  0
  160.9300  208.3860  154.1500 C   0  0  2  0  0  3  0  0  0  0  0  0
  160.1470  207.1590  156.1760 C   0  0  0  0  0  1  0  0  0  0  0  0
  160.0180  210.4220  155.7680 O   0  0  0  0  0  0  0  0  0  0  0  0
  161.9950  210.7680  154.4080 C   0  0  1  0  0  3  0  0  0  0  0  0
  160.2480  206.0950  150.0160 C   0  0  2  0  0  3  0  0  0  0  0  0
  161.0270  203.0050  150.5550 C   0  0  0  0  0  2  0  0  0  0  0  0
  161.2910  207.2120  153.4630 O   0  0  0  0  0  0  0  0  0  0  0  0
  162.9550  209.7380  154.3280 O   0  0  0  0  0  0  0  0  0  0  0  0
  160.9220  205.9930  151.4000 C   0  0  1  0  0  3  0  0  0  0  0  0
  160.7540  205.6320  147.7480 C   0  0  0  0  0  2  0  0  0  0  0  0
  161.7640  209.5410  153.5980 C   0  0  2  0  0  0  0  0  0  0  0  0
  161.3800  210.7920  155.8270 C   0  0  2  0  0  3  0  0  0  0  0  0
  161.5550  203.9310  149.4620 C   0  0  2  0  0  3  0  0  0  0  0  0
  161.0950  208.5550  151.3800 C   0  0  2  0  0  3  0  0  0  0  0  0
  161.0950  208.2250  155.6590 C   0  0  2  0  0  3  0  0  0  0  0  0
  160.6830  207.2830  152.1870 C   0  0  2  0  0  3  0  0  0  0  0  0
  162.6600  210.5720  149.9550 C   0  0  0  0  0  2  0  0  0  0  0  0
  161.2430  203.5870  151.9430 C   0  0  0  0  0  2  0  0  0  0  0  0
  162.1890  210.7970  151.3950 C   0  0  0  0  0  2  0  0  0  0  0  0
  160.3680  204.8070  152.1760 C   0  0  0  0  0  2  0  0  0  0  0  0
  160.4470  204.9280  149.0590 C   0  0  1  0  0  3  0  0  0  0  0  0
  161.7300  209.6090  149.2120 C   0  0  0  0  0  2  0  0  0  0  0  0
  160.6780  207.3240  149.2060 C   0  0  1  0  0  3  0  0  0  0  0  0
  161.9770  203.0830  148.3000 C   0  0  0  0  0  3  0  0  0  0  0  0
  161.0920  202.3220  147.6490 C   0  0  0  0  0  3  0  0  0  0  0  0
  160.2340  200.1000  144.9870 C   0  0  0  0  0  3  0  0  0  0  0  0
  161.5970  199.9950  146.8760 C   0  0  0  0  0  2  0  0  0  0  0  0
  161.4800  201.4620  146.4830 C   0  0  1  0  0  3  0  0  0  0  0  0
  160.8610  199.2700  145.8070 C   0  0  0  0  0  3  0  0  0  0  0  0
  160.4430  201.5220  145.3680 C   0  0  0  0  0  2  0  0  0  0  0  0
  1 26  1  6  0  0  0
  1 18  1  0  0  0  0
  2 27  1  0  0  0  0
  3  7  1  6  0  0  0
  4 23  1  6  0  0  0
  4 15  1  0  0  0  0
  5 11  1  6  0  0  0
  5 19  1  0  0  0  0
  7 16  1  0  0  0  0
  8 12  1  1  0  0  0
  8 16  1  0  0  0  0
  9 13  1  0  0  0  0
 10 22  1  0  0  0  0
 13 24  1  0  0  0  0
 13 20  1  0  0  0  0
 14  2  1  0  0  0  0
 14 25  1  0  0  0  0
 15  5  1  0  0  0  0
 15 12  1  0  0  0  0
 15  8  1  0  0  0  0
 16  3  1  0  0  0  0
 17 10  1  0  0  0  0
 18  4  1  0  0  0  0
 18 20  1  0  0  0  0
 19  6  1  0  0  0  0
 19  3  1  0  0  0  0
 20 11  1  0  0  0  0
 21 23  1  0  0  0  0
 22 24  1  0  0  0  0
 25 17  1  0  0  0  0
 25  9  1  0  0  0  0
 26 21  1  0  0  0  0
 27  1  1  0  0  0  0
 27  9  1  0  0  0  0
 28 17  1  0  0  0  0
 29 28  2  0  0  0  0
 30 34  1  0  0  0  0
 30 33  2  0  0  0  0
 32 31  1  0  0  0  0
 32 29  1  0  0  0  0
 33 31  1  0  0  0  0
 34 32  1  0  0  0  0
M  END
>  <MODEL>
5

>  <REMARK>
 VINA RESULT:      -6.5      2.707      8.637
  Name = 
  2 active torsions:
  status: ('A' for Active; 'I' for Inactive)
    1  A    between atoms: C_17  and  C_28
    2  A    between atoms: C_29  and  C_32
                            x       y       z     vdW  Elec       q    Type
                         _______ _______ _______ _____ _____    ______ ____

>  <TORSDO>
F 2

$$$$
=
 OpenBabel11122414403D

 34 42  0  0  1  0  0  0  0  0999 V2000
  161.6400  209.0420  150.7430 C   0  0  2  0  0  3  0  0  0  0  0  0
  161.9730  210.2220  148.6800 O   0  0  0  0  0  0  0  0  0  0  0  0
  160.3010  208.8890  157.2530 C   0  0  2  0  0  3  0  0  0  0  0  0
  160.9650  207.9560  152.8900 C   0  0  1  0  0  3  0  0  0  0  0  0
  160.6060  209.6380  154.8170 C   0  0  2  0  0  3  0  0  0  0  0  0
  159.8660  211.2460  156.5750 C   0  0  0  0  0  1  0  0  0  0  0  0
  161.6610  208.5400  157.1140 O   0  0  0  0  0  0  0  0  0  0  0  0
  160.7820  207.0850  155.3860 C   0  0  1  0  0  3  0  0  0  0  0  0
  161.6680  211.6100  150.6000 C   0  0  2  0  0  3  0  0  0  0  0  0
  159.3890  213.8320  150.0400 C   0  0  0  0  0  2  0  0  0  0  0  0
  160.0330  210.3780  153.7660 O   0  0  0  0  0  0  0  0  0  0  0  0
  159.5670  207.4300  154.7590 O   0  0  0  0  0  0  0  0  0  0  0  0
  160.5510  211.4420  151.6490 C   0  0  1  0  0  3  0  0  0  0  0  0
  161.9270  211.5530  148.2450 C   0  0  0  0  0  2  0  0  0  0  0  0
  160.7020  208.1770  154.3790 C   0  0  2  0  0  0  0  0  0  0  0  0
  160.7320  207.5040  156.8740 C   0  0  2  0  0  3  0  0  0  0  0  0
  159.8280  212.6870  149.1320 C   0  0  2  0  0  3  0  0  0  0  0  0
  161.6260  209.1940  152.2690 C   0  0  2  0  0  3  0  0  0  0  0  0
  159.8160  209.8020  156.1120 C   0  0  2  0  0  3  0  0  0  0  0  0
  161.0430  210.5460  152.7880 C   0  0  2  0  0  3  0  0  0  0  0  0
  161.8840  206.5490  151.0500 C   0  0  0  0  0  2  0  0  0  0  0  0
  158.9550  213.3340  151.4090 C   0  0  0  0  0  2  0  0  0  0  0  0
  161.8070  206.7240  152.5690 C   0  0  0  0  0  2  0  0  0  0  0  0
  160.1320  212.7960  152.2040 C   0  0  0  0  0  2  0  0  0  0  0  0
  161.3320  212.4110  149.3490 C   0  0  1  0  0  3  0  0  0  0  0  0
  162.4570  207.8000  150.3760 C   0  0  0  0  0  2  0  0  0  0  0  0
  162.2190  210.2840  150.0610 C   0  0  1  0  0  3  0  0  0  0  0  0
  159.5450  213.0830  147.7140 C   0  0  0  0  0  3  0  0  0  0  0  0
  158.4780  212.6030  147.0680 C   0  0  0  0  0  3  0  0  0  0  0  0
  159.5060  213.2270  143.7040 C   0  0  0  0  0  2  0  0  0  0  0  0
  158.4440  214.4520  145.3800 C   0  0  0  0  0  2  0  0  0  0  0  0
  158.1650  212.9790  145.6500 C   0  0  0  0  0  3  0  0  0  0  0  0
  159.1940  214.4530  144.0970 C   0  0  0  0  0  2  0  0  0  0  0  0
  159.0170  212.1960  144.6580 C   0  0  0  0  0  2  0  0  0  0  0  0
  1 26  1  1  0  0  0
  1 18  1  0  0  0  0
  2 27  1  0  0  0  0
  3  7  1  6  0  0  0
  4 23  1  1  0  0  0
  4 15  1  0  0  0  0
  5 11  1  6  0  0  0
  5 19  1  0  0  0  0
  8 12  1  6  0  0  0
  8 16  1  0  0  0  0
  9 13  1  0  0  0  0
 10 22  1  0  0  0  0
 13 24  1  0  0  0  0
 13 20  1  0  0  0  0
 14  2  1  0  0  0  0
 14 25  1  0  0  0  0
 15 12  1  0  0  0  0
 15  5  1  0  0  0  0
 15  8  1  0  0  0  0
 16  7  1  0  0  0  0
 16  3  1  0  0  0  0
 17 25  1  0  0  0  0
 17 10  1  0  0  0  0
 18 20  1  0  0  0  0
 18  4  1  0  0  0  0
 19  6  1  0  0  0  0
 19  3  1  0  0  0  0
 20 11  1  0  0  0  0
 21 23  1  0  0  0  0
 22 24  1  0  0  0  0
 25  9  1  0  0  0  0
 26 21  1  0  0  0  0
 27  9  1  0  0  0  0
 27  1  1  0  0  0  0
 28 17  1  0  0  0  0
 29 28  2  0  0  0  0
 30 33  1  0  0  0  0
 30 34  1  0  0  0  0
 31 32  1  0  0  0  0
 32 29  1  0  0  0  0
 33 31  1  0  0  0  0
 34 32  1  0  0  0  0
M  END
>  <MODEL>
6

>  <REMARK>
 VINA RESULT:      -6.3      3.854      7.181
  Name = 
  2 active torsions:
  status: ('A' for Active; 'I' for Inactive)
    1  A    between atoms: C_17  and  C_28
    2  A    between atoms: C_29  and  C_32
                            x       y       z     vdW  Elec       q    Type
                         _______ _______ _______ _____ _____    ______ ____

>  <TORSDO>
F 2

$$$$
=
 OpenBabel11122414403D

 34 42  0  0  1  0  0  0  0  0999 V2000
  161.1830  210.2360  151.0580 C   0  0  2  0  0  3  0  0  0  0  0  0
  161.9780  210.5460  148.8150 O   0  0  0  0  0  0  0  0  0  0  0  0
  158.5840  212.5470  156.7230 C   0  0  2  0  0  3  0  0  0  0  0  0
  160.0430  210.0350  153.2720 C   0  0  1  0  0  3  0  0  0  0  0  0
  159.4020  212.3160  154.3010 C   0  0  2  0  0  3  0  0  0  0  0  0
  158.4180  214.4530  155.1290 C   0  0  0  0  0  1  0  0  0  0  0  0
  159.9250  212.2080  157.0050 O   0  0  0  0  0  0  0  0  0  0  0  0
  159.3260  210.1800  155.8190 C   0  0  1  0  0  3  0  0  0  0  0  0
  161.3760  212.5540  149.9600 C   0  0  2  0  0  3  0  0  0  0  0  0
  159.3730  214.3310  148.1500 C   0  0  0  0  0  2  0  0  0  0  0  0
  159.0870  212.5830  152.9550 O   0  0  0  0  0  0  0  0  0  0  0  0
  158.2790  210.2260  154.8770 O   0  0  0  0  0  0  0  0  0  0  0  0
  160.0670  212.7700  150.7450 C   0  0  1  0  0  3  0  0  0  0  0  0
  162.0890  211.6080  147.9070 C   0  0  0  0  0  2  0  0  0  0  0  0
  159.5040  210.8020  154.4790 C   0  0  2  0  0  0  0  0  0  0  0  0
  159.0080  211.1350  156.9930 C   0  0  2  0  0  3  0  0  0  0  0  0
  159.9210  212.9380  147.8540 C   0  0  2  0  0  3  0  0  0  0  0  0
  160.8780  210.9590  152.3750 C   0  0  2  0  0  3  0  0  0  0  0  0
  158.3830  212.9410  155.2490 C   0  0  2  0  0  3  0  0  0  0  0  0
  160.2770  212.3900  152.2120 C   0  0  2  0  0  3  0  0  0  0  0  0
  161.2290  208.0570  152.3300 C   0  0  0  0  0  2  0  0  0  0  0  0
  158.6520  214.3840  149.4880 C   0  0  0  0  0  2  0  0  0  0  0  0
  160.8650  208.7970  153.6190 C   0  0  0  0  0  2  0  0  0  0  0  0
  159.6200  214.2210  150.6480 C   0  0  0  0  0  2  0  0  0  0  0  0
  161.3360  212.8060  148.4580 C   0  0  1  0  0  3  0  0  0  0  0  0
  161.9890  208.9700  151.3630 C   0  0  0  0  0  2  0  0  0  0  0  0
  161.9500  211.1380  150.0870 C   0  0  1  0  0  3  0  0  0  0  0  0
  159.9430  212.7550  146.3660 C   0  0  0  0  0  3  0  0  0  0  0  0
  160.3140  213.7520  145.5580 C   0  0  0  0  0  3  0  0  0  0  0  0
  160.3960  211.7140  142.6250 C   0  0  0  0  0  3  0  0  0  0  0  0
  161.7610  213.3630  143.5520 C   0  0  0  0  0  2  0  0  0  0  0  0
  160.3470  213.6040  144.0660 C   0  0  1  0  0  3  0  0  0  0  0  0
  161.6160  212.2300  142.6000 C   0  0  0  0  0  3  0  0  0  0  0  0
  159.5160  212.4140  143.5990 C   0  0  0  0  0  2  0  0  0  0  0  0
  1 26  1  1  0  0  0
  1 18  1  0  0  0  0
  2 27  1  0  0  0  0
  3 16  1  0  0  0  0
  3  7  1  6  0  0  0
  4 23  1  1  0  0  0
  4 15  1  0  0  0  0
  5 11  1  6  0  0  0
  5 15  1  0  0  0  0
  5 19  1  0  0  0  0
  6 19  1  0  0  0  0
  8 12  1  6  0  0  0
  8 16  1  0  0  0  0
  9 27  1  0  0  0  0
  9 13  1  0  0  0  0
 10 22  1  0  0  0  0
 13 20  1  0  0  0  0
 14 25  1  0  0  0  0
 14  2  1  0  0  0  0
 15 12  1  0  0  0  0
 15  8  1  0  0  0  0
 16  7  1  0  0  0  0
 17 10  1  0  0  0  0
 17 25  1  0  0  0  0
 18  4  1  0  0  0  0
 19  3  1  0  0  0  0
 20 18  1  0  0  0  0
 20 11  1  0  0  0  0
 21 23  1  0  0  0  0
 22 24  1  0  0  0  0
 24 13  1  0  0  0  0
 25  9  1  0  0  0  0
 26 21  1  0  0  0  0
 27  1  1  0  0  0  0
 28 17  1  0  0  0  0
 29 28  2  0  0  0  0
 30 34  1  0  0  0  0
 31 32  1  0  0  0  0
 32 29  1  0  0  0  0
 33 30  2  0  0  0  0
 33 31  1  0  0  0  0
 34 32  1  0  0  0  0
M  END
>  <MODEL>
7

>  <REMARK>
 VINA RESULT:      -5.8      4.683      8.963
  Name = 
  2 active torsions:
  status: ('A' for Active; 'I' for Inactive)
    1  A    between atoms: C_17  and  C_28
    2  A    between atoms: C_29  and  C_32
                            x       y       z     vdW  Elec       q    Type
                         _______ _______ _______ _____ _____    ______ ____

>  <TORSDO>
F 2

$$$$
=
 OpenBabel11122414403D

 34 42  0  0  1  0  0  0  0  0999 V2000
  161.1510  204.5600  151.3500 C   0  0  2  0  0  3  0  0  0  0  0  0
  161.0140  206.1280  153.1610 O   0  0  0  0  0  0  0  0  0  0  0  0
  160.8450  203.0350  144.8860 C   0  0  2  0  0  3  0  0  0  0  0  0
  161.5570  203.1330  149.3400 C   0  0  1  0  0  3  0  0  0  0  0  0
  160.9470  204.3000  147.1180 C   0  0  2  0  0  3  0  0  0  0  0  0
  160.7510  205.5230  144.9530 C   0  0  0  0  0  1  0  0  0  0  0  0
  159.7140  202.4460  145.4920 O   0  0  0  0  0  0  0  0  0  0  0  0
  161.3620  201.7110  147.1110 C   0  0  1  0  0  3  0  0  0  0  0  0
  160.4370  207.0090  151.0170 C   0  0  2  0  0  3  0  0  0  0  0  0
  162.0640  209.7410  150.4400 C   0  0  0  0  0  2  0  0  0  0  0  0
  161.5270  205.3920  147.7900 O   0  0  0  0  0  0  0  0  0  0  0  0
  162.5450  202.4610  147.2670 O   0  0  0  0  0  0  0  0  0  0  0  0
  161.2640  206.8240  149.7290 C   0  0  1  0  0  3  0  0  0  0  0  0
  160.7890  207.5040  153.3070 C   0  0  0  0  0  2  0  0  0  0  0  0
  161.3750  203.0160  147.8270 C   0  0  2  0  0  0  0  0  0  0  0  0
  160.9260  201.7340  145.6280 C   0  0  2  0  0  3  0  0  0  0  0  0
  162.2000  208.8000  151.6340 C   0  0  2  0  0  3  0  0  0  0  0  0
  160.7470  204.3140  149.8910 C   0  0  2  0  0  3  0  0  0  0  0  0
  161.3170  204.2930  145.6370 C   0  0  2  0  0  3  0  0  0  0  0  0
  160.7820  205.5810  148.9790 C   0  0  2  0  0  3  0  0  0  0  0  0
  161.5500  202.0810  151.5990 C   0  0  0  0  0  2  0  0  0  0  0  0
  162.2720  209.0150  149.1200 C   0  0  0  0  0  2  0  0  0  0  0  0
  161.2010  201.8720  150.1230 C   0  0  0  0  0  2  0  0  0  0  0  0
  161.1370  208.0470  148.8330 C   0  0  0  0  0  2  0  0  0  0  0  0
  160.8300  208.1570  151.9370 C   0  0  1  0  0  3  0  0  0  0  0  0
  160.8310  203.3070  152.1700 C   0  0  0  0  0  2  0  0  0  0  0  0
  160.4310  205.7790  151.9330 C   0  0  1  0  0  3  0  0  0  0  0  0
  162.6990  209.5990  152.8000 C   0  0  0  0  0  3  0  0  0  0  0  0
  161.8540  210.0570  153.7290 C   0  0  0  0  0  3  0  0  0  0  0  0
  162.0620  210.5920  157.2550 C   0  0  0  0  0  2  0  0  0  0  0  0
  161.2240  211.7810  155.4320 C   0  0  0  0  0  2  0  0  0  0  0  0
  162.3190  210.8600  154.9080 C   0  0  0  0  0  3  0  0  0  0  0  0
  161.2500  211.5780  156.9040 C   0  0  0  0  0  2  0  0  0  0  0  0
  162.7190  209.9660  156.0760 C   0  0  0  0  0  2  0  0  0  0  0  0
  1 27  1  0  0  0  0
  1 26  1  1  0  0  0
  2 14  1  0  0  0  0
  3  7  1  1  0  0  0
  3 16  1  0  0  0  0
  3 19  1  0  0  0  0
  4 18  1  0  0  0  0
  4 23  1  1  0  0  0
  5 11  1  1  0  0  0
  5 15  1  0  0  0  0
  6 19  1  0  0  0  0
  7 16  1  0  0  0  0
  8 12  1  6  0  0  0
  8 15  1  0  0  0  0
  9 27  1  0  0  0  0
  9 25  1  0  0  0  0
 10 17  1  0  0  0  0
 11 20  1  0  0  0  0
 12 15  1  0  0  0  0
 13  9  1  0  0  0  0
 15  4  1  0  0  0  0
 16  8  1  0  0  0  0
 17 25  1  0  0  0  0
 17 28  1  0  0  0  0
 18  1  1  0  0  0  0
 19  5  1  0  0  0  0
 20 13  1  0  0  0  0
 20 18  1  0  0  0  0
 21 26  1  0  0  0  0
 22 10  1  0  0  0  0
 23 21  1  0  0  0  0
 24 22  1  0  0  0  0
 24 13  1  0  0  0  0
 25 14  1  0  0  0  0
 27  2  1  0  0  0  0
 28 29  2  0  0  0  0
 29 32  1  0  0  0  0
 31 33  1  0  0  0  0
 32 31  1  0  0  0  0
 32 34  1  0  0  0  0
 33 30  1  0  0  0  0
 34 30  1  0  0  0  0
M  END
>  <MODEL>
8

>  <REMARK>
 VINA RESULT:      -5.5      2.254      4.300
  Name = 
  2 active torsions:
  status: ('A' for Active; 'I' for Inactive)
    1  A    between atoms: C_17  and  C_28
    2  A    between atoms: C_29  and  C_32
                            x       y       z     vdW  Elec       q    Type
                         _______ _______ _______ _____ _____    ______ ____

>  <TORSDO>
F 2

$$$$
