=
 OpenBabel11122413023D

 32 37  0  0  1  0  0  0  0  0999 V2000
  161.6000  201.5230  149.3180 C   0  0  0  0  0  2  0  0  0  0  0  0
  161.0920  206.2360  151.4760 C   0  0  0  0  0  0  0  0  0  0  0  0
  162.1550  210.0700  148.5150 C   0  0  0  0  0  3  0  0  0  0  0  0
  161.9750  210.9500  149.5820 C   0  0  0  0  0  3  0  0  0  0  0  0
  160.9650  206.6300  153.9380 C   0  0  0  0  0  0  0  0  0  0  0  0
  161.0260  207.5790  155.0470 C   0  0  0  0  0  0  0  0  0  0  0  0
  160.3200  204.1620  150.3130 C   0  0  1  0  0  3  0  0  0  0  0  0
  161.5100  205.8750  148.9710 C   0  0  0  0  0  2  0  0  0  0  0  0
  161.3580  209.6840  156.0040 C   0  0  2  0  0  3  0  0  0  0  0  0
  161.3310  203.5520  148.0240 C   0  0  0  0  0  2  0  0  0  0  0  0
  162.0930  208.6930  148.7320 C   0  0  0  0  0  3  0  0  0  0  0  0
  161.8640  206.6750  150.2360 C   0  0  1  0  0  3  0  0  0  0  0  0
  161.8310  208.1730  150.0110 C   0  0  0  0  0  0  0  0  0  0  0  0
  161.4350  208.5650  152.4640 C   0  0  0  0  0  0  0  0  0  0  0  0
  161.1400  208.6160  157.0910 C   0  0  0  0  0  2  0  0  0  0  0  0
  161.2780  202.0820  150.7130 C   0  0  0  0  0  2  0  0  0  0  0  0
  161.4590  204.3960  149.2990 C   0  0  2  0  0  3  0  0  0  0  0  0
  160.9750  207.3210  156.3380 C   0  0  0  0  0  3  0  0  0  0  0  0
  160.0730  202.8160  150.6970 O   0  0  0  0  0  0  0  0  0  0  0  0
  160.8210  202.1990  148.2740 N   0  0  0  0  0  0  0  0  0  0  0  0
  161.7410  210.4510  150.8640 C   0  0  0  0  0  3  0  0  0  0  0  0
  161.6740  209.0680  151.0940 C   0  0  0  0  0  0  0  0  0  0  0  0
  161.4640  209.3960  153.4730 N   0  0  0  0  0  0  0  0  0  0  0  0
  160.4490  205.0560  151.5110 C   0  0  0  0  0  3  0  0  0  0  0  0
  160.7620  205.3110  154.1960 F   0  0  0  0  0  0  0  0  0  0  0  0
  160.2660  210.7330  156.0940 C   0  0  0  0  0  1  0  0  0  0  0  0
  161.1510  207.1050  152.6810 C   0  0  0  0  0  0  0  0  0  0  0  0
  161.2210  208.9360  154.7750 N   0  0  0  0  0  0  0  0  0  0  0  0
  161.0110  201.4480  147.0440 C   0  0  0  0  0  2  0  0  0  0  0  0
  160.3900  202.1930  145.8740 C   0  0  2  0  0  3  0  0  0  0  0  0
  159.8530  201.1940  144.8720 C   0  0  0  0  0  1  0  0  0  0  0  0
  161.3530  202.9930  145.2580 O   0  0  0  0  0  1  0  0  0  0  0  0
  1 16  1  0  0  0  0
  2 24  2  0  0  0  0
  2 27  1  0  0  0  0
  3 11  2  0  0  0  0
  3  4  1  0  0  0  0
  4 21  2  0  0  0  0
  5 25  1  0  0  0  0
  5  6  1  0  0  0  0
  6 18  2  0  0  0  0
  7 19  1  0  0  0  0
  7 24  1  1  0  0  0
  8 17  1  0  0  0  0
  9 26  1  6  0  0  0
  9 15  1  0  0  0  0
 10 20  1  0  0  0  0
 11 13  1  0  0  0  0
 12  8  1  6  0  0  0
 12  2  1  0  0  0  0
 13 12  1  0  0  0  0
 13 22  2  0  0  0  0
 14 27  1  0  0  0  0
 14 23  2  0  0  0  0
 17 10  1  6  0  0  0
 17  7  1  0  0  0  0
 18 15  1  0  0  0  0
 19 16  1  0  0  0  0
 20  1  1  0  0  0  0
 21 22  1  0  0  0  0
 22 14  1  0  0  0  0
 23 28  1  0  0  0  0
 27  5  2  0  0  0  0
 28  6  1  0  0  0  0
 28  9  1  0  0  0  0
 29 20  1  0  0  0  0
 30 31  1  6  0  0  0
 30 29  1  0  0  0  0
 32 30  1  0  0  0  0
M  END
>  <MODEL>
1

>  <REMARK>
 VINA RESULT:     -10.0      0.000      0.000
  Name = 
  2 active torsions:
  status: ('A' for Active; 'I' for Inactive)
    1  A    between atoms: N_20  and  C_29
    2  A    between atoms: C_29  and  C_30
                            x       y       z     vdW  Elec       q    Type
                         _______ _______ _______ _____ _____    ______ ____

>  <TORSDO>
F 2

$$$$
=
 OpenBabel11122413023D

 32 37  0  0  1  0  0  0  0  0999 V2000
  162.3020  210.0290  153.5460 C   0  0  0  0  0  2  0  0  0  0  0  0
  161.1230  206.2700  150.1390 C   0  0  0  0  0  0  0  0  0  0  0  0
  161.0970  201.6590  151.9650 C   0  0  0  0  0  3  0  0  0  0  0  0
  160.8650  201.1490  150.6890 C   0  0  0  0  0  3  0  0  0  0  0  0
  161.1860  206.5710  147.6620 C   0  0  0  0  0  0  0  0  0  0  0  0
  161.1810  205.9560  146.3370 C   0  0  0  0  0  0  0  0  0  0  0  0
  160.6480  208.0830  151.7930 C   0  0  1  0  0  3  0  0  0  0  0  0
  161.3320  205.8630  152.6640 C   0  0  0  0  0  2  0  0  0  0  0  0
  161.1980  204.1540  144.8500 C   0  0  2  0  0  3  0  0  0  0  0  0
  161.5060  207.8390  154.2100 C   0  0  0  0  0  2  0  0  0  0  0  0
  161.3270  203.0240  152.1380 C   0  0  0  0  0  3  0  0  0  0  0  0
  161.6570  205.3660  151.2450 C   0  0  1  0  0  3  0  0  0  0  0  0
  161.3100  203.9040  151.0430 C   0  0  0  0  0  0  0  0  0  0  0  0
  161.1110  204.2640  148.5610 C   0  0  0  0  0  0  0  0  0  0  0  0
  161.3100  205.4900  144.0930 C   0  0  0  0  0  2  0  0  0  0  0  0
  162.0280  209.9370  152.0370 C   0  0  0  0  0  2  0  0  0  0  0  0
  161.6040  207.3520  152.7580 C   0  0  2  0  0  3  0  0  0  0  0  0
  161.3190  206.5470  145.1680 C   0  0  0  0  0  3  0  0  0  0  0  0
  160.7100  209.5030  151.7870 O   0  0  0  0  0  0  0  0  0  0  0  0
  161.2990  209.2880  154.3200 N   0  0  0  0  0  0  0  0  0  0  0  0
  160.8710  202.0040  149.5860 C   0  0  0  0  0  3  0  0  0  0  0  0
  161.0990  203.3800  149.7470 C   0  0  0  0  0  0  0  0  0  0  0  0
  161.0860  203.7390  147.3630 N   0  0  0  0  0  0  0  0  0  0  0  0
  160.7280  207.5280  150.4020 C   0  0  0  0  0  3  0  0  0  0  0  0
  161.2720  207.9230  147.7720 F   0  0  0  0  0  0  0  0  0  0  0  0
  159.9400  203.4270  144.4170 C   0  0  0  0  0  1  0  0  0  0  0  0
  161.1410  205.7550  148.7450 C   0  0  0  0  0  0  0  0  0  0  0  0
  161.0780  204.5660  146.2310 N   0  0  0  0  0  0  0  0  0  0  0  0
  161.4980  209.6310  155.7190 C   0  0  0  0  0  2  0  0  0  0  0  0
  160.3990  210.5690  156.1910 C   0  0  2  0  0  3  0  0  0  0  0  0
  159.1330  210.2890  155.4100 C   0  0  0  0  0  1  0  0  0  0  0  0
  160.7860  211.8930  155.9830 O   0  0  0  0  0  1  0  0  0  0  0  0
  1 20  1  0  0  0  0
  2 24  2  0  0  0  0
  2 12  1  0  0  0  0
  3 11  1  0  0  0  0
  4  3  2  0  0  0  0
  5 25  1  0  0  0  0
  5 27  2  0  0  0  0
  6  5  1  0  0  0  0
  7 24  1  6  0  0  0
  7 17  1  0  0  0  0
  9 26  1  6  0  0  0
  9 28  1  0  0  0  0
 10 20  1  0  0  0  0
 12  8  1  1  0  0  0
 13 12  1  0  0  0  0
 13 11  2  0  0  0  0
 14 27  1  0  0  0  0
 14 22  1  0  0  0  0
 15  9  1  0  0  0  0
 15 18  1  0  0  0  0
 16  1  1  0  0  0  0
 17  8  1  1  0  0  0
 17 10  1  0  0  0  0
 18  6  2  0  0  0  0
 19  7  1  0  0  0  0
 19 16  1  0  0  0  0
 20 29  1  0  0  0  0
 21 22  2  0  0  0  0
 21  4  1  0  0  0  0
 22 13  1  0  0  0  0
 23 14  2  0  0  0  0
 27  2  1  0  0  0  0
 28  6  1  0  0  0  0
 28 23  1  0  0  0  0
 29 30  1  0  0  0  0
 30 31  1  6  0  0  0
 32 30  1  0  0  0  0
M  END
>  <MODEL>
2

>  <REMARK>
 VINA RESULT:      -9.4      3.029      8.838
  Name = 
  2 active torsions:
  status: ('A' for Active; 'I' for Inactive)
    1  A    between atoms: N_20  and  C_29
    2  A    between atoms: C_29  and  C_30
                            x       y       z     vdW  Elec       q    Type
                         _______ _______ _______ _____ _____    ______ ____

>  <TORSDO>
F 2

$$$$
