=
 OpenBabel11122414393D

 34 40  0  0  1  0  0  0  0  0999 V2000
  161.5910  208.2780  149.8760 C   0  0  0  0  0  0  0  0  0  0  0  0
  161.4020  206.8490  147.8930 O   0  0  0  0  0  0  0  0  0  0  0  0
  160.4550  209.5190  156.2670 C   0  0  2  0  0  3  0  0  0  0  0  0
  161.4820  209.6050  151.9230 C   0  0  0  0  0  0  0  0  0  0  0  0
  160.7200  208.3540  153.9810 C   0  0  2  0  0  3  0  0  0  0  0  0
  159.9480  207.0840  156.0000 C   0  0  0  0  0  1  0  0  0  0  0  0
  159.1470  210.1460  155.8040 C   0  0  0  0  0  1  0  0  0  0  0  0
  162.4840  210.7710  155.3550 C   0  0  0  0  0  3  0  0  0  0  0  0
  160.6790  205.9940  149.9200 C   0  0  2  0  0  3  0  0  0  0  0  0
  160.8100  202.8390  150.4790 C   0  0  0  0  0  2  0  0  0  0  0  0
  161.3240  207.2340  153.3730 O   0  0  0  0  0  0  0  0  0  0  0  0
  162.6540  209.9810  154.0850 C   0  0  0  0  0  2  0  0  0  0  0  0
  161.0880  205.8390  151.3860 C   0  0  1  0  0  3  0  0  0  0  0  0
  161.1560  205.4740  147.6690 C   0  0  0  0  0  2  0  0  0  0  0  0
  161.3160  209.6760  153.4220 C   0  0  1  0  0  3  0  0  0  0  0  0
  161.5620  210.5440  156.3070 C   0  0  0  0  0  3  0  0  0  0  0  0
  161.5440  203.6520  149.4160 C   0  0  2  0  0  3  0  0  0  0  0  0
  161.3450  208.3750  151.2630 C   0  0  0  0  0  0  0  0  0  0  0  0
  160.8140  208.2320  155.5110 C   0  0  2  0  0  3  0  0  0  0  0  0
  160.8170  207.1930  152.0640 C   0  0  2  0  0  3  0  0  0  0  0  0
  162.0740  210.6520  149.8130 C   0  0  0  0  0  3  0  0  0  0  0  0
  161.0090  203.4040  151.8800 C   0  0  0  0  0  2  0  0  0  0  0  0
  161.8360  210.7460  151.1900 C   0  0  0  0  0  3  0  0  0  0  0  0
  160.2950  204.7340  152.0650 C   0  0  0  0  0  2  0  0  0  0  0  0
  160.6580  204.8250  148.9690 C   0  0  1  0  0  3  0  0  0  0  0  0
  161.9750  209.4190  149.1620 C   0  0  0  0  0  3  0  0  0  0  0  0
  161.6610  206.9090  149.2620 C   0  0  2  0  0  3  0  0  0  0  0  0
  161.8350  202.7790  148.2890 N   0  0  0  0  0  2  0  0  0  0  0  0
  161.5040  201.4270  148.7040 C   0  0  0  0  0  2  0  0  0  0  0  0
  161.0390  199.6480  145.6810 C   0  0  0  0  0  2  0  0  0  0  0  0
  160.3170  201.7310  146.5540 C   0  0  0  0  0  2  0  0  0  0  0  0
  160.7280  200.7270  147.6040 C   0  0  1  0  0  3  0  0  0  0  0  0
  160.5120  200.9990  145.2610 C   0  0  0  0  0  2  0  0  0  0  0  0
  161.5280  199.7510  146.9930 O   0  0  0  0  0  0  0  0  0  0  0  0
  1 18  1  0  0  0  0
  2 27  1  0  0  0  0
  3  7  1  6  0  0  0
  3 16  1  0  0  0  0
  4 15  1  0  0  0  0
  5 11  1  6  0  0  0
  5 19  1  0  0  0  0
  8 16  2  0  0  0  0
  9 13  1  0  0  0  0
 10 22  1  0  0  0  0
 12  8  1  0  0  0  0
 13 20  1  0  0  0  0
 13 24  1  0  0  0  0
 14  2  1  0  0  0  0
 14 25  1  0  0  0  0
 15  5  1  0  0  0  0
 15 12  1  0  0  0  0
 17 10  1  0  0  0  0
 18  4  2  0  0  0  0
 18 20  1  0  0  0  0
 19  6  1  0  0  0  0
 19  3  1  0  0  0  0
 20 11  1  0  0  0  0
 21 23  2  0  0  0  0
 22 24  1  0  0  0  0
 23  4  1  0  0  0  0
 25 17  1  0  0  0  0
 25  9  1  0  0  0  0
 26 21  1  0  0  0  0
 26  1  2  0  0  0  0
 27  1  1  0  0  0  0
 27  9  1  0  0  0  0
 28 29  1  0  0  0  0
 28 17  1  0  0  0  0
 30 34  1  0  0  0  0
 31 32  1  0  0  0  0
 32 29  1  0  0  0  0
 33 30  1  0  0  0  0
 33 31  1  0  0  0  0
 34 32  1  0  0  0  0
M  END
>  <MODEL>
1

>  <REMARK>
 VINA RESULT:      -8.9      0.000      0.000
  Name = 
  3 active torsions:
  status: ('A' for Active; 'I' for Inactive)
    1  A    between atoms: C_17  and  N_28
    2  A    between atoms: N_28  and  C_29
    3  A    between atoms: C_29  and  C_32
                            x       y       z     vdW  Elec       q    Type
                         _______ _______ _______ _____ _____    ______ ____

>  <TORSDO>
F 3

$$$$
=
 OpenBabel11122414393D

 34 40  0  0  1  0  0  0  0  0999 V2000
  160.8700  204.0630  151.2510 C   0  0  0  0  0  0  0  0  0  0  0  0
  160.8570  206.0030  152.7500 O   0  0  0  0  0  0  0  0  0  0  0  0
  160.3980  201.3710  145.2350 C   0  0  2  0  0  3  0  0  0  0  0  0
  160.6510  202.2790  149.5980 C   0  0  0  0  0  0  0  0  0  0  0  0
  160.6720  203.0330  147.1870 C   0  0  2  0  0  3  0  0  0  0  0  0
  160.6850  203.8190  144.8070 C   0  0  0  0  0  1  0  0  0  0  0  0
  158.9010  201.2910  145.5030 C   0  0  0  0  0  1  0  0  0  0  0  0
  161.7350  199.9330  146.8660 C   0  0  0  0  0  3  0  0  0  0  0  0
  160.7790  206.3920  150.4690 C   0  0  2  0  0  3  0  0  0  0  0  0
  162.0260  209.0840  149.2480 C   0  0  0  0  0  2  0  0  0  0  0  0
  161.5090  204.0710  147.6480 O   0  0  0  0  0  0  0  0  0  0  0  0
  161.9550  200.9810  147.9230 C   0  0  0  0  0  2  0  0  0  0  0  0
  161.4390  205.9940  149.1470 C   0  0  1  0  0  3  0  0  0  0  0  0
  161.0450  207.3950  152.5870 C   0  0  0  0  0  2  0  0  0  0  0  0
  160.7060  201.8210  148.1610 C   0  0  1  0  0  3  0  0  0  0  0  0
  161.0980  200.1160  145.6960 C   0  0  0  0  0  3  0  0  0  0  0  0
  162.2770  208.4470  150.6130 C   0  0  2  0  0  3  0  0  0  0  0  0
  160.8250  203.6360  149.9060 C   0  0  0  0  0  0  0  0  0  0  0  0
  161.0390  202.6720  145.7380 C   0  0  2  0  0  3  0  0  0  0  0  0
  160.8470  204.6300  148.7540 C   0  0  2  0  0  3  0  0  0  0  0  0
  160.5300  201.7740  151.9700 C   0  0  0  0  0  3  0  0  0  0  0  0
  162.2440  208.1020  148.1040 C   0  0  0  0  0  2  0  0  0  0  0  0
  160.4920  201.3510  150.6360 C   0  0  0  0  0  3  0  0  0  0  0  0
  161.1690  207.0260  148.0640 C   0  0  0  0  0  2  0  0  0  0  0  0
  160.9970  207.7470  151.0920 C   0  0  1  0  0  3  0  0  0  0  0  0
  160.7420  203.1210  152.2790 C   0  0  0  0  0  3  0  0  0  0  0  0
  161.2910  205.4770  151.5340 C   0  0  2  0  0  3  0  0  0  0  0  0
  162.6600  209.4970  151.5460 N   0  0  0  0  0  2  0  0  0  0  0  0
  161.7070  210.5800  151.3790 C   0  0  0  0  0  2  0  0  0  0  0  0
  161.1720  210.4800  154.8750 C   0  0  0  0  0  2  0  0  0  0  0  0
  159.8110  210.7790  152.9560 C   0  0  0  0  0  2  0  0  0  0  0  0
  161.2710  211.0960  152.7370 C   0  0  1  0  0  3  0  0  0  0  0  0
  159.7430  210.3790  154.3990 C   0  0  0  0  0  2  0  0  0  0  0  0
  162.0140  210.4770  153.7520 O   0  0  0  0  0  0  0  0  0  0  0  0
  1 27  1  0  0  0  0
  1 26  1  0  0  0  0
  3  7  1  1  0  0  0
  3 16  1  0  0  0  0
  3 19  1  0  0  0  0
  4 18  1  0  0  0  0
  4 23  2  0  0  0  0
  5 11  1  1  0  0  0
  5 15  1  0  0  0  0
  6 19  1  0  0  0  0
  8 12  1  0  0  0  0
  9 25  1  0  0  0  0
  9 27  1  0  0  0  0
 10 17  1  0  0  0  0
 11 20  1  0  0  0  0
 12 15  1  0  0  0  0
 13  9  1  0  0  0  0
 14  2  1  0  0  0  0
 15  4  1  0  0  0  0
 16  8  2  0  0  0  0
 17 25  1  0  0  0  0
 17 28  1  0  0  0  0
 18  1  2  0  0  0  0
 19  5  1  0  0  0  0
 20 13  1  0  0  0  0
 20 18  1  0  0  0  0
 21 26  2  0  0  0  0
 22 10  1  0  0  0  0
 23 21  1  0  0  0  0
 24 22  1  0  0  0  0
 24 13  1  0  0  0  0
 25 14  1  0  0  0  0
 27  2  1  0  0  0  0
 29 28  1  0  0  0  0
 29 32  1  0  0  0  0
 31 33  1  0  0  0  0
 32 31  1  0  0  0  0
 32 34  1  0  0  0  0
 33 30  1  0  0  0  0
 34 30  1  0  0  0  0
M  END
>  <MODEL>
2

>  <REMARK>
 VINA RESULT:      -8.7      2.032      9.185
  Name = 
  3 active torsions:
  status: ('A' for Active; 'I' for Inactive)
    1  A    between atoms: C_17  and  N_28
    2  A    between atoms: N_28  and  C_29
    3  A    between atoms: C_29  and  C_32
                            x       y       z     vdW  Elec       q    Type
                         _______ _______ _______ _____ _____    ______ ____

>  <TORSDO>
F 3

$$$$
=
 OpenBabel11122414393D

 34 40  0  0  1  0  0  0  0  0999 V2000
  160.7870  207.7720  154.0490 C   0  0  0  0  0  0  0  0  0  0  0  0
  162.1480  206.1370  152.8280 O   0  0  0  0  0  0  0  0  0  0  0  0
  158.5530  213.9190  154.9900 C   0  0  2  0  0  3  0  0  0  0  0  0
  159.6720  209.6040  155.2170 C   0  0  0  0  0  0  0  0  0  0  0  0
  159.6130  211.8010  153.9710 C   0  0  2  0  0  3  0  0  0  0  0  0
  159.5840  213.9670  152.7100 C   0  0  0  0  0  1  0  0  0  0  0  0
  159.7790  214.1170  155.8730 C   0  0  0  0  0  1  0  0  0  0  0  0
  156.9840  212.1360  155.9250 C   0  0  0  0  0  3  0  0  0  0  0  0
  161.9930  208.2810  151.9670 C   0  0  2  0  0  3  0  0  0  0  0  0
  162.2260  208.7700  148.8060 C   0  0  0  0  0  2  0  0  0  0  0  0
  159.5890  211.0000  152.8100 O   0  0  0  0  0  0  0  0  0  0  0  0
  157.5810  210.9510  155.2150 C   0  0  0  0  0  2  0  0  0  0  0  0
  160.9870  209.3840  151.6320 C   0  0  1  0  0  3  0  0  0  0  0  0
  162.7280  206.0810  151.5400 C   0  0  0  0  0  2  0  0  0  0  0  0
  159.1040  211.0020  155.2040 C   0  0  1  0  0  3  0  0  0  0  0  0
  157.3820  213.4150  155.7950 C   0  0  0  0  0  3  0  0  0  0  0  0
  161.9300  207.4720  149.5530 C   0  0  2  0  0  3  0  0  0  0  0  0
  160.3350  209.1090  154.0840 C   0  0  0  0  0  0  0  0  0  0  0  0
  158.8420  213.1070  153.7190 C   0  0  2  0  0  3  0  0  0  0  0  0
  160.6450  210.0850  152.9580 C   0  0  2  0  0  3  0  0  0  0  0  0
  159.9420  207.4450  156.2970 C   0  0  0  0  0  3  0  0  0  0  0  0
  161.2920  209.9010  149.2190 C   0  0  0  0  0  2  0  0  0  0  0  0
  159.4880  208.7690  156.3280 C   0  0  0  0  0  3  0  0  0  0  0  0
  161.5680  210.3770  150.6380 C   0  0  0  0  0  2  0  0  0  0  0  0
  162.6780  207.4740  150.8940 C   0  0  1  0  0  3  0  0  0  0  0  0
  160.5680  206.9400  155.1530 C   0  0  0  0  0  3  0  0  0  0  0  0
  161.2740  207.2210  152.7390 C   0  0  2  0  0  3  0  0  0  0  0  0
  162.3720  206.3560  148.7290 N   0  0  0  0  0  2  0  0  0  0  0  0
  161.1990  205.5440  148.4510 C   0  0  0  0  0  2  0  0  0  0  0  0
  160.9450  202.0770  147.7950 C   0  0  0  0  0  2  0  0  0  0  0  0
  160.7850  203.4580  149.7160 C   0  0  0  0  0  2  0  0  0  0  0  0
  161.5530  204.0730  148.5710 C   0  0  1  0  0  3  0  0  0  0  0  0
  160.3890  202.1080  149.1990 C   0  0  0  0  0  2  0  0  0  0  0  0
  161.2090  203.3950  147.3930 O   0  0  0  0  0  0  0  0  0  0  0  0
  1 18  2  0  0  0  0
  1 26  1  0  0  0  0
  3 16  1  0  0  0  0
  3  7  1  1  0  0  0
  4 23  2  0  0  0  0
  5 11  1  6  0  0  0
  5 15  1  0  0  0  0
  6 19  1  0  0  0  0
  9 27  1  0  0  0  0
 10 22  1  0  0  0  0
 10 17  1  0  0  0  0
 11 20  1  0  0  0  0
 12  8  1  0  0  0  0
 13  9  1  0  0  0  0
 13 20  1  0  0  0  0
 14  2  1  0  0  0  0
 15 12  1  0  0  0  0
 15  4  1  0  0  0  0
 16  8  2  0  0  0  0
 17 25  1  0  0  0  0
 18  4  1  0  0  0  0
 19  5  1  0  0  0  0
 19  3  1  0  0  0  0
 20 18  1  0  0  0  0
 21 23  1  0  0  0  0
 22 24  1  0  0  0  0
 24 13  1  0  0  0  0
 25 14  1  0  0  0  0
 25  9  1  0  0  0  0
 26 21  2  0  0  0  0
 27  2  1  0  0  0  0
 27  1  1  0  0  0  0
 28 17  1  0  0  0  0
 29 32  1  0  0  0  0
 29 28  1  0  0  0  0
 30 33  1  0  0  0  0
 32 31  1  0  0  0  0
 33 31  1  0  0  0  0
 34 30  1  0  0  0  0
 34 32  1  0  0  0  0
M  END
>  <MODEL>
3

>  <REMARK>
 VINA RESULT:      -7.6      2.183      4.776
  Name = 
  3 active torsions:
  status: ('A' for Active; 'I' for Inactive)
    1  A    between atoms: C_17  and  N_28
    2  A    between atoms: N_28  and  C_29
    3  A    between atoms: C_29  and  C_32
                            x       y       z     vdW  Elec       q    Type
                         _______ _______ _______ _____ _____    ______ ____

>  <TORSDO>
F 3

$$$$
=
 OpenBabel11122414393D

 34 40  0  0  1  0  0  0  0  0999 V2000
  161.8350  209.6330  150.6910 C   0  0  0  0  0  0  0  0  0  0  0  0
  162.0350  210.7200  152.8800 O   0  0  0  0  0  0  0  0  0  0  0  0
  161.7560  204.2400  146.8740 C   0  0  2  0  0  3  0  0  0  0  0  0
  161.8630  208.3490  148.6140 C   0  0  0  0  0  0  0  0  0  0  0  0
  161.6920  205.8440  148.8920 C   0  0  2  0  0  3  0  0  0  0  0  0
  161.5340  203.3620  149.2060 C   0  0  0  0  0  1  0  0  0  0  0  0
  163.2650  204.4200  146.7690 C   0  0  0  0  0  1  0  0  0  0  0  0
  160.4890  206.2040  145.8480 C   0  0  0  0  0  3  0  0  0  0  0  0
  161.9590  208.4070  152.8200 C   0  0  2  0  0  3  0  0  0  0  0  0
  160.7310  206.7690  155.2890 C   0  0  0  0  0  2  0  0  0  0  0  0
  160.9330  206.1470  150.0410 O   0  0  0  0  0  0  0  0  0  0  0  0
  160.3890  207.0480  147.0900 C   0  0  0  0  0  2  0  0  0  0  0  0
  161.1880  207.2340  152.2110 C   0  0  1  0  0  3  0  0  0  0  0  0
  161.8890  210.3020  154.2230 C   0  0  0  0  0  2  0  0  0  0  0  0
  161.6830  207.0350  147.8930 C   0  0  1  0  0  3  0  0  0  0  0  0
  161.0450  204.9810  145.7700 C   0  0  0  0  0  3  0  0  0  0  0  0
  160.5570  208.2450  154.9400 C   0  0  2  0  0  3  0  0  0  0  0  0
  161.7650  208.3970  150.0130 C   0  0  0  0  0  0  0  0  0  0  0  0
  161.2060  204.5200  148.2790 C   0  0  2  0  0  3  0  0  0  0  0  0
  161.6960  207.0770  150.7670 C   0  0  2  0  0  3  0  0  0  0  0  0
  162.1390  210.7610  148.5680 C   0  0  0  0  0  3  0  0  0  0  0  0
  160.3910  205.8540  154.1180 C   0  0  0  0  0  2  0  0  0  0  0  0
  162.0620  209.5360  147.8960 C   0  0  0  0  0  3  0  0  0  0  0  0
  161.4170  205.9550  152.9990 C   0  0  0  0  0  2  0  0  0  0  0  0
  161.8410  208.7670  154.2790 C   0  0  1  0  0  3  0  0  0  0  0  0
  162.0030  210.8140  149.9590 C   0  0  0  0  0  3  0  0  0  0  0  0
  161.4920  209.6610  152.1530 C   0  0  2  0  0  3  0  0  0  0  0  0
  160.2850  208.9780  156.1670 N   0  0  0  0  0  2  0  0  0  0  0  0
  158.9110  209.4430  156.0880 C   0  0  0  0  0  2  0  0  0  0  0  0
  159.5070  212.8890  155.5520 C   0  0  0  0  0  2  0  0  0  0  0  0
  160.0240  211.3200  157.2530 C   0  0  0  0  0  2  0  0  0  0  0  0
  158.8530  210.9300  156.3840 C   0  0  1  0  0  3  0  0  0  0  0  0
  160.4550  212.6460  156.7030 C   0  0  0  0  0  2  0  0  0  0  0  0
  158.9240  211.6640  155.1920 O   0  0  0  0  0  0  0  0  0  0  0  0
  1 27  1  0  0  0  0
  2 14  1  0  0  0  0
  3  7  1  1  0  0  0
  3 19  1  0  0  0  0
  4 18  2  0  0  0  0
  5 11  1  1  0  0  0
  8 12  1  0  0  0  0
  9 25  1  0  0  0  0
 11 20  1  0  0  0  0
 12 15  1  0  0  0  0
 13  9  1  0  0  0  0
 13 24  1  0  0  0  0
 14 25  1  0  0  0  0
 15  4  1  0  0  0  0
 15  5  1  0  0  0  0
 16  8  2  0  0  0  0
 16  3  1  0  0  0  0
 17 10  1  0  0  0  0
 17 28  1  0  0  0  0
 18  1  1  0  0  0  0
 18 20  1  0  0  0  0
 19  5  1  0  0  0  0
 19  6  1  0  0  0  0
 20 13  1  0  0  0  0
 21 26  1  0  0  0  0
 22 10  1  0  0  0  0
 23 21  2  0  0  0  0
 23  4  1  0  0  0  0
 24 22  1  0  0  0  0
 25 17  1  0  0  0  0
 26  1  2  0  0  0  0
 27  9  1  0  0  0  0
 27  2  1  0  0  0  0
 29 28  1  0  0  0  0
 29 32  1  0  0  0  0
 30 33  1  0  0  0  0
 32 31  1  0  0  0  0
 33 31  1  0  0  0  0
 34 30  1  0  0  0  0
 34 32  1  0  0  0  0
M  END
>  <MODEL>
4

>  <REMARK>
 VINA RESULT:      -6.6      2.825      8.553
  Name = 
  3 active torsions:
  status: ('A' for Active; 'I' for Inactive)
    1  A    between atoms: C_17  and  N_28
    2  A    between atoms: N_28  and  C_29
    3  A    between atoms: C_29  and  C_32
                            x       y       z     vdW  Elec       q    Type
                         _______ _______ _______ _____ _____    ______ ____

>  <TORSDO>
F 3

$$$$
=
 OpenBabel11122414393D

 34 40  0  0  1  0  0  0  0  0999 V2000
  160.9980  204.8090  152.0260 C   0  0  0  0  0  0  0  0  0  0  0  0
  160.7360  205.6500  154.3140 O   0  0  0  0  0  0  0  0  0  0  0  0
  161.1000  205.7210  145.4810 C   0  0  2  0  0  3  0  0  0  0  0  0
  161.0240  204.1730  149.6680 C   0  0  0  0  0  0  0  0  0  0  0  0
  161.1210  206.0960  148.0330 C   0  0  2  0  0  3  0  0  0  0  0  0
  161.2060  208.0290  146.4390 C   0  0  0  0  0  1  0  0  0  0  0  0
  159.6020  205.4500  145.5260 C   0  0  0  0  0  1  0  0  0  0  0  0
  162.4560  203.6900  146.2250 C   0  0  0  0  0  3  0  0  0  0  0  0
  160.7580  207.1910  152.5860 C   0  0  2  0  0  3  0  0  0  0  0  0
  161.8440  210.1660  153.0930 C   0  0  0  0  0  2  0  0  0  0  0  0
  161.8410  206.7610  149.0480 O   0  0  0  0  0  0  0  0  0  0  0  0
  162.5270  204.0210  147.6910 C   0  0  0  0  0  2  0  0  0  0  0  0
  161.5240  207.5860  151.3220 C   0  0  1  0  0  3  0  0  0  0  0  0
  160.8170  206.9210  154.9290 C   0  0  0  0  0  2  0  0  0  0  0  0
  161.2000  204.5540  148.2180 C   0  0  1  0  0  3  0  0  0  0  0  0
  161.8750  204.4430  145.2740 C   0  0  0  0  0  3  0  0  0  0  0  0
  162.0680  208.9110  153.9320 C   0  0  2  0  0  3  0  0  0  0  0  0
  161.0660  205.1630  150.6610 C   0  0  0  0  0  0  0  0  0  0  0  0
  161.6000  206.5780  146.6530 C   0  0  2  0  0  3  0  0  0  0  0  0
  161.0710  206.6190  150.2150 C   0  0  2  0  0  3  0  0  0  0  0  0
  160.8090  202.4770  151.3930 C   0  0  0  0  0  3  0  0  0  0  0  0
  162.2090  209.9550  151.6290 C   0  0  0  0  0  2  0  0  0  0  0  0
  160.8840  202.8290  150.0400 C   0  0  0  0  0  3  0  0  0  0  0  0
  161.2320  209.0240  150.9270 C   0  0  0  0  0  2  0  0  0  0  0  0
  160.8250  208.0130  153.8480 C   0  0  1  0  0  3  0  0  0  0  0  0
  160.8890  203.4600  152.3840 C   0  0  0  0  0  3  0  0  0  0  0  0
  161.2820  205.8700  153.0500 C   0  0  2  0  0  3  0  0  0  0  0  0
  162.3070  209.3160  155.3090 N   0  0  0  0  0  2  0  0  0  0  0  0
  162.3020  210.7690  155.3310 C   0  0  0  0  0  2  0  0  0  0  0  0
  159.3380  210.6510  157.2610 C   0  0  0  0  0  2  0  0  0  0  0  0
  160.2180  212.0790  155.5850 C   0  0  0  0  0  2  0  0  0  0  0  0
  161.2580  211.2650  156.3150 C   0  0  1  0  0  3  0  0  0  0  0  0
  158.9270  211.6760  156.2320 C   0  0  0  0  0  2  0  0  0  0  0  0
  160.6180  210.1790  156.9300 O   0  0  0  0  0  0  0  0  0  0  0  0
  1 26  1  0  0  0  0
  1 27  1  0  0  0  0
  2 14  1  0  0  0  0
  3  7  1  1  0  0  0
  3 19  1  0  0  0  0
  4 23  2  0  0  0  0
  4 18  1  0  0  0  0
  5 15  1  0  0  0  0
  5 11  1  1  0  0  0
  6 19  1  0  0  0  0
  8 12  1  0  0  0  0
  9 27  1  0  0  0  0
  9 25  1  0  0  0  0
 10 17  1  0  0  0  0
 11 20  1  0  0  0  0
 12 15  1  0  0  0  0
 13  9  1  0  0  0  0
 15  4  1  0  0  0  0
 16  3  1  0  0  0  0
 16  8  2  0  0  0  0
 17 28  1  0  0  0  0
 18  1  2  0  0  0  0
 19  5  1  0  0  0  0
 20 18  1  0  0  0  0
 20 13  1  0  0  0  0
 21 26  2  0  0  0  0
 22 10  1  0  0  0  0
 23 21  1  0  0  0  0
 24 13  1  0  0  0  0
 24 22  1  0  0  0  0
 25 17  1  0  0  0  0
 25 14  1  0  0  0  0
 27  2  1  0  0  0  0
 28 29  1  0  0  0  0
 29 32  1  0  0  0  0
 31 33  1  0  0  0  0
 31 32  1  0  0  0  0
 32 34  1  0  0  0  0
 33 30  1  0  0  0  0
 34 30  1  0  0  0  0
M  END
>  <MODEL>
5

>  <REMARK>
 VINA RESULT:      -6.0      2.631      9.081
  Name = 
  3 active torsions:
  status: ('A' for Active; 'I' for Inactive)
    1  A    between atoms: C_17  and  N_28
    2  A    between atoms: N_28  and  C_29
    3  A    between atoms: C_29  and  C_32
                            x       y       z     vdW  Elec       q    Type
                         _______ _______ _______ _____ _____    ______ ____

>  <TORSDO>
F 3

$$$$
