=
 OpenBabel11122412573D

 32 37  0  0  1  0  0  0  0  0999 V2000
  160.8080  208.1960  157.2610 C   0  0  0  0  0  3  0  0  0  0  0  0
  161.1150  206.3840  152.1390 C   0  0  0  0  0  0  0  0  0  0  0  0
  162.2080  209.8780  148.8990 C   0  0  0  0  0  3  0  0  0  0  0  0
  162.5560  208.8270  147.9260 C   0  0  0  0  0  3  0  0  0  0  0  0
  161.1380  203.9550  151.5770 C   0  0  0  0  0  0  0  0  0  0  0  0
  161.0290  203.0320  150.4470 C   0  0  0  0  0  0  0  0  0  0  0  0
  160.6000  206.9610  154.4290 C   0  0  0  0  0  0  0  0  0  0  0  0
  160.8780  208.8410  152.7680 C   0  0  0  0  0  2  0  0  0  0  0  0
  160.8930  202.3930  148.3630 N   0  0  0  0  0  0  0  0  0  0  0  0
  160.6940  209.4340  155.1620 C   0  0  0  0  0  2  0  0  0  0  0  0
  161.7850  209.5640  150.1240 C   0  0  0  0  0  3  0  0  0  0  0  0
  161.2790  207.8030  151.7590 C   0  0  0  0  0  0  0  0  0  0  0  0
  161.6550  208.1460  150.5190 C   0  0  0  0  0  0  0  0  0  0  0  0
  161.8970  205.7010  149.8560 C   0  0  2  0  0  3  0  0  0  0  0  0
  160.7530  201.3360  149.1920 C   0  0  0  0  0  3  0  0  0  0  0  0
  159.6990  207.3320  156.7590 C   0  0  0  0  0  2  0  0  0  0  0  0
  161.1620  208.3640  154.1880 C   0  0  1  0  0  3  0  0  0  0  0  0
  160.8310  201.6990  150.4970 N   0  0  0  0  0  0  0  0  0  0  0  0
  160.1330  206.5110  155.6770 O   0  0  0  0  0  0  0  0  0  0  0  0
  161.2790  209.1930  156.5190 C   0  0  0  0  0  0  0  0  0  0  0  0
  162.4310  207.5350  148.2420 C   0  0  0  0  0  3  0  0  0  0  0  0
  161.9440  207.1330  149.5350 N   0  0  0  0  0  0  0  0  0  0  0  0
  161.1700  204.8980  148.7540 C   0  0  0  0  0  2  0  0  0  0  0  0
  160.6500  206.0880  153.4660 N   0  0  0  0  0  0  0  0  0  0  0  0
  161.0450  203.5310  152.7610 O   0  0  0  0  0  0  0  0  0  0  0  0
  160.8260  202.3700  146.9120 C   0  0  0  0  0  1  0  0  0  0  0  0
  161.3550  205.3950  151.2540 C   0  0  0  0  0  0  0  0  0  0  0  0
  161.0780  203.4560  149.1540 C   0  0  0  0  0  0  0  0  0  0  0  0
  162.3640  209.9800  157.0280 N   0  0  0  0  0  2  0  0  0  0  0  0
  163.3270  210.7040  156.2530 C   0  0  0  0  0  0  0  0  0  0  0  0
  163.2870  210.7040  154.9940 O   0  0  0  0  0  0  0  0  0  0  0  0
  164.3920  211.4700  156.9490 C   0  0  0  0  0  1  0  0  0  0  0  0
  2 24  1  0  0  0  0
  3 11  2  0  0  0  0
  4 21  2  0  0  0  0
  4  3  1  0  0  0  0
  5 25  2  0  0  0  0
  6 18  1  0  0  0  0
  6  5  1  0  0  0  0
  7 19  1  0  0  0  0
  9 28  1  0  0  0  0
  9 15  1  0  0  0  0
 10 20  1  0  0  0  0
 11 13  1  0  0  0  0
 12  2  1  0  0  0  0
 12  8  1  0  0  0  0
 13 12  2  0  0  0  0
 14 23  1  6  0  0  0
 14 27  1  0  0  0  0
 15 18  2  0  0  0  0
 16  1  1  0  0  0  0
 17  8  1  6  0  0  0
 17  7  1  0  0  0  0
 17 10  1  0  0  0  0
 19 16  1  0  0  0  0
 20 29  1  0  0  0  0
 20  1  2  0  0  0  0
 21 22  1  0  0  0  0
 22 14  1  0  0  0  0
 22 13  1  0  0  0  0
 23 28  1  0  0  0  0
 24  7  2  0  0  0  0
 26  9  1  0  0  0  0
 27  5  1  0  0  0  0
 27  2  2  0  0  0  0
 28  6  2  0  0  0  0
 30 32  1  0  0  0  0
 30 29  1  0  0  0  0
 31 30  2  0  0  0  0
M  END
>  <MODEL>
1

>  <REMARK>
 VINA RESULT:      -9.3      0.000      0.000
  Name = 
  1 active torsions:
  status: ('A' for Active; 'I' for Inactive)
    1  A    between atoms: C_20  and  N_29
                            x       y       z     vdW  Elec       q    Type
                         _______ _______ _______ _____ _____    ______ ____

>  <TORSDO>
F 1

$$$$
=
 OpenBabel11122412573D

 32 37  0  0  1  0  0  0  0  0999 V2000
  161.4180  212.6180  149.0870 C   0  0  0  0  0  3  0  0  0  0  0  0
  161.3310  207.1770  149.1240 C   0  0  0  0  0  0  0  0  0  0  0  0
  161.2350  205.2610  153.6210 C   0  0  0  0  0  3  0  0  0  0  0  0
  160.8080  203.9780  153.0350 C   0  0  0  0  0  3  0  0  0  0  0  0
  160.9310  205.8300  147.0640 C   0  0  0  0  0  0  0  0  0  0  0  0
  160.9910  204.4600  146.5530 C   0  0  0  0  0  0  0  0  0  0  0  0
  161.6980  209.5460  148.8150 C   0  0  0  0  0  0  0  0  0  0  0  0
  161.9400  208.6050  151.1440 C   0  0  0  0  0  2  0  0  0  0  0  0
  161.2290  202.2900  146.6060 N   0  0  0  0  0  0  0  0  0  0  0  0
  161.9750  211.0640  150.8830 C   0  0  0  0  0  2  0  0  0  0  0  0
  161.4630  206.3250  152.8490 C   0  0  0  0  0  3  0  0  0  0  0  0
  161.4680  207.2900  150.5920 C   0  0  0  0  0  0  0  0  0  0  0  0
  161.2930  206.2250  151.3850 C   0  0  0  0  0  0  0  0  0  0  0  0
  160.6850  204.7680  149.3880 C   0  0  2  0  0  3  0  0  0  0  0  0
  161.0870  202.7190  145.3330 C   0  0  0  0  0  3  0  0  0  0  0  0
  162.3990  211.8980  148.2220 C   0  0  0  0  0  2  0  0  0  0  0  0
  161.4260  209.7690  150.3030 C   0  0  1  0  0  3  0  0  0  0  0  0
  160.9380  204.0660  145.2640 N   0  0  0  0  0  0  0  0  0  0  0  0
  161.9420  210.5870  147.9010 O   0  0  0  0  0  0  0  0  0  0  0  0
  161.2160  212.2370  150.3440 C   0  0  0  0  0  0  0  0  0  0  0  0
  160.6640  203.8460  151.7130 C   0  0  0  0  0  3  0  0  0  0  0  0
  160.9320  204.9460  150.8250 N   0  0  0  0  0  0  0  0  0  0  0  0
  161.3680  203.4900  148.8520 C   0  0  0  0  0  2  0  0  0  0  0  0
  161.5930  208.3440  148.3270 N   0  0  0  0  0  0  0  0  0  0  0  0
  160.8200  206.8040  146.2730 O   0  0  0  0  0  0  0  0  0  0  0  0
  161.4430  200.9200  147.0380 C   0  0  0  0  0  1  0  0  0  0  0  0
  161.0130  206.0020  148.5440 C   0  0  0  0  0  0  0  0  0  0  0  0
  161.1560  203.3850  147.3720 C   0  0  0  0  0  0  0  0  0  0  0  0
  160.2420  212.9370  151.1290 N   0  0  0  0  0  2  0  0  0  0  0  0
  159.3860  212.3700  152.1280 C   0  0  0  0  0  0  0  0  0  0  0  0
  159.4280  211.1420  152.4050 O   0  0  0  0  0  0  0  0  0  0  0  0
  158.4290  213.2470  152.8490 C   0  0  0  0  0  1  0  0  0  0  0  0
  1 20  2  0  0  0  0
  2 12  1  0  0  0  0
  4  3  1  0  0  0  0
  5 27  1  0  0  0  0
  6  5  1  0  0  0  0
  6 28  2  0  0  0  0
  7 17  1  0  0  0  0
  9 26  1  0  0  0  0
  9 28  1  0  0  0  0
 11  3  2  0  0  0  0
 12  8  1  0  0  0  0
 12 13  2  0  0  0  0
 13 11  1  0  0  0  0
 14 23  1  6  0  0  0
 14 22  1  0  0  0  0
 15  9  1  0  0  0  0
 16  1  1  0  0  0  0
 17 10  1  1  0  0  0
 17  8  1  0  0  0  0
 18 15  2  0  0  0  0
 18  6  1  0  0  0  0
 19 16  1  0  0  0  0
 19  7  1  0  0  0  0
 20 10  1  0  0  0  0
 20 29  1  0  0  0  0
 21  4  2  0  0  0  0
 22 13  1  0  0  0  0
 22 21  1  0  0  0  0
 24  7  2  0  0  0  0
 24  2  1  0  0  0  0
 25  5  2  0  0  0  0
 27  2  2  0  0  0  0
 27 14  1  0  0  0  0
 28 23  1  0  0  0  0
 29 30  1  0  0  0  0
 30 31  2  0  0  0  0
 30 32  1  0  0  0  0
M  END
>  <MODEL>
2

>  <REMARK>
 VINA RESULT:      -8.2      3.374      5.374
  Name = 
  1 active torsions:
  status: ('A' for Active; 'I' for Inactive)
    1  A    between atoms: C_20  and  N_29
                            x       y       z     vdW  Elec       q    Type
                         _______ _______ _______ _____ _____    ______ ____

>  <TORSDO>
F 1

$$$$
=
 OpenBabel11122412573D

 32 37  0  0  1  0  0  0  0  0999 V2000
  160.7480  201.5960  149.5910 C   0  0  0  0  0  3  0  0  0  0  0  0
  161.2290  206.5230  151.8490 C   0  0  0  0  0  0  0  0  0  0  0  0
  162.3310  210.0390  148.6360 C   0  0  0  0  0  3  0  0  0  0  0  0
  161.9180  211.0420  149.6340 C   0  0  0  0  0  3  0  0  0  0  0  0
  160.5210  206.9970  154.1930 C   0  0  0  0  0  0  0  0  0  0  0  0
  160.6060  208.0170  155.2390 C   0  0  0  0  0  0  0  0  0  0  0  0
  161.2730  204.2010  151.1800 C   0  0  0  0  0  0  0  0  0  0  0  0
  162.1220  205.9220  149.5400 C   0  0  0  0  0  2  0  0  0  0  0  0
  161.0700  209.9470  156.1490 N   0  0  0  0  0  0  0  0  0  0  0  0
  161.8460  203.5990  148.7360 C   0  0  0  0  0  2  0  0  0  0  0  0
  162.2720  208.7350  148.9100 C   0  0  0  0  0  3  0  0  0  0  0  0
  161.6760  206.9750  150.5140 C   0  0  0  0  0  0  0  0  0  0  0  0
  161.7910  208.2790  150.2300 C   0  0  0  0  0  0  0  0  0  0  0  0
  160.9080  208.9150  152.5310 C   0  0  2  0  0  3  0  0  0  0  0  0
  160.6070  209.0850  157.0790 C   0  0  0  0  0  3  0  0  0  0  0  0
  161.5810  201.7200  150.8240 C   0  0  0  0  0  2  0  0  0  0  0  0
  161.3180  204.6380  149.7140 C   0  0  1  0  0  3  0  0  0  0  0  0
  160.3090  207.8730  156.5460 N   0  0  0  0  0  0  0  0  0  0  0  0
  161.2000  202.8580  151.5920 O   0  0  0  0  0  0  0  0  0  0  0  0
  160.8700  202.4720  148.5990 C   0  0  0  0  0  0  0  0  0  0  0  0
  161.4980  210.6660  150.8460 C   0  0  0  0  0  3  0  0  0  0  0  0
  161.4480  209.2760  151.2140 N   0  0  0  0  0  0  0  0  0  0  0  0
  161.5810  209.7270  153.6600 C   0  0  0  0  0  2  0  0  0  0  0  0
  161.1870  205.1100  152.1070 N   0  0  0  0  0  0  0  0  0  0  0  0
  160.1380  205.8280  154.4680 O   0  0  0  0  0  0  0  0  0  0  0  0
  161.5150  211.3110  156.3780 C   0  0  0  0  0  1  0  0  0  0  0  0
  160.9120  207.4110  152.8130 C   0  0  0  0  0  0  0  0  0  0  0  0
  161.0580  209.2770  154.9900 C   0  0  0  0  0  0  0  0  0  0  0  0
  160.0290  202.3320  147.4470 N   0  0  0  0  0  2  0  0  0  0  0  0
  160.2700  201.4870  146.3150 C   0  0  0  0  0  0  0  0  0  0  0  0
  161.2980  200.7640  146.2460 O   0  0  0  0  0  0  0  0  0  0  0  0
  159.2870  201.4660  145.2010 C   0  0  0  0  0  1  0  0  0  0  0  0
  1 16  1  0  0  0  0
  2 24  1  0  0  0  0
  2 27  2  0  0  0  0
  3 11  2  0  0  0  0
  3  4  1  0  0  0  0
  4 21  2  0  0  0  0
  5 25  2  0  0  0  0
  5  6  1  0  0  0  0
  6 18  1  0  0  0  0
  7 19  1  0  0  0  0
  7 24  2  0  0  0  0
  8 17  1  0  0  0  0
  8 12  1  0  0  0  0
  9 26  1  0  0  0  0
  9 15  1  0  0  0  0
 11 13  1  0  0  0  0
 12  2  1  0  0  0  0
 13 12  2  0  0  0  0
 13 22  1  0  0  0  0
 14 27  1  0  0  0  0
 14 23  1  1  0  0  0
 16 19  1  0  0  0  0
 17 10  1  6  0  0  0
 17  7  1  0  0  0  0
 18 15  2  0  0  0  0
 20 10  1  0  0  0  0
 20  1  2  0  0  0  0
 21 22  1  0  0  0  0
 22 14  1  0  0  0  0
 23 28  1  0  0  0  0
 27  5  1  0  0  0  0
 28  6  2  0  0  0  0
 28  9  1  0  0  0  0
 29 20  1  0  0  0  0
 30 29  1  0  0  0  0
 31 30  2  0  0  0  0
 32 30  1  0  0  0  0
M  END
>  <MODEL>
3

>  <REMARK>
 VINA RESULT:      -7.7      1.833      7.895
  Name = 
  1 active torsions:
  status: ('A' for Active; 'I' for Inactive)
    1  A    between atoms: C_20  and  N_29
                            x       y       z     vdW  Elec       q    Type
                         _______ _______ _______ _____ _____    ______ ____

>  <TORSDO>
F 1

$$$$
=
 OpenBabel11122412573D

 32 37  0  0  1  0  0  0  0  0999 V2000
  161.6210  208.8260  157.2610 C   0  0  0  0  0  3  0  0  0  0  0  0
  161.4380  208.1150  151.8690 C   0  0  0  0  0  0  0  0  0  0  0  0
  161.7300  212.2910  149.3430 C   0  0  0  0  0  3  0  0  0  0  0  0
  162.0530  211.5060  148.1380 C   0  0  0  0  0  3  0  0  0  0  0  0
  161.6360  205.8680  150.8070 C   0  0  0  0  0  0  0  0  0  0  0  0
  161.4740  205.1800  149.5260 C   0  0  0  0  0  0  0  0  0  0  0  0
  161.1710  208.1590  154.2710 C   0  0  0  0  0  0  0  0  0  0  0  0
  161.0330  210.3500  153.0250 C   0  0  0  0  0  2  0  0  0  0  0  0
  161.1320  204.9540  147.3810 N   0  0  0  0  0  0  0  0  0  0  0  0
  161.1050  210.4290  155.4960 C   0  0  0  0  0  2  0  0  0  0  0  0
  161.5060  211.6900  150.5120 C   0  0  0  0  0  3  0  0  0  0  0  0
  161.4030  209.5910  151.7820 C   0  0  0  0  0  0  0  0  0  0  0  0
  161.5760  210.2170  150.6100 C   0  0  0  0  0  0  0  0  0  0  0  0
  161.9780  208.0020  149.4220 C   0  0  2  0  0  3  0  0  0  0  0  0
  161.2120  203.7450  147.9770 C   0  0  0  0  0  3  0  0  0  0  0  0
  160.5510  207.9430  156.7090 C   0  0  0  0  0  2  0  0  0  0  0  0
  161.5490  209.6410  154.2730 C   0  0  1  0  0  3  0  0  0  0  0  0
  161.4230  203.8500  149.3130 N   0  0  0  0  0  0  0  0  0  0  0  0
  160.9200  207.4150  155.4390 O   0  0  0  0  0  0  0  0  0  0  0  0
  161.8850  210.0020  156.7000 C   0  0  0  0  0  0  0  0  0  0  0  0
  162.1040  210.1720  148.1850 C   0  0  0  0  0  3  0  0  0  0  0  0
  161.8350  209.4640  149.4080 N   0  0  0  0  0  0  0  0  0  0  0  0
  161.1990  207.3470  148.2600 C   0  0  0  0  0  2  0  0  0  0  0  0
  161.1830  207.5060  153.1450 N   0  0  0  0  0  0  0  0  0  0  0  0
  161.7430  205.2110  151.8770 O   0  0  0  0  0  0  0  0  0  0  0  0
  160.8780  205.2100  145.9730 C   0  0  0  0  0  1  0  0  0  0  0  0
  161.6590  207.3600  150.7750 C   0  0  0  0  0  0  0  0  0  0  0  0
  161.3090  205.8550  148.3540 C   0  0  0  0  0  0  0  0  0  0  0  0
  162.9420  210.8040  157.2450 N   0  0  0  0  0  2  0  0  0  0  0  0
  164.0770  211.3120  156.5340 C   0  0  0  0  0  0  0  0  0  0  0  0
  164.2400  211.0770  155.3080 O   0  0  0  0  0  0  0  0  0  0  0  0
  165.0830  212.1300  157.2590 C   0  0  0  0  0  1  0  0  0  0  0  0
  2 24  1  0  0  0  0
  3 11  2  0  0  0  0
  4 21  2  0  0  0  0
  4  3  1  0  0  0  0
  5 25  2  0  0  0  0
  6  5  1  0  0  0  0
  7 17  1  0  0  0  0
  7 19  1  0  0  0  0
  9 15  1  0  0  0  0
  9 28  1  0  0  0  0
 10 20  1  0  0  0  0
 11 13  1  0  0  0  0
 12  2  1  0  0  0  0
 12  8  1  0  0  0  0
 13 12  2  0  0  0  0
 14 23  1  6  0  0  0
 14 27  1  0  0  0  0
 15 18  2  0  0  0  0
 16  1  1  0  0  0  0
 17  8  1  6  0  0  0
 17 10  1  0  0  0  0
 18  6  1  0  0  0  0
 19 16  1  0  0  0  0
 20 29  1  0  0  0  0
 20  1  2  0  0  0  0
 21 22  1  0  0  0  0
 22 14  1  0  0  0  0
 22 13  1  0  0  0  0
 23 28  1  0  0  0  0
 24  7  2  0  0  0  0
 26  9  1  0  0  0  0
 27  5  1  0  0  0  0
 27  2  2  0  0  0  0
 28  6  2  0  0  0  0
 30 29  1  0  0  0  0
 30 32  1  0  0  0  0
 31 30  2  0  0  0  0
M  END
>  <MODEL>
4

>  <REMARK>
 VINA RESULT:      -7.6      1.458      1.994
  Name = 
  1 active torsions:
  status: ('A' for Active; 'I' for Inactive)
    1  A    between atoms: C_20  and  N_29
                            x       y       z     vdW  Elec       q    Type
                         _______ _______ _______ _____ _____    ______ ____

>  <TORSDO>
F 1

$$$$
=
 OpenBabel11122412573D

 32 37  0  0  1  0  0  0  0  0999 V2000
  161.0150  202.0790  148.5200 C   0  0  0  0  0  3  0  0  0  0  0  0
  161.3800  206.7060  151.3600 C   0  0  0  0  0  0  0  0  0  0  0  0
  162.1290  210.6500  148.5700 C   0  0  0  0  0  3  0  0  0  0  0  0
  161.7240  211.4960  149.7070 C   0  0  0  0  0  3  0  0  0  0  0  0
  160.7800  206.8450  153.7770 C   0  0  0  0  0  0  0  0  0  0  0  0
  160.8730  207.7290  154.9380 C   0  0  0  0  0  0  0  0  0  0  0  0
  161.4990  204.4910  150.3990 C   0  0  0  0  0  0  0  0  0  0  0  0
  162.1720  206.4470  148.9530 C   0  0  0  0  0  2  0  0  0  0  0  0
  161.2930  209.5540  156.0630 N   0  0  0  0  0  0  0  0  0  0  0  0
  161.9640  204.2310  147.8740 C   0  0  0  0  0  2  0  0  0  0  0  0
  162.1490  209.3210  148.6780 C   0  0  0  0  0  3  0  0  0  0  0  0
  161.7290  207.3440  150.0730 C   0  0  0  0  0  0  0  0  0  0  0  0
  161.7650  208.6780  149.9520 C   0  0  0  0  0  0  0  0  0  0  0  0
  160.9810  208.9730  152.3560 C   0  0  2  0  0  3  0  0  0  0  0  0
  160.9240  208.5580  156.8980 C   0  0  0  0  0  3  0  0  0  0  0  0
  161.9080  202.0950  149.7160 C   0  0  0  0  0  2  0  0  0  0  0  0
  161.4420  205.1090  149.0010 C   0  0  1  0  0  3  0  0  0  0  0  0
  160.6570  207.4070  156.2300 N   0  0  0  0  0  0  0  0  0  0  0  0
  161.5150  203.1050  150.6410 O   0  0  0  0  0  0  0  0  0  0  0  0
  161.0390  203.0770  147.6430 C   0  0  0  0  0  0  0  0  0  0  0  0
  161.3910  210.9500  150.8800 C   0  0  0  0  0  3  0  0  0  0  0  0
  161.4290  209.5240  151.0710 N   0  0  0  0  0  0  0  0  0  0  0  0
  161.6750  209.6740  153.5450 C   0  0  0  0  0  2  0  0  0  0  0  0
  161.4210  205.2720  151.4380 N   0  0  0  0  0  0  0  0  0  0  0  0
  160.4710  205.6310  153.9200 O   0  0  0  0  0  0  0  0  0  0  0  0
  161.6820  210.9010  156.4420 C   0  0  0  0  0  1  0  0  0  0  0  0
  161.0730  207.4480  152.4430 C   0  0  0  0  0  0  0  0  0  0  0  0
  161.2490  209.0340  154.8310 C   0  0  0  0  0  0  0  0  0  0  0  0
  160.1430  203.0350  146.5240 N   0  0  0  0  0  2  0  0  0  0  0  0
  160.4910  203.2220  145.1470 C   0  0  0  0  0  0  0  0  0  0  0  0
  161.6790  203.4500  144.7980 O   0  0  0  0  0  0  0  0  0  0  0  0
  159.4290  203.1470  144.1120 C   0  0  0  0  0  1  0  0  0  0  0  0
  1 16  1  0  0  0  0
  2 24  1  0  0  0  0
  2 27  2  0  0  0  0
  3 11  2  0  0  0  0
  3  4  1  0  0  0  0
  4 21  2  0  0  0  0
  5 25  2  0  0  0  0
  5  6  1  0  0  0  0
  6 18  1  0  0  0  0
  7 19  1  0  0  0  0
  7 24  2  0  0  0  0
  8 17  1  0  0  0  0
  8 12  1  0  0  0  0
  9 26  1  0  0  0  0
  9 15  1  0  0  0  0
 11 13  1  0  0  0  0
 12  2  1  0  0  0  0
 13 12  2  0  0  0  0
 13 22  1  0  0  0  0
 14 27  1  0  0  0  0
 14 23  1  1  0  0  0
 16 19  1  0  0  0  0
 17 10  1  6  0  0  0
 17  7  1  0  0  0  0
 18 15  2  0  0  0  0
 20 10  1  0  0  0  0
 20  1  2  0  0  0  0
 21 22  1  0  0  0  0
 22 14  1  0  0  0  0
 23 28  1  0  0  0  0
 27  5  1  0  0  0  0
 28  6  2  0  0  0  0
 28  9  1  0  0  0  0
 29 20  1  0  0  0  0
 30 29  1  0  0  0  0
 31 30  2  0  0  0  0
 32 30  1  0  0  0  0
M  END
>  <MODEL>
5

>  <REMARK>
 VINA RESULT:      -6.4      2.117      7.872
  Name = 
  1 active torsions:
  status: ('A' for Active; 'I' for Inactive)
    1  A    between atoms: C_20  and  N_29
                            x       y       z     vdW  Elec       q    Type
                         _______ _______ _______ _____ _____    ______ ____

>  <TORSDO>
F 1

$$$$
