=
 OpenBabel11122413333D

 37 43  0  0  1  0  0  0  0  0999 V2000
  162.0780  207.7500  148.2570 O   0  0  0  0  0  0  0  0  0  0  0  0
  162.2300  212.7240  147.3310 C   0  0  0  0  0  0  0  0  0  0  0  0
  160.9380  211.2810  151.0100 C   0  0  0  0  0  0  0  0  0  0  0  0
  161.7350  206.4910  147.7560 C   0  0  0  0  0  0  0  0  0  0  0  0
  162.6980  208.1800  152.3030 N   0  0  0  0  0  2  0  0  0  0  0  0
  160.8350  213.0960  149.4430 C   0  0  0  0  0  0  0  0  0  0  0  0
  161.4560  209.9620  151.0780 N   0  0  0  0  0  0  0  0  0  0  0  0
  161.2790  205.5510  149.9600 C   0  0  0  0  0  0  0  0  0  0  0  0
  161.2230  211.8260  149.8140 C   0  0  0  0  0  0  0  0  0  0  0  0
  161.7330  209.2960  152.3600 C   0  0  1  0  0  3  0  0  0  0  0  0
  160.1010  213.8490  150.3790 C   0  0  0  0  0  3  0  0  0  0  0  0
  161.3950  205.5040  148.5320 N   0  0  0  0  0  0  0  0  0  0  0  0
  161.9130  210.9240  148.9940 N   0  0  0  0  0  0  0  0  0  0  0  0
  163.5830  213.2180  147.8160 C   0  0  0  0  0  1  0  0  0  0  0  0
  159.6670  211.2920  153.1090 N   0  0  0  0  0  2  0  0  0  0  0  0
  159.7690  213.2800  151.6390 C   0  0  0  0  0  3  0  0  0  0  0  0
  162.1260  211.1970  147.5770 C   0  0  0  0  0  2  0  0  0  0  0  0
  161.2490  206.8390  150.7160 C   0  0  1  0  0  3  0  0  0  0  0  0
  162.6600  207.2960  151.1280 C   0  0  0  0  0  2  0  0  0  0  0  0
  160.1720  211.9620  151.9520 C   0  0  0  0  0  0  0  0  0  0  0  0
  162.0310  209.6660  149.7470 C   0  0  2  0  0  3  0  0  0  0  0  0
  161.1060  213.5390  148.0290 C   0  0  0  0  0  2  0  0  0  0  0  0
  160.4680  208.9120  153.1470 C   0  0  2  0  0  3  0  0  0  0  0  0
  162.1460  212.9740  145.8400 C   0  0  0  0  0  1  0  0  0  0  0  0
  160.4690  207.7950  150.0180 O   0  0  0  0  0  0  0  0  0  0  0  0
  161.1710  204.4720  150.6000 O   0  0  0  0  0  0  0  0  0  0  0  0
  161.2210  208.5470  149.0740 C   0  0  2  0  0  3  0  0  0  0  0  0
  159.2810  209.8820  153.0420 C   0  0  0  0  0  2  0  0  0  0  0  0
  160.1530  207.5620  155.2600 C   0  0  0  0  0  3  0  0  0  0  0  0
  160.7870  208.6130  154.5800 C   0  0  0  0  0  0  0  0  0  0  0  0
  161.7320  209.4000  155.2480 C   0  0  0  0  0  3  0  0  0  0  0  0
  163.0030  209.9430  157.2610 N   0  0  0  0  0  1  0  0  0  0  0  0
  161.4090  208.0930  157.2610 C   0  0  0  0  0  3  0  0  0  0  0  0
  162.0420  209.1410  156.5860 C   0  0  0  0  0  0  0  0  0  0  0  0
  160.4640  207.3030  156.5970 C   0  0  0  0  0  3  0  0  0  0  0  0
  160.5750  206.1900  145.7280 O   0  0  0  0  0  1  0  0  0  0  0  0
  161.8480  206.2480  146.2940 C   0  0  0  0  0  2  0  0  0  0  0  0
  2 17  1  0  0  0  0
  2 14  1  0  0  0  0
  2 22  1  0  0  0  0
  3  7  1  0  0  0  0
  3 20  1  0  0  0  0
  4  1  1  0  0  0  0
  4 12  2  0  0  0  0
  6  9  1  0  0  0  0
  6 11  2  0  0  0  0
  7 10  1  0  0  0  0
  8 26  2  0  0  0  0
  8 18  1  0  0  0  0
  9  3  2  0  0  0  0
 10  5  1  6  0  0  0
 10 23  1  0  0  0  0
 11 16  1  0  0  0  0
 12  8  1  0  0  0  0
 13  9  1  0  0  0  0
 16 20  2  0  0  0  0
 17 13  1  0  0  0  0
 18 19  1  6  0  0  0
 19  5  1  0  0  0  0
 20 15  1  0  0  0  0
 21 13  1  6  0  0  0
 21  7  1  0  0  0  0
 22  6  1  0  0  0  0
 23 30  1  1  0  0  0
 24  2  1  0  0  0  0
 25 18  1  0  0  0  0
 27  1  1  1  0  0  0
 27 21  1  0  0  0  0
 27 25  1  0  0  0  0
 28 15  1  0  0  0  0
 28 23  1  0  0  0  0
 29 35  1  0  0  0  0
 30 31  1  0  0  0  0
 30 29  2  0  0  0  0
 31 34  2  0  0  0  0
 34 32  1  0  0  0  0
 34 33  1  0  0  0  0
 35 33  2  0  0  0  0
 36 37  1  0  0  0  0
 37  4  1  0  0  0  0
M  END
>  <MODEL>
1

>  <REMARK>
 VINA RESULT:      -5.1      0.000      0.000
  Name = 
  2 active torsions:
  status: ('A' for Active; 'I' for Inactive)
    1  A    between atoms: C_4  and  C_37
    2  A    between atoms: C_23  and  C_30
                            x       y       z     vdW  Elec       q    Type
                         _______ _______ _______ _____ _____    ______ ____

>  <TORSDO>
F 2

$$$$
=
 OpenBabel11122413333D

 37 43  0  0  1  0  0  0  0  0999 V2000
  161.0090  210.4610  150.5480 O   0  0  0  0  0  0  0  0  0  0  0  0
  161.6940  206.0910  153.0070 C   0  0  0  0  0  0  0  0  0  0  0  0
  160.0830  209.3960  154.9470 C   0  0  0  0  0  0  0  0  0  0  0  0
  161.5600  211.3820  149.6520 C   0  0  0  0  0  0  0  0  0  0  0  0
  157.8130  211.6140  152.8690 N   0  0  0  0  0  2  0  0  0  0  0  0
  161.2860  207.3360  155.2050 C   0  0  0  0  0  0  0  0  0  0  0  0
  159.6140  210.2310  153.9010 N   0  0  0  0  0  0  0  0  0  0  0  0
  160.3600  213.2810  150.6010 C   0  0  0  0  0  0  0  0  0  0  0  0
  160.7080  208.3220  154.4350 C   0  0  0  0  0  0  0  0  0  0  0  0
  158.5170  211.1900  154.0970 C   0  0  1  0  0  3  0  0  0  0  0  0
  161.2090  207.4780  156.6040 C   0  0  0  0  0  3  0  0  0  0  0  0
  161.2480  212.6440  149.6730 N   0  0  0  0  0  0  0  0  0  0  0  0
  160.7330  208.3670  153.0340 N   0  0  0  0  0  0  0  0  0  0  0  0
  160.3910  205.3170  152.8950 C   0  0  0  0  0  1  0  0  0  0  0  0
  159.5820  210.8650  156.8490 N   0  0  0  0  0  2  0  0  0  0  0  0
  160.5740  208.6190  157.1640 C   0  0  0  0  0  3  0  0  0  0  0  0
  161.5520  207.4410  152.2600 C   0  0  0  0  0  2  0  0  0  0  0  0
  159.9090  212.6140  151.8590 C   0  0  1  0  0  3  0  0  0  0  0  0
  158.6120  211.8120  151.6520 C   0  0  0  0  0  2  0  0  0  0  0  0
  160.0230  209.6120  156.3220 C   0  0  0  0  0  0  0  0  0  0  0  0
  160.0920  209.6300  152.6360 C   0  0  2  0  0  3  0  0  0  0  0  0
  162.0660  206.2530  154.5080 C   0  0  0  0  0  2  0  0  0  0  0  0
  158.8910  212.3930  154.9800 C   0  0  2  0  0  3  0  0  0  0  0  0
  162.7800  205.2820  152.3310 C   0  0  0  0  0  1  0  0  0  0  0  0
  160.9870  211.9040  152.4470 O   0  0  0  0  0  0  0  0  0  0  0  0
  159.9670  214.4530  150.3650 O   0  0  0  0  0  0  0  0  0  0  0  0
  161.1050  210.5710  151.9680 C   0  0  2  0  0  3  0  0  0  0  0  0
  159.8630  212.1110  156.1360 C   0  0  0  0  0  2  0  0  0  0  0  0
  157.5250  213.4500  156.8250 C   0  0  0  0  0  3  0  0  0  0  0  0
  157.6720  213.1110  155.4710 C   0  0  0  0  0  0  0  0  0  0  0  0
  156.6640  213.4470  154.5600 C   0  0  0  0  0  3  0  0  0  0  0  0
  154.4940  214.4530  154.0680 N   0  0  0  0  0  1  0  0  0  0  0  0
  155.3730  214.4500  156.3470 C   0  0  0  0  0  3  0  0  0  0  0  0
  155.5160  214.1140  154.9970 C   0  0  0  0  0  0  0  0  0  0  0  0
  156.3780  214.1180  157.2610 C   0  0  0  0  0  3  0  0  0  0  0  0
  162.3880  209.4950  148.5110 O   0  0  0  0  0  1  0  0  0  0  0  0
  162.4660  210.8850  148.5830 C   0  0  0  0  0  2  0  0  0  0  0  0
  2 22  1  0  0  0  0
  3 20  1  0  0  0  0
  4 12  2  0  0  0  0
  4  1  1  0  0  0  0
  6 11  2  0  0  0  0
  7 10  1  0  0  0  0
  7  3  1  0  0  0  0
  8 18  1  0  0  0  0
  9  3  2  0  0  0  0
  9  6  1  0  0  0  0
 10  5  1  6  0  0  0
 10 23  1  0  0  0  0
 11 16  1  0  0  0  0
 12  8  1  0  0  0  0
 13  9  1  0  0  0  0
 14  2  1  0  0  0  0
 17  2  1  0  0  0  0
 17 13  1  0  0  0  0
 18 19  1  6  0  0  0
 18 25  1  0  0  0  0
 19  5  1  0  0  0  0
 20 15  1  0  0  0  0
 20 16  2  0  0  0  0
 21 13  1  1  0  0  0
 21  7  1  0  0  0  0
 22  6  1  0  0  0  0
 23 30  1  1  0  0  0
 23 28  1  0  0  0  0
 24  2  1  0  0  0  0
 26  8  2  0  0  0  0
 27  1  1  6  0  0  0
 27 25  1  0  0  0  0
 27 21  1  0  0  0  0
 28 15  1  0  0  0  0
 29 35  1  0  0  0  0
 30 29  2  0  0  0  0
 31 34  2  0  0  0  0
 31 30  1  0  0  0  0
 32 34  1  0  0  0  0
 33 35  2  0  0  0  0
 34 33  1  0  0  0  0
 36 37  1  0  0  0  0
 37  4  1  0  0  0  0
M  END
>  <MODEL>
2

>  <REMARK>
 VINA RESULT:      -2.2      3.269      6.739
  Name = 
  2 active torsions:
  status: ('A' for Active; 'I' for Inactive)
    1  A    between atoms: C_4  and  C_37
    2  A    between atoms: C_23  and  C_30
                            x       y       z     vdW  Elec       q    Type
                         _______ _______ _______ _____ _____    ______ ____

>  <TORSDO>
F 2

$$$$
