=
 OpenBabel11122413443D

 37 43  0  0  1  0  0  0  0  0999 V2000
  160.2620  208.7980  150.8850 C   0  0  0  0  0  2  0  0  0  0  0  0
  161.0990  208.7950  156.6850 C   0  0  0  0  0  0  0  0  0  0  0  0
  159.3630  211.7200  154.1240 C   0  0  1  0  0  3  0  0  0  0  0  0
  160.9620  207.9460  149.9080 N   0  0  0  0  0  0  0  0  0  0  0  0
  160.8690  212.3650  151.3000 O   0  0  0  0  0  0  0  0  0  0  0  0
  160.6890  211.3040  156.1240 C   0  0  1  0  0  3  0  0  0  0  0  0
  159.5890  211.1610  152.9380 C   0  0  1  0  0  3  0  0  0  0  0  0
  162.7750  209.6230  149.4610 C   0  0  2  0  0  3  0  0  0  0  0  0
  159.6110  210.7380  155.2140 C   0  0  2  0  0  3  0  0  0  0  0  0
  159.5990  211.8600  151.6070 C   0  0  1  0  0  3  0  0  0  0  0  0
  160.2710  212.6380  156.7620 C   0  0  0  0  0  2  0  0  0  0  0  0
  162.4100  208.1710  149.8050 C   0  0  0  0  0  2  0  0  0  0  0  0
  160.2080  209.6050  154.4650 C   0  0  2  0  0  3  0  0  0  0  0  0
  159.8410  208.1670  157.2610 C   0  0  0  0  0  1  0  0  0  0  0  0
  158.2330  213.9120  153.6850 C   0  0  0  0  0  2  0  0  0  0  0  0
  159.2380  213.4340  155.9290 C   0  0  0  0  0  2  0  0  0  0  0  0
  161.0970  208.6060  155.1520 C   0  0  0  0  0  2  0  0  0  0  0  0
  162.4480  210.6530  150.5670 C   0  0  1  0  0  3  0  0  0  0  0  0
  161.2840  211.5910  150.2080 C   0  0  0  0  0  2  0  0  0  0  0  0
  159.3550  213.1980  154.4160 C   0  0  1  0  0  3  0  0  0  0  0  0
  160.1720  209.8340  153.1560 C   0  0  2  0  0  3  0  0  0  0  0  0
  161.1730  210.2710  157.1530 C   0  0  0  0  0  2  0  0  0  0  0  0
  158.4650  212.8780  151.4100 C   0  0  1  0  0  3  0  0  0  0  0  0
  162.2910  208.0570  157.2540 C   0  0  0  0  0  1  0  0  0  0  0  0
  162.3180  209.9910  151.9520 C   0  0  0  0  0  2  0  0  0  0  0  0
  162.2580  209.9850  148.2130 O   0  0  0  0  0  1  0  0  0  0  0  0
  161.0540  209.1310  152.1670 C   0  0  2  0  0  3  0  0  0  0  0  0
  158.6250  214.1530  152.2370 C   0  0  0  0  0  2  0  0  0  0  0  0
  156.9900  212.9840  149.3930 C   0  0  0  0  0  3  0  0  0  0  0  0
  158.2530  213.1860  149.9600 C   0  0  0  0  0  0  0  0  0  0  0  0
  159.2990  213.6340  149.1420 C   0  0  0  0  0  3  0  0  0  0  0  0
  160.3650  214.4410  146.7590 Cl  0  0  0  0  0  0  0  0  0  0  0  0
  157.7890  213.6720  147.2650 C   0  0  0  0  0  3  0  0  0  0  0  0
  159.0660  213.8810  147.7890 C   0  0  0  0  0  0  0  0  0  0  0  0
  156.7860  213.2310  148.0720 N   0  0  0  0  0  0  0  0  0  0  0  0
  160.5280  205.7830  149.0540 O   0  0  0  0  0  1  0  0  0  0  0  0
  160.7130  206.5380  150.2190 C   0  0  0  0  0  2  0  0  0  0  0  0
  1 27  1  0  0  0  0
  2 22  1  0  0  0  0
  2 24  1  0  0  0  0
  2 14  1  0  0  0  0
  3 20  1  0  0  0  0
  3  9  1  0  0  0  0
  4 37  1  0  0  0  0
  4  1  1  0  0  0  0
  5 10  1  0  0  0  0
  6 11  1  0  0  0  0
  6 22  1  0  0  0  0
  7 21  1  0  0  0  0
  7  3  1  0  0  0  0
  8 12  1  0  0  0  0
  8 18  1  0  0  0  0
  9  6  1  0  0  0  0
 10  7  1  0  0  0  0
 12  4  1  0  0  0  0
 13 17  1  0  0  0  0
 13  9  1  0  0  0  0
 15 20  1  0  0  0  0
 16 11  1  0  0  0  0
 17  2  1  0  0  0  0
 18 25  1  0  0  0  0
 19 18  1  0  0  0  0
 19  5  1  0  0  0  0
 20 16  1  0  0  0  0
 21 13  1  0  0  0  0
 23 10  1  0  0  0  0
 23 28  1  0  0  0  0
 25 27  1  0  0  0  0
 26  8  1  0  0  0  0
 27 21  1  0  0  0  0
 28 15  1  0  0  0  0
 29 30  1  0  0  0  0
 30 23  1  0  0  0  0
 31 30  2  0  0  0  0
 32 34  1  0  0  0  0
 33 34  2  0  0  0  0
 33 35  1  0  0  0  0
 34 31  1  0  0  0  0
 35 29  2  0  0  0  0
 36 37  1  0  0  0  0
M  END
>  <MODEL>
1

>  <REMARK>
 VINA RESULT:      -1.5      0.000      0.000
  Name = 
  2 active torsions:
  status: ('A' for Active; 'I' for Inactive)
    1  A    between atoms: N_4  and  C_37
    2  A    between atoms: C_23  and  C_30
                            x       y       z     vdW  Elec       q    Type
                         _______ _______ _______ _____ _____    ______ ____

>  <TORSDO>
F 2

$$$$
