=
 OpenBabel11122413573D

 37 41  0  0  1  0  0  0  0  0999 V2000
  157.1990  211.6970  154.4900 C   0  0  0  0  0  0  0  0  0  0  0  0
  161.4670  210.6740  154.2220 C   0  0  0  0  0  2  0  0  0  0  0  0
  162.5450  210.4360  151.2580 O   0  0  0  0  0  0  0  0  0  0  0  0
  159.1430  212.2050  155.9540 C   0  0  2  0  0  3  0  0  0  0  0  0
  160.8130  210.7950  152.8640 C   0  0  2  0  0  3  0  0  0  0  0  0
  159.6900  212.8430  154.8050 O   0  0  0  0  0  0  0  0  0  0  0  0
  161.3840  209.8620  151.7900 C   0  0  2  0  0  3  0  0  0  0  0  0
  160.2150  211.4880  156.7890 C   0  0  0  0  0  2  0  0  0  0  0  0
  159.1300  212.5090  153.5350 C   0  0  2  0  0  3  0  0  0  0  0  0
  156.6810  212.9820  154.3870 F   0  0  0  0  0  0  0  0  0  0  0  0
  161.0180  208.3340  154.7230 N   0  0  0  0  0  2  0  0  0  0  0  0
  160.4750  210.0070  156.4540 C   0  0  0  0  0  2  0  0  0  0  0  0
  158.1890  211.4500  153.5320 O   0  0  0  0  0  0  0  0  0  0  0  0
  161.3330  211.4720  149.3740 C   0  0  0  0  0  2  0  0  0  0  0  0
  162.3880  210.4690  149.8600 C   0  0  0  0  0  2  0  0  0  0  0  0
  160.5740  209.7030  154.9640 C   0  0  1  0  0  3  0  0  0  0  0  0
  160.2770  212.2030  152.5400 C   0  0  2  0  0  3  0  0  0  0  0  0
  157.8070  211.4740  155.8480 C   0  0  0  0  0  2  0  0  0  0  0  0
  161.6690  208.4330  152.3370 C   0  0  1  0  0  3  0  0  0  0  0  0
  156.1710  210.7920  154.3150 F   0  0  0  0  0  0  0  0  0  0  0  0
  161.0840  212.6010  150.3610 C   0  0  0  0  0  2  0  0  0  0  0  0
  159.8720  212.3240  151.1250 N   0  0  0  0  0  0  0  0  0  0  0  0
  160.6330  207.9450  153.3640 C   0  0  0  0  0  2  0  0  0  0  0  0
  160.7100  207.4960  150.1890 C   0  0  0  0  0  2  0  0  0  0  0  0
  161.8200  207.3840  151.2310 C   0  0  2  0  0  3  0  0  0  0  0  0
  161.9860  205.9820  151.7670 C   0  0  0  0  0  3  0  0  0  0  0  0
  161.7470  203.6480  151.6620 O   0  0  0  0  0  1  0  0  0  0  0  0
  160.7050  205.0220  149.8620 C   0  0  0  0  0  2  0  0  0  0  0  0
  161.5240  204.9070  151.1210 C   0  0  0  0  0  0  0  0  0  0  0  0
  160.8670  206.3750  149.1710 C   0  0  0  0  0  2  0  0  0  0  0  0
  159.0240  213.5040  150.9320 C   0  0  0  0  0  2  0  0  0  0  0  0
  157.6490  213.1330  150.3580 C   0  0  1  0  0  3  0  0  0  0  0  0
  155.3770  214.1150  150.0470 C   0  0  0  0  0  1  0  0  0  0  0  0
  156.5220  213.9110  151.0200 C   0  0  0  0  0  2  0  0  0  0  0  0
  157.5960  213.3280  148.8500 C   0  0  0  0  0  2  0  0  0  0  0  0
  158.6370  214.3360  148.3990 C   0  0  0  0  0  2  0  0  0  0  0  0
  159.4520  213.7750  147.4160 O   0  0  0  0  0  1  0  0  0  0  0  0
  1 18  1  0  0  0  0
  4 18  1  6  0  0  0
  4  8  1  0  0  0  0
  5  2  1  1  0  0  0
  6  4  1  0  0  0  0
  7  3  1  1  0  0  0
  7 19  1  0  0  0  0
  7  5  1  0  0  0  0
  9 13  1  1  0  0  0
  9  6  1  0  0  0  0
 10  1  1  0  0  0  0
 11 16  1  0  0  0  0
 12  8  1  0  0  0  0
 13  1  1  0  0  0  0
 14 15  1  0  0  0  0
 14 21  1  0  0  0  0
 15  3  1  0  0  0  0
 16  2  1  1  0  0  0
 16 12  1  0  0  0  0
 17 22  1  6  0  0  0
 17  5  1  0  0  0  0
 17  9  1  0  0  0  0
 19 23  1  1  0  0  0
 20  1  1  0  0  0  0
 21 22  1  0  0  0  0
 23 11  1  0  0  0  0
 25 24  1  6  0  0  0
 25 26  1  0  0  0  0
 25 19  1  0  0  0  0
 28 29  1  0  0  0  0
 29 27  1  0  0  0  0
 29 26  2  0  0  0  0
 30 28  1  0  0  0  0
 30 24  1  0  0  0  0
 31 22  1  0  0  0  0
 32 35  1  6  0  0  0
 32 31  1  0  0  0  0
 32 34  1  0  0  0  0
 33 34  1  0  0  0  0
 36 35  1  0  0  0  0
 37 36  1  0  0  0  0
M  END
>  <MODEL>
1

>  <REMARK>
 VINA RESULT:      -6.5      0.000      0.000
  Name = 
  6 active torsions:
  status: ('A' for Active; 'I' for Inactive)
    1  A    between atoms: C_1  and  C_4
    2  A    between atoms: C_1  and  N_27
    3  A    between atoms: C_4  and  C_12
    4  A    between atoms: C_4  and  C_37
    5  A    between atoms: C_8  and  C_12
    6  A    between atoms: C_23  and  C_30
                            x       y       z     vdW  Elec       q    Type
                         _______ _______ _______ _____ _____    ______ ____

>  <TORSDO>
F 6

$$$$
=
 OpenBabel11122413573D

 37 41  0  0  1  0  0  0  0  0999 V2000
  158.4670  211.2930  155.3370 C   0  0  0  0  0  0  0  0  0  0  0  0
  161.9740  208.7590  154.5550 C   0  0  0  0  0  2  0  0  0  0  0  0
  162.5630  208.2970  151.4820 O   0  0  0  0  0  0  0  0  0  0  0  0
  160.6010  210.9530  156.5660 C   0  0  2  0  0  3  0  0  0  0  0  0
  161.2760  209.1910  153.2860 C   0  0  2  0  0  3  0  0  0  0  0  0
  161.2240  211.4010  155.3680 O   0  0  0  0  0  0  0  0  0  0  0  0
  161.3330  208.1730  152.1410 C   0  0  2  0  0  3  0  0  0  0  0  0
  161.4020  209.8420  157.2600 C   0  0  0  0  0  2  0  0  0  0  0  0
  160.4500  211.3720  154.1690 C   0  0  2  0  0  3  0  0  0  0  0  0
  158.4680  212.6820  155.3100 F   0  0  0  0  0  0  0  0  0  0  0  0
  160.7260  206.7350  155.0800 N   0  0  0  0  0  2  0  0  0  0  0  0
  161.0440  208.3920  156.8820 C   0  0  0  0  0  2  0  0  0  0  0  0
  159.1830  210.7460  154.2660 O   0  0  0  0  0  0  0  0  0  0  0  0
  161.6430  209.8130  149.7660 C   0  0  0  0  0  2  0  0  0  0  0  0
  162.2830  208.4630  150.1130 C   0  0  0  0  0  2  0  0  0  0  0  0
  160.8630  208.1560  155.3860 C   0  0  1  0  0  3  0  0  0  0  0  0
  161.2830  210.7130  153.0420 C   0  0  2  0  0  3  0  0  0  0  0  0
  159.0840  210.7840  156.6110 C   0  0  0  0  0  2  0  0  0  0  0  0
  161.1110  206.7130  152.6350 C   0  0  1  0  0  3  0  0  0  0  0  0
  157.1600  210.8520  155.2750 F   0  0  0  0  0  0  0  0  0  0  0  0
  161.9460  210.8980  150.7870 C   0  0  0  0  0  2  0  0  0  0  0  0
  160.8070  211.0540  151.6870 N   0  0  0  0  0  0  0  0  0  0  0  0
  160.0820  206.5950  153.7720 C   0  0  0  0  0  2  0  0  0  0  0  0
  161.7370  204.6000  151.3880 C   0  0  0  0  0  2  0  0  0  0  0  0
  160.7360  205.7470  151.5080 C   0  0  2  0  0  3  0  0  0  0  0  0
  160.4790  206.4450  150.1940 C   0  0  0  0  0  3  0  0  0  0  0  0
  160.4580  206.5740  147.8490 O   0  0  0  0  0  1  0  0  0  0  0  0
  161.4470  204.5460  148.9090 C   0  0  0  0  0  2  0  0  0  0  0  0
  160.7550  205.8800  149.0140 C   0  0  0  0  0  0  0  0  0  0  0  0
  161.3570  203.7290  150.1970 C   0  0  0  0  0  2  0  0  0  0  0  0
  160.4560  212.4750  151.6070 C   0  0  0  0  0  2  0  0  0  0  0  0
  159.7890  212.8250  150.2700 C   0  0  1  0  0  3  0  0  0  0  0  0
  157.9410  213.2790  151.8840 C   0  0  0  0  0  1  0  0  0  0  0  0
  158.2980  213.0900  150.4230 C   0  0  0  0  0  2  0  0  0  0  0  0
  160.4580  214.0160  149.6000 C   0  0  0  0  0  2  0  0  0  0  0  0
  161.1370  213.5970  148.3090 C   0  0  0  0  0  2  0  0  0  0  0  0
  160.5110  212.4670  147.7840 O   0  0  0  0  0  1  0  0  0  0  0  0
  1 18  1  0  0  0  0
  4 18  1  6  0  0  0
  4  8  1  0  0  0  0
  5  2  1  1  0  0  0
  6  4  1  0  0  0  0
  7  3  1  1  0  0  0
  7 19  1  0  0  0  0
  7  5  1  0  0  0  0
  9 13  1  1  0  0  0
  9  6  1  0  0  0  0
 10  1  1  0  0  0  0
 11 16  1  0  0  0  0
 12  8  1  0  0  0  0
 13  1  1  0  0  0  0
 14 15  1  0  0  0  0
 14 21  1  0  0  0  0
 15  3  1  0  0  0  0
 16  2  1  6  0  0  0
 16 12  1  0  0  0  0
 17 22  1  6  0  0  0
 17  5  1  0  0  0  0
 17  9  1  0  0  0  0
 19 23  1  1  0  0  0
 20  1  1  0  0  0  0
 21 22  1  0  0  0  0
 23 11  1  0  0  0  0
 24 25  1  0  0  0  0
 25 26  1  6  0  0  0
 25 19  1  0  0  0  0
 27 29  1  0  0  0  0
 28 29  1  0  0  0  0
 28 30  1  0  0  0  0
 29 26  2  0  0  0  0
 30 24  1  0  0  0  0
 31 22  1  0  0  0  0
 32 35  1  1  0  0  0
 32 34  1  0  0  0  0
 32 31  1  0  0  0  0
 34 33  1  0  0  0  0
 36 35  1  0  0  0  0
 37 36  1  0  0  0  0
M  END
>  <MODEL>
2

>  <REMARK>
 VINA RESULT:      -4.7      1.659      2.196
  Name = 
  6 active torsions:
  status: ('A' for Active; 'I' for Inactive)
    1  A    between atoms: C_1  and  C_4
    2  A    between atoms: C_1  and  N_27
    3  A    between atoms: C_4  and  C_12
    4  A    between atoms: C_4  and  C_37
    5  A    between atoms: C_8  and  C_12
    6  A    between atoms: C_23  and  C_30
                            x       y       z     vdW  Elec       q    Type
                         _______ _______ _______ _____ _____    ______ ____

>  <TORSDO>
F 6

$$$$
=
 OpenBabel11122413573D

 37 41  0  0  1  0  0  0  0  0999 V2000
  158.3000  211.3810  156.1160 C   0  0  0  0  0  0  0  0  0  0  0  0
  162.0310  209.8900  154.3300 C   0  0  0  0  0  2  0  0  0  0  0  0
  162.1480  210.1710  151.1820 O   0  0  0  0  0  0  0  0  0  0  0  0
  160.6410  211.2940  156.9460 C   0  0  2  0  0  3  0  0  0  0  0  0
  161.0520  210.3920  153.2940 C   0  0  2  0  0  3  0  0  0  0  0  0
  160.9480  212.0920  155.8080 O   0  0  0  0  0  0  0  0  0  0  0  0
  161.0990  209.6520  151.9520 C   0  0  2  0  0  3  0  0  0  0  0  0
  161.7470  210.2760  157.2610 C   0  0  0  0  0  2  0  0  0  0  0  0
  159.9950  212.1220  154.7460 C   0  0  2  0  0  3  0  0  0  0  0  0
  158.0320  212.7140  156.4020 F   0  0  0  0  0  0  0  0  0  0  0  0
  161.3010  207.5770  154.5460 N   0  0  0  0  0  2  0  0  0  0  0  0
  161.6100  208.8840  156.6160 C   0  0  0  0  0  2  0  0  0  0  0  0
  158.9060  211.2230  154.8640 O   0  0  0  0  0  0  0  0  0  0  0  0
  160.6710  211.7460  149.9870 C   0  0  0  0  0  2  0  0  0  0  0  0
  161.6070  210.5310  149.9340 C   0  0  0  0  0  2  0  0  0  0  0  0
  161.2170  208.9060  155.1430 C   0  0  1  0  0  3  0  0  0  0  0  0
  160.7270  211.8950  153.4000 C   0  0  2  0  0  3  0  0  0  0  0  0
  159.2150  210.7870  157.1500 C   0  0  0  0  0  2  0  0  0  0  0  0
  161.2480  208.1120  152.1290 C   0  0  1  0  0  3  0  0  0  0  0  0
  157.1090  210.6810  156.1280 F   0  0  0  0  0  0  0  0  0  0  0  0
  160.9370  212.6530  151.1780 C   0  0  0  0  0  2  0  0  0  0  0  0
  159.9650  212.3760  152.2310 N   0  0  0  0  0  0  0  0  0  0  0  0
  160.4750  207.5510  153.3360 C   0  0  0  0  0  2  0  0  0  0  0  0
  160.8670  205.8170  151.1300 C   0  0  0  0  0  2  0  0  0  0  0  0
  160.8710  207.3220  150.8730 C   0  0  2  0  0  3  0  0  0  0  0  0
  161.6880  207.7110  149.6640 C   0  0  0  0  0  3  0  0  0  0  0  0
  162.7380  207.2830  147.6080 O   0  0  0  0  0  1  0  0  0  0  0  0
  161.6810  205.3740  148.8130 C   0  0  0  0  0  2  0  0  0  0  0  0
  162.0140  206.8390  148.7050 C   0  0  0  0  0  0  0  0  0  0  0  0
  160.5730  205.0890  149.8250 C   0  0  0  0  0  2  0  0  0  0  0  0
  159.3420  213.6710  152.5200 C   0  0  0  0  0  2  0  0  0  0  0  0
  157.8900  213.7300  152.0260 C   0  0  1  0  0  3  0  0  0  0  0  0
  156.4490  213.8210  149.9910 C   0  0  0  0  0  1  0  0  0  0  0  0
  157.7630  213.3290  150.5640 C   0  0  0  0  0  2  0  0  0  0  0  0
  156.9680  212.8700  152.8790 C   0  0  0  0  0  2  0  0  0  0  0  0
  156.1820  213.7260  153.8540 C   0  0  0  0  0  2  0  0  0  0  0  0
  155.4000  212.9160  154.6780 O   0  0  0  0  0  1  0  0  0  0  0  0
  1 20  1  0  0  0  0
  1 10  1  0  0  0  0
  1 18  1  0  0  0  0
  4 18  1  6  0  0  0
  4  8  1  0  0  0  0
  5 17  1  0  0  0  0
  5  2  1  6  0  0  0
  6  4  1  0  0  0  0
  7  3  1  6  0  0  0
  7 19  1  0  0  0  0
  7  5  1  0  0  0  0
  9 13  1  1  0  0  0
  9  6  1  0  0  0  0
 11 16  1  0  0  0  0
 12  8  1  0  0  0  0
 13  1  1  0  0  0  0
 14 21  1  0  0  0  0
 15 14  1  0  0  0  0
 15  3  1  0  0  0  0
 16  2  1  6  0  0  0
 16 12  1  0  0  0  0
 17 22  1  6  0  0  0
 17  9  1  0  0  0  0
 19 23  1  1  0  0  0
 21 22  1  0  0  0  0
 22 31  1  0  0  0  0
 23 11  1  0  0  0  0
 25 26  1  6  0  0  0
 25 24  1  0  0  0  0
 25 19  1  0  0  0  0
 27 29  1  0  0  0  0
 28 30  1  0  0  0  0
 29 28  1  0  0  0  0
 29 26  2  0  0  0  0
 30 24  1  0  0  0  0
 32 34  1  6  0  0  0
 32 31  1  0  0  0  0
 32 35  1  0  0  0  0
 33 34  1  0  0  0  0
 35 36  1  0  0  0  0
 36 37  1  0  0  0  0
M  END
>  <MODEL>
3

>  <REMARK>
 VINA RESULT:      -3.5      1.795      2.517
  Name = 
  6 active torsions:
  status: ('A' for Active; 'I' for Inactive)
    1  A    between atoms: C_1  and  C_4
    2  A    between atoms: C_1  and  N_27
    3  A    between atoms: C_4  and  C_12
    4  A    between atoms: C_4  and  C_37
    5  A    between atoms: C_8  and  C_12
    6  A    between atoms: C_23  and  C_30
                            x       y       z     vdW  Elec       q    Type
                         _______ _______ _______ _____ _____    ______ ____

>  <TORSDO>
F 6

$$$$
