=
 OpenBabel11122413593D

 37 42  0  0  1  0  0  0  0  0999 V2000
  159.1320  211.4230  156.6690 C   0  0  0  0  0  0  0  0  0  0  0  0
  161.5830  209.4880  154.4580 C   0  0  1  0  0  3  0  0  0  0  0  0
  162.3490  210.2090  151.4730 C   0  0  0  0  0  2  0  0  0  0  0  0
  161.3430  210.3730  156.8580 N   0  0  2  0  0  0  0  0  0  0  0  0
  160.7440  209.9510  153.2630 C   0  0  2  0  0  3  0  0  0  0  0  0
  161.5510  210.6880  155.4290 C   0  0  2  0  0  3  0  0  0  0  0  0
  161.1960  209.4440  151.9490 N   0  0  2  0  0  0  0  0  0  0  0  0
  162.0570  209.1490  157.2250 C   0  0  0  0  0  2  0  0  0  0  0  0
  160.5590  211.7200  154.8710 C   0  0  2  0  0  3  0  0  0  0  0  0
  159.5830  212.6190  157.2120 F   0  0  0  0  0  0  0  0  0  0  0  0
  161.1840  206.9940  154.1910 C   0  0  0  0  0  2  0  0  0  0  0  0
  161.5770  207.9100  156.4500 C   0  0  0  0  0  2  0  0  0  0  0  0
  159.2280  211.4320  155.2640 O   0  0  0  0  0  0  0  0  0  0  0  0
  160.5880  211.5080  150.1530 C   0  0  0  0  0  2  0  0  0  0  0  0
  162.0020  210.9220  150.1650 C   0  0  0  0  0  2  0  0  0  0  0  0
  160.9770  208.2220  155.0760 C   0  0  1  0  0  3  0  0  0  0  0  0
  160.6940  211.4770  153.3750 C   0  0  2  0  0  3  0  0  0  0  0  0
  159.9290  210.2490  157.2210 C   0  0  0  0  0  2  0  0  0  0  0  0
  161.5360  208.0080  151.9390 C   0  0  1  0  0  3  0  0  0  0  0  0
  157.8070  211.2540  157.0210 F   0  0  0  0  0  0  0  0  0  0  0  0
  160.4180  212.6220  151.1750 C   0  0  0  0  0  2  0  0  0  0  0  0
  159.6810  212.1420  152.4250 C   0  0  2  0  0  3  0  0  0  0  0  0
  160.5920  207.1620  152.8000 C   0  0  0  0  0  2  0  0  0  0  0  0
  162.6130  207.9780  149.5950 C   0  0  0  0  0  2  0  0  0  0  0  0
  161.5460  207.4720  150.5340 C   0  0  0  0  0  0  0  0  0  0  0  0
  160.5410  206.6820  150.1040 C   0  0  0  0  0  3  0  0  0  0  0  0
  160.9220  204.7960  148.7200 O   0  0  0  0  0  1  0  0  0  0  0  0
  161.3220  206.9370  147.7290 C   0  0  0  0  0  2  0  0  0  0  0  0
  160.4800  206.1190  148.7070 C   0  0  2  0  0  3  0  0  0  0  0  0
  162.7120  207.1610  148.3100 C   0  0  0  0  0  2  0  0  0  0  0  0
  158.9920  213.3550  153.0570 C   0  0  0  0  0  2  0  0  0  0  0  0
  157.4960  213.4180  152.7400 C   0  0  1  0  0  3  0  0  0  0  0  0
  156.3130  212.5780  154.3230 O   0  0  0  0  0  1  0  0  0  0  0  0
  156.7610  213.7350  153.8840 O   0  0  0  0  0  0  0  0  0  0  0  0
  157.1910  214.4200  151.6330 C   0  0  0  0  0  2  0  0  0  0  0  0
  156.9780  213.7190  150.3010 C   0  0  0  0  0  2  0  0  0  0  0  0
  155.7140  214.0220  149.7980 O   0  0  0  0  0  1  0  0  0  0  0  0
  1 20  1  0  0  0  0
  1 10  1  0  0  0  0
  1 18  1  0  0  0  0
  2 16  1  0  0  0  0
  2  6  1  0  0  0  0
  3  7  1  0  0  0  0
  4 18  1  0  0  0  0
  4  8  1  0  0  0  0
  5 17  1  0  0  0  0
  5  2  1  0  0  0  0
  6  4  1  0  0  0  0
  7  5  1  0  0  0  0
  9 13  1  0  0  0  0
  9  6  1  0  0  0  0
 11 16  1  0  0  0  0
 12  8  1  0  0  0  0
 13  1  1  0  0  0  0
 14 15  1  0  0  0  0
 14 21  1  0  0  0  0
 15  3  1  0  0  0  0
 16 12  1  0  0  0  0
 17  9  1  0  0  0  0
 19  7  1  0  0  0  0
 19 23  1  0  0  0  0
 21 22  1  0  0  0  0
 22 31  1  0  0  0  0
 22 17  1  0  0  0  0
 23 11  1  0  0  0  0
 24 25  1  0  0  0  0
 25 19  1  0  0  0  0
 26 25  2  0  0  0  0
 28 30  1  0  0  0  0
 28 29  1  0  0  0  0
 29 27  1  0  0  0  0
 29 26  1  0  0  0  0
 30 24  1  0  0  0  0
 32 31  1  0  0  0  0
 32 34  1  0  0  0  0
 34 33  1  0  0  0  0
 35 32  1  0  0  0  0
 36 35  1  0  0  0  0
 37 36  1  0  0  0  0
M  END
>  <MODEL>
1

>  <REMARK>
 VINA RESULT:      -6.2      0.000      0.000
  Name = 
  6 active torsions:
  status: ('A' for Active; 'I' for Inactive)
    1  A    between atoms: C_1  and  C_4
    2  A    between atoms: C_1  and  C_27
    3  A    between atoms: C_4  and  C_12
    4  A    between atoms: C_4  and  O_37
    5  A    between atoms: C_8  and  C_12
    6  A    between atoms: C_23  and  C_30
                            x       y       z     vdW  Elec       q    Type
                         _______ _______ _______ _____ _____    ______ ____

>  <TORSDO>
F 6

$$$$
=
 OpenBabel11122413593D

 37 42  0  0  1  0  0  0  0  0999 V2000
  161.7890  208.4200  148.6270 C   0  0  0  0  0  0  0  0  0  0  0  0
  161.4240  211.1310  151.3010 C   0  0  1  0  0  3  0  0  0  0  0  0
  161.3560  210.6480  154.4290 C   0  0  0  0  0  2  0  0  0  0  0  0
  162.6780  210.6560  149.1100 N   0  0  2  0  0  0  0  0  0  0  0  0
  160.7320  210.0710  152.1650 C   0  0  2  0  0  3  0  0  0  0  0  0
  162.5180  210.3470  150.5470 C   0  0  2  0  0  3  0  0  0  0  0  0
  160.2490  210.5540  153.4770 N   0  0  2  0  0  0  0  0  0  0  0  0
  162.5020  212.0900  148.8690 C   0  0  0  0  0  2  0  0  0  0  0  0
  162.3140  208.8520  150.8390 C   0  0  2  0  0  3  0  0  0  0  0  0
  163.0570  207.8870  148.4390 F   0  0  0  0  0  0  0  0  0  0  0  0
  159.4510  212.7150  151.0850 C   0  0  0  0  0  2  0  0  0  0  0  0
  161.1050  212.6040  149.2560 C   0  0  0  0  0  2  0  0  0  0  0  0
  161.3650  208.2730  149.9600 O   0  0  0  0  0  0  0  0  0  0  0  0
  160.5340  208.3490  155.1840 C   0  0  0  0  0  2  0  0  0  0  0  0
  161.1190  209.7000  155.6050 C   0  0  0  0  0  2  0  0  0  0  0  0
  160.4140  211.7850  150.3500 C   0  0  1  0  0  3  0  0  0  0  0  0
  161.7220  208.9050  152.2400 C   0  0  2  0  0  3  0  0  0  0  0  0
  161.7670  209.8950  148.2510 C   0  0  0  0  0  2  0  0  0  0  0  0
  159.5490  211.8530  153.4240 C   0  0  1  0  0  3  0  0  0  0  0  0
  160.9050  207.7480  147.8040 F   0  0  0  0  0  0  0  0  0  0  0  0
  161.4970  207.5480  154.3210 C   0  0  0  0  0  2  0  0  0  0  0  0
  161.1290  207.6180  152.8390 C   0  0  2  0  0  3  0  0  0  0  0  0
  158.6680  212.0090  152.1810 C   0  0  0  0  0  2  0  0  0  0  0  0
  159.2120  213.0490  155.6850 C   0  0  0  0  0  2  0  0  0  0  0  0
  158.7150  212.0600  154.6570 C   0  0  0  0  0  0  0  0  0  0  0  0
  157.6450  211.2740  154.8910 C   0  0  0  0  0  3  0  0  0  0  0  0
  155.6190  212.1310  155.7760 O   0  0  0  0  0  1  0  0  0  0  0  0
  157.5030  212.1230  157.2520 C   0  0  0  0  0  2  0  0  0  0  0  0
  156.7710  211.4180  156.1100 C   0  0  2  0  0  3  0  0  0  0  0  0
  158.1590  213.3960  156.7340 C   0  0  0  0  0  2  0  0  0  0  0  0
  161.6660  206.3530  152.1630 C   0  0  0  0  0  2  0  0  0  0  0  0
  160.5760  205.3100  151.9070 C   0  0  1  0  0  3  0  0  0  0  0  0
  161.6630  205.2290  150.0560 O   0  0  0  0  0  1  0  0  0  0  0  0
  160.4520  205.0490  150.5410 O   0  0  0  0  0  0  0  0  0  0  0  0
  160.8420  204.0120  152.6610 C   0  0  0  0  0  2  0  0  0  0  0  0
  160.7400  202.8100  151.7370 C   0  0  0  0  0  2  0  0  0  0  0  0
  161.9910  202.2110  151.5920 O   0  0  0  0  0  1  0  0  0  0  0  0
  1 13  1  0  0  0  0
  2  5  1  0  0  0  0
  3 15  1  0  0  0  0
  4  6  1  0  0  0  0
  5 17  1  0  0  0  0
  5  7  1  0  0  0  0
  6  9  1  0  0  0  0
  6  2  1  0  0  0  0
  7  3  1  0  0  0  0
  8  4  1  0  0  0  0
  8 12  1  0  0  0  0
  9 17  1  0  0  0  0
 10  1  1  0  0  0  0
 11 23  1  0  0  0  0
 12 16  1  0  0  0  0
 13  9  1  0  0  0  0
 14 15  1  0  0  0  0
 16 11  1  0  0  0  0
 16  2  1  0  0  0  0
 17 22  1  0  0  0  0
 18  1  1  0  0  0  0
 18  4  1  0  0  0  0
 19  7  1  0  0  0  0
 19 25  1  0  0  0  0
 20  1  1  0  0  0  0
 21 14  1  0  0  0  0
 22 21  1  0  0  0  0
 23 19  1  0  0  0  0
 24 30  1  0  0  0  0
 25 26  2  0  0  0  0
 25 24  1  0  0  0  0
 26 29  1  0  0  0  0
 27 29  1  0  0  0  0
 29 28  1  0  0  0  0
 30 28  1  0  0  0  0
 31 22  1  0  0  0  0
 32 31  1  0  0  0  0
 32 35  1  0  0  0  0
 33 34  1  0  0  0  0
 34 32  1  0  0  0  0
 36 35  1  0  0  0  0
 37 36  1  0  0  0  0
M  END
>  <MODEL>
2

>  <REMARK>
 VINA RESULT:      -6.1      3.177      8.094
  Name = 
  6 active torsions:
  status: ('A' for Active; 'I' for Inactive)
    1  A    between atoms: C_1  and  C_4
    2  A    between atoms: C_1  and  C_27
    3  A    between atoms: C_4  and  C_12
    4  A    between atoms: C_4  and  O_37
    5  A    between atoms: C_8  and  C_12
    6  A    between atoms: C_23  and  C_30
                            x       y       z     vdW  Elec       q    Type
                         _______ _______ _______ _____ _____    ______ ____

>  <TORSDO>
F 6

$$$$
=
 OpenBabel11122413593D

 37 42  0  0  1  0  0  0  0  0999 V2000
  162.7280  206.1950  147.4610 C   0  0  0  0  0  0  0  0  0  0  0  0
  160.6180  206.2370  150.6520 C   0  0  1  0  0  3  0  0  0  0  0  0
  159.7550  208.8200  152.2660 C   0  0  0  0  0  2  0  0  0  0  0  0
  160.7100  205.1120  148.3450 N   0  0  2  0  0  0  0  0  0  0  0  0
  161.3770  207.5110  151.0390 C   0  0  2  0  0  3  0  0  0  0  0  0
  160.4580  206.3440  149.1210 C   0  0  2  0  0  3  0  0  0  0  0  0
  161.0130  208.0780  152.3560 N   0  0  2  0  0  0  0  0  0  0  0  0
  160.1970  203.9400  149.0580 C   0  0  0  0  0  2  0  0  0  0  0  0
  161.2760  207.5540  148.6440 C   0  0  2  0  0  3  0  0  0  0  0  0
  162.0930  206.5590  146.2810 F   0  0  0  0  0  0  0  0  0  0  0  0
  161.4060  204.7880  152.5830 C   0  0  0  0  0  2  0  0  0  0  0  0
  160.8680  203.7190  150.4240 C   0  0  0  0  0  2  0  0  0  0  0  0
  162.6350  207.2140  148.4270 O   0  0  0  0  0  0  0  0  0  0  0  0
  161.2920  210.8480  152.0290 C   0  0  0  0  0  2  0  0  0  0  0  0
  159.9880  210.2920  152.6070 C   0  0  0  0  0  2  0  0  0  0  0  0
  161.4150  204.9950  151.0700 C   0  0  1  0  0  3  0  0  0  0  0  0
  161.1850  208.4670  149.8590 C   0  0  2  0  0  3  0  0  0  0  0  0
  162.1250  204.9140  148.0210 C   0  0  0  0  0  2  0  0  0  0  0  0
  160.9040  207.0780  153.4360 C   0  0  1  0  0  3  0  0  0  0  0  0
  164.0630  205.9640  147.1870 F   0  0  0  0  0  0  0  0  0  0  0  0
  161.2830  210.8740  150.5080 C   0  0  0  0  0  2  0  0  0  0  0  0
  162.0820  209.7160  149.9120 C   0  0  2  0  0  3  0  0  0  0  0  0
  161.9670  205.9780  153.3460 C   0  0  0  0  0  2  0  0  0  0  0  0
  160.0830  207.2140  155.8790 C   0  0  0  0  0  2  0  0  0  0  0  0
  160.9820  207.7380  154.7850 C   0  0  0  0  0  0  0  0  0  0  0  0
  161.7230  208.8530  154.9510 C   0  0  0  0  0  3  0  0  0  0  0  0
  163.0350  209.2180  156.8910 O   0  0  0  0  0  1  0  0  0  0  0  0
  160.6620  209.2570  157.1930 C   0  0  0  0  0  2  0  0  0  0  0  0
  161.8370  209.5730  156.2690 C   0  0  2  0  0  3  0  0  0  0  0  0
  160.4520  207.7490  157.2600 C   0  0  0  0  0  2  0  0  0  0  0  0
  162.5700  210.1490  148.5270 C   0  0  0  0  0  2  0  0  0  0  0  0
  162.2940  211.6250  148.2360 C   0  0  1  0  0  3  0  0  0  0  0  0
  163.1890  213.5590  147.9660 O   0  0  0  0  0  1  0  0  0  0  0  0
  163.4610  212.2770  147.8340 O   0  0  0  0  0  0  0  0  0  0  0  0
  161.2090  211.8040  147.1790 C   0  0  0  0  0  2  0  0  0  0  0  0
  160.0920  212.7020  147.6850 C   0  0  0  0  0  2  0  0  0  0  0  0
  159.3780  213.2270  146.6100 O   0  0  0  0  0  1  0  0  0  0  0  0
  1 18  1  0  0  0  0
  1 13  1  0  0  0  0
  2  5  1  0  0  0  0
  2 16  1  0  0  0  0
  3  7  1  0  0  0  0
  3 15  1  0  0  0  0
  4  8  1  0  0  0  0
  4  6  1  0  0  0  0
  5  7  1  0  0  0  0
  6  2  1  0  0  0  0
  7 19  1  0  0  0  0
  8 12  1  0  0  0  0
  9  6  1  0  0  0  0
  9 17  1  0  0  0  0
 10  1  1  0  0  0  0
 11 23  1  0  0  0  0
 12 16  1  0  0  0  0
 13  9  1  0  0  0  0
 14 15  1  0  0  0  0
 16 11  1  0  0  0  0
 17 22  1  0  0  0  0
 17  5  1  0  0  0  0
 18  4  1  0  0  0  0
 19 25  1  0  0  0  0
 20  1  1  0  0  0  0
 21 14  1  0  0  0  0
 22 21  1  0  0  0  0
 23 19  1  0  0  0  0
 24 30  1  0  0  0  0
 25 26  2  0  0  0  0
 25 24  1  0  0  0  0
 26 29  1  0  0  0  0
 28 30  1  0  0  0  0
 29 27  1  0  0  0  0
 29 28  1  0  0  0  0
 31 22  1  0  0  0  0
 32 31  1  0  0  0  0
 34 33  1  0  0  0  0
 34 32  1  0  0  0  0
 35 36  1  0  0  0  0
 35 32  1  0  0  0  0
 37 36  1  0  0  0  0
M  END
>  <MODEL>
3

>  <REMARK>
 VINA RESULT:      -4.8      4.159      7.254
  Name = 
  6 active torsions:
  status: ('A' for Active; 'I' for Inactive)
    1  A    between atoms: C_1  and  C_4
    2  A    between atoms: C_1  and  C_27
    3  A    between atoms: C_4  and  C_12
    4  A    between atoms: C_4  and  O_37
    5  A    between atoms: C_8  and  C_12
    6  A    between atoms: C_23  and  C_30
                            x       y       z     vdW  Elec       q    Type
                         _______ _______ _______ _____ _____    ______ ____

>  <TORSDO>
F 6

$$$$
=
 OpenBabel11122413593D

 37 42  0  0  1  0  0  0  0  0999 V2000
  159.6620  211.6270  155.7030 C   0  0  0  0  0  0  0  0  0  0  0  0
  161.6380  208.6680  154.2970 C   0  0  1  0  0  3  0  0  0  0  0  0
  162.6570  208.3720  151.3150 C   0  0  0  0  0  2  0  0  0  0  0  0
  161.5420  210.1920  156.3630 N   0  0  2  0  0  0  0  0  0  0  0  0
  160.9780  208.9730  152.9490 C   0  0  2  0  0  3  0  0  0  0  0  0
  161.8690  210.0580  154.9280 C   0  0  2  0  0  3  0  0  0  0  0  0
  161.3370  208.0450  151.8540 N   0  0  2  0  0  0  0  0  0  0  0  0
  161.9210  208.9810  157.0930 C   0  0  0  0  0  2  0  0  0  0  0  0
  161.1780  211.1010  154.0360 C   0  0  2  0  0  3  0  0  0  0  0  0
  160.3730  212.7890  155.9700 F   0  0  0  0  0  0  0  0  0  0  0  0
  160.6500  206.3520  154.6280 C   0  0  0  0  0  2  0  0  0  0  0  0
  161.1790  207.7230  156.6110 C   0  0  0  0  0  2  0  0  0  0  0  0
  159.8050  211.2380  154.3580 O   0  0  0  0  0  0  0  0  0  0  0  0
  161.3130  209.6360  149.5470 C   0  0  0  0  0  2  0  0  0  0  0  0
  162.5390  208.7690  149.8430 C   0  0  0  0  0  2  0  0  0  0  0  0
  160.7200  207.7850  155.1510 C   0  0  1  0  0  3  0  0  0  0  0  0
  161.3000  210.4430  152.6680 C   0  0  2  0  0  3  0  0  0  0  0  0
  160.1280  210.4940  156.6070 C   0  0  0  0  0  2  0  0  0  0  0  0
  161.3150  206.6200  152.2380 C   0  0  1  0  0  3  0  0  0  0  0  0
  158.3250  211.8640  155.9560 F   0  0  0  0  0  0  0  0  0  0  0  0
  161.3860  210.9910  150.2350 C   0  0  0  0  0  2  0  0  0  0  0  0
  160.5130  211.0430  151.4890 C   0  0  2  0  0  3  0  0  0  0  0  0
  160.1650  206.2720  153.1880 C   0  0  0  0  0  2  0  0  0  0  0  0
  160.9350  204.2760  151.2270 C   0  0  0  0  0  2  0  0  0  0  0  0
  161.2400  205.7400  151.0210 C   0  0  0  0  0  0  0  0  0  0  0  0
  161.5850  206.2280  149.8120 C   0  0  0  0  0  3  0  0  0  0  0  0
  160.3780  205.6890  147.8430 O   0  0  0  0  0  1  0  0  0  0  0  0
  161.6130  203.9050  148.8530 C   0  0  0  0  0  2  0  0  0  0  0  0
  161.5450  205.4020  148.5520 C   0  0  2  0  0  3  0  0  0  0  0  0
  160.5940  203.5510  149.9280 C   0  0  0  0  0  2  0  0  0  0  0  0
  160.1200  212.5040  151.7260 C   0  0  0  0  0  2  0  0  0  0  0  0
  159.4590  213.1450  150.5040 C   0  0  1  0  0  3  0  0  0  0  0  0
  157.9890  213.3980  152.0490 O   0  0  0  0  0  1  0  0  0  0  0  0
  158.1010  213.3700  150.7380 O   0  0  0  0  0  0  0  0  0  0  0  0
  160.1410  214.4500  150.1080 C   0  0  0  0  0  2  0  0  0  0  0  0
  160.7380  214.3560  148.7140 C   0  0  0  0  0  2  0  0  0  0  0  0
  160.0240  213.4340  147.9490 O   0  0  0  0  0  1  0  0  0  0  0  0
  1 20  1  0  0  0  0
  1 10  1  0  0  0  0
  1 18  1  0  0  0  0
  2  6  1  0  0  0  0
  2 16  1  0  0  0  0
  3  7  1  0  0  0  0
  4 18  1  0  0  0  0
  4  8  1  0  0  0  0
  5  2  1  0  0  0  0
  6  4  1  0  0  0  0
  7 19  1  0  0  0  0
  7  5  1  0  0  0  0
  9 13  1  0  0  0  0
  9  6  1  0  0  0  0
 11 16  1  0  0  0  0
 12  8  1  0  0  0  0
 13  1  1  0  0  0  0
 14 15  1  0  0  0  0
 14 21  1  0  0  0  0
 15  3  1  0  0  0  0
 16 12  1  0  0  0  0
 17  5  1  0  0  0  0
 17  9  1  0  0  0  0
 19 23  1  0  0  0  0
 21 22  1  0  0  0  0
 22 31  1  0  0  0  0
 22 17  1  0  0  0  0
 23 11  1  0  0  0  0
 25 24  1  0  0  0  0
 25 19  1  0  0  0  0
 26 25  2  0  0  0  0
 27 29  1  0  0  0  0
 28 30  1  0  0  0  0
 29 28  1  0  0  0  0
 29 26  1  0  0  0  0
 30 24  1  0  0  0  0
 32 34  1  0  0  0  0
 32 31  1  0  0  0  0
 34 33  1  0  0  0  0
 35 32  1  0  0  0  0
 36 35  1  0  0  0  0
 37 36  1  0  0  0  0
M  END
>  <MODEL>
4

>  <REMARK>
 VINA RESULT:      -4.4      1.670      2.216
  Name = 
  6 active torsions:
  status: ('A' for Active; 'I' for Inactive)
    1  A    between atoms: C_1  and  C_4
    2  A    between atoms: C_1  and  C_27
    3  A    between atoms: C_4  and  C_12
    4  A    between atoms: C_4  and  O_37
    5  A    between atoms: C_8  and  C_12
    6  A    between atoms: C_23  and  C_30
                            x       y       z     vdW  Elec       q    Type
                         _______ _______ _______ _____ _____    ______ ____

>  <TORSDO>
F 6

$$$$
=
 OpenBabel11122413593D

 37 42  0  0  1  0  0  0  0  0999 V2000
  159.7360  210.4150  154.5070 C   0  0  0  0  0  0  0  0  0  0  0  0
  161.6430  207.7720  152.5030 C   0  0  1  0  0  3  0  0  0  0  0  0
  162.9830  208.2080  149.6690 C   0  0  0  0  0  2  0  0  0  0  0  0
  161.4140  208.6660  154.9000 N   0  0  2  0  0  0  0  0  0  0  0  0
  161.1710  208.5050  151.2430 C   0  0  2  0  0  3  0  0  0  0  0  0
  161.8980  208.9010  153.5230 C   0  0  2  0  0  3  0  0  0  0  0  0
  161.5880  207.8830  149.9660 N   0  0  2  0  0  0  0  0  0  0  0  0
  161.6140  207.2680  155.2850 C   0  0  0  0  0  2  0  0  0  0  0  0
  161.3970  210.2160  152.9070 C   0  0  2  0  0  3  0  0  0  0  0  0
  160.4940  211.3770  155.1600 F   0  0  0  0  0  0  0  0  0  0  0  0
  160.4550  205.5700  152.0630 C   0  0  0  0  0  2  0  0  0  0  0  0
  160.8440  206.2760  154.3960 C   0  0  0  0  0  2  0  0  0  0  0  0
  160.0080  210.4010  153.1260 O   0  0  0  0  0  0  0  0  0  0  0  0
  161.9550  210.0440  148.2200 C   0  0  0  0  0  2  0  0  0  0  0  0
  163.0700  209.0070  148.3680 C   0  0  0  0  0  2  0  0  0  0  0  0
  160.5670  206.7870  152.9790 C   0  0  1  0  0  3  0  0  0  0  0  0
  161.6310  209.9530  151.4260 C   0  0  2  0  0  3  0  0  0  0  0  0
  160.0070  209.0340  155.0880 C   0  0  0  0  0  2  0  0  0  0  0  0
  161.4160  206.4180  149.9230 C   0  0  1  0  0  3  0  0  0  0  0  0
  158.3990  210.7100  154.6920 F   0  0  0  0  0  0  0  0  0  0  0  0
  162.0440  211.1410  149.2710 C   0  0  0  0  0  2  0  0  0  0  0  0
  161.0350  210.9340  150.4000 C   0  0  2  0  0  3  0  0  0  0  0  0
  160.1390  205.9420  150.6230 C   0  0  0  0  0  2  0  0  0  0  0  0
  160.4730  206.5730  147.5260 C   0  0  0  0  0  2  0  0  0  0  0  0
  161.4220  205.9220  148.5030 C   0  0  0  0  0  0  0  0  0  0  0  0
  162.1470  204.8360  148.1690 C   0  0  0  0  0  3  0  0  0  0  0  0
  163.3590  204.7040  146.1360 O   0  0  0  0  0  1  0  0  0  0  0  0
  160.9740  204.7020  145.9510 C   0  0  0  0  0  2  0  0  0  0  0  0
  162.1920  204.2770  146.7700 C   0  0  2  0  0  3  0  0  0  0  0  0
  160.7700  206.2060  146.0740 C   0  0  0  0  0  2  0  0  0  0  0  0
  160.7260  212.3050  151.0080 C   0  0  0  0  0  2  0  0  0  0  0  0
  160.3270  213.3430  149.9570 C   0  0  1  0  0  3  0  0  0  0  0  0
  159.7940  213.5770  147.8890 O   0  0  0  0  0  1  0  0  0  0  0  0
  159.6550  212.7370  148.8930 O   0  0  0  0  0  0  0  0  0  0  0  0
  159.4670  214.4530  150.5500 C   0  0  0  0  0  2  0  0  0  0  0  0
  158.3030  213.8810  151.3430 C   0  0  0  0  0  2  0  0  0  0  0  0
  157.0990  214.1820  150.7080 O   0  0  0  0  0  1  0  0  0  0  0  0
  1 20  1  0  0  0  0
  1 18  1  0  0  0  0
  1 10  1  0  0  0  0
  2 16  1  0  0  0  0
  2  6  1  0  0  0  0
  3  7  1  0  0  0  0
  4 18  1  0  0  0  0
  4  8  1  0  0  0  0
  5 17  1  0  0  0  0
  5  2  1  0  0  0  0
  6  4  1  0  0  0  0
  7  5  1  0  0  0  0
  9 13  1  0  0  0  0
  9  6  1  0  0  0  0
 11 16  1  0  0  0  0
 12  8  1  0  0  0  0
 13  1  1  0  0  0  0
 14 15  1  0  0  0  0
 14 21  1  0  0  0  0
 15  3  1  0  0  0  0
 16 12  1  0  0  0  0
 17  9  1  0  0  0  0
 19  7  1  0  0  0  0
 19 23  1  0  0  0  0
 21 22  1  0  0  0  0
 22 31  1  0  0  0  0
 22 17  1  0  0  0  0
 23 11  1  0  0  0  0
 24 25  1  0  0  0  0
 25 19  1  0  0  0  0
 26 25  2  0  0  0  0
 27 29  1  0  0  0  0
 28 30  1  0  0  0  0
 28 29  1  0  0  0  0
 29 26  1  0  0  0  0
 30 24  1  0  0  0  0
 32 35  1  0  0  0  0
 32 31  1  0  0  0  0
 33 34  1  0  0  0  0
 34 32  1  0  0  0  0
 35 36  1  0  0  0  0
 37 36  1  0  0  0  0
M  END
>  <MODEL>
5

>  <REMARK>
 VINA RESULT:      -3.7      1.985      3.083
  Name = 
  6 active torsions:
  status: ('A' for Active; 'I' for Inactive)
    1  A    between atoms: C_1  and  C_4
    2  A    between atoms: C_1  and  C_27
    3  A    between atoms: C_4  and  C_12
    4  A    between atoms: C_4  and  O_37
    5  A    between atoms: C_8  and  C_12
    6  A    between atoms: C_23  and  C_30
                            x       y       z     vdW  Elec       q    Type
                         _______ _______ _______ _____ _____    ______ ____

>  <TORSDO>
F 6

$$$$
=
 OpenBabel11122413593D

 37 42  0  0  1  0  0  0  0  0999 V2000
  160.0410  211.1000  153.7680 C   0  0  0  0  0  0  0  0  0  0  0  0
  161.6600  207.7010  153.0880 C   0  0  1  0  0  3  0  0  0  0  0  0
  162.9940  206.7990  150.3640 C   0  0  0  0  0  2  0  0  0  0  0  0
  161.5510  209.5260  154.8930 N   0  0  2  0  0  0  0  0  0  0  0  0
  161.2420  207.8860  151.6260 C   0  0  2  0  0  3  0  0  0  0  0  0
  162.0350  209.1230  153.5560 C   0  0  2  0  0  3  0  0  0  0  0  0
  161.5790  206.7560  150.7330 N   0  0  2  0  0  0  0  0  0  0  0  0
  161.6250  208.4010  155.8280 C   0  0  0  0  0  2  0  0  0  0  0  0
  161.6510  210.1040  152.4380 C   0  0  2  0  0  3  0  0  0  0  0  0
  160.8950  212.1730  153.9840 F   0  0  0  0  0  0  0  0  0  0  0  0
  160.2640  205.6350  153.5690 C   0  0  0  0  0  2  0  0  0  0  0  0
  160.7520  207.2050  155.4090 C   0  0  0  0  0  2  0  0  0  0  0  0
  160.2900  210.4900  152.5250 O   0  0  0  0  0  0  0  0  0  0  0  0
  162.1230  207.9550  148.2580 C   0  0  0  0  0  2  0  0  0  0  0  0
  163.1380  206.9750  148.8520 C   0  0  0  0  0  2  0  0  0  0  0  0
  160.5040  207.1060  153.9020 C   0  0  1  0  0  3  0  0  0  0  0  0
  161.8380  209.2310  151.2050 C   0  0  2  0  0  3  0  0  0  0  0  0
  160.1890  210.0650  154.8750 C   0  0  0  0  0  2  0  0  0  0  0  0
  161.2700  205.4270  151.2950 C   0  0  1  0  0  3  0  0  0  0  0  0
  158.7400  211.5660  153.7800 F   0  0  0  0  0  0  0  0  0  0  0  0
  162.3300  209.3750  148.7630 C   0  0  0  0  0  2  0  0  0  0  0  0
  161.3230  209.7480  149.8500 C   0  0  2  0  0  3  0  0  0  0  0  0
  159.9640  205.4030  152.0960 C   0  0  0  0  0  2  0  0  0  0  0  0
  161.3620  204.8550  148.7810 C   0  0  0  0  0  2  0  0  0  0  0  0
  161.2090  204.3890  150.2090 C   0  0  0  0  0  0  0  0  0  0  0  0
  160.8790  203.1160  150.5070 C   0  0  0  0  0  3  0  0  0  0  0  0
  161.9550  201.2630  149.4920 O   0  0  0  0  0  1  0  0  0  0  0  0
  160.5710  202.5970  148.0670 C   0  0  0  0  0  2  0  0  0  0  0  0
  160.7880  202.0280  149.4680 C   0  0  2  0  0  3  0  0  0  0  0  0
  161.5810  203.7050  147.8000 C   0  0  0  0  0  2  0  0  0  0  0  0
  161.1530  211.2700  149.8280 C   0  0  0  0  0  2  0  0  0  0  0  0
  161.3260  211.8650  148.4280 C   0  0  1  0  0  3  0  0  0  0  0  0
  160.0210  213.3270  149.3080 O   0  0  0  0  0  1  0  0  0  0  0  0
  160.3040  212.7740  148.1470 O   0  0  0  0  0  0  0  0  0  0  0  0
  162.6820  212.5410  148.2610 C   0  0  0  0  0  2  0  0  0  0  0  0
  162.6400  213.5940  147.1660 C   0  0  0  0  0  2  0  0  0  0  0  0
  162.6870  212.9830  145.9140 O   0  0  0  0  0  1  0  0  0  0  0  0
  1 20  1  0  0  0  0
  1 10  1  0  0  0  0
  1 18  1  0  0  0  0
  2  6  1  0  0  0  0
  2 16  1  0  0  0  0
  3  7  1  0  0  0  0
  4  8  1  0  0  0  0
  5  2  1  0  0  0  0
  6  4  1  0  0  0  0
  7 19  1  0  0  0  0
  7  5  1  0  0  0  0
  9 13  1  0  0  0  0
  9  6  1  0  0  0  0
 11 16  1  0  0  0  0
 12  8  1  0  0  0  0
 13  1  1  0  0  0  0
 14 21  1  0  0  0  0
 14 15  1  0  0  0  0
 15  3  1  0  0  0  0
 16 12  1  0  0  0  0
 17  5  1  0  0  0  0
 17  9  1  0  0  0  0
 18  4  1  0  0  0  0
 19 23  1  0  0  0  0
 21 22  1  0  0  0  0
 22 17  1  0  0  0  0
 23 11  1  0  0  0  0
 24 25  1  0  0  0  0
 25 26  2  0  0  0  0
 25 19  1  0  0  0  0
 28 29  1  0  0  0  0
 29 27  1  0  0  0  0
 29 26  1  0  0  0  0
 30 28  1  0  0  0  0
 30 24  1  0  0  0  0
 31 22  1  0  0  0  0
 32 31  1  0  0  0  0
 34 32  1  0  0  0  0
 34 33  1  0  0  0  0
 35 32  1  0  0  0  0
 36 35  1  0  0  0  0
 37 36  1  0  0  0  0
M  END
>  <MODEL>
6

>  <REMARK>
 VINA RESULT:      -3.5      2.781      4.028
  Name = 
  6 active torsions:
  status: ('A' for Active; 'I' for Inactive)
    1  A    between atoms: C_1  and  C_4
    2  A    between atoms: C_1  and  C_27
    3  A    between atoms: C_4  and  C_12
    4  A    between atoms: C_4  and  O_37
    5  A    between atoms: C_8  and  C_12
    6  A    between atoms: C_23  and  C_30
                            x       y       z     vdW  Elec       q    Type
                         _______ _______ _______ _____ _____    ______ ____

>  <TORSDO>
F 6

$$$$
=
 OpenBabel11122413593D

 37 42  0  0  1  0  0  0  0  0999 V2000
  160.8880  206.5850  148.0250 C   0  0  0  0  0  0  0  0  0  0  0  0
  162.0990  208.9160  150.8060 C   0  0  1  0  0  3  0  0  0  0  0  0
  162.1460  208.2410  153.8980 C   0  0  0  0  0  2  0  0  0  0  0  0
  162.7530  208.1230  148.4530 N   0  0  2  0  0  0  0  0  0  0  0  0
  161.0920  208.2130  151.7220 C   0  0  2  0  0  3  0  0  0  0  0  0
  162.6220  207.7930  149.8880 C   0  0  2  0  0  3  0  0  0  0  0  0
  161.0270  208.7430  153.1020 N   0  0  2  0  0  0  0  0  0  0  0  0
  163.2330  209.4950  148.2820 C   0  0  0  0  0  2  0  0  0  0  0  0
  161.7840  206.5330  150.1590 C   0  0  2  0  0  3  0  0  0  0  0  0
  161.7400  205.5540  147.6530 F   0  0  0  0  0  0  0  0  0  0  0  0
  161.0670  211.2350  150.9070 C   0  0  0  0  0  2  0  0  0  0  0  0
  162.2790  210.5500  148.8680 C   0  0  0  0  0  2  0  0  0  0  0  0
  160.5870  206.5280  149.3990 O   0  0  0  0  0  0  0  0  0  0  0  0
  160.4430  206.5070  154.6870 C   0  0  0  0  0  2  0  0  0  0  0  0
  161.6250  207.4020  155.0660 C   0  0  0  0  0  2  0  0  0  0  0  0
  161.4100  210.0400  150.0210 C   0  0  1  0  0  3  0  0  0  0  0  0
  161.4350  206.7240  151.6280 C   0  0  2  0  0  3  0  0  0  0  0  0
  161.5090  207.9370  147.7020 C   0  0  0  0  0  2  0  0  0  0  0  0
  161.0030  210.2170  153.1830 C   0  0  1  0  0  3  0  0  0  0  0  0
  159.7130  206.4630  147.3090 F   0  0  0  0  0  0  0  0  0  0  0  0
  160.8310  205.4370  153.6780 C   0  0  0  0  0  2  0  0  0  0  0  0
  160.3820  205.7980  152.2620 C   0  0  2  0  0  3  0  0  0  0  0  0
  160.1670  210.8660  152.0760 C   0  0  0  0  0  2  0  0  0  0  0  0
  161.5110  211.0780  155.5620 C   0  0  0  0  0  2  0  0  0  0  0  0
  160.4940  210.6690  154.5240 C   0  0  0  0  0  0  0  0  0  0  0  0
  159.1830  210.5650  154.8200 C   0  0  0  0  0  3  0  0  0  0  0  0
  158.0220  212.2490  156.0190 O   0  0  0  0  0  1  0  0  0  0  0  0
  159.6670  211.0170  157.2440 C   0  0  0  0  0  2  0  0  0  0  0  0
  158.6050  210.9870  156.1470 C   0  0  2  0  0  3  0  0  0  0  0  0
  160.8870  211.7900  156.7590 C   0  0  0  0  0  2  0  0  0  0  0  0
  160.2020  204.4920  151.4820 C   0  0  0  0  0  2  0  0  0  0  0  0
  161.4720  203.6410  151.4490 C   0  0  1  0  0  3  0  0  0  0  0  0
  162.3320  201.7520  152.0040 O   0  0  0  0  0  1  0  0  0  0  0  0
  161.3920  202.5970  152.3740 O   0  0  0  0  0  0  0  0  0  0  0  0
  161.7480  203.0820  150.0580 C   0  0  0  0  0  2  0  0  0  0  0  0
  160.4540  202.8130  149.3080 C   0  0  0  0  0  2  0  0  0  0  0  0
  160.1820  201.4460  149.3000 O   0  0  0  0  0  1  0  0  0  0  0  0
  1 13  1  0  0  0  0
  2  5  1  0  0  0  0
  3 15  1  0  0  0  0
  4  6  1  0  0  0  0
  5  7  1  0  0  0  0
  6  9  1  0  0  0  0
  6  2  1  0  0  0  0
  7 19  1  0  0  0  0
  7  3  1  0  0  0  0
  8  4  1  0  0  0  0
  8 12  1  0  0  0  0
  9 17  1  0  0  0  0
 10  1  1  0  0  0  0
 11 23  1  0  0  0  0
 12 16  1  0  0  0  0
 13  9  1  0  0  0  0
 14 15  1  0  0  0  0
 16  2  1  0  0  0  0
 16 11  1  0  0  0  0
 17  5  1  0  0  0  0
 17 22  1  0  0  0  0
 18  1  1  0  0  0  0
 18  4  1  0  0  0  0
 19 25  1  0  0  0  0
 20  1  1  0  0  0  0
 21 14  1  0  0  0  0
 22 21  1  0  0  0  0
 23 19  1  0  0  0  0
 24 30  1  0  0  0  0
 25 26  2  0  0  0  0
 25 24  1  0  0  0  0
 26 29  1  0  0  0  0
 27 29  1  0  0  0  0
 29 28  1  0  0  0  0
 30 28  1  0  0  0  0
 31 22  1  0  0  0  0
 32 31  1  0  0  0  0
 32 34  1  0  0  0  0
 33 34  1  0  0  0  0
 35 32  1  0  0  0  0
 36 35  1  0  0  0  0
 37 36  1  0  0  0  0
M  END
>  <MODEL>
7

>  <REMARK>
 VINA RESULT:      -3.4      3.466      8.450
  Name = 
  6 active torsions:
  status: ('A' for Active; 'I' for Inactive)
    1  A    between atoms: C_1  and  C_4
    2  A    between atoms: C_1  and  C_27
    3  A    between atoms: C_4  and  C_12
    4  A    between atoms: C_4  and  O_37
    5  A    between atoms: C_8  and  C_12
    6  A    between atoms: C_23  and  C_30
                            x       y       z     vdW  Elec       q    Type
                         _______ _______ _______ _____ _____    ______ ____

>  <TORSDO>
F 6

$$$$
