=
 OpenBabel11122413433D

 37 44  0  0  1  0  0  0  0  0999 V2000
  160.5230  206.9040  150.6970 C   0  0  0  0  0  2  0  0  0  0  0  0
  160.5490  208.0750  155.5280 C   0  0  0  0  0  0  0  0  0  0  0  0
  160.2510  210.9760  152.5770 C   0  0  0  0  0  0  0  0  0  0  0  0
  160.9990  205.5710  150.3260 N   0  0  0  0  0  0  0  0  0  0  0  0
  162.1880  210.2700  149.2460 C   0  0  0  0  0  2  0  0  0  0  0  0
  160.0930  210.4450  154.9500 C   0  0  0  0  0  0  0  0  0  0  0  0
  160.9150  210.3290  151.4280 C   0  0  0  0  0  0  0  0  0  0  0  0
  162.0280  206.4660  148.2230 C   0  0  2  0  0  3  0  0  0  0  0  0
  160.2140  210.0880  153.5500 C   0  0  0  0  0  0  0  0  0  0  0  0
  161.2390  210.9210  150.2360 C   0  0  0  0  0  0  0  0  0  0  0  0
  159.8680  211.6800  155.2930 N   0  0  0  0  0  0  0  0  0  0  0  0
  162.0380  205.3830  149.3100 C   0  0  0  0  0  2  0  0  0  0  0  0
  160.7580  208.8460  153.1810 N   0  0  0  0  0  0  0  0  0  0  0  0
  159.2050  207.3800  155.4030 C   0  0  0  0  0  1  0  0  0  0  0  0
  160.0670  213.3640  152.0030 C   0  0  0  0  0  3  0  0  0  0  0  0
  159.6380  212.7620  154.3180 C   0  0  0  0  0  2  0  0  0  0  0  0
  161.3170  207.9470  154.1910 C   0  0  0  0  0  2  0  0  0  0  0  0
  162.7420  207.7860  148.5790 C   0  0  1  0  0  3  0  0  0  0  0  0
  161.7760  208.8510  149.0440 C   0  0  1  0  0  3  0  0  0  0  0  0
  160.0500  212.3940  152.9020 C   0  0  0  0  0  0  0  0  0  0  0  0
  161.2370  208.9720  151.8750 N   0  0  0  0  0  0  0  0  0  0  0  0
  160.3430  209.4510  155.9020 O   0  0  0  0  0  0  0  0  0  0  0  0
  160.7290  212.2590  149.7860 C   0  0  0  0  0  0  0  0  0  0  0  0
  161.3440  207.3830  156.6150 C   0  0  0  0  0  1  0  0  0  0  0  0
  162.6810  208.1900  150.0530 C   0  0  1  0  0  3  0  0  0  0  0  0
  160.7520  206.6640  147.6890 O   0  0  0  0  0  1  0  0  0  0  0  0
  161.6970  207.7830  151.1360 C   0  0  2  0  0  3  0  0  0  0  0  0
  160.2880  213.2620  150.5570 C   0  0  0  0  0  3  0  0  0  0  0  0
  161.8960  212.9970  147.7070 C   0  0  0  0  0  3  0  0  0  0  0  0
  160.7280  212.5530  148.3380 C   0  0  0  0  0  0  0  0  0  0  0  0
  159.5560  212.4310  147.5810 C   0  0  0  0  0  3  0  0  0  0  0  0
  158.1060  212.6010  145.2670 Cl  0  0  0  0  0  0  0  0  0  0  0  0
  160.7500  213.1960  145.6370 C   0  0  0  0  0  3  0  0  0  0  0  0
  159.5630  212.7560  146.2250 C   0  0  0  0  0  0  0  0  0  0  0  0
  161.8840  213.3030  146.3830 N   0  0  0  0  0  0  0  0  0  0  0  0
  160.9630  203.8420  152.0210 C   0  0  0  0  0  2  0  0  0  0  0  0
  160.4410  204.4020  150.9320 C   0  0  0  0  0  3  0  0  0  0  0  0
  1 27  1  0  0  0  0
  2 22  1  0  0  0  0
  2 24  1  0  0  0  0
  3 20  1  0  0  0  0
  3  9  2  0  0  0  0
  4  1  1  0  0  0  0
  4 37  1  0  0  0  0
  5 10  1  0  0  0  0
  6 11  2  0  0  0  0
  6 22  1  0  0  0  0
  7 21  1  0  0  0  0
  7  3  1  0  0  0  0
  8 26  1  1  0  0  0
  8 18  1  0  0  0  0
  8 12  1  0  0  0  0
  9  6  1  0  0  0  0
 10  7  2  0  0  0  0
 12  4  1  0  0  0  0
 13  9  1  0  0  0  0
 13 17  1  0  0  0  0
 14  2  1  0  0  0  0
 15 20  2  0  0  0  0
 16 11  1  0  0  0  0
 17  2  1  0  0  0  0
 18 19  1  0  0  0  0
 18 25  1  0  0  0  0
 19  5  1  0  0  0  0
 19 25  1  0  0  0  0
 20 16  1  0  0  0  0
 21 13  1  0  0  0  0
 23 10  1  0  0  0  0
 23 28  2  0  0  0  0
 25 27  1  0  0  0  0
 27 21  1  0  0  0  0
 28 15  1  0  0  0  0
 29 30  1  0  0  0  0
 30 23  1  0  0  0  0
 31 30  2  0  0  0  0
 32 34  1  0  0  0  0
 33 34  2  0  0  0  0
 33 35  1  0  0  0  0
 34 31  1  0  0  0  0
 35 29  2  0  0  0  0
 37 36  2  0  0  0  0
M  END
>  <MODEL>
1

>  <REMARK>
 VINA RESULT:      -5.8      0.000      0.000
  Name = 
  2 active torsions:
  status: ('A' for Active; 'I' for Inactive)
    1  A    between atoms: N_4  and  C_37
    2  A    between atoms: C_23  and  C_30
                            x       y       z     vdW  Elec       q    Type
                         _______ _______ _______ _____ _____    ______ ____

>  <TORSDO>
F 2

$$$$
=
 OpenBabel11122413433D

 37 44  0  0  1  0  0  0  0  0999 V2000
  160.5740  210.5780  147.7400 C   0  0  0  0  0  2  0  0  0  0  0  0
  161.5620  205.9070  146.3540 C   0  0  0  0  0  0  0  0  0  0  0  0
  161.0520  206.9440  150.3390 C   0  0  0  0  0  0  0  0  0  0  0  0
  160.8390  211.6370  146.7670 N   0  0  0  0  0  0  0  0  0  0  0  0
  162.2970  210.5100  151.3780 C   0  0  0  0  0  2  0  0  0  0  0  0
  161.2570  205.1520  148.6990 C   0  0  0  0  0  0  0  0  0  0  0  0
  161.4360  208.3690  150.3470 C   0  0  0  0  0  0  0  0  0  0  0  0
  161.5730  213.1980  148.5870 C   0  0  2  0  0  3  0  0  0  0  0  0
  161.0940  206.5410  149.0850 C   0  0  0  0  0  0  0  0  0  0  0  0
  161.6060  209.1600  151.4530 C   0  0  0  0  0  0  0  0  0  0  0  0
  161.2230  204.2150  149.6000 N   0  0  0  0  0  0  0  0  0  0  0  0
  161.6610  212.8030  147.1060 C   0  0  0  0  0  2  0  0  0  0  0  0
  161.4360  207.5690  148.1900 N   0  0  0  0  0  0  0  0  0  0  0  0
  160.1530  206.0800  145.8160 C   0  0  0  0  0  1  0  0  0  0  0  0
  161.0170  206.2320  152.6970 C   0  0  0  0  0  3  0  0  0  0  0  0
  160.9380  204.4710  151.0250 C   0  0  0  0  0  2  0  0  0  0  0  0
  162.0680  207.2610  146.9050 C   0  0  0  0  0  2  0  0  0  0  0  0
  162.4680  212.3980  149.5530 C   0  0  1  0  0  3  0  0  0  0  0  0
  161.7130  211.2880  150.2480 C   0  0  1  0  0  3  0  0  0  0  0  0
  161.0570  205.9370  151.4080 C   0  0  0  0  0  0  0  0  0  0  0  0
  161.6900  208.7150  148.9480 N   0  0  0  0  0  0  0  0  0  0  0  0
  161.5660  204.8780  147.3620 O   0  0  0  0  0  0  0  0  0  0  0  0
  161.1650  208.7880  152.8390 C   0  0  0  0  0  0  0  0  0  0  0  0
  162.4590  205.4810  145.2120 C   0  0  0  0  0  1  0  0  0  0  0  0
  162.7070  210.9360  149.1710 C   0  0  1  0  0  3  0  0  0  0  0  0
  160.2500  213.2970  149.0270 O   0  0  0  0  0  1  0  0  0  0  0  0
  161.8910  210.0140  148.2820 C   0  0  2  0  0  3  0  0  0  0  0  0
  160.9710  207.5560  153.3260 C   0  0  0  0  0  3  0  0  0  0  0  0
  161.8320  210.0640  154.8780 C   0  0  0  0  0  3  0  0  0  0  0  0
  160.9420  209.8760  153.8130 C   0  0  0  0  0  0  0  0  0  0  0  0
  159.8210  210.7100  153.7150 C   0  0  0  0  0  3  0  0  0  0  0  0
  158.2100  212.7560  154.5530 Cl  0  0  0  0  0  0  0  0  0  0  0  0
  160.5160  211.8530  155.7150 C   0  0  0  0  0  3  0  0  0  0  0  0
  159.6030  211.7020  154.6690 C   0  0  0  0  0  0  0  0  0  0  0  0
  161.6050  211.0400  155.7950 N   0  0  0  0  0  0  0  0  0  0  0  0
  159.4180  212.4870  145.0000 C   0  0  0  0  0  2  0  0  0  0  0  0
  160.2790  211.5790  145.4520 C   0  0  0  0  0  3  0  0  0  0  0  0
  1 27  1  0  0  0  0
  2 17  1  0  0  0  0
  2 22  1  0  0  0  0
  3  7  1  0  0  0  0
  3 20  1  0  0  0  0
  4 12  1  0  0  0  0
  4  1  1  0  0  0  0
  5 10  1  0  0  0  0
  6  9  1  0  0  0  0
  6 11  2  0  0  0  0
  7 10  2  0  0  0  0
  8 26  1  1  0  0  0
  8 18  1  0  0  0  0
  9  3  2  0  0  0  0
 10 23  1  0  0  0  0
 11 16  1  0  0  0  0
 12  8  1  0  0  0  0
 13 21  1  0  0  0  0
 13  9  1  0  0  0  0
 14  2  1  0  0  0  0
 15 28  1  0  0  0  0
 16 20  1  0  0  0  0
 17 13  1  0  0  0  0
 18 19  1  0  0  0  0
 19  5  1  0  0  0  0
 20 15  2  0  0  0  0
 21  7  1  0  0  0  0
 22  6  1  0  0  0  0
 23 28  2  0  0  0  0
 23 30  1  0  0  0  0
 24  2  1  0  0  0  0
 25 18  1  0  0  0  0
 25 19  1  0  0  0  0
 27 21  1  0  0  0  0
 27 25  1  0  0  0  0
 29 35  1  0  0  0  0
 30 29  2  0  0  0  0
 31 30  1  0  0  0  0
 31 34  2  0  0  0  0
 32 34  1  0  0  0  0
 33 35  2  0  0  0  0
 34 33  1  0  0  0  0
 36 37  2  0  0  0  0
 37  4  1  0  0  0  0
M  END
>  <MODEL>
2

>  <REMARK>
 VINA RESULT:      -5.5      2.653      7.259
  Name = 
  2 active torsions:
  status: ('A' for Active; 'I' for Inactive)
    1  A    between atoms: N_4  and  C_37
    2  A    between atoms: C_23  and  C_30
                            x       y       z     vdW  Elec       q    Type
                         _______ _______ _______ _____ _____    ______ ____

>  <TORSDO>
F 2

$$$$
=
 OpenBabel11122413433D

 37 44  0  0  1  0  0  0  0  0999 V2000
  160.7420  207.6800  151.3050 C   0  0  0  0  0  2  0  0  0  0  0  0
  160.4870  208.2880  156.2320 C   0  0  0  0  0  0  0  0  0  0  0  0
  159.5300  211.3480  153.5990 C   0  0  0  0  0  0  0  0  0  0  0  0
  161.5140  206.5420  150.8080 N   0  0  0  0  0  0  0  0  0  0  0  0
  161.5840  211.4770  150.2660 C   0  0  0  0  0  2  0  0  0  0  0  0
  159.4950  210.5380  155.8980 C   0  0  0  0  0  0  0  0  0  0  0  0
  160.3280  211.0010  152.4070 C   0  0  0  0  0  0  0  0  0  0  0  0
  162.3120  207.8740  148.8400 C   0  0  2  0  0  3  0  0  0  0  0  0
  159.6980  210.3750  154.4710 C   0  0  0  0  0  0  0  0  0  0  0  0
  160.5080  211.7790  151.2930 C   0  0  0  0  0  0  0  0  0  0  0  0
  158.9900  211.6430  156.3630 N   0  0  0  0  0  0  0  0  0  0  0  0
  162.5700  206.7100  149.8060 C   0  0  0  0  0  2  0  0  0  0  0  0
  160.5160  209.3400  153.9870 N   0  0  0  0  0  0  0  0  0  0  0  0
  159.3410  207.3200  155.9980 C   0  0  0  0  0  1  0  0  0  0  0  0
  158.7990  213.6790  153.2780 C   0  0  0  0  0  3  0  0  0  0  0  0
  158.5160  212.7430  155.5030 C   0  0  0  0  0  2  0  0  0  0  0  0
  161.2670  208.4870  154.9110 C   0  0  0  0  0  2  0  0  0  0  0  0
  162.6990  209.2760  149.3530 C   0  0  1  0  0  3  0  0  0  0  0  0
  161.5120  210.0330  149.9030 C   0  0  1  0  0  3  0  0  0  0  0  0
  159.0050  212.6380  154.0670 C   0  0  0  0  0  0  0  0  0  0  0  0
  160.9540  209.7150  152.7150 N   0  0  0  0  0  0  0  0  0  0  0  0
  159.9670  209.5300  156.7450 O   0  0  0  0  0  0  0  0  0  0  0  0
  159.7030  213.0050  150.9750 C   0  0  0  0  0  0  0  0  0  0  0  0
  161.4190  207.6830  157.2600 C   0  0  0  0  0  1  0  0  0  0  0  0
  162.5440  209.4910  150.8600 C   0  0  1  0  0  3  0  0  0  0  0  0
  161.0250  207.8310  148.2960 O   0  0  0  0  0  1  0  0  0  0  0  0
  161.6790  208.7520  151.8660 C   0  0  2  0  0  3  0  0  0  0  0  0
  159.0400  213.7890  151.8350 C   0  0  0  0  0  3  0  0  0  0  0  0
  160.7590  214.0120  148.9500 C   0  0  0  0  0  3  0  0  0  0  0  0
  159.6360  213.4480  149.5670 C   0  0  0  0  0  0  0  0  0  0  0  0
  158.4440  213.3490  148.8370 C   0  0  0  0  0  3  0  0  0  0  0  0
  156.9060  213.6870  146.6010 Cl  0  0  0  0  0  0  0  0  0  0  0  0
  159.5320  214.3690  146.9500 C   0  0  0  0  0  3  0  0  0  0  0  0
  158.3880  213.8120  147.5240 C   0  0  0  0  0  0  0  0  0  0  0  0
  160.6860  214.4530  147.6670 N   0  0  0  0  0  0  0  0  0  0  0  0
  160.8060  204.2510  150.4630 C   0  0  0  0  0  2  0  0  0  0  0  0
  161.2420  205.2160  151.2700 C   0  0  0  0  0  3  0  0  0  0  0  0
  1 27  1  0  0  0  0
  2 22  1  0  0  0  0
  2 24  1  0  0  0  0
  3 20  1  0  0  0  0
  3  9  2  0  0  0  0
  4 37  1  0  0  0  0
  4  1  1  0  0  0  0
  5 10  1  0  0  0  0
  6 11  2  0  0  0  0
  6 22  1  0  0  0  0
  7 21  1  0  0  0  0
  7  3  1  0  0  0  0
  8 26  1  1  0  0  0
  8 18  1  0  0  0  0
  8 12  1  0  0  0  0
  9  6  1  0  0  0  0
 10  7  2  0  0  0  0
 12  4  1  0  0  0  0
 13  9  1  0  0  0  0
 13 17  1  0  0  0  0
 14  2  1  0  0  0  0
 15 20  2  0  0  0  0
 16 11  1  0  0  0  0
 17  2  1  0  0  0  0
 18 19  1  0  0  0  0
 18 25  1  0  0  0  0
 19  5  1  0  0  0  0
 19 25  1  0  0  0  0
 20 16  1  0  0  0  0
 21 13  1  0  0  0  0
 23 10  1  0  0  0  0
 23 28  2  0  0  0  0
 25 27  1  0  0  0  0
 27 21  1  0  0  0  0
 28 15  1  0  0  0  0
 29 30  1  0  0  0  0
 30 23  1  0  0  0  0
 31 30  2  0  0  0  0
 32 34  1  0  0  0  0
 33 34  2  0  0  0  0
 33 35  1  0  0  0  0
 34 31  1  0  0  0  0
 35 29  2  0  0  0  0
 36 37  2  0  0  0  0
M  END
>  <MODEL>
3

>  <REMARK>
 VINA RESULT:      -5.4      1.272      1.506
  Name = 
  2 active torsions:
  status: ('A' for Active; 'I' for Inactive)
    1  A    between atoms: N_4  and  C_37
    2  A    between atoms: C_23  and  C_30
                            x       y       z     vdW  Elec       q    Type
                         _______ _______ _______ _____ _____    ______ ____

>  <TORSDO>
F 2

$$$$
