=
 OpenBabel11122414163D

 34 41  0  0  1  0  0  0  0  0999 V2000
  160.8900  207.8580  154.1330 C   0  0  0  0  0  0  0  0  0  0  0  0
  162.2590  206.1740  152.8080 C   0  0  0  0  0  2  0  0  0  0  0  0
  158.0780  213.8110  154.4900 C   0  0  2  0  0  3  0  0  0  0  0  0
  159.3080  209.4320  155.1080 C   0  0  0  0  0  0  0  0  0  0  0  0
  158.5300  211.4470  153.7820 N   0  0  1  0  0  0  0  0  0  0  0  0
  159.9900  213.2530  154.7590 C   0  0  0  0  0  2  0  0  0  0  0  0
  159.0820  214.0940  155.4340 O   0  0  0  0  0  0  0  0  0  0  0  0
  157.0770  212.2950  156.3220 C   0  0  0  0  0  2  0  0  0  0  0  0
  162.2170  208.4850  152.0770 C   0  0  2  0  0  3  0  0  0  0  0  0
  161.6570  208.7780  148.8670 C   0  0  0  0  0  2  0  0  0  0  0  0
  159.1140  210.7250  152.6420 C   0  0  0  0  0  2  0  0  0  0  0  0
  157.3630  210.8740  155.8610 C   0  0  0  0  0  2  0  0  0  0  0  0
  161.0510  209.4300  151.7200 C   0  0  1  0  0  3  0  0  0  0  0  0
  163.0510  206.2600  151.5140 C   0  0  0  0  0  2  0  0  0  0  0  0
  158.6900  210.8170  155.1180 C   0  0  1  0  0  3  0  0  0  0  0  0
  156.8070  213.2280  155.1420 C   0  0  0  0  0  2  0  0  0  0  0  0
  161.7940  207.4960  149.7080 C   0  0  1  0  0  3  0  0  0  0  0  0
  160.2110  209.0900  154.0900 C   0  0  0  0  0  0  0  0  0  0  0  0
  158.9650  212.8550  153.7140 C   0  0  2  0  0  3  0  0  0  0  0  0
  160.4540  210.0770  152.9800 C   0  0  2  0  0  3  0  0  0  0  0  0
  159.7530  207.3080  156.2020 C   0  0  0  0  0  3  0  0  0  0  0  0
  162.2570  210.0280  149.5150 C   0  0  0  0  0  2  0  0  0  0  0  0
  159.0990  208.5410  156.1720 C   0  0  0  0  0  3  0  0  0  0  0  0
  161.4620  210.5250  150.7240 C   0  0  0  0  0  2  0  0  0  0  0  0
  162.7530  207.6310  150.9150 C   0  0  1  0  0  3  0  0  0  0  0  0
  160.6440  206.9660  155.1840 C   0  0  0  0  0  3  0  0  0  0  0  0
  161.8120  207.5250  153.0880 N   0  0  0  0  0  0  0  0  0  0  0  0
  160.5280  207.0510  150.1050 O   0  0  0  0  0  0  0  0  0  0  0  0
  160.2040  206.0260  149.2150 C   0  0  0  0  0  2  0  0  0  0  0  0
  160.4490  202.8020  149.0430 O   0  0  0  0  0  0  0  0  0  0  0  0
  161.5160  204.4900  147.7840 C   0  0  0  0  0  2  0  0  0  0  0  0
  161.3220  204.9980  149.1830 C   0  0  2  0  0  3  0  0  0  0  0  0
  161.2040  203.0160  147.8810 C   0  0  0  0  0  2  0  0  0  0  0  0
  160.8950  203.7690  149.9550 C   0  0  0  0  0  2  0  0  0  0  0  0
  1 26  1  0  0  0  0
  2 27  1  0  0  0  0
  3 16  1  1  0  0  0
  3  7  1  0  0  0  0
  4 15  1  0  0  0  0
  4 23  2  0  0  0  0
  5 11  1  6  0  0  0
  5 15  1  0  0  0  0
  6  7  1  0  0  0  0
  9 27  1  1  0  0  0
 10 22  1  0  0  0  0
 10 17  1  0  0  0  0
 12  8  1  0  0  0  0
 13 24  1  6  0  0  0
 13  9  1  0  0  0  0
 13 20  1  0  0  0  0
 14  2  1  0  0  0  0
 15 12  1  6  0  0  0
 16  8  1  0  0  0  0
 17 28  1  1  0  0  0
 17 25  1  0  0  0  0
 18  1  2  0  0  0  0
 18  4  1  0  0  0  0
 19  5  1  0  0  0  0
 19  3  1  0  0  0  0
 19  6  1  1  0  0  0
 20 11  1  6  0  0  0
 20 18  1  0  0  0  0
 22 24  1  0  0  0  0
 23 21  1  0  0  0  0
 25 14  1  1  0  0  0
 25  9  1  0  0  0  0
 26 21  2  0  0  0  0
 27  1  1  0  0  0  0
 29 28  1  0  0  0  0
 30 34  1  0  0  0  0
 31 33  1  0  0  0  0
 31 32  1  0  0  0  0
 32 29  1  6  0  0  0
 32 34  1  0  0  0  0
 33 30  1  0  0  0  0
M  END
>  <MODEL>
1

>  <REMARK>
 VINA RESULT:      -6.5      0.000      0.000
  Name = 
  3 active torsions:
  status: ('A' for Active; 'I' for Inactive)
    1  A    between atoms: C_17  and  O_28
    2  A    between atoms: O_28  and  C_29
    3  A    between atoms: C_29  and  C_32
                            x       y       z     vdW  Elec       q    Type
                         _______ _______ _______ _____ _____    ______ ____

>  <TORSDO>
F 3

$$$$
=
 OpenBabel11122414163D

 34 41  0  0  1  0  0  0  0  0999 V2000
  162.1210  207.9460  150.2790 C   0  0  0  0  0  0  0  0  0  0  0  0
  162.2960  210.2260  151.3900 C   0  0  0  0  0  2  0  0  0  0  0  0
  160.6560  201.5350  150.7520 C   0  0  2  0  0  3  0  0  0  0  0  0
  161.5590  205.7920  149.2910 C   0  0  0  0  0  0  0  0  0  0  0  0
  160.3720  204.0260  150.6690 N   0  0  1  0  0  0  0  0  0  0  0  0
  162.3050  202.5410  151.3070 C   0  0  0  0  0  2  0  0  0  0  0  0
  162.0420  201.3340  150.6280 O   0  0  0  0  0  0  0  0  0  0  0  0
  160.7410  202.1970  148.2600 C   0  0  0  0  0  2  0  0  0  0  0  0
  162.0790  208.2550  152.7850 C   0  0  2  0  0  3  0  0  0  0  0  0
  159.8080  208.6070  155.1130 C   0  0  0  0  0  2  0  0  0  0  0  0
  160.1160  205.1430  151.5910 C   0  0  0  0  0  2  0  0  0  0  0  0
  160.5620  203.7080  148.2460 C   0  0  0  0  0  2  0  0  0  0  0  0
  161.0250  207.1290  152.8180 C   0  0  1  0  0  3  0  0  0  0  0  0
  162.2020  210.6930  152.8330 C   0  0  0  0  0  2  0  0  0  0  0  0
  161.2060  204.3280  149.4770 C   0  0  1  0  0  3  0  0  0  0  0  0
  159.9400  201.5450  149.3860 C   0  0  0  0  0  2  0  0  0  0  0  0
  160.2710  209.6270  154.0580 C   0  0  1  0  0  3  0  0  0  0  0  0
  161.6710  206.6190  150.4190 C   0  0  0  0  0  0  0  0  0  0  0  0
  160.8310  202.8670  151.4580 C   0  0  2  0  0  3  0  0  0  0  0  0
  161.3320  206.0490  151.7690 C   0  0  2  0  0  3  0  0  0  0  0  0
  162.3310  207.6180  147.8860 C   0  0  0  0  0  3  0  0  0  0  0  0
  160.7960  207.4670  155.3700 C   0  0  0  0  0  2  0  0  0  0  0  0
  161.9100  206.2940  148.0290 C   0  0  0  0  0  3  0  0  0  0  0  0
  160.8970  206.4800  154.2050 C   0  0  0  0  0  2  0  0  0  0  0  0
  161.7570  209.4860  153.6510 C   0  0  1  0  0  3  0  0  0  0  0  0
  162.4340  208.4430  149.0070 C   0  0  0  0  0  3  0  0  0  0  0  0
  162.2330  208.7780  151.4390 N   0  0  0  0  0  0  0  0  0  0  0  0
  159.4260  209.5730  152.9430 O   0  0  0  0  0  0  0  0  0  0  0  0
  158.9770  210.8820  152.7610 C   0  0  0  0  0  2  0  0  0  0  0  0
  157.7540  213.6820  153.8330 O   0  0  0  0  0  0  0  0  0  0  0  0
  157.1730  211.4530  154.3560 C   0  0  0  0  0  2  0  0  0  0  0  0
  158.6520  211.5080  154.1060 C   0  0  2  0  0  3  0  0  0  0  0  0
  156.7620  212.9030  154.4460 C   0  0  0  0  0  2  0  0  0  0  0  0
  158.9530  212.9890  154.0560 C   0  0  0  0  0  2  0  0  0  0  0  0
  1 18  1  0  0  0  0
  1 27  1  0  0  0  0
  2 27  1  0  0  0  0
  2 14  1  0  0  0  0
  3 16  1  6  0  0  0
  3 19  1  0  0  0  0
  4 15  1  0  0  0  0
  4 18  2  0  0  0  0
  5 19  1  0  0  0  0
  5 11  1  1  0  0  0
  7  3  1  0  0  0  0
  7  6  1  0  0  0  0
  8 16  1  0  0  0  0
  9 27  1  6  0  0  0
  9 13  1  0  0  0  0
  9 25  1  0  0  0  0
 10 22  1  0  0  0  0
 12  8  1  0  0  0  0
 13 24  1  1  0  0  0
 15 12  1  6  0  0  0
 15  5  1  0  0  0  0
 17 28  1  6  0  0  0
 17 10  1  0  0  0  0
 18 20  1  0  0  0  0
 19  6  1  6  0  0  0
 20 11  1  6  0  0  0
 20 13  1  0  0  0  0
 21 23  2  0  0  0  0
 21 26  1  0  0  0  0
 23  4  1  0  0  0  0
 24 22  1  0  0  0  0
 25 14  1  6  0  0  0
 25 17  1  0  0  0  0
 26  1  2  0  0  0  0
 29 28  1  0  0  0  0
 30 34  1  0  0  0  0
 30 33  1  0  0  0  0
 31 33  1  0  0  0  0
 32 29  1  6  0  0  0
 32 31  1  0  0  0  0
 34 32  1  0  0  0  0
M  END
>  <MODEL>
2

>  <REMARK>
 VINA RESULT:      -6.1      1.791      8.456
  Name = 
  3 active torsions:
  status: ('A' for Active; 'I' for Inactive)
    1  A    between atoms: C_17  and  O_28
    2  A    between atoms: O_28  and  C_29
    3  A    between atoms: C_29  and  C_32
                            x       y       z     vdW  Elec       q    Type
                         _______ _______ _______ _____ _____    ______ ____

>  <TORSDO>
F 3

$$$$
=
 OpenBabel11122414163D

 34 41  0  0  1  0  0  0  0  0999 V2000
  161.8970  208.9500  152.0500 C   0  0  0  0  0  0  0  0  0  0  0  0
  161.9070  210.9380  153.6340 C   0  0  0  0  0  2  0  0  0  0  0  0
  160.9090  202.5010  151.0950 C   0  0  2  0  0  3  0  0  0  0  0  0
  161.4930  207.0280  150.6090 C   0  0  0  0  0  0  0  0  0  0  0  0
  160.4420  204.9230  151.5530 N   0  0  1  0  0  0  0  0  0  0  0  0
  162.4810  203.4780  151.8790 C   0  0  0  0  0  2  0  0  0  0  0  0
  162.3060  202.4330  150.9500 O   0  0  0  0  0  0  0  0  0  0  0  0
  160.9390  203.6960  148.8090 C   0  0  0  0  0  2  0  0  0  0  0  0
  161.8390  208.7000  154.5620 C   0  0  2  0  0  3  0  0  0  0  0  0
  159.5540  208.3710  156.8810 C   0  0  0  0  0  2  0  0  0  0  0  0
  160.1070  205.7900  152.6930 C   0  0  0  0  0  2  0  0  0  0  0  0
  160.6490  205.1560  149.1210 C   0  0  0  0  0  2  0  0  0  0  0  0
  160.8710  207.5210  154.3350 C   0  0  1  0  0  3  0  0  0  0  0  0
  161.7830  211.0720  155.1420 C   0  0  0  0  0  2  0  0  0  0  0  0
  161.2490  205.5380  150.4670 C   0  0  1  0  0  3  0  0  0  0  0  0
  160.1910  202.7570  149.7550 C   0  0  0  0  0  2  0  0  0  0  0  0
  159.9390  209.6270  156.0790 C   0  0  1  0  0  3  0  0  0  0  0  0
  161.5470  207.5950  151.8920 C   0  0  0  0  0  0  0  0  0  0  0  0
  160.9870  203.6550  152.0770 C   0  0  2  0  0  3  0  0  0  0  0  0
  161.2540  206.7210  153.0800 C   0  0  2  0  0  3  0  0  0  0  0  0
  162.1250  209.1680  149.6460 C   0  0  0  0  0  3  0  0  0  0  0  0
  160.6240  207.2760  156.8960 C   0  0  0  0  0  2  0  0  0  0  0  0
  161.8030  207.8180  149.4920 C   0  0  0  0  0  3  0  0  0  0  0  0
  160.7950  206.5780  155.5450 C   0  0  0  0  0  2  0  0  0  0  0  0
  161.4300  209.6860  155.6720 C   0  0  1  0  0  3  0  0  0  0  0  0
  162.1700  209.7330  150.9220 C   0  0  0  0  0  3  0  0  0  0  0  0
  161.9510  209.5140  153.3660 N   0  0  0  0  0  0  0  0  0  0  0  0
  159.0970  209.7570  154.9680 O   0  0  0  0  0  0  0  0  0  0  0  0
  158.1110  210.6630  155.3600 C   0  0  0  0  0  2  0  0  0  0  0  0
  158.6290  213.5080  153.9020 O   0  0  0  0  0  0  0  0  0  0  0  0
  158.5630  211.3190  153.0170 C   0  0  0  0  0  2  0  0  0  0  0  0
  157.5760  211.4010  154.1450 C   0  0  2  0  0  3  0  0  0  0  0  0
  158.9500  212.7560  152.7620 C   0  0  0  0  0  2  0  0  0  0  0  0
  157.5000  212.8800  154.4500 C   0  0  0  0  0  2  0  0  0  0  0  0
  1 27  1  0  0  0  0
  2 14  1  0  0  0  0
  3 16  1  6  0  0  0
  3 19  1  0  0  0  0
  4 18  2  0  0  0  0
  5 19  1  0  0  0  0
  5 11  1  1  0  0  0
  7  3  1  0  0  0  0
  7  6  1  0  0  0  0
  8 12  1  0  0  0  0
  8 16  1  0  0  0  0
  9 27  1  6  0  0  0
  9 25  1  0  0  0  0
 10 22  1  0  0  0  0
 13  9  1  0  0  0  0
 13 24  1  1  0  0  0
 15 12  1  6  0  0  0
 15  4  1  0  0  0  0
 15  5  1  0  0  0  0
 17 28  1  6  0  0  0
 17 10  1  0  0  0  0
 18  1  1  0  0  0  0
 18 20  1  0  0  0  0
 19  6  1  6  0  0  0
 20 11  1  6  0  0  0
 20 13  1  0  0  0  0
 21 26  1  0  0  0  0
 23 21  2  0  0  0  0
 23  4  1  0  0  0  0
 24 22  1  0  0  0  0
 25 14  1  6  0  0  0
 25 17  1  0  0  0  0
 26  1  2  0  0  0  0
 27  2  1  0  0  0  0
 28 29  1  0  0  0  0
 30 34  1  0  0  0  0
 31 32  1  0  0  0  0
 32 34  1  0  0  0  0
 32 29  1  1  0  0  0
 33 31  1  0  0  0  0
 33 30  1  0  0  0  0
M  END
>  <MODEL>
3

>  <REMARK>
 VINA RESULT:      -5.4      1.720      8.034
  Name = 
  3 active torsions:
  status: ('A' for Active; 'I' for Inactive)
    1  A    between atoms: C_17  and  O_28
    2  A    between atoms: O_28  and  C_29
    3  A    between atoms: C_29  and  C_32
                            x       y       z     vdW  Elec       q    Type
                         _______ _______ _______ _____ _____    ______ ____

>  <TORSDO>
F 3

$$$$
