=
 OpenBabel11122413073D

 31 35  0  0  1  0  0  0  0  0999 V2000
  161.0170  206.5780  146.6990 C   0  0  0  0  0  0  0  0  0  0  0  0
  160.3420  205.0860  150.1270 C   0  0  2  0  0  3  0  0  0  0  0  0
  160.8310  203.6470  150.0560 C   0  0  0  0  0  0  0  0  0  0  0  0
  160.9980  201.6230  148.6700 C   0  0  0  0  0  0  0  0  0  0  0  0
  160.9100  205.9680  149.0370 C   0  0  0  0  0  0  0  0  0  0  0  0
  161.9560  207.5160  146.9880 N   0  0  0  0  0  0  0  0  0  0  0  0
  160.8720  202.9500  148.7470 C   0  0  0  0  0  3  0  0  0  0  0  0
  161.9640  206.2180  151.7230 C   0  0  2  0  0  3  0  0  0  0  0  0
  160.6060  206.4040  145.4200 F   0  0  0  0  0  0  0  0  0  0  0  0
  161.0340  203.5780  152.5370 C   0  0  0  0  0  2  0  0  0  0  0  0
  161.0430  200.9640  147.3390 C   0  0  0  0  0  1  0  0  0  0  0  0
  162.2700  207.3220  150.7140 C   0  0  0  0  0  2  0  0  0  0  0  0
  160.5290  205.7040  151.5260 C   0  0  2  0  0  3  0  0  0  0  0  0
  160.4750  205.7940  147.7180 C   0  0  0  0  0  3  0  0  0  0  0  0
  160.9780  200.7850  149.9150 C   0  0  0  0  0  2  0  0  0  0  0  0
  161.8800  206.9560  149.3130 C   0  0  0  0  0  0  0  0  0  0  0  0
  162.3840  207.7260  148.2610 C   0  0  0  0  0  3  0  0  0  0  0  0
  160.1420  204.7400  152.5610 N   0  0  0  0  0  2  0  0  0  0  0  0
  161.0820  202.9400  151.1800 C   0  0  0  0  0  0  0  0  0  0  0  0
  161.6180  201.5370  151.0840 C   0  0  0  0  0  2  0  0  0  0  0  0
  160.4970  208.3910  152.8480 O   0  0  0  0  0  0  0  0  0  0  0  0
  161.3560  207.8250  153.5780 C   0  0  0  0  0  0  0  0  0  0  0  0
  162.1310  206.7370  153.0740 N   0  0  0  0  0  2  0  0  0  0  0  0
  159.3310  209.9630  155.9800 C   0  0  0  0  0  0  0  0  0  0  0  0
  160.4840  207.7460  155.9140 C   0  0  0  0  0  2  0  0  0  0  0  0
  162.3360  210.4170  154.2180 O   0  0  0  0  0  0  0  0  0  0  0  0
  158.3410  210.7030  155.6110 N   0  0  0  0  0  2  0  0  0  0  0  0
  159.2650  208.5450  155.8090 N   0  0  0  0  0  2  0  0  0  0  0  0
  161.7050  209.8020  155.0630 C   0  0  0  0  0  0  0  0  0  0  0  0
  161.5810  208.2920  154.9830 C   0  0  2  0  0  3  0  0  0  0  0  0
  160.9060  210.7060  156.3970 S   0  0  0  0  0  0  0  0  0  0  0  0
  1  6  2  0  0  0  0
  1 14  1  0  0  0  0
  2  5  1  6  0  0  0
  2 13  1  0  0  0  0
  3  2  1  0  0  0  0
  3 19  2  0  0  0  0
  4  7  2  0  0  0  0
  4 15  1  0  0  0  0
  5 16  1  0  0  0  0
  6 17  1  0  0  0  0
  7  3  1  0  0  0  0
  8 23  1  1  0  0  0
  9  1  1  0  0  0  0
 10 18  1  0  0  0  0
 11  4  1  0  0  0  0
 12  8  1  0  0  0  0
 13  8  1  0  0  0  0
 13 18  1  1  0  0  0
 14  5  2  0  0  0  0
 15 20  1  0  0  0  0
 16 12  1  0  0  0  0
 17 16  2  0  0  0  0
 19 10  1  0  0  0  0
 20 19  1  0  0  0  0
 21 22  2  0  0  0  0
 23 22  1  0  0  0  0
 24 31  1  0  0  0  0
 26 29  2  0  0  0  0
 27 24  2  0  0  0  0
 28 25  1  0  0  0  0
 28 24  1  0  0  0  0
 29 31  1  0  0  0  0
 30 22  1  6  0  0  0
 30 29  1  0  0  0  0
 30 25  1  0  0  0  0
M  END
>  <MODEL>
1

>  <REMARK>
 VINA RESULT:      -8.6      0.000      0.000
  Name = 
  2 active torsions:
  status: ('A' for Active; 'I' for Inactive)
    1  A    between atoms: C_5  and  C_30
    2  A    between atoms: C_10  and  N_16
                            x       y       z     vdW  Elec       q    Type
                         _______ _______ _______ _____ _____    ______ ____

>  <TORSDO>
F 2

$$$$
=
 OpenBabel11122413073D

 31 35  0  0  1  0  0  0  0  0999 V2000
  161.2740  203.9480  145.6620 C   0  0  0  0  0  0  0  0  0  0  0  0
  160.5730  205.8170  148.8960 C   0  0  2  0  0  3  0  0  0  0  0  0
  160.9790  204.8710  150.0160 C   0  0  0  0  0  0  0  0  0  0  0  0
  161.0080  202.5410  150.7990 C   0  0  0  0  0  0  0  0  0  0  0  0
  161.1720  205.4510  147.5550 C   0  0  0  0  0  0  0  0  0  0  0  0
  162.2690  204.6990  145.1220 N   0  0  0  0  0  0  0  0  0  0  0  0
  160.9590  203.4070  149.7840 C   0  0  0  0  0  3  0  0  0  0  0  0
  162.2830  207.6930  149.0120 C   0  0  2  0  0  3  0  0  0  0  0  0
  160.8330  202.8430  145.0160 F   0  0  0  0  0  0  0  0  0  0  0  0
  161.2200  206.7990  151.5750 C   0  0  0  0  0  2  0  0  0  0  0  0
  160.9940  201.0810  150.5230 C   0  0  0  0  0  1  0  0  0  0  0  0
  162.6340  207.5380  147.5350 C   0  0  0  0  0  2  0  0  0  0  0  0
  160.8180  207.2950  149.2530 C   0  0  2  0  0  3  0  0  0  0  0  0
  160.7060  204.3150  146.8830 C   0  0  0  0  0  3  0  0  0  0  0  0
  160.9620  203.0310  152.2170 C   0  0  0  0  0  2  0  0  0  0  0  0
  162.2000  206.2200  146.9680 C   0  0  0  0  0  0  0  0  0  0  0  0
  162.7300  205.8190  145.7380 C   0  0  0  0  0  3  0  0  0  0  0  0
  160.3950  207.5590  150.6330 N   0  0  0  0  0  2  0  0  0  0  0  0
  161.2080  205.3300  151.2670 C   0  0  0  0  0  0  0  0  0  0  0  0
  161.6630  204.3840  152.3460 C   0  0  0  0  0  2  0  0  0  0  0  0
  161.2610  209.9910  147.6650 O   0  0  0  0  0  0  0  0  0  0  0  0
  161.9530  210.1810  148.7030 C   0  0  0  0  0  0  0  0  0  0  0  0
  162.5020  209.0750  149.4190 N   0  0  0  0  0  2  0  0  0  0  0  0
  160.8470  213.6220  147.5300 C   0  0  0  0  0  0  0  0  0  0  0  0
  160.9010  212.2500  149.6180 C   0  0  0  0  0  2  0  0  0  0  0  0
  163.9070  211.8960  147.5490 O   0  0  0  0  0  0  0  0  0  0  0  0
  160.3300  213.8450  146.3680 N   0  0  0  0  0  2  0  0  0  0  0  0
  160.1790  212.7610  148.4550 N   0  0  0  0  0  2  0  0  0  0  0  0
  162.9850  212.3930  148.1770 C   0  0  0  0  0  0  0  0  0  0  0  0
  162.2150  211.5720  149.1940 C   0  0  2  0  0  3  0  0  0  0  0  0
  162.5360  214.1080  147.8730 S   0  0  0  0  0  0  0  0  0  0  0  0
  1 14  1  0  0  0  0
  2  5  1  6  0  0  0
  2 13  1  0  0  0  0
  2  3  1  0  0  0  0
  3 19  2  0  0  0  0
  4 15  1  0  0  0  0
  6  1  2  0  0  0  0
  6 17  1  0  0  0  0
  7  3  1  0  0  0  0
  7  4  2  0  0  0  0
  8 13  1  0  0  0  0
  8 23  1  6  0  0  0
  9  1  1  0  0  0  0
 11  4  1  0  0  0  0
 12  8  1  0  0  0  0
 13 18  1  1  0  0  0
 14  5  2  0  0  0  0
 15 20  1  0  0  0  0
 16 12  1  0  0  0  0
 16  5  1  0  0  0  0
 17 16  2  0  0  0  0
 18 10  1  0  0  0  0
 19 10  1  0  0  0  0
 19 20  1  0  0  0  0
 21 22  2  0  0  0  0
 22 23  1  0  0  0  0
 24 31  1  0  0  0  0
 24 28  1  0  0  0  0
 26 29  2  0  0  0  0
 27 24  2  0  0  0  0
 28 25  1  0  0  0  0
 29 30  1  0  0  0  0
 30 22  1  6  0  0  0
 30 25  1  0  0  0  0
 31 29  1  0  0  0  0
M  END
>  <MODEL>
2

>  <REMARK>
 VINA RESULT:      -8.1      3.662      5.033
  Name = 
  2 active torsions:
  status: ('A' for Active; 'I' for Inactive)
    1  A    between atoms: C_5  and  C_30
    2  A    between atoms: C_10  and  N_16
                            x       y       z     vdW  Elec       q    Type
                         _______ _______ _______ _____ _____    ______ ____

>  <TORSDO>
F 2

$$$$
=
 OpenBabel11122413073D

 31 35  0  0  1  0  0  0  0  0999 V2000
  160.6750  207.3500  156.3510 C   0  0  0  0  0  0  0  0  0  0  0  0
  161.8610  208.3100  152.8720 C   0  0  2  0  0  3  0  0  0  0  0  0
  161.3750  207.2030  151.9480 C   0  0  0  0  0  0  0  0  0  0  0  0
  161.0150  204.7850  151.6890 C   0  0  0  0  0  0  0  0  0  0  0  0
  161.1320  208.3510  154.1970 C   0  0  0  0  0  0  0  0  0  0  0  0
  159.7830  208.3400  156.6200 N   0  0  0  0  0  0  0  0  0  0  0  0
  161.1430  205.8430  152.4920 C   0  0  0  0  0  3  0  0  0  0  0  0
  160.4880  210.3380  152.1910 C   0  0  2  0  0  3  0  0  0  0  0  0
  160.8910  206.3700  157.2600 F   0  0  0  0  0  0  0  0  0  0  0  0
  161.5440  208.7390  149.9950 C   0  0  0  0  0  2  0  0  0  0  0  0
  160.7760  203.4400  152.2740 C   0  0  0  0  0  1  0  0  0  0  0  0
  160.0290  210.5770  153.6270 C   0  0  0  0  0  2  0  0  0  0  0  0
  161.8810  209.6880  152.1820 C   0  0  2  0  0  3  0  0  0  0  0  0
  161.3660  207.3420  155.1390 C   0  0  0  0  0  3  0  0  0  0  0  0
  161.2250  204.9270  150.2090 C   0  0  0  0  0  2  0  0  0  0  0  0
  160.2080  209.3740  154.5050 C   0  0  0  0  0  0  0  0  0  0  0  0
  159.5490  209.3450  155.7360 C   0  0  0  0  0  3  0  0  0  0  0  0
  162.4230  209.5660  150.8250 N   0  0  0  0  0  2  0  0  0  0  0  0
  161.2980  207.3930  150.6120 C   0  0  0  0  0  0  0  0  0  0  0  0
  160.7620  206.3030  149.7250 C   0  0  0  0  0  2  0  0  0  0  0  0
  158.3170  212.1790  151.9960 O   0  0  0  0  0  0  0  0  0  0  0  0
  159.3990  212.4880  151.4260 C   0  0  0  0  0  0  0  0  0  0  0  0
  160.5220  211.6070  151.4770 N   0  0  0  0  0  2  0  0  0  0  0  0
  157.9580  213.7600  148.1480 C   0  0  0  0  0  0  0  0  0  0  0  0
  158.1420  214.4530  150.5420 C   0  0  0  0  0  2  0  0  0  0  0  0
  161.1750  212.8610  149.2370 O   0  0  0  0  0  0  0  0  0  0  0  0
  157.4260  212.9900  147.2590 N   0  0  0  0  0  2  0  0  0  0  0  0
  157.3770  213.8560  149.4500 N   0  0  0  0  0  2  0  0  0  0  0  0
  160.2070  213.5970  149.3400 C   0  0  0  0  0  0  0  0  0  0  0  0
  159.5190  213.7810  150.6790 C   0  0  2  0  0  3  0  0  0  0  0  0
  159.5890  214.4500  147.8810 S   0  0  0  0  0  0  0  0  0  0  0  0
  1  6  1  0  0  0  0
  1  9  1  0  0  0  0
  2  3  1  6  0  0  0
  2  5  1  0  0  0  0
  3  7  1  0  0  0  0
  4 11  1  0  0  0  0
  4  7  2  0  0  0  0
  5 16  2  0  0  0  0
  5 14  1  0  0  0  0
  8 23  1  6  0  0  0
  8 12  1  0  0  0  0
 10 19  1  0  0  0  0
 10 18  1  0  0  0  0
 12 16  1  0  0  0  0
 13 18  1  6  0  0  0
 13  8  1  0  0  0  0
 13  2  1  0  0  0  0
 14  1  2  0  0  0  0
 15  4  1  0  0  0  0
 16 17  1  0  0  0  0
 17  6  2  0  0  0  0
 19  3  2  0  0  0  0
 20 15  1  0  0  0  0
 20 19  1  0  0  0  0
 22 23  1  0  0  0  0
 22 21  2  0  0  0  0
 24 28  1  0  0  0  0
 25 30  1  0  0  0  0
 26 29  2  0  0  0  0
 27 24  2  0  0  0  0
 28 25  1  0  0  0  0
 29 30  1  0  0  0  0
 30 22  1  6  0  0  0
 31 24  1  0  0  0  0
 31 29  1  0  0  0  0
M  END
>  <MODEL>
3

>  <REMARK>
 VINA RESULT:      -8.1      4.634      6.791
  Name = 
  2 active torsions:
  status: ('A' for Active; 'I' for Inactive)
    1  A    between atoms: C_5  and  C_30
    2  A    between atoms: C_10  and  N_16
                            x       y       z     vdW  Elec       q    Type
                         _______ _______ _______ _____ _____    ______ ____

>  <TORSDO>
F 2

$$$$
=
 OpenBabel11122413073D

 31 35  0  0  1  0  0  0  0  0999 V2000
  161.1840  202.0010  150.6880 C   0  0  0  0  0  0  0  0  0  0  0  0
  162.1740  205.2390  148.9640 C   0  0  2  0  0  3  0  0  0  0  0  0
  161.4410  205.2390  147.6300 C   0  0  0  0  0  0  0  0  0  0  0  0
  160.6960  203.8810  145.7210 C   0  0  0  0  0  0  0  0  0  0  0  0
  161.5850  204.2760  149.9730 C   0  0  0  0  0  0  0  0  0  0  0  0
  160.4820  202.4630  151.7560 N   0  0  0  0  0  0  0  0  0  0  0  0
  161.0580  203.9500  147.0040 C   0  0  0  0  0  3  0  0  0  0  0  0
  161.0680  207.1090  150.2830 C   0  0  2  0  0  3  0  0  0  0  0  0
  161.3320  200.6680  150.5000 F   0  0  0  0  0  0  0  0  0  0  0  0
  161.6600  207.7160  147.4940 C   0  0  0  0  0  2  0  0  0  0  0  0
  160.3110  202.5710  145.1340 C   0  0  0  0  0  1  0  0  0  0  0  0
  160.7850  206.1830  151.4620 C   0  0  0  0  0  2  0  0  0  0  0  0
  162.3380  206.6560  149.5460 C   0  0  2  0  0  3  0  0  0  0  0  0
  161.7510  202.9000  149.7830 C   0  0  0  0  0  3  0  0  0  0  0  0
  160.7860  205.0940  144.8410 C   0  0  0  0  0  2  0  0  0  0  0  0
  160.8610  204.7310  151.0960 C   0  0  0  0  0  0  0  0  0  0  0  0
  160.3210  203.7930  151.9810 C   0  0  0  0  0  3  0  0  0  0  0  0
  162.7280  207.5950  148.4890 N   0  0  0  0  0  2  0  0  0  0  0  0
  161.2710  206.3820  146.9280 C   0  0  0  0  0  0  0  0  0  0  0  0
  160.4950  206.3660  145.6390 C   0  0  0  0  0  2  0  0  0  0  0  0
  160.4960  207.9980  152.9330 O   0  0  0  0  0  0  0  0  0  0  0  0
  160.9290  208.8500  152.1110 C   0  0  0  0  0  0  0  0  0  0  0  0
  161.2270  208.4740  150.7660 N   0  0  0  0  0  2  0  0  0  0  0  0
  160.6060  210.6660  155.4330 C   0  0  0  0  0  0  0  0  0  0  0  0
  162.2550  210.3710  153.5780 C   0  0  0  0  0  2  0  0  0  0  0  0
  158.7910  210.6980  152.4250 O   0  0  0  0  0  0  0  0  0  0  0  0
  159.9960  210.1720  156.4570 N   0  0  0  0  0  2  0  0  0  0  0  0
  161.7630  210.0130  154.9070 N   0  0  0  0  0  2  0  0  0  0  0  0
  159.8400  210.9080  153.0130 C   0  0  0  0  0  0  0  0  0  0  0  0
  161.1310  210.2740  152.5320 C   0  0  2  0  0  3  0  0  0  0  0  0
  159.8390  211.9650  154.4680 S   0  0  0  0  0  0  0  0  0  0  0  0
  1  6  1  0  0  0  0
  2  3  1  6  0  0  0
  2 13  1  0  0  0  0
  2  5  1  0  0  0  0
  4  7  2  0  0  0  0
  5 16  2  0  0  0  0
  6 17  2  0  0  0  0
  7  3  1  0  0  0  0
  8 23  1  1  0  0  0
  8 12  1  0  0  0  0
  9  1  1  0  0  0  0
 10 18  1  0  0  0  0
 11  4  1  0  0  0  0
 13 18  1  6  0  0  0
 13  8  1  0  0  0  0
 14  5  1  0  0  0  0
 14  1  2  0  0  0  0
 15 20  1  0  0  0  0
 15  4  1  0  0  0  0
 16 12  1  0  0  0  0
 16 17  1  0  0  0  0
 19 10  1  0  0  0  0
 19  3  2  0  0  0  0
 20 19  1  0  0  0  0
 22 21  2  0  0  0  0
 23 22  1  0  0  0  0
 24 27  2  0  0  0  0
 25 28  1  0  0  0  0
 26 29  2  0  0  0  0
 28 24  1  0  0  0  0
 29 31  1  0  0  0  0
 30 22  1  1  0  0  0
 30 29  1  0  0  0  0
 30 25  1  0  0  0  0
 31 24  1  0  0  0  0
M  END
>  <MODEL>
4

>  <REMARK>
 VINA RESULT:      -6.6      2.329      4.215
  Name = 
  2 active torsions:
  status: ('A' for Active; 'I' for Inactive)
    1  A    between atoms: C_5  and  C_30
    2  A    between atoms: C_10  and  N_16
                            x       y       z     vdW  Elec       q    Type
                         _______ _______ _______ _____ _____    ______ ____

>  <TORSDO>
F 2

$$$$
=
 OpenBabel11122413073D

 31 35  0  0  1  0  0  0  0  0999 V2000
  160.4370  207.5970  155.2360 C   0  0  0  0  0  0  0  0  0  0  0  0
  162.0270  208.4000  151.8800 C   0  0  2  0  0  3  0  0  0  0  0  0
  161.4300  207.4090  150.8920 C   0  0  0  0  0  0  0  0  0  0  0  0
  160.6860  205.0930  150.5350 C   0  0  0  0  0  0  0  0  0  0  0  0
  161.2170  208.5420  153.1510 C   0  0  0  0  0  0  0  0  0  0  0  0
  159.7090  208.7210  155.4710 N   0  0  0  0  0  0  0  0  0  0  0  0
  160.9310  206.1000  151.3770 C   0  0  0  0  0  3  0  0  0  0  0  0
  161.0720  210.6450  151.1650 C   0  0  2  0  0  3  0  0  0  0  0  0
  160.4150  206.5790  156.1280 F   0  0  0  0  0  0  0  0  0  0  0  0
  162.0030  208.9270  149.0020 C   0  0  0  0  0  2  0  0  0  0  0  0
  160.1790  203.7990  151.0610 C   0  0  0  0  0  1  0  0  0  0  0  0
  160.5540  210.9340  152.5710 C   0  0  0  0  0  2  0  0  0  0  0  0
  162.3310  209.7660  151.2350 C   0  0  2  0  0  3  0  0  0  0  0  0
  161.2060  207.4920  154.0770 C   0  0  0  0  0  3  0  0  0  0  0  0
  161.0270  205.2230  149.0780 C   0  0  0  0  0  2  0  0  0  0  0  0
  160.4600  209.7020  153.4230 C   0  0  0  0  0  0  0  0  0  0  0  0
  159.7150  209.7660  154.6030 C   0  0  0  0  0  3  0  0  0  0  0  0
  162.9460  209.5760  149.9160 N   0  0  0  0  0  2  0  0  0  0  0  0
  161.4870  207.6330  149.5600 C   0  0  0  0  0  0  0  0  0  0  0  0
  160.8420  206.6660  148.6050 C   0  0  0  0  0  2  0  0  0  0  0  0
  160.5970  211.1960  148.4060 O   0  0  0  0  0  0  0  0  0  0  0  0
  161.1020  212.1150  149.1080 C   0  0  0  0  0  0  0  0  0  0  0  0
  161.3740  211.9020  150.4930 N   0  0  0  0  0  2  0  0  0  0  0  0
  160.6990  213.5560  145.6150 C   0  0  0  0  0  0  0  0  0  0  0  0
  160.1540  214.1310  147.9850 C   0  0  0  0  0  2  0  0  0  0  0  0
  163.4500  212.5790  147.5710 O   0  0  0  0  0  0  0  0  0  0  0  0
  160.4620  212.8350  144.5710 N   0  0  0  0  0  2  0  0  0  0  0  0
  159.7550  213.5940  146.6870 N   0  0  0  0  0  2  0  0  0  0  0  0
  162.4900  213.3170  147.4150 C   0  0  0  0  0  0  0  0  0  0  0  0
  161.4320  213.4420  148.4950 C   0  0  2  0  0  3  0  0  0  0  0  0
  162.3310  214.2440  145.8820 S   0  0  0  0  0  0  0  0  0  0  0  0
  1  6  1  0  0  0  0
  1  9  1  0  0  0  0
  2  3  1  6  0  0  0
  2  5  1  0  0  0  0
  3  7  1  0  0  0  0
  4 11  1  0  0  0  0
  4  7  2  0  0  0  0
  5 16  2  0  0  0  0
  5 14  1  0  0  0  0
  8 23  1  1  0  0  0
  8 13  1  0  0  0  0
  8 12  1  0  0  0  0
 10 19  1  0  0  0  0
 10 18  1  0  0  0  0
 12 16  1  0  0  0  0
 13 18  1  6  0  0  0
 13  2  1  0  0  0  0
 14  1  2  0  0  0  0
 15  4  1  0  0  0  0
 16 17  1  0  0  0  0
 17  6  2  0  0  0  0
 19  3  2  0  0  0  0
 20 15  1  0  0  0  0
 20 19  1  0  0  0  0
 21 22  2  0  0  0  0
 22 23  1  0  0  0  0
 24 31  1  0  0  0  0
 24 28  1  0  0  0  0
 25 30  1  0  0  0  0
 27 24  2  0  0  0  0
 28 25  1  0  0  0  0
 29 26  2  0  0  0  0
 29 30  1  0  0  0  0
 30 22  1  6  0  0  0
 31 29  1  0  0  0  0
M  END
>  <MODEL>
5

>  <REMARK>
 VINA RESULT:      -6.3      4.628      7.184
  Name = 
  2 active torsions:
  status: ('A' for Active; 'I' for Inactive)
    1  A    between atoms: C_5  and  C_30
    2  A    between atoms: C_10  and  N_16
                            x       y       z     vdW  Elec       q    Type
                         _______ _______ _______ _____ _____    ______ ____

>  <TORSDO>
F 2

$$$$
