=
 OpenBabel11122414113D

 28 32  0  0  1  0  0  0  0  0999 V2000
  160.7100  208.9590  155.7650 C   0  0  0  0  0  0  0  0  0  0  0  0
  158.9440  212.4270  157.2600 O   0  0  0  0  0  0  0  0  0  0  0  0
  162.0490  211.0500  150.7700 O   0  0  0  0  0  0  0  0  0  0  0  0
  162.6090  210.5520  157.0700 C   0  0  0  0  0  3  0  0  0  0  0  0
  160.0140  212.0050  151.4500 N   0  0  0  0  0  0  0  0  0  0  0  0
  159.7650  208.0670  155.0070 C   0  0  0  0  0  2  0  0  0  0  0  0
  160.2270  214.3820  156.5130 O   0  0  0  0  0  0  0  0  0  0  0  0
  159.1560  213.4000  156.1340 S   0  0  0  0  0  0  0  0  0  0  0  0
  156.9090  213.9430  154.6900 C   0  0  0  0  0  0  0  0  0  0  0  0
  159.6660  212.5430  154.6420 C   0  0  2  0  0  3  0  0  0  0  0  0
  162.2420  206.8280  152.6410 O   0  0  0  0  0  1  0  0  0  0  0  0
  159.5260  210.5440  153.2800 C   0  0  1  0  0  3  0  0  0  0  0  0
  157.4280  213.0860  153.6750 N   0  0  0  0  0  2  0  0  0  0  0  0
  157.6870  214.2520  155.8390 N   0  0  0  0  0  2  0  0  0  0  0  0
  161.4630  207.7950  153.2720 C   0  0  1  0  0  3  0  0  0  0  0  0
  160.6880  210.3630  155.5820 C   0  0  0  0  0  0  0  0  0  0  0  0
  161.0600  211.0660  151.5510 C   0  0  0  0  0  0  0  0  0  0  0  0
  155.3600  214.4460  154.6060 S   0  0  0  0  0  0  0  0  0  0  0  0
  160.8310  208.6960  152.2190 C   0  0  0  0  0  2  0  0  0  0  0  0
  161.6560  211.1420  156.2390 C   0  0  0  0  0  3  0  0  0  0  0  0
  161.6640  208.3770  156.6090 C   0  0  0  0  0  3  0  0  0  0  0  0
  162.6090  209.1700  157.2610 C   0  0  0  0  0  3  0  0  0  0  0  0
  160.4560  207.1330  154.1080 N   0  0  0  0  0  2  0  0  0  0  0  0
  159.0020  211.7350  152.4520 C   0  0  1  0  0  3  0  0  0  0  0  0
  160.8910  210.1400  152.6890 C   0  0  2  0  0  3  0  0  0  0  0  0
  158.8540  212.9170  153.4010 C   0  0  2  0  0  3  0  0  0  0  0  0
  159.8500  212.9480  150.3570 C   0  0  0  0  0  1  0  0  0  0  0  0
  159.6070  211.0260  154.7350 C   0  0  1  0  0  3  0  0  0  0  0  0
  1 21  1  0  0  0  0
  3 17  2  0  0  0  0
  4 22  1  0  0  0  0
  5 17  1  0  0  0  0
  5 24  1  0  0  0  0
  6  1  1  0  0  0  0
  8  7  2  0  0  0  0
  8  2  2  0  0  0  0
  9 14  1  0  0  0  0
 10 28  1  0  0  0  0
 10  8  1  1  0  0  0
 11 15  1  0  0  0  0
 12 28  1  0  0  0  0
 13  9  1  0  0  0  0
 14  8  1  0  0  0  0
 15 23  1  0  0  0  0
 16  1  2  0  0  0  0
 16 20  1  0  0  0  0
 17 25  1  0  0  0  0
 18  9  2  0  0  0  0
 19 25  1  0  0  0  0
 19 15  1  0  0  0  0
 20  4  2  0  0  0  0
 21 22  2  0  0  0  0
 23  6  1  0  0  0  0
 24 12  1  0  0  0  0
 24 26  1  0  0  0  0
 25 12  1  0  0  0  0
 26 13  1  0  0  0  0
 26 10  1  0  0  0  0
 27  5  1  0  0  0  0
 28 16  1  0  0  0  0
M  END
>  <MODEL>
1

>  <REMARK>
 VINA RESULT:      -5.0      0.000      0.000
  Name = 
  0 active torsions:
  status: ('A' for Active; 'I' for Inactive)
                            x       y       z     vdW  Elec       q    Type
                         _______ _______ _______ _____ _____    ______ ____

>  <TORSDO>
F 0

$$$$
=
 OpenBabel11122414113D

 28 32  0  0  1  0  0  0  0  0999 V2000
  160.1480  213.7310  149.8690 C   0  0  0  0  0  0  0  0  0  0  0  0
  159.2950  213.0300  153.8880 O   0  0  0  0  0  0  0  0  0  0  0  0
  161.4110  208.4550  148.5730 O   0  0  0  0  0  0  0  0  0  0  0  0
  157.4360  213.1200  150.2110 C   0  0  0  0  0  3  0  0  0  0  0  0
  162.1320  208.8700  150.7690 N   0  0  0  0  0  0  0  0  0  0  0  0
  161.5970  214.0230  149.5910 C   0  0  0  0  0  2  0  0  0  0  0  0
  158.1190  210.8870  154.1090 O   0  0  0  0  0  0  0  0  0  0  0  0
  159.4660  211.5390  153.9920 S   0  0  0  0  0  0  0  0  0  0  0  0
  161.7500  210.7630  155.2590 C   0  0  0  0  0  0  0  0  0  0  0  0
  160.2910  210.8930  152.5360 C   0  0  2  0  0  3  0  0  0  0  0  0
  161.6630  212.4690  146.2960 O   0  0  0  0  0  1  0  0  0  0  0  0
  161.9150  211.2520  150.7740 C   0  0  1  0  0  3  0  0  0  0  0  0
  162.2860  210.4540  153.9740 N   0  0  0  0  0  2  0  0  0  0  0  0
  160.3960  211.1740  155.3960 N   0  0  0  0  0  2  0  0  0  0  0  0
  161.5040  212.5040  147.6800 C   0  0  1  0  0  3  0  0  0  0  0  0
  159.7720  212.6980  150.7610 C   0  0  0  0  0  0  0  0  0  0  0  0
  161.6530  209.2680  149.5050 C   0  0  0  0  0  0  0  0  0  0  0  0
  162.7370  210.7950  156.5580 S   0  0  0  0  0  0  0  0  0  0  0  0
  162.2650  211.3390  148.3010 C   0  0  0  0  0  2  0  0  0  0  0  0
  158.4070  212.4020  150.9100 C   0  0  0  0  0  3  0  0  0  0  0  0
  159.1660  214.4530  149.1780 C   0  0  0  0  0  3  0  0  0  0  0  0
  157.8150  214.1500  149.3510 C   0  0  0  0  0  3  0  0  0  0  0  0
  161.9670  213.8000  148.1870 N   0  0  0  0  0  2  0  0  0  0  0  0
  162.3610  210.0320  151.6050 C   0  0  1  0  0  3  0  0  0  0  0  0
  161.4270  210.7250  149.4100 C   0  0  2  0  0  3  0  0  0  0  0  0
  161.4820  209.9830  152.8470 C   0  0  2  0  0  3  0  0  0  0  0  0
  162.5650  207.5240  151.1050 C   0  0  0  0  0  1  0  0  0  0  0  0
  160.8190  211.9560  151.5850 C   0  0  1  0  0  3  0  0  0  0  0  0
  1 16  1  0  0  0  0
  2  8  2  0  0  0  0
  3 17  2  0  0  0  0
  4 20  1  0  0  0  0
  5 27  1  0  0  0  0
  5 24  1  0  0  0  0
  6  1  1  0  0  0  0
  8  7  2  0  0  0  0
  8 14  1  0  0  0  0
  9 14  1  0  0  0  0
  9 18  2  0  0  0  0
 10 26  1  0  0  0  0
 10  8  1  1  0  0  0
 11 15  1  0  0  0  0
 12 28  1  0  0  0  0
 12 24  1  0  0  0  0
 13  9  1  0  0  0  0
 15 23  1  0  0  0  0
 15 19  1  0  0  0  0
 16 20  2  0  0  0  0
 16 28  1  0  0  0  0
 17  5  1  0  0  0  0
 19 25  1  0  0  0  0
 21 22  1  0  0  0  0
 21  1  2  0  0  0  0
 22  4  2  0  0  0  0
 23  6  1  0  0  0  0
 24 26  1  0  0  0  0
 25 17  1  0  0  0  0
 25 12  1  0  0  0  0
 26 13  1  0  0  0  0
 28 10  1  0  0  0  0
M  END
>  <MODEL>
2

>  <REMARK>
 VINA RESULT:      -3.4      2.902      6.150
  Name = 
  0 active torsions:
  status: ('A' for Active; 'I' for Inactive)
                            x       y       z     vdW  Elec       q    Type
                         _______ _______ _______ _____ _____    ______ ____

>  <TORSDO>
F 0

$$$$
=
 OpenBabel11122414113D

 28 32  0  0  1  0  0  0  0  0999 V2000
  161.5910  209.4460  154.7420 C   0  0  0  0  0  0  0  0  0  0  0  0
  162.9010  208.5650  150.8830 O   0  0  0  0  0  0  0  0  0  0  0  0
  156.9650  212.1660  153.2190 O   0  0  0  0  0  0  0  0  0  0  0  0
  160.5640  206.9840  153.8880 C   0  0  0  0  0  3  0  0  0  0  0  0
  158.6400  212.6090  151.6340 N   0  0  0  0  0  0  0  0  0  0  0  0
  162.0620  210.7770  155.2600 C   0  0  0  0  0  2  0  0  0  0  0  0
  160.9710  208.0000  149.4770 O   0  0  0  0  0  0  0  0  0  0  0  0
  161.7920  209.1260  150.0370 S   0  0  0  0  0  0  0  0  0  0  0  0
  162.4240  211.4510  148.7650 C   0  0  0  0  0  0  0  0  0  0  0  0
  160.7220  210.1840  151.0140 C   0  0  2  0  0  3  0  0  0  0  0  0
  159.0960  211.4660  157.2610 O   0  0  0  0  0  1  0  0  0  0  0  0
  160.5170  211.7570  152.8460 C   0  0  1  0  0  3  0  0  0  0  0  0
  161.6410  212.1300  149.7450 N   0  0  0  0  0  2  0  0  0  0  0  0
  162.4730  210.0310  148.7390 N   0  0  0  0  0  2  0  0  0  0  0  0
  159.8060  211.2170  156.0880 C   0  0  1  0  0  3  0  0  0  0  0  0
  161.1220  209.3090  153.4130 C   0  0  0  0  0  0  0  0  0  0  0  0
  158.1760  212.1200  152.8720 C   0  0  0  0  0  0  0  0  0  0  0  0
  163.3870  212.3100  147.7670 S   0  0  0  0  0  0  0  0  0  0  0  0
  159.3860  212.2240  155.0250 C   0  0  0  0  0  2  0  0  0  0  0  0
  160.6020  208.0670  153.0080 C   0  0  0  0  0  3  0  0  0  0  0  0
  161.5580  208.3500  155.6140 C   0  0  0  0  0  3  0  0  0  0  0  0
  161.0490  207.1240  155.1880 C   0  0  0  0  0  3  0  0  0  0  0  0
  161.2430  211.2800  156.3720 N   0  0  0  0  0  2  0  0  0  0  0  0
  160.0790  212.4630  151.5470 C   0  0  1  0  0  3  0  0  0  0  0  0
  159.2480  211.5160  153.6870 C   0  0  2  0  0  3  0  0  0  0  0  0
  160.4590  211.5540  150.3860 C   0  0  2  0  0  3  0  0  0  0  0  0
  157.8370  213.3680  150.6890 C   0  0  0  0  0  1  0  0  0  0  0  0
  161.2250  210.4640  152.4230 C   0  0  1  0  0  3  0  0  0  0  0  0
  1  6  1  0  0  0  0
  1 21  1  0  0  0  0
  4 22  1  0  0  0  0
  5 17  1  0  0  0  0
  6 23  1  0  0  0  0
  7  8  2  0  0  0  0
  8  2  2  0  0  0  0
  9 13  1  0  0  0  0
 10  8  1  6  0  0  0
 10 28  1  0  0  0  0
 12 25  1  0  0  0  0
 13 26  1  0  0  0  0
 14  9  1  0  0  0  0
 14  8  1  0  0  0  0
 15 23  1  0  0  0  0
 15 11  1  0  0  0  0
 16  1  2  0  0  0  0
 17  3  2  0  0  0  0
 17 25  1  0  0  0  0
 18  9  2  0  0  0  0
 19 15  1  0  0  0  0
 20 16  1  0  0  0  0
 20  4  2  0  0  0  0
 22 21  2  0  0  0  0
 24  5  1  0  0  0  0
 24 12  1  0  0  0  0
 25 19  1  0  0  0  0
 26 10  1  0  0  0  0
 26 24  1  0  0  0  0
 27  5  1  0  0  0  0
 28 12  1  0  0  0  0
 28 16  1  0  0  0  0
M  END
>  <MODEL>
3

>  <REMARK>
 VINA RESULT:      -3.1      3.135      5.483
  Name = 
  0 active torsions:
  status: ('A' for Active; 'I' for Inactive)
                            x       y       z     vdW  Elec       q    Type
                         _______ _______ _______ _____ _____    ______ ____

>  <TORSDO>
F 0

$$$$
=
 OpenBabel11122414113D

 28 32  0  0  1  0  0  0  0  0999 V2000
  159.4150  213.9030  149.5140 C   0  0  0  0  0  0  0  0  0  0  0  0
  157.0320  214.4530  152.8900 O   0  0  0  0  0  0  0  0  0  0  0  0
  161.1990  208.7880  150.8420 O   0  0  0  0  0  0  0  0  0  0  0  0
  156.8070  212.9970  149.0410 C   0  0  0  0  0  3  0  0  0  0  0  0
  160.9680  210.0280  152.8230 N   0  0  0  0  0  0  0  0  0  0  0  0
  160.8470  214.3230  149.6990 C   0  0  0  0  0  2  0  0  0  0  0  0
  155.9100  212.3430  153.4480 O   0  0  0  0  0  0  0  0  0  0  0  0
  157.1770  213.1340  153.5980 S   0  0  0  0  0  0  0  0  0  0  0  0
  158.7750  213.2200  155.8040 C   0  0  0  0  0  0  0  0  0  0  0  0
  158.5310  212.1860  152.9000 C   0  0  2  0  0  3  0  0  0  0  0  0
  162.2640  211.7920  147.4940 O   0  0  0  0  0  1  0  0  0  0  0  0
  160.7190  212.2020  151.8580 C   0  0  1  0  0  3  0  0  0  0  0  0
  159.7880  212.5930  155.0200 N   0  0  0  0  0  2  0  0  0  0  0  0
  157.4720  213.4200  155.2710 N   0  0  0  0  0  2  0  0  0  0  0  0
  161.5610  212.2600  148.6030 C   0  0  1  0  0  3  0  0  0  0  0  0
  158.7330  213.1800  150.5230 C   0  0  0  0  0  0  0  0  0  0  0  0
  161.0290  209.8940  151.4210 C   0  0  0  0  0  0  0  0  0  0  0  0
  159.1550  213.8490  157.2600 S   0  0  0  0  0  0  0  0  0  0  0  0
  162.0310  211.5150  149.8460 C   0  0  0  0  0  2  0  0  0  0  0  0
  157.4290  212.7270  150.2610 C   0  0  0  0  0  3  0  0  0  0  0  0
  158.7780  214.1770  148.2970 C   0  0  0  0  0  3  0  0  0  0  0  0
  157.4790  213.7280  148.0620 C   0  0  0  0  0  3  0  0  0  0  0  0
  161.7550  213.7080  148.7210 N   0  0  0  0  0  2  0  0  0  0  0  0
  160.8170  211.4220  153.1850 C   0  0  1  0  0  3  0  0  0  0  0  0
  160.8310  211.1750  150.7140 C   0  0  2  0  0  3  0  0  0  0  0  0
  159.5140  211.6460  153.9410 C   0  0  2  0  0  3  0  0  0  0  0  0
  161.2560  208.9630  153.7700 C   0  0  0  0  0  1  0  0  0  0  0  0
  159.3750  212.9430  151.8850 C   0  0  1  0  0  3  0  0  0  0  0  0
  1  6  1  0  0  0  0
  1 16  1  0  0  0  0
  2  8  2  0  0  0  0
  3 17  2  0  0  0  0
  4 20  1  0  0  0  0
  5 24  1  0  0  0  0
  5 27  1  0  0  0  0
  7  8  2  0  0  0  0
  8 14  1  0  0  0  0
  9 18  2  0  0  0  0
 10  8  1  1  0  0  0
 10 26  1  0  0  0  0
 11 15  1  0  0  0  0
 12 28  1  0  0  0  0
 12 24  1  0  0  0  0
 13  9  1  0  0  0  0
 14  9  1  0  0  0  0
 15 23  1  0  0  0  0
 15 19  1  0  0  0  0
 16 28  1  0  0  0  0
 17  5  1  0  0  0  0
 19 25  1  0  0  0  0
 20 16  2  0  0  0  0
 21  1  2  0  0  0  0
 22 21  1  0  0  0  0
 22  4  2  0  0  0  0
 23  6  1  0  0  0  0
 24 26  1  0  0  0  0
 25 17  1  0  0  0  0
 25 12  1  0  0  0  0
 26 13  1  0  0  0  0
 28 10  1  0  0  0  0
M  END
>  <MODEL>
4

>  <REMARK>
 VINA RESULT:      -2.7      2.464      5.789
  Name = 
  0 active torsions:
  status: ('A' for Active; 'I' for Inactive)
                            x       y       z     vdW  Elec       q    Type
                         _______ _______ _______ _____ _____    ______ ____

>  <TORSDO>
F 0

$$$$
=
 OpenBabel11122414113D

 28 32  0  0  1  0  0  0  0  0999 V2000
  160.1930  212.2040  155.9030 C   0  0  0  0  0  0  0  0  0  0  0  0
  162.1920  210.2950  152.7820 O   0  0  0  0  0  0  0  0  0  0  0  0
  155.4990  213.2570  153.0820 O   0  0  0  0  0  0  0  0  0  0  0  0
  159.6880  209.4490  155.9440 C   0  0  0  0  0  3  0  0  0  0  0  0
  157.3090  213.4320  151.5970 N   0  0  0  0  0  0  0  0  0  0  0  0
  160.3750  213.6960  155.9260 C   0  0  0  0  0  2  0  0  0  0  0  0
  160.6040  208.9070  151.5260 O   0  0  0  0  0  0  0  0  0  0  0  0
  161.1520  210.2950  151.6950 S   0  0  0  0  0  0  0  0  0  0  0  0
  161.6150  212.1000  149.7060 C   0  0  0  0  0  0  0  0  0  0  0  0
  159.8000  211.3990  152.1090 C   0  0  2  0  0  3  0  0  0  0  0  0
  157.0710  214.4520  157.2610 O   0  0  0  0  0  1  0  0  0  0  0  0
  159.0860  213.4440  153.1970 C   0  0  1  0  0  3  0  0  0  0  0  0
  160.6000  212.9130  150.2910 N   0  0  0  0  0  2  0  0  0  0  0  0
  161.8800  210.8000  150.2170 N   0  0  0  0  0  2  0  0  0  0  0  0
  157.9800  213.9510  156.3320 C   0  0  1  0  0  3  0  0  0  0  0  0
  159.9580  211.5190  154.6870 C   0  0  0  0  0  0  0  0  0  0  0  0
  156.7410  213.3290  152.8820 C   0  0  0  0  0  0  0  0  0  0  0  0
  162.5800  212.7230  148.5480 S   0  0  0  0  0  0  0  0  0  0  0  0
  157.5810  214.4170  154.9370 C   0  0  0  0  0  2  0  0  0  0  0  0
  159.6970  210.1390  154.7310 C   0  0  0  0  0  3  0  0  0  0  0  0
  160.1930  211.5010  157.1150 C   0  0  0  0  0  3  0  0  0  0  0  0
  159.9440  210.1280  157.1350 C   0  0  0  0  0  3  0  0  0  0  0  0
  159.3320  214.3890  156.6940 N   0  0  0  0  0  2  0  0  0  0  0  0
  158.7500  213.5480  151.6950 C   0  0  1  0  0  3  0  0  0  0  0  0
  157.7550  213.2710  153.9540 C   0  0  2  0  0  3  0  0  0  0  0  0
  159.4340  212.3810  150.9950 C   0  0  2  0  0  3  0  0  0  0  0  0
  156.5550  213.6370  150.3710 C   0  0  0  0  0  1  0  0  0  0  0  0
  160.0360  212.2480  153.3500 C   0  0  1  0  0  3  0  0  0  0  0  0
  1  6  1  0  0  0  0
  1 21  1  0  0  0  0
  4 22  1  0  0  0  0
  5 24  1  0  0  0  0
  5 17  1  0  0  0  0
  6 23  1  0  0  0  0
  7  8  2  0  0  0  0
  8  2  2  0  0  0  0
  9 14  1  0  0  0  0
  9 13  1  0  0  0  0
 10  8  1  6  0  0  0
 10 28  1  0  0  0  0
 12 28  1  0  0  0  0
 12 25  1  0  0  0  0
 13 26  1  0  0  0  0
 14  8  1  0  0  0  0
 15 23  1  0  0  0  0
 15 11  1  0  0  0  0
 16 20  1  0  0  0  0
 16  1  2  0  0  0  0
 17  3  2  0  0  0  0
 17 25  1  0  0  0  0
 18  9  2  0  0  0  0
 19 15  1  0  0  0  0
 20  4  2  0  0  0  0
 21 22  2  0  0  0  0
 24 12  1  0  0  0  0
 25 19  1  0  0  0  0
 26 24  1  0  0  0  0
 26 10  1  0  0  0  0
 27  5  1  0  0  0  0
 28 16  1  0  0  0  0
M  END
>  <MODEL>
5

>  <REMARK>
 VINA RESULT:      -2.2      2.832      5.545
  Name = 
  0 active torsions:
  status: ('A' for Active; 'I' for Inactive)
                            x       y       z     vdW  Elec       q    Type
                         _______ _______ _______ _____ _____    ______ ____

>  <TORSDO>
F 0

$$$$
