=
 OpenBabel11122413063D

 31 35  0  0  1  0  0  0  0  0999 V2000
  160.6480  208.0000  156.2490 C   0  0  0  0  0  0  0  0  0  0  0  0
  161.4620  208.6820  152.6220 N   0  0  0  0  0  0  0  0  0  0  0  0
  161.3620  207.4610  151.8460 C   0  0  0  0  0  0  0  0  0  0  0  0
  161.0920  205.0440  151.7040 C   0  0  0  0  0  0  0  0  0  0  0  0
  160.9240  208.7820  153.9560 C   0  0  0  0  0  0  0  0  0  0  0  0
  159.6260  209.0570  156.5630 C   0  0  0  0  0  2  0  0  0  0  0  0
  161.1870  206.2120  152.4650 C   0  0  0  0  0  3  0  0  0  0  0  0
  160.6680  210.9450  152.0720 C   0  0  0  0  0  0  0  0  0  0  0  0
  160.9950  207.1850  157.1440 O   0  0  0  0  0  0  0  0  0  0  0  0
  161.5550  208.8280  149.7400 C   0  0  0  0  0  2  0  0  0  0  0  0
  160.9100  203.7320  152.3770 C   0  0  0  0  0  1  0  0  0  0  0  0
  159.9020  210.9680  153.2850 N   0  0  0  0  0  2  0  0  0  0  0  0
  161.8140  209.9600  151.9730 C   0  0  2  0  0  3  0  0  0  0  0  0
  160.4550  211.8440  151.1040 C   0  0  0  0  0  3  0  0  0  0  0  0
  161.2120  207.8770  154.8980 C   0  0  0  0  0  3  0  0  0  0  0  0
  161.1630  205.1110  150.3120 C   0  0  0  0  0  3  0  0  0  0  0  0
  160.0820  209.9570  154.2780 C   0  0  0  0  0  0  0  0  0  0  0  0
  159.5010  210.0920  155.4750 C   0  0  0  0  0  3  0  0  0  0  0  0
  162.4070  209.7790  150.5670 C   0  0  0  0  0  2  0  0  0  0  0  0
  161.4410  207.5130  150.4380 C   0  0  0  0  0  0  0  0  0  0  0  0
  161.3320  206.3450  149.6800 C   0  0  0  0  0  3  0  0  0  0  0  0
  158.4740  212.8810  151.9360 O   0  0  0  0  0  0  0  0  0  0  0  0
  159.4140  212.8930  151.0970 C   0  0  0  0  0  0  0  0  0  0  0  0
  158.1050  213.3220  147.5930 C   0  0  1  0  0  3  0  0  0  0  0  0
  158.0330  214.4530  149.6870 C   0  0  0  0  0  2  0  0  0  0  0  0
  161.4920  213.0920  149.1380 O   0  0  0  0  0  1  0  0  0  0  0  0
  157.3480  212.4030  146.6600 C   0  0  0  0  0  1  0  0  0  0  0  0
  157.3660  213.4570  148.8470 N   0  0  0  0  0  2  0  0  0  0  0  0
  160.2580  213.6570  148.8080 C   0  0  2  0  0  3  0  0  0  0  0  0
  159.4440  213.9910  150.0700 C   0  0  2  0  0  3  0  0  0  0  0  0
  159.4900  212.7380  147.8620 C   0  0  0  0  0  2  0  0  0  0  0  0
  1  6  1  0  0  0  0
  1  9  2  0  0  0  0
  2  5  1  0  0  0  0
  3  7  1  0  0  0  0
  3  2  1  0  0  0  0
  4 11  1  0  0  0  0
  4  7  2  0  0  0  0
  5 17  1  0  0  0  0
  5 15  2  0  0  0  0
  8 12  1  0  0  0  0
 10 20  1  0  0  0  0
 10 19  1  0  0  0  0
 12 17  1  0  0  0  0
 13 19  1  6  0  0  0
 13  8  1  0  0  0  0
 13  2  1  0  0  0  0
 14  8  2  0  0  0  0
 15  1  1  0  0  0  0
 16  4  1  0  0  0  0
 17 18  2  0  0  0  0
 18  6  1  0  0  0  0
 20  3  2  0  0  0  0
 21 16  2  0  0  0  0
 21 20  1  0  0  0  0
 23 14  1  0  0  0  0
 23 22  2  0  0  0  0
 24 27  1  6  0  0  0
 24 31  1  0  0  0  0
 24 28  1  0  0  0  0
 25 30  1  0  0  0  0
 28 25  1  0  0  0  0
 29 26  1  1  0  0  0
 29 30  1  0  0  0  0
 30 23  1  1  0  0  0
 31 29  1  0  0  0  0
M  END
>  <MODEL>
1

>  <REMARK>
 VINA RESULT:      -8.0      0.000      0.000
  Name = 
  2 active torsions:
  status: ('A' for Active; 'I' for Inactive)
    1  A    between atoms: C_5  and  C_16
    2  A    between atoms: C_5  and  C_30
                            x       y       z     vdW  Elec       q    Type
                         _______ _______ _______ _____ _____    ______ ____

>  <TORSDO>
F 2

$$$$
=
 OpenBabel11122413063D

 31 35  0  0  1  0  0  0  0  0999 V2000
  162.1230  210.7110  149.4150 C   0  0  0  0  0  0  0  0  0  0  0  0
  161.8740  207.9150  151.9460 N   0  0  0  0  0  0  0  0  0  0  0  0
  161.1130  208.3500  153.1020 C   0  0  0  0  0  0  0  0  0  0  0  0
  160.0030  210.0970  154.3870 C   0  0  0  0  0  0  0  0  0  0  0  0
  161.8760  208.6610  150.7120 C   0  0  0  0  0  0  0  0  0  0  0  0
  161.6880  210.0420  148.1410 C   0  0  0  0  0  2  0  0  0  0  0  0
  160.7370  209.6930  153.2690 C   0  0  0  0  0  3  0  0  0  0  0  0
  161.7670  205.7830  150.7230 C   0  0  0  0  0  0  0  0  0  0  0  0
  162.4450  211.9280  149.4000 O   0  0  0  0  0  0  0  0  0  0  0  0
  161.0540  205.9670  153.9120 C   0  0  0  0  0  2  0  0  0  0  0  0
  159.6170  211.5220  154.5470 C   0  0  0  0  0  1  0  0  0  0  0  0
  161.5010  206.4970  149.5070 N   0  0  0  0  0  0  0  0  0  0  0  0
  162.4070  206.5410  151.8680 C   0  0  2  0  0  3  0  0  0  0  0  0
  161.5670  204.4620  150.8060 C   0  0  0  0  0  2  0  0  0  0  0  0
  162.1310  209.9730  150.6860 C   0  0  0  0  0  3  0  0  0  0  0  0
  159.6290  209.1600  155.3510 C   0  0  0  0  0  3  0  0  0  0  0  0
  161.6420  207.9170  149.4520 C   0  0  0  0  0  0  0  0  0  0  0  0
  161.5730  208.5460  148.2740 C   0  0  0  0  0  3  0  0  0  0  0  0
  162.4010  205.8150  153.2230 C   0  0  0  0  0  2  0  0  0  0  0  0
  160.7360  207.4140  154.0880 C   0  0  0  0  0  0  0  0  0  0  0  0
  159.9900  207.8190  155.1980 C   0  0  0  0  0  3  0  0  0  0  0  0
  159.7620  203.5060  149.5730 O   0  0  0  0  0  0  0  0  0  0  0  0
  161.0070  203.5940  149.7500 C   0  0  0  0  0  0  0  0  0  0  0  0
  160.7450  202.0400  146.3310 C   0  0  1  0  0  3  0  0  0  0  0  0
  162.2060  203.4780  147.5410 C   0  0  0  0  0  2  0  0  0  0  0  0
  161.0180  200.7320  149.8130 O   0  0  0  0  0  1  0  0  0  0  0  0
  159.6310  201.9880  145.3080 C   0  0  0  0  0  1  0  0  0  0  0  0
  161.0380  203.4340  146.6590 N   0  0  0  0  0  2  0  0  0  0  0  0
  161.4300  201.3380  148.6240 C   0  0  2  0  0  3  0  0  0  0  0  0
  161.9150  202.7770  148.8730 C   0  0  2  0  0  3  0  0  0  0  0  0
  160.3130  201.2850  147.5860 C   0  0  0  0  0  2  0  0  0  0  0  0
  1 15  1  0  0  0  0
  2  3  1  0  0  0  0
  3  7  2  0  0  0  0
  3 20  1  0  0  0  0
  4 11  1  0  0  0  0
  4 16  2  0  0  0  0
  5  2  1  0  0  0  0
  6 18  1  0  0  0  0
  6  1  1  0  0  0  0
  7  4  1  0  0  0  0
  8 14  1  0  0  0  0
  8 13  1  0  0  0  0
  9  1  2  0  0  0  0
 10 20  1  0  0  0  0
 12  8  2  0  0  0  0
 13  2  1  0  0  0  0
 13 19  1  1  0  0  0
 15  5  2  0  0  0  0
 17 12  1  0  0  0  0
 17  5  1  0  0  0  0
 18 17  2  0  0  0  0
 19 10  1  0  0  0  0
 20 21  2  0  0  0  0
 21 16  1  0  0  0  0
 22 23  2  0  0  0  0
 23 14  1  0  0  0  0
 24 27  1  6  0  0  0
 24 28  1  0  0  0  0
 24 31  1  0  0  0  0
 25 30  1  0  0  0  0
 28 25  1  0  0  0  0
 29 30  1  0  0  0  0
 29 26  1  1  0  0  0
 30 23  1  6  0  0  0
 31 29  1  0  0  0  0
M  END
>  <MODEL>
2

>  <REMARK>
 VINA RESULT:      -7.6      3.597      8.038
  Name = 
  2 active torsions:
  status: ('A' for Active; 'I' for Inactive)
    1  A    between atoms: C_5  and  C_16
    2  A    between atoms: C_5  and  C_30
                            x       y       z     vdW  Elec       q    Type
                         _______ _______ _______ _____ _____    ______ ____

>  <TORSDO>
F 2

$$$$
=
 OpenBabel11122413063D

 31 35  0  0  1  0  0  0  0  0999 V2000
  161.8390  212.2320  148.8520 C   0  0  0  0  0  0  0  0  0  0  0  0
  161.2120  210.5620  152.1840 N   0  0  0  0  0  0  0  0  0  0  0  0
  160.0500  211.1440  152.8280 C   0  0  0  0  0  0  0  0  0  0  0  0
  158.3100  212.8440  152.9460 C   0  0  0  0  0  0  0  0  0  0  0  0
  161.5060  210.7920  150.7910 C   0  0  0  0  0  0  0  0  0  0  0  0
  161.9670  211.0630  147.9160 C   0  0  0  0  0  2  0  0  0  0  0  0
  159.4290  212.2960  152.3160 C   0  0  0  0  0  3  0  0  0  0  0  0
  161.8630  208.1970  151.9890 C   0  0  0  0  0  0  0  0  0  0  0  0
  161.9470  213.4030  148.4030 O   0  0  0  0  0  0  0  0  0  0  0  0
  160.1080  209.2870  154.5270 C   0  0  0  0  0  2  0  0  0  0  0  0
  157.6690  214.0640  152.3920 C   0  0  0  0  0  1  0  0  0  0  0  0
  161.9070  208.3300  150.5610 N   0  0  0  0  0  0  0  0  0  0  0  0
  161.9540  209.4570  152.8240 C   0  0  2  0  0  3  0  0  0  0  0  0
  161.8620  206.9920  152.5710 C   0  0  0  0  0  2  0  0  0  0  0  0
  161.5400  212.0250  150.2760 C   0  0  0  0  0  3  0  0  0  0  0  0
  157.7910  212.2430  154.0940 C   0  0  0  0  0  3  0  0  0  0  0  0
  161.8280  209.6170  149.9470 C   0  0  0  0  0  0  0  0  0  0  0  0
  162.0560  209.7420  148.6360 C   0  0  0  0  0  3  0  0  0  0  0  0
  161.6140  209.2870  154.3130 C   0  0  0  0  0  2  0  0  0  0  0  0
  159.5210  210.5510  153.9930 C   0  0  0  0  0  0  0  0  0  0  0  0
  158.3930  211.0940  154.6130 C   0  0  0  0  0  3  0  0  0  0  0  0
  162.8960  205.1380  151.4830 O   0  0  0  0  0  0  0  0  0  0  0  0
  161.8330  205.6860  151.8790 C   0  0  0  0  0  0  0  0  0  0  0  0
  160.8000  202.4430  150.2700 C   0  0  1  0  0  3  0  0  0  0  0  0
  160.4560  203.6250  152.3080 C   0  0  0  0  0  2  0  0  0  0  0  0
  160.3750  206.0550  149.4430 O   0  0  0  0  0  1  0  0  0  0  0  0
  161.5820  201.3310  149.6050 C   0  0  0  0  0  1  0  0  0  0  0  0
  161.3060  202.6470  151.6260 N   0  0  0  0  0  2  0  0  0  0  0  0
  160.1720  204.8530  150.1240 C   0  0  2  0  0  3  0  0  0  0  0  0
  160.5260  204.9910  151.6150 C   0  0  2  0  0  3  0  0  0  0  0  0
  160.9530  203.7250  149.4560 C   0  0  0  0  0  2  0  0  0  0  0  0
  1 15  1  0  0  0  0
  2 13  1  0  0  0  0
  2  3  1  0  0  0  0
  3 20  1  0  0  0  0
  4 16  2  0  0  0  0
  5  2  1  0  0  0  0
  6 18  1  0  0  0  0
  6  1  1  0  0  0  0
  7  3  2  0  0  0  0
  7  4  1  0  0  0  0
  8 14  1  0  0  0  0
  8 13  1  0  0  0  0
  9  1  2  0  0  0  0
 11  4  1  0  0  0  0
 12  8  2  0  0  0  0
 13 19  1  1  0  0  0
 15  5  2  0  0  0  0
 16 21  1  0  0  0  0
 17 12  1  0  0  0  0
 17  5  1  0  0  0  0
 18 17  2  0  0  0  0
 19 10  1  0  0  0  0
 20 10  1  0  0  0  0
 20 21  2  0  0  0  0
 22 23  2  0  0  0  0
 23 14  1  0  0  0  0
 24 27  1  6  0  0  0
 24 28  1  0  0  0  0
 28 25  1  0  0  0  0
 29 26  1  6  0  0  0
 29 30  1  0  0  0  0
 30 23  1  6  0  0  0
 30 25  1  0  0  0  0
 31 29  1  0  0  0  0
 31 24  1  0  0  0  0
M  END
>  <MODEL>
3

>  <REMARK>
 VINA RESULT:      -7.1      2.620      7.818
  Name = 
  2 active torsions:
  status: ('A' for Active; 'I' for Inactive)
    1  A    between atoms: C_5  and  C_16
    2  A    between atoms: C_5  and  C_30
                            x       y       z     vdW  Elec       q    Type
                         _______ _______ _______ _____ _____    ______ ____

>  <TORSDO>
F 2

$$$$
=
 OpenBabel11122413063D

 31 35  0  0  1  0  0  0  0  0999 V2000
  161.9880  211.2960  149.5230 C   0  0  0  0  0  0  0  0  0  0  0  0
  162.0150  208.1050  151.5490 N   0  0  0  0  0  0  0  0  0  0  0  0
  161.2840  208.2900  152.7880 C   0  0  0  0  0  0  0  0  0  0  0  0
  160.1340  209.7220  154.3880 C   0  0  0  0  0  0  0  0  0  0  0  0
  161.9180  209.0450  150.4600 C   0  0  0  0  0  0  0  0  0  0  0  0
  161.5350  210.8230  148.1690 C   0  0  0  0  0  2  0  0  0  0  0  0
  160.8390  209.5590  153.1930 C   0  0  0  0  0  3  0  0  0  0  0  0
  161.9760  206.2050  149.9860 C   0  0  0  0  0  0  0  0  0  0  0  0
  162.2380  212.5160  149.7030 O   0  0  0  0  0  0  0  0  0  0  0  0
  161.3990  205.8060  153.1820 C   0  0  0  0  0  2  0  0  0  0  0  0
  159.6740  211.0720  154.8020 C   0  0  0  0  0  1  0  0  0  0  0  0
  161.6150  207.0940  148.9190 N   0  0  0  0  0  0  0  0  0  0  0  0
  162.6220  206.8000  151.2200 C   0  0  2  0  0  3  0  0  0  0  0  0
  161.8560  204.8790  149.8500 C   0  0  0  0  0  2  0  0  0  0  0  0
  162.0960  210.3570  150.6480 C   0  0  0  0  0  3  0  0  0  0  0  0
  159.8580  208.6140  155.1920 C   0  0  0  0  0  3  0  0  0  0  0  0
  161.6710  208.5100  149.1010 C   0  0  0  0  0  0  0  0  0  0  0  0
  161.5120  209.3210  148.0500 C   0  0  0  0  0  3  0  0  0  0  0  0
  162.7200  205.8590  152.4310 C   0  0  0  0  0  2  0  0  0  0  0  0
  161.0060  207.1800  153.6130 C   0  0  0  0  0  0  0  0  0  0  0  0
  160.2890  207.3440  154.8000 C   0  0  0  0  0  3  0  0  0  0  0  0
  160.0580  203.9970  148.5550 O   0  0  0  0  0  0  0  0  0  0  0  0
  161.3000  204.1660  148.6820 C   0  0  0  0  0  0  0  0  0  0  0  0
  161.7370  204.6710  144.9770 C   0  0  1  0  0  3  0  0  0  0  0  0
  163.0550  204.7000  146.9590 C   0  0  0  0  0  2  0  0  0  0  0  0
  160.6100  201.8520  147.1430 O   0  0  0  0  0  1  0  0  0  0  0  0
  161.0120  205.5300  143.9640 C   0  0  0  0  0  1  0  0  0  0  0  0
  162.2380  205.5160  146.0590 N   0  0  0  0  0  2  0  0  0  0  0  0
  161.4990  202.7570  146.5580 C   0  0  2  0  0  3  0  0  0  0  0  0
  162.2120  203.6060  147.6250 C   0  0  2  0  0  3  0  0  0  0  0  0
  160.7750  203.6240  145.5310 C   0  0  0  0  0  2  0  0  0  0  0  0
  1  9  2  0  0  0  0
  1 15  1  0  0  0  0
  2  3  1  0  0  0  0
  3  7  2  0  0  0  0
  3 20  1  0  0  0  0
  4 11  1  0  0  0  0
  4 16  2  0  0  0  0
  5 15  2  0  0  0  0
  5  2  1  0  0  0  0
  6  1  1  0  0  0  0
  7  4  1  0  0  0  0
  8 13  1  0  0  0  0
 10 20  1  0  0  0  0
 12 17  1  0  0  0  0
 12  8  2  0  0  0  0
 13  2  1  0  0  0  0
 13 19  1  1  0  0  0
 14  8  1  0  0  0  0
 17  5  1  0  0  0  0
 18  6  1  0  0  0  0
 18 17  2  0  0  0  0
 19 10  1  0  0  0  0
 20 21  2  0  0  0  0
 21 16  1  0  0  0  0
 22 23  2  0  0  0  0
 23 14  1  0  0  0  0
 24 27  1  6  0  0  0
 24 31  1  0  0  0  0
 24 28  1  0  0  0  0
 25 30  1  0  0  0  0
 28 25  1  0  0  0  0
 29 26  1  1  0  0  0
 29 30  1  0  0  0  0
 30 23  1  1  0  0  0
 31 29  1  0  0  0  0
M  END
>  <MODEL>
4

>  <REMARK>
 VINA RESULT:      -6.4      3.802      7.478
  Name = 
  2 active torsions:
  status: ('A' for Active; 'I' for Inactive)
    1  A    between atoms: C_5  and  C_16
    2  A    between atoms: C_5  and  C_30
                            x       y       z     vdW  Elec       q    Type
                         _______ _______ _______ _____ _____    ______ ____

>  <TORSDO>
F 2

$$$$
=
 OpenBabel11122413063D

 31 35  0  0  1  0  0  0  0  0999 V2000
  161.8530  213.2190  148.6330 C   0  0  0  0  0  0  0  0  0  0  0  0
  161.6490  210.2560  150.9700 N   0  0  0  0  0  0  0  0  0  0  0  0
  160.7880  210.5630  152.0970 C   0  0  0  0  0  0  0  0  0  0  0  0
  159.4780  212.1440  153.4070 C   0  0  0  0  0  0  0  0  0  0  0  0
  161.6740  211.0780  149.7860 C   0  0  0  0  0  0  0  0  0  0  0  0
  161.5470  212.6050  147.2950 C   0  0  0  0  0  2  0  0  0  0  0  0
  160.3070  211.8640  152.3180 C   0  0  0  0  0  3  0  0  0  0  0  0
  161.7710  208.2050  149.6180 C   0  0  0  0  0  0  0  0  0  0  0  0
  162.0870  214.4530  148.7120 O   0  0  0  0  0  0  0  0  0  0  0  0
  160.8510  208.1340  152.7580 C   0  0  0  0  0  2  0  0  0  0  0  0
  158.9820  213.5270  153.6260 C   0  0  0  0  0  1  0  0  0  0  0  0
  161.5310  208.9750  148.4320 N   0  0  0  0  0  0  0  0  0  0  0  0
  162.2830  208.9290  150.8460 C   0  0  2  0  0  3  0  0  0  0  0  0
  161.6620  206.8710  149.6080 C   0  0  0  0  0  2  0  0  0  0  0  0
  161.8350  212.4040  149.8550 C   0  0  0  0  0  3  0  0  0  0  0  0
  159.1130  211.1240  154.2870 C   0  0  0  0  0  3  0  0  0  0  0  0
  161.5730  210.4030  148.4710 C   0  0  0  0  0  0  0  0  0  0  0  0
  161.5320  211.0990  147.3300 C   0  0  0  0  0  3  0  0  0  0  0  0
  162.2450  208.1190  152.1510 C   0  0  0  0  0  2  0  0  0  0  0  0
  160.4190  209.5420  152.9980 C   0  0  0  0  0  0  0  0  0  0  0  0
  159.5790  209.8230  154.0780 C   0  0  0  0  0  3  0  0  0  0  0  0
  160.0380  206.0490  148.0660 O   0  0  0  0  0  0  0  0  0  0  0  0
  161.2320  206.0360  148.4670 C   0  0  0  0  0  0  0  0  0  0  0  0
  161.1440  203.8240  145.4220 C   0  0  1  0  0  3  0  0  0  0  0  0
  162.4740  205.5790  146.3270 C   0  0  0  0  0  2  0  0  0  0  0  0
  161.4520  203.2510  149.0940 O   0  0  0  0  0  1  0  0  0  0  0  0
  160.0540  203.4890  144.4270 C   0  0  0  0  0  1  0  0  0  0  0  0
  161.3280  205.2740  145.4690 N   0  0  0  0  0  2  0  0  0  0  0  0
  161.8390  203.6410  147.8100 C   0  0  2  0  0  3  0  0  0  0  0  0
  162.2130  205.1330  147.7710 C   0  0  2  0  0  3  0  0  0  0  0  0
  160.7470  203.3010  146.8000 C   0  0  0  0  0  2  0  0  0  0  0  0
  1  9  2  0  0  0  0
  1 15  1  0  0  0  0
  2  3  1  0  0  0  0
  3  7  2  0  0  0  0
  3 20  1  0  0  0  0
  4 11  1  0  0  0  0
  4 16  2  0  0  0  0
  5 15  2  0  0  0  0
  5  2  1  0  0  0  0
  6 18  1  0  0  0  0
  6  1  1  0  0  0  0
  7  4  1  0  0  0  0
  8 13  1  0  0  0  0
 10 20  1  0  0  0  0
 12 17  1  0  0  0  0
 12  8  2  0  0  0  0
 13  2  1  0  0  0  0
 13 19  1  1  0  0  0
 14  8  1  0  0  0  0
 17  5  1  0  0  0  0
 18 17  2  0  0  0  0
 19 10  1  0  0  0  0
 20 21  2  0  0  0  0
 21 16  1  0  0  0  0
 22 23  2  0  0  0  0
 23 14  1  0  0  0  0
 24 27  1  6  0  0  0
 24 28  1  0  0  0  0
 24 31  1  0  0  0  0
 25 30  1  0  0  0  0
 28 25  1  0  0  0  0
 29 26  1  1  0  0  0
 30 29  1  0  0  0  0
 30 23  1  6  0  0  0
 31 29  1  0  0  0  0
M  END
>  <MODEL>
5

>  <REMARK>
 VINA RESULT:      -6.2      3.480      7.609
  Name = 
  2 active torsions:
  status: ('A' for Active; 'I' for Inactive)
    1  A    between atoms: C_5  and  C_16
    2  A    between atoms: C_5  and  C_30
                            x       y       z     vdW  Elec       q    Type
                         _______ _______ _______ _____ _____    ______ ____

>  <TORSDO>
F 2

$$$$
=
 OpenBabel11122413063D

 31 35  0  0  1  0  0  0  0  0999 V2000
  161.1660  207.0990  153.9600 C   0  0  0  0  0  0  0  0  0  0  0  0
  162.1050  206.9050  150.3040 N   0  0  0  0  0  0  0  0  0  0  0  0
  161.6830  205.6370  149.7420 C   0  0  0  0  0  0  0  0  0  0  0  0
  160.7840  203.3870  150.0020 C   0  0  0  0  0  0  0  0  0  0  0  0
  161.6230  207.3720  151.5800 C   0  0  0  0  0  0  0  0  0  0  0  0
  160.4600  208.4230  154.0490 C   0  0  0  0  0  2  0  0  0  0  0  0
  161.1890  204.6030  150.5570 C   0  0  0  0  0  3  0  0  0  0  0  0
  161.9320  209.1660  149.3490 C   0  0  0  0  0  0  0  0  0  0  0  0
  161.2920  206.3900  154.9920 O   0  0  0  0  0  0  0  0  0  0  0  0
  162.2140  206.5190  147.4450 C   0  0  0  0  0  2  0  0  0  0  0  0
  160.2680  202.3050  150.8790 C   0  0  0  0  0  1  0  0  0  0  0  0
  161.2070  209.5980  150.5090 N   0  0  0  0  0  2  0  0  0  0  0  0
  162.7780  207.9150  149.4630 C   0  0  2  0  0  3  0  0  0  0  0  0
  161.9560  209.9070  148.2350 C   0  0  0  0  0  3  0  0  0  0  0  0
  161.6680  206.6010  152.6720 C   0  0  0  0  0  3  0  0  0  0  0  0
  160.8610  203.1900  148.6220 C   0  0  0  0  0  3  0  0  0  0  0  0
  161.1210  208.7630  151.6650 C   0  0  0  0  0  0  0  0  0  0  0  0
  160.6050  209.2500  152.7980 C   0  0  0  0  0  3  0  0  0  0  0  0
  163.2920  207.3440  148.1320 C   0  0  0  0  0  2  0  0  0  0  0  0
  161.7630  205.4210  148.3510 C   0  0  0  0  0  0  0  0  0  0  0  0
  161.3450  204.2090  147.7980 C   0  0  0  0  0  3  0  0  0  0  0  0
  160.2790  211.2380  147.1840 O   0  0  0  0  0  0  0  0  0  0  0  0
  161.2290  211.1730  148.0100 C   0  0  0  0  0  0  0  0  0  0  0  0
  159.3840  214.0820  149.5280 C   0  0  1  0  0  3  0  0  0  0  0  0
  161.0150  212.4660  150.1570 C   0  0  0  0  0  2  0  0  0  0  0  0
  161.7330  213.6490  146.6640 O   0  0  0  0  0  1  0  0  0  0  0  0
  157.9170  214.4470  149.5960 C   0  0  0  0  0  1  0  0  0  0  0  0
  159.5810  212.7520  150.1000 N   0  0  0  0  0  2  0  0  0  0  0  0
  161.3200  213.7280  147.9960 C   0  0  2  0  0  3  0  0  0  0  0  0
  161.6220  212.4220  148.7500 C   0  0  2  0  0  3  0  0  0  0  0  0
  159.8420  214.1000  148.0720 C   0  0  0  0  0  2  0  0  0  0  0  0
  1  6  1  0  0  0  0
  1  9  2  0  0  0  0
  2  5  1  0  0  0  0
  3  2  1  0  0  0  0
  3  7  1  0  0  0  0
  4  7  2  0  0  0  0
  4 11  1  0  0  0  0
  5 17  1  0  0  0  0
  5 15  2  0  0  0  0
  8 13  1  0  0  0  0
  8 12  1  0  0  0  0
 10 19  1  0  0  0  0
 10 20  1  0  0  0  0
 12 17  1  0  0  0  0
 13 19  1  6  0  0  0
 13  2  1  0  0  0  0
 14  8  2  0  0  0  0
 15  1  1  0  0  0  0
 16  4  1  0  0  0  0
 17 18  2  0  0  0  0
 18  6  1  0  0  0  0
 20  3  2  0  0  0  0
 21 20  1  0  0  0  0
 21 16  2  0  0  0  0
 22 23  2  0  0  0  0
 23 14  1  0  0  0  0
 24 27  1  6  0  0  0
 24 28  1  0  0  0  0
 28 25  1  0  0  0  0
 29 26  1  6  0  0  0
 29 31  1  0  0  0  0
 29 30  1  0  0  0  0
 30 23  1  6  0  0  0
 30 25  1  0  0  0  0
 31 24  1  0  0  0  0
M  END
>  <MODEL>
6

>  <REMARK>
 VINA RESULT:      -5.8      2.020      3.032
  Name = 
  2 active torsions:
  status: ('A' for Active; 'I' for Inactive)
    1  A    between atoms: C_5  and  C_16
    2  A    between atoms: C_5  and  C_30
                            x       y       z     vdW  Elec       q    Type
                         _______ _______ _______ _____ _____    ______ ____

>  <TORSDO>
F 2

$$$$
=
 OpenBabel11122413063D

 31 35  0  0  1  0  0  0  0  0999 V2000
  162.5200  213.2460  146.8850 C   0  0  0  0  0  0  0  0  0  0  0  0
  159.7380  213.8210  149.3790 N   0  0  0  0  0  0  0  0  0  0  0  0
  158.4740  213.9950  148.6910 C   0  0  0  0  0  0  0  0  0  0  0  0
  157.1870  214.2910  146.6430 C   0  0  0  0  0  0  0  0  0  0  0  0
  160.9030  213.2960  148.7100 C   0  0  0  0  0  0  0  0  0  0  0  0
  163.1910  212.0110  147.4190 C   0  0  0  0  0  2  0  0  0  0  0  0
  158.4120  214.1250  147.2930 C   0  0  0  0  0  3  0  0  0  0  0  0
  160.2420  212.5160  151.4020 C   0  0  0  0  0  0  0  0  0  0  0  0
  162.9550  213.7860  145.8350 O   0  0  0  0  0  0  0  0  0  0  0  0
  157.2880  213.8330  150.9060 C   0  0  0  0  0  2  0  0  0  0  0  0
  157.1430  214.4290  145.1650 C   0  0  0  0  0  1  0  0  0  0  0  0
  161.2420  211.7840  150.6780 N   0  0  0  0  0  0  0  0  0  0  0  0
  159.8050  213.8570  150.8530 C   0  0  2  0  0  3  0  0  0  0  0  0
  159.7950  212.0840  152.5880 C   0  0  0  0  0  2  0  0  0  0  0  0
  161.3320  213.8010  147.5480 C   0  0  0  0  0  3  0  0  0  0  0  0
  156.0040  214.3230  147.3830 C   0  0  0  0  0  3  0  0  0  0  0  0
  161.6560  212.2100  149.3790 C   0  0  0  0  0  0  0  0  0  0  0  0
  162.7120  211.6330  148.7970 C   0  0  0  0  0  3  0  0  0  0  0  0
  158.5440  214.4530  151.4980 C   0  0  0  0  0  2  0  0  0  0  0  0
  157.2720  214.0380  149.4270 C   0  0  0  0  0  0  0  0  0  0  0  0
  156.0470  214.1900  148.7730 C   0  0  0  0  0  3  0  0  0  0  0  0
  159.9800  209.7100  152.7210 O   0  0  0  0  0  0  0  0  0  0  0  0
  160.1800  210.8290  153.2650 C   0  0  0  0  0  0  0  0  0  0  0  0
  160.3750  208.4510  156.1760 C   0  0  1  0  0  3  0  0  0  0  0  0
  161.8380  209.7420  154.8140 C   0  0  0  0  0  2  0  0  0  0  0  0
  158.7570  211.7550  155.5690 O   0  0  0  0  0  1  0  0  0  0  0  0
  159.8080  207.0670  156.4140 C   0  0  0  0  0  1  0  0  0  0  0  0
  161.1840  208.4410  154.9590 N   0  0  0  0  0  2  0  0  0  0  0  0
  159.7930  210.8450  155.7920 C   0  0  2  0  0  3  0  0  0  0  0  0
  160.8040  210.8600  154.6330 C   0  0  2  0  0  3  0  0  0  0  0  0
  159.2280  209.4490  156.0360 C   0  0  0  0  0  2  0  0  0  0  0  0
  1  6  1  0  0  0  0
  1 15  1  0  0  0  0
  2 13  1  0  0  0  0
  3  2  1  0  0  0  0
  3 20  1  0  0  0  0
  4  7  1  0  0  0  0
  4 16  2  0  0  0  0
  5  2  1  0  0  0  0
  5 17  1  0  0  0  0
  6 18  1  0  0  0  0
  7  3  2  0  0  0  0
  8 14  1  0  0  0  0
  9  1  2  0  0  0  0
 10 19  1  0  0  0  0
 11  4  1  0  0  0  0
 12  8  2  0  0  0  0
 13  8  1  0  0  0  0
 13 19  1  1  0  0  0
 14 23  1  0  0  0  0
 15  5  2  0  0  0  0
 16 21  1  0  0  0  0
 17 12  1  0  0  0  0
 18 17  2  0  0  0  0
 20 10  1  0  0  0  0
 21 20  2  0  0  0  0
 22 23  2  0  0  0  0
 24 27  1  6  0  0  0
 25 28  1  0  0  0  0
 28 24  1  0  0  0  0
 29 26  1  6  0  0  0
 29 31  1  0  0  0  0
 30 23  1  6  0  0  0
 30 25  1  0  0  0  0
 30 29  1  0  0  0  0
 31 24  1  0  0  0  0
M  END
>  <MODEL>
7

>  <REMARK>
 VINA RESULT:      -5.8      3.109      8.292
  Name = 
  2 active torsions:
  status: ('A' for Active; 'I' for Inactive)
    1  A    between atoms: C_5  and  C_16
    2  A    between atoms: C_5  and  C_30
                            x       y       z     vdW  Elec       q    Type
                         _______ _______ _______ _____ _____    ______ ____

>  <TORSDO>
F 2

$$$$
=
 OpenBabel11122413063D

 31 35  0  0  1  0  0  0  0  0999 V2000
  161.2730  202.3930  151.1500 C   0  0  0  0  0  0  0  0  0  0  0  0
  161.9060  205.8530  149.7640 N   0  0  0  0  0  0  0  0  0  0  0  0
  161.5170  205.9140  148.3680 C   0  0  0  0  0  0  0  0  0  0  0  0
  160.7890  204.8320  146.3110 C   0  0  0  0  0  0  0  0  0  0  0  0
  161.5050  204.7620  150.6190 C   0  0  0  0  0  0  0  0  0  0  0  0
  160.4950  202.6780  152.4050 C   0  0  0  0  0  2  0  0  0  0  0  0
  161.1620  204.7570  147.6550 C   0  0  0  0  0  3  0  0  0  0  0  0
  161.5080  207.4820  151.5640 C   0  0  0  0  0  0  0  0  0  0  0  0
  161.5320  201.2030  150.8350 O   0  0  0  0  0  0  0  0  0  0  0  0
  161.7930  208.4160  148.4400 C   0  0  0  0  0  2  0  0  0  0  0  0
  160.4190  203.5970  145.5730 C   0  0  0  0  0  1  0  0  0  0  0  0
  160.8600  206.4640  152.3400 N   0  0  0  0  0  2  0  0  0  0  0  0
  162.4380  207.0460  150.4510 C   0  0  2  0  0  3  0  0  0  0  0  0
  161.3900  208.7760  151.8870 C   0  0  0  0  0  3  0  0  0  0  0  0
  161.6930  203.4870  150.2630 C   0  0  0  0  0  3  0  0  0  0  0  0
  160.7590  206.0680  145.6630 C   0  0  0  0  0  3  0  0  0  0  0  0
  160.9260  205.0940  151.9410 C   0  0  0  0  0  0  0  0  0  0  0  0
  160.4790  204.1410  152.7660 C   0  0  0  0  0  3  0  0  0  0  0  0
  162.8710  208.1560  149.4810 C   0  0  0  0  0  2  0  0  0  0  0  0
  161.4910  207.1560  147.6990 C   0  0  0  0  0  0  0  0  0  0  0  0
  161.1040  207.2290  146.3590 C   0  0  0  0  0  3  0  0  0  0  0  0
  159.5360  210.0150  152.7340 O   0  0  0  0  0  0  0  0  0  0  0  0
  160.5670  209.3340  152.9800 C   0  0  0  0  0  0  0  0  0  0  0  0
  159.7170  210.9650  156.2650 C   0  0  1  0  0  3  0  0  0  0  0  0
  159.7410  208.7910  155.2940 C   0  0  0  0  0  2  0  0  0  0  0  0
  162.7940  210.6760  154.1770 O   0  0  0  0  0  1  0  0  0  0  0  0
  158.8420  212.1430  156.6310 C   0  0  0  0  0  1  0  0  0  0  0  0
  158.9260  209.9850  155.5220 N   0  0  0  0  0  2  0  0  0  0  0  0
  161.7710  210.2650  155.0340 C   0  0  2  0  0  3  0  0  0  0  0  0
  160.9560  209.1150  154.4160 C   0  0  2  0  0  3  0  0  0  0  0  0
  160.8860  211.4500  155.4120 C   0  0  0  0  0  2  0  0  0  0  0  0
  1  6  1  0  0  0  0
  2 13  1  0  0  0  0
  2  5  1  0  0  0  0
  3  2  1  0  0  0  0
  4  7  1  0  0  0  0
  5 17  1  0  0  0  0
  6 18  1  0  0  0  0
  7  3  2  0  0  0  0
  8 14  2  0  0  0  0
  8 12  1  0  0  0  0
  9  1  2  0  0  0  0
 10 19  1  0  0  0  0
 11  4  1  0  0  0  0
 13 19  1  6  0  0  0
 13  8  1  0  0  0  0
 14 23  1  0  0  0  0
 15  5  2  0  0  0  0
 15  1  1  0  0  0  0
 16  4  2  0  0  0  0
 16 21  1  0  0  0  0
 17 12  1  0  0  0  0
 17 18  2  0  0  0  0
 20  3  1  0  0  0  0
 20 10  1  0  0  0  0
 21 20  2  0  0  0  0
 22 23  2  0  0  0  0
 24 27  1  6  0  0  0
 25 28  1  0  0  0  0
 28 24  1  0  0  0  0
 29 26  1  6  0  0  0
 29 31  1  0  0  0  0
 30 23  1  6  0  0  0
 30 29  1  0  0  0  0
 30 25  1  0  0  0  0
 31 24  1  0  0  0  0
M  END
>  <MODEL>
8

>  <REMARK>
 VINA RESULT:      -5.8      3.552      5.959
  Name = 
  2 active torsions:
  status: ('A' for Active; 'I' for Inactive)
    1  A    between atoms: C_5  and  C_16
    2  A    between atoms: C_5  and  C_30
                            x       y       z     vdW  Elec       q    Type
                         _______ _______ _______ _____ _____    ______ ____

>  <TORSDO>
F 2

$$$$
=
 OpenBabel11122413063D

 31 35  0  0  1  0  0  0  0  0999 V2000
  161.5970  206.1460  151.9220 C   0  0  0  0  0  0  0  0  0  0  0  0
  160.4890  209.6790  152.6830 N   0  0  0  0  0  0  0  0  0  0  0  0
  160.7680  210.0070  154.0680 C   0  0  0  0  0  0  0  0  0  0  0  0
  161.4650  209.3580  156.3110 C   0  0  0  0  0  0  0  0  0  0  0  0
  161.0670  208.5240  152.0430 C   0  0  0  0  0  0  0  0  0  0  0  0
  162.4260  206.3210  150.6800 C   0  0  0  0  0  2  0  0  0  0  0  0
  161.1990  209.0280  154.9800 C   0  0  0  0  0  3  0  0  0  0  0  0
  160.8300  211.0400  150.6620 C   0  0  0  0  0  0  0  0  0  0  0  0
  161.4510  204.9980  152.4160 O   0  0  0  0  0  0  0  0  0  0  0  0
  160.2230  212.4130  153.5700 C   0  0  0  0  0  2  0  0  0  0  0  0
  161.9170  208.3090  157.2600 C   0  0  0  0  0  1  0  0  0  0  0  0
  161.6400  209.9980  150.1000 N   0  0  0  0  0  0  0  0  0  0  0  0
  159.8770  210.6750  151.7820 C   0  0  2  0  0  3  0  0  0  0  0  0
  160.8260  212.2710  150.1370 C   0  0  0  0  0  2  0  0  0  0  0  0
  160.9970  207.3070  152.5940 C   0  0  0  0  0  3  0  0  0  0  0  0
  161.3120  210.6750  156.7470 C   0  0  0  0  0  3  0  0  0  0  0  0
  161.6980  208.7090  150.7150 C   0  0  0  0  0  0  0  0  0  0  0  0
  162.3050  207.6990  150.0840 C   0  0  0  0  0  3  0  0  0  0  0  0
  159.2570  211.8640  152.5320 C   0  0  0  0  0  2  0  0  0  0  0  0
  160.6090  211.3320  154.5240 C   0  0  0  0  0  0  0  0  0  0  0  0
  160.8900  211.6620  155.8520 C   0  0  0  0  0  3  0  0  0  0  0  0
  162.7630  212.2010  148.7460 O   0  0  0  0  0  0  0  0  0  0  0  0
  161.6570  212.7440  149.0110 C   0  0  0  0  0  0  0  0  0  0  0  0
  158.7500  213.4200  146.7170 C   0  0  1  0  0  3  0  0  0  0  0  0
  159.8280  214.4190  148.5900 C   0  0  0  0  0  2  0  0  0  0  0  0
  162.4300  213.0220  146.2680 O   0  0  0  0  0  1  0  0  0  0  0  0
  157.5730  212.5790  146.2740 C   0  0  0  0  0  1  0  0  0  0  0  0
  158.7720  213.4930  148.1770 N   0  0  0  0  0  2  0  0  0  0  0  0
  161.2340  213.6320  146.6510 C   0  0  2  0  0  3  0  0  0  0  0  0
  161.2080  213.9040  148.1650 C   0  0  2  0  0  3  0  0  0  0  0  0
  160.0420  212.7910  146.2030 C   0  0  0  0  0  2  0  0  0  0  0  0
  1  9  2  0  0  0  0
  1 15  1  0  0  0  0
  2  3  1  0  0  0  0
  3 20  2  0  0  0  0
  3  7  1  0  0  0  0
  4 16  1  0  0  0  0
  4 11  1  0  0  0  0
  5 15  2  0  0  0  0
  5  2  1  0  0  0  0
  6  1  1  0  0  0  0
  7  4  2  0  0  0  0
  8 13  1  0  0  0  0
 10 20  1  0  0  0  0
 12  8  2  0  0  0  0
 12 17  1  0  0  0  0
 13 19  1  1  0  0  0
 13  2  1  0  0  0  0
 14  8  1  0  0  0  0
 17  5  1  0  0  0  0
 18  6  1  0  0  0  0
 18 17  2  0  0  0  0
 19 10  1  0  0  0  0
 20 21  1  0  0  0  0
 21 16  2  0  0  0  0
 22 23  2  0  0  0  0
 23 14  1  0  0  0  0
 24 27  1  1  0  0  0
 24 28  1  0  0  0  0
 28 25  1  0  0  0  0
 29 26  1  1  0  0  0
 29 30  1  0  0  0  0
 30 25  1  0  0  0  0
 30 23  1  1  0  0  0
 31 29  1  0  0  0  0
 31 24  1  0  0  0  0
M  END
>  <MODEL>
9

>  <REMARK>
 VINA RESULT:      -5.4      1.931      4.378
  Name = 
  2 active torsions:
  status: ('A' for Active; 'I' for Inactive)
    1  A    between atoms: C_5  and  C_16
    2  A    between atoms: C_5  and  C_30
                            x       y       z     vdW  Elec       q    Type
                         _______ _______ _______ _____ _____    ______ ____

>  <TORSDO>
F 2

$$$$
