=
 OpenBabel11122412493D

 32 37  0  0  1  0  0  0  0  0999 V2000
  160.5820  213.5850  147.7790 N   0  0  0  0  0  2  0  0  0  0  0  0
  161.4030  208.8000  150.3010 C   0  0  1  0  0  3  0  0  0  0  0  0
  160.9830  208.4520  155.2330 C   0  0  0  0  0  3  0  0  0  0  0  0
  160.5520  207.1340  155.0910 C   0  0  0  0  0  3  0  0  0  0  0  0
  161.5110  206.7070  148.8400 C   0  0  2  0  0  3  0  0  0  0  0  0
  161.3660  205.2130  148.8910 C   0  0  0  0  0  0  0  0  0  0  0  0
  161.4010  210.7620  149.1930 C   0  0  1  0  0  3  0  0  0  0  0  0
  161.3720  210.8560  151.7050 C   0  0  0  0  0  2  0  0  0  0  0  0
  161.0820  203.2060  149.7240 N   0  0  0  0  0  0  0  0  0  0  0  0
  161.2420  212.9630  150.4310 N   0  0  0  0  0  2  0  0  0  0  0  0
  161.3900  209.1770  154.1110 C   0  0  0  0  0  3  0  0  0  0  0  0
  161.8450  209.3990  151.6470 C   0  0  1  0  0  3  0  0  0  0  0  0
  161.3590  208.5980  152.8320 C   0  0  0  0  0  0  0  0  0  0  0  0
  160.9180  206.5730  151.3380 C   0  0  2  0  0  3  0  0  0  0  0  0
  161.0980  203.1570  148.3760 C   0  0  0  0  0  3  0  0  0  0  0  0
  160.5810  212.1960  147.3250 C   0  0  0  0  0  2  0  0  0  0  0  0
  161.7860  211.6000  150.4350 C   0  0  2  0  0  3  0  0  0  0  0  0
  161.2650  204.3870  147.8290 N   0  0  0  0  0  0  0  0  0  0  0  0
  161.7820  211.4540  147.8920 C   0  0  0  0  0  2  0  0  0  0  0  0
  159.8230  212.9550  150.0840 C   0  0  0  0  0  2  0  0  0  0  0  0
  160.5450  206.5350  153.8310 C   0  0  0  0  0  3  0  0  0  0  0  0
  160.9810  207.2400  152.6960 C   0  0  0  0  0  0  0  0  0  0  0  0
  161.3090  205.0880  151.4130 C   0  0  0  0  0  2  0  0  0  0  0  0
  162.0310  209.5070  149.2580 O   0  0  0  0  0  0  0  0  0  0  0  0
  162.6730  207.0550  147.9240 C   0  0  0  0  0  1  0  0  0  0  0  0
  160.9230  202.0800  150.6280 C   0  0  0  0  0  1  0  0  0  0  0  0
  161.7470  207.3080  150.2530 C   0  0  2  0  0  3  0  0  0  0  0  0
  161.2300  204.4970  150.0460 C   0  0  0  0  0  0  0  0  0  0  0  0
  159.5890  213.8110  148.8400 C   0  0  2  0  0  3  0  0  0  0  0  0
  158.1860  213.6970  148.3330 C   0  0  0  0  0  0  0  0  0  0  0  0
  157.7770  214.4130  147.2140 O   0  0  0  0  0  0  0  0  0  0  0  0
  157.3600  212.9700  148.9430 O   0  0  0  0  0  1  0  0  0  0  0  0
  1 29  1  0  0  0  0
  2 24  1  6  0  0  0
  2 12  1  0  0  0  0
  4  3  1  0  0  0  0
  5 25  1  6  0  0  0
  5  6  1  0  0  0  0
  5 27  1  0  0  0  0
  6 28  2  0  0  0  0
  7 19  1  6  0  0  0
  7 24  1  0  0  0  0
  7 17  1  0  0  0  0
  9 28  1  0  0  0  0
  9 26  1  0  0  0  0
 10 17  1  0  0  0  0
 11  3  2  0  0  0  0
 12  8  1  1  0  0  0
 12 13  1  0  0  0  0
 13 11  1  0  0  0  0
 14 23  1  1  0  0  0
 14 22  1  0  0  0  0
 15  9  1  0  0  0  0
 16  1  1  0  0  0  0
 16 19  1  0  0  0  0
 17  8  1  1  0  0  0
 18 15  2  0  0  0  0
 18  6  1  0  0  0  0
 20 10  1  0  0  0  0
 21  4  2  0  0  0  0
 22 13  2  0  0  0  0
 22 21  1  0  0  0  0
 27  2  1  0  0  0  0
 27 14  1  0  0  0  0
 28 23  1  0  0  0  0
 29 20  1  0  0  0  0
 30 29  1  0  0  0  0
 30 32  1  0  0  0  0
 31 30  2  0  0  0  0
M  END
>  <MODEL>
1

>  <REMARK>
 VINA RESULT:      -8.0      0.000      0.000
  Name = 
  1 active torsions:
  status: ('A' for Active; 'I' for Inactive)
    1  A    between atoms: CA_29  and  C_30
                            x       y       z     vdW  Elec       q    Type
                         _______ _______ _______ _____ _____    ______ ____

>  <TORSDO>
F 1

$$$$
=
 OpenBabel11122412493D

 32 37  0  0  1  0  0  0  0  0999 V2000
  162.2790  205.9350  152.6200 N   0  0  0  0  0  2  0  0  0  0  0  0
  159.6660  210.7060  153.2070 C   0  0  1  0  0  3  0  0  0  0  0  0
  159.6240  214.0210  149.5150 C   0  0  0  0  0  3  0  0  0  0  0  0
  158.3680  214.4530  149.9340 C   0  0  0  0  0  3  0  0  0  0  0  0
  158.0920  210.9430  155.2050 C   0  0  2  0  0  3  0  0  0  0  0  0
  156.9250  211.7430  155.7100 C   0  0  0  0  0  0  0  0  0  0  0  0
  160.9610  208.8610  153.2010 C   0  0  1  0  0  3  0  0  0  0  0  0
  161.2610  210.4880  151.3070 C   0  0  0  0  0  2  0  0  0  0  0  0
  155.3730  213.2890  155.7810 N   0  0  0  0  0  0  0  0  0  0  0  0
  162.5550  208.3890  151.2940 N   0  0  0  0  0  2  0  0  0  0  0  0
  160.3110  213.0560  150.2540 C   0  0  0  0  0  3  0  0  0  0  0  0
  160.5360  211.4920  152.2110 C   0  0  1  0  0  3  0  0  0  0  0  0
  159.7460  212.5040  151.4150 C   0  0  0  0  0  0  0  0  0  0  0  0
  157.8390  212.4150  153.1120 C   0  0  2  0  0  3  0  0  0  0  0  0
  155.2130  212.4160  156.7970 C   0  0  0  0  0  3  0  0  0  0  0  0
  161.2370  206.4050  153.5300 C   0  0  0  0  0  2  0  0  0  0  0  0
  161.9530  209.4170  152.1510 C   0  0  2  0  0  3  0  0  0  0  0  0
  156.1560  211.4400  156.7760 N   0  0  0  0  0  0  0  0  0  0  0  0
  161.5890  207.7830  154.0720 C   0  0  0  0  0  2  0  0  0  0  0  0
  161.5370  207.4730  150.7860 C   0  0  0  0  0  2  0  0  0  0  0  0
  157.8060  213.9360  151.1020 C   0  0  0  0  0  3  0  0  0  0  0  0
  158.4980  212.9870  151.8750 C   0  0  0  0  0  0  0  0  0  0  0  0
  157.0500  213.4840  153.8860 C   0  0  0  0  0  2  0  0  0  0  0  0
  160.5010  209.9110  154.0160 O   0  0  0  0  0  0  0  0  0  0  0  0
  159.0500  210.6930  156.3580 C   0  0  0  0  0  1  0  0  0  0  0  0
  154.5470  214.4500  155.5020 C   0  0  0  0  0  1  0  0  0  0  0  0
  158.8290  211.6740  154.0480 C   0  0  2  0  0  3  0  0  0  0  0  0
  156.4340  212.8550  155.0890 C   0  0  0  0  0  0  0  0  0  0  0  0
  161.8640  206.0440  151.2140 C   0  0  2  0  0  3  0  0  0  0  0  0
  160.7640  205.0880  150.8750 C   0  0  0  0  0  0  0  0  0  0  0  0
  160.5130  203.9830  151.6810 O   0  0  0  0  0  1  0  0  0  0  0  0
  160.0790  205.2690  149.8350 O   0  0  0  0  0  0  0  0  0  0  0  0
  1 16  1  0  0  0  0
  2 24  1  1  0  0  0
  2 27  1  0  0  0  0
  3  4  2  0  0  0  0
  3 11  1  0  0  0  0
  4 21  1  0  0  0  0
  5  6  1  0  0  0  0
  5 25  1  1  0  0  0
  6 18  1  0  0  0  0
  7 24  1  0  0  0  0
  7 19  1  1  0  0  0
  9 15  1  0  0  0  0
 10 17  1  0  0  0  0
 11 13  2  0  0  0  0
 12  8  1  6  0  0  0
 12  2  1  0  0  0  0
 13 22  1  0  0  0  0
 13 12  1  0  0  0  0
 14 23  1  1  0  0  0
 14 27  1  0  0  0  0
 16 19  1  0  0  0  0
 17  8  1  6  0  0  0
 17  7  1  0  0  0  0
 18 15  2  0  0  0  0
 20 29  1  0  0  0  0
 20 10  1  0  0  0  0
 21 22  2  0  0  0  0
 22 14  1  0  0  0  0
 23 28  1  0  0  0  0
 26  9  1  0  0  0  0
 27  5  1  0  0  0  0
 28  6  2  0  0  0  0
 28  9  1  0  0  0  0
 29  1  1  0  0  0  0
 30 29  1  0  0  0  0
 30 31  1  0  0  0  0
 32 30  2  0  0  0  0
M  END
>  <MODEL>
2

>  <REMARK>
 VINA RESULT:      -6.7      4.090      8.528
  Name = 
  1 active torsions:
  status: ('A' for Active; 'I' for Inactive)
    1  A    between atoms: CA_29  and  C_30
                            x       y       z     vdW  Elec       q    Type
                         _______ _______ _______ _____ _____    ______ ____

>  <TORSDO>
F 1

$$$$
=
 OpenBabel11122412493D

 32 37  0  0  1  0  0  0  0  0999 V2000
  160.3700  212.1700  153.1740 N   0  0  0  0  0  2  0  0  0  0  0  0
  161.2530  207.3970  150.6510 C   0  0  1  0  0  3  0  0  0  0  0  0
  160.8310  203.1220  153.1360 C   0  0  0  0  0  3  0  0  0  0  0  0
  160.4190  202.4950  151.9620 C   0  0  0  0  0  3  0  0  0  0  0  0
  161.3910  207.4260  148.1000 C   0  0  2  0  0  3  0  0  0  0  0  0
  161.2660  206.5410  146.8920 C   0  0  0  0  0  0  0  0  0  0  0  0
  161.2250  209.4170  151.6480 C   0  0  1  0  0  3  0  0  0  0  0  0
  161.1920  207.3930  153.1400 C   0  0  0  0  0  2  0  0  0  0  0  0
  161.0080  204.7210  145.7000 N   0  0  0  0  0  0  0  0  0  0  0  0
  161.0340  209.6320  154.1620 N   0  0  0  0  0  2  0  0  0  0  0  0
  161.2290  204.4600  153.1080 C   0  0  0  0  0  3  0  0  0  0  0  0
  161.6850  206.6240  151.9090 C   0  0  1  0  0  3  0  0  0  0  0  0
  161.2090  205.1900  151.9090 C   0  0  0  0  0  0  0  0  0  0  0  0
  160.7970  205.2820  149.3890 C   0  0  2  0  0  3  0  0  0  0  0  0
  161.0260  205.8070  144.9000 C   0  0  0  0  0  3  0  0  0  0  0  0
  160.3890  211.7630  151.7710 C   0  0  0  0  0  2  0  0  0  0  0  0
  161.5970  208.8650  153.0450 C   0  0  2  0  0  3  0  0  0  0  0  0
  161.1780  206.9530  145.6110 N   0  0  0  0  0  0  0  0  0  0  0  0
  161.5990  210.8840  151.4910 C   0  0  0  0  0  2  0  0  0  0  0  0
  159.6170  209.9060  153.9430 C   0  0  0  0  0  2  0  0  0  0  0  0
  160.4210  203.1980  150.7560 C   0  0  0  0  0  3  0  0  0  0  0  0
  160.8490  204.5360  150.7060 C   0  0  0  0  0  0  0  0  0  0  0  0
  161.2080  204.3870  148.2090 C   0  0  0  0  0  2  0  0  0  0  0  0
  161.8720  208.6610  150.6550 O   0  0  0  0  0  0  0  0  0  0  0  0
  162.5490  208.3870  147.8850 C   0  0  0  0  0  1  0  0  0  0  0  0
  160.8640  203.3390  145.2770 C   0  0  0  0  0  1  0  0  0  0  0  0
  161.6170  206.5980  149.3960 C   0  0  2  0  0  3  0  0  0  0  0  0
  161.1380  205.1830  146.9500 C   0  0  0  0  0  0  0  0  0  0  0  0
  159.3730  211.4140  153.9470 C   0  0  2  0  0  3  0  0  0  0  0  0
  157.9720  211.7590  153.5500 C   0  0  0  0  0  0  0  0  0  0  0  0
  157.7190  212.8420  152.7160 O   0  0  0  0  0  0  0  0  0  0  0  0
  157.0120  211.0820  154.0000 O   0  0  0  0  0  1  0  0  0  0  0  0
  1 29  1  0  0  0  0
  2 24  1  6  0  0  0
  2 12  1  0  0  0  0
  4  3  2  0  0  0  0
  5 25  1  6  0  0  0
  5 27  1  0  0  0  0
  6 28  2  0  0  0  0
  6  5  1  0  0  0  0
  7 19  1  1  0  0  0
  7 17  1  0  0  0  0
  9 28  1  0  0  0  0
 11  3  1  0  0  0  0
 12  8  1  1  0  0  0
 13 12  1  0  0  0  0
 13 11  2  0  0  0  0
 14 23  1  6  0  0  0
 14 27  1  0  0  0  0
 14 22  1  0  0  0  0
 15 18  2  0  0  0  0
 15  9  1  0  0  0  0
 16  1  1  0  0  0  0
 17  8  1  6  0  0  0
 17 10  1  0  0  0  0
 18  6  1  0  0  0  0
 19 16  1  0  0  0  0
 20 29  1  0  0  0  0
 20 10  1  0  0  0  0
 21  4  1  0  0  0  0
 22 21  2  0  0  0  0
 22 13  1  0  0  0  0
 24  7  1  0  0  0  0
 26  9  1  0  0  0  0
 27  2  1  0  0  0  0
 28 23  1  0  0  0  0
 30 29  1  0  0  0  0
 30 32  1  0  0  0  0
 31 30  2  0  0  0  0
M  END
>  <MODEL>
3

>  <REMARK>
 VINA RESULT:      -6.3      2.566      4.089
  Name = 
  1 active torsions:
  status: ('A' for Active; 'I' for Inactive)
    1  A    between atoms: CA_29  and  C_30
                            x       y       z     vdW  Elec       q    Type
                         _______ _______ _______ _____ _____    ______ ____

>  <TORSDO>
F 1

$$$$
=
 OpenBabel11122412493D

 32 37  0  0  1  0  0  0  0  0999 V2000
  162.0470  204.8880  151.9910 N   0  0  0  0  0  2  0  0  0  0  0  0
  160.1950  210.0010  152.5900 C   0  0  1  0  0  3  0  0  0  0  0  0
  161.0900  213.4240  149.1110 C   0  0  0  0  0  3  0  0  0  0  0  0
  159.8820  214.0440  149.4280 C   0  0  0  0  0  3  0  0  0  0  0  0
  158.4740  210.4170  154.4320 C   0  0  2  0  0  3  0  0  0  0  0  0
  157.4040  211.3800  154.8640 C   0  0  0  0  0  0  0  0  0  0  0  0
  161.1660  207.9680  152.6070 C   0  0  1  0  0  3  0  0  0  0  0  0
  161.9290  209.5970  150.8500 C   0  0  0  0  0  2  0  0  0  0  0  0
  156.1250  213.1590  154.8700 N   0  0  0  0  0  0  0  0  0  0  0  0
  162.8590  207.3130  150.8430 N   0  0  0  0  0  2  0  0  0  0  0  0
  161.5280  212.3290  149.8580 C   0  0  0  0  0  3  0  0  0  0  0  0
  161.2830  210.6700  151.7340 C   0  0  1  0  0  3  0  0  0  0  0  0
  160.7590  211.8320  150.9230 C   0  0  0  0  0  0  0  0  0  0  0  0
  158.6900  211.9950  152.4130 C   0  0  2  0  0  3  0  0  0  0  0  0
  155.7170  212.2850  155.8120 C   0  0  0  0  0  3  0  0  0  0  0  0
  161.0020  205.4890  152.8180 C   0  0  0  0  0  2  0  0  0  0  0  0
  162.3420  208.3910  151.6950 C   0  0  2  0  0  3  0  0  0  0  0  0
  156.4860  211.1670  155.8280 N   0  0  0  0  0  0  0  0  0  0  0  0
  161.5130  206.7650  153.4710 C   0  0  0  0  0  2  0  0  0  0  0  0
  161.7660  206.6030  150.1840 C   0  0  0  0  0  2  0  0  0  0  0  0
  159.1210  213.5800  150.5020 C   0  0  0  0  0  3  0  0  0  0  0  0
  159.5630  212.4990  151.2830 C   0  0  0  0  0  0  0  0  0  0  0  0
  158.0070  213.1490  153.1650 C   0  0  0  0  0  2  0  0  0  0  0  0
  160.7970  209.0460  153.4310 O   0  0  0  0  0  0  0  0  0  0  0  0
  159.2480  209.9630  155.6580 C   0  0  0  0  0  1  0  0  0  0  0  0
  155.5340  214.4530  154.5770 C   0  0  0  0  0  1  0  0  0  0  0  0
  159.4400  211.0610  153.3980 C   0  0  2  0  0  3  0  0  0  0  0  0
  157.1700  212.5830  154.2630 C   0  0  0  0  0  0  0  0  0  0  0  0
  161.8090  205.1220  150.5590 C   0  0  2  0  0  3  0  0  0  0  0  0
  160.6120  204.3790  150.0570 C   0  0  0  0  0  0  0  0  0  0  0  0
  160.5280  202.9980  150.1940 O   0  0  0  0  0  1  0  0  0  0  0  0
  159.6860  205.0050  149.4800 O   0  0  0  0  0  0  0  0  0  0  0  0
  1 16  1  0  0  0  0
  2 27  1  0  0  0  0
  2 24  1  1  0  0  0
  3  4  2  0  0  0  0
  3 11  1  0  0  0  0
  4 21  1  0  0  0  0
  5  6  1  0  0  0  0
  5 25  1  1  0  0  0
  6 18  1  0  0  0  0
  7 24  1  0  0  0  0
  7 19  1  1  0  0  0
  9 15  1  0  0  0  0
 10 17  1  0  0  0  0
 11 13  2  0  0  0  0
 12  8  1  6  0  0  0
 12  2  1  0  0  0  0
 13 22  1  0  0  0  0
 13 12  1  0  0  0  0
 14 23  1  1  0  0  0
 14 27  1  0  0  0  0
 15 18  2  0  0  0  0
 16 19  1  0  0  0  0
 17  8  1  6  0  0  0
 17  7  1  0  0  0  0
 20 29  1  0  0  0  0
 20 10  1  0  0  0  0
 21 22  2  0  0  0  0
 22 14  1  0  0  0  0
 23 28  1  0  0  0  0
 26  9  1  0  0  0  0
 27  5  1  0  0  0  0
 28  6  2  0  0  0  0
 28  9  1  0  0  0  0
 29  1  1  0  0  0  0
 30 31  1  0  0  0  0
 30 29  1  0  0  0  0
 32 30  2  0  0  0  0
M  END
>  <MODEL>
4

>  <REMARK>
 VINA RESULT:      -5.5      3.585      8.208
  Name = 
  1 active torsions:
  status: ('A' for Active; 'I' for Inactive)
    1  A    between atoms: CA_29  and  C_30
                            x       y       z     vdW  Elec       q    Type
                         _______ _______ _______ _____ _____    ______ ____

>  <TORSDO>
F 1

$$$$
