=
 OpenBabel11122413443D

 37 43  0  0  1  0  0  0  0  0999 V2000
  161.0360  209.0220  156.0730 C   0  0  0  0  0  0  0  0  0  0  0  0
  160.1860  211.2970  152.6100 C   0  0  2  0  0  3  0  0  0  0  0  0
  162.3250  210.4330  149.3860 C   0  0  0  0  0  2  0  0  0  0  0  0
  159.7220  210.8520  154.9930 C   0  0  0  0  0  0  0  0  0  0  0  0
  160.7990  210.4870  151.5190 C   0  0  1  0  0  3  0  0  0  0  0  0
  160.7090  210.8220  153.8980 C   0  0  1  0  0  3  0  0  0  0  0  0
  161.4970  211.3150  150.3810 C   0  0  2  0  0  3  0  0  0  0  0  0
  158.6920  211.6480  154.9400 N   0  0  0  0  0  0  0  0  0  0  0  0
  161.0580  209.4440  153.6560 N   0  0  2  0  0  0  0  0  0  0  0  0
  160.4660  207.6290  156.2380 C   0  0  0  0  0  1  0  0  0  0  0  0
  158.5820  212.5330  151.2090 C   0  0  0  0  0  2  0  0  0  0  0  0
  158.4880  212.5940  153.8230 C   0  0  0  0  0  2  0  0  0  0  0  0
  161.9030  209.0570  154.7780 C   0  0  0  0  0  2  0  0  0  0  0  0
  162.7230  207.8970  149.2470 O   0  0  0  0  0  0  0  0  0  0  0  0
  161.8680  208.9950  149.4740 C   0  0  1  0  0  3  0  0  0  0  0  0
  159.1150  212.0940  152.5330 C   0  0  2  0  0  3  0  0  0  0  0  0
  161.7200  209.5500  152.3610 C   0  0  1  0  0  3  0  0  0  0  0  0
  159.9420  209.9750  156.0650 O   0  0  0  0  0  0  0  0  0  0  0  0
  160.4670  212.1510  149.5700 C   0  0  1  0  0  3  0  0  0  0  0  0
  161.9320  209.3150  157.2580 C   0  0  0  0  0  1  0  0  0  0  0  0
  162.8550  208.5340  150.4880 C   0  0  1  0  0  3  0  0  0  0  0  0
  162.0050  208.1820  151.7070 C   0  0  2  0  0  3  0  0  0  0  0  0
  159.6930  213.1830  150.3950 C   0  0  0  0  0  2  0  0  0  0  0  0
  162.1110  213.7860  148.6280 C   0  0  0  0  0  3  0  0  0  0  0  0
  161.0930  212.8550  148.4010 C   0  0  0  0  0  0  0  0  0  0  0  0
  160.6750  212.5910  147.0860 C   0  0  0  0  0  3  0  0  0  0  0  0
  160.8650  213.0030  144.7460 F   0  0  0  0  0  0  0  0  0  0  0  0
  162.2880  214.1900  146.2470 C   0  0  0  0  0  3  0  0  0  0  0  0
  161.2710  213.2590  146.0130 C   0  0  0  0  0  0  0  0  0  0  0  0
  162.7080  214.4530  147.5540 C   0  0  0  0  0  3  0  0  0  0  0  0
  160.8210  207.4890  151.3920 O   0  0  0  0  0  0  0  0  0  0  0  0
  161.1700  206.1330  151.3710 C   0  0  1  0  0  3  0  0  0  0  0  0
  160.9270  204.1880  152.7450 O   0  0  0  0  0  1  0  0  0  0  0  0
  161.1580  205.5630  152.7830 C   0  0  0  0  0  2  0  0  0  0  0  0
  160.2340  205.3380  150.4560 C   0  0  0  0  0  2  0  0  0  0  0  0
  160.8600  204.9870  149.1410 C   0  0  0  0  0  3  0  0  0  0  0  0
  160.6650  205.6820  148.1560 O   0  0  0  0  0  0  0  0  0  0  0  0
  1 10  1  0  0  0  0
  1 20  1  0  0  0  0
  2  6  1  0  0  0  0
  3 15  1  0  0  0  0
  3  7  1  0  0  0  0
  4 18  1  0  0  0  0
  5 17  1  0  0  0  0
  5  2  1  0  0  0  0
  6  4  1  0  0  0  0
  7  5  1  0  0  0  0
  8  4  2  0  0  0  0
  9  6  1  0  0  0  0
  9 13  1  0  0  0  0
 11 16  1  0  0  0  0
 12  8  1  0  0  0  0
 13  1  1  0  0  0  0
 14 15  1  0  0  0  0
 14 21  1  0  0  0  0
 15 21  1  0  0  0  0
 16  2  1  0  0  0  0
 16 12  1  0  0  0  0
 17  9  1  0  0  0  0
 18  1  1  0  0  0  0
 19  7  1  0  0  0  0
 19 23  1  0  0  0  0
 21 22  1  0  0  0  0
 22 17  1  0  0  0  0
 23 11  1  0  0  0  0
 25 24  1  0  0  0  0
 25 19  1  0  0  0  0
 26 25  2  0  0  0  0
 27 29  1  0  0  0  0
 28 30  1  0  0  0  0
 29 28  2  0  0  0  0
 29 26  1  0  0  0  0
 30 24  2  0  0  0  0
 31 22  1  0  0  0  0
 32 31  1  0  0  0  0
 32 34  1  0  0  0  0
 33 34  1  0  0  0  0
 35 32  1  0  0  0  0
 36 35  1  0  0  0  0
 37 36  2  0  0  0  0
M  END
>  <MODEL>
1

>  <REMARK>
 VINA RESULT:      -5.4      0.000      0.000
  Name = 
  6 active torsions:
  status: ('A' for Active; 'I' for Inactive)
    1  A    between atoms: O_1  and  C_4
    2  A    between atoms: O_1  and  C_27
    3  A    between atoms: C_4  and  C_12
    4  A    between atoms: C_4  and  C_37
    5  A    between atoms: C_8  and  C_12
    6  A    between atoms: C_23  and  C_30
                            x       y       z     vdW  Elec       q    Type
                         _______ _______ _______ _____ _____    ______ ____

>  <TORSDO>
F 6

$$$$
=
 OpenBabel11122413443D

 37 43  0  0  1  0  0  0  0  0999 V2000
  159.3240  212.1510  156.1180 C   0  0  0  0  0  0  0  0  0  0  0  0
  159.0770  212.9670  151.9760 C   0  0  2  0  0  3  0  0  0  0  0  0
  161.9610  211.4450  149.7210 C   0  0  0  0  0  2  0  0  0  0  0  0
  158.1270  213.2720  154.2340 C   0  0  0  0  0  0  0  0  0  0  0  0
  159.9930  211.9540  151.3800 C   0  0  1  0  0  3  0  0  0  0  0  0
  159.3360  213.0430  153.4200 C   0  0  1  0  0  3  0  0  0  0  0  0
  160.8520  212.4590  150.1650 C   0  0  2  0  0  3  0  0  0  0  0  0
  157.0680  213.8230  153.7120 N   0  0  0  0  0  0  0  0  0  0  0  0
  159.8550  211.7410  153.7590 N   0  0  2  0  0  0  0  0  0  0  0  0
  158.8610  210.8180  156.6690 C   0  0  0  0  0  1  0  0  0  0  0  0
  157.7260  213.3830  149.9590 C   0  0  0  0  0  2  0  0  0  0  0  0
  157.0370  214.2950  152.3130 C   0  0  0  0  0  2  0  0  0  0  0  0
  160.4550  211.8950  155.0770 C   0  0  0  0  0  2  0  0  0  0  0  0
  162.6100  209.1110  150.5810 O   0  0  0  0  0  0  0  0  0  0  0  0
  161.6290  210.0640  150.2390 C   0  0  1  0  0  3  0  0  0  0  0  0
  157.9830  213.5050  151.4260 C   0  0  2  0  0  3  0  0  0  0  0  0
  160.7800  211.5170  152.6540 C   0  0  1  0  0  3  0  0  0  0  0  0
  158.1780  212.8520  155.5700 O   0  0  0  0  0  0  0  0  0  0  0  0
  159.9610  212.7940  148.9360 C   0  0  1  0  0  3  0  0  0  0  0  0
  159.8980  212.9660  157.2590 C   0  0  0  0  0  1  0  0  0  0  0  0
  162.3990  210.1380  151.5110 C   0  0  1  0  0  3  0  0  0  0  0  0
  161.3300  210.0760  152.6000 C   0  0  2  0  0  3  0  0  0  0  0  0
  158.9280  213.8980  149.1800 C   0  0  0  0  0  2  0  0  0  0  0  0
  161.8000  214.0970  147.8480 C   0  0  0  0  0  3  0  0  0  0  0  0
  160.7680  213.1610  147.7250 C   0  0  0  0  0  0  0  0  0  0  0  0
  160.5050  212.5790  146.4740 C   0  0  0  0  0  3  0  0  0  0  0  0
  161.0130  212.3740  144.1540 F   0  0  0  0  0  0  0  0  0  0  0  0
  162.2990  213.8730  145.4900 C   0  0  0  0  0  3  0  0  0  0  0  0
  161.2700  212.9370  145.3590 C   0  0  0  0  0  0  0  0  0  0  0  0
  162.5640  214.4530  146.7340 C   0  0  0  0  0  3  0  0  0  0  0  0
  160.3170  209.1330  152.3490 O   0  0  0  0  0  0  0  0  0  0  0  0
  160.4810  208.1340  153.3170 C   0  0  1  0  0  3  0  0  0  0  0  0
  160.8300  206.6620  151.4620 O   0  0  0  0  0  1  0  0  0  0  0  0
  161.2820  206.9720  152.7450 C   0  0  0  0  0  2  0  0  0  0  0  0
  161.1560  208.6920  154.5740 C   0  0  0  0  0  2  0  0  0  0  0  0
  161.2100  207.7010  155.6970 C   0  0  0  0  0  3  0  0  0  0  0  0
  160.1930  207.3830  156.2930 O   0  0  0  0  0  0  0  0  0  0  0  0
  1 10  1  0  0  0  0
  1 20  1  0  0  0  0
  2  6  1  0  0  0  0
  3  7  1  0  0  0  0
  3 15  1  0  0  0  0
  4 18  1  0  0  0  0
  5  2  1  0  0  0  0
  5 17  1  0  0  0  0
  6  9  1  0  0  0  0
  6  4  1  0  0  0  0
  7  5  1  0  0  0  0
  8  4  2  0  0  0  0
  9 13  1  0  0  0  0
 11 16  1  0  0  0  0
 12  8  1  0  0  0  0
 13  1  1  0  0  0  0
 14 21  1  0  0  0  0
 15 14  1  0  0  0  0
 15 21  1  0  0  0  0
 16  2  1  0  0  0  0
 16 12  1  0  0  0  0
 17  9  1  0  0  0  0
 18  1  1  0  0  0  0
 19 23  1  0  0  0  0
 19  7  1  0  0  0  0
 21 22  1  0  0  0  0
 22 17  1  0  0  0  0
 23 11  1  0  0  0  0
 25 24  1  0  0  0  0
 25 19  1  0  0  0  0
 26 25  2  0  0  0  0
 27 29  1  0  0  0  0
 28 30  1  0  0  0  0
 29 28  2  0  0  0  0
 29 26  1  0  0  0  0
 30 24  2  0  0  0  0
 31 22  1  0  0  0  0
 31 32  1  0  0  0  0
 32 35  1  0  0  0  0
 33 34  1  0  0  0  0
 34 32  1  0  0  0  0
 35 36  1  0  0  0  0
 36 37  2  0  0  0  0
M  END
>  <MODEL>
2

>  <REMARK>
 VINA RESULT:      -4.9      1.694      2.937
  Name = 
  6 active torsions:
  status: ('A' for Active; 'I' for Inactive)
    1  A    between atoms: O_1  and  C_4
    2  A    between atoms: O_1  and  C_27
    3  A    between atoms: C_4  and  C_12
    4  A    between atoms: C_4  and  C_37
    5  A    between atoms: C_8  and  C_12
    6  A    between atoms: C_23  and  C_30
                            x       y       z     vdW  Elec       q    Type
                         _______ _______ _______ _____ _____    ______ ____

>  <TORSDO>
F 6

$$$$
