=
 OpenBabel11122413113D

 31 35  0  0  1  0  0  0  0  0999 V2000
  160.5530  207.6150  156.0660 C   0  0  0  0  0  0  0  0  0  0  0  0
  161.8960  209.0180  152.7970 C   0  0  2  0  0  3  0  0  0  0  0  0
  161.4990  208.0350  151.7040 C   0  0  0  0  0  0  0  0  0  0  0  0
  160.7370  205.8340  151.0000 C   0  0  0  0  0  0  0  0  0  0  0  0
  161.0670  208.8710  154.0510 C   0  0  0  0  0  0  0  0  0  0  0  0
  159.4900  208.4790  156.3370 C   0  0  0  0  0  3  0  0  0  0  0  0
  161.0690  206.7350  152.0150 C   0  0  0  0  0  3  0  0  0  0  0  0
  160.4330  210.9660  152.1510 C   0  0  2  0  0  3  0  0  0  0  0  0
  160.8280  206.5590  156.9240 O   0  0  0  0  0  1  0  0  0  0  0  0
  162.0980  209.6750  150.0050 O   0  0  0  0  0  0  0  0  0  0  0  0
  160.1870  204.2240  151.4070 Cl  0  0  0  0  0  0  0  0  0  0  0  0
  159.7420  210.9800  153.5120 C   0  0  0  0  0  2  0  0  0  0  0  0
  161.8830  210.4750  152.2930 C   0  0  2  0  0  3  0  0  0  0  0  0
  161.3390  207.8110  154.9280 C   0  0  0  0  0  3  0  0  0  0  0  0
  160.8440  206.2190  149.6620 C   0  0  0  0  0  3  0  0  0  0  0  0
  159.9920  209.7450  154.3300 C   0  0  0  0  0  0  0  0  0  0  0  0
  159.2180  209.5440  155.4770 C   0  0  0  0  0  3  0  0  0  0  0  0
  162.6590  210.5550  150.9760 C   0  0  0  0  0  2  0  0  0  0  0  0
  161.6360  208.4020  150.3490 C   0  0  0  0  0  0  0  0  0  0  0  0
  161.2940  207.5000  149.3370 C   0  0  0  0  0  3  0  0  0  0  0  0
  160.3750  212.3110  151.5870 N   0  0  0  0  0  2  0  0  0  0  0  0
  158.0240  212.6480  152.1220 C   0  0  0  0  0  1  0  0  0  0  0  0
  159.0510  212.5080  151.0060 C   0  0  1  0  0  3  0  0  0  0  0  0
  157.8690  212.9450  147.5760 C   0  0  0  0  0  0  0  0  0  0  0  0
  157.7160  214.1060  149.6850 O   0  0  0  0  0  0  0  0  0  0  0  0
  161.4090  213.0180  149.1270 O   0  0  0  0  0  0  0  0  0  0  0  0
  157.1390  212.6720  146.4990 C   0  0  0  0  0  2  0  0  0  0  0  0
  157.1860  213.0480  148.9090 C   0  0  0  0  0  2  0  0  0  0  0  0
  160.1620  213.7780  148.6990 S   0  0  2  0  0  0  0  0  0  0  0  0
  159.0210  213.7740  150.1230 C   0  0  2  0  0  3  0  0  0  0  0  0
  159.3380  212.6770  147.5400 C   0  0  0  0  0  2  0  0  0  0  0  0
  1  6  1  0  0  0  0
  1  9  1  0  0  0  0
  2  3  1  6  0  0  0
  2  5  1  0  0  0  0
  3  7  1  0  0  0  0
  4 11  1  0  0  0  0
  4  7  2  0  0  0  0
  5 16  2  0  0  0  0
  5 14  1  0  0  0  0
  8 21  1  1  0  0  0
  8 13  1  0  0  0  0
  8 12  1  0  0  0  0
 10 19  1  0  0  0  0
 10 18  1  0  0  0  0
 12 16  1  0  0  0  0
 13 18  1  6  0  0  0
 13  2  1  0  0  0  0
 14  1  2  0  0  0  0
 15  4  1  0  0  0  0
 16 17  1  0  0  0  0
 17  6  2  0  0  0  0
 19  3  2  0  0  0  0
 20 15  2  0  0  0  0
 20 19  1  0  0  0  0
 23 21  1  0  0  0  0
 23 22  1  1  0  0  0
 24 28  1  0  0  0  0
 25 30  1  0  0  0  0
 27 24  2  0  0  0  0
 28 25  1  0  0  0  0
 29 26  2  1  0  0  0
 29 30  1  0  0  0  0
 30 23  1  6  0  0  0
 31 24  1  0  0  0  0
 31 29  1  0  0  0  0
M  END
>  <MODEL>
1

>  <REMARK>
 VINA RESULT:      -6.2      0.000      0.000
  Name = 
  3 active torsions:
  status: ('A' for Active; 'I' for Inactive)
    1  A    between atoms: C_5  and  N_16
    2  A    between atoms: C_5  and  C_30
    3  A    between atoms: C_10  and  N_16
                            x       y       z     vdW  Elec       q    Type
                         _______ _______ _______ _____ _____    ______ ____

>  <TORSDO>
F 3

$$$$
=
 OpenBabel11122413113D

 31 35  0  0  1  0  0  0  0  0999 V2000
  161.6430  207.7210  151.9670 C   0  0  0  0  0  0  0  0  0  0  0  0
  159.5300  210.6320  153.1980 C   0  0  2  0  0  3  0  0  0  0  0  0
  160.1520  211.1010  154.5060 C   0  0  0  0  0  0  0  0  0  0  0  0
  161.6130  210.7320  156.4160 C   0  0  0  0  0  0  0  0  0  0  0  0
  160.4810  209.8180  152.3520 C   0  0  0  0  0  0  0  0  0  0  0  0
  162.3220  208.2900  150.8880 C   0  0  0  0  0  3  0  0  0  0  0  0
  161.0730  210.3020  155.2020 C   0  0  0  0  0  3  0  0  0  0  0  0
  160.0670  212.6230  151.7480 C   0  0  2  0  0  3  0  0  0  0  0  0
  161.8820  206.4000  152.3200 O   0  0  0  0  0  1  0  0  0  0  0  0
  158.7990  213.1260  154.4290 O   0  0  0  0  0  0  0  0  0  0  0  0
  162.7720  209.7310  157.2610 Cl  0  0  0  0  0  0  0  0  0  0  0  0
  160.8410  211.7670  150.7490 C   0  0  0  0  0  2  0  0  0  0  0  0
  158.9360  211.8030  152.3900 C   0  0  2  0  0  3  0  0  0  0  0  0
  160.7260  208.4820  152.6950 C   0  0  0  0  0  3  0  0  0  0  0  0
  161.2270  211.9620  156.9550 C   0  0  0  0  0  3  0  0  0  0  0  0
  161.1660  210.3910  151.2570 C   0  0  0  0  0  0  0  0  0  0  0  0
  162.0760  209.6170  150.5290 C   0  0  0  0  0  3  0  0  0  0  0  0
  158.0530  212.6480  153.3120 C   0  0  0  0  0  2  0  0  0  0  0  0
  159.7430  212.3240  155.0760 C   0  0  0  0  0  0  0  0  0  0  0  0
  160.2930  212.7550  156.2880 C   0  0  0  0  0  3  0  0  0  0  0  0
  159.5500  213.7970  151.0510 N   0  0  0  0  0  2  0  0  0  0  0  0
  157.4570  213.1510  149.9900 C   0  0  0  0  0  1  0  0  0  0  0  0
  158.9530  213.3580  149.7950 C   0  0  1  0  0  3  0  0  0  0  0  0
  159.5650  212.8830  146.2230 C   0  0  0  0  0  0  0  0  0  0  0  0
  158.2310  214.3110  147.6370 O   0  0  0  0  0  0  0  0  0  0  0  0
  161.8310  214.1210  149.0990 O   0  0  0  0  0  0  0  0  0  0  0  0
  159.5070  212.2520  145.0550 C   0  0  0  0  0  2  0  0  0  0  0  0
  158.3080  213.0360  147.0290 C   0  0  0  0  0  2  0  0  0  0  0  0
  160.8630  214.4530  147.9730 S   0  0  2  0  0  0  0  0  0  0  0  0
  159.1840  214.4030  148.6820 C   0  0  2  0  0  3  0  0  0  0  0  0
  160.8820  212.9960  146.9190 C   0  0  0  0  0  2  0  0  0  0  0  0
  1  9  1  0  0  0  0
  1 14  1  0  0  0  0
  2  5  1  6  0  0  0
  2  3  1  0  0  0  0
  3 19  2  0  0  0  0
  3  7  1  0  0  0  0
  4 15  1  0  0  0  0
  4 11  1  0  0  0  0
  5 14  2  0  0  0  0
  6  1  2  0  0  0  0
  7  4  2  0  0  0  0
  8 21  1  6  0  0  0
  8 13  1  0  0  0  0
 10 19  1  0  0  0  0
 12 16  1  0  0  0  0
 12  8  1  0  0  0  0
 13  2  1  0  0  0  0
 13 18  1  1  0  0  0
 16  5  1  0  0  0  0
 17  6  1  0  0  0  0
 17 16  2  0  0  0  0
 18 10  1  0  0  0  0
 19 20  1  0  0  0  0
 20 15  2  0  0  0  0
 23 22  1  1  0  0  0
 23 21  1  0  0  0  0
 24 31  1  0  0  0  0
 24 28  1  0  0  0  0
 25 30  1  0  0  0  0
 27 24  2  0  0  0  0
 28 25  1  0  0  0  0
 29 30  1  0  0  0  0
 29 26  2  1  0  0  0
 30 23  1  1  0  0  0
 31 29  1  0  0  0  0
M  END
>  <MODEL>
2

>  <REMARK>
 VINA RESULT:      -6.2      2.487      4.576
  Name = 
  3 active torsions:
  status: ('A' for Active; 'I' for Inactive)
    1  A    between atoms: C_5  and  N_16
    2  A    between atoms: C_5  and  C_30
    3  A    between atoms: C_10  and  N_16
                            x       y       z     vdW  Elec       q    Type
                         _______ _______ _______ _____ _____    ______ ____

>  <TORSDO>
F 3

$$$$
=
 OpenBabel11122413113D

 31 35  0  0  1  0  0  0  0  0999 V2000
  160.8620  206.5140  146.6600 C   0  0  0  0  0  0  0  0  0  0  0  0
  160.2670  205.0590  150.1210 C   0  0  2  0  0  3  0  0  0  0  0  0
  160.6930  203.5980  150.0610 C   0  0  0  0  0  0  0  0  0  0  0  0
  161.2450  201.5970  148.7920 C   0  0  0  0  0  0  0  0  0  0  0  0
  160.8560  205.8910  149.0070 C   0  0  0  0  0  0  0  0  0  0  0  0
  161.9780  207.3260  146.8740 C   0  0  0  0  0  3  0  0  0  0  0  0
  160.8830  202.9460  148.8320 C   0  0  0  0  0  3  0  0  0  0  0  0
  162.0710  205.9520  151.6390 C   0  0  2  0  0  3  0  0  0  0  0  0
  160.3100  206.4110  145.3900 O   0  0  0  0  0  1  0  0  0  0  0  0
  160.6070  203.4670  152.4920 O   0  0  0  0  0  0  0  0  0  0  0  0
  161.4940  200.8050  147.2520 Cl  0  0  0  0  0  0  0  0  0  0  0  0
  162.5300  206.9700  150.5980 C   0  0  0  0  0  2  0  0  0  0  0  0
  160.5620  205.6880  151.4980 C   0  0  2  0  0  3  0  0  0  0  0  0
  160.3040  205.8000  147.7230 C   0  0  0  0  0  3  0  0  0  0  0  0
  161.4080  200.8820  149.9800 C   0  0  0  0  0  3  0  0  0  0  0  0
  161.9830  206.7160  149.2220 C   0  0  0  0  0  0  0  0  0  0  0  0
  162.5290  207.4330  148.1520 C   0  0  0  0  0  3  0  0  0  0  0  0
  160.0260  204.7650  152.5940 C   0  0  0  0  0  2  0  0  0  0  0  0
  160.8270  202.8580  151.2540 C   0  0  0  0  0  0  0  0  0  0  0  0
  161.1980  201.5100  151.2090 C   0  0  0  0  0  3  0  0  0  0  0  0
  162.4040  206.4620  152.9660 N   0  0  0  0  0  2  0  0  0  0  0  0
  160.6600  206.8630  154.6160 C   0  0  0  0  0  1  0  0  0  0  0  0
  161.3600  207.3960  153.3730 C   0  0  1  0  0  3  0  0  0  0  0  0
  159.7080  210.4670  154.4690 C   0  0  0  0  0  0  0  0  0  0  0  0
  161.6990  209.2140  155.0060 O   0  0  0  0  0  0  0  0  0  0  0  0
  161.3990  209.4810  151.1360 O   0  0  0  0  0  0  0  0  0  0  0  0
  158.7640  211.1930  155.0570 C   0  0  0  0  0  2  0  0  0  0  0  0
  160.3030  209.3080  155.2170 C   0  0  0  0  0  2  0  0  0  0  0  0
  161.5150  210.1170  152.5130 S   0  0  2  0  0  0  0  0  0  0  0  0
  161.9570  208.7870  153.6800 C   0  0  2  0  0  3  0  0  0  0  0  0
  159.8190  210.4930  152.9800 C   0  0  0  0  0  2  0  0  0  0  0  0
  1  6  2  0  0  0  0
  1 14  1  0  0  0  0
  2  5  1  6  0  0  0
  2 13  1  0  0  0  0
  3  2  1  0  0  0  0
  3 19  1  0  0  0  0
  4  7  1  0  0  0  0
  4 15  2  0  0  0  0
  5 16  1  0  0  0  0
  6 17  1  0  0  0  0
  7  3  2  0  0  0  0
  8 21  1  1  0  0  0
  9  1  1  0  0  0  0
 10 18  1  0  0  0  0
 11  4  1  0  0  0  0
 12  8  1  0  0  0  0
 13  8  1  0  0  0  0
 13 18  1  1  0  0  0
 14  5  2  0  0  0  0
 15 20  1  0  0  0  0
 16 12  1  0  0  0  0
 17 16  2  0  0  0  0
 19 10  1  0  0  0  0
 20 19  2  0  0  0  0
 21 23  1  0  0  0  0
 23 22  1  1  0  0  0
 24 27  2  0  0  0  0
 24 28  1  0  0  0  0
 25 28  1  0  0  0  0
 29 26  2  6  0  0  0
 29 31  1  0  0  0  0
 29 30  1  0  0  0  0
 30 23  1  6  0  0  0
 30 25  1  0  0  0  0
 31 24  1  0  0  0  0
M  END
>  <MODEL>
3

>  <REMARK>
 VINA RESULT:      -6.0      3.580      6.817
  Name = 
  3 active torsions:
  status: ('A' for Active; 'I' for Inactive)
    1  A    between atoms: C_5  and  N_16
    2  A    between atoms: C_5  and  C_30
    3  A    between atoms: C_10  and  N_16
                            x       y       z     vdW  Elec       q    Type
                         _______ _______ _______ _____ _____    ______ ____

>  <TORSDO>
F 3

$$$$
=
 OpenBabel11122413113D

 31 35  0  0  1  0  0  0  0  0999 V2000
  160.8480  205.7870  146.0310 C   0  0  0  0  0  0  0  0  0  0  0  0
  160.3400  205.0660  149.7290 C   0  0  2  0  0  3  0  0  0  0  0  0
  160.7560  203.6190  149.9530 C   0  0  0  0  0  0  0  0  0  0  0  0
  161.2610  201.3960  149.1000 C   0  0  0  0  0  0  0  0  0  0  0  0
  160.9030  205.6500  148.4550 C   0  0  0  0  0  0  0  0  0  0  0  0
  161.9740  206.6130  146.0480 C   0  0  0  0  0  3  0  0  0  0  0  0
  160.9080  202.7290  148.8770 C   0  0  0  0  0  3  0  0  0  0  0  0
  162.1900  206.2260  150.9880 C   0  0  2  0  0  3  0  0  0  0  0  0
  160.2600  205.4370  144.8230 O   0  0  0  0  0  1  0  0  0  0  0  0
  160.7370  203.9800  152.3620 O   0  0  0  0  0  0  0  0  0  0  0  0
  161.4630  200.3080  147.7460 Cl  0  0  0  0  0  0  0  0  0  0  0  0
  162.6270  207.0080  149.7510 C   0  0  0  0  0  2  0  0  0  0  0  0
  160.6770  205.9560  150.9420 C   0  0  2  0  0  3  0  0  0  0  0  0
  160.3150  205.3080  147.2300 C   0  0  0  0  0  3  0  0  0  0  0  0
  161.4530  200.9330  150.4040 C   0  0  0  0  0  3  0  0  0  0  0  0
  162.0410  206.4890  148.4700 C   0  0  0  0  0  0  0  0  0  0  0  0
  162.5610  206.9690  147.2630 C   0  0  0  0  0  3  0  0  0  0  0  0
  160.1660  205.2790  152.2160 C   0  0  0  0  0  2  0  0  0  0  0  0
  160.9180  203.1320  151.2670 C   0  0  0  0  0  0  0  0  0  0  0  0
  161.2810  201.7990  151.4850 C   0  0  0  0  0  3  0  0  0  0  0  0
  162.5630  206.9890  152.1750 N   0  0  0  0  0  2  0  0  0  0  0  0
  160.8320  207.9450  153.5950 C   0  0  0  0  0  1  0  0  0  0  0  0
  161.6360  208.1070  152.3120 C   0  0  1  0  0  3  0  0  0  0  0  0
  160.4020  211.4820  152.9780 C   0  0  0  0  0  0  0  0  0  0  0  0
  162.2830  210.1070  153.6020 O   0  0  0  0  0  0  0  0  0  0  0  0
  161.7310  209.7950  149.7640 O   0  0  0  0  0  0  0  0  0  0  0  0
  159.5860  212.3970  153.4890 C   0  0  0  0  0  2  0  0  0  0  0  0
  160.9250  210.3950  153.8710 C   0  0  0  0  0  2  0  0  0  0  0  0
  162.0140  210.6230  151.0090 S   0  0  2  0  0  0  0  0  0  0  0  0
  162.3970  209.4500  152.3520 C   0  0  2  0  0  3  0  0  0  0  0  0
  160.4060  211.2620  151.5010 C   0  0  0  0  0  2  0  0  0  0  0  0
  1  6  2  0  0  0  0
  1 14  1  0  0  0  0
  2  5  1  6  0  0  0
  2  3  1  0  0  0  0
  2 13  1  0  0  0  0
  3 19  1  0  0  0  0
  4 15  2  0  0  0  0
  5 16  1  0  0  0  0
  6 17  1  0  0  0  0
  7  4  1  0  0  0  0
  7  3  2  0  0  0  0
  8 21  1  1  0  0  0
  9  1  1  0  0  0  0
 11  4  1  0  0  0  0
 12  8  1  0  0  0  0
 13  8  1  0  0  0  0
 13 18  1  1  0  0  0
 14  5  2  0  0  0  0
 15 20  1  0  0  0  0
 16 12  1  0  0  0  0
 17 16  2  0  0  0  0
 18 10  1  0  0  0  0
 19 20  2  0  0  0  0
 19 10  1  0  0  0  0
 21 23  1  0  0  0  0
 23 22  1  1  0  0  0
 24 27  2  0  0  0  0
 24 28  1  0  0  0  0
 25 28  1  0  0  0  0
 29 26  2  6  0  0  0
 29 31  1  0  0  0  0
 29 30  1  0  0  0  0
 30 23  1  1  0  0  0
 30 25  1  0  0  0  0
 31 24  1  0  0  0  0
M  END
>  <MODEL>
4

>  <REMARK>
 VINA RESULT:      -4.7      3.219      6.642
  Name = 
  3 active torsions:
  status: ('A' for Active; 'I' for Inactive)
    1  A    between atoms: C_5  and  N_16
    2  A    between atoms: C_5  and  C_30
    3  A    between atoms: C_10  and  N_16
                            x       y       z     vdW  Elec       q    Type
                         _______ _______ _______ _____ _____    ______ ____

>  <TORSDO>
F 3

$$$$
=
 OpenBabel11122413113D

 31 35  0  0  1  0  0  0  0  0999 V2000
  161.8650  206.4730  147.3070 C   0  0  0  0  0  0  0  0  0  0  0  0
  162.4660  209.1190  149.9700 C   0  0  2  0  0  3  0  0  0  0  0  0
  161.8310  210.4050  149.4590 C   0  0  0  0  0  0  0  0  0  0  0  0
  160.9180  211.7500  147.6490 C   0  0  0  0  0  0  0  0  0  0  0  0
  161.9320  207.8850  149.2820 C   0  0  0  0  0  0  0  0  0  0  0  0
  160.8930  205.6700  147.9090 C   0  0  0  0  0  3  0  0  0  0  0  0
  161.4720  210.5530  148.1100 C   0  0  0  0  0  3  0  0  0  0  0  0
  160.9100  208.6270  151.8910 C   0  0  2  0  0  3  0  0  0  0  0  0
  162.3150  206.1780  146.0270 O   0  0  0  0  0  1  0  0  0  0  0  0
  162.0530  211.4000  151.6720 O   0  0  0  0  0  0  0  0  0  0  0  0
  160.4610  211.9110  145.9680 Cl  0  0  0  0  0  0  0  0  0  0  0  0
  160.5350  207.2610  151.3210 C   0  0  0  0  0  2  0  0  0  0  0  0
  162.3520  208.9900  151.5020 C   0  0  2  0  0  3  0  0  0  0  0  0
  162.3820  207.5750  147.9920 C   0  0  0  0  0  3  0  0  0  0  0  0
  160.7310  212.8180  148.5290 C   0  0  0  0  0  3  0  0  0  0  0  0
  160.9510  207.0690  149.8900 C   0  0  0  0  0  0  0  0  0  0  0  0
  160.4460  205.9630  149.1980 C   0  0  0  0  0  3  0  0  0  0  0  0
  162.8190  210.2970  152.1490 C   0  0  0  0  0  2  0  0  0  0  0  0
  161.6700  211.5010  150.3320 C   0  0  0  0  0  0  0  0  0  0  0  0
  161.1070  212.6940  149.8680 C   0  0  0  0  0  3  0  0  0  0  0  0
  160.7380  208.5880  153.3400 N   0  0  0  0  0  2  0  0  0  0  0  0
  159.2260  210.4150  152.7930 C   0  0  0  0  0  1  0  0  0  0  0  0
  160.2610  209.8940  153.7810 C   0  0  1  0  0  3  0  0  0  0  0  0
  160.2240  212.3330  156.5030 C   0  0  0  0  0  0  0  0  0  0  0  0
  158.6780  210.8270  155.4270 O   0  0  0  0  0  0  0  0  0  0  0  0
  162.0050  208.9260  156.0990 O   0  0  0  0  0  0  0  0  0  0  0  0
  160.2660  213.5440  157.0480 C   0  0  0  0  0  2  0  0  0  0  0  0
  159.3060  212.0910  155.3400 C   0  0  0  0  0  2  0  0  0  0  0  0
  160.7940  209.7090  156.5830 S   0  0  2  0  0  0  0  0  0  0  0  0
  159.6260  209.8020  155.1850 C   0  0  2  0  0  3  0  0  0  0  0  0
  161.3770  211.4060  156.7120 C   0  0  0  0  0  2  0  0  0  0  0  0
  1  6  2  0  0  0  0
  1 14  1  0  0  0  0
  2  5  1  6  0  0  0
  2 13  1  0  0  0  0
  3  2  1  0  0  0  0
  3 19  1  0  0  0  0
  4  7  1  0  0  0  0
  4 15  2  0  0  0  0
  5 16  1  0  0  0  0
  6 17  1  0  0  0  0
  7  3  2  0  0  0  0
  8 21  1  1  0  0  0
  9  1  1  0  0  0  0
 10 18  1  0  0  0  0
 11  4  1  0  0  0  0
 12  8  1  0  0  0  0
 13  8  1  0  0  0  0
 13 18  1  1  0  0  0
 14  5  2  0  0  0  0
 15 20  1  0  0  0  0
 16 12  1  0  0  0  0
 17 16  2  0  0  0  0
 19 10  1  0  0  0  0
 20 19  2  0  0  0  0
 21 23  1  0  0  0  0
 23 22  1  6  0  0  0
 24 31  1  0  0  0  0
 24 27  2  0  0  0  0
 28 25  1  0  0  0  0
 28 24  1  0  0  0  0
 29 26  2  6  0  0  0
 29 31  1  0  0  0  0
 30 23  1  6  0  0  0
 30 25  1  0  0  0  0
 30 29  1  0  0  0  0
M  END
>  <MODEL>
5

>  <REMARK>
 VINA RESULT:      -4.5      3.325      6.607
  Name = 
  3 active torsions:
  status: ('A' for Active; 'I' for Inactive)
    1  A    between atoms: C_5  and  N_16
    2  A    between atoms: C_5  and  C_30
    3  A    between atoms: C_10  and  N_16
                            x       y       z     vdW  Elec       q    Type
                         _______ _______ _______ _____ _____    ______ ____

>  <TORSDO>
F 3

$$$$
=
 OpenBabel11122413113D

 31 35  0  0  1  0  0  0  0  0999 V2000
  162.3610  211.5900  148.9590 C   0  0  0  0  0  0  0  0  0  0  0  0
  161.7070  210.0120  152.3560 C   0  0  2  0  0  3  0  0  0  0  0  0
  160.3860  210.5810  152.8550 C   0  0  0  0  0  0  0  0  0  0  0  0
  158.6240  212.2560  152.7610 C   0  0  0  0  0  0  0  0  0  0  0  0
  161.8850  210.1590  150.8630 C   0  0  0  0  0  0  0  0  0  0  0  0
  162.1200  210.5230  148.0910 C   0  0  0  0  0  3  0  0  0  0  0  0
  159.8210  211.7270  152.2730 C   0  0  0  0  0  3  0  0  0  0  0  0
  161.0020  207.6240  151.9580 C   0  0  2  0  0  3  0  0  0  0  0  0
  162.7120  212.8340  148.4510 O   0  0  0  0  0  1  0  0  0  0  0  0
  160.3080  208.8830  154.6000 O   0  0  0  0  0  0  0  0  0  0  0  0
  157.9250  213.6740  152.0120 Cl  0  0  0  0  0  0  0  0  0  0  0  0
  161.4010  207.6860  150.4850 C   0  0  0  0  0  2  0  0  0  0  0  0
  161.9040  208.5470  152.7940 C   0  0  2  0  0  3  0  0  0  0  0  0
  162.2440  211.4080  150.3390 C   0  0  0  0  0  3  0  0  0  0  0  0
  157.9850  211.6530  153.8470 C   0  0  0  0  0  3  0  0  0  0  0  0
  161.6450  209.0800  149.9830 C   0  0  0  0  0  0  0  0  0  0  0  0
  161.7730  209.2710  148.6030 C   0  0  0  0  0  3  0  0  0  0  0  0
  161.6250  208.4330  154.2950 C   0  0  0  0  0  2  0  0  0  0  0  0
  159.7510  210.0010  153.9730 C   0  0  0  0  0  0  0  0  0  0  0  0
  158.5490  210.5280  154.4520 C   0  0  0  0  0  3  0  0  0  0  0  0
  161.0900  206.2380  152.4060 N   0  0  0  0  0  2  0  0  0  0  0  0
  162.2370  204.1700  151.8250 C   0  0  0  0  0  1  0  0  0  0  0  0
  161.5590  205.4250  151.2890 C   0  0  1  0  0  3  0  0  0  0  0  0
  160.9930  202.3260  149.4350 C   0  0  0  0  0  0  0  0  0  0  0  0
  159.7250  203.8460  150.8140 O   0  0  0  0  0  0  0  0  0  0  0  0
  161.8300  205.9200  148.2840 O   0  0  0  0  0  0  0  0  0  0  0  0
  161.1080  201.0280  149.1770 C   0  0  0  0  0  2  0  0  0  0  0  0
  160.6320  202.7610  150.8260 C   0  0  0  0  0  2  0  0  0  0  0  0
  160.7760  204.8690  148.5970 S   0  0  2  0  0  0  0  0  0  0  0  0
  160.3850  205.0190  150.3730 C   0  0  2  0  0  3  0  0  0  0  0  0
  161.6630  203.3060  148.5280 C   0  0  0  0  0  2  0  0  0  0  0  0
  1 14  1  0  0  0  0
  2  5  1  6  0  0  0
  2 13  1  0  0  0  0
  2  3  1  0  0  0  0
  3 19  1  0  0  0  0
  4 15  2  0  0  0  0
  6 17  1  0  0  0  0
  6  1  2  0  0  0  0
  7  4  1  0  0  0  0
  7  3  2  0  0  0  0
  8 21  1  1  0  0  0
  8 13  1  0  0  0  0
  9  1  1  0  0  0  0
 11  4  1  0  0  0  0
 12  8  1  0  0  0  0
 13 18  1  1  0  0  0
 14  5  2  0  0  0  0
 15 20  1  0  0  0  0
 16 12  1  0  0  0  0
 16  5  1  0  0  0  0
 17 16  2  0  0  0  0
 18 10  1  0  0  0  0
 19 20  2  0  0  0  0
 19 10  1  0  0  0  0
 23 22  1  1  0  0  0
 23 21  1  0  0  0  0
 24 28  1  0  0  0  0
 25 28  1  0  0  0  0
 27 24  2  0  0  0  0
 29 26  2  1  0  0  0
 29 30  1  0  0  0  0
 30 25  1  0  0  0  0
 30 23  1  1  0  0  0
 31 29  1  0  0  0  0
 31 24  1  0  0  0  0
M  END
>  <MODEL>
6

>  <REMARK>
 VINA RESULT:      -4.3      3.556      7.553
  Name = 
  3 active torsions:
  status: ('A' for Active; 'I' for Inactive)
    1  A    between atoms: C_5  and  N_16
    2  A    between atoms: C_5  and  C_30
    3  A    between atoms: C_10  and  N_16
                            x       y       z     vdW  Elec       q    Type
                         _______ _______ _______ _____ _____    ______ ____

>  <TORSDO>
F 3

$$$$
=
 OpenBabel11122413113D

 31 35  0  0  1  0  0  0  0  0999 V2000
  162.3050  213.4880  146.8820 C   0  0  0  0  0  0  0  0  0  0  0  0
  160.0690  214.2190  149.8690 C   0  0  2  0  0  3  0  0  0  0  0  0
  158.6340  214.0240  149.3980 C   0  0  0  0  0  0  0  0  0  0  0  0
  156.9920  213.8180  147.6140 C   0  0  0  0  0  0  0  0  0  0  0  0
  161.0780  213.5340  148.9780 C   0  0  0  0  0  0  0  0  0  0  0  0
  162.8610  212.2560  147.2310 C   0  0  0  0  0  3  0  0  0  0  0  0
  158.3170  213.9670  148.0320 C   0  0  0  0  0  3  0  0  0  0  0  0
  160.2530  212.2630  151.4490 C   0  0  2  0  0  3  0  0  0  0  0  0
  162.6290  214.0790  145.6690 O   0  0  0  0  0  1  0  0  0  0  0  0
  157.8640  214.0720  151.7090 O   0  0  0  0  0  0  0  0  0  0  0  0
  156.6190  213.7310  145.9080 Cl  0  0  0  0  0  0  0  0  0  0  0  0
  161.4380  211.6770  150.6860 C   0  0  0  0  0  2  0  0  0  0  0  0
  160.2540  213.7970  151.3400 C   0  0  2  0  0  3  0  0  0  0  0  0
  161.4180  214.1240  147.7530 C   0  0  0  0  0  3  0  0  0  0  0  0
  155.9670  213.7390  148.5590 C   0  0  0  0  0  3  0  0  0  0  0  0
  161.6460  212.2890  149.3300 C   0  0  0  0  0  0  0  0  0  0  0  0
  162.5400  211.6640  148.4540 C   0  0  0  0  0  3  0  0  0  0  0  0
  159.1550  214.4430  152.1870 C   0  0  0  0  0  2  0  0  0  0  0  0
  157.5870  213.9790  150.3430 C   0  0  0  0  0  0  0  0  0  0  0  0
  156.2640  213.8210  149.9210 C   0  0  0  0  0  3  0  0  0  0  0  0
  160.3320  211.8240  152.8390 N   0  0  0  0  0  2  0  0  0  0  0  0
  160.3210  209.4150  152.4870 C   0  0  0  0  0  1  0  0  0  0  0  0
  159.5270  210.6160  152.9840 C   0  0  1  0  0  3  0  0  0  0  0  0
  158.2200  212.9800  155.4470 C   0  0  0  0  0  0  0  0  0  0  0  0
  157.7800  210.7210  154.7220 O   0  0  0  0  0  0  0  0  0  0  0  0
  161.6220  211.1700  155.1430 O   0  0  0  0  0  0  0  0  0  0  0  0
  157.5780  214.0660  155.8650 C   0  0  0  0  0  2  0  0  0  0  0  0
  157.5550  212.0880  154.4380 C   0  0  0  0  0  2  0  0  0  0  0  0
  160.2060  211.1900  155.7010 S   0  0  2  0  0  0  0  0  0  0  0  0
  159.1330  210.3920  154.4600 C   0  0  2  0  0  3  0  0  0  0  0  0
  159.7040  212.9140  155.5940 C   0  0  0  0  0  2  0  0  0  0  0  0
  1  6  2  0  0  0  0
  1 14  1  0  0  0  0
  2  5  1  6  0  0  0
  2 13  1  0  0  0  0
  3  2  1  0  0  0  0
  3 19  1  0  0  0  0
  4  7  1  0  0  0  0
  4 15  2  0  0  0  0
  5 16  1  0  0  0  0
  6 17  1  0  0  0  0
  7  3  2  0  0  0  0
  8 21  1  1  0  0  0
  9  1  1  0  0  0  0
 10 18  1  0  0  0  0
 11  4  1  0  0  0  0
 12  8  1  0  0  0  0
 13  8  1  0  0  0  0
 13 18  1  1  0  0  0
 14  5  2  0  0  0  0
 15 20  1  0  0  0  0
 16 12  1  0  0  0  0
 17 16  2  0  0  0  0
 19 10  1  0  0  0  0
 20 19  2  0  0  0  0
 21 23  1  0  0  0  0
 23 22  1  1  0  0  0
 24 31  1  0  0  0  0
 24 27  2  0  0  0  0
 28 25  1  0  0  0  0
 28 24  1  0  0  0  0
 29 26  2  6  0  0  0
 30 23  1  6  0  0  0
 30 25  1  0  0  0  0
 30 29  1  0  0  0  0
 31 29  1  0  0  0  0
M  END
>  <MODEL>
7

>  <REMARK>
 VINA RESULT:      -4.2      3.563      7.556
  Name = 
  3 active torsions:
  status: ('A' for Active; 'I' for Inactive)
    1  A    between atoms: C_5  and  N_16
    2  A    between atoms: C_5  and  C_30
    3  A    between atoms: C_10  and  N_16
                            x       y       z     vdW  Elec       q    Type
                         _______ _______ _______ _____ _____    ______ ____

>  <TORSDO>
F 3

$$$$
=
 OpenBabel11122413113D

 31 35  0  0  1  0  0  0  0  0999 V2000
  161.1790  201.5090  150.0550 C   0  0  0  0  0  0  0  0  0  0  0  0
  162.2010  204.7160  148.2860 C   0  0  2  0  0  3  0  0  0  0  0  0
  161.5350  204.6900  146.9170 C   0  0  0  0  0  0  0  0  0  0  0  0
  160.4200  203.4890  145.1180 C   0  0  0  0  0  0  0  0  0  0  0  0
  161.5480  203.7800  149.2760 C   0  0  0  0  0  0  0  0  0  0  0  0
  160.2780  201.9800  151.0120 C   0  0  0  0  0  3  0  0  0  0  0  0
  161.0000  203.5040  146.3890 C   0  0  0  0  0  3  0  0  0  0  0  0
  160.9070  206.6060  149.3370 C   0  0  2  0  0  3  0  0  0  0  0  0
  161.4440  200.1500  149.9590 O   0  0  0  0  0  1  0  0  0  0  0  0
  162.0790  207.0440  146.6030 O   0  0  0  0  0  0  0  0  0  0  0  0
  159.7430  202.0060  144.4850 Cl  0  0  0  0  0  0  0  0  0  0  0  0
  160.4250  205.7220  150.4850 C   0  0  0  0  0  2  0  0  0  0  0  0
  162.2920  206.1460  148.8550 C   0  0  2  0  0  3  0  0  0  0  0  0
  161.8110  202.4060  149.1910 C   0  0  0  0  0  3  0  0  0  0  0  0
  160.3800  204.6580  144.3550 C   0  0  0  0  0  3  0  0  0  0  0  0
  160.6380  204.2540  150.2470 C   0  0  0  0  0  0  0  0  0  0  0  0
  160.0160  203.3480  151.1130 C   0  0  0  0  0  3  0  0  0  0  0  0
  162.8750  207.0720  147.7850 C   0  0  0  0  0  2  0  0  0  0  0  0
  161.5210  205.8560  146.1230 C   0  0  0  0  0  0  0  0  0  0  0  0
  160.9310  205.8390  144.8560 C   0  0  0  0  0  3  0  0  0  0  0  0
  160.9320  207.9910  149.7980 N   0  0  0  0  0  2  0  0  0  0  0  0
  162.4890  209.1720  151.2500 C   0  0  0  0  0  1  0  0  0  0  0  0
  161.5010  208.0180  151.1410 C   0  0  1  0  0  3  0  0  0  0  0  0
  161.5150  209.9350  154.2520 C   0  0  0  0  0  0  0  0  0  0  0  0
  160.0250  209.5440  152.3960 O   0  0  0  0  0  0  0  0  0  0  0  0
  161.5010  206.1350  153.5500 O   0  0  0  0  0  0  0  0  0  0  0  0
  161.8920  210.9060  155.0780 C   0  0  0  0  0  2  0  0  0  0  0  0
  161.1430  210.2880  152.8410 C   0  0  0  0  0  2  0  0  0  0  0  0
  160.7140  207.4090  153.8200 S   0  0  2  0  0  0  0  0  0  0  0  0
  160.3950  208.1900  152.2030 C   0  0  2  0  0  3  0  0  0  0  0  0
  161.9110  208.5290  154.5600 C   0  0  0  0  0  2  0  0  0  0  0  0
  1  6  1  0  0  0  0
  2  3  1  6  0  0  0
  2 13  1  0  0  0  0
  2  5  1  0  0  0  0
  4  7  2  0  0  0  0
  5 16  2  0  0  0  0
  6 17  2  0  0  0  0
  7  3  1  0  0  0  0
  8 21  1  1  0  0  0
  8 12  1  0  0  0  0
  9  1  1  0  0  0  0
 10 18  1  0  0  0  0
 11  4  1  0  0  0  0
 13 18  1  6  0  0  0
 13  8  1  0  0  0  0
 14  5  1  0  0  0  0
 14  1  2  0  0  0  0
 15 20  2  0  0  0  0
 15  4  1  0  0  0  0
 16 12  1  0  0  0  0
 16 17  1  0  0  0  0
 19 10  1  0  0  0  0
 19  3  2  0  0  0  0
 20 19  1  0  0  0  0
 21 23  1  0  0  0  0
 23 22  1  6  0  0  0
 24 31  1  0  0  0  0
 24 27  2  0  0  0  0
 25 28  1  0  0  0  0
 28 24  1  0  0  0  0
 29 26  2  6  0  0  0
 29 31  1  0  0  0  0
 30 23  1  6  0  0  0
 30 25  1  0  0  0  0
 30 29  1  0  0  0  0
M  END
>  <MODEL>
8

>  <REMARK>
 VINA RESULT:      -4.0      3.993      6.811
  Name = 
  3 active torsions:
  status: ('A' for Active; 'I' for Inactive)
    1  A    between atoms: C_5  and  N_16
    2  A    between atoms: C_5  and  C_30
    3  A    between atoms: C_10  and  N_16
                            x       y       z     vdW  Elec       q    Type
                         _______ _______ _______ _____ _____    ______ ____

>  <TORSDO>
F 3

$$$$
=
 OpenBabel11122413113D

 31 35  0  0  1  0  0  0  0  0999 V2000
  160.7410  201.6340  148.7810 C   0  0  0  0  0  0  0  0  0  0  0  0
  162.3570  204.7690  150.2020 C   0  0  2  0  0  3  0  0  0  0  0  0
  161.8690  205.9350  149.3540 C   0  0  0  0  0  0  0  0  0  0  0  0
  160.8490  206.8040  147.3230 C   0  0  0  0  0  0  0  0  0  0  0  0
  161.4770  203.5470  150.0860 C   0  0  0  0  0  0  0  0  0  0  0  0
  159.7920  201.3280  149.7580 C   0  0  0  0  0  3  0  0  0  0  0  0
  161.2640  205.7230  148.1050 C   0  0  0  0  0  3  0  0  0  0  0  0
  161.1810  205.3130  152.3650 C   0  0  2  0  0  3  0  0  0  0  0  0
  160.8490  200.8450  147.6450 O   0  0  0  0  0  1  0  0  0  0  0  0
  162.7290  207.5040  151.0070 O   0  0  0  0  0  0  0  0  0  0  0  0
  160.0810  206.5210  145.7770 Cl  0  0  0  0  0  0  0  0  0  0  0  0
  160.4560  203.9690  152.3820 C   0  0  0  0  0  2  0  0  0  0  0  0
  162.5490  205.1720  151.6780 C   0  0  2  0  0  3  0  0  0  0  0  0
  161.5800  202.7390  148.9450 C   0  0  0  0  0  3  0  0  0  0  0  0
  161.0460  208.1110  147.7770 C   0  0  0  0  0  3  0  0  0  0  0  0
  160.5170  203.2330  151.0740 C   0  0  0  0  0  0  0  0  0  0  0  0
  159.6880  202.1190  150.9040 C   0  0  0  0  0  3  0  0  0  0  0  0
  163.3690  206.4630  151.7400 C   0  0  0  0  0  2  0  0  0  0  0  0
  162.0950  207.2580  149.7860 C   0  0  0  0  0  0  0  0  0  0  0  0
  161.6690  208.3370  149.0050 C   0  0  0  0  0  3  0  0  0  0  0  0
  161.3170  205.7850  153.7400 N   0  0  0  0  0  2  0  0  0  0  0  0
  159.5470  206.8710  155.0110 C   0  0  0  0  0  1  0  0  0  0  0  0
  160.5530  207.0200  153.8770 C   0  0  1  0  0  3  0  0  0  0  0  0
  159.9210  210.0720  155.7860 C   0  0  0  0  0  0  0  0  0  0  0  0
  161.6730  208.4290  155.5650 O   0  0  0  0  0  0  0  0  0  0  0  0
  160.4560  209.4410  152.0110 O   0  0  0  0  0  0  0  0  0  0  0  0
  159.3330  210.8270  156.7090 C   0  0  0  0  0  2  0  0  0  0  0  0
  160.4300  208.7150  156.1760 C   0  0  0  0  0  2  0  0  0  0  0  0
  161.0520  209.7880  153.3670 S   0  0  2  0  0  0  0  0  0  0  0  0
  161.4870  208.2130  154.1770 C   0  0  2  0  0  3  0  0  0  0  0  0
  159.6510  210.3510  154.3440 C   0  0  0  0  0  2  0  0  0  0  0  0
  1 14  2  0  0  0  0
  1  6  1  0  0  0  0
  2  3  1  6  0  0  0
  2 13  1  0  0  0  0
  3 19  1  0  0  0  0
  4 15  2  0  0  0  0
  4  7  1  0  0  0  0
  5  2  1  0  0  0  0
  5 16  2  0  0  0  0
  6 17  2  0  0  0  0
  7  3  2  0  0  0  0
  8 12  1  0  0  0  0
  8 21  1  1  0  0  0
  9  1  1  0  0  0  0
 10 18  1  0  0  0  0
 11  4  1  0  0  0  0
 13 18  1  6  0  0  0
 13  8  1  0  0  0  0
 14  5  1  0  0  0  0
 15 20  1  0  0  0  0
 16 12  1  0  0  0  0
 17 16  1  0  0  0  0
 19 10  1  0  0  0  0
 20 19  2  0  0  0  0
 21 23  1  0  0  0  0
 23 22  1  1  0  0  0
 24 28  1  0  0  0  0
 24 27  2  0  0  0  0
 25 28  1  0  0  0  0
 29 26  2  6  0  0  0
 29 30  1  0  0  0  0
 29 31  1  0  0  0  0
 30 23  1  1  0  0  0
 30 25  1  0  0  0  0
 31 24  1  0  0  0  0
M  END
>  <MODEL>
9

>  <REMARK>
 VINA RESULT:      -3.5      3.738      6.821
  Name = 
  3 active torsions:
  status: ('A' for Active; 'I' for Inactive)
    1  A    between atoms: C_5  and  N_16
    2  A    between atoms: C_5  and  C_30
    3  A    between atoms: C_10  and  N_16
                            x       y       z     vdW  Elec       q    Type
                         _______ _______ _______ _____ _____    ______ ____

>  <TORSDO>
F 3

$$$$
