=
 OpenBabel11122413233D

 31 35  0  0  1  0  0  0  0  0999 V2000
  160.7500  207.5360  156.3730 C   0  0  0  0  0  0  0  0  0  0  0  0
  161.9330  208.8060  152.9850 C   0  0  2  0  0  3  0  0  0  0  0  0
  161.5170  207.7510  151.9700 C   0  0  0  0  0  0  0  0  0  0  0  0
  160.8500  205.4750  151.4260 C   0  0  0  0  0  0  0  0  0  0  0  0
  161.1700  208.6970  154.2820 C   0  0  0  0  0  0  0  0  0  0  0  0
  159.7080  208.4220  156.6600 C   0  0  0  0  0  3  0  0  0  0  0  0
  161.2020  206.4420  152.3690 C   0  0  0  0  0  3  0  0  0  0  0  0
  160.3780  210.6130  152.3450 N   0  0  0  0  0  0  0  0  0  0  0  0
  161.0500  206.5400  157.2410 F   0  0  0  0  0  0  0  0  0  0  0  0
  161.8770  209.3390  150.1550 O   0  0  0  0  0  0  0  0  0  0  0  0
  160.5040  204.0980  151.8660 C   0  0  0  0  0  1  0  0  0  0  0  0
  159.8700  210.7900  153.7090 C   0  0  0  0  0  2  0  0  0  0  0  0
  161.7990  210.2360  152.4140 C   0  0  2  0  0  3  0  0  0  0  0  0
  161.4800  207.6750  155.1900 C   0  0  0  0  0  3  0  0  0  0  0  0
  160.8230  205.8010  150.0670 C   0  0  0  0  0  3  0  0  0  0  0  0
  160.1210  209.5900  154.5760 C   0  0  0  0  0  0  0  0  0  0  0  0
  159.4020  209.4530  155.7680 C   0  0  0  0  0  3  0  0  0  0  0  0
  162.4710  210.2880  151.0370 C   0  0  0  0  0  2  0  0  0  0  0  0
  161.5240  208.0600  150.5920 C   0  0  0  0  0  0  0  0  0  0  0  0
  161.1620  207.0900  149.6520 C   0  0  0  0  0  3  0  0  0  0  0  0
  157.9750  212.0030  152.0040 O   0  0  0  0  0  0  0  0  0  0  0  0
  159.0360  212.5410  151.5830 C   0  0  0  0  0  0  0  0  0  0  0  0
  160.2880  211.8710  151.7270 N   0  0  0  0  0  2  0  0  0  0  0  0
  157.4410  213.8490  148.4060 C   0  0  1  0  0  3  0  0  0  0  0  0
  157.5770  214.4530  150.8390 C   0  0  0  0  0  2  0  0  0  0  0  0
  160.9420  213.3190  149.5860 O   0  0  0  0  0  1  0  0  0  0  0  0
  156.6770  213.2060  147.4520 F   0  0  0  0  0  0  0  0  0  0  0  0
  156.7460  213.7560  149.7610 C   0  0  0  0  0  2  0  0  0  0  0  0
  159.6740  213.9010  149.5300 C   0  0  2  0  0  3  0  0  0  0  0  0
  158.9990  213.8850  150.9120 C   0  0  2  0  0  3  0  0  0  0  0  0
  158.8200  213.2020  148.4740 C   0  0  0  0  0  2  0  0  0  0  0  0
  1  6  1  0  0  0  0
  1  9  1  0  0  0  0
  2  3  1  6  0  0  0
  2  5  1  0  0  0  0
  3  7  1  0  0  0  0
  4 11  1  0  0  0  0
  4  7  2  0  0  0  0
  5 16  2  0  0  0  0
  5 14  1  0  0  0  0
  8 13  1  0  0  0  0
  8 12  1  0  0  0  0
 10 19  1  0  0  0  0
 10 18  1  0  0  0  0
 12 16  1  0  0  0  0
 13 18  1  6  0  0  0
 13  2  1  0  0  0  0
 14  1  2  0  0  0  0
 15  4  1  0  0  0  0
 16 17  1  0  0  0  0
 17  6  2  0  0  0  0
 19  3  2  0  0  0  0
 20 15  2  0  0  0  0
 20 19  1  0  0  0  0
 22 23  1  0  0  0  0
 22 21  2  0  0  0  0
 23  8  1  0  0  0  0
 24 27  1  6  0  0  0
 24 31  1  0  0  0  0
 24 28  1  0  0  0  0
 25 30  1  0  0  0  0
 28 25  1  0  0  0  0
 29 26  1  1  0  0  0
 29 30  1  0  0  0  0
 30 22  1  6  0  0  0
 31 29  1  0  0  0  0
M  END
>  <MODEL>
1

>  <REMARK>
 VINA RESULT:      -7.5      0.000      0.000
  Name = 
  2 active torsions:
  status: ('A' for Active; 'I' for Inactive)
    1  A    between atoms: C_5  and  C_30
    2  A    between atoms: N_10  and  N_16
                            x       y       z     vdW  Elec       q    Type
                         _______ _______ _______ _____ _____    ______ ____

>  <TORSDO>
F 2

$$$$
=
 OpenBabel11122413233D

 31 35  0  0  1  0  0  0  0  0999 V2000
  160.9130  206.2690  146.5110 C   0  0  0  0  0  0  0  0  0  0  0  0
  160.2400  205.0110  150.0400 C   0  0  2  0  0  3  0  0  0  0  0  0
  160.7070  203.5620  150.0680 C   0  0  0  0  0  0  0  0  0  0  0  0
  161.2850  201.4950  148.9200 C   0  0  0  0  0  0  0  0  0  0  0  0
  160.8300  205.7890  148.8890 C   0  0  0  0  0  0  0  0  0  0  0  0
  161.9680  207.1610  146.7240 C   0  0  0  0  0  3  0  0  0  0  0  0
  160.8840  202.8330  148.8810 C   0  0  0  0  0  3  0  0  0  0  0  0
  161.9780  206.0180  151.4740 N   0  0  0  0  0  0  0  0  0  0  0  0
  160.4430  206.0640  145.2570 F   0  0  0  0  0  0  0  0  0  0  0  0
  160.6780  203.5870  152.5050 O   0  0  0  0  0  0  0  0  0  0  0  0
  161.4820  200.7420  147.6540 C   0  0  0  0  0  1  0  0  0  0  0  0
  162.3250  207.0510  150.4920 C   0  0  0  0  0  2  0  0  0  0  0  0
  160.5370  205.7350  151.3730 C   0  0  2  0  0  3  0  0  0  0  0  0
  160.3440  205.5890  147.5900 C   0  0  0  0  0  3  0  0  0  0  0  0
  161.4990  200.8660  150.1480 C   0  0  0  0  0  3  0  0  0  0  0  0
  161.8920  206.6910  149.1010 C   0  0  0  0  0  0  0  0  0  0  0  0
  162.4480  207.3790  148.0180 C   0  0  0  0  0  3  0  0  0  0  0  0
  160.0450  204.8630  152.5340 C   0  0  0  0  0  2  0  0  0  0  0  0
  160.8900  202.9060  151.3040 C   0  0  0  0  0  0  0  0  0  0  0  0
  161.3000  201.5690  151.3380 C   0  0  0  0  0  3  0  0  0  0  0  0
  160.6190  208.2500  152.4700 O   0  0  0  0  0  0  0  0  0  0  0  0
  161.5000  207.7180  153.2010 C   0  0  0  0  0  0  0  0  0  0  0  0
  162.2260  206.5810  152.7370 N   0  0  0  0  0  2  0  0  0  0  0  0
  159.4890  209.6420  155.7710 C   0  0  1  0  0  3  0  0  0  0  0  0
  160.9710  207.6190  155.6600 C   0  0  0  0  0  2  0  0  0  0  0  0
  162.4160  210.4080  153.5850 O   0  0  0  0  0  1  0  0  0  0  0  0
  158.1770  210.0730  155.7480 F   0  0  0  0  0  0  0  0  0  0  0  0
  159.5270  208.1220  155.6470 C   0  0  0  0  0  2  0  0  0  0  0  0
  161.7080  209.8120  154.6300 C   0  0  2  0  0  3  0  0  0  0  0  0
  161.8090  208.2790  154.5590 C   0  0  2  0  0  3  0  0  0  0  0  0
  160.2560  210.2840  154.6190 C   0  0  0  0  0  2  0  0  0  0  0  0
  1  6  2  0  0  0  0
  1 14  1  0  0  0  0
  2  5  1  6  0  0  0
  2  3  1  0  0  0  0
  2 13  1  0  0  0  0
  3 19  1  0  0  0  0
  4 15  2  0  0  0  0
  5 16  1  0  0  0  0
  6 17  1  0  0  0  0
  7  4  1  0  0  0  0
  7  3  2  0  0  0  0
  8 23  1  0  0  0  0
  9  1  1  0  0  0  0
 10 18  1  0  0  0  0
 11  4  1  0  0  0  0
 12  8  1  0  0  0  0
 13  8  1  0  0  0  0
 13 18  1  1  0  0  0
 14  5  2  0  0  0  0
 15 20  1  0  0  0  0
 16 12  1  0  0  0  0
 17 16  2  0  0  0  0
 19 20  2  0  0  0  0
 19 10  1  0  0  0  0
 21 22  2  0  0  0  0
 23 22  1  0  0  0  0
 24 27  1  6  0  0  0
 28 25  1  0  0  0  0
 28 24  1  0  0  0  0
 29 26  1  6  0  0  0
 30 22  1  6  0  0  0
 30 29  1  0  0  0  0
 30 25  1  0  0  0  0
 31 29  1  0  0  0  0
 31 24  1  0  0  0  0
M  END
>  <MODEL>
2

>  <REMARK>
 VINA RESULT:      -6.7      4.051      6.966
  Name = 
  2 active torsions:
  status: ('A' for Active; 'I' for Inactive)
    1  A    between atoms: C_5  and  C_30
    2  A    between atoms: N_10  and  N_16
                            x       y       z     vdW  Elec       q    Type
                         _______ _______ _______ _____ _____    ______ ____

>  <TORSDO>
F 2

$$$$
=
 OpenBabel11122413233D

 31 35  0  0  1  0  0  0  0  0999 V2000
  161.0510  204.5870  145.0710 C   0  0  0  0  0  0  0  0  0  0  0  0
  160.4470  205.2700  148.7670 C   0  0  2  0  0  3  0  0  0  0  0  0
  160.8450  203.9980  149.5020 C   0  0  0  0  0  0  0  0  0  0  0  0
  161.2800  201.6030  149.5180 C   0  0  0  0  0  0  0  0  0  0  0  0
  161.0310  205.3450  147.3770 C   0  0  0  0  0  0  0  0  0  0  0  0
  162.1540  205.4040  144.8080 C   0  0  0  0  0  3  0  0  0  0  0  0
  160.9430  202.7700  148.8280 C   0  0  0  0  0  3  0  0  0  0  0  0
  162.2820  206.7470  149.5030 N   0  0  0  0  0  0  0  0  0  0  0  0
  160.5270  203.8200  144.0850 F   0  0  0  0  0  0  0  0  0  0  0  0
  160.9050  205.2200  151.6090 O   0  0  0  0  0  0  0  0  0  0  0  0
  161.3950  200.3150  148.7870 C   0  0  0  0  0  1  0  0  0  0  0  0
  162.6420  207.1410  148.1370 C   0  0  0  0  0  2  0  0  0  0  0  0
  160.8270  206.5370  149.5660 C   0  0  2  0  0  3  0  0  0  0  0  0
  160.4890  204.5610  146.3490 C   0  0  0  0  0  3  0  0  0  0  0  0
  161.5080  201.6480  150.8950 C   0  0  0  0  0  3  0  0  0  0  0  0
  162.1420  206.1690  147.1080 C   0  0  0  0  0  0  0  0  0  0  0  0
  162.6910  206.2010  145.8220 C   0  0  0  0  0  3  0  0  0  0  0  0
  160.3350  206.3810  151.0110 C   0  0  0  0  0  2  0  0  0  0  0  0
  161.0400  204.0250  150.8990 C   0  0  0  0  0  0  0  0  0  0  0  0
  161.3860  202.8570  151.5840 C   0  0  0  0  0  3  0  0  0  0  0  0
  161.4390  209.3640  148.9920 O   0  0  0  0  0  0  0  0  0  0  0  0
  162.1420  209.1580  150.0200 C   0  0  0  0  0  0  0  0  0  0  0  0
  162.6030  207.8420  150.3230 N   0  0  0  0  0  2  0  0  0  0  0  0
  160.2420  211.2370  152.5540 C   0  0  1  0  0  3  0  0  0  0  0  0
  162.3720  209.9160  152.4090 C   0  0  0  0  0  2  0  0  0  0  0  0
  161.8560  211.9080  149.2560 O   0  0  0  0  0  1  0  0  0  0  0  0
  158.9180  211.1890  152.9450 F   0  0  0  0  0  0  0  0  0  0  0  0
  160.9060  209.8930  152.8430 C   0  0  0  0  0  2  0  0  0  0  0  0
  161.7800  211.6050  150.6170 C   0  0  2  0  0  3  0  0  0  0  0  0
  162.5180  210.2920  150.9300 C   0  0  2  0  0  3  0  0  0  0  0  0
  160.3210  211.5540  151.0640 C   0  0  0  0  0  2  0  0  0  0  0  0
  1 14  1  0  0  0  0
  2  5  1  6  0  0  0
  2  3  1  0  0  0  0
  2 13  1  0  0  0  0
  3 19  1  0  0  0  0
  4 15  2  0  0  0  0
  6  1  2  0  0  0  0
  6 17  1  0  0  0  0
  7  3  2  0  0  0  0
  7  4  1  0  0  0  0
  8 13  1  0  0  0  0
  8 23  1  0  0  0  0
  9  1  1  0  0  0  0
 11  4  1  0  0  0  0
 12  8  1  0  0  0  0
 13 18  1  1  0  0  0
 14  5  2  0  0  0  0
 15 20  1  0  0  0  0
 16  5  1  0  0  0  0
 16 12  1  0  0  0  0
 17 16  2  0  0  0  0
 18 10  1  0  0  0  0
 19 20  2  0  0  0  0
 19 10  1  0  0  0  0
 21 22  2  0  0  0  0
 22 23  1  0  0  0  0
 24 28  1  0  0  0  0
 24 27  1  6  0  0  0
 25 28  1  0  0  0  0
 29 26  1  6  0  0  0
 29 30  1  0  0  0  0
 29 31  1  0  0  0  0
 30 22  1  6  0  0  0
 30 25  1  0  0  0  0
 31 24  1  0  0  0  0
M  END
>  <MODEL>
3

>  <REMARK>
 VINA RESULT:      -6.3      3.618      6.763
  Name = 
  2 active torsions:
  status: ('A' for Active; 'I' for Inactive)
    1  A    between atoms: C_5  and  C_30
    2  A    between atoms: N_10  and  N_16
                            x       y       z     vdW  Elec       q    Type
                         _______ _______ _______ _____ _____    ______ ____

>  <TORSDO>
F 2

$$$$
=
 OpenBabel11122413233D

 31 35  0  0  1  0  0  0  0  0999 V2000
  161.0110  204.1390  145.3390 C   0  0  0  0  0  0  0  0  0  0  0  0
  160.4510  205.7400  148.7460 C   0  0  2  0  0  3  0  0  0  0  0  0
  160.8050  204.6770  149.7760 C   0  0  0  0  0  0  0  0  0  0  0  0
  161.1540  202.3480  150.3890 C   0  0  0  0  0  0  0  0  0  0  0  0
  161.0300  205.4470  147.3840 C   0  0  0  0  0  0  0  0  0  0  0  0
  162.1420  204.8240  144.8860 C   0  0  0  0  0  3  0  0  0  0  0  0
  160.8560  203.3170  149.4290 C   0  0  0  0  0  3  0  0  0  0  0  0
  162.3420  207.2870  149.1010 N   0  0  0  0  0  0  0  0  0  0  0  0
  160.4550  203.1700  144.5720 F   0  0  0  0  0  0  0  0  0  0  0  0
  160.9200  206.3820  151.5140 O   0  0  0  0  0  0  0  0  0  0  0  0
  161.2190  200.9150  150.0020 C   0  0  0  0  0  1  0  0  0  0  0  0
  162.7090  207.3150  147.6810 C   0  0  0  0  0  2  0  0  0  0  0  0
  160.8800  207.1520  149.2080 C   0  0  2  0  0  3  0  0  0  0  0  0
  160.4550  204.4520  146.5810 C   0  0  0  0  0  3  0  0  0  0  0  0
  161.3910  202.7250  151.7130 C   0  0  0  0  0  3  0  0  0  0  0  0
  162.1690  206.1370  146.9240 C   0  0  0  0  0  0  0  0  0  0  0  0
  162.7120  205.8280  145.6720 C   0  0  0  0  0  3  0  0  0  0  0  0
  160.3900  207.3780  150.6430 C   0  0  0  0  0  2  0  0  0  0  0  0
  161.0080  205.0440  151.1240 C   0  0  0  0  0  0  0  0  0  0  0  0
  161.3160  204.0700  152.0800 C   0  0  0  0  0  3  0  0  0  0  0  0
  161.4310  209.7210  148.0680 O   0  0  0  0  0  0  0  0  0  0  0  0
  162.2070  209.7530  149.0620 C   0  0  0  0  0  0  0  0  0  0  0  0
  162.7050  208.5390  149.6240 N   0  0  0  0  0  2  0  0  0  0  0  0
  160.5300  213.1250  149.4660 C   0  0  1  0  0  3  0  0  0  0  0  0
  161.7710  211.4520  150.8670 C   0  0  0  0  0  2  0  0  0  0  0  0
  163.4330  211.8300  147.5110 O   0  0  0  0  0  1  0  0  0  0  0  0
  159.2750  213.5580  149.0850 F   0  0  0  0  0  0  0  0  0  0  0  0
  160.3930  211.9560  150.4380 C   0  0  0  0  0  2  0  0  0  0  0  0
  162.7060  212.2110  148.6390 C   0  0  2  0  0  3  0  0  0  0  0  0
  162.6320  211.0630  149.6600 C   0  0  2  0  0  3  0  0  0  0  0  0
  161.3170  212.6960  148.2320 C   0  0  0  0  0  2  0  0  0  0  0  0
  1 14  1  0  0  0  0
  2  5  1  6  0  0  0
  2 13  1  0  0  0  0
  2  3  1  0  0  0  0
  3 19  1  0  0  0  0
  4 15  2  0  0  0  0
  6  1  2  0  0  0  0
  6 17  1  0  0  0  0
  7  3  2  0  0  0  0
  7  4  1  0  0  0  0
  8 13  1  0  0  0  0
  8 23  1  0  0  0  0
  9  1  1  0  0  0  0
 11  4  1  0  0  0  0
 12  8  1  0  0  0  0
 13 18  1  1  0  0  0
 14  5  2  0  0  0  0
 15 20  1  0  0  0  0
 16  5  1  0  0  0  0
 16 12  1  0  0  0  0
 17 16  2  0  0  0  0
 18 10  1  0  0  0  0
 19 10  1  0  0  0  0
 19 20  2  0  0  0  0
 21 22  2  0  0  0  0
 22 23  1  0  0  0  0
 24 27  1  6  0  0  0
 24 28  1  0  0  0  0
 28 25  1  0  0  0  0
 29 26  1  6  0  0  0
 29 30  1  0  0  0  0
 30 22  1  6  0  0  0
 30 25  1  0  0  0  0
 31 29  1  0  0  0  0
 31 24  1  0  0  0  0
M  END
>  <MODEL>
4

>  <REMARK>
 VINA RESULT:      -6.0      3.875      6.368
  Name = 
  2 active torsions:
  status: ('A' for Active; 'I' for Inactive)
    1  A    between atoms: C_5  and  C_30
    2  A    between atoms: N_10  and  N_16
                            x       y       z     vdW  Elec       q    Type
                         _______ _______ _______ _____ _____    ______ ____

>  <TORSDO>
F 2

$$$$
=
 OpenBabel11122413233D

 31 35  0  0  1  0  0  0  0  0999 V2000
  161.9580  206.5770  147.4470 C   0  0  0  0  0  0  0  0  0  0  0  0
  162.4220  209.1720  150.1940 C   0  0  2  0  0  3  0  0  0  0  0  0
  161.7980  210.4570  149.6700 C   0  0  0  0  0  0  0  0  0  0  0  0
  161.0170  211.8400  147.8260 C   0  0  0  0  0  0  0  0  0  0  0  0
  161.9430  207.9480  149.4510 C   0  0  0  0  0  0  0  0  0  0  0  0
  161.0040  205.7290  148.0160 C   0  0  0  0  0  3  0  0  0  0  0  0
  161.5630  210.6450  148.2980 C   0  0  0  0  0  3  0  0  0  0  0  0
  160.7800  208.6170  151.9510 N   0  0  0  0  0  0  0  0  0  0  0  0
  162.4250  206.3300  146.2000 F   0  0  0  0  0  0  0  0  0  0  0  0
  161.7850  211.3830  151.9250 O   0  0  0  0  0  0  0  0  0  0  0  0
  160.7600  212.0170  146.3730 C   0  0  0  0  0  1  0  0  0  0  0  0
  160.5680  207.2520  151.4560 C   0  0  0  0  0  2  0  0  0  0  0  0
  162.1820  208.9930  151.7100 C   0  0  2  0  0  3  0  0  0  0  0  0
  162.4280  207.6800  148.1630 C   0  0  0  0  0  3  0  0  0  0  0  0
  160.7110  212.8700  148.7200 C   0  0  0  0  0  3  0  0  0  0  0  0
  160.9840  207.0900  150.0230 C   0  0  0  0  0  0  0  0  0  0  0  0
  160.5270  205.9790  149.3060 C   0  0  0  0  0  3  0  0  0  0  0  0
  162.5540  210.2960  152.4300 C   0  0  0  0  0  2  0  0  0  0  0  0
  161.5210  211.5180  150.5590 C   0  0  0  0  0  0  0  0  0  0  0  0
  160.9650  212.7090  150.0830 C   0  0  0  0  0  3  0  0  0  0  0  0
  159.2310  210.4730  153.3570 O   0  0  0  0  0  0  0  0  0  0  0  0
  159.7680  209.5350  154.0080 C   0  0  0  0  0  0  0  0  0  0  0  0
  160.5730  208.5650  153.3400 N   0  0  0  0  0  2  0  0  0  0  0  0
  162.1120  209.8020  156.9720 C   0  0  1  0  0  3  0  0  0  0  0  0
  159.9160  210.7490  156.2090 C   0  0  0  0  0  2  0  0  0  0  0  0
  160.0890  207.0680  155.4350 O   0  0  0  0  0  1  0  0  0  0  0  0
  163.4730  210.0310  157.0250 F   0  0  0  0  0  0  0  0  0  0  0  0
  161.4250  210.9820  156.2890 C   0  0  0  0  0  2  0  0  0  0  0  0
  160.3390  208.2530  156.1300 C   0  0  2  0  0  3  0  0  0  0  0  0
  159.5840  209.4330  155.4950 C   0  0  2  0  0  3  0  0  0  0  0  0
  161.8420  208.5150  156.2000 C   0  0  0  0  0  2  0  0  0  0  0  0
  1  6  2  0  0  0  0
  1 14  1  0  0  0  0
  2  5  1  6  0  0  0
  2 13  1  0  0  0  0
  3  2  1  0  0  0  0
  3 19  1  0  0  0  0
  4  7  1  0  0  0  0
  4 15  2  0  0  0  0
  5 16  1  0  0  0  0
  6 17  1  0  0  0  0
  7  3  2  0  0  0  0
  8 23  1  0  0  0  0
  9  1  1  0  0  0  0
 10 18  1  0  0  0  0
 11  4  1  0  0  0  0
 12  8  1  0  0  0  0
 13  8  1  0  0  0  0
 13 18  1  1  0  0  0
 14  5  2  0  0  0  0
 15 20  1  0  0  0  0
 16 12  1  0  0  0  0
 17 16  2  0  0  0  0
 19 10  1  0  0  0  0
 20 19  2  0  0  0  0
 21 22  2  0  0  0  0
 23 22  1  0  0  0  0
 24 27  1  6  0  0  0
 25 28  1  0  0  0  0
 28 24  1  0  0  0  0
 29 26  1  6  0  0  0
 29 31  1  0  0  0  0
 30 22  1  6  0  0  0
 30 29  1  0  0  0  0
 30 25  1  0  0  0  0
 31 24  1  0  0  0  0
M  END
>  <MODEL>
5

>  <REMARK>
 VINA RESULT:      -5.6      2.761      6.897
  Name = 
  2 active torsions:
  status: ('A' for Active; 'I' for Inactive)
    1  A    between atoms: C_5  and  C_30
    2  A    between atoms: N_10  and  N_16
                            x       y       z     vdW  Elec       q    Type
                         _______ _______ _______ _____ _____    ______ ____

>  <TORSDO>
F 2

$$$$
=
 OpenBabel11122413233D

 31 35  0  0  1  0  0  0  0  0999 V2000
  160.6370  201.5400  148.8380 C   0  0  0  0  0  0  0  0  0  0  0  0
  162.3310  204.7530  149.9770 C   0  0  2  0  0  3  0  0  0  0  0  0
  161.8320  205.8470  149.0450 C   0  0  0  0  0  0  0  0  0  0  0  0
  160.8300  206.5490  146.9410 C   0  0  0  0  0  0  0  0  0  0  0  0
  161.4440  203.5310  149.9670 C   0  0  0  0  0  0  0  0  0  0  0  0
  159.7440  201.3020  149.8860 C   0  0  0  0  0  3  0  0  0  0  0  0
  161.2570  205.5360  147.8010 C   0  0  0  0  0  3  0  0  0  0  0  0
  161.1810  205.4400  152.0510 N   0  0  0  0  0  0  0  0  0  0  0  0
  160.6770  200.6950  147.7790 F   0  0  0  0  0  0  0  0  0  0  0  0
  162.6290  207.5490  150.5960 O   0  0  0  0  0  0  0  0  0  0  0  0
  160.2090  206.2030  145.6360 C   0  0  0  0  0  1  0  0  0  0  0  0
  160.5890  204.1170  152.2750 C   0  0  0  0  0  2  0  0  0  0  0  0
  162.5020  205.2670  151.4250 C   0  0  2  0  0  3  0  0  0  0  0  0
  161.4860  202.6480  148.8800 C   0  0  0  0  0  3  0  0  0  0  0  0
  160.9850  207.8890  147.3070 C   0  0  0  0  0  3  0  0  0  0  0  0
  160.5450  203.2880  151.0240 C   0  0  0  0  0  0  0  0  0  0  0  0
  159.7070  202.1680  150.9820 C   0  0  0  0  0  3  0  0  0  0  0  0
  163.2960  206.5780  151.3980 C   0  0  0  0  0  2  0  0  0  0  0  0
  162.0190  207.2030  149.3880 C   0  0  0  0  0  0  0  0  0  0  0  0
  161.5810  208.2140  148.5270 C   0  0  0  0  0  3  0  0  0  0  0  0
  160.4560  208.0600  152.7070 O   0  0  0  0  0  0  0  0  0  0  0  0
  160.9770  207.3460  153.6080 C   0  0  0  0  0  0  0  0  0  0  0  0
  161.3700  206.0040  153.3230 N   0  0  0  0  0  2  0  0  0  0  0  0
  159.0480  209.7190  155.8430 C   0  0  1  0  0  3  0  0  0  0  0  0
  160.1210  207.4530  155.9720 C   0  0  0  0  0  2  0  0  0  0  0  0
  162.3270  209.8340  154.0660 O   0  0  0  0  0  1  0  0  0  0  0  0
  157.8560  210.3840  155.6340 F   0  0  0  0  0  0  0  0  0  0  0  0
  158.8120  208.2130  155.7530 C   0  0  0  0  0  2  0  0  0  0  0  0
  161.3890  209.4260  155.0150 C   0  0  2  0  0  3  0  0  0  0  0  0
  161.2060  207.8990  154.9850 C   0  0  2  0  0  3  0  0  0  0  0  0
  160.0660  210.1580  154.7970 C   0  0  0  0  0  2  0  0  0  0  0  0
  1 14  2  0  0  0  0
  1  6  1  0  0  0  0
  2  3  1  6  0  0  0
  2 13  1  0  0  0  0
  3 19  1  0  0  0  0
  4 15  2  0  0  0  0
  4  7  1  0  0  0  0
  5  2  1  0  0  0  0
  5 16  2  0  0  0  0
  6 17  2  0  0  0  0
  7  3  2  0  0  0  0
  8 12  1  0  0  0  0
  8 23  1  0  0  0  0
  9  1  1  0  0  0  0
 10 18  1  0  0  0  0
 11  4  1  0  0  0  0
 13 18  1  6  0  0  0
 13  8  1  0  0  0  0
 14  5  1  0  0  0  0
 15 20  1  0  0  0  0
 16 12  1  0  0  0  0
 17 16  1  0  0  0  0
 19 10  1  0  0  0  0
 20 19  2  0  0  0  0
 21 22  2  0  0  0  0
 23 22  1  0  0  0  0
 24 27  1  6  0  0  0
 28 24  1  0  0  0  0
 28 25  1  0  0  0  0
 29 26  1  6  0  0  0
 30 22  1  6  0  0  0
 30 29  1  0  0  0  0
 30 25  1  0  0  0  0
 31 29  1  0  0  0  0
 31 24  1  0  0  0  0
M  END
>  <MODEL>
6

>  <REMARK>
 VINA RESULT:      -5.1      4.105      6.738
  Name = 
  2 active torsions:
  status: ('A' for Active; 'I' for Inactive)
    1  A    between atoms: C_5  and  C_30
    2  A    between atoms: N_10  and  N_16
                            x       y       z     vdW  Elec       q    Type
                         _______ _______ _______ _____ _____    ______ ____

>  <TORSDO>
F 2

$$$$
=
 OpenBabel11122413233D

 31 35  0  0  1  0  0  0  0  0999 V2000
  162.2530  213.4960  147.5000 C   0  0  0  0  0  0  0  0  0  0  0  0
  159.7520  214.3060  150.2520 C   0  0  2  0  0  3  0  0  0  0  0  0
  158.3780  214.2680  149.5990 C   0  0  0  0  0  0  0  0  0  0  0  0
  156.9650  214.3620  147.6190 C   0  0  0  0  0  0  0  0  0  0  0  0
  160.8010  213.5830  149.4430 C   0  0  0  0  0  0  0  0  0  0  0  0
  162.6870  212.2220  147.8770 C   0  0  0  0  0  3  0  0  0  0  0  0
  158.2320  214.3690  148.2060 C   0  0  0  0  0  3  0  0  0  0  0  0
  159.5860  212.2800  151.6520 N   0  0  0  0  0  0  0  0  0  0  0  0
  162.7410  214.0710  146.3750 F   0  0  0  0  0  0  0  0  0  0  0  0
  157.3240  214.1570  151.7940 O   0  0  0  0  0  0  0  0  0  0  0  0
  156.8290  214.4530  146.1420 C   0  0  0  0  0  1  0  0  0  0  0  0
  160.8360  211.7080  151.1410 C   0  0  0  0  0  2  0  0  0  0  0  0
  159.7180  213.7450  151.6920 C   0  0  2  0  0  3  0  0  0  0  0  0
  161.3170  214.1750  148.2820 C   0  0  0  0  0  3  0  0  0  0  0  0
  155.8250  214.2680  148.4210 C   0  0  0  0  0  3  0  0  0  0  0  0
  161.2420  212.3000  149.8220 C   0  0  0  0  0  0  0  0  0  0  0  0
  162.1900  211.6310  149.0420 C   0  0  0  0  0  3  0  0  0  0  0  0
  158.5620  214.4010  152.4560 C   0  0  0  0  0  2  0  0  0  0  0  0
  157.2180  214.2120  150.4020 C   0  0  0  0  0  0  0  0  0  0  0  0
  155.9520  214.1960  149.8100 C   0  0  0  0  0  3  0  0  0  0  0  0
  160.0900  209.6390  152.4230 O   0  0  0  0  0  0  0  0  0  0  0  0
  159.7300  210.4570  153.3130 C   0  0  0  0  0  0  0  0  0  0  0  0
  159.4540  211.8150  152.9710 N   0  0  0  0  0  2  0  0  0  0  0  0
  161.8280  210.8590  156.4410 C   0  0  1  0  0  3  0  0  0  0  0  0
  159.4540  211.2050  155.7010 C   0  0  0  0  0  2  0  0  0  0  0  0
  160.8040  207.9850  154.2920 O   0  0  0  0  0  1  0  0  0  0  0  0
  163.0440  211.4840  156.6350 F   0  0  0  0  0  0  0  0  0  0  0  0
  160.8090  211.8750  155.9330 C   0  0  0  0  0  2  0  0  0  0  0  0
  160.6540  209.0300  155.2050 C   0  0  2  0  0  3  0  0  0  0  0  0
  159.5690  210.0160  154.7390 C   0  0  2  0  0  3  0  0  0  0  0  0
  161.9930  209.7270  155.4320 C   0  0  0  0  0  2  0  0  0  0  0  0
  1  6  2  0  0  0  0
  1 14  1  0  0  0  0
  2  5  1  6  0  0  0
  2 13  1  0  0  0  0
  3  2  1  0  0  0  0
  3 19  1  0  0  0  0
  4  7  1  0  0  0  0
  4 15  2  0  0  0  0
  5 16  1  0  0  0  0
  6 17  1  0  0  0  0
  7  3  2  0  0  0  0
  8 13  1  0  0  0  0
  8 23  1  0  0  0  0
  9  1  1  0  0  0  0
 10 18  1  0  0  0  0
 11  4  1  0  0  0  0
 12  8  1  0  0  0  0
 13 18  1  1  0  0  0
 14  5  2  0  0  0  0
 15 20  1  0  0  0  0
 16 12  1  0  0  0  0
 17 16  2  0  0  0  0
 19 10  1  0  0  0  0
 20 19  2  0  0  0  0
 21 22  2  0  0  0  0
 23 22  1  0  0  0  0
 24 27  1  6  0  0  0
 25 28  1  0  0  0  0
 28 24  1  0  0  0  0
 29 26  1  6  0  0  0
 29 31  1  0  0  0  0
 30 22  1  6  0  0  0
 30 29  1  0  0  0  0
 30 25  1  0  0  0  0
 31 24  1  0  0  0  0
M  END
>  <MODEL>
7

>  <REMARK>
 VINA RESULT:      -4.9      3.106      7.953
  Name = 
  2 active torsions:
  status: ('A' for Active; 'I' for Inactive)
    1  A    between atoms: C_5  and  C_30
    2  A    between atoms: N_10  and  N_16
                            x       y       z     vdW  Elec       q    Type
                         _______ _______ _______ _____ _____    ______ ____

>  <TORSDO>
F 2

$$$$
=
 OpenBabel11122413233D

 31 35  0  0  1  0  0  0  0  0999 V2000
  161.6360  203.5930  151.8290 C   0  0  0  0  0  0  0  0  0  0  0  0
  162.5420  207.2790  151.5460 C   0  0  2  0  0  3  0  0  0  0  0  0
  162.0830  207.7220  150.1640 C   0  0  0  0  0  0  0  0  0  0  0  0
  161.4380  207.2060  147.8750 C   0  0  0  0  0  0  0  0  0  0  0  0
  161.8760  206.0030  151.9990 C   0  0  0  0  0  0  0  0  0  0  0  0
  160.5950  203.6270  152.7600 C   0  0  0  0  0  3  0  0  0  0  0  0
  161.8310  206.7870  149.1480 C   0  0  0  0  0  3  0  0  0  0  0  0
  160.8990  208.5010  152.9240 N   0  0  0  0  0  0  0  0  0  0  0  0
  162.0240  202.4120  151.2900 F   0  0  0  0  0  0  0  0  0  0  0  0
  162.2720  210.0570  150.8370 O   0  0  0  0  0  0  0  0  0  0  0  0
  161.1600  206.2030  146.8150 C   0  0  0  0  0  1  0  0  0  0  0  0
  160.4860  207.3030  153.6640 C   0  0  0  0  0  2  0  0  0  0  0  0
  162.3310  208.3870  152.6040 C   0  0  2  0  0  3  0  0  0  0  0  0
  162.2770  204.7750  151.4520 C   0  0  0  0  0  3  0  0  0  0  0  0
  161.3070  208.5700  147.5990 C   0  0  0  0  0  3  0  0  0  0  0  0
  160.8280  206.0340  152.9390 C   0  0  0  0  0  0  0  0  0  0  0  0
  160.2000  204.8440  153.3220 C   0  0  0  0  0  3  0  0  0  0  0  0
  162.9010  209.7050  152.0660 C   0  0  0  0  0  2  0  0  0  0  0  0
  161.9840  209.0980  149.8640 C   0  0  0  0  0  0  0  0  0  0  0  0
  161.5810  209.5130  148.5910 C   0  0  0  0  0  3  0  0  0  0  0  0
  159.2620  210.7030  152.3860 O   0  0  0  0  0  0  0  0  0  0  0  0
  159.8800  210.6800  153.4850 C   0  0  0  0  0  0  0  0  0  0  0  0
  160.7330  209.5810  153.8070 N   0  0  0  0  0  2  0  0  0  0  0  0
  156.9410  212.2700  155.2700 C   0  0  1  0  0  3  0  0  0  0  0  0
  159.2050  211.3340  155.8200 C   0  0  0  0  0  2  0  0  0  0  0  0
  159.3720  213.3800  152.6640 O   0  0  0  0  0  1  0  0  0  0  0  0
  155.5920  211.9800  155.2160 F   0  0  0  0  0  0  0  0  0  0  0  0
  157.7050  211.0430  155.7610 C   0  0  0  0  0  2  0  0  0  0  0  0
  158.9230  212.9950  153.9280 C   0  0  2  0  0  3  0  0  0  0  0  0
  159.7430  211.8090  154.4650 C   0  0  2  0  0  3  0  0  0  0  0  0
  157.4300  212.6760  153.8840 C   0  0  0  0  0  2  0  0  0  0  0  0
  1  6  1  0  0  0  0
  2  3  1  6  0  0  0
  2  5  1  0  0  0  0
  2 13  1  0  0  0  0
  4  7  1  0  0  0  0
  5 16  2  0  0  0  0
  6 17  2  0  0  0  0
  7  3  2  0  0  0  0
  8 12  1  0  0  0  0
  8 23  1  0  0  0  0
  9  1  1  0  0  0  0
 10 18  1  0  0  0  0
 11  4  1  0  0  0  0
 13 18  1  6  0  0  0
 13  8  1  0  0  0  0
 14  1  2  0  0  0  0
 14  5  1  0  0  0  0
 15  4  2  0  0  0  0
 15 20  1  0  0  0  0
 16 17  1  0  0  0  0
 16 12  1  0  0  0  0
 19  3  1  0  0  0  0
 19 10  1  0  0  0  0
 20 19  2  0  0  0  0
 21 22  2  0  0  0  0
 22 23  1  0  0  0  0
 24 27  1  6  0  0  0
 24 28  1  0  0  0  0
 28 25  1  0  0  0  0
 29 26  1  6  0  0  0
 29 30  1  0  0  0  0
 30 22  1  6  0  0  0
 30 25  1  0  0  0  0
 31 29  1  0  0  0  0
 31 24  1  0  0  0  0
M  END
>  <MODEL>
8

>  <REMARK>
 VINA RESULT:      -4.9      3.152      4.467
  Name = 
  2 active torsions:
  status: ('A' for Active; 'I' for Inactive)
    1  A    between atoms: C_5  and  C_30
    2  A    between atoms: N_10  and  N_16
                            x       y       z     vdW  Elec       q    Type
                         _______ _______ _______ _____ _____    ______ ____

>  <TORSDO>
F 2

$$$$
=
 OpenBabel11122413233D

 31 35  0  0  1  0  0  0  0  0999 V2000
  160.8520  210.1390  155.4780 C   0  0  0  0  0  0  0  0  0  0  0  0
  162.1170  210.0180  151.8900 C   0  0  2  0  0  3  0  0  0  0  0  0
  161.7730  208.6300  151.3670 C   0  0  0  0  0  0  0  0  0  0  0  0
  161.2010  206.2970  151.7570 C   0  0  0  0  0  0  0  0  0  0  0  0
  161.3110  210.3970  153.1080 C   0  0  0  0  0  0  0  0  0  0  0  0
  159.7720  211.0190  155.3690 C   0  0  0  0  0  3  0  0  0  0  0  0
  161.4860  207.5730  152.2470 C   0  0  0  0  0  3  0  0  0  0  0  0
  160.5280  211.3530  150.5530 N   0  0  0  0  0  0  0  0  0  0  0  0
  161.1530  209.5820  156.6760 F   0  0  0  0  0  0  0  0  0  0  0  0
  162.1470  209.3850  149.0800 O   0  0  0  0  0  0  0  0  0  0  0  0
  160.8830  205.1930  152.7000 C   0  0  0  0  0  1  0  0  0  0  0  0
  159.9660  212.0330  151.7250 C   0  0  0  0  0  2  0  0  0  0  0  0
  161.9580  211.0980  150.7960 C   0  0  2  0  0  3  0  0  0  0  0  0
  161.6200  209.8320  154.3530 C   0  0  0  0  0  3  0  0  0  0  0  0
  161.2130  206.0580  150.3800 C   0  0  0  0  0  3  0  0  0  0  0  0
  160.2230  211.2860  153.0010 C   0  0  0  0  0  0  0  0  0  0  0  0
  159.4660  211.6000  154.1350 C   0  0  0  0  0  3  0  0  0  0  0  0
  162.6770  210.6310  149.5250 C   0  0  0  0  0  2  0  0  0  0  0  0
  161.8200  208.3690  149.9810 C   0  0  0  0  0  0  0  0  0  0  0  0
  161.5240  207.0910  149.4950 C   0  0  0  0  0  3  0  0  0  0  0  0
  158.9890  213.6860  150.6520 O   0  0  0  0  0  0  0  0  0  0  0  0
  159.6240  213.4400  149.5900 C   0  0  0  0  0  0  0  0  0  0  0  0
  160.4200  212.2600  149.4860 N   0  0  0  0  0  2  0  0  0  0  0  0
  159.5220  212.9360  145.8370 C   0  0  1  0  0  3  0  0  0  0  0  0
  158.2510  214.1750  147.6120 C   0  0  0  0  0  2  0  0  0  0  0  0
  161.9550  214.4280  148.2420 O   0  0  0  0  0  1  0  0  0  0  0  0
  159.5550  211.7800  145.0830 F   0  0  0  0  0  0  0  0  0  0  0  0
  158.3060  212.9080  146.7580 C   0  0  0  0  0  2  0  0  0  0  0  0
  160.7780  214.3190  147.4990 C   0  0  2  0  0  3  0  0  0  0  0  0
  159.5430  214.3720  148.4150 C   0  0  2  0  0  3  0  0  0  0  0  0
  160.8030  213.0450  146.6570 C   0  0  0  0  0  2  0  0  0  0  0  0
  1  9  1  0  0  0  0
  2  3  1  6  0  0  0
  2  5  1  0  0  0  0
  3  7  1  0  0  0  0
  4  7  2  0  0  0  0
  4 11  1  0  0  0  0
  5 14  1  0  0  0  0
  6  1  1  0  0  0  0
  8 13  1  0  0  0  0
  8 12  1  0  0  0  0
 10 18  1  0  0  0  0
 10 19  1  0  0  0  0
 12 16  1  0  0  0  0
 13 18  1  6  0  0  0
 13  2  1  0  0  0  0
 14  1  2  0  0  0  0
 15  4  1  0  0  0  0
 16  5  2  0  0  0  0
 16 17  1  0  0  0  0
 17  6  2  0  0  0  0
 19  3  2  0  0  0  0
 20 19  1  0  0  0  0
 20 15  2  0  0  0  0
 22 21  2  0  0  0  0
 23 22  1  0  0  0  0
 23  8  1  0  0  0  0
 24 27  1  1  0  0  0
 24 31  1  0  0  0  0
 24 28  1  0  0  0  0
 25 30  1  0  0  0  0
 28 25  1  0  0  0  0
 29 26  1  1  0  0  0
 29 30  1  0  0  0  0
 30 22  1  1  0  0  0
 31 29  1  0  0  0  0
M  END
>  <MODEL>
9

>  <REMARK>
 VINA RESULT:      -4.7      1.761      2.299
  Name = 
  2 active torsions:
  status: ('A' for Active; 'I' for Inactive)
    1  A    between atoms: C_5  and  C_30
    2  A    between atoms: N_10  and  N_16
                            x       y       z     vdW  Elec       q    Type
                         _______ _______ _______ _____ _____    ______ ____

>  <TORSDO>
F 2

$$$$
