=
 OpenBabel11122412523D

 32 38  0  0  1  0  0  0  0  0999 V2000
  160.4620  209.1450  156.7650 C   0  0  1  0  0  3  0  0  0  0  0  0
  161.0470  206.4140  152.2640 C   0  0  0  0  0  0  0  0  0  0  0  0
  162.0510  209.8660  148.9480 C   0  0  0  0  0  3  0  0  0  0  0  0
  162.0410  208.9080  147.9360 C   0  0  0  0  0  3  0  0  0  0  0  0
  160.8040  204.0340  151.5210 C   0  0  0  0  0  0  0  0  0  0  0  0
  160.8120  203.1430  150.4560 C   0  0  0  0  0  0  0  0  0  0  0  0
  161.1710  207.0510  154.7140 C   0  0  1  0  0  3  0  0  0  0  0  0
  161.4070  208.8340  153.0110 C   0  0  0  0  0  2  0  0  0  0  0  0
  160.9860  202.4470  148.4100 N   0  0  0  0  0  0  0  0  0  0  0  0
  160.9080  209.5540  155.3610 C   0  0  2  0  0  3  0  0  0  0  0  0
  161.8060  209.4850  150.2670 C   0  0  0  0  0  3  0  0  0  0  0  0
  161.2960  207.7740  151.9320 C   0  0  0  0  0  0  0  0  0  0  0  0
  161.5470  208.1430  150.5980 C   0  0  0  0  0  0  0  0  0  0  0  0
  161.2910  205.8190  149.8820 C   0  0  0  0  0  0  0  0  0  0  0  0
  160.7280  201.4130  149.2020 N   0  0  0  0  0  0  0  0  0  0  0  0
  159.9030  207.7080  156.8480 C   0  0  0  0  0  2  0  0  0  0  0  0
  160.7060  208.4490  154.3020 C   0  0  2  0  0  3  0  0  0  0  0  0
  160.6150  201.8100  150.4700 N   0  0  0  0  0  0  0  0  0  0  0  0
  160.7150  206.6330  156.1140 C   0  0  0  0  0  2  0  0  0  0  0  0
  161.9470  209.2190  156.4260 C   0  0  1  0  0  3  0  0  0  0  0  0
  161.7880  207.5720  148.2450 C   0  0  0  0  0  3  0  0  0  0  0  0
  161.5390  207.1710  149.5720 C   0  0  0  0  0  0  0  0  0  0  0  0
  161.2870  204.8560  148.8440 C   0  0  0  0  0  3  0  0  0  0  0  0
  160.6670  206.0550  153.6850 C   0  0  0  0  0  2  0  0  0  0  0  0
  160.5750  203.5420  152.8020 O   0  0  0  0  0  1  0  0  0  0  0  0
  161.1700  202.3640  146.9710 C   0  0  0  0  0  1  0  0  0  0  0  0
  161.0420  205.4210  151.2440 C   0  0  0  0  0  0  0  0  0  0  0  0
  161.0410  203.5370  149.1830 C   0  0  0  0  0  0  0  0  0  0  0  0
  162.4880  210.4230  156.9470 O   0  0  0  0  0  0  0  0  0  0  0  0
  163.6220  211.0280  156.4030 C   0  0  0  0  0  0  0  0  0  0  0  0
  164.6120  211.7470  157.2600 C   0  0  0  0  0  1  0  0  0  0  0  0
  163.8170  210.9700  155.1620 O   0  0  0  0  0  0  0  0  0  0  0  0
  1 16  1  6  0  0  0
  2 24  1  0  0  0  0
  3 11  2  0  0  0  0
  4 21  2  0  0  0  0
  4  3  1  0  0  0  0
  5 25  1  0  0  0  0
  6 18  1  0  0  0  0
  6  5  2  0  0  0  0
  7 24  1  6  0  0  0
  7 19  1  0  0  0  0
  8 17  1  0  0  0  0
  9 28  1  0  0  0  0
  9 15  1  0  0  0  0
 10 20  1  0  0  0  0
 10  1  1  0  0  0  0
 11 13  1  0  0  0  0
 12  2  1  0  0  0  0
 12  8  1  0  0  0  0
 13 12  2  0  0  0  0
 14 27  1  0  0  0  0
 15 18  2  0  0  0  0
 17  7  1  0  0  0  0
 17 10  1  0  0  0  0
 19 16  1  0  0  0  0
 20  1  1  0  0  0  0
 20 29  1  0  0  0  0
 21 22  1  0  0  0  0
 22 14  2  0  0  0  0
 22 13  1  0  0  0  0
 23 28  2  0  0  0  0
 23 14  1  0  0  0  0
 26  9  1  0  0  0  0
 27  5  1  0  0  0  0
 27  2  2  0  0  0  0
 28  6  1  0  0  0  0
 30 29  1  0  0  0  0
 30 31  1  0  0  0  0
 32 30  2  0  0  0  0
M  END
>  <MODEL>
1

>  <REMARK>
 VINA RESULT:      -9.9      0.000      0.000
  Name = 
  2 active torsions:
  status: ('A' for Active; 'I' for Inactive)
    1  A    between atoms: C_20  and  O_29
    2  A    between atoms: O_29  and  C_30
                            x       y       z     vdW  Elec       q    Type
                         _______ _______ _______ _____ _____    ______ ____

>  <TORSDO>
F 2

$$$$
=
 OpenBabel11122412523D

 32 38  0  0  1  0  0  0  0  0999 V2000
  161.3010  201.6240  149.1240 C   0  0  1  0  0  3  0  0  0  0  0  0
  161.1730  206.1940  151.7990 C   0  0  0  0  0  0  0  0  0  0  0  0
  162.0050  209.5650  148.3550 C   0  0  0  0  0  3  0  0  0  0  0  0
  162.0170  210.5650  149.3250 C   0  0  0  0  0  3  0  0  0  0  0  0
  160.9540  206.9120  154.1890 C   0  0  0  0  0  0  0  0  0  0  0  0
  160.9790  207.9660  155.0920 C   0  0  0  0  0  0  0  0  0  0  0  0
  160.6050  203.8420  151.0440 C   0  0  1  0  0  3  0  0  0  0  0  0
  161.2940  205.5010  149.3400 C   0  0  0  0  0  2  0  0  0  0  0  0
  161.1530  210.0060  155.8070 N   0  0  0  0  0  0  0  0  0  0  0  0
  161.3530  203.0840  148.6740 C   0  0  2  0  0  3  0  0  0  0  0  0
  161.7950  208.2380  148.7270 C   0  0  0  0  0  3  0  0  0  0  0  0
  161.3900  206.5430  150.4380 C   0  0  0  0  0  0  0  0  0  0  0  0
  161.5940  207.8870  150.0740 C   0  0  0  0  0  0  0  0  0  0  0  0
  161.3940  208.5740  152.4130 C   0  0  0  0  0  0  0  0  0  0  0  0
  160.9150  209.2010  156.8360 N   0  0  0  0  0  0  0  0  0  0  0  0
  161.4160  201.4380  150.6520 C   0  0  0  0  0  2  0  0  0  0  0  0
  161.5150  204.0840  149.8380 C   0  0  2  0  0  3  0  0  0  0  0  0
  160.8030  207.9370  156.4280 N   0  0  0  0  0  0  0  0  0  0  0  0
  160.5610  202.3840  151.5050 C   0  0  0  0  0  2  0  0  0  0  0  0
  160.0270  202.3310  148.6750 C   0  0  1  0  0  3  0  0  0  0  0  0
  161.8170  210.2360  150.6650 C   0  0  0  0  0  3  0  0  0  0  0  0
  161.6030  208.9010  151.0590 C   0  0  0  0  0  0  0  0  0  0  0  0
  161.4050  209.6000  153.3870 C   0  0  0  0  0  3  0  0  0  0  0  0
  161.0700  204.7330  152.1820 C   0  0  0  0  0  2  0  0  0  0  0  0
  160.7100  205.6280  154.6660 O   0  0  0  0  0  1  0  0  0  0  0  0
  161.3250  211.4450  155.9020 C   0  0  0  0  0  1  0  0  0  0  0  0
  161.1720  207.2040  152.8020 C   0  0  0  0  0  0  0  0  0  0  0  0
  161.1960  209.2450  154.7080 C   0  0  0  0  0  0  0  0  0  0  0  0
  159.7130  201.9350  147.3490 O   0  0  0  0  0  0  0  0  0  0  0  0
  160.6910  201.7800  146.3640 C   0  0  0  0  0  0  0  0  0  0  0  0
  161.2250  202.9480  145.6030 C   0  0  0  0  0  1  0  0  0  0  0  0
  161.1330  200.6300  146.1100 O   0  0  0  0  0  0  0  0  0  0  0  0
  1 16  1  1  0  0  0
  2 24  1  0  0  0  0
  2 27  1  0  0  0  0
  3 11  2  0  0  0  0
  3  4  1  0  0  0  0
  4 21  2  0  0  0  0
  5 25  1  0  0  0  0
  5  6  1  0  0  0  0
  6 18  1  0  0  0  0
  7 19  1  1  0  0  0
  7 24  1  0  0  0  0
  8 17  1  0  0  0  0
  8 12  1  0  0  0  0
  9 26  1  0  0  0  0
  9 15  1  0  0  0  0
 10 20  1  0  0  0  0
 10  1  1  0  0  0  0
 10 17  1  0  0  0  0
 11 13  1  0  0  0  0
 12  2  2  0  0  0  0
 13 12  1  0  0  0  0
 13 22  2  0  0  0  0
 14 27  1  0  0  0  0
 14 23  2  0  0  0  0
 16 19  1  0  0  0  0
 17  7  1  0  0  0  0
 18 15  2  0  0  0  0
 20  1  1  0  0  0  0
 21 22  1  0  0  0  0
 22 14  1  0  0  0  0
 23 28  1  0  0  0  0
 27  5  2  0  0  0  0
 28  6  2  0  0  0  0
 28  9  1  0  0  0  0
 29 20  1  0  0  0  0
 30 29  1  0  0  0  0
 31 30  1  0  0  0  0
 32 30  2  0  0  0  0
M  END
>  <MODEL>
2

>  <REMARK>
 VINA RESULT:      -9.5      3.488      7.915
  Name = 
  2 active torsions:
  status: ('A' for Active; 'I' for Inactive)
    1  A    between atoms: C_20  and  O_29
    2  A    between atoms: O_29  and  C_30
                            x       y       z     vdW  Elec       q    Type
                         _______ _______ _______ _____ _____    ______ ____

>  <TORSDO>
F 2

$$$$
=
 OpenBabel11122412523D

 32 38  0  0  1  0  0  0  0  0999 V2000
  161.5600  201.4620  147.6980 C   0  0  1  0  0  3  0  0  0  0  0  0
  161.2380  205.6270  150.9550 C   0  0  0  0  0  0  0  0  0  0  0  0
  162.3100  209.4280  148.0700 C   0  0  0  0  0  3  0  0  0  0  0  0
  162.2510  210.2870  149.1660 C   0  0  0  0  0  3  0  0  0  0  0  0
  160.8480  206.0140  153.3990 C   0  0  0  0  0  0  0  0  0  0  0  0
  160.8080  206.9360  154.4370 C   0  0  0  0  0  0  0  0  0  0  0  0
  160.7270  203.4050  149.8490 C   0  0  1  0  0  3  0  0  0  0  0  0
  161.5350  205.2740  148.4390 C   0  0  0  0  0  2  0  0  0  0  0  0
  160.9270  208.8580  155.4340 N   0  0  0  0  0  0  0  0  0  0  0  0
  161.6430  202.9700  147.4560 C   0  0  2  0  0  3  0  0  0  0  0  0
  162.0760  208.0640  148.2430 C   0  0  0  0  0  3  0  0  0  0  0  0
  161.5500  206.1560  149.6730 C   0  0  0  0  0  0  0  0  0  0  0  0
  161.7790  207.5350  149.5120 C   0  0  0  0  0  0  0  0  0  0  0  0
  161.4120  207.8990  151.9020 C   0  0  0  0  0  0  0  0  0  0  0  0
  160.6180  207.9230  156.3240 N   0  0  0  0  0  0  0  0  0  0  0  0
  161.5670  201.0690  149.1910 C   0  0  0  0  0  2  0  0  0  0  0  0
  161.7210  203.8000  148.7550 C   0  0  2  0  0  3  0  0  0  0  0  0
  160.5370  206.7280  155.7410 N   0  0  0  0  0  0  0  0  0  0  0  0
  160.6520  201.8970  150.1020 C   0  0  0  0  0  2  0  0  0  0  0  0
  160.3210  202.2350  147.2610 C   0  0  1  0  0  3  0  0  0  0  0  0
  161.9570  209.7800  150.4310 C   0  0  0  0  0  3  0  0  0  0  0  0
  161.7170  208.4060  150.6230 C   0  0  0  0  0  0  0  0  0  0  0  0
  161.3520  208.7830  153.0060 C   0  0  0  0  0  3  0  0  0  0  0  0
  161.1090  204.1290  151.1280 C   0  0  0  0  0  2  0  0  0  0  0  0
  160.5710  204.6800  153.6790 O   0  0  0  0  0  1  0  0  0  0  0  0
  161.0910  210.2700  155.7360 C   0  0  0  0  0  1  0  0  0  0  0  0
  161.1640  206.4910  152.0840 C   0  0  0  0  0  0  0  0  0  0  0  0
  161.0490  208.2530  154.2480 C   0  0  0  0  0  0  0  0  0  0  0  0
  160.1030  202.0260  145.8740 O   0  0  0  0  0  0  0  0  0  0  0  0
  160.1010  203.0740  144.9520 C   0  0  0  0  0  0  0  0  0  0  0  0
  161.2030  204.0810  144.9110 C   0  0  0  0  0  1  0  0  0  0  0  0
  159.1490  203.1770  144.1360 O   0  0  0  0  0  0  0  0  0  0  0  0
  1 16  1  1  0  0  0
  2 24  1  0  0  0  0
  2 27  1  0  0  0  0
  3 11  2  0  0  0  0
  3  4  1  0  0  0  0
  4 21  2  0  0  0  0
  5 25  1  0  0  0  0
  5  6  1  0  0  0  0
  6 18  1  0  0  0  0
  7 19  1  1  0  0  0
  7 24  1  0  0  0  0
  8 17  1  0  0  0  0
  8 12  1  0  0  0  0
  9 26  1  0  0  0  0
  9 15  1  0  0  0  0
 10  1  1  0  0  0  0
 10 17  1  0  0  0  0
 11 13  1  0  0  0  0
 12  2  2  0  0  0  0
 13 12  1  0  0  0  0
 13 22  2  0  0  0  0
 14 27  1  0  0  0  0
 14 23  2  0  0  0  0
 16 19  1  0  0  0  0
 17  7  1  0  0  0  0
 18 15  2  0  0  0  0
 20 10  1  0  0  0  0
 20  1  1  0  0  0  0
 21 22  1  0  0  0  0
 22 14  1  0  0  0  0
 23 28  1  0  0  0  0
 27  5  2  0  0  0  0
 28  6  2  0  0  0  0
 28  9  1  0  0  0  0
 29 20  1  0  0  0  0
 30 29  1  0  0  0  0
 31 30  1  0  0  0  0
 32 30  2  0  0  0  0
M  END
>  <MODEL>
3

>  <REMARK>
 VINA RESULT:      -8.9      3.340      8.015
  Name = 
  2 active torsions:
  status: ('A' for Active; 'I' for Inactive)
    1  A    between atoms: C_20  and  O_29
    2  A    between atoms: O_29  and  C_30
                            x       y       z     vdW  Elec       q    Type
                         _______ _______ _______ _____ _____    ______ ____

>  <TORSDO>
F 2

$$$$
=
 OpenBabel11122412523D

 32 38  0  0  1  0  0  0  0  0999 V2000
  161.5610  210.0950  154.5080 C   0  0  1  0  0  3  0  0  0  0  0  0
  161.1680  206.7440  150.4240 C   0  0  0  0  0  0  0  0  0  0  0  0
  160.7290  202.3690  152.5640 C   0  0  0  0  0  3  0  0  0  0  0  0
  160.7550  201.7480  151.3180 C   0  0  0  0  0  3  0  0  0  0  0  0
  161.2930  206.8800  147.9260 C   0  0  0  0  0  0  0  0  0  0  0  0
  161.3110  206.1840  146.7240 C   0  0  0  0  0  0  0  0  0  0  0  0
  160.8780  208.8070  151.8690 C   0  0  1  0  0  3  0  0  0  0  0  0
  160.9300  206.5870  152.9660 C   0  0  0  0  0  2  0  0  0  0  0  0
  161.2650  204.4870  145.3750 N   0  0  0  0  0  0  0  0  0  0  0  0
  161.2740  208.5950  154.4280 C   0  0  2  0  0  3  0  0  0  0  0  0
  160.8260  203.7580  152.6510 C   0  0  0  0  0  3  0  0  0  0  0  0
  161.0550  205.9480  151.5960 C   0  0  0  0  0  0  0  0  0  0  0  0
  160.9510  204.5490  151.4940 C   0  0  0  0  0  0  0  0  0  0  0  0
  161.0910  204.6910  149.0570 C   0  0  0  0  0  0  0  0  0  0  0  0
  161.3730  205.6050  144.6670 N   0  0  0  0  0  0  0  0  0  0  0  0
  161.9990  210.7190  153.1650 C   0  0  0  0  0  2  0  0  0  0  0  0
  161.4840  208.0010  153.0190 C   0  0  2  0  0  3  0  0  0  0  0  0
  161.4030  206.6680  145.4700 N   0  0  0  0  0  0  0  0  0  0  0  0
  161.1750  210.3060  151.9390 C   0  0  0  0  0  2  0  0  0  0  0  0
  160.1230  209.5900  154.5230 C   0  0  1  0  0  3  0  0  0  0  0  0
  160.8770  202.5160  150.1600 C   0  0  0  0  0  3  0  0  0  0  0  0
  160.9760  203.9190  150.2290 C   0  0  0  0  0  0  0  0  0  0  0  0
  161.1130  204.0470  147.7970 C   0  0  0  0  0  3  0  0  0  0  0  0
  161.3930  208.2360  150.5600 C   0  0  0  0  0  2  0  0  0  0  0  0
  161.3700  208.2690  147.8950 O   0  0  0  0  0  1  0  0  0  0  0  0
  161.2030  203.1500  144.8110 C   0  0  0  0  0  1  0  0  0  0  0  0
  161.1870  206.1270  149.1420 C   0  0  0  0  0  0  0  0  0  0  0  0
  161.2260  204.8360  146.6660 C   0  0  0  0  0  0  0  0  0  0  0  0
  159.6320  209.6120  155.8550 O   0  0  0  0  0  0  0  0  0  0  0  0
  159.1360  210.7740  156.4480 C   0  0  0  0  0  0  0  0  0  0  0  0
  157.7670  211.2870  156.1400 C   0  0  0  0  0  1  0  0  0  0  0  0
  159.8570  211.4080  157.2610 O   0  0  0  0  0  0  0  0  0  0  0  0
  1 16  1  6  0  0  0
  1 20  1  0  0  0  0
  2 24  1  0  0  0  0
  2 12  1  0  0  0  0
  3 11  2  0  0  0  0
  4  3  1  0  0  0  0
  5 27  1  0  0  0  0
  6  5  2  0  0  0  0
  7 24  1  6  0  0  0
  7 19  1  0  0  0  0
  7 17  1  0  0  0  0
  8 17  1  0  0  0  0
  9 28  1  0  0  0  0
 10  1  1  0  0  0  0
 10 20  1  0  0  0  0
 12  8  1  0  0  0  0
 13 12  2  0  0  0  0
 13 11  1  0  0  0  0
 14 27  1  0  0  0  0
 14 22  2  0  0  0  0
 15  9  1  0  0  0  0
 15 18  2  0  0  0  0
 17 10  1  0  0  0  0
 18  6  1  0  0  0  0
 19 16  1  0  0  0  0
 20 29  1  0  0  0  0
 21 22  1  0  0  0  0
 21  4  2  0  0  0  0
 22 13  1  0  0  0  0
 23 14  1  0  0  0  0
 25  5  1  0  0  0  0
 26  9  1  0  0  0  0
 27  2  2  0  0  0  0
 28  6  1  0  0  0  0
 28 23  2  0  0  0  0
 29 30  1  0  0  0  0
 30 32  2  0  0  0  0
 31 30  1  0  0  0  0
M  END
>  <MODEL>
4

>  <REMARK>
 VINA RESULT:      -8.6      2.666      4.540
  Name = 
  2 active torsions:
  status: ('A' for Active; 'I' for Inactive)
    1  A    between atoms: C_20  and  O_29
    2  A    between atoms: O_29  and  C_30
                            x       y       z     vdW  Elec       q    Type
                         _______ _______ _______ _____ _____    ______ ____

>  <TORSDO>
F 2

$$$$
=
 OpenBabel11122412523D

 32 38  0  0  1  0  0  0  0  0999 V2000
  162.1750  212.9980  149.0250 C   0  0  1  0  0  3  0  0  0  0  0  0
  161.4650  207.7610  149.3970 C   0  0  0  0  0  0  0  0  0  0  0  0
  161.1010  206.9890  154.2120 C   0  0  0  0  0  3  0  0  0  0  0  0
  161.0360  205.6150  153.9950 C   0  0  0  0  0  3  0  0  0  0  0  0
  161.4290  205.8040  147.8350 C   0  0  0  0  0  0  0  0  0  0  0  0
  161.3570  204.4230  147.7040 C   0  0  0  0  0  0  0  0  0  0  0  0
  161.3010  210.1490  148.5620 C   0  0  1  0  0  3  0  0  0  0  0  0
  161.3920  209.7500  151.0040 C   0  0  0  0  0  2  0  0  0  0  0  0
  161.1980  202.3450  148.3050 N   0  0  0  0  0  0  0  0  0  0  0  0
  161.8610  212.0810  150.2080 C   0  0  2  0  0  3  0  0  0  0  0  0
  161.2250  207.8590  153.1290 C   0  0  0  0  0  3  0  0  0  0  0  0
  161.4170  208.2590  150.7270 C   0  0  0  0  0  0  0  0  0  0  0  0
  161.2860  207.3710  151.8110 C   0  0  0  0  0  0  0  0  0  0  0  0
  161.2670  205.4660  150.2780 C   0  0  0  0  0  0  0  0  0  0  0  0
  161.2760  202.4120  146.9820 N   0  0  0  0  0  0  0  0  0  0  0  0
  162.5340  212.2420  147.7280 C   0  0  0  0  0  2  0  0  0  0  0  0
  161.9680  210.5790  149.8700 C   0  0  2  0  0  3  0  0  0  0  0  0
  161.3740  203.6790  146.5800 N   0  0  0  0  0  0  0  0  0  0  0  0
  161.6250  211.0580  147.3740 C   0  0  0  0  0  2  0  0  0  0  0  0
  160.7330  212.8070  149.4820 C   0  0  1  0  0  3  0  0  0  0  0  0
  161.0940  205.1130  152.6950 C   0  0  0  0  0  3  0  0  0  0  0  0
  161.2180  205.9760  151.5900 C   0  0  0  0  0  0  0  0  0  0  0  0
  161.1970  204.0670  150.0720 C   0  0  0  0  0  3  0  0  0  0  0  0
  161.7210  208.7230  148.2550 C   0  0  0  0  0  2  0  0  0  0  0  0
  161.5240  206.5790  146.6840 O   0  0  0  0  0  1  0  0  0  0  0  0
  161.0780  201.1160  149.0690 C   0  0  0  0  0  1  0  0  0  0  0  0
  161.3910  206.3610  149.1560 C   0  0  0  0  0  0  0  0  0  0  0  0
  161.2480  203.5980  148.7710 C   0  0  0  0  0  0  0  0  0  0  0  0
  160.3300  213.9310  150.2490 O   0  0  0  0  0  0  0  0  0  0  0  0
  159.2210  213.8990  151.0950 C   0  0  0  0  0  0  0  0  0  0  0  0
  157.8670  214.3220  150.6280 C   0  0  0  0  0  1  0  0  0  0  0  0
  159.3620  213.5060  152.2820 O   0  0  0  0  0  0  0  0  0  0  0  0
  1 16  1  6  0  0  0
  1 20  1  0  0  0  0
  1 10  1  0  0  0  0
  2 12  1  0  0  0  0
  4  3  1  0  0  0  0
  5 27  1  0  0  0  0
  6  5  2  0  0  0  0
  6 28  1  0  0  0  0
  7 19  1  6  0  0  0
  7 17  1  0  0  0  0
  9 28  1  0  0  0  0
  9 26  1  0  0  0  0
 11  3  2  0  0  0  0
 12  8  1  0  0  0  0
 12 13  2  0  0  0  0
 13 11  1  0  0  0  0
 14 22  2  0  0  0  0
 15  9  1  0  0  0  0
 17 10  1  0  0  0  0
 17  8  1  0  0  0  0
 18 15  2  0  0  0  0
 18  6  1  0  0  0  0
 19 16  1  0  0  0  0
 20 10  1  0  0  0  0
 20 29  1  0  0  0  0
 21  4  2  0  0  0  0
 22 13  1  0  0  0  0
 22 21  1  0  0  0  0
 23 14  1  0  0  0  0
 24  7  1  0  0  0  0
 24  2  1  0  0  0  0
 25  5  1  0  0  0  0
 27  2  2  0  0  0  0
 27 14  1  0  0  0  0
 28 23  2  0  0  0  0
 29 30  1  0  0  0  0
 30 32  2  0  0  0  0
 31 30  1  0  0  0  0
M  END
>  <MODEL>
5

>  <REMARK>
 VINA RESULT:      -7.8      2.863      5.595
  Name = 
  2 active torsions:
  status: ('A' for Active; 'I' for Inactive)
    1  A    between atoms: C_20  and  O_29
    2  A    between atoms: O_29  and  C_30
                            x       y       z     vdW  Elec       q    Type
                         _______ _______ _______ _____ _____    ______ ____

>  <TORSDO>
F 2

$$$$
