=
 OpenBabel11122412363D

 30 34  0  0  1  0  0  0  0  0999 V2000
  159.3630  212.1150  155.3640 C   0  0  1  0  0  3  0  0  0  0  0  0
  161.4770  212.2180  156.7310 C   0  0  0  0  0  0  0  0  0  0  0  0
  160.6340  208.2640  154.0510 N   0  0  0  0  0  2  0  0  0  0  0  0
  159.1090  211.7010  153.8970 C   0  0  2  0  0  3  0  0  0  0  0  0
  158.1750  211.9010  156.3210 C   0  0  0  0  0  2  0  0  0  0  0  0
  155.4730  211.9070  154.0250 O   0  0  0  0  0  0  0  0  0  0  0  0
  156.6410  211.7760  154.3590 C   0  0  0  0  0  0  0  0  0  0  0  0
  160.6290  208.5330  152.6620 C   0  0  0  0  0  0  0  0  0  0  0  0
  156.9920  211.1620  155.6910 C   0  0  2  0  0  3  0  0  0  0  0  0
  157.7350  212.1660  153.4000 C   0  0  1  0  0  3  0  0  0  0  0  0
  162.6190  211.6120  157.2600 C   0  0  0  0  0  3  0  0  0  0  0  0
  161.2080  213.5480  157.0350 O   0  0  0  0  0  1  0  0  0  0  0  0
  159.9460  209.3410  154.7470 C   0  0  2  0  0  3  0  0  0  0  0  0
  162.9010  210.2750  156.9760 C   0  0  0  0  0  3  0  0  0  0  0  0
  160.6110  211.4840  155.9050 C   0  0  0  0  0  0  0  0  0  0  0  0
  159.2920  210.1910  153.6300 C   0  0  2  0  0  3  0  0  0  0  0  0
  161.1460  207.7490  151.8240 O   0  0  0  0  0  0  0  0  0  0  0  0
  159.9690  209.8060  152.2960 C   0  0  1  0  0  3  0  0  0  0  0  0
  162.0440  209.5400  156.1540 C   0  0  0  0  0  3  0  0  0  0  0  0
  160.9040  210.1410  155.5970 C   0  0  0  0  0  0  0  0  0  0  0  0
  160.4590  211.9390  151.1900 O   0  0  0  0  0  0  0  0  0  0  0  0
  161.0290  210.7900  151.7720 C   0  0  2  0  0  3  0  0  0  0  0  0
  161.9740  210.1360  150.7970 C   0  0  0  0  0  2  0  0  0  0  0  0
  161.2110  212.2310  150.0360 C   0  0  0  0  0  2  0  0  0  0  0  0
  162.3770  211.2760  149.9260 C   0  0  0  0  0  2  0  0  0  0  0  0
  157.4990  213.7430  151.8630 C   0  0  0  0  0  1  0  0  0  0  0  0
  157.7400  213.5530  153.2240 O   0  0  0  0  0  0  0  0  0  0  0  0
  155.9010  211.1970  156.5630 O   0  0  0  0  0  0  0  0  0  0  0  0
  154.7790  213.2250  157.0910 C   0  0  0  0  0  1  0  0  0  0  0  0
  156.0370  212.4010  157.2570 C   0  0  0  0  0  2  0  0  0  0  0  0
  1 15  1  0  0  0  0
  1  5  1  1  0  0  0
  2 12  1  0  0  0  0
  2 11  1  0  0  0  0
  3 13  1  0  0  0  0
  4  1  1  0  0  0  0
  6  7  2  0  0  0  0
  7  9  1  0  0  0  0
  8  3  1  0  0  0  0
  9  5  1  0  0  0  0
  9 28  1  0  0  0  0
 10  4  1  0  0  0  0
 10  7  1  0  0  0  0
 13 20  1  0  0  0  0
 14 11  2  0  0  0  0
 15  2  2  0  0  0  0
 16  4  1  0  0  0  0
 16 13  1  0  0  0  0
 17  8  2  0  0  0  0
 18  8  1  0  0  0  0
 18 16  1  0  0  0  0
 19 14  1  0  0  0  0
 20 15  1  0  0  0  0
 20 19  2  0  0  0  0
 21 22  1  0  0  0  0
 22 18  1  0  0  0  0
 23 22  1  0  0  0  0
 24 21  1  0  0  0  0
 25 24  1  0  0  0  0
 25 23  1  0  0  0  0
 26 27  1  0  0  0  0
 27 10  1  0  0  0  0
 28 30  1  0  0  0  0
 29 30  1  0  0  0  0
M  END
>  <MODEL>
1

>  <REMARK>
 VINA RESULT:      -2.3      0.000      0.000
  Name = 
  4 active torsions:
  status: ('A' for Active; 'I' for Inactive)
    1  A    between atoms: C_9  and  C_22
    2  A    between atoms: C_11  and  O_28
    3  A    between atoms: C_12  and  O_27
    4  A    between atoms: O_28  and  C_30
                            x       y       z     vdW  Elec       q    Type
                         _______ _______ _______ _____ _____    ______ ____

>  <TORSDO>
F 4

$$$$
=
 OpenBabel11122412363D

 30 34  0  0  1  0  0  0  0  0999 V2000
  159.6840  211.3290  151.7000 C   0  0  1  0  0  3  0  0  0  0  0  0
  160.6160  209.3970  153.0220 C   0  0  0  0  0  0  0  0  0  0  0  0
  159.8010  213.5980  155.3060 N   0  0  0  0  0  2  0  0  0  0  0  0
  158.5370  212.3190  152.0010 C   0  0  2  0  0  3  0  0  0  0  0  0
  160.7960  211.8720  150.7840 C   0  0  0  0  0  2  0  0  0  0  0  0
  159.0510  214.4530  149.0920 O   0  0  0  0  0  0  0  0  0  0  0  0
  159.2530  213.6710  150.0080 C   0  0  0  0  0  0  0  0  0  0  0  0
  158.4290  213.9410  155.3520 C   0  0  0  0  0  0  0  0  0  0  0  0
  160.6600  213.3600  150.4530 C   0  0  2  0  0  3  0  0  0  0  0  0
  158.0830  213.0700  150.7430 C   0  0  1  0  0  3  0  0  0  0  0  0
  161.1830  208.8770  154.1890 C   0  0  0  0  0  3  0  0  0  0  0  0
  160.4170  208.5610  151.9300 O   0  0  0  0  0  1  0  0  0  0  0  0
  160.1120  213.0520  153.9940 C   0  0  2  0  0  3  0  0  0  0  0  0
  161.4010  209.7030  155.2930 C   0  0  0  0  0  3  0  0  0  0  0  0
  160.2570  210.7540  152.9600 C   0  0  0  0  0  0  0  0  0  0  0  0
  158.8500  213.3170  153.1370 C   0  0  2  0  0  3  0  0  0  0  0  0
  157.8970  214.4520  156.3720 O   0  0  0  0  0  0  0  0  0  0  0  0
  157.6910  213.6440  154.1040 C   0  0  1  0  0  3  0  0  0  0  0  0
  161.0460  211.0520  155.2370 C   0  0  0  0  0  3  0  0  0  0  0  0
  160.4550  211.5840  154.0810 C   0  0  0  0  0  0  0  0  0  0  0  0
  155.5330  212.9430  155.0340 O   0  0  0  0  0  0  0  0  0  0  0  0
  156.6940  212.5030  154.3690 C   0  0  2  0  0  3  0  0  0  0  0  0
  157.3240  211.3680  155.1330 C   0  0  0  0  0  2  0  0  0  0  0  0
  155.2140  211.9640  155.9940 C   0  0  0  0  0  2  0  0  0  0  0  0
  156.1640  210.7950  155.8720 C   0  0  0  0  0  2  0  0  0  0  0  0
  156.6210  213.0320  149.0800 C   0  0  0  0  0  1  0  0  0  0  0  0
  157.3880  212.2000  149.8980 O   0  0  0  0  0  0  0  0  0  0  0  0
  161.5870  213.7060  149.4650 O   0  0  0  0  0  0  0  0  0  0  0  0
  162.9850  212.5370  147.9400 C   0  0  0  0  0  1  0  0  0  0  0  0
  161.6330  212.5990  148.6160 C   0  0  0  0  0  2  0  0  0  0  0  0
  1  5  1  1  0  0  0
  1  4  1  0  0  0  0
  1 15  1  0  0  0  0
  2 11  1  0  0  0  0
  3  8  1  0  0  0  0
  4 16  1  0  0  0  0
  6  7  2  0  0  0  0
  7  9  1  0  0  0  0
  7 10  1  0  0  0  0
  8 17  2  0  0  0  0
  9  5  1  0  0  0  0
 10  4  1  0  0  0  0
 11 14  2  0  0  0  0
 12  2  1  0  0  0  0
 13 20  1  0  0  0  0
 13  3  1  0  0  0  0
 15  2  2  0  0  0  0
 15 20  1  0  0  0  0
 16 13  1  0  0  0  0
 16 18  1  0  0  0  0
 18 22  1  0  0  0  0
 18  8  1  0  0  0  0
 19 14  1  0  0  0  0
 20 19  2  0  0  0  0
 21 24  1  0  0  0  0
 22 21  1  0  0  0  0
 22 23  1  0  0  0  0
 23 25  1  0  0  0  0
 25 24  1  0  0  0  0
 26 27  1  0  0  0  0
 27 10  1  0  0  0  0
 28  9  1  0  0  0  0
 29 30  1  0  0  0  0
 30 28  1  0  0  0  0
M  END
>  <MODEL>
2

>  <REMARK>
 VINA RESULT:      -1.7      2.104      6.110
  Name = 
  4 active torsions:
  status: ('A' for Active; 'I' for Inactive)
    1  A    between atoms: C_9  and  C_22
    2  A    between atoms: C_11  and  O_28
    3  A    between atoms: C_12  and  O_27
    4  A    between atoms: O_28  and  C_30
                            x       y       z     vdW  Elec       q    Type
                         _______ _______ _______ _____ _____    ______ ____

>  <TORSDO>
F 4

$$$$
=
 OpenBabel11122412363D

 30 34  0  0  1  0  0  0  0  0999 V2000
  160.8620  209.9350  153.7440 C   0  0  1  0  0  3  0  0  0  0  0  0
  160.7550  211.6540  151.9050 C   0  0  0  0  0  0  0  0  0  0  0  0
  156.8240  210.9500  154.6580 N   0  0  0  0  0  2  0  0  0  0  0  0
  160.4180  209.9870  155.2230 C   0  0  2  0  0  3  0  0  0  0  0  0
  160.8460  208.5350  153.1030 C   0  0  0  0  0  2  0  0  0  0  0  0
  161.0950  206.4890  155.9870 O   0  0  0  0  0  0  0  0  0  0  0  0
  160.8300  207.5140  155.3770 C   0  0  0  0  0  0  0  0  0  0  0  0
  157.0280  211.3150  156.0100 C   0  0  0  0  0  0  0  0  0  0  0  0
  160.2370  207.4490  153.9920 C   0  0  2  0  0  3  0  0  0  0  0  0
  161.0330  208.8480  156.0470 C   0  0  1  0  0  3  0  0  0  0  0  0
  160.0320  212.5440  151.1060 C   0  0  0  0  0  3  0  0  0  0  0  0
  162.1210  211.5030  151.6930 O   0  0  0  0  0  1  0  0  0  0  0  0
  158.0110  210.2680  154.1650 C   0  0  2  0  0  3  0  0  0  0  0  0
  158.6590  212.7010  151.2960 C   0  0  0  0  0  3  0  0  0  0  0  0
  160.1010  210.9200  152.9080 C   0  0  0  0  0  0  0  0  0  0  0  0
  158.8860  210.0220  155.4180 C   0  0  2  0  0  3  0  0  0  0  0  0
  156.1470  211.9070  156.6860 O   0  0  0  0  0  0  0  0  0  0  0  0
  158.3570  210.9410  156.5420 C   0  0  1  0  0  3  0  0  0  0  0  0
  158.0040  211.9740  152.2920 C   0  0  0  0  0  3  0  0  0  0  0  0
  158.7200  211.0940  153.1170 C   0  0  0  0  0  0  0  0  0  0  0  0
  158.3720  213.2860  157.2560 O   0  0  0  0  0  0  0  0  0  0  0  0
  159.1720  212.2190  156.8050 C   0  0  2  0  0  3  0  0  0  0  0  0
  159.9620  212.6450  155.5950 C   0  0  0  0  0  2  0  0  0  0  0  0
  158.8330  214.4480  156.6080 C   0  0  0  0  0  2  0  0  0  0  0  0
  160.0490  214.1220  155.7730 C   0  0  0  0  0  2  0  0  0  0  0  0
  162.4590  210.2460  157.0030 C   0  0  0  0  0  1  0  0  0  0  0  0
  162.3980  209.0830  156.2340 O   0  0  0  0  0  0  0  0  0  0  0  0
  160.4520  206.1960  153.4120 O   0  0  0  0  0  0  0  0  0  0  0  0
  160.9290  205.7240  151.1320 C   0  0  0  0  0  1  0  0  0  0  0  0
  161.3790  206.4270  152.3950 C   0  0  0  0  0  2  0  0  0  0  0  0
  1  5  1  6  0  0  0
  1  4  1  0  0  0  0
  2 15  1  0  0  0  0
  3  8  1  0  0  0  0
  4 16  1  0  0  0  0
  4 10  1  0  0  0  0
  5  9  1  0  0  0  0
  7  6  2  0  0  0  0
  7 10  1  0  0  0  0
  8 18  1  0  0  0  0
  8 17  2  0  0  0  0
  9  7  1  0  0  0  0
 10 27  1  0  0  0  0
 11 14  1  0  0  0  0
 11  2  2  0  0  0  0
 12  2  1  0  0  0  0
 13  3  1  0  0  0  0
 13 16  1  0  0  0  0
 14 19  2  0  0  0  0
 15 20  2  0  0  0  0
 15  1  1  0  0  0  0
 16 18  1  0  0  0  0
 18 22  1  0  0  0  0
 19 20  1  0  0  0  0
 20 13  1  0  0  0  0
 22 21  1  0  0  0  0
 23 25  1  0  0  0  0
 23 22  1  0  0  0  0
 24 21  1  0  0  0  0
 25 24  1  0  0  0  0
 27 26  1  0  0  0  0
 28  9  1  0  0  0  0
 29 30  1  0  0  0  0
 30 28  1  0  0  0  0
M  END
>  <MODEL>
3

>  <REMARK>
 VINA RESULT:      -0.2      2.137      6.235
  Name = 
  4 active torsions:
  status: ('A' for Active; 'I' for Inactive)
    1  A    between atoms: C_9  and  C_22
    2  A    between atoms: C_11  and  O_28
    3  A    between atoms: C_12  and  O_27
    4  A    between atoms: O_28  and  C_30
                            x       y       z     vdW  Elec       q    Type
                         _______ _______ _______ _____ _____    ______ ____

>  <TORSDO>
F 4

$$$$
