=
 OpenBabel11122414043D

 28 32  0  0  1  0  0  0  0  0999 V2000
  161.6570  210.8610  150.4860 C   0  0  0  0  0  0  0  0  0  0  0  0
  157.8070  212.8440  152.5360 O   0  0  0  0  0  1  0  0  0  0  0  0
  161.5770  207.8400  156.1020 O   0  0  0  0  0  0  0  0  0  0  0  0
  160.5900  213.3370  149.7230 C   0  0  0  0  0  3  0  0  0  0  0  0
  161.8800  210.1600  155.8660 N   0  0  0  0  0  0  0  0  0  0  0  0
  162.3010  209.5550  150.8000 C   0  0  0  0  0  2  0  0  0  0  0  0
  157.4590  211.0420  154.0250 C   0  0  0  0  0  1  0  0  0  0  0  0
  158.2560  212.3170  153.7460 C   0  0  1  0  0  0  0  0  0  0  0  0
  158.6510  212.9030  155.9940 C   0  0  2  0  0  3  0  0  0  0  0  0
  159.7620  212.0440  153.6470 C   0  0  1  0  0  3  0  0  0  0  0  0
  160.3170  206.6590  151.7800 O   0  0  0  0  0  0  0  0  0  0  0  0
  161.4680  210.3380  153.5320 C   0  0  1  0  0  3  0  0  0  0  0  0
  160.0550  212.7840  155.8550 O   0  0  0  0  0  0  0  0  0  0  0  0
  158.0270  213.2850  154.7680 O   0  0  0  0  0  0  0  0  0  0  0  0
  161.1360  207.6110  151.8640 C   0  0  0  0  0  0  0  0  0  0  0  0
  160.7850  211.5440  151.3800 C   0  0  0  0  0  0  0  0  0  0  0  0
  161.5580  208.8730  155.3810 C   0  0  0  0  0  0  0  0  0  0  0  0
  158.3350  213.9290  157.0620 C   0  0  0  0  0  1  0  0  0  0  0  0
  161.8580  207.8530  153.1490 C   0  0  0  0  0  2  0  0  0  0  0  0
  160.2580  212.7800  150.9570 C   0  0  0  0  0  3  0  0  0  0  0  0
  161.9820  211.4290  149.2490 C   0  0  0  0  0  3  0  0  0  0  0  0
  161.4540  212.6610  148.8670 C   0  0  0  0  0  3  0  0  0  0  0  0
  161.3250  208.4800  150.7480 N   0  0  0  0  0  2  0  0  0  0  0  0
  161.6070  211.1490  154.8420 C   0  0  1  0  0  3  0  0  0  0  0  0
  161.1180  208.8970  153.9690 C   0  0  2  0  0  3  0  0  0  0  0  0
  160.2080  211.6770  155.0200 C   0  0  2  0  0  3  0  0  0  0  0  0
  162.1460  210.4760  157.2600 C   0  0  0  0  0  1  0  0  0  0  0  0
  160.3130  210.9570  152.7160 C   0  0  2  0  0  3  0  0  0  0  0  0
  1  6  1  0  0  0  0
  1 16  1  0  0  0  0
  2  8  1  0  0  0  0
  4 20  1  0  0  0  0
  5 27  1  0  0  0  0
  8  7  1  1  0  0  0
  8 14  1  0  0  0  0
  9 18  1  1  0  0  0
 10  8  1  0  0  0  0
 10 26  1  0  0  0  0
 11 15  2  0  0  0  0
 12 25  1  0  0  0  0
 12 24  1  0  0  0  0
 13  9  1  0  0  0  0
 14  9  1  0  0  0  0
 15 19  1  0  0  0  0
 16 28  1  0  0  0  0
 17  5  1  0  0  0  0
 17  3  2  0  0  0  0
 19 25  1  0  0  0  0
 20 16  2  0  0  0  0
 21  1  2  0  0  0  0
 22 21  1  0  0  0  0
 22  4  2  0  0  0  0
 23  6  1  0  0  0  0
 23 15  1  0  0  0  0
 24 26  1  0  0  0  0
 24  5  1  0  0  0  0
 25 17  1  0  0  0  0
 26 13  1  0  0  0  0
 28 12  1  0  0  0  0
 28 10  1  0  0  0  0
M  END
>  <MODEL>
1

>  <REMARK>
 VINA RESULT:      -4.9      0.000      0.000
  Name = 
  0 active torsions:
  status: ('A' for Active; 'I' for Inactive)
                            x       y       z     vdW  Elec       q    Type
                         _______ _______ _______ _____ _____    ______ ____

>  <TORSDO>
F 0

$$$$
=
 OpenBabel11122414043D

 28 32  0  0  1  0  0  0  0  0999 V2000
  158.6060  212.5390  154.3090 C   0  0  0  0  0  0  0  0  0  0  0  0
  161.4980  211.5510  150.6180 O   0  0  0  0  0  1  0  0  0  0  0  0
  162.0250  207.7140  156.6980 O   0  0  0  0  0  0  0  0  0  0  0  0
  158.0410  213.2470  151.6570 C   0  0  0  0  0  3  0  0  0  0  0  0
  160.6010  207.5160  154.8360 N   0  0  0  0  0  0  0  0  0  0  0  0
  158.8080  212.2240  155.7510 C   0  0  0  0  0  2  0  0  0  0  0  0
  163.1420  210.5150  151.9620 C   0  0  0  0  0  1  0  0  0  0  0  0
  161.7970  210.3480  151.2540 C   0  0  1  0  0  0  0  0  0  0  0  0
  161.9690  208.0320  150.8580 C   0  0  2  0  0  3  0  0  0  0  0  0
  160.6700  210.0040  152.2350 C   0  0  1  0  0  3  0  0  0  0  0  0
  162.1230  212.3330  157.2600 O   0  0  0  0  0  0  0  0  0  0  0  0
  160.0510  209.8120  154.5630 C   0  0  1  0  0  3  0  0  0  0  0  0
  160.8380  207.7350  151.6570 O   0  0  0  0  0  0  0  0  0  0  0  0
  161.8760  209.3250  150.2620 O   0  0  0  0  0  0  0  0  0  0  0  0
  161.0370  211.8630  156.8320 C   0  0  0  0  0  0  0  0  0  0  0  0
  159.2970  211.8790  153.2540 C   0  0  0  0  0  0  0  0  0  0  0  0
  161.3050  208.2520  155.8160 C   0  0  0  0  0  0  0  0  0  0  0  0
  162.1080  206.9850  149.7720 C   0  0  0  0  0  1  0  0  0  0  0  0
  160.7780  210.3950  156.9300 C   0  0  0  0  0  2  0  0  0  0  0  0
  158.9960  212.2700  151.9350 C   0  0  0  0  0  3  0  0  0  0  0  0
  157.6490  213.5180  154.0190 C   0  0  0  0  0  3  0  0  0  0  0  0
  157.3650  213.8720  152.7010 C   0  0  0  0  0  3  0  0  0  0  0  0
  160.0910  212.7300  156.2090 N   0  0  0  0  0  2  0  0  0  0  0  0
  160.0040  208.4260  153.8780 C   0  0  1  0  0  3  0  0  0  0  0  0
  161.1670  209.7130  155.6290 C   0  0  2  0  0  3  0  0  0  0  0  0
  160.9520  208.6250  152.7250 C   0  0  2  0  0  3  0  0  0  0  0  0
  160.7140  206.0790  154.6420 C   0  0  0  0  0  1  0  0  0  0  0  0
  160.4170  210.8570  153.4850 C   0  0  2  0  0  3  0  0  0  0  0  0
  1  6  1  0  0  0  0
  2  8  1  0  0  0  0
  4 20  2  0  0  0  0
  4 22  1  0  0  0  0
  5 17  1  0  0  0  0
  6 23  1  0  0  0  0
  8  7  1  1  0  0  0
  8 10  1  0  0  0  0
  9 18  1  6  0  0  0
  9 13  1  0  0  0  0
 10 26  1  0  0  0  0
 10 28  1  0  0  0  0
 12 25  1  0  0  0  0
 13 26  1  0  0  0  0
 14  9  1  0  0  0  0
 14  8  1  0  0  0  0
 15 19  1  0  0  0  0
 15 11  2  0  0  0  0
 16 28  1  0  0  0  0
 16  1  2  0  0  0  0
 17  3  2  0  0  0  0
 20 16  1  0  0  0  0
 21  1  1  0  0  0  0
 22 21  2  0  0  0  0
 23 15  1  0  0  0  0
 24 12  1  0  0  0  0
 24  5  1  0  0  0  0
 25 17  1  0  0  0  0
 25 19  1  0  0  0  0
 26 24  1  0  0  0  0
 27  5  1  0  0  0  0
 28 12  1  0  0  0  0
M  END
>  <MODEL>
2

>  <REMARK>
 VINA RESULT:      -4.0      2.208      5.268
  Name = 
  0 active torsions:
  status: ('A' for Active; 'I' for Inactive)
                            x       y       z     vdW  Elec       q    Type
                         _______ _______ _______ _____ _____    ______ ____

>  <TORSDO>
F 0

$$$$
=
 OpenBabel11122414043D

 28 32  0  0  1  0  0  0  0  0999 V2000
  161.0730  207.6240  152.4470 C   0  0  0  0  0  0  0  0  0  0  0  0
  160.7840  209.6410  156.7840 O   0  0  0  0  0  1  0  0  0  0  0  0
  159.9950  213.7140  150.8890 O   0  0  0  0  0  0  0  0  0  0  0  0
  160.4860  206.2010  154.7880 C   0  0  0  0  0  3  0  0  0  0  0  0
  158.4750  212.3790  152.0880 N   0  0  0  0  0  0  0  0  0  0  0  0
  161.3880  208.2760  151.1440 C   0  0  0  0  0  2  0  0  0  0  0  0
  161.3160  211.8060  156.0010 C   0  0  0  0  0  1  0  0  0  0  0  0
  160.2200  210.7520  156.1620 C   0  0  1  0  0  0  0  0  0  0  0  0
  158.4070  212.2500  156.3240 C   0  0  2  0  0  3  0  0  0  0  0  0
  159.6290  210.3270  154.8120 C   0  0  1  0  0  3  0  0  0  0  0  0
  163.7850  211.0120  150.9320 O   0  0  0  0  0  0  0  0  0  0  0  0
  159.8550  210.4700  152.4110 C   0  0  1  0  0  3  0  0  0  0  0  0
  157.7950  211.7540  155.1480 O   0  0  0  0  0  0  0  0  0  0  0  0
  159.1690  211.2450  156.9920 O   0  0  0  0  0  0  0  0  0  0  0  0
  162.6850  210.4010  150.8910 C   0  0  0  0  0  0  0  0  0  0  0  0
  160.6250  208.3350  153.5950 C   0  0  0  0  0  0  0  0  0  0  0  0
  159.7370  212.6510  151.5130 C   0  0  0  0  0  0  0  0  0  0  0  0
  157.3420  212.7820  157.2610 C   0  0  0  0  0  1  0  0  0  0  0  0
  161.4390  211.1470  150.5390 C   0  0  0  0  0  2  0  0  0  0  0  0
  160.3510  207.5880  154.7570 C   0  0  0  0  0  3  0  0  0  0  0  0
  161.2060  206.2320  152.4890 C   0  0  0  0  0  3  0  0  0  0  0  0
  160.9130  205.5210  153.6520 C   0  0  0  0  0  3  0  0  0  0  0  0
  162.6340  209.0170  151.2330 N   0  0  0  0  0  2  0  0  0  0  0  0
  158.5480  211.1600  152.8700 C   0  0  1  0  0  3  0  0  0  0  0  0
  160.7290  211.5930  151.8060 C   0  0  2  0  0  3  0  0  0  0  0  0
  158.8740  211.5050  154.2980 C   0  0  2  0  0  3  0  0  0  0  0  0
  157.3700  213.3230  152.1430 C   0  0  0  0  0  1  0  0  0  0  0  0
  160.5310  209.8650  153.6600 C   0  0  2  0  0  3  0  0  0  0  0  0
  1 21  2  0  0  0  0
  1 16  1  0  0  0  0
  3 17  2  0  0  0  0
  5 27  1  0  0  0  0
  5 24  1  0  0  0  0
  6 23  1  0  0  0  0
  6  1  1  0  0  0  0
  8  7  1  6  0  0  0
  8  2  1  0  0  0  0
  8 14  1  0  0  0  0
  9 14  1  0  0  0  0
  9 18  1  1  0  0  0
 10  8  1  0  0  0  0
 12 24  1  0  0  0  0
 12 28  1  0  0  0  0
 13  9  1  0  0  0  0
 15 11  2  0  0  0  0
 15 23  1  0  0  0  0
 16 28  1  0  0  0  0
 16 20  2  0  0  0  0
 17 25  1  0  0  0  0
 17  5  1  0  0  0  0
 19 15  1  0  0  0  0
 19 25  1  0  0  0  0
 20  4  1  0  0  0  0
 21 22  1  0  0  0  0
 22  4  2  0  0  0  0
 24 26  1  0  0  0  0
 25 12  1  0  0  0  0
 26 10  1  0  0  0  0
 26 13  1  0  0  0  0
 28 10  1  0  0  0  0
M  END
>  <MODEL>
3

>  <REMARK>
 VINA RESULT:      -2.9      2.073      4.770
  Name = 
  0 active torsions:
  status: ('A' for Active; 'I' for Inactive)
                            x       y       z     vdW  Elec       q    Type
                         _______ _______ _______ _____ _____    ______ ____

>  <TORSDO>
F 0

$$$$
=
 OpenBabel11122414043D

 28 32  0  0  1  0  0  0  0  0999 V2000
  161.1780  207.7660  150.7160 C   0  0  0  0  0  0  0  0  0  0  0  0
  161.9580  208.7820  155.3340 O   0  0  0  0  0  1  0  0  0  0  0  0
  159.9720  214.0280  150.8050 O   0  0  0  0  0  0  0  0  0  0  0  0
  161.0970  205.8560  152.7650 C   0  0  0  0  0  3  0  0  0  0  0  0
  158.7250  212.4360  152.0050 N   0  0  0  0  0  0  0  0  0  0  0  0
  161.2070  208.6910  149.5490 C   0  0  0  0  0  2  0  0  0  0  0  0
  162.3670  211.0760  154.9360 C   0  0  0  0  0  1  0  0  0  0  0  0
  161.3030  209.9930  155.1140 C   0  0  1  0  0  0  0  0  0  0  0  0
  159.6260  211.3850  156.0110 C   0  0  2  0  0  3  0  0  0  0  0  0
  160.4050  209.8610  153.8780 C   0  0  1  0  0  3  0  0  0  0  0  0
  163.5790  211.4520  149.3870 O   0  0  0  0  0  0  0  0  0  0  0  0
  160.0780  210.5280  151.5790 C   0  0  1  0  0  3  0  0  0  0  0  0
  158.7450  211.1460  154.9290 O   0  0  0  0  0  0  0  0  0  0  0  0
  160.4870  210.2720  156.2510 O   0  0  0  0  0  0  0  0  0  0  0  0
  162.4800  210.8450  149.4690 C   0  0  0  0  0  0  0  0  0  0  0  0
  161.0290  208.2010  152.0630 C   0  0  0  0  0  0  0  0  0  0  0  0
  159.8290  212.8500  151.2270 C   0  0  0  0  0  0  0  0  0  0  0  0
  158.8230  211.6800  157.2610 C   0  0  0  0  0  1  0  0  0  0  0  0
  161.2120  211.6260  149.5840 C   0  0  0  0  0  2  0  0  0  0  0  0
  161.0040  207.2140  153.0670 C   0  0  0  0  0  3  0  0  0  0  0  0
  161.2710  206.4000  150.4250 C   0  0  0  0  0  3  0  0  0  0  0  0
  161.2300  205.4480  151.4410 C   0  0  0  0  0  3  0  0  0  0  0  0
  162.4640  209.4180  149.5060 N   0  0  0  0  0  2  0  0  0  0  0  0
  158.9350  211.0770  152.4660 C   0  0  1  0  0  3  0  0  0  0  0  0
  160.8260  211.7720  151.0470 C   0  0  2  0  0  3  0  0  0  0  0  0
  159.5910  211.1080  153.8200 C   0  0  2  0  0  3  0  0  0  0  0  0
  157.6940  213.3240  152.5170 C   0  0  0  0  0  1  0  0  0  0  0  0
  161.0030  209.6780  152.4770 C   0  0  2  0  0  3  0  0  0  0  0  0
  1 16  1  0  0  0  0
  3 17  2  0  0  0  0
  4 20  1  0  0  0  0
  5 24  1  0  0  0  0
  5 27  1  0  0  0  0
  6  1  1  0  0  0  0
  8  7  1  6  0  0  0
  8  2  1  0  0  0  0
  8 14  1  0  0  0  0
  9 14  1  0  0  0  0
  9 18  1  1  0  0  0
 10  8  1  0  0  0  0
 11 15  2  0  0  0  0
 12 24  1  0  0  0  0
 12 28  1  0  0  0  0
 13  9  1  0  0  0  0
 15 23  1  0  0  0  0
 15 19  1  0  0  0  0
 16 28  1  0  0  0  0
 16 20  2  0  0  0  0
 17  5  1  0  0  0  0
 19 25  1  0  0  0  0
 21  1  2  0  0  0  0
 21 22  1  0  0  0  0
 22  4  2  0  0  0  0
 23  6  1  0  0  0  0
 24 26  1  0  0  0  0
 25 17  1  0  0  0  0
 25 12  1  0  0  0  0
 26 10  1  0  0  0  0
 26 13  1  0  0  0  0
 28 10  1  0  0  0  0
M  END
>  <MODEL>
4

>  <REMARK>
 VINA RESULT:      -2.6      2.130      4.802
  Name = 
  0 active torsions:
  status: ('A' for Active; 'I' for Inactive)
                            x       y       z     vdW  Elec       q    Type
                         _______ _______ _______ _____ _____    ______ ____

>  <TORSDO>
F 0

$$$$
=
 OpenBabel11122414043D

 28 32  0  0  1  0  0  0  0  0999 V2000
  160.7330  211.8940  155.8430 C   0  0  0  0  0  0  0  0  0  0  0  0
  162.0820  208.1690  153.1470 O   0  0  0  0  0  1  0  0  0  0  0  0
  157.3240  212.9230  150.5520 O   0  0  0  0  0  0  0  0  0  0  0  0
  163.1110  210.4660  156.2410 C   0  0  0  0  0  3  0  0  0  0  0  0
  159.6740  212.9330  150.6190 N   0  0  0  0  0  0  0  0  0  0  0  0
  159.4950  212.7150  155.7310 C   0  0  0  0  0  2  0  0  0  0  0  0
  160.1470  208.2310  151.7910 C   0  0  0  0  0  1  0  0  0  0  0  0
  161.5260  208.8360  152.0570 C   0  0  1  0  0  0  0  0  0  0  0  0
  161.9910  209.4710  149.8360 C   0  0  2  0  0  3  0  0  0  0  0  0
  161.4450  210.3350  152.3720 C   0  0  1  0  0  3  0  0  0  0  0  0
  156.3170  211.2160  154.7630 O   0  0  0  0  0  0  0  0  0  0  0  0
  159.9700  212.1860  152.8560 C   0  0  1  0  0  3  0  0  0  0  0  0
  162.0530  210.8470  150.1630 O   0  0  0  0  0  0  0  0  0  0  0  0
  162.3830  208.6460  150.9320 O   0  0  0  0  0  0  0  0  0  0  0  0
  157.3530  211.9290  154.7020 C   0  0  0  0  0  0  0  0  0  0  0  0
  161.2390  211.0840  154.7880 C   0  0  0  0  0  0  0  0  0  0  0  0
  158.3960  212.6910  151.1700 C   0  0  0  0  0  0  0  0  0  0  0  0
  162.8910  209.1950  148.6490 C   0  0  0  0  0  1  0  0  0  0  0  0
  157.5860  212.7910  153.5040 C   0  0  0  0  0  2  0  0  0  0  0  0
  162.4300  210.3710  155.0280 C   0  0  0  0  0  3  0  0  0  0  0  0
  161.4250  211.9810  157.0560 C   0  0  0  0  0  3  0  0  0  0  0  0
  162.6080  211.2730  157.2570 C   0  0  0  0  0  3  0  0  0  0  0  0
  158.3170  211.8650  155.7520 N   0  0  0  0  0  2  0  0  0  0  0  0
  160.6950  212.4150  151.5090 C   0  0  1  0  0  3  0  0  0  0  0  0
  158.4700  212.0600  152.5060 C   0  0  2  0  0  3  0  0  0  0  0  0
  161.0350  211.0040  151.1060 C   0  0  2  0  0  3  0  0  0  0  0  0
  159.9180  213.3530  149.2480 C   0  0  0  0  0  1  0  0  0  0  0  0
  160.5030  210.8680  153.4590 C   0  0  2  0  0  3  0  0  0  0  0  0
  1 21  1  0  0  0  0
  3 17  2  0  0  0  0
  4 22  1  0  0  0  0
  5 17  1  0  0  0  0
  5 24  1  0  0  0  0
  6 23  1  0  0  0  0
  6  1  1  0  0  0  0
  8  7  1  6  0  0  0
  8 10  1  0  0  0  0
  8  2  1  0  0  0  0
  9 18  1  6  0  0  0
  9 13  1  0  0  0  0
  9 14  1  0  0  0  0
 10 28  1  0  0  0  0
 12 28  1  0  0  0  0
 13 26  1  0  0  0  0
 14  8  1  0  0  0  0
 15 11  2  0  0  0  0
 15 23  1  0  0  0  0
 16 20  1  0  0  0  0
 16  1  2  0  0  0  0
 17 25  1  0  0  0  0
 19 15  1  0  0  0  0
 20  4  2  0  0  0  0
 21 22  2  0  0  0  0
 24 12  1  0  0  0  0
 25 12  1  0  0  0  0
 25 19  1  0  0  0  0
 26 24  1  0  0  0  0
 26 10  1  0  0  0  0
 27  5  1  0  0  0  0
 28 16  1  0  0  0  0
M  END
>  <MODEL>
5

>  <REMARK>
 VINA RESULT:      -2.4      2.058      6.363
  Name = 
  0 active torsions:
  status: ('A' for Active; 'I' for Inactive)
                            x       y       z     vdW  Elec       q    Type
                         _______ _______ _______ _____ _____    ______ ____

>  <TORSDO>
F 0

$$$$
