=
 OpenBabel11122414153D

 34 41  0  0  1  0  0  0  0  0999 V2000
  160.9500  207.6800  154.1150 C   0  0  1  0  0  3  0  0  0  0  0  0
  161.6800  205.6090  153.1980 C   0  0  0  0  0  2  0  0  0  0  0  0
  158.2970  213.6960  153.5900 C   0  0  0  0  0  0  0  0  0  0  0  0
  160.5880  210.0030  154.9670 C   0  0  2  0  0  3  0  0  0  0  0  0
  159.5050  211.6590  153.3070 C   0  0  1  0  0  3  0  0  0  0  0  0
  159.2020  213.6220  151.7940 C   0  0  0  0  0  2  0  0  0  0  0  0
  158.0670  214.3050  152.3000 O   0  0  0  0  0  0  0  0  0  0  0  0
  157.9540  212.7090  155.7900 C   0  0  0  0  0  3  0  0  0  0  0  0
  161.0380  207.2820  151.6620 C   0  0  1  0  0  3  0  0  0  0  0  0
  161.7880  207.3710  148.6070 C   0  0  0  0  0  2  0  0  0  0  0  0
  160.3310  210.8830  152.3050 C   0  0  0  0  0  3  0  0  0  0  0  0
  158.9100  211.7570  155.8180 C   0  0  0  0  0  3  0  0  0  0  0  0
  161.4680  208.7670  151.5990 C   0  0  2  0  0  3  0  0  0  0  0  0
  162.1260  205.1440  151.8370 C   0  0  0  0  0  2  0  0  0  0  0  0
  159.9420  211.3970  154.7670 C   0  0  1  0  0  3  0  0  0  0  0  0
  157.6220  213.5800  154.6930 N   0  0  0  0  0  0  0  0  0  0  0  0
  161.8280  206.1330  149.5280 C   0  0  1  0  0  3  0  0  0  0  0  0
  160.2230  208.9990  153.8590 C   0  0  1  0  0  3  0  0  0  0  0  0
  159.5800  213.1550  153.0930 C   0  0  1  0  0  3  0  0  0  0  0  0
  160.6090  209.5870  152.5320 C   0  0  0  0  0  0  0  0  0  0  0  0
  159.8770  208.0630  156.4420 C   0  0  0  0  0  2  0  0  0  0  0  0
  162.4070  208.6200  149.2290 C   0  0  0  0  0  2  0  0  0  0  0  0
  160.5770  209.4200  156.3930 C   0  0  0  0  0  2  0  0  0  0  0  0
  161.4030  209.2980  150.1600 C   0  0  0  0  0  2  0  0  0  0  0  0
  162.0920  206.4030  151.0180 C   0  0  1  0  0  3  0  0  0  0  0  0
  160.5000  207.0600  155.4530 C   0  0  0  0  0  2  0  0  0  0  0  0
  160.7510  206.7300  153.0110 N   0  0  2  0  0  0  0  0  0  0  0  0
  160.8140  205.1740  149.2800 O   0  0  0  0  0  0  0  0  0  0  0  0
  161.2450  204.2710  148.2890 C   0  0  0  0  0  2  0  0  0  0  0  0
  161.2680  200.7660  148.5620 C   0  0  0  0  0  2  0  0  0  0  0  0
  160.5520  202.5390  149.9440 C   0  0  0  0  0  2  0  0  0  0  0  0
  160.6010  202.9050  148.4780 C   0  0  2  0  0  3  0  0  0  0  0  0
  161.1830  201.1870  150.0100 C   0  0  0  0  0  2  0  0  0  0  0  0
  161.3100  201.9210  147.7650 O   0  0  0  0  0  0  0  0  0  0  0  0
  1 26  1  1  0  0  0
  3 16  2  0  0  0  0
  4 23  1  1  0  0  0
  5 11  1  6  0  0  0
  5 15  1  0  0  0  0
  6  7  1  0  0  0  0
  6 19  1  0  0  0  0
  7  3  1  0  0  0  0
  8 12  2  0  0  0  0
  9 27  1  0  0  0  0
 10 22  1  0  0  0  0
 10 17  1  0  0  0  0
 11 20  2  0  0  0  0
 13  9  1  0  0  0  0
 13 20  1  0  0  0  0
 14  2  1  0  0  0  0
 15  4  1  0  0  0  0
 15 12  1  0  0  0  0
 16  8  1  0  0  0  0
 17 25  1  0  0  0  0
 18  1  1  0  0  0  0
 18  4  1  0  0  0  0
 19  5  1  0  0  0  0
 19  3  1  0  0  0  0
 20 18  1  0  0  0  0
 22 24  1  0  0  0  0
 23 21  1  0  0  0  0
 24 13  1  0  0  0  0
 25  9  1  0  0  0  0
 25 14  1  0  0  0  0
 26 21  1  0  0  0  0
 27  2  1  0  0  0  0
 27  1  1  0  0  0  0
 28 17  1  0  0  0  0
 29 32  1  0  0  0  0
 29 28  1  0  0  0  0
 30 33  1  0  0  0  0
 31 33  1  0  0  0  0
 32 31  1  0  0  0  0
 34 32  1  0  0  0  0
 34 30  1  0  0  0  0
M  END
>  <MODEL>
1

>  <REMARK>
 VINA RESULT:      -9.1      0.000      0.000
  Name = 
  3 active torsions:
  status: ('A' for Active; 'I' for Inactive)
    1  A    between atoms: C_17  and  O_28
    2  A    between atoms: O_28  and  C_29
    3  A    between atoms: C_29  and  C_32
                            x       y       z     vdW  Elec       q    Type
                         _______ _______ _______ _____ _____    ______ ____

>  <TORSDO>
F 3

$$$$
=
 OpenBabel11122414153D

 34 41  0  0  1  0  0  0  0  0999 V2000
  160.9510  207.9210  154.1560 C   0  0  1  0  0  3  0  0  0  0  0  0
  161.9190  206.2200  152.8020 C   0  0  0  0  0  2  0  0  0  0  0  0
  157.6580  213.5770  154.9750 C   0  0  0  0  0  0  0  0  0  0  0  0
  160.3220  209.9180  155.5220 C   0  0  2  0  0  3  0  0  0  0  0  0
  159.0880  211.8050  154.2640 C   0  0  1  0  0  3  0  0  0  0  0  0
  158.5920  214.0340  153.2520 C   0  0  0  0  0  2  0  0  0  0  0  0
  157.3820  214.4530  153.8590 O   0  0  0  0  0  0  0  0  0  0  0  0
  157.3930  212.0560  156.8590 C   0  0  0  0  0  3  0  0  0  0  0  0
  161.1200  208.1400  151.6840 C   0  0  1  0  0  3  0  0  0  0  0  0
  161.9010  209.0420  148.7730 C   0  0  0  0  0  2  0  0  0  0  0  0
  160.0090  211.3850  153.1400 C   0  0  0  0  0  3  0  0  0  0  0  0
  158.4480  211.2310  156.6980 C   0  0  0  0  0  3  0  0  0  0  0  0
  161.3840  209.6320  151.9960 C   0  0  2  0  0  3  0  0  0  0  0  0
  162.4350  206.1470  151.3890 C   0  0  0  0  0  2  0  0  0  0  0  0
  159.5290  211.2450  155.6350 C   0  0  1  0  0  3  0  0  0  0  0  0
  156.9830  213.1280  155.9900 N   0  0  0  0  0  0  0  0  0  0  0  0
  162.0640  207.6290  149.3730 C   0  0  1  0  0  3  0  0  0  0  0  0
  160.0870  209.1800  154.1930 C   0  0  1  0  0  3  0  0  0  0  0  0
  159.0010  213.3080  154.4160 C   0  0  1  0  0  3  0  0  0  0  0  0
  160.4260  210.1090  153.0620 C   0  0  0  0  0  0  0  0  0  0  0  0
  159.8080  207.6160  156.4600 C   0  0  0  0  0  2  0  0  0  0  0  0
  162.3690  210.1610  149.7010 C   0  0  0  0  0  2  0  0  0  0  0  0
  160.3540  209.0090  156.7670 C   0  0  0  0  0  2  0  0  0  0  0  0
  161.2830  210.4860  150.7250 C   0  0  0  0  0  2  0  0  0  0  0  0
  162.2740  207.5570  150.8940 C   0  0  1  0  0  3  0  0  0  0  0  0
  160.5530  206.9530  155.2880 C   0  0  0  0  0  2  0  0  0  0  0  0
  160.8750  207.2510  152.8500 N   0  0  2  0  0  0  0  0  0  0  0  0
  161.1660  206.6600  148.8610 O   0  0  0  0  0  0  0  0  0  0  0  0
  161.5420  206.3070  147.5510 C   0  0  0  0  0  2  0  0  0  0  0  0
  161.2630  202.8070  147.7370 C   0  0  0  0  0  2  0  0  0  0  0  0
  161.9960  204.3350  146.0940 C   0  0  0  0  0  2  0  0  0  0  0  0
  162.0770  204.8830  147.5000 C   0  0  2  0  0  3  0  0  0  0  0  0
  161.2710  203.0370  146.2430 C   0  0  0  0  0  2  0  0  0  0  0  0
  161.3570  204.0530  148.3780 O   0  0  0  0  0  0  0  0  0  0  0  0
  1 18  1  0  0  0  0
  1 26  1  1  0  0  0
  2 27  1  0  0  0  0
  3 16  2  0  0  0  0
  4 15  1  0  0  0  0
  4 23  1  1  0  0  0
  5 11  1  6  0  0  0
  5 19  1  0  0  0  0
  5 15  1  0  0  0  0
  6  7  1  0  0  0  0
  6 19  1  0  0  0  0
  7  3  1  0  0  0  0
  9 13  1  0  0  0  0
  9 27  1  0  0  0  0
 10 17  1  0  0  0  0
 10 22  1  0  0  0  0
 12  8  2  0  0  0  0
 13 20  1  0  0  0  0
 14  2  1  0  0  0  0
 15 12  1  0  0  0  0
 16  8  1  0  0  0  0
 17 25  1  0  0  0  0
 18  4  1  0  0  0  0
 19  3  1  0  0  0  0
 20 11  2  0  0  0  0
 20 18  1  0  0  0  0
 21 23  1  0  0  0  0
 22 24  1  0  0  0  0
 24 13  1  0  0  0  0
 25 14  1  0  0  0  0
 25  9  1  0  0  0  0
 26 21  1  0  0  0  0
 27  1  1  0  0  0  0
 28 17  1  0  0  0  0
 29 28  1  0  0  0  0
 30 34  1  0  0  0  0
 31 33  1  0  0  0  0
 31 32  1  0  0  0  0
 32 29  1  0  0  0  0
 32 34  1  0  0  0  0
 33 30  1  0  0  0  0
M  END
>  <MODEL>
2

>  <REMARK>
 VINA RESULT:      -9.0      1.256      1.689
  Name = 
  3 active torsions:
  status: ('A' for Active; 'I' for Inactive)
    1  A    between atoms: C_17  and  O_28
    2  A    between atoms: O_28  and  C_29
    3  A    between atoms: C_29  and  C_32
                            x       y       z     vdW  Elec       q    Type
                         _______ _______ _______ _____ _____    ______ ____

>  <TORSDO>
F 3

$$$$
=
 OpenBabel11122414153D

 34 41  0  0  1  0  0  0  0  0999 V2000
  161.5830  209.1770  151.1600 C   0  0  1  0  0  3  0  0  0  0  0  0
  161.1970  211.0700  152.5490 C   0  0  0  0  0  2  0  0  0  0  0  0
  160.8220  202.8120  149.6080 C   0  0  0  0  0  0  0  0  0  0  0  0
  162.3210  207.1010  149.9800 C   0  0  2  0  0  3  0  0  0  0  0  0
  161.1350  204.9180  150.6830 C   0  0  1  0  0  3  0  0  0  0  0  0
  160.7630  202.6290  151.6110 C   0  0  0  0  0  2  0  0  0  0  0  0
  160.2230  201.8790  150.5360 O   0  0  0  0  0  0  0  0  0  0  0  0
  161.2330  204.2100  147.6570 C   0  0  0  0  0  3  0  0  0  0  0  0
  160.4440  208.9860  153.3640 C   0  0  1  0  0  3  0  0  0  0  0  0
  159.7370  208.3180  156.3560 C   0  0  0  0  0  2  0  0  0  0  0  0
  161.1640  205.5770  152.0440 C   0  0  0  0  0  3  0  0  0  0  0  0
  161.7840  205.3090  148.2150 C   0  0  0  0  0  3  0  0  0  0  0  0
  161.2050  207.6430  153.4590 C   0  0  2  0  0  3  0  0  0  0  0  0
  160.8330  211.2740  153.9970 C   0  0  0  0  0  2  0  0  0  0  0  0
  162.0840  205.6010  149.6720 C   0  0  1  0  0  3  0  0  0  0  0  0
  160.7100  203.0550  148.3370 N   0  0  0  0  0  0  0  0  0  0  0  0
  159.8290  209.7230  155.7250 C   0  0  1  0  0  3  0  0  0  0  0  0
  161.2290  207.7190  150.8690 C   0  0  1  0  0  3  0  0  0  0  0  0
  161.5310  203.4580  150.7330 C   0  0  1  0  0  3  0  0  0  0  0  0
  161.1310  206.9180  152.1350 C   0  0  0  0  0  0  0  0  0  0  0  0
  161.8250  209.1600  148.5810 C   0  0  0  0  0  2  0  0  0  0  0  0
  160.8980  207.3990  155.9820 C   0  0  0  0  0  2  0  0  0  0  0  0
  162.7850  207.9940  148.8130 C   0  0  0  0  0  2  0  0  0  0  0  0
  160.6580  206.7810  154.6060 C   0  0  0  0  0  2  0  0  0  0  0  0
  160.7980  209.8740  154.5400 C   0  0  1  0  0  3  0  0  0  0  0  0
  161.6230  209.9990  149.8560 C   0  0  0  0  0  2  0  0  0  0  0  0
  160.6480  209.7780  152.1230 N   0  0  2  0  0  0  0  0  0  0  0  0
  158.5850  210.3780  155.5470 O   0  0  0  0  0  0  0  0  0  0  0  0
  158.4270  211.3730  156.5310 C   0  0  0  0  0  2  0  0  0  0  0  0
  158.5120  214.3290  154.6300 C   0  0  0  0  0  2  0  0  0  0  0  0
  157.2220  212.3540  154.5810 C   0  0  0  0  0  2  0  0  0  0  0  0
  157.8280  212.6400  155.9360 C   0  0  2  0  0  3  0  0  0  0  0  0
  157.8410  213.3680  153.6760 C   0  0  0  0  0  2  0  0  0  0  0  0
  158.8090  213.6410  155.8180 O   0  0  0  0  0  0  0  0  0  0  0  0
  1 26  1  6  0  0  0
  1 27  1  0  0  0  0
  2 14  1  0  0  0  0
  3  7  1  0  0  0  0
  3 19  1  0  0  0  0
  4 23  1  6  0  0  0
  4 18  1  0  0  0  0
  5 19  1  0  0  0  0
  5 11  1  1  0  0  0
  7  6  1  0  0  0  0
  8 12  2  0  0  0  0
  8 16  1  0  0  0  0
  9 13  1  0  0  0  0
  9 25  1  0  0  0  0
 11 20  2  0  0  0  0
 12 15  1  0  0  0  0
 13 24  1  0  0  0  0
 14 25  1  0  0  0  0
 15  4  1  0  0  0  0
 15  5  1  0  0  0  0
 16  3  2  0  0  0  0
 17 10  1  0  0  0  0
 18  1  1  0  0  0  0
 18 20  1  0  0  0  0
 19  6  1  0  0  0  0
 20 13  1  0  0  0  0
 21 23  1  0  0  0  0
 21 26  1  0  0  0  0
 22 10  1  0  0  0  0
 24 22  1  0  0  0  0
 25 17  1  0  0  0  0
 27  2  1  0  0  0  0
 27  9  1  0  0  0  0
 28 17  1  0  0  0  0
 28 29  1  0  0  0  0
 30 34  1  0  0  0  0
 31 32  1  0  0  0  0
 32 29  1  0  0  0  0
 33 31  1  0  0  0  0
 33 30  1  0  0  0  0
 34 32  1  0  0  0  0
M  END
>  <MODEL>
3

>  <REMARK>
 VINA RESULT:      -8.6      1.888      8.988
  Name = 
  3 active torsions:
  status: ('A' for Active; 'I' for Inactive)
    1  A    between atoms: C_17  and  O_28
    2  A    between atoms: O_28  and  C_29
    3  A    between atoms: C_29  and  C_32
                            x       y       z     vdW  Elec       q    Type
                         _______ _______ _______ _____ _____    ______ ____

>  <TORSDO>
F 3

$$$$
=
 OpenBabel11122414153D

 34 41  0  0  1  0  0  0  0  0999 V2000
  161.3640  208.7230  149.9200 C   0  0  1  0  0  3  0  0  0  0  0  0
  161.4600  207.6920  147.7770 C   0  0  0  0  0  2  0  0  0  0  0  0
  161.6960  208.5620  156.5050 C   0  0  0  0  0  0  0  0  0  0  0  0
  160.8390  209.6780  152.1690 C   0  0  2  0  0  3  0  0  0  0  0  0
  161.3110  208.1410  154.1890 C   0  0  1  0  0  3  0  0  0  0  0  0
  160.9410  206.7200  156.2100 C   0  0  0  0  0  2  0  0  0  0  0  0
  161.7360  207.3090  157.2250 O   0  0  0  0  0  0  0  0  0  0  0  0
  162.2950  210.7370  155.5890 C   0  0  0  0  0  3  0  0  0  0  0  0
  161.5100  206.2550  149.6490 C   0  0  1  0  0  3  0  0  0  0  0  0
  160.8850  203.1710  149.6270 C   0  0  0  0  0  2  0  0  0  0  0  0
  160.8540  207.0690  153.2250 C   0  0  0  0  0  3  0  0  0  0  0  0
  161.7440  210.6800  154.3590 C   0  0  0  0  0  3  0  0  0  0  0  0
  160.5780  206.2260  150.8840 C   0  0  2  0  0  3  0  0  0  0  0  0
  161.2570  206.2930  147.2570 C   0  0  0  0  0  2  0  0  0  0  0  0
  160.9470  209.5650  153.7110 C   0  0  1  0  0  3  0  0  0  0  0  0
  162.3300  209.6930  156.5790 N   0  0  0  0  0  0  0  0  0  0  0  0
  161.2600  204.0410  148.4090 C   0  0  1  0  0  3  0  0  0  0  0  0
  161.5780  208.5540  151.4240 C   0  0  1  0  0  3  0  0  0  0  0  0
  160.7110  207.9790  155.5700 C   0  0  1  0  0  3  0  0  0  0  0  0
  161.0520  207.2330  151.9050 C   0  0  0  0  0  0  0  0  0  0  0  0
  162.1470  211.1140  150.5350 C   0  0  0  0  0  2  0  0  0  0  0  0
  159.8370  203.8070  150.5380 C   0  0  0  0  0  2  0  0  0  0  0  0
  161.0090  211.0810  151.5530 C   0  0  0  0  0  2  0  0  0  0  0  0
  160.4970  204.8130  151.4790 C   0  0  0  0  0  2  0  0  0  0  0  0
  160.8650  205.5250  148.4870 C   0  0  1  0  0  3  0  0  0  0  0  0
  161.9600  210.0580  149.4310 C   0  0  0  0  0  2  0  0  0  0  0  0
  161.9290  207.5960  149.1640 N   0  0  2  0  0  0  0  0  0  0  0  0
  162.5580  203.8100  147.8910 O   0  0  0  0  0  0  0  0  0  0  0  0
  162.4640  203.1590  146.6450 C   0  0  0  0  0  2  0  0  0  0  0  0
  159.8110  202.2780  144.5140 C   0  0  0  0  0  2  0  0  0  0  0  0
  160.8330  201.2900  146.3970 C   0  0  0  0  0  2  0  0  0  0  0  0
  161.0220  202.7880  146.3300 C   0  0  2  0  0  3  0  0  0  0  0  0
  160.2020  200.9370  145.0900 C   0  0  0  0  0  2  0  0  0  0  0  0
  160.6580  203.2580  145.0560 O   0  0  0  0  0  0  0  0  0  0  0  0
  1 26  1  6  0  0  0
  1 18  1  0  0  0  0
  2 27  1  0  0  0  0
  3 16  2  0  0  0  0
  3  7  1  0  0  0  0
  4 23  1  6  0  0  0
  4 15  1  0  0  0  0
  5 11  1  6  0  0  0
  5 19  1  0  0  0  0
  6  7  1  0  0  0  0
  8 16  1  0  0  0  0
  9 13  1  0  0  0  0
 10 22  1  0  0  0  0
 12  8  2  0  0  0  0
 13 24  1  0  0  0  0
 13 20  1  0  0  0  0
 14  2  1  0  0  0  0
 14 25  1  0  0  0  0
 15  5  1  0  0  0  0
 15 12  1  0  0  0  0
 17 25  1  0  0  0  0
 17 10  1  0  0  0  0
 18 20  1  0  0  0  0
 18  4  1  0  0  0  0
 19  6  1  0  0  0  0
 19  3  1  0  0  0  0
 20 11  2  0  0  0  0
 21 23  1  0  0  0  0
 22 24  1  0  0  0  0
 25  9  1  0  0  0  0
 26 21  1  0  0  0  0
 27  9  1  0  0  0  0
 27  1  1  0  0  0  0
 28 17  1  0  0  0  0
 29 28  1  0  0  0  0
 30 34  1  0  0  0  0
 30 33  1  0  0  0  0
 32 31  1  0  0  0  0
 32 29  1  0  0  0  0
 33 31  1  0  0  0  0
 34 32  1  0  0  0  0
M  END
>  <MODEL>
4

>  <REMARK>
 VINA RESULT:      -6.8      2.797      4.777
  Name = 
  3 active torsions:
  status: ('A' for Active; 'I' for Inactive)
    1  A    between atoms: C_17  and  O_28
    2  A    between atoms: O_28  and  C_29
    3  A    between atoms: C_29  and  C_32
                            x       y       z     vdW  Elec       q    Type
                         _______ _______ _______ _____ _____    ______ ____

>  <TORSDO>
F 3

$$$$
