=
 OpenBabel11122414163D

 34 41  0  0  1  0  0  0  0  0999 V2000
  161.1230  204.7760  151.8390 C   0  0  0  0  0  0  0  0  0  0  0  0
  161.1460  205.9130  154.0230 O   0  0  0  0  0  0  0  0  0  0  0  0
  160.4350  204.7730  145.6960 C   0  0  1  0  0  3  0  0  0  0  0  0
  161.1080  203.7600  149.6360 C   0  0  0  0  0  0  0  0  0  0  0  0
  161.5350  205.2560  147.7320 C   0  0  0  0  0  0  0  0  0  0  0  0
  161.1930  206.5940  145.5070 C   0  0  0  0  0  2  0  0  0  0  0  0
  160.1830  205.8580  144.8500 O   0  0  0  0  0  0  0  0  0  0  0  0
  161.5320  202.5610  146.0700 C   0  0  0  0  0  2  0  0  0  0  0  0
  161.5920  207.1850  152.1350 C   0  0  0  0  0  0  0  0  0  0  0  0
  160.5050  209.9090  151.7900 C   0  0  0  0  0  2  0  0  0  0  0  0
  161.6950  206.3290  148.5220 C   0  0  0  0  0  3  0  0  0  0  0  0
  161.0910  202.7220  147.4670 N   0  0  0  0  0  2  0  0  0  0  0  0
  161.7290  207.3750  150.8070 C   0  0  0  0  0  0  0  0  0  0  0  0
  161.4960  207.2300  154.4370 C   0  0  0  0  0  2  0  0  0  0  0  0
  161.2590  203.8910  148.3090 C   0  0  0  0  0  0  0  0  0  0  0  0
  160.7490  203.4340  145.0630 C   0  0  0  0  0  2  0  0  0  0  0  0
  160.6270  209.2290  153.1610 C   0  0  1  0  0  3  0  0  0  0  0  0
  161.2640  204.9280  150.5130 C   0  0  0  0  0  0  0  0  0  0  0  0
  161.6800  205.3750  146.2550 C   0  0  2  0  0  3  0  0  0  0  0  0
  161.5690  206.2210  149.9480 N   0  0  0  0  0  0  0  0  0  0  0  0
  160.6720  202.4230  151.6680 C   0  0  0  0  0  3  0  0  0  0  0  0
  161.8430  209.9650  151.0590 C   0  0  0  0  0  2  0  0  0  0  0  0
  160.8110  202.4980  150.2420 N   0  0  0  0  0  2  0  0  0  0  0  0
  162.0640  208.7220  150.1890 C   0  0  0  0  0  2  0  0  0  0  0  0
  161.7200  208.1510  153.2240 C   0  0  2  0  0  3  0  0  0  0  0  0
  160.8180  203.4880  152.4050 N   0  0  0  0  0  0  0  0  0  0  0  0
  161.2810  205.9260  152.6740 N   0  0  0  0  0  0  0  0  0  0  0  0
  160.8750  210.2410  154.1760 N   0  0  0  0  0  2  0  0  0  0  0  0
  159.9710  210.0360  155.1640 O   0  0  0  0  0  0  0  0  0  0  0  0
  162.3790  209.2260  157.2610 C   0  0  0  0  0  2  0  0  0  0  0  0
  161.9840  211.0020  155.9770 C   0  0  0  0  0  2  0  0  0  0  0  0
  160.6060  210.4830  156.3240 C   0  0  2  0  0  3  0  0  0  0  0  0
  162.9050  210.4720  156.8940 O   0  0  0  0  0  0  0  0  0  0  0  0
  160.8730  209.3230  157.2360 C   0  0  0  0  0  2  0  0  0  0  0  0
  1 26  1  0  0  0  0
  1 27  1  0  0  0  0
  2 14  1  0  0  0  0
  3 16  1  6  0  0  0
  3 19  1  0  0  0  0
  4 23  1  0  0  0  0
  4 18  1  0  0  0  0
  5 15  1  0  0  0  0
  5 11  2  0  0  0  0
  7  6  1  0  0  0  0
  7  3  1  0  0  0  0
  8 12  1  0  0  0  0
  9 27  1  0  0  0  0
  9 25  1  0  0  0  0
 10 17  1  0  0  0  0
 11 20  1  0  0  0  0
 12 15  1  0  0  0  0
 13  9  2  0  0  0  0
 15  4  2  0  0  0  0
 16  8  1  0  0  0  0
 17 25  1  0  0  0  0
 17 28  1  1  0  0  0
 18  1  2  0  0  0  0
 19  6  1  1  0  0  0
 19  5  1  0  0  0  0
 20 18  1  0  0  0  0
 20 13  1  0  0  0  0
 21 26  2  0  0  0  0
 22 10  1  0  0  0  0
 23 21  1  0  0  0  0
 24 13  1  0  0  0  0
 24 22  1  0  0  0  0
 25 14  1  1  0  0  0
 27  2  1  0  0  0  0
 28 29  1  0  0  0  0
 31 32  1  0  0  0  0
 31 33  1  0  0  0  0
 32 29  1  6  0  0  0
 32 34  1  0  0  0  0
 33 30  1  0  0  0  0
 34 30  1  0  0  0  0
M  END
>  <MODEL>
1

>  <REMARK>
 VINA RESULT:      -8.5      0.000      0.000
  Name = 
  3 active torsions:
  status: ('A' for Active; 'I' for Inactive)
    1  A    between atoms: C_17  and  N_28
    2  A    between atoms: N_28  and  O_29
    3  A    between atoms: O_29  and  C_32
                            x       y       z     vdW  Elec       q    Type
                         _______ _______ _______ _____ _____    ______ ____

>  <TORSDO>
F 3

$$$$
=
 OpenBabel11122414163D

 34 41  0  0  1  0  0  0  0  0999 V2000
  161.1120  204.7970  151.9180 C   0  0  0  0  0  0  0  0  0  0  0  0
  161.0870  205.8390  154.1490 O   0  0  0  0  0  0  0  0  0  0  0  0
  160.4700  205.0380  145.7740 C   0  0  1  0  0  3  0  0  0  0  0  0
  161.1430  203.8770  149.6730 C   0  0  0  0  0  0  0  0  0  0  0  0
  161.5400  205.4650  147.8390 C   0  0  0  0  0  0  0  0  0  0  0  0
  161.1760  206.8860  145.6700 C   0  0  0  0  0  2  0  0  0  0  0  0
  160.1930  206.1510  144.9740 O   0  0  0  0  0  0  0  0  0  0  0  0
  161.6280  202.8450  146.0630 C   0  0  0  0  0  2  0  0  0  0  0  0
  161.5090  207.2040  152.3210 C   0  0  0  0  0  0  0  0  0  0  0  0
  160.3470  209.9070  152.0840 C   0  0  0  0  0  2  0  0  0  0  0  0
  161.6640  206.5060  148.6750 C   0  0  0  0  0  3  0  0  0  0  0  0
  161.1720  202.9320  147.4620 N   0  0  0  0  0  2  0  0  0  0  0  0
  161.6510  207.4540  151.0030 C   0  0  0  0  0  0  0  0  0  0  0  0
  161.3950  207.1470  154.6210 C   0  0  0  0  0  2  0  0  0  0  0  0
  161.3000  204.0680  148.3550 C   0  0  0  0  0  0  0  0  0  0  0  0
  160.8270  203.7370  145.0880 C   0  0  0  0  0  2  0  0  0  0  0  0
  160.4780  209.1730  153.4250 C   0  0  1  0  0  3  0  0  0  0  0  0
  161.2590  205.0100  150.6010 C   0  0  0  0  0  0  0  0  0  0  0  0
  161.6930  205.6510  146.3690 C   0  0  2  0  0  3  0  0  0  0  0  0
  161.5300  206.3340  150.0950 N   0  0  0  0  0  0  0  0  0  0  0  0
  160.7310  202.4410  151.6420 C   0  0  0  0  0  3  0  0  0  0  0  0
  161.6880  210.0330  151.3670 C   0  0  0  0  0  2  0  0  0  0  0  0
  160.8780  202.5820  150.2220 N   0  0  0  0  0  2  0  0  0  0  0  0
  161.9520  208.8350  150.4470 C   0  0  0  0  0  2  0  0  0  0  0  0
  161.6010  208.1240  153.4510 C   0  0  2  0  0  3  0  0  0  0  0  0
  160.8410  203.4770  152.4260 N   0  0  0  0  0  0  0  0  0  0  0  0
  161.2310  205.9140  152.8030 N   0  0  0  0  0  0  0  0  0  0  0  0
  160.6900  210.1470  154.4840 N   0  0  0  0  0  2  0  0  0  0  0  0
  159.6630  210.0070  155.3570 O   0  0  0  0  0  0  0  0  0  0  0  0
  156.7800  211.5860  155.5700 C   0  0  0  0  0  2  0  0  0  0  0  0
  158.5770  211.4720  156.8800 C   0  0  0  0  0  2  0  0  0  0  0  0
  159.1270  211.2900  155.4830 C   0  0  2  0  0  3  0  0  0  0  0  0
  157.3010  212.0480  156.7870 O   0  0  0  0  0  0  0  0  0  0  0  0
  157.9240  211.4250  154.5990 C   0  0  0  0  0  2  0  0  0  0  0  0
  1 26  1  0  0  0  0
  1 27  1  0  0  0  0
  2 14  1  0  0  0  0
  3 16  1  6  0  0  0
  3 19  1  0  0  0  0
  4 23  1  0  0  0  0
  4 18  1  0  0  0  0
  5 15  1  0  0  0  0
  5 11  2  0  0  0  0
  7  6  1  0  0  0  0
  7  3  1  0  0  0  0
  8 12  1  0  0  0  0
  9 27  1  0  0  0  0
  9 25  1  0  0  0  0
 10 17  1  0  0  0  0
 11 20  1  0  0  0  0
 12 15  1  0  0  0  0
 13  9  2  0  0  0  0
 15  4  2  0  0  0  0
 16  8  1  0  0  0  0
 17 25  1  0  0  0  0
 17 28  1  1  0  0  0
 18  1  2  0  0  0  0
 19  6  1  1  0  0  0
 19  5  1  0  0  0  0
 20 18  1  0  0  0  0
 20 13  1  0  0  0  0
 21 26  2  0  0  0  0
 22 10  1  0  0  0  0
 23 21  1  0  0  0  0
 24 13  1  0  0  0  0
 24 22  1  0  0  0  0
 25 14  1  1  0  0  0
 27  2  1  0  0  0  0
 28 29  1  0  0  0  0
 30 33  1  0  0  0  0
 32 29  1  1  0  0  0
 32 31  1  0  0  0  0
 33 31  1  0  0  0  0
 34 32  1  0  0  0  0
 34 30  1  0  0  0  0
M  END
>  <MODEL>
2

>  <REMARK>
 VINA RESULT:      -8.4      1.237      1.813
  Name = 
  3 active torsions:
  status: ('A' for Active; 'I' for Inactive)
    1  A    between atoms: C_17  and  N_28
    2  A    between atoms: N_28  and  O_29
    3  A    between atoms: O_29  and  C_32
                            x       y       z     vdW  Elec       q    Type
                         _______ _______ _______ _____ _____    ______ ____

>  <TORSDO>
F 3

$$$$
=
 OpenBabel11122414163D

 34 41  0  0  1  0  0  0  0  0999 V2000
  161.7380  207.4300  149.4900 C   0  0  0  0  0  0  0  0  0  0  0  0
  161.8500  205.8050  147.6430 O   0  0  0  0  0  0  0  0  0  0  0  0
  160.0510  209.0940  155.1990 C   0  0  1  0  0  3  0  0  0  0  0  0
  161.6020  208.9420  151.3820 C   0  0  0  0  0  0  0  0  0  0  0  0
  161.3250  207.9120  153.5970 C   0  0  0  0  0  0  0  0  0  0  0  0
  160.2970  207.2640  155.9160 C   0  0  0  0  0  2  0  0  0  0  0  0
  159.4030  208.3250  156.1710 O   0  0  0  0  0  0  0  0  0  0  0  0
  161.7020  210.8800  154.6340 C   0  0  0  0  0  2  0  0  0  0  0  0
  161.6470  204.9790  149.8010 C   0  0  0  0  0  0  0  0  0  0  0  0
  159.8860  202.6980  150.4460 C   0  0  0  0  0  2  0  0  0  0  0  0
  161.3490  206.6670  153.0970 C   0  0  0  0  0  3  0  0  0  0  0  0
  161.4760  210.4690  153.2360 N   0  0  0  0  0  2  0  0  0  0  0  0
  161.5090  205.1010  151.1370 C   0  0  0  0  0  0  0  0  0  0  0  0
  161.9310  204.3840  147.5940 C   0  0  0  0  0  2  0  0  0  0  0  0
  161.4920  209.1180  152.7080 C   0  0  0  0  0  0  0  0  0  0  0  0
  160.5710  210.4580  155.5990 C   0  0  0  0  0  2  0  0  0  0  0  0
  160.3980  202.9780  149.0270 C   0  0  1  0  0  3  0  0  0  0  0  0
  161.6130  207.5860  150.8170 C   0  0  0  0  0  0  0  0  0  0  0  0
  161.1860  208.1360  155.0620 C   0  0  2  0  0  3  0  0  0  0  0  0
  161.4940  206.4400  151.6860 N   0  0  0  0  0  0  0  0  0  0  0  0
  161.8540  209.7930  149.0750 C   0  0  0  0  0  3  0  0  0  0  0  0
  161.0260  202.5610  151.4490 C   0  0  0  0  0  2  0  0  0  0  0  0
  161.7290  210.0480  150.4820 N   0  0  0  0  0  2  0  0  0  0  0  0
  161.3960  203.9110  152.0740 C   0  0  0  0  0  2  0  0  0  0  0  0
  161.7160  203.7680  148.9870 C   0  0  2  0  0  3  0  0  0  0  0  0
  161.8570  208.5710  148.6210 N   0  0  0  0  0  0  0  0  0  0  0  0
  161.7480  206.1010  148.9620 N   0  0  0  0  0  0  0  0  0  0  0  0
  160.5580  201.7180  148.3190 N   0  0  0  0  0  2  0  0  0  0  0  0
  159.8750  201.8320  147.1540 O   0  0  0  0  0  0  0  0  0  0  0  0
  161.0770  199.0800  145.8000 C   0  0  0  0  0  2  0  0  0  0  0  0
  159.9980  200.8520  144.9930 C   0  0  0  0  0  2  0  0  0  0  0  0
  160.7700  201.3970  146.1740 C   0  0  2  0  0  3  0  0  0  0  0  0
  160.5660  199.6260  144.6150 O   0  0  0  0  0  0  0  0  0  0  0  0
  161.5400  200.2140  146.6810 C   0  0  0  0  0  2  0  0  0  0  0  0
  1 18  2  0  0  0  0
  2 27  1  0  0  0  0
  3 16  1  1  0  0  0
  3  7  1  0  0  0  0
  4 15  2  0  0  0  0
  5 19  1  0  0  0  0
  6  7  1  0  0  0  0
  8 16  1  0  0  0  0
  9 13  2  0  0  0  0
 10 22  1  0  0  0  0
 11  5  2  0  0  0  0
 12  8  1  0  0  0  0
 13 20  1  0  0  0  0
 13 24  1  0  0  0  0
 14  2  1  0  0  0  0
 15 12  1  0  0  0  0
 15  5  1  0  0  0  0
 17 28  1  1  0  0  0
 17 10  1  0  0  0  0
 18  4  1  0  0  0  0
 18 20  1  0  0  0  0
 19  3  1  0  0  0  0
 19  6  1  1  0  0  0
 20 11  1  0  0  0  0
 21 23  1  0  0  0  0
 22 24  1  0  0  0  0
 23  4  1  0  0  0  0
 25 14  1  6  0  0  0
 25 17  1  0  0  0  0
 25  9  1  0  0  0  0
 26 21  2  0  0  0  0
 26  1  1  0  0  0  0
 27  1  1  0  0  0  0
 27  9  1  0  0  0  0
 29 28  1  0  0  0  0
 30 34  1  0  0  0  0
 31 32  1  0  0  0  0
 32 34  1  0  0  0  0
 32 29  1  1  0  0  0
 33 31  1  0  0  0  0
 33 30  1  0  0  0  0
M  END
>  <MODEL>
3

>  <REMARK>
 VINA RESULT:      -8.0      2.142      9.192
  Name = 
  3 active torsions:
  status: ('A' for Active; 'I' for Inactive)
    1  A    between atoms: C_17  and  N_28
    2  A    between atoms: N_28  and  O_29
    3  A    between atoms: O_29  and  C_32
                            x       y       z     vdW  Elec       q    Type
                         _______ _______ _______ _____ _____    ______ ____

>  <TORSDO>
F 3

$$$$
=
 OpenBabel11122414163D

 34 41  0  0  1  0  0  0  0  0999 V2000
  161.2550  204.3870  151.1710 C   0  0  0  0  0  0  0  0  0  0  0  0
  161.5560  206.0370  152.9740 O   0  0  0  0  0  0  0  0  0  0  0  0
  160.0780  202.8810  145.2930 C   0  0  1  0  0  3  0  0  0  0  0  0
  160.9720  202.8480  149.3180 C   0  0  0  0  0  0  0  0  0  0  0  0
  161.3770  203.7500  147.0670 C   0  0  0  0  0  0  0  0  0  0  0  0
  160.9780  204.5000  144.5900 C   0  0  0  0  0  2  0  0  0  0  0  0
  159.8570  203.7330  144.2060 O   0  0  0  0  0  0  0  0  0  0  0  0
  160.9990  200.7350  146.1760 C   0  0  0  0  0  2  0  0  0  0  0  0
  161.9600  206.7270  150.7960 C   0  0  0  0  0  0  0  0  0  0  0  0
  161.0980  209.3710  149.8050 C   0  0  0  0  0  2  0  0  0  0  0  0
  161.6960  204.9650  147.5360 C   0  0  0  0  0  3  0  0  0  0  0  0
  160.6880  201.2950  147.5040 N   0  0  0  0  0  2  0  0  0  0  0  0
  162.0070  206.5530  149.4600 C   0  0  0  0  0  0  0  0  0  0  0  0
  162.0540  207.3710  153.0060 C   0  0  0  0  0  2  0  0  0  0  0  0
  161.0280  202.6160  147.9970 C   0  0  0  0  0  0  0  0  0  0  0  0
  160.2190  201.3990  145.0190 C   0  0  0  0  0  2  0  0  0  0  0  0
  161.2680  209.0570  151.2980 C   0  0  1  0  0  3  0  0  0  0  0  0
  161.3020  204.1780  149.8470 C   0  0  2  0  0  3  0  0  0  0  0  0
  161.4130  203.4690  145.6050 C   0  0  2  0  0  3  0  0  0  0  0  0
  161.6750  205.2410  148.9460 N   0  0  0  0  0  0  0  0  0  0  0  0
  160.5830  202.1310  151.6510 C   0  0  0  0  0  3  0  0  0  0  0  0
  162.3720  209.0930  149.0140 C   0  0  0  0  0  2  0  0  0  0  0  0
  160.6130  201.8230  150.2500 N   0  0  0  0  0  0  0  0  0  0  0  0
  162.4110  207.6520  148.4920 C   0  0  0  0  0  2  0  0  0  0  0  0
  162.2610  207.9200  151.5840 C   0  0  2  0  0  3  0  0  0  0  0  0
  160.8830  203.3280  152.0720 N   0  0  0  0  0  0  0  0  0  0  0  0
  161.5820  205.6890  151.6640 N   0  0  0  0  0  0  0  0  0  0  0  0
  161.6860  210.2620  151.9950 N   0  0  0  0  0  2  0  0  0  0  0  0
  160.6340  211.1160  151.9720 O   0  0  0  0  0  0  0  0  0  0  0  0
  159.6600  212.3310  154.8740 C   0  0  0  0  0  2  0  0  0  0  0  0
  158.5830  211.5590  153.0850 C   0  0  0  0  0  2  0  0  0  0  0  0
  159.8810  210.7820  153.0980 C   0  0  2  0  0  3  0  0  0  0  0  0
  158.3750  212.1040  154.3610 O   0  0  0  0  0  0  0  0  0  0  0  0
  160.5780  211.2620  154.3350 C   0  0  0  0  0  2  0  0  0  0  0  0
  1 27  1  0  0  0  0
  1 26  2  0  0  0  0
  2 14  1  0  0  0  0
  3 16  1  6  0  0  0
  3 19  1  0  0  0  0
  4 23  1  0  0  0  0
  5 11  2  0  0  0  0
  5 15  1  0  0  0  0
  7  6  1  0  0  0  0
  7  3  1  0  0  0  0
  8 12  1  0  0  0  0
  9 25  1  0  0  0  0
  9 27  1  0  0  0  0
 10 17  1  0  0  0  0
 11 20  1  0  0  0  0
 12 15  1  0  0  0  0
 13  9  2  0  0  0  0
 15  4  2  0  0  0  0
 16  8  1  0  0  0  0
 17 25  1  0  0  0  0
 17 28  1  1  0  0  0
 18  4  1  1  0  0  0
 18  1  1  0  0  0  0
 19  6  1  6  0  0  0
 19  5  1  0  0  0  0
 20 13  1  0  0  0  0
 20 18  1  0  0  0  0
 21 26  1  0  0  0  0
 22 10  1  0  0  0  0
 23 21  2  0  0  0  0
 24 22  1  0  0  0  0
 24 13  1  0  0  0  0
 25 14  1  1  0  0  0
 27  2  1  0  0  0  0
 29 28  1  0  0  0  0
 31 32  1  0  0  0  0
 31 33  1  0  0  0  0
 32 29  1  6  0  0  0
 32 34  1  0  0  0  0
 33 30  1  0  0  0  0
 34 30  1  0  0  0  0
M  END
>  <MODEL>
4

>  <REMARK>
 VINA RESULT:      -7.8      1.871      2.331
  Name = 
  3 active torsions:
  status: ('A' for Active; 'I' for Inactive)
    1  A    between atoms: C_17  and  N_28
    2  A    between atoms: N_28  and  O_29
    3  A    between atoms: O_29  and  C_32
                            x       y       z     vdW  Elec       q    Type
                         _______ _______ _______ _____ _____    ______ ____

>  <TORSDO>
F 3

$$$$
=
 OpenBabel11122414163D

 34 41  0  0  1  0  0  0  0  0999 V2000
  161.8890  208.6330  149.6230 C   0  0  0  0  0  0  0  0  0  0  0  0
  162.1620  207.3690  147.5280 O   0  0  0  0  0  0  0  0  0  0  0  0
  159.9010  209.1710  155.4520 C   0  0  1  0  0  3  0  0  0  0  0  0
  161.5960  209.7780  151.7420 C   0  0  0  0  0  0  0  0  0  0  0  0
  161.3000  208.3580  153.7280 C   0  0  0  0  0  0  0  0  0  0  0  0
  160.2290  207.2580  155.8490 C   0  0  0  0  0  2  0  0  0  0  0  0
  159.2650  208.2100  156.2440 O   0  0  0  0  0  0  0  0  0  0  0  0
  161.4640  211.1120  155.2830 C   0  0  0  0  0  2  0  0  0  0  0  0
  161.9310  206.1640  149.4970 C   0  0  0  0  0  0  0  0  0  0  0  0
  160.2850  203.7180  149.6520 C   0  0  0  0  0  2  0  0  0  0  0  0
  161.4150  207.2250  153.0200 C   0  0  0  0  0  3  0  0  0  0  0  0
  161.3130  210.9430  153.8260 N   0  0  0  0  0  2  0  0  0  0  0  0
  161.7380  206.0410  150.8260 C   0  0  0  0  0  0  0  0  0  0  0  0
  162.3290  205.9850  147.2350 C   0  0  0  0  0  2  0  0  0  0  0  0
  161.4280  209.7100  153.0710 C   0  0  0  0  0  0  0  0  0  0  0  0
  160.3260  210.4680  156.1070 C   0  0  0  0  0  2  0  0  0  0  0  0
  160.8310  204.2710  148.3280 C   0  0  1  0  0  3  0  0  0  0  0  0
  161.7070  208.5460  150.9500 C   0  0  2  0  0  3  0  0  0  0  0  0
  161.0960  208.3130  155.2020 C   0  0  2  0  0  3  0  0  0  0  0  0
  161.6240  207.2590  151.5990 N   0  0  0  0  0  0  0  0  0  0  0  0
  161.8810  211.0350  149.6330 C   0  0  0  0  0  3  0  0  0  0  0  0
  161.3950  203.4640  150.6670 C   0  0  0  0  0  2  0  0  0  0  0  0
  161.6900  211.0300  151.0550 N   0  0  0  0  0  0  0  0  0  0  0  0
  161.6610  204.6990  151.5350 C   0  0  0  0  0  2  0  0  0  0  0  0
  162.1010  205.1220  148.4880 C   0  0  2  0  0  3  0  0  0  0  0  0
  161.9720  209.9150  148.9730 N   0  0  0  0  0  0  0  0  0  0  0  0
  161.9960  207.4210  148.8720 N   0  0  0  0  0  0  0  0  0  0  0  0
  161.0900  203.1660  147.4190 N   0  0  0  0  0  2  0  0  0  0  0  0
  161.4350  202.1010  148.1820 O   0  0  0  0  0  0  0  0  0  0  0  0
  160.8230  200.5240  145.3560 C   0  0  0  0  0  2  0  0  0  0  0  0
  161.6230  199.8890  147.3340 C   0  0  0  0  0  2  0  0  0  0  0  0
  160.6950  201.0370  147.6630 C   0  0  2  0  0  3  0  0  0  0  0  0
  161.3050  199.4090  146.0540 O   0  0  0  0  0  0  0  0  0  0  0  0
  160.1130  201.4250  146.3370 C   0  0  0  0  0  2  0  0  0  0  0  0
  2 27  1  0  0  0  0
  3 16  1  1  0  0  0
  3  7  1  0  0  0  0
  4 15  2  0  0  0  0
  5 19  1  0  0  0  0
  6  7  1  0  0  0  0
  8 16  1  0  0  0  0
  9 13  2  0  0  0  0
 10 22  1  0  0  0  0
 11  5  2  0  0  0  0
 12  8  1  0  0  0  0
 13 24  1  0  0  0  0
 13 20  1  0  0  0  0
 14  2  1  0  0  0  0
 15  5  1  0  0  0  0
 15 12  1  0  0  0  0
 17 28  1  6  0  0  0
 17 25  1  0  0  0  0
 17 10  1  0  0  0  0
 18  1  1  1  0  0  0
 18 20  1  0  0  0  0
 18  4  1  0  0  0  0
 19  3  1  0  0  0  0
 19  6  1  6  0  0  0
 20 11  1  0  0  0  0
 21 23  2  0  0  0  0
 22 24  1  0  0  0  0
 23  4  1  0  0  0  0
 25 14  1  6  0  0  0
 25  9  1  0  0  0  0
 26  1  2  0  0  0  0
 26 21  1  0  0  0  0
 27  9  1  0  0  0  0
 27  1  1  0  0  0  0
 28 29  1  0  0  0  0
 30 33  1  0  0  0  0
 30 34  1  0  0  0  0
 31 32  1  0  0  0  0
 32 29  1  6  0  0  0
 33 31  1  0  0  0  0
 34 32  1  0  0  0  0
M  END
>  <MODEL>
5

>  <REMARK>
 VINA RESULT:      -7.3      2.229      9.111
  Name = 
  3 active torsions:
  status: ('A' for Active; 'I' for Inactive)
    1  A    between atoms: C_17  and  N_28
    2  A    between atoms: N_28  and  O_29
    3  A    between atoms: O_29  and  C_32
                            x       y       z     vdW  Elec       q    Type
                         _______ _______ _______ _____ _____    ______ ____

>  <TORSDO>
F 3

$$$$
=
 OpenBabel11122414163D

 34 41  0  0  1  0  0  0  0  0999 V2000
  161.8610  207.9480  149.6380 C   0  0  0  0  0  0  0  0  0  0  0  0
  162.1760  206.4450  147.7130 O   0  0  0  0  0  0  0  0  0  0  0  0
  159.7590  209.1670  155.3220 C   0  0  1  0  0  3  0  0  0  0  0  0
  161.5260  209.3350  151.6000 C   0  0  0  0  0  0  0  0  0  0  0  0
  161.1920  208.1600  153.7340 C   0  0  0  0  0  0  0  0  0  0  0  0
  160.0810  207.3160  155.9500 C   0  0  0  0  0  2  0  0  0  0  0  0
  159.1080  208.3050  156.2100 O   0  0  0  0  0  0  0  0  0  0  0  0
  161.3240  211.0780  154.9550 C   0  0  0  0  0  2  0  0  0  0  0  0
  161.9070  205.4810  149.8060 C   0  0  0  0  0  0  0  0  0  0  0  0
  160.2590  203.0660  150.2180 C   0  0  0  0  0  2  0  0  0  0  0  0
  161.3220  206.9510  153.1680 C   0  0  0  0  0  3  0  0  0  0  0  0
  161.2020  210.7380  153.5260 N   0  0  0  0  0  2  0  0  0  0  0  0
  161.6880  205.5160  151.1360 C   0  0  0  0  0  0  0  0  0  0  0  0
  162.3490  205.0370  147.5890 C   0  0  0  0  0  2  0  0  0  0  0  0
  161.3320  209.4240  152.9250 C   0  0  0  0  0  0  0  0  0  0  0  0
  160.1710  210.5340  155.8280 C   0  0  0  0  0  2  0  0  0  0  0  0
  160.8310  203.4600  148.8490 C   0  0  1  0  0  3  0  0  0  0  0  0
  161.6540  208.0180  150.9620 C   0  0  0  0  0  0  0  0  0  0  0  0
  160.9590  208.2890  155.1990 C   0  0  2  0  0  3  0  0  0  0  0  0
  161.5590  206.8170  151.7570 N   0  0  0  0  0  0  0  0  0  0  0  0
  161.8510  210.3340  149.3640 C   0  0  0  0  0  3  0  0  0  0  0  0
  161.3490  202.9380  151.2770 C   0  0  0  0  0  2  0  0  0  0  0  0
  161.6320  210.4970  150.7720 N   0  0  0  0  0  2  0  0  0  0  0  0
  161.5990  204.2680  151.9980 C   0  0  0  0  0  2  0  0  0  0  0  0
  162.0970  204.3270  148.9310 C   0  0  2  0  0  3  0  0  0  0  0  0
  161.9560  209.1440  148.8430 N   0  0  0  0  0  0  0  0  0  0  0  0
  161.9840  206.6550  149.0390 N   0  0  0  0  0  0  0  0  0  0  0  0
  161.1090  202.2560  148.0830 N   0  0  0  0  0  2  0  0  0  0  0  0
  160.0660  202.0780  147.2370 O   0  0  0  0  0  0  0  0  0  0  0  0
  159.3570  202.9340  144.1360 C   0  0  0  0  0  2  0  0  0  0  0  0
  160.9170  203.5680  145.5930 C   0  0  0  0  0  2  0  0  0  0  0  0
  160.6310  202.1290  145.9610 C   0  0  2  0  0  3  0  0  0  0  0  0
  160.4510  203.7970  144.2890 O   0  0  0  0  0  0  0  0  0  0  0  0
  159.6230  201.6870  144.9420 C   0  0  0  0  0  2  0  0  0  0  0  0
  1 18  2  0  0  0  0
  2 27  1  0  0  0  0
  3 16  1  1  0  0  0
  3  7  1  0  0  0  0
  4 15  2  0  0  0  0
  5 19  1  0  0  0  0
  6  7  1  0  0  0  0
  8 16  1  0  0  0  0
  9 13  2  0  0  0  0
 10 22  1  0  0  0  0
 11  5  2  0  0  0  0
 12  8  1  0  0  0  0
 13 20  1  0  0  0  0
 13 24  1  0  0  0  0
 14  2  1  0  0  0  0
 15 12  1  0  0  0  0
 15  5  1  0  0  0  0
 17 28  1  6  0  0  0
 17 25  1  0  0  0  0
 17 10  1  0  0  0  0
 18  4  1  0  0  0  0
 18 20  1  0  0  0  0
 19  3  1  0  0  0  0
 19  6  1  6  0  0  0
 20 11  1  0  0  0  0
 21 23  1  0  0  0  0
 22 24  1  0  0  0  0
 23  4  1  0  0  0  0
 25 14  1  6  0  0  0
 25  9  1  0  0  0  0
 26 21  2  0  0  0  0
 26  1  1  0  0  0  0
 27  1  1  0  0  0  0
 27  9  1  0  0  0  0
 29 28  1  0  0  0  0
 30 33  1  0  0  0  0
 30 34  1  0  0  0  0
 31 32  1  0  0  0  0
 32 29  1  1  0  0  0
 33 31  1  0  0  0  0
 34 32  1  0  0  0  0
M  END
>  <MODEL>
6

>  <REMARK>
 VINA RESULT:      -7.2      1.762      9.022
  Name = 
  3 active torsions:
  status: ('A' for Active; 'I' for Inactive)
    1  A    between atoms: C_17  and  N_28
    2  A    between atoms: N_28  and  O_29
    3  A    between atoms: O_29  and  C_32
                            x       y       z     vdW  Elec       q    Type
                         _______ _______ _______ _____ _____    ______ ____

>  <TORSDO>
F 3

$$$$
=
 OpenBabel11122414163D

 34 41  0  0  1  0  0  0  0  0999 V2000
  161.1790  211.1200  150.1340 C   0  0  0  0  0  0  0  0  0  0  0  0
  162.2040  209.6410  148.4530 O   0  0  0  0  0  0  0  0  0  0  0  0
  157.6850  212.0960  155.1390 C   0  0  1  0  0  3  0  0  0  0  0  0
  160.1510  212.4830  151.8570 C   0  0  0  0  0  0  0  0  0  0  0  0
  159.6030  211.3550  153.9720 C   0  0  0  0  0  0  0  0  0  0  0  0
  158.2280  210.3850  155.9780 C   0  0  0  0  0  2  0  0  0  0  0  0
  157.0430  211.1510  155.9460 O   0  0  0  0  0  0  0  0  0  0  0  0
  158.8730  214.2820  154.9340 C   0  0  0  0  0  2  0  0  0  0  0  0
  161.6840  208.7310  150.5220 C   0  0  0  0  0  0  0  0  0  0  0  0
  160.5090  206.0370  150.7980 C   0  0  0  0  0  2  0  0  0  0  0  0
  160.0940  210.1800  153.5520 C   0  0  0  0  0  3  0  0  0  0  0  0
  159.1370  213.8640  153.5450 N   0  0  0  0  0  2  0  0  0  0  0  0
  161.1780  208.7740  151.7720 C   0  0  0  0  0  0  0  0  0  0  0  0
  162.6810  208.2990  148.4910 C   0  0  0  0  0  2  0  0  0  0  0  0
  159.6580  212.5850  153.1010 C   0  0  0  0  0  0  0  0  0  0  0  0
  157.6910  213.5390  155.5960 C   0  0  0  0  0  2  0  0  0  0  0  0
  161.2740  206.4860  149.5460 C   0  0  1  0  0  3  0  0  0  0  0  0
  160.6780  211.1990  151.3760 C   0  0  0  0  0  0  0  0  0  0  0  0
  159.0340  211.4920  155.3410 C   0  0  2  0  0  3  0  0  0  0  0  0
  160.6560  210.0410  152.2370 N   0  0  0  0  0  0  0  0  0  0  0  0
  160.7490  213.4340  149.6550 C   0  0  0  0  0  3  0  0  0  0  0  0
  161.3440  206.1910  152.0650 C   0  0  0  0  0  2  0  0  0  0  0  0
  160.1990  213.6060  150.9690 N   0  0  0  0  0  2  0  0  0  0  0  0
  161.1560  207.5730  152.7020 C   0  0  0  0  0  2  0  0  0  0  0  0
  162.2900  207.6090  149.8090 C   0  0  2  0  0  3  0  0  0  0  0  0
  161.2030  212.2740  149.2730 N   0  0  0  0  0  0  0  0  0  0  0  0
  161.6880  209.8600  149.6870 N   0  0  0  0  0  0  0  0  0  0  0  0
  161.9500  205.3390  148.9610 N   0  0  0  0  0  2  0  0  0  0  0  0
  161.1280  204.8450  148.0040 O   0  0  0  0  0  0  0  0  0  0  0  0
  160.8880  204.3890  144.7500 C   0  0  0  0  0  2  0  0  0  0  0  0
  160.7510  206.1750  146.0720 C   0  0  0  0  0  2  0  0  0  0  0  0
  161.7030  205.2510  146.7980 C   0  0  2  0  0  3  0  0  0  0  0  0
  160.6750  205.7740  144.7290 O   0  0  0  0  0  0  0  0  0  0  0  0
  161.8390  204.0750  145.8790 C   0  0  0  0  0  2  0  0  0  0  0  0
  1 18  2  0  0  0  0
  2 14  1  0  0  0  0
  2 27  1  0  0  0  0
  3 19  1  0  0  0  0
  3 16  1  1  0  0  0
  3  7  1  0  0  0  0
  4 15  2  0  0  0  0
  5 19  1  0  0  0  0
  7  6  1  0  0  0  0
  8 16  1  0  0  0  0
  9 13  2  0  0  0  0
 10 22  1  0  0  0  0
 11  5  2  0  0  0  0
 12  8  1  0  0  0  0
 13 20  1  0  0  0  0
 13 24  1  0  0  0  0
 15 12  1  0  0  0  0
 15  5  1  0  0  0  0
 17 28  1  1  0  0  0
 17 25  1  0  0  0  0
 17 10  1  0  0  0  0
 18  4  1  0  0  0  0
 18 20  1  0  0  0  0
 19  6  1  6  0  0  0
 20 11  1  0  0  0  0
 21 23  1  0  0  0  0
 22 24  1  0  0  0  0
 23  4  1  0  0  0  0
 25 14  1  6  0  0  0
 25  9  1  0  0  0  0
 26 21  2  0  0  0  0
 26  1  1  0  0  0  0
 27  1  1  0  0  0  0
 27  9  1  0  0  0  0
 29 28  1  0  0  0  0
 30 34  1  0  0  0  0
 31 32  1  0  0  0  0
 32 29  1  1  0  0  0
 33 30  1  0  0  0  0
 33 31  1  0  0  0  0
 34 32  1  0  0  0  0
M  END
>  <MODEL>
7

>  <REMARK>
 VINA RESULT:      -7.1      2.763      9.404
  Name = 
  3 active torsions:
  status: ('A' for Active; 'I' for Inactive)
    1  A    between atoms: C_17  and  N_28
    2  A    between atoms: N_28  and  O_29
    3  A    between atoms: O_29  and  C_32
                            x       y       z     vdW  Elec       q    Type
                         _______ _______ _______ _____ _____    ______ ____

>  <TORSDO>
F 3

$$$$
=
 OpenBabel11122414163D

 34 41  0  0  1  0  0  0  0  0999 V2000
  161.1980  210.9730  150.1460 C   0  0  0  0  0  0  0  0  0  0  0  0
  162.2130  209.4260  148.5200 O   0  0  0  0  0  0  0  0  0  0  0  0
  157.7180  212.1550  155.1160 C   0  0  1  0  0  3  0  0  0  0  0  0
  160.1800  212.4060  151.8180 C   0  0  0  0  0  0  0  0  0  0  0  0
  159.6300  211.3610  153.9750 C   0  0  0  0  0  0  0  0  0  0  0  0
  158.2540  210.4750  156.0180 C   0  0  0  0  0  2  0  0  0  0  0  0
  157.0730  211.2450  155.9600 O   0  0  0  0  0  0  0  0  0  0  0  0
  158.9170  214.3260  154.8260 C   0  0  0  0  0  2  0  0  0  0  0  0
  161.6920  208.5980  150.6240 C   0  0  0  0  0  0  0  0  0  0  0  0
  160.5040  205.9220  151.0030 C   0  0  0  0  0  2  0  0  0  0  0  0
  160.1150  210.1680  153.5990 C   0  0  0  0  0  3  0  0  0  0  0  0
  159.1770  213.8540  153.4540 N   0  0  0  0  0  2  0  0  0  0  0  0
  161.1880  208.6900  151.8710 C   0  0  0  0  0  0  0  0  0  0  0  0
  162.6830  208.0840  148.6090 C   0  0  0  0  0  2  0  0  0  0  0  0
  159.6900  212.5570  153.0580 C   0  0  0  0  0  0  0  0  0  0  0  0
  157.7330  213.6140  155.5180 C   0  0  0  0  0  2  0  0  0  0  0  0
  161.2690  206.3200  149.7340 C   0  0  1  0  0  3  0  0  0  0  0  0
  160.7000  211.1020  151.3850 C   0  0  0  0  0  0  0  0  0  0  0  0
  159.0650  211.5530  155.3380 C   0  0  2  0  0  3  0  0  0  0  0  0
  160.6730  209.9770  152.2890 N   0  0  0  0  0  0  0  0  0  0  0  0
  160.7780  213.2690  149.5810 C   0  0  0  0  0  3  0  0  0  0  0  0
  161.3420  206.1200  152.2620 C   0  0  0  0  0  2  0  0  0  0  0  0
  160.2320  213.4930  150.8880 N   0  0  0  0  0  2  0  0  0  0  0  0
  161.1620  207.5260  152.8470 C   0  0  0  0  0  2  0  0  0  0  0  0
  162.2910  207.4470  149.9530 C   0  0  2  0  0  3  0  0  0  0  0  0
  161.2260  212.0930  149.2420 N   0  0  0  0  0  0  0  0  0  0  0  0
  161.7000  209.6950  149.7470 N   0  0  0  0  0  0  0  0  0  0  0  0
  161.9380  205.1480  149.1920 N   0  0  0  0  0  2  0  0  0  0  0  0
  161.0070  204.4480  148.4990 O   0  0  0  0  0  0  0  0  0  0  0  0
  160.6330  201.9350  146.4040 C   0  0  0  0  0  2  0  0  0  0  0  0
  161.5400  203.9610  146.2360 C   0  0  0  0  0  2  0  0  0  0  0  0
  161.7440  203.5850  147.6870 C   0  0  2  0  0  3  0  0  0  0  0  0
  161.2790  202.7930  145.5030 O   0  0  0  0  0  0  0  0  0  0  0  0
  161.1850  202.1970  147.7840 C   0  0  0  0  0  2  0  0  0  0  0  0
  1 18  2  0  0  0  0
  2 14  1  0  0  0  0
  2 27  1  0  0  0  0
  3 19  1  0  0  0  0
  3 16  1  1  0  0  0
  3  7  1  0  0  0  0
  4 15  2  0  0  0  0
  5 19  1  0  0  0  0
  7  6  1  0  0  0  0
  8 16  1  0  0  0  0
  9 13  2  0  0  0  0
 10 22  1  0  0  0  0
 11  5  2  0  0  0  0
 12  8  1  0  0  0  0
 13 20  1  0  0  0  0
 13 24  1  0  0  0  0
 15 12  1  0  0  0  0
 15  5  1  0  0  0  0
 17 28  1  1  0  0  0
 17 25  1  0  0  0  0
 17 10  1  0  0  0  0
 18  4  1  0  0  0  0
 18 20  1  0  0  0  0
 19  6  1  6  0  0  0
 20 11  1  0  0  0  0
 21 23  1  0  0  0  0
 22 24  1  0  0  0  0
 23  4  1  0  0  0  0
 25 14  1  6  0  0  0
 25  9  1  0  0  0  0
 26 21  2  0  0  0  0
 26  1  1  0  0  0  0
 27  1  1  0  0  0  0
 27  9  1  0  0  0  0
 29 28  1  0  0  0  0
 30 34  1  0  0  0  0
 31 32  1  0  0  0  0
 32 34  1  0  0  0  0
 32 29  1  1  0  0  0
 33 31  1  0  0  0  0
 33 30  1  0  0  0  0
M  END
>  <MODEL>
8

>  <REMARK>
 VINA RESULT:      -7.0      2.836      9.395
  Name = 
  3 active torsions:
  status: ('A' for Active; 'I' for Inactive)
    1  A    between atoms: C_17  and  N_28
    2  A    between atoms: N_28  and  O_29
    3  A    between atoms: O_29  and  C_32
                            x       y       z     vdW  Elec       q    Type
                         _______ _______ _______ _____ _____    ______ ____

>  <TORSDO>
F 3

$$$$
=
 OpenBabel11122414163D

 34 41  0  0  1  0  0  0  0  0999 V2000
  161.5120  208.6760  150.7690 C   0  0  0  0  0  0  0  0  0  0  0  0
  161.5260  210.7470  152.1010 O   0  0  0  0  0  0  0  0  0  0  0  0
  161.8200  202.5240  150.2430 C   0  0  1  0  0  3  0  0  0  0  0  0
  161.4760  206.5750  149.5560 C   0  0  0  0  0  0  0  0  0  0  0  0
  160.8100  204.5800  150.8290 C   0  0  0  0  0  0  0  0  0  0  0  0
  160.9020  202.2270  151.9740 C   0  0  0  0  0  2  0  0  0  0  0  0
  161.9280  201.5710  151.2610 O   0  0  0  0  0  0  0  0  0  0  0  0
  160.9370  203.1670  147.9980 C   0  0  0  0  0  2  0  0  0  0  0  0
  160.8610  208.7890  153.1520 C   0  0  0  0  0  0  0  0  0  0  0  0
  161.6930  208.1310  155.9070 C   0  0  0  0  0  2  0  0  0  0  0  0
  160.6090  205.2810  151.9550 C   0  0  0  0  0  3  0  0  0  0  0  0
  161.4480  204.5110  148.3220 N   0  0  0  0  0  2  0  0  0  0  0  0
  160.6270  207.4620  153.2050 C   0  0  0  0  0  0  0  0  0  0  0  0
  161.0930  211.0650  153.4200 C   0  0  0  0  0  2  0  0  0  0  0  0
  161.2340  205.2560  149.5490 C   0  0  0  0  0  0  0  0  0  0  0  0
  161.5810  202.0360  148.8310 C   0  0  0  0  0  2  0  0  0  0  0  0
  161.7120  209.5610  155.3520 C   0  0  1  0  0  3  0  0  0  0  0  0
  161.2770  207.3540  150.7850 C   0  0  0  0  0  0  0  0  0  0  0  0
  160.5650  203.1120  150.7970 C   0  0  2  0  0  3  0  0  0  0  0  0
  160.8310  206.7000  151.9910 N   0  0  0  0  0  0  0  0  0  0  0  0
  162.1460  208.6830  148.4520 C   0  0  0  0  0  3  0  0  0  0  0  0
  160.3130  207.4900  155.7900 C   0  0  0  0  0  2  0  0  0  0  0  0
  161.9150  207.2690  148.3830 N   0  0  0  0  0  2  0  0  0  0  0  0
  160.1430  206.7520  154.4570 C   0  0  0  0  0  2  0  0  0  0  0  0
  160.7190  209.7940  154.2020 C   0  0  2  0  0  3  0  0  0  0  0  0
  161.9570  209.3310  149.5670 N   0  0  0  0  0  0  0  0  0  0  0  0
  161.3090  209.4150  151.9770 N   0  0  0  0  0  0  0  0  0  0  0  0
  161.4430  210.4970  156.4320 N   0  0  0  0  0  2  0  0  0  0  0  0
  160.1220  210.3980  156.7180 O   0  0  0  0  0  0  0  0  0  0  0  0
  159.3130  213.4660  155.8310 C   0  0  0  0  0  2  0  0  0  0  0  0
  158.3080  211.8960  157.0490 C   0  0  0  0  0  2  0  0  0  0  0  0
  159.7830  211.6390  157.2610 C   0  0  2  0  0  3  0  0  0  0  0  0
  158.1470  213.2030  156.5620 O   0  0  0  0  0  0  0  0  0  0  0  0
  160.4570  212.7320  156.4870 C   0  0  0  0  0  2  0  0  0  0  0  0
  1 18  2  0  0  0  0
  1 27  1  0  0  0  0
  2 14  1  0  0  0  0
  3 16  1  6  0  0  0
  3 19  1  0  0  0  0
  3  7  1  0  0  0  0
  4 18  1  0  0  0  0
  5 11  2  0  0  0  0
  7  6  1  0  0  0  0
  8 12  1  0  0  0  0
  8 16  1  0  0  0  0
  9 13  2  0  0  0  0
  9 25  1  0  0  0  0
 11 20  1  0  0  0  0
 12 15  1  0  0  0  0
 13 24  1  0  0  0  0
 15  4  2  0  0  0  0
 15  5  1  0  0  0  0
 17 10  1  0  0  0  0
 17 28  1  1  0  0  0
 18 20  1  0  0  0  0
 19  5  1  0  0  0  0
 19  6  1  1  0  0  0
 20 13  1  0  0  0  0
 21 26  2  0  0  0  0
 22 10  1  0  0  0  0
 23 21  1  0  0  0  0
 23  4  1  0  0  0  0
 24 22  1  0  0  0  0
 25 14  1  6  0  0  0
 25 17  1  0  0  0  0
 26  1  1  0  0  0  0
 27  2  1  0  0  0  0
 27  9  1  0  0  0  0
 28 29  1  0  0  0  0
 30 34  1  0  0  0  0
 30 33  1  0  0  0  0
 31 32  1  0  0  0  0
 32 29  1  6  0  0  0
 33 31  1  0  0  0  0
 34 32  1  0  0  0  0
M  END
>  <MODEL>
9

>  <REMARK>
 VINA RESULT:      -6.8      2.482      4.351
  Name = 
  3 active torsions:
  status: ('A' for Active; 'I' for Inactive)
    1  A    between atoms: C_17  and  N_28
    2  A    between atoms: N_28  and  O_29
    3  A    between atoms: O_29  and  C_32
                            x       y       z     vdW  Elec       q    Type
                         _______ _______ _______ _____ _____    ______ ____

>  <TORSDO>
F 3

$$$$
