=
 OpenBabel11122414113D

 28 32  0  0  1  0  0  0  0  0999 V2000
  160.6250  207.9050  155.0500 C   0  0  0  0  0  0  0  0  0  0  0  0
  158.5000  210.6810  154.3910 O   0  0  0  0  0  0  0  0  0  0  0  0
  161.2870  208.0810  148.9430 C   0  0  0  0  0  1  0  0  0  0  0  0
  162.1810  209.2530  156.9460 C   0  0  0  0  0  3  0  0  0  0  0  0
  162.0290  210.1220  150.1520 C   0  0  0  0  0  0  0  0  0  0  0  0
  159.9440  207.1590  154.0400 N   0  0  0  0  0  2  0  0  0  0  0  0
  159.6760  212.6820  155.1830 O   0  0  0  0  0  0  0  0  0  0  0  0
  159.4150  211.8070  153.9910 S   0  0  0  0  0  0  0  0  0  0  0  0
  159.0370  212.4830  151.4290 C   0  0  0  0  0  0  0  0  0  0  0  0
  160.9420  211.1930  153.4040 N   0  0  2  0  0  0  0  0  0  0  0  0
  162.8980  206.1670  153.6780 O   0  0  0  0  0  0  0  0  0  0  0  0
  162.1050  209.3510  152.4000 C   0  0  2  0  0  3  0  0  0  0  0  0
  160.1530  211.6970  151.1690 O   0  0  0  0  0  0  0  0  0  0  0  0
  158.6530  212.7420  152.7660 N   0  0  0  0  0  2  0  0  0  0  0  0
  161.9340  206.3280  152.9470 C   0  0  0  0  0  0  0  0  0  0  0  0
  161.1890  209.1490  154.7300 C   0  0  0  0  0  0  0  0  0  0  0  0
  161.6400  208.8630  150.1660 C   0  0  0  0  0  0  0  0  0  0  0  0
  158.3400  212.9230  150.4780 O   0  0  0  0  0  0  0  0  0  0  0  0
  162.1390  206.9050  151.5840 C   0  0  0  0  0  2  0  0  0  0  0  0
  161.9770  209.8140  155.6840 C   0  0  0  0  0  3  0  0  0  0  0  0
  160.8470  207.3380  156.3110 C   0  0  0  0  0  3  0  0  0  0  0  0
  161.6140  208.0170  157.2610 C   0  0  0  0  0  3  0  0  0  0  0  0
  160.5630  205.9840  153.4450 C   0  0  0  0  0  2  0  0  0  0  0  0
  162.3140  210.6050  151.5370 C   0  0  2  0  0  3  0  0  0  0  0  0
  161.6870  208.2940  151.4690 N   0  0  0  0  0  0  0  0  0  0  0  0
  161.2870  211.6310  152.0470 C   0  0  2  0  0  3  0  0  0  0  0  0
  162.1620  210.9640  148.9270 C   0  0  0  0  0  1  0  0  0  0  0  0
  160.9750  209.7340  153.3570 C   0  0  1  0  0  3  0  0  0  0  0  0
  1 21  1  0  0  0  0
  3 17  1  0  0  0  0
  4 22  1  0  0  0  0
  5 17  2  0  0  0  0
  6  1  1  0  0  0  0
  8  2  2  0  0  0  0
  8  7  2  0  0  0  0
  9 14  1  0  0  0  0
 10  8  1  6  0  0  0
 12 25  1  6  0  0  0
 12 28  1  0  0  0  0
 13  9  1  0  0  0  0
 14  8  1  0  0  0  0
 15 23  1  0  0  0  0
 15 11  2  0  0  0  0
 16  1  2  0  0  0  0
 16 20  1  0  0  0  0
 17 25  1  0  0  0  0
 18  9  2  0  0  0  0
 19 15  1  0  0  0  0
 20  4  2  0  0  0  0
 21 22  2  0  0  0  0
 23  6  1  0  0  0  0
 24  5  1  6  0  0  0
 24 26  1  0  0  0  0
 24 12  1  0  0  0  0
 25 19  1  0  0  0  0
 26 13  1  6  0  0  0
 26 10  1  0  0  0  0
 27  5  1  0  0  0  0
 28 10  1  0  0  0  0
 28 16  1  1  0  0  0
M  END
>  <MODEL>
1

>  <REMARK>
 VINA RESULT:      -2.7      0.000      0.000
  Name = 
  0 active torsions:
  status: ('A' for Active; 'I' for Inactive)
                            x       y       z     vdW  Elec       q    Type
                         _______ _______ _______ _____ _____    ______ ____

>  <TORSDO>
F 0

$$$$
=
 OpenBabel11122414113D

 28 32  0  0  1  0  0  0  0  0999 V2000
  161.0210  212.1960  148.1420 C   0  0  0  0  0  0  0  0  0  0  0  0
  161.0240  208.6550  147.8000 O   0  0  0  0  0  0  0  0  0  0  0  0
  158.6170  210.7880  153.6200 C   0  0  0  0  0  1  0  0  0  0  0  0
  163.7360  212.4860  147.5260 C   0  0  0  0  0  3  0  0  0  0  0  0
  160.9000  209.9000  153.2010 C   0  0  0  0  0  0  0  0  0  0  0  0
  159.6530  212.1430  148.5470 N   0  0  0  0  0  2  0  0  0  0  0  0
  163.3590  207.9240  147.9600 O   0  0  0  0  0  0  0  0  0  0  0  0
  162.0930  208.1570  148.7340 S   0  0  0  0  0  0  0  0  0  0  0  0
  161.0290  206.7290  150.7330 C   0  0  0  0  0  0  0  0  0  0  0  0
  162.4140  209.3230  149.9940 N   0  0  2  0  0  0  0  0  0  0  0  0
  160.7640  214.4520  150.3580 O   0  0  0  0  0  0  0  0  0  0  0  0
  161.5640  211.1520  151.2920 C   0  0  2  0  0  3  0  0  0  0  0  0
  161.1420  207.8950  151.4810 O   0  0  0  0  0  0  0  0  0  0  0  0
  161.5820  206.6710  149.4320 N   0  0  0  0  0  2  0  0  0  0  0  0
  159.8960  213.6010  150.4620 C   0  0  0  0  0  0  0  0  0  0  0  0
  161.9770  211.4330  148.8310 C   0  0  0  0  0  0  0  0  0  0  0  0
  159.9010  210.6880  152.8610 C   0  0  0  0  0  0  0  0  0  0  0  0
  160.3930  205.7450  151.1910 O   0  0  0  0  0  0  0  0  0  0  0  0
  159.7200  212.8920  151.7650 C   0  0  0  0  0  2  0  0  0  0  0  0
  163.3380  211.5920  148.5220 C   0  0  0  0  0  3  0  0  0  0  0  0
  161.4270  213.1030  147.1560 C   0  0  0  0  0  3  0  0  0  0  0  0
  162.7810  213.2400  146.8410 C   0  0  0  0  0  3  0  0  0  0  0  0
  159.0540  213.2560  149.2710 C   0  0  0  0  0  2  0  0  0  0  0  0
  162.0380  210.0430  152.2420 C   0  0  2  0  0  3  0  0  0  0  0  0
  160.2140  211.5130  151.7450 N   0  0  0  0  0  0  0  0  0  0  0  0
  162.2470  208.8030  151.3560 C   0  0  2  0  0  3  0  0  0  0  0  0
  160.9040  208.9780  154.3740 C   0  0  0  0  0  1  0  0  0  0  0  0
  161.5340  210.4850  149.9170 C   0  0  1  0  0  3  0  0  0  0  0  0
  1  6  1  0  0  0  0
  1 16  1  0  0  0  0
  2  8  2  0  0  0  0
  4 20  1  0  0  0  0
  5 27  1  0  0  0  0
  6 23  1  0  0  0  0
  7  8  2  0  0  0  0
  8 14  1  0  0  0  0
  9 18  2  0  0  0  0
  9 13  1  0  0  0  0
 10  8  1  6  0  0  0
 10 26  1  0  0  0  0
 11 15  2  0  0  0  0
 12 25  1  1  0  0  0
 12 24  1  0  0  0  0
 14  9  1  0  0  0  0
 15 19  1  0  0  0  0
 17  5  2  0  0  0  0
 17  3  1  0  0  0  0
 20 16  2  0  0  0  0
 21  1  2  0  0  0  0
 22 21  1  0  0  0  0
 22  4  2  0  0  0  0
 23 15  1  0  0  0  0
 24  5  1  1  0  0  0
 25 19  1  0  0  0  0
 25 17  1  0  0  0  0
 26 13  1  6  0  0  0
 26 24  1  0  0  0  0
 28 16  1  6  0  0  0
 28 10  1  0  0  0  0
 28 12  1  0  0  0  0
M  END
>  <MODEL>
2

>  <REMARK>
 VINA RESULT:      -2.5      2.823      6.933
  Name = 
  0 active torsions:
  status: ('A' for Active; 'I' for Inactive)
                            x       y       z     vdW  Elec       q    Type
                         _______ _______ _______ _____ _____    ______ ____

>  <TORSDO>
F 0

$$$$
=
 OpenBabel11122414113D

 28 32  0  0  1  0  0  0  0  0999 V2000
  159.8370  210.4550  153.8990 C   0  0  0  0  0  0  0  0  0  0  0  0
  156.7570  212.0270  153.0620 O   0  0  0  0  0  0  0  0  0  0  0  0
  160.9780  211.4980  147.9510 C   0  0  0  0  0  1  0  0  0  0  0  0
  160.3930  212.1700  156.0400 C   0  0  0  0  0  3  0  0  0  0  0  0
  160.5700  213.5280  149.3280 C   0  0  0  0  0  0  0  0  0  0  0  0
  159.6830  209.5840  152.7780 N   0  0  0  0  0  2  0  0  0  0  0  0
  156.7930  214.2550  154.0830 O   0  0  0  0  0  0  0  0  0  0  0  0
  157.0890  213.4760  152.8340 S   0  0  0  0  0  0  0  0  0  0  0  0
  156.7130  214.1530  150.2720 C   0  0  0  0  0  0  0  0  0  0  0  0
  158.7800  213.6750  152.4390 N   0  0  2  0  0  0  0  0  0  0  0  0
  162.7830  210.0680  152.7860 O   0  0  0  0  0  0  0  0  0  0  0  0
  160.7560  212.6610  151.5340 C   0  0  2  0  0  3  0  0  0  0  0  0
  158.0850  213.9830  150.1380 O   0  0  0  0  0  0  0  0  0  0  0  0
  156.1160  214.0810  151.5520 N   0  0  0  0  0  2  0  0  0  0  0  0
  161.9350  209.8480  151.9370 C   0  0  0  0  0  0  0  0  0  0  0  0
  159.7970  211.8450  153.7070 C   0  0  0  0  0  0  0  0  0  0  0  0
  160.8030  212.2340  149.2410 C   0  0  0  0  0  0  0  0  0  0  0  0
  155.9960  214.3220  149.2520 O   0  0  0  0  0  0  0  0  0  0  0  0
  161.9930  210.5840  150.6380 C   0  0  0  0  0  2  0  0  0  0  0  0
  160.0870  212.6980  154.7840 C   0  0  0  0  0  3  0  0  0  0  0  0
  160.1610  209.9300  155.1560 C   0  0  0  0  0  3  0  0  0  0  0  0
  160.4280  210.7860  156.2270 C   0  0  0  0  0  3  0  0  0  0  0  0
  160.8320  208.8770  152.2290 C   0  0  0  0  0  2  0  0  0  0  0  0
  160.4550  213.9510  150.7570 C   0  0  2  0  0  3  0  0  0  0  0  0
  160.9700  211.6240  150.5150 N   0  0  0  0  0  0  0  0  0  0  0  0
  159.0250  214.3510  151.1590 C   0  0  2  0  0  3  0  0  0  0  0  0
  160.4280  214.4530  148.1660 C   0  0  0  0  0  1  0  0  0  0  0  0
  159.4840  212.4000  152.3410 C   0  0  1  0  0  3  0  0  0  0  0  0
  1 21  1  0  0  0  0
  3 17  1  0  0  0  0
  4 22  1  0  0  0  0
  6  1  1  0  0  0  0
  8  2  2  0  0  0  0
  8  7  2  0  0  0  0
  9 14  1  0  0  0  0
 10  8  1  6  0  0  0
 12 25  1  6  0  0  0
 12 28  1  0  0  0  0
 13  9  1  0  0  0  0
 14  8  1  0  0  0  0
 15 23  1  0  0  0  0
 15 11  2  0  0  0  0
 16  1  2  0  0  0  0
 16 20  1  0  0  0  0
 17  5  2  0  0  0  0
 17 25  1  0  0  0  0
 18  9  2  0  0  0  0
 19 15  1  0  0  0  0
 20  4  2  0  0  0  0
 21 22  2  0  0  0  0
 23  6  1  0  0  0  0
 24  5  1  6  0  0  0
 24 26  1  0  0  0  0
 24 12  1  0  0  0  0
 25 19  1  0  0  0  0
 26 13  1  6  0  0  0
 26 10  1  0  0  0  0
 27  5  1  0  0  0  0
 28 10  1  0  0  0  0
 28 16  1  1  0  0  0
M  END
>  <MODEL>
3

>  <REMARK>
 VINA RESULT:      -1.9      2.377      3.399
  Name = 
  0 active torsions:
  status: ('A' for Active; 'I' for Inactive)
                            x       y       z     vdW  Elec       q    Type
                         _______ _______ _______ _____ _____    ______ ____

>  <TORSDO>
F 0

$$$$
=
 OpenBabel11122414113D

 28 32  0  0  1  0  0  0  0  0999 V2000
  160.8330  206.6440  149.1690 C   0  0  0  0  0  0  0  0  0  0  0  0
  159.4590  206.0090  145.9500 O   0  0  0  0  0  0  0  0  0  0  0  0
  159.9800  200.5880  149.7650 C   0  0  0  0  0  1  0  0  0  0  0  0
  163.1200  207.9290  148.1920 C   0  0  0  0  0  3  0  0  0  0  0  0
  161.5310  201.2690  147.9460 C   0  0  0  0  0  0  0  0  0  0  0  0
  159.7440  205.9340  149.7610 N   0  0  0  0  0  2  0  0  0  0  0  0
  161.2980  206.2030  144.3390 O   0  0  0  0  0  0  0  0  0  0  0  0
  160.5190  205.2490  145.1990 S   0  0  0  0  0  0  0  0  0  0  0  0
  159.7170  202.7490  144.6780 C   0  0  0  0  0  0  0  0  0  0  0  0
  161.6220  204.4610  146.3000 N   0  0  2  0  0  0  0  0  0  0  0  0
  162.1260  205.1240  151.6360 O   0  0  0  0  0  0  0  0  0  0  0  0
  161.9470  203.5450  148.4930 C   0  0  2  0  0  3  0  0  0  0  0  0
  160.4730  202.3910  145.7870 O   0  0  0  0  0  0  0  0  0  0  0  0
  159.7640  204.0770  144.1930 N   0  0  0  0  0  2  0  0  0  0  0  0
  161.0930  204.5950  151.2560 C   0  0  0  0  0  0  0  0  0  0  0  0
  161.6200  206.0170  148.1910 C   0  0  0  0  0  0  0  0  0  0  0  0
  160.8270  201.5680  149.0190 C   0  0  0  0  0  0  0  0  0  0  0  0
  158.9550  201.9070  144.1360 O   0  0  0  0  0  0  0  0  0  0  0  0
  161.1040  203.1450  150.8970 C   0  0  0  0  0  2  0  0  0  0  0  0
  162.7710  206.6640  147.7140 C   0  0  0  0  0  3  0  0  0  0  0  0
  161.1960  207.9050  149.6580 C   0  0  0  0  0  3  0  0  0  0  0  0
  162.3310  208.5510  149.1620 C   0  0  0  0  0  3  0  0  0  0  0  0
  159.8500  205.4190  151.1180 C   0  0  0  0  0  2  0  0  0  0  0  0
  162.2720  202.4680  147.4480 C   0  0  2  0  0  3  0  0  0  0  0  0
  161.0380  202.9060  149.4530 N   0  0  0  0  0  0  0  0  0  0  0  0
  161.7270  203.0090  146.1150 C   0  0  2  0  0  3  0  0  0  0  0  0
  161.5810  199.9250  147.3010 C   0  0  0  0  0  1  0  0  0  0  0  0
  161.2410  204.6430  147.6980 C   0  0  1  0  0  3  0  0  0  0  0  0
  1 21  1  0  0  0  0
  1  6  1  0  0  0  0
  4 22  1  0  0  0  0
  5 17  2  0  0  0  0
  6 23  1  0  0  0  0
  7  8  2  0  0  0  0
  8  2  2  0  0  0  0
  9 13  1  0  0  0  0
 10  8  1  6  0  0  0
 10 28  1  0  0  0  0
 12 25  1  1  0  0  0
 14  9  1  0  0  0  0
 14  8  1  0  0  0  0
 15 11  2  0  0  0  0
 16  1  2  0  0  0  0
 17 25  1  0  0  0  0
 17  3  1  0  0  0  0
 18  9  2  0  0  0  0
 19 15  1  0  0  0  0
 20 16  1  0  0  0  0
 20  4  2  0  0  0  0
 22 21  2  0  0  0  0
 23 15  1  0  0  0  0
 24  5  1  1  0  0  0
 24 12  1  0  0  0  0
 25 19  1  0  0  0  0
 26 13  1  1  0  0  0
 26 10  1  0  0  0  0
 26 24  1  0  0  0  0
 27  5  1  0  0  0  0
 28 16  1  1  0  0  0
 28 12  1  0  0  0  0
M  END
>  <MODEL>
4

>  <REMARK>
 VINA RESULT:      -1.7      6.051      8.670
  Name = 
  0 active torsions:
  status: ('A' for Active; 'I' for Inactive)
                            x       y       z     vdW  Elec       q    Type
                         _______ _______ _______ _____ _____    ______ ____

>  <TORSDO>
F 0

$$$$
=
 OpenBabel11122414113D

 28 32  0  0  1  0  0  0  0  0999 V2000
  162.1710  205.1100  146.1620 C   0  0  0  0  0  0  0  0  0  0  0  0
  163.1290  207.8580  148.2080 O   0  0  0  0  0  0  0  0  0  0  0  0
  161.9560  202.2620  151.6030 C   0  0  0  0  0  1  0  0  0  0  0  0
  160.0810  206.4820  144.9020 C   0  0  0  0  0  3  0  0  0  0  0  0
  160.4070  204.1890  151.3500 C   0  0  0  0  0  0  0  0  0  0  0  0
  163.1580  204.3030  146.8040 N   0  0  0  0  0  2  0  0  0  0  0  0
  161.2270  209.4040  148.2610 O   0  0  0  0  0  0  0  0  0  0  0  0
  161.8890  208.2530  148.9630 S   0  0  0  0  0  0  0  0  0  0  0  0
  162.1760  207.7920  151.5840 C   0  0  0  0  0  0  0  0  0  0  0  0
  160.7580  206.9250  149.0480 N   0  0  2  0  0  0  0  0  0  0  0  0
  160.8370  202.2390  146.3660 O   0  0  0  0  0  0  0  0  0  0  0  0
  160.4590  204.5460  149.0000 C   0  0  2  0  0  3  0  0  0  0  0  0
  161.4640  206.6220  151.3460 O   0  0  0  0  0  0  0  0  0  0  0  0
  162.3310  208.7450  150.5500 N   0  0  0  0  0  2  0  0  0  0  0  0
  161.7200  202.3980  147.1930 C   0  0  0  0  0  0  0  0  0  0  0  0
  161.2030  205.7690  146.9360 C   0  0  0  0  0  0  0  0  0  0  0  0
  161.2410  203.3170  150.8220 C   0  0  0  0  0  0  0  0  0  0  0  0
  162.7240  207.9800  152.7010 O   0  0  0  0  0  0  0  0  0  0  0  0
  161.4160  202.1790  148.6390 C   0  0  0  0  0  2  0  0  0  0  0  0
  160.1530  206.4460  146.2960 C   0  0  0  0  0  3  0  0  0  0  0  0
  162.0860  205.1340  144.7640 C   0  0  0  0  0  3  0  0  0  0  0  0
  161.0490  205.8280  144.1360 C   0  0  0  0  0  3  0  0  0  0  0  0
  163.0760  202.8510  146.7460 C   0  0  0  0  0  2  0  0  0  0  0  0
  159.8560  205.0990  150.2990 C   0  0  2  0  0  3  0  0  0  0  0  0
  161.3150  203.4230  149.4050 N   0  0  0  0  0  0  0  0  0  0  0  0
  160.3760  206.5430  150.4120 C   0  0  2  0  0  3  0  0  0  0  0  0
  160.0590  204.2740  152.7980 C   0  0  0  0  0  1  0  0  0  0  0  0
  161.2830  205.7060  148.4400 C   0  0  1  0  0  3  0  0  0  0  0  0
  1  6  1  0  0  0  0
  1 16  1  0  0  0  0
  2  8  2  0  0  0  0
  4 20  1  0  0  0  0
  5 27  1  0  0  0  0
  7  8  2  0  0  0  0
  8 14  1  0  0  0  0
  9 18  2  0  0  0  0
 10  8  1  1  0  0  0
 10 26  1  0  0  0  0
 11 15  2  0  0  0  0
 12 25  1  1  0  0  0
 12 24  1  0  0  0  0
 13  9  1  0  0  0  0
 14  9  1  0  0  0  0
 15 19  1  0  0  0  0
 17  5  2  0  0  0  0
 17  3  1  0  0  0  0
 19 25  1  0  0  0  0
 20 16  2  0  0  0  0
 21  1  2  0  0  0  0
 22 21  1  0  0  0  0
 22  4  2  0  0  0  0
 23  6  1  0  0  0  0
 23 15  1  0  0  0  0
 24 26  1  0  0  0  0
 24  5  1  1  0  0  0
 25 17  1  0  0  0  0
 26 13  1  1  0  0  0
 28 16  1  6  0  0  0
 28 12  1  0  0  0  0
 28 10  1  0  0  0  0
M  END
>  <MODEL>
5

>  <REMARK>
 VINA RESULT:      -0.9      4.425      7.850
  Name = 
  0 active torsions:
  status: ('A' for Active; 'I' for Inactive)
                            x       y       z     vdW  Elec       q    Type
                         _______ _______ _______ _____ _____    ______ ____

>  <TORSDO>
F 0

$$$$
=
 OpenBabel11122414113D

 28 32  0  0  1  0  0  0  0  0999 V2000
  160.5470  209.4370  153.0280 C   0  0  0  0  0  0  0  0  0  0  0  0
  157.5720  211.3820  153.1580 O   0  0  0  0  0  0  0  0  0  0  0  0
  160.6450  211.5660  147.2640 C   0  0  0  0  0  1  0  0  0  0  0  0
  161.7010  210.6350  155.2790 C   0  0  0  0  0  3  0  0  0  0  0  0
  160.7510  213.3010  149.0400 C   0  0  0  0  0  0  0  0  0  0  0  0
  160.0800  208.8240  151.8250 N   0  0  0  0  0  2  0  0  0  0  0  0
  158.0660  213.3490  154.5360 O   0  0  0  0  0  0  0  0  0  0  0  0
  158.0230  212.8170  153.1320 S   0  0  0  0  0  0  0  0  0  0  0  0
  157.2460  214.0250  150.8730 C   0  0  0  0  0  0  0  0  0  0  0  0
  159.6180  212.9580  152.4320 N   0  0  2  0  0  0  0  0  0  0  0  0
  163.1590  209.0510  151.2690 O   0  0  0  0  0  0  0  0  0  0  0  0
  161.2510  211.9950  150.9630 C   0  0  2  0  0  3  0  0  0  0  0  0
  158.5380  213.7780  150.4240 O   0  0  0  0  0  0  0  0  0  0  0  0
  156.9010  213.7430  152.2160 N   0  0  0  0  0  2  0  0  0  0  0  0
  162.1440  209.0750  150.5910 C   0  0  0  0  0  0  0  0  0  0  0  0
  160.6360  210.8350  153.1040 C   0  0  0  0  0  0  0  0  0  0  0  0
  160.8080  212.0370  148.6730 C   0  0  0  0  0  0  0  0  0  0  0  0
  156.3730  214.4520  150.0750 O   0  0  0  0  0  0  0  0  0  0  0  0
  162.0390  210.0500  149.4640 C   0  0  0  0  0  2  0  0  0  0  0  0
  161.2250  211.4270  154.2330 C   0  0  0  0  0  3  0  0  0  0  0  0
  161.0410  208.6450  154.0720 C   0  0  0  0  0  3  0  0  0  0  0  0
  161.6070  209.2430  155.2000 C   0  0  0  0  0  3  0  0  0  0  0  0
  161.0100  208.1550  150.9280 C   0  0  0  0  0  2  0  0  0  0  0  0
  160.9620  213.4350  150.5140 C   0  0  2  0  0  3  0  0  0  0  0  0
  161.1420  211.1710  149.7510 N   0  0  0  0  0  0  0  0  0  0  0  0
  159.6920  213.8560  151.2750 C   0  0  2  0  0  3  0  0  0  0  0  0
  160.4990  214.4500  148.1220 C   0  0  0  0  0  1  0  0  0  0  0  0
  160.1350  211.6780  151.9590 C   0  0  1  0  0  3  0  0  0  0  0  0
  1 16  2  0  0  0  0
  1 21  1  0  0  0  0
  3 17  1  0  0  0  0
  6  1  1  0  0  0  0
  8  2  2  0  0  0  0
  8  7  2  0  0  0  0
  9 14  1  0  0  0  0
 10  8  1  6  0  0  0
 12 25  1  6  0  0  0
 12 28  1  0  0  0  0
 13  9  1  0  0  0  0
 14  8  1  0  0  0  0
 15 23  1  0  0  0  0
 15 11  2  0  0  0  0
 16 20  1  0  0  0  0
 17  5  2  0  0  0  0
 17 25  1  0  0  0  0
 18  9  2  0  0  0  0
 19 25  1  0  0  0  0
 19 15  1  0  0  0  0
 20  4  2  0  0  0  0
 21 22  2  0  0  0  0
 22  4  1  0  0  0  0
 23  6  1  0  0  0  0
 24  5  1  6  0  0  0
 24 12  1  0  0  0  0
 24 26  1  0  0  0  0
 26 13  1  6  0  0  0
 26 10  1  0  0  0  0
 27  5  1  0  0  0  0
 28 10  1  0  0  0  0
 28 16  1  1  0  0  0
M  END
>  <MODEL>
6

>  <REMARK>
 VINA RESULT:      -0.7      1.974      2.923
  Name = 
  0 active torsions:
  status: ('A' for Active; 'I' for Inactive)
                            x       y       z     vdW  Elec       q    Type
                         _______ _______ _______ _____ _____    ______ ____

>  <TORSDO>
F 0

$$$$
=
 OpenBabel11122414113D

 28 32  0  0  1  0  0  0  0  0999 V2000
  160.8780  206.0070  150.7130 C   0  0  0  0  0  0  0  0  0  0  0  0
  159.5950  208.3150  153.0960 O   0  0  0  0  0  0  0  0  0  0  0  0
  160.7770  210.9960  147.1270 C   0  0  0  0  0  1  0  0  0  0  0  0
  162.9900  205.1510  152.3390 C   0  0  0  0  0  3  0  0  0  0  0  0
  162.2330  211.1590  149.1350 C   0  0  0  0  0  0  0  0  0  0  0  0
  159.8850  206.4360  149.7810 N   0  0  0  0  0  2  0  0  0  0  0  0
  161.3970  208.7610  154.6990 O   0  0  0  0  0  0  0  0  0  0  0  0
  160.7410  209.2310  153.4320 S   0  0  0  0  0  0  0  0  0  0  0  0
  160.2530  211.7240  152.5880 C   0  0  0  0  0  0  0  0  0  0  0  0
  161.9320  209.2360  152.1540 N   0  0  2  0  0  0  0  0  0  0  0  0
  162.3470  205.9350  147.9010 O   0  0  0  0  0  0  0  0  0  0  0  0
  162.3660  208.8870  149.8210 C   0  0  2  0  0  3  0  0  0  0  0  0
  161.0470  211.3940  151.4960 O   0  0  0  0  0  0  0  0  0  0  0  0
  160.1360  210.8230  153.6720 N   0  0  0  0  0  2  0  0  0  0  0  0
  161.3880  206.6900  147.9030 C   0  0  0  0  0  0  0  0  0  0  0  0
  161.7370  206.9520  151.2950 C   0  0  0  0  0  0  0  0  0  0  0  0
  161.4980  210.4400  148.3120 C   0  0  0  0  0  0  0  0  0  0  0  0
  159.6010  212.8000  152.5900 O   0  0  0  0  0  0  0  0  0  0  0  0
  161.5770  208.1140  147.4920 C   0  0  0  0  0  2  0  0  0  0  0  0
  162.8000  206.5140  152.1000 C   0  0  0  0  0  3  0  0  0  0  0  0
  161.0830  204.6410  150.9400 C   0  0  0  0  0  3  0  0  0  0  0  0
  162.1300  204.2140  151.7610 C   0  0  0  0  0  3  0  0  0  0  0  0
  160.0520  206.1840  148.3570 C   0  0  0  0  0  2  0  0  0  0  0  0
  162.8220  210.3020  150.2080 C   0  0  2  0  0  3  0  0  0  0  0  0
  161.5420  209.0500  148.6170 N   0  0  0  0  0  0  0  0  0  0  0  0
  162.2150  210.5640  151.5980 C   0  0  2  0  0  3  0  0  0  0  0  0
  162.4490  212.6320  149.0260 C   0  0  0  0  0  1  0  0  0  0  0  0
  161.5300  208.4190  151.0130 C   0  0  1  0  0  3  0  0  0  0  0  0
  1 21  2  0  0  0  0
  1 16  1  0  0  0  0
  2  8  2  0  0  0  0
  3 17  1  0  0  0  0
  6  1  1  0  0  0  0
  8 14  1  0  0  0  0
  8  7  2  0  0  0  0
  9 18  2  0  0  0  0
  9 14  1  0  0  0  0
 10  8  1  1  0  0  0
 11 15  2  0  0  0  0
 12 25  1  6  0  0  0
 12 24  1  0  0  0  0
 12 28  1  0  0  0  0
 13  9  1  0  0  0  0
 15 23  1  0  0  0  0
 16 20  2  0  0  0  0
 17 25  1  0  0  0  0
 17  5  2  0  0  0  0
 19 15  1  0  0  0  0
 19 25  1  0  0  0  0
 20  4  1  0  0  0  0
 21 22  1  0  0  0  0
 22  4  2  0  0  0  0
 23  6  1  0  0  0  0
 24  5  1  6  0  0  0
 24 26  1  0  0  0  0
 26 13  1  6  0  0  0
 26 10  1  0  0  0  0
 27  5  1  0  0  0  0
 28 16  1  1  0  0  0
 28 10  1  0  0  0  0
M  END
>  <MODEL>
7

>  <REMARK>
 VINA RESULT:      -0.2      2.746      3.857
  Name = 
  0 active torsions:
  status: ('A' for Active; 'I' for Inactive)
                            x       y       z     vdW  Elec       q    Type
                         _______ _______ _______ _____ _____    ______ ____

>  <TORSDO>
F 0

$$$$
