=
 OpenBabel11122413413D

 37 43  0  0  1  0  0  0  0  0999 V2000
  157.6340  212.8390  154.3770 C   0  0  0  0  0  0  0  0  0  0  0  0
  158.4750  213.0060  150.2950 C   0  0  0  0  0  0  0  0  0  0  0  0
  161.1450  214.2330  149.2450 C   0  0  0  0  0  1  0  0  0  0  0  0
  156.9900  213.6990  152.0510 C   0  0  0  0  0  0  0  0  0  0  0  0
  159.7690  212.4270  150.1740 N   0  0  0  0  0  0  0  0  0  0  0  0
  158.0730  212.9740  151.5830 C   0  0  0  0  0  0  0  0  0  0  0  0
  160.7050  212.7800  149.1080 C   0  0  1  0  0  3  0  0  0  0  0  0
  156.2410  214.4350  151.1130 C   0  0  0  0  0  3  0  0  0  0  0  0
  159.0340  212.3590  152.4020 N   0  0  0  0  0  0  0  0  0  0  0  0
  156.9270  211.4970  154.4220 C   0  0  0  0  0  1  0  0  0  0  0  0
  158.2750  213.8060  147.9290 C   0  0  0  0  0  2  0  0  0  0  0  0
  156.6230  214.4360  149.7490 C   0  0  0  0  0  3  0  0  0  0  0  0
  159.0680  212.6520  153.8310 C   0  0  0  0  0  2  0  0  0  0  0  0
  157.7660  213.7230  149.3310 C   0  0  0  0  0  0  0  0  0  0  0  0
  160.1860  212.0490  151.5420 C   0  0  1  0  0  3  0  0  0  0  0  0
  156.7930  213.8360  153.5380 C   0  0  0  0  0  2  0  0  0  0  0  0
  160.1320  212.4450  147.7070 C   0  0  1  0  0  3  0  0  0  0  0  0
  157.7280  213.3680  155.7920 C   0  0  0  0  0  1  0  0  0  0  0  0
  158.7290  212.5410  147.5160 O   0  0  0  0  0  0  0  0  0  0  0  0
  161.9560  210.2290  151.1530 C   0  0  0  0  0  2  0  0  0  0  0  0
  162.0870  208.8300  150.5900 C   0  0  0  0  0  0  0  0  0  0  0  0
  161.7800  207.7590  152.7500 C   0  0  0  0  0  0  0  0  0  0  0  0
  162.0730  207.7680  151.3490 N   0  0  0  0  0  0  0  0  0  0  0  0
  161.0350  208.8280  153.3090 N   0  0  0  0  0  0  0  0  0  0  0  0
  161.0420  210.1400  154.0230 C   0  0  0  0  0  2  0  0  0  0  0  0
  160.1240  209.9680  153.0090 C   0  0  1  0  0  3  0  0  0  0  0  0
  162.1440  206.7950  153.4700 O   0  0  0  0  0  0  0  0  0  0  0  0
  160.5290  210.5590  151.6420 C   0  0  1  0  0  3  0  0  0  0  0  0
  162.4710  209.7770  148.2750 C   0  0  0  0  0  1  0  0  0  0  0  0
  162.3490  208.6590  149.1960 N   0  0  0  0  0  2  0  0  0  0  0  0
  162.3410  212.9810  146.6010 C   0  0  0  0  0  3  0  0  0  0  0  0
  160.9430  212.9010  146.5310 C   0  0  0  0  0  0  0  0  0  0  0  0
  160.2910  213.2230  145.3340 C   0  0  0  0  0  3  0  0  0  0  0  0
  160.3920  213.9450  143.0650 F   0  0  0  0  0  0  0  0  0  0  0  0
  162.4220  213.7160  144.2950 C   0  0  0  0  0  3  0  0  0  0  0  0
  161.0280  213.6320  144.2200 C   0  0  0  0  0  0  0  0  0  0  0  0
  163.0780  213.3910  145.4860 C   0  0  0  0  0  3  0  0  0  0  0  0
  1 10  1  0  0  0  0
  1 18  1  0  0  0  0
  2  6  1  0  0  0  0
  4 16  1  0  0  0  0
  5  2  1  0  0  0  0
  6  4  2  0  0  0  0
  6  9  1  0  0  0  0
  7  3  1  6  0  0  0
  7  5  1  0  0  0  0
  8  4  1  0  0  0  0
  9 13  1  0  0  0  0
 11 14  1  0  0  0  0
 12  8  2  0  0  0  0
 13  1  1  0  0  0  0
 14 12  1  0  0  0  0
 14  2  2  0  0  0  0
 15  5  1  6  0  0  0
 15 28  1  0  0  0  0
 15  9  1  0  0  0  0
 16  1  1  0  0  0  0
 17 32  1  6  0  0  0
 17  7  1  0  0  0  0
 19 17  1  0  0  0  0
 19 11  1  0  0  0  0
 21 20  1  0  0  0  0
 21 23  2  0  0  0  0
 22 24  1  0  0  0  0
 22 27  2  0  0  0  0
 23 22  1  0  0  0  0
 24 25  1  0  0  0  0
 26 24  1  0  0  0  0
 26 25  1  1  0  0  0
 28 20  1  1  0  0  0
 28 26  1  0  0  0  0
 29 30  1  0  0  0  0
 30 21  1  0  0  0  0
 32 31  1  0  0  0  0
 33 32  2  0  0  0  0
 34 36  1  0  0  0  0
 35 37  1  0  0  0  0
 36 35  2  0  0  0  0
 36 33  1  0  0  0  0
 37 31  2  0  0  0  0
M  END
>  <MODEL>
1

>  <REMARK>
 VINA RESULT:      -5.2      0.000      0.000
  Name = 
  2 active torsions:
  status: ('A' for Active; 'I' for Inactive)
    1  A    between atoms: C_21  and  C_27
    2  A    between atoms: C_23  and  C_30
                            x       y       z     vdW  Elec       q    Type
                         _______ _______ _______ _____ _____    ______ ____

>  <TORSDO>
F 2

$$$$
=
 OpenBabel11122413413D

 37 43  0  0  1  0  0  0  0  0999 V2000
  161.2460  210.5010  154.4520 C   0  0  0  0  0  0  0  0  0  0  0  0
  160.5520  211.8590  150.5690 C   0  0  0  0  0  0  0  0  0  0  0  0
  162.8830  212.9290  148.7930 C   0  0  0  0  0  1  0  0  0  0  0  0
  160.0630  212.1630  152.9020 C   0  0  0  0  0  0  0  0  0  0  0  0
  161.4980  211.1570  149.7720 N   0  0  0  0  0  0  0  0  0  0  0  0
  160.6550  211.4710  151.8590 C   0  0  0  0  0  0  0  0  0  0  0  0
  162.0400  211.6880  148.5230 C   0  0  1  0  0  3  0  0  0  0  0  0
  159.2600  213.2720  152.5780 C   0  0  0  0  0  3  0  0  0  0  0  0
  161.6380  210.4800  152.0160 N   0  0  0  0  0  0  0  0  0  0  0  0
  160.2610  209.3460  154.4810 C   0  0  0  0  0  1  0  0  0  0  0  0
  159.7340  213.4100  148.7800 C   0  0  0  0  0  2  0  0  0  0  0  0
  159.1020  213.6600  151.2240 C   0  0  0  0  0  3  0  0  0  0  0  0
  162.2700  210.2810  153.3150 C   0  0  0  0  0  2  0  0  0  0  0  0
  159.7690  212.9530  150.2020 C   0  0  0  0  0  0  0  0  0  0  0  0
  162.2630  210.2920  150.6980 C   0  0  1  0  0  3  0  0  0  0  0  0
  160.4680  211.8360  154.3150 C   0  0  0  0  0  2  0  0  0  0  0  0
  160.9270  211.9230  147.4690 C   0  0  1  0  0  3  0  0  0  0  0  0
  161.9910  210.5170  155.7700 C   0  0  0  0  0  1  0  0  0  0  0  0
  159.6370  212.2950  147.9280 O   0  0  0  0  0  0  0  0  0  0  0  0
  160.9960  208.0690  150.9170 C   0  0  0  0  0  2  0  0  0  0  0  0
  161.2570  206.5920  151.1270 C   0  0  0  0  0  0  0  0  0  0  0  0
  161.2760  206.0930  148.7480 C   0  0  0  0  0  0  0  0  0  0  0  0
  161.3030  205.7430  150.1360 N   0  0  0  0  0  0  0  0  0  0  0  0
  161.6650  207.3990  148.3550 N   0  0  0  0  0  0  0  0  0  0  0  0
  161.2540  208.7910  148.0030 C   0  0  0  0  0  2  0  0  0  0  0  0
  162.3890  208.6330  148.7700 C   0  0  1  0  0  3  0  0  0  0  0  0
  160.9500  205.2410  147.8830 O   0  0  0  0  0  0  0  0  0  0  0  0
  162.1920  208.8170  150.2890 C   0  0  1  0  0  3  0  0  0  0  0  0
  161.2220  206.9240  153.6350 C   0  0  0  0  0  1  0  0  0  0  0  0
  161.3460  206.0810  152.4580 N   0  0  0  0  0  2  0  0  0  0  0  0
  162.6700  213.0250  146.0060 C   0  0  0  0  0  3  0  0  0  0  0  0
  161.3460  212.6060  146.2010 C   0  0  0  0  0  0  0  0  0  0  0  0
  160.4020  212.7990  145.1850 C   0  0  0  0  0  3  0  0  0  0  0  0
  159.8580  213.6040  143.0090 F   0  0  0  0  0  0  0  0  0  0  0  0
  162.0950  213.8380  143.7990 C   0  0  0  0  0  3  0  0  0  0  0  0
  160.7760  213.4160  143.9880 C   0  0  0  0  0  0  0  0  0  0  0  0
  163.0420  213.6430  144.8080 C   0  0  0  0  0  3  0  0  0  0  0  0
  1 10  1  0  0  0  0
  1 18  1  0  0  0  0
  2  6  1  0  0  0  0
  4 16  1  0  0  0  0
  5  2  1  0  0  0  0
  6  9  1  0  0  0  0
  6  4  2  0  0  0  0
  7  3  1  1  0  0  0
  7  5  1  0  0  0  0
  8  4  1  0  0  0  0
  9 13  1  0  0  0  0
 11 14  1  0  0  0  0
 12  8  2  0  0  0  0
 13  1  1  0  0  0  0
 14  2  2  0  0  0  0
 14 12  1  0  0  0  0
 15  5  1  6  0  0  0
 15  9  1  0  0  0  0
 16  1  1  0  0  0  0
 17 32  1  6  0  0  0
 17 19  1  0  0  0  0
 17  7  1  0  0  0  0
 19 11  1  0  0  0  0
 20 21  1  0  0  0  0
 21 30  1  0  0  0  0
 22 23  1  0  0  0  0
 23 21  2  0  0  0  0
 24 22  1  0  0  0  0
 24 26  1  0  0  0  0
 25 24  1  0  0  0  0
 26 25  1  6  0  0  0
 26 28  1  0  0  0  0
 27 22  2  0  0  0  0
 28 15  1  0  0  0  0
 28 20  1  6  0  0  0
 30 29  1  0  0  0  0
 31 32  1  0  0  0  0
 33 32  2  0  0  0  0
 34 36  1  0  0  0  0
 35 36  2  0  0  0  0
 35 37  1  0  0  0  0
 36 33  1  0  0  0  0
 37 31  2  0  0  0  0
M  END
>  <MODEL>
2

>  <REMARK>
 VINA RESULT:      -4.1      2.030      3.346
  Name = 
  2 active torsions:
  status: ('A' for Active; 'I' for Inactive)
    1  A    between atoms: C_21  and  C_27
    2  A    between atoms: C_23  and  C_30
                            x       y       z     vdW  Elec       q    Type
                         _______ _______ _______ _____ _____    ______ ____

>  <TORSDO>
F 2

$$$$
=
 OpenBabel11122413413D

 37 43  0  0  1  0  0  0  0  0999 V2000
  162.1040  206.6270  147.7420 C   0  0  0  0  0  0  0  0  0  0  0  0
  161.0810  208.2020  151.4660 C   0  0  0  0  0  0  0  0  0  0  0  0
  163.1100  209.9120  153.1080 C   0  0  0  0  0  1  0  0  0  0  0  0
  161.3750  206.2060  150.1620 C   0  0  0  0  0  0  0  0  0  0  0  0
  161.4090  209.5830  151.3710 N   0  0  0  0  0  0  0  0  0  0  0  0
  161.3360  207.5840  150.2930 C   0  0  0  0  0  0  0  0  0  0  0  0
  161.7870  210.3960  152.5260 C   0  0  1  0  0  3  0  0  0  0  0  0
  161.0570  205.4330  151.2940 C   0  0  0  0  0  3  0  0  0  0  0  0
  161.8180  208.4910  149.3340 N   0  0  0  0  0  0  0  0  0  0  0  0
  160.7690  206.7910  147.0370 C   0  0  0  0  0  1  0  0  0  0  0  0
  160.5630  208.1790  153.9170 C   0  0  0  0  0  2  0  0  0  0  0  0
  160.7380  206.0690  152.5180 C   0  0  0  0  0  3  0  0  0  0  0  0
  162.6160  208.0080  148.2120 C   0  0  0  0  0  2  0  0  0  0  0  0
  160.7630  207.4760  152.6140 C   0  0  0  0  0  0  0  0  0  0  0  0
  161.9490  209.7900  150.0090 C   0  0  1  0  0  3  0  0  0  0  0  0
  161.9500  205.6110  148.9030 C   0  0  0  0  0  2  0  0  0  0  0  0
  160.6470  210.4650  153.5750 C   0  0  1  0  0  3  0  0  0  0  0  0
  163.0950  206.0650  146.7450 C   0  0  0  0  0  1  0  0  0  0  0  0
  159.7950  209.3390  153.7150 O   0  0  0  0  0  0  0  0  0  0  0  0
  160.9420  212.1530  150.0590 C   0  0  0  0  0  2  0  0  0  0  0  0
  159.6760  212.8900  149.6770 C   0  0  0  0  0  0  0  0  0  0  0  0
  160.5180  213.5330  147.4890 C   0  0  0  0  0  0  0  0  0  0  0  0
  159.5610  213.5470  148.5550 N   0  0  0  0  0  0  0  0  0  0  0  0
  161.4240  212.4470  147.3860 N   0  0  0  0  0  0  0  0  0  0  0  0
  162.7800  211.8970  147.6840 C   0  0  0  0  0  2  0  0  0  0  0  0
  161.7020  211.0460  147.8070 C   0  0  1  0  0  3  0  0  0  0  0  0
  160.5280  214.4520  146.6320 O   0  0  0  0  0  0  0  0  0  0  0  0
  161.1650  210.8610  149.2420 C   0  0  1  0  0  3  0  0  0  0  0  0
  158.6610  212.3500  151.9310 C   0  0  0  0  0  1  0  0  0  0  0  0
  158.6050  212.9710  150.6190 N   0  0  0  0  0  2  0  0  0  0  0  0
  162.0770  210.7490  155.6410 C   0  0  0  0  0  3  0  0  0  0  0  0
  160.9760  211.1480  154.8700 C   0  0  0  0  0  0  0  0  0  0  0  0
  160.1850  212.2220  155.2960 C   0  0  0  0  0  3  0  0  0  0  0  0
  159.7150  213.9210  156.8990 F   0  0  0  0  0  0  0  0  0  0  0  0
  161.5800  212.4800  157.2590 C   0  0  0  0  0  3  0  0  0  0  0  0
  160.4850  212.8850  156.4890 C   0  0  0  0  0  0  0  0  0  0  0  0
  162.3760  211.4120  156.8350 C   0  0  0  0  0  3  0  0  0  0  0  0
  1 13  1  0  0  0  0
  1 16  1  0  0  0  0
  2 14  1  0  0  0  0
  4  6  1  0  0  0  0
  4  8  2  0  0  0  0
  5  2  1  0  0  0  0
  5  7  1  0  0  0  0
  6  2  2  0  0  0  0
  7  3  1  1  0  0  0
  7 17  1  0  0  0  0
  8 12  1  0  0  0  0
  9  6  1  0  0  0  0
 10  1  1  0  0  0  0
 12 14  2  0  0  0  0
 13  9  1  0  0  0  0
 14 11  1  0  0  0  0
 15  9  1  6  0  0  0
 15  5  1  0  0  0  0
 16  4  1  0  0  0  0
 17 19  1  0  0  0  0
 17 32  1  1  0  0  0
 18  1  1  0  0  0  0
 19 11  1  0  0  0  0
 21 20  1  0  0  0  0
 21 30  1  0  0  0  0
 22 23  1  0  0  0  0
 23 21  2  0  0  0  0
 24 22  1  0  0  0  0
 24 25  1  0  0  0  0
 24 26  1  0  0  0  0
 26 25  1  1  0  0  0
 26 28  1  0  0  0  0
 27 22  2  0  0  0  0
 28 15  1  0  0  0  0
 28 20  1  1  0  0  0
 30 29  1  0  0  0  0
 31 37  1  0  0  0  0
 32 33  1  0  0  0  0
 32 31  2  0  0  0  0
 33 36  2  0  0  0  0
 36 34  1  0  0  0  0
 36 35  1  0  0  0  0
 37 35  2  0  0  0  0
M  END
>  <MODEL>
3

>  <REMARK>
 VINA RESULT:      -3.4      3.224      8.342
  Name = 
  2 active torsions:
  status: ('A' for Active; 'I' for Inactive)
    1  A    between atoms: C_21  and  C_27
    2  A    between atoms: C_23  and  C_30
                            x       y       z     vdW  Elec       q    Type
                         _______ _______ _______ _____ _____    ______ ____

>  <TORSDO>
F 2

$$$$
=
 OpenBabel11122413413D

 37 43  0  0  1  0  0  0  0  0999 V2000
  160.6750  207.9080  156.0260 C   0  0  0  0  0  0  0  0  0  0  0  0
  160.5110  210.3330  152.6360 C   0  0  0  0  0  0  0  0  0  0  0  0
  163.0930  211.0420  151.0320 C   0  0  0  0  0  1  0  0  0  0  0  0
  160.1000  210.1830  154.9980 C   0  0  0  0  0  0  0  0  0  0  0  0
  161.2050  209.5950  151.6370 N   0  0  0  0  0  0  0  0  0  0  0  0
  160.4650  209.6250  153.7850 C   0  0  0  0  0  0  0  0  0  0  0  0
  161.9090  210.2270  150.5220 C   0  0  1  0  0  3  0  0  0  0  0  0
  159.6890  211.5290  155.0010 C   0  0  0  0  0  3  0  0  0  0  0  0
  161.0860  208.3730  153.6380 N   0  0  0  0  0  0  0  0  0  0  0  0
  159.3790  207.1410  155.8350 C   0  0  0  0  0  1  0  0  0  0  0  0
  160.2520  212.4530  151.3270 C   0  0  0  0  0  2  0  0  0  0  0  0
  159.6850  212.2700  153.7940 C   0  0  0  0  0  3  0  0  0  0  0  0
  161.6000  207.6740  154.8100 C   0  0  0  0  0  2  0  0  0  0  0  0
  160.1160  211.6700  152.5920 C   0  0  0  0  0  0  0  0  0  0  0  0
  161.6450  208.3360  152.2780 C   0  0  1  0  0  3  0  0  0  0  0  0
  160.3560  209.4060  156.2630 C   0  0  0  0  0  2  0  0  0  0  0  0
  160.9450  211.0470  149.6260 C   0  0  1  0  0  3  0  0  0  0  0  0
  161.3640  207.3660  157.2600 C   0  0  0  0  0  1  0  0  0  0  0  0
  159.8270  211.6700  150.2390 O   0  0  0  0  0  0  0  0  0  0  0  0
  162.0710  206.6290  150.4070 C   0  0  0  0  0  2  0  0  0  0  0  0
  161.3490  205.9430  149.2660 C   0  0  0  0  0  0  0  0  0  0  0  0
  160.7510  204.0010  150.6000 C   0  0  0  0  0  0  0  0  0  0  0  0
  160.8410  204.7460  149.3810 N   0  0  0  0  0  0  0  0  0  0  0  0
  160.7820  204.6920  151.8380 N   0  0  0  0  0  0  0  0  0  0  0  0
  161.5880  205.1730  153.0000 C   0  0  0  0  0  2  0  0  0  0  0  0
  160.6180  206.0160  152.5000 C   0  0  1  0  0  3  0  0  0  0  0  0
  160.6060  202.7530  150.5740 O   0  0  0  0  0  0  0  0  0  0  0  0
  161.1240  207.1040  151.5300 C   0  0  1  0  0  3  0  0  0  0  0  0
  161.9260  207.8630  147.7220 C   0  0  0  0  0  1  0  0  0  0  0  0
  161.3160  206.5700  147.9830 N   0  0  0  0  0  2  0  0  0  0  0  0
  162.9470  212.1660  148.5640 C   0  0  0  0  0  3  0  0  0  0  0  0
  161.5790  211.8610  148.5380 C   0  0  0  0  0  0  0  0  0  0  0  0
  160.7930  212.2950  147.4630 C   0  0  0  0  0  3  0  0  0  0  0  0
  160.6030  213.4600  145.3930 F   0  0  0  0  0  0  0  0  0  0  0  0
  162.7310  213.3460  146.4610 C   0  0  0  0  0  3  0  0  0  0  0  0
  161.3680  213.0390  146.4290 C   0  0  0  0  0  0  0  0  0  0  0  0
  163.5210  212.9100  147.5280 C   0  0  0  0  0  3  0  0  0  0  0  0
  1 16  1  0  0  0  0
  1 18  1  0  0  0  0
  2  6  1  0  0  0  0
  4  8  1  0  0  0  0
  4 16  1  0  0  0  0
  5  2  1  0  0  0  0
  6  4  2  0  0  0  0
  7  3  1  1  0  0  0
  7  5  1  0  0  0  0
  9  6  1  0  0  0  0
  9 13  1  0  0  0  0
 10  1  1  0  0  0  0
 11 14  1  0  0  0  0
 12  8  2  0  0  0  0
 13  1  1  0  0  0  0
 14  2  2  0  0  0  0
 14 12  1  0  0  0  0
 15  5  1  6  0  0  0
 15  9  1  0  0  0  0
 17 32  1  1  0  0  0
 17 19  1  0  0  0  0
 17  7  1  0  0  0  0
 19 11  1  0  0  0  0
 21 23  2  0  0  0  0
 21 20  1  0  0  0  0
 22 24  1  0  0  0  0
 23 22  1  0  0  0  0
 24 26  1  0  0  0  0
 24 25  1  0  0  0  0
 26 25  1  1  0  0  0
 27 22  2  0  0  0  0
 28 20  1  1  0  0  0
 28 15  1  0  0  0  0
 28 26  1  0  0  0  0
 29 30  1  0  0  0  0
 30 21  1  0  0  0  0
 32 31  1  0  0  0  0
 33 32  2  0  0  0  0
 34 36  1  0  0  0  0
 35 37  1  0  0  0  0
 36 35  2  0  0  0  0
 36 33  1  0  0  0  0
 37 31  2  0  0  0  0
M  END
>  <MODEL>
4

>  <REMARK>
 VINA RESULT:      -3.4      2.470      4.222
  Name = 
  2 active torsions:
  status: ('A' for Active; 'I' for Inactive)
    1  A    between atoms: C_21  and  C_27
    2  A    between atoms: C_23  and  C_30
                            x       y       z     vdW  Elec       q    Type
                         _______ _______ _______ _____ _____    ______ ____

>  <TORSDO>
F 2

$$$$
=
 OpenBabel11122413413D

 37 43  0  0  1  0  0  0  0  0999 V2000
  162.0230  206.5930  147.6170 C   0  0  0  0  0  0  0  0  0  0  0  0
  161.1550  208.1510  151.3880 C   0  0  0  0  0  0  0  0  0  0  0  0
  163.2660  209.8150  152.9730 C   0  0  0  0  0  1  0  0  0  0  0  0
  161.3720  206.1620  150.0580 C   0  0  0  0  0  0  0  0  0  0  0  0
  161.5010  209.5270  151.2930 N   0  0  0  0  0  0  0  0  0  0  0  0
  161.3600  207.5390  150.2020 C   0  0  0  0  0  0  0  0  0  0  0  0
  161.9310  210.3240  152.4410 C   0  0  1  0  0  3  0  0  0  0  0  0
  161.0820  205.3840  151.1930 C   0  0  0  0  0  3  0  0  0  0  0  0
  161.8210  208.4470  149.2340 N   0  0  0  0  0  0  0  0  0  0  0  0
  160.6670  206.7840  146.9610 C   0  0  0  0  0  1  0  0  0  0  0  0
  160.7220  208.1140  153.8550 C   0  0  0  0  0  2  0  0  0  0  0  0
  160.8160  206.0140  152.4340 C   0  0  0  0  0  3  0  0  0  0  0  0
  162.5720  207.9620  148.0810 C   0  0  0  0  0  2  0  0  0  0  0  0
  160.8660  207.4190  152.5410 C   0  0  0  0  0  0  0  0  0  0  0  0
  161.9960  209.7380  149.9150 C   0  0  1  0  0  3  0  0  0  0  0  0
  161.8940  205.5690  148.7750 C   0  0  0  0  0  2  0  0  0  0  0  0
  160.8290  210.4010  153.5290 C   0  0  1  0  0  3  0  0  0  0  0  0
  162.9700  206.0250  146.5820 C   0  0  0  0  0  1  0  0  0  0  0  0
  159.9650  209.2870  153.6890 O   0  0  0  0  0  0  0  0  0  0  0  0
  161.0250  212.1140  150.0200 C   0  0  0  0  0  2  0  0  0  0  0  0
  159.7570  212.8730  149.6880 C   0  0  0  0  0  0  0  0  0  0  0  0
  160.5360  213.5260  147.4800 C   0  0  0  0  0  0  0  0  0  0  0  0
  159.6150  213.5420  148.5770 N   0  0  0  0  0  0  0  0  0  0  0  0
  161.4220  212.4290  147.3360 N   0  0  0  0  0  0  0  0  0  0  0  0
  162.7790  211.8560  147.5830 C   0  0  0  0  0  2  0  0  0  0  0  0
  161.6930  211.0190  147.7340 C   0  0  1  0  0  3  0  0  0  0  0  0
  160.5300  214.4530  146.6310 O   0  0  0  0  0  0  0  0  0  0  0  0
  161.2020  210.8280  149.1850 C   0  0  1  0  0  3  0  0  0  0  0  0
  158.8110  212.3250  151.9700 C   0  0  0  0  0  1  0  0  0  0  0  0
  158.7190  212.9600  150.6660 N   0  0  0  0  0  2  0  0  0  0  0  0
  160.3770  212.0160  155.4210 C   0  0  0  0  0  3  0  0  0  0  0  0
  161.2140  211.0680  154.8180 C   0  0  0  0  0  0  0  0  0  0  0  0
  162.4170  210.7100  155.4390 C   0  0  0  0  0  3  0  0  0  0  0  0
  163.9520  210.9590  157.2450 F   0  0  0  0  0  0  0  0  0  0  0  0
  161.9500  212.2550  157.2450 C   0  0  0  0  0  3  0  0  0  0  0  0
  162.7850  211.3050  156.6490 C   0  0  0  0  0  0  0  0  0  0  0  0
  160.7460  212.6110  156.6310 C   0  0  0  0  0  3  0  0  0  0  0  0
  1 13  1  0  0  0  0
  1 16  1  0  0  0  0
  2 14  1  0  0  0  0
  4  6  1  0  0  0  0
  4  8  2  0  0  0  0
  5  2  1  0  0  0  0
  5  7  1  0  0  0  0
  6  2  2  0  0  0  0
  7  3  1  1  0  0  0
  7 17  1  0  0  0  0
  8 12  1  0  0  0  0
  9  6  1  0  0  0  0
 10  1  1  0  0  0  0
 12 14  2  0  0  0  0
 13  9  1  0  0  0  0
 14 11  1  0  0  0  0
 15  9  1  6  0  0  0
 15  5  1  0  0  0  0
 16  4  1  0  0  0  0
 17 19  1  0  0  0  0
 17 32  1  1  0  0  0
 18  1  1  0  0  0  0
 19 11  1  0  0  0  0
 21 20  1  0  0  0  0
 21 30  1  0  0  0  0
 22 23  1  0  0  0  0
 23 21  2  0  0  0  0
 24 22  1  0  0  0  0
 24 25  1  0  0  0  0
 24 26  1  0  0  0  0
 26 25  1  1  0  0  0
 26 28  1  0  0  0  0
 27 22  2  0  0  0  0
 28 15  1  0  0  0  0
 28 20  1  1  0  0  0
 30 29  1  0  0  0  0
 31 37  1  0  0  0  0
 32 31  2  0  0  0  0
 32 33  1  0  0  0  0
 33 36  2  0  0  0  0
 36 34  1  0  0  0  0
 36 35  1  0  0  0  0
 37 35  2  0  0  0  0
M  END
>  <MODEL>
5

>  <REMARK>
 VINA RESULT:      -3.4      3.364      8.444
  Name = 
  2 active torsions:
  status: ('A' for Active; 'I' for Inactive)
    1  A    between atoms: C_21  and  C_27
    2  A    between atoms: C_23  and  C_30
                            x       y       z     vdW  Elec       q    Type
                         _______ _______ _______ _____ _____    ______ ____

>  <TORSDO>
F 2

$$$$
=
 OpenBabel11122413413D

 37 43  0  0  1  0  0  0  0  0999 V2000
  161.7430  213.4240  147.4730 C   0  0  0  0  0  0  0  0  0  0  0  0
  161.1350  210.6530  150.5320 C   0  0  0  0  0  0  0  0  0  0  0  0
  162.4940  211.0020  153.3190 C   0  0  0  0  0  1  0  0  0  0  0  0
  161.9630  211.0100  148.3050 C   0  0  0  0  0  0  0  0  0  0  0  0
  160.7480  211.4390  151.6520 N   0  0  0  0  0  0  0  0  0  0  0  0
  161.3260  211.4450  149.4550 C   0  0  0  0  0  0  0  0  0  0  0  0
  160.9970  211.0360  153.0350 C   0  0  1  0  0  3  0  0  0  0  0  0
  162.3530  209.6600  148.2450 C   0  0  0  0  0  3  0  0  0  0  0  0
  161.0590  212.7910  149.7580 N   0  0  0  0  0  0  0  0  0  0  0  0
  160.3510  213.4200  146.8660 C   0  0  0  0  0  1  0  0  0  0  0  0
  161.3580  208.4750  151.7480 C   0  0  0  0  0  2  0  0  0  0  0  0
  162.1130  208.8040  149.3480 C   0  0  0  0  0  3  0  0  0  0  0  0
  161.6600  213.8510  148.9570 C   0  0  0  0  0  2  0  0  0  0  0  0
  161.5070  209.3090  150.5180 C   0  0  0  0  0  0  0  0  0  0  0  0
  160.7470  212.8460  151.1940 C   0  0  1  0  0  3  0  0  0  0  0  0
  162.3910  212.0290  147.2810 C   0  0  0  0  0  2  0  0  0  0  0  0
  160.2790  209.7060  153.3820 C   0  0  1  0  0  3  0  0  0  0  0  0
  162.5770  214.4440  146.7280 C   0  0  0  0  0  1  0  0  0  0  0  0
  160.1170  208.7430  152.3530 O   0  0  0  0  0  0  0  0  0  0  0  0
  158.2060  212.6850  150.8560 C   0  0  0  0  0  2  0  0  0  0  0  0
  157.0300  213.5330  150.4190 C   0  0  0  0  0  0  0  0  0  0  0  0
  156.4640  214.2030  152.6860 C   0  0  0  0  0  0  0  0  0  0  0  0
  156.2440  214.1310  151.2720 N   0  0  0  0  0  0  0  0  0  0  0  0
  157.7780  214.0350  153.1920 N   0  0  0  0  0  0  0  0  0  0  0  0
  158.8020  213.1180  153.7780 C   0  0  0  0  0  2  0  0  0  0  0  0
  159.2270  214.0450  152.8500 C   0  0  1  0  0  3  0  0  0  0  0  0
  155.5110  214.4530  153.4660 O   0  0  0  0  0  0  0  0  0  0  0  0
  159.3840  213.5150  151.4090 C   0  0  1  0  0  3  0  0  0  0  0  0
  157.4480  212.8990  148.0050 C   0  0  0  0  0  1  0  0  0  0  0  0
  156.6930  213.5970  149.0320 N   0  0  0  0  0  2  0  0  0  0  0  0
  161.6400  209.6060  155.5100 C   0  0  0  0  0  3  0  0  0  0  0  0
  160.5840  209.1180  154.7280 C   0  0  0  0  0  0  0  0  0  0  0  0
  159.7780  208.0840  155.2210 C   0  0  0  0  0  3  0  0  0  0  0  0
  159.2520  206.5320  156.9510 F   0  0  0  0  0  0  0  0  0  0  0  0
  161.0910  208.0200  157.2550 C   0  0  0  0  0  3  0  0  0  0  0  0
  160.0330  207.5350  156.4800 C   0  0  0  0  0  0  0  0  0  0  0  0
  161.8950  209.0550  156.7700 C   0  0  0  0  0  3  0  0  0  0  0  0
  1 13  1  0  0  0  0
  2  5  1  0  0  0  0
  4  6  1  0  0  0  0
  5  7  1  0  0  0  0
  6  9  1  0  0  0  0
  6  2  2  0  0  0  0
  7  3  1  6  0  0  0
  7 17  1  0  0  0  0
  8  4  2  0  0  0  0
  8 12  1  0  0  0  0
 10  1  1  0  0  0  0
 11 19  1  0  0  0  0
 12 14  2  0  0  0  0
 13  9  1  0  0  0  0
 14  2  1  0  0  0  0
 14 11  1  0  0  0  0
 15  9  1  6  0  0  0
 15 28  1  0  0  0  0
 15  5  1  0  0  0  0
 16  1  1  0  0  0  0
 16  4  1  0  0  0  0
 17 32  1  1  0  0  0
 18  1  1  0  0  0  0
 19 17  1  0  0  0  0
 21 20  1  0  0  0  0
 21 23  2  0  0  0  0
 22 24  1  0  0  0  0
 22 27  2  0  0  0  0
 23 22  1  0  0  0  0
 24 25  1  0  0  0  0
 26 24  1  0  0  0  0
 26 25  1  1  0  0  0
 28 20  1  1  0  0  0
 28 26  1  0  0  0  0
 29 30  1  0  0  0  0
 30 21  1  0  0  0  0
 31 37  1  0  0  0  0
 32 33  1  0  0  0  0
 32 31  2  0  0  0  0
 33 36  2  0  0  0  0
 36 34  1  0  0  0  0
 36 35  1  0  0  0  0
 37 35  2  0  0  0  0
M  END
>  <MODEL>
6

>  <REMARK>
 VINA RESULT:      -2.5      3.387      7.982
  Name = 
  2 active torsions:
  status: ('A' for Active; 'I' for Inactive)
    1  A    between atoms: C_21  and  C_27
    2  A    between atoms: C_23  and  C_30
                            x       y       z     vdW  Elec       q    Type
                         _______ _______ _______ _____ _____    ______ ____

>  <TORSDO>
F 2

$$$$
