=
 OpenBabel11122413563D

 37 42  0  0  1  0  0  0  0  0999 V2000
  161.9480  206.0790  151.6140 C   0  0  1  0  0  3  0  0  0  0  0  0
  162.3490  205.4980  148.2400 O   0  0  0  0  0  0  0  0  0  0  0  0
  161.5270  208.0430  153.2060 C   0  0  2  0  0  3  0  0  0  0  0  0
  161.4570  206.4850  150.2400 C   0  0  2  0  0  3  0  0  0  0  0  0
  162.4860  207.3850  152.1900 C   0  0  2  0  0  3  0  0  0  0  0  0
  161.3360  205.3500  149.2040 C   0  0  2  0  0  3  0  0  0  0  0  0
  161.0420  207.0430  154.2750 C   0  0  0  0  0  2  0  0  0  0  0  0
  162.7060  208.2860  150.9810 C   0  0  0  0  0  2  0  0  0  0  0  0
  160.6770  203.9840  152.1790 C   0  0  0  0  0  2  0  0  0  0  0  0
  161.1740  205.6360  153.8810 N   0  0  0  0  0  2  0  0  0  0  0  0
  160.6230  206.8370  147.2410 O   0  0  0  0  0  0  0  0  0  0  0  0
  161.8860  206.2180  147.1040 C   0  0  1  0  0  3  0  0  0  0  0  0
  160.8330  205.4700  152.4720 C   0  0  1  0  0  3  0  0  0  0  0  0
  162.3820  207.5200  149.7740 N   0  0  2  0  0  0  0  0  0  0  0  0
  161.3080  203.9190  149.7610 C   0  0  1  0  0  3  0  0  0  0  0  0
  161.7340  207.6990  147.3440 C   0  0  2  0  0  3  0  0  0  0  0  0
  161.6880  208.3320  148.7580 C   0  0  2  0  0  3  0  0  0  0  0  0
  160.1770  203.7310  150.7660 C   0  0  0  0  0  2  0  0  0  0  0  0
  161.2770  201.5470  148.9720 C   0  0  0  0  0  3  0  0  0  0  0  0
  161.1860  202.9080  148.6610 C   0  0  0  0  0  0  0  0  0  0  0  0
  160.9870  203.3040  147.3290 C   0  0  0  0  0  3  0  0  0  0  0  0
  160.6870  202.7370  145.0030 O   0  0  0  0  0  1  0  0  0  0  0  0
  160.9760  200.9840  146.6350 C   0  0  0  0  0  3  0  0  0  0  0  0
  160.8830  202.3430  146.3190 C   0  0  0  0  0  0  0  0  0  0  0  0
  161.1730  200.5870  147.9610 C   0  0  0  0  0  3  0  0  0  0  0  0
  162.2640  209.7620  148.6490 C   0  0  0  0  0  2  0  0  0  0  0  0
  161.2550  210.8280  148.7540 N   0  0  0  0  0  0  0  0  0  0  0  0
  160.4290  212.7080  150.0630 C   0  0  0  0  0  1  0  0  0  0  0  0
  161.5170  211.6610  149.9220 C   0  0  0  0  0  2  0  0  0  0  0  0
  161.2990  211.6740  147.5680 C   0  0  0  0  0  2  0  0  0  0  0  0
  162.6010  212.4560  147.5270 C   0  0  0  0  0  2  0  0  0  0  0  0
  162.7650  213.0440  146.2720 O   0  0  0  0  0  1  0  0  0  0  0  0
  160.4100  208.6060  152.5550 O   0  0  0  0  0  0  0  0  0  0  0  0
  160.1130  209.8590  153.1400 C   0  0  0  0  0  0  0  0  0  0  0  0
  159.4270  209.7100  154.3370 F   0  0  0  0  0  0  0  0  0  0  0  0
  161.3760  210.6790  153.3720 C   0  0  0  0  0  1  0  0  0  0  0  0
  159.3040  210.5640  152.2700 F   0  0  0  0  0  0  0  0  0  0  0  0
  1  5  1  0  0  0  0
  1 13  1  0  0  0  0
  2  6  1  0  0  0  0
  3  7  1  0  0  0  0
  4  1  1  0  0  0  0
  5  3  1  0  0  0  0
  6 15  1  0  0  0  0
  6  4  1  0  0  0  0
  8  5  1  0  0  0  0
  9 13  1  0  0  0  0
 10  7  1  0  0  0  0
 11 16  1  0  0  0  0
 12 11  1  0  0  0  0
 12 16  1  0  0  0  0
 12  2  1  0  0  0  0
 13 10  1  0  0  0  0
 14  4  1  0  0  0  0
 14  8  1  0  0  0  0
 15 18  1  0  0  0  0
 16 17  1  0  0  0  0
 17 14  1  0  0  0  0
 18  9  1  0  0  0  0
 20 19  1  0  0  0  0
 20 15  1  0  0  0  0
 21 20  2  0  0  0  0
 22 24  1  0  0  0  0
 23 25  1  0  0  0  0
 24 23  2  0  0  0  0
 24 21  1  0  0  0  0
 25 19  2  0  0  0  0
 26 27  1  0  0  0  0
 26 17  1  0  0  0  0
 27 29  1  0  0  0  0
 29 28  1  0  0  0  0
 30 27  1  0  0  0  0
 31 30  1  0  0  0  0
 32 31  1  0  0  0  0
 33 34  1  0  0  0  0
 33  3  1  0  0  0  0
 34 36  1  0  0  0  0
 34 35  1  0  0  0  0
 37 34  1  0  0  0  0
M  END
>  <MODEL>
1

>  <REMARK>
 VINA RESULT:      -7.4      0.000      0.000
  Name = 
  8 active torsions:
  status: ('A' for Active; 'I' for Inactive)
    1  A    between atoms: C_1  and  N_4
    2  A    between atoms: C_1  and  C_27
    3  A    between atoms: C_2  and  O_22
    4  A    between atoms: N_4  and  C_12
    5  A    between atoms: N_4  and  C_37
    6  A    between atoms: C_6  and  O_22
    7  A    between atoms: C_8  and  C_12
    8  A    between atoms: C_23  and  C_30
                            x       y       z     vdW  Elec       q    Type
                         _______ _______ _______ _____ _____    ______ ____

>  <TORSDO>
F 8

$$$$
=
 OpenBabel11122413563D

 37 42  0  0  1  0  0  0  0  0999 V2000
  160.4770  205.7930  150.4560 C   0  0  1  0  0  3  0  0  0  0  0  0
  160.6350  208.7520  152.2170 O   0  0  0  0  0  0  0  0  0  0  0  0
  161.1260  204.8690  148.1560 C   0  0  2  0  0  3  0  0  0  0  0  0
  161.3430  207.0050  150.7290 C   0  0  2  0  0  3  0  0  0  0  0  0
  160.2480  205.8610  148.9500 C   0  0  2  0  0  3  0  0  0  0  0  0
  161.3310  207.5310  152.1780 C   0  0  2  0  0  3  0  0  0  0  0  0
  161.0520  203.4410  148.7330 C   0  0  0  0  0  2  0  0  0  0  0  0
  160.5680  207.3010  148.5700 C   0  0  0  0  0  2  0  0  0  0  0  0
  160.9100  204.2240  152.3740 C   0  0  0  0  0  2  0  0  0  0  0  0
  160.5890  203.3820  150.1240 N   0  0  0  0  0  2  0  0  0  0  0  0
  162.8530  209.5500  151.7560 O   0  0  0  0  0  0  0  0  0  0  0  0
  161.5200  209.8600  152.1090 C   0  0  1  0  0  3  0  0  0  0  0  0
  161.1510  204.4870  150.8940 C   0  0  1  0  0  3  0  0  0  0  0  0
  160.8920  208.0380  149.7960 N   0  0  2  0  0  0  0  0  0  0  0  0
  160.8100  206.5630  153.2510 C   0  0  1  0  0  3  0  0  0  0  0  0
  162.0560  210.0750  150.7160 C   0  0  2  0  0  3  0  0  0  0  0  0
  161.9950  208.9980  149.6040 C   0  0  2  0  0  3  0  0  0  0  0  0
  161.5950  205.2560  153.2550 C   0  0  0  0  0  2  0  0  0  0  0  0
  159.9510  206.7470  155.5910 C   0  0  0  0  0  3  0  0  0  0  0  0
  160.8500  207.1860  154.6130 C   0  0  0  0  0  0  0  0  0  0  0  0
  161.7680  208.2030  154.9210 C   0  0  0  0  0  3  0  0  0  0  0  0
  162.6890  209.7800  156.4970 O   0  0  0  0  0  1  0  0  0  0  0  0
  160.8800  208.3320  157.1690 C   0  0  0  0  0  3  0  0  0  0  0  0
  161.7810  208.7740  156.1960 C   0  0  0  0  0  0  0  0  0  0  0  0
  159.9660  207.3190  156.8670 C   0  0  0  0  0  3  0  0  0  0  0  0
  161.9110  209.7310  148.2460 C   0  0  0  0  0  2  0  0  0  0  0  0
  161.9330  211.1980  148.3510 N   0  0  0  0  0  0  0  0  0  0  0  0
  163.0830  212.9250  147.0750 C   0  0  0  0  0  1  0  0  0  0  0  0
  163.2440  211.7140  147.9750 C   0  0  0  0  0  2  0  0  0  0  0  0
  160.9380  211.7770  147.4570 C   0  0  0  0  0  2  0  0  0  0  0  0
  160.0310  212.7250  148.2230 C   0  0  0  0  0  2  0  0  0  0  0  0
  160.5690  212.9880  149.4830 O   0  0  0  0  0  1  0  0  0  0  0  0
  162.4720  205.2920  148.1310 O   0  0  0  0  0  0  0  0  0  0  0  0
  162.9500  205.2440  146.8010 C   0  0  0  0  0  0  0  0  0  0  0  0
  164.2770  204.8430  146.7540 F   0  0  0  0  0  0  0  0  0  0  0  0
  162.1030  204.3170  145.9370 C   0  0  0  0  0  1  0  0  0  0  0  0
  162.8690  206.5150  146.2640 F   0  0  0  0  0  0  0  0  0  0  0  0
  1  4  1  0  0  0  0
  1 13  1  0  0  0  0
  3  7  1  0  0  0  0
  3  5  1  0  0  0  0
  4  6  1  0  0  0  0
  5  1  1  0  0  0  0
  6  2  1  0  0  0  0
  6 15  1  0  0  0  0
  7 10  1  0  0  0  0
  8  5  1  0  0  0  0
  8 14  1  0  0  0  0
  9 18  1  0  0  0  0
 10 13  1  0  0  0  0
 11 12  1  0  0  0  0
 12  2  1  0  0  0  0
 13  9  1  0  0  0  0
 14  4  1  0  0  0  0
 15 18  1  0  0  0  0
 15 20  1  0  0  0  0
 16 11  1  0  0  0  0
 16 12  1  0  0  0  0
 17 14  1  0  0  0  0
 17 16  1  0  0  0  0
 19 25  1  0  0  0  0
 20 21  1  0  0  0  0
 20 19  2  0  0  0  0
 21 24  2  0  0  0  0
 24 22  1  0  0  0  0
 24 23  1  0  0  0  0
 25 23  2  0  0  0  0
 26 27  1  0  0  0  0
 26 17  1  0  0  0  0
 28 29  1  0  0  0  0
 29 27  1  0  0  0  0
 30 31  1  0  0  0  0
 30 27  1  0  0  0  0
 31 32  1  0  0  0  0
 33  3  1  0  0  0  0
 34 33  1  0  0  0  0
 35 34  1  0  0  0  0
 36 34  1  0  0  0  0
 37 34  1  0  0  0  0
M  END
>  <MODEL>
2

>  <REMARK>
 VINA RESULT:      -7.4      2.768      6.457
  Name = 
  8 active torsions:
  status: ('A' for Active; 'I' for Inactive)
    1  A    between atoms: C_1  and  N_4
    2  A    between atoms: C_1  and  C_27
    3  A    between atoms: C_2  and  O_22
    4  A    between atoms: N_4  and  C_12
    5  A    between atoms: N_4  and  C_37
    6  A    between atoms: C_6  and  O_22
    7  A    between atoms: C_8  and  C_12
    8  A    between atoms: C_23  and  C_30
                            x       y       z     vdW  Elec       q    Type
                         _______ _______ _______ _____ _____    ______ ____

>  <TORSDO>
F 8

$$$$
=
 OpenBabel11122413563D

 37 42  0  0  1  0  0  0  0  0999 V2000
  161.8470  207.3810  152.0740 C   0  0  1  0  0  3  0  0  0  0  0  0
  162.3140  206.0130  148.9450 O   0  0  0  0  0  0  0  0  0  0  0  0
  161.3570  209.6600  153.1400 C   0  0  2  0  0  3  0  0  0  0  0  0
  161.3690  207.4300  150.6380 C   0  0  2  0  0  3  0  0  0  0  0  0
  162.3470  208.8000  152.3230 C   0  0  2  0  0  3  0  0  0  0  0  0
  161.2890  206.0770  149.9060 C   0  0  2  0  0  3  0  0  0  0  0  0
  160.8780  208.9360  154.4140 C   0  0  0  0  0  2  0  0  0  0  0  0
  162.5650  209.3880  150.9340 C   0  0  0  0  0  2  0  0  0  0  0  0
  160.6140  205.4530  153.1170 C   0  0  0  0  0  2  0  0  0  0  0  0
  161.0470  207.4790  154.3740 N   0  0  0  0  0  2  0  0  0  0  0  0
  160.5750  207.0260  147.6350 O   0  0  0  0  0  0  0  0  0  0  0  0
  161.8530  206.4250  147.6640 C   0  0  1  0  0  3  0  0  0  0  0  0
  160.7320  206.9690  153.0430 C   0  0  1  0  0  3  0  0  0  0  0  0
  162.2770  208.3450  149.9450 N   0  0  2  0  0  0  0  0  0  0  0  0
  161.2850  204.8220  150.7930 C   0  0  1  0  0  3  0  0  0  0  0  0
  161.6650  207.9160  147.5380 C   0  0  2  0  0  3  0  0  0  0  0  0
  161.5820  208.8700  148.7560 C   0  0  2  0  0  3  0  0  0  0  0  0
  160.1420  204.8530  151.8010 C   0  0  0  0  0  2  0  0  0  0  0  0
  161.1230  202.3340  150.6130 C   0  0  0  0  0  3  0  0  0  0  0  0
  161.2020  203.5730  149.9680 C   0  0  0  0  0  0  0  0  0  0  0  0
  161.2070  203.6250  148.5650 C   0  0  0  0  0  3  0  0  0  0  0  0
  161.1430  202.5010  146.4320 O   0  0  0  0  0  1  0  0  0  0  0  0
  161.0590  201.2110  148.4680 C   0  0  0  0  0  3  0  0  0  0  0  0
  161.1370  202.4460  147.8190 C   0  0  0  0  0  0  0  0  0  0  0  0
  161.0520  201.1550  149.8650 C   0  0  0  0  0  3  0  0  0  0  0  0
  162.1280  210.2460  148.3110 C   0  0  0  0  0  2  0  0  0  0  0  0
  161.1360  211.3310  148.3570 N   0  0  0  0  0  0  0  0  0  0  0  0
  163.1740  212.6510  148.1700 C   0  0  0  0  0  1  0  0  0  0  0  0
  161.7720  212.5840  148.7460 C   0  0  0  0  0  2  0  0  0  0  0  0
  160.5330  211.5130  147.0420 C   0  0  0  0  0  2  0  0  0  0  0  0
  159.7820  212.8320  146.9850 C   0  0  0  0  0  2  0  0  0  0  0  0
  158.4120  212.6080  147.1180 O   0  0  0  0  0  1  0  0  0  0  0  0
  160.2380  210.0210  152.3610 O   0  0  0  0  0  0  0  0  0  0  0  0
  159.9200  211.3770  152.6040 C   0  0  0  0  0  0  0  0  0  0  0  0
  160.1020  212.1520  151.4670 F   0  0  0  0  0  0  0  0  0  0  0  0
  158.4900  211.5330  153.1070 C   0  0  0  0  0  1  0  0  0  0  0  0
  160.7680  211.8530  153.5840 F   0  0  0  0  0  0  0  0  0  0  0  0
  1  5  1  0  0  0  0
  1 13  1  0  0  0  0
  2  6  1  0  0  0  0
  3  7  1  0  0  0  0
  4  1  1  0  0  0  0
  5  3  1  0  0  0  0
  6  4  1  0  0  0  0
  6 15  1  0  0  0  0
  8  5  1  0  0  0  0
 10  7  1  0  0  0  0
 11 12  1  0  0  0  0
 12  2  1  0  0  0  0
 13  9  1  0  0  0  0
 13 10  1  0  0  0  0
 14  4  1  0  0  0  0
 14  8  1  0  0  0  0
 15 18  1  0  0  0  0
 16 11  1  0  0  0  0
 16 12  1  0  0  0  0
 16 17  1  0  0  0  0
 17 14  1  0  0  0  0
 18  9  1  0  0  0  0
 20 19  1  0  0  0  0
 20 15  1  0  0  0  0
 21 20  2  0  0  0  0
 22 24  1  0  0  0  0
 23 25  1  0  0  0  0
 24 23  2  0  0  0  0
 24 21  1  0  0  0  0
 25 19  2  0  0  0  0
 26 27  1  0  0  0  0
 26 17  1  0  0  0  0
 27 29  1  0  0  0  0
 28 29  1  0  0  0  0
 30 27  1  0  0  0  0
 31 30  1  0  0  0  0
 31 32  1  0  0  0  0
 33 34  1  0  0  0  0
 33  3  1  0  0  0  0
 34 36  1  0  0  0  0
 34 37  1  0  0  0  0
 35 34  1  0  0  0  0
M  END
>  <MODEL>
3

>  <REMARK>
 VINA RESULT:      -7.2      1.435      1.845
  Name = 
  8 active torsions:
  status: ('A' for Active; 'I' for Inactive)
    1  A    between atoms: C_1  and  N_4
    2  A    between atoms: C_1  and  C_27
    3  A    between atoms: C_2  and  O_22
    4  A    between atoms: N_4  and  C_12
    5  A    between atoms: N_4  and  C_37
    6  A    between atoms: C_6  and  O_22
    7  A    between atoms: C_8  and  C_12
    8  A    between atoms: C_23  and  C_30
                            x       y       z     vdW  Elec       q    Type
                         _______ _______ _______ _____ _____    ______ ____

>  <TORSDO>
F 8

$$$$
=
 OpenBabel11122413563D

 37 42  0  0  1  0  0  0  0  0999 V2000
  161.7760  207.4370  152.3150 C   0  0  1  0  0  3  0  0  0  0  0  0
  162.5400  206.9050  148.9960 O   0  0  0  0  0  0  0  0  0  0  0  0
  161.1760  209.3760  153.8790 C   0  0  2  0  0  3  0  0  0  0  0  0
  161.4340  207.8600  150.9020 C   0  0  2  0  0  3  0  0  0  0  0  0
  162.2430  208.7360  152.9640 C   0  0  2  0  0  3  0  0  0  0  0  0
  161.4300  206.7400  149.8430 C   0  0  2  0  0  3  0  0  0  0  0  0
  160.5850  208.3590  154.8770 C   0  0  0  0  0  2  0  0  0  0  0  0
  162.5860  209.6550  151.7980 C   0  0  0  0  0  2  0  0  0  0  0  0
  160.4630  205.3290  152.7120 C   0  0  0  0  0  2  0  0  0  0  0  0
  160.7650  206.9580  154.4800 N   0  0  0  0  0  2  0  0  0  0  0  0
  160.9250  208.2510  147.8360 O   0  0  0  0  0  0  0  0  0  0  0  0
  162.1980  207.6390  147.8270 C   0  0  1  0  0  3  0  0  0  0  0  0
  160.5790  206.8110  153.0400 C   0  0  1  0  0  3  0  0  0  0  0  0
  162.3970  208.9050  150.5530 N   0  0  2  0  0  0  0  0  0  0  0  0
  161.3500  205.3000  150.3750 C   0  0  1  0  0  3  0  0  0  0  0  0
  162.0140  209.1160  148.0700 C   0  0  2  0  0  3  0  0  0  0  0  0
  161.8130  209.7290  149.4790 C   0  0  2  0  0  3  0  0  0  0  0  0
  160.1190  205.0940  151.2490 C   0  0  0  0  0  2  0  0  0  0  0  0
  161.0610  202.9650  149.5310 C   0  0  0  0  0  3  0  0  0  0  0  0
  161.3510  204.3050  149.2540 C   0  0  0  0  0  0  0  0  0  0  0  0
  161.6440  204.6930  147.9370 C   0  0  0  0  0  3  0  0  0  0  0  0
  161.9370  204.1320  145.6090 O   0  0  0  0  0  1  0  0  0  0  0  0
  161.3560  202.4080  147.1930 C   0  0  0  0  0  3  0  0  0  0  0  0
  161.6470  203.7450  146.9100 C   0  0  0  0  0  0  0  0  0  0  0  0
  161.0630  202.0180  148.5030 C   0  0  0  0  0  3  0  0  0  0  0  0
  162.3900  211.1620  149.4530 C   0  0  0  0  0  2  0  0  0  0  0  0
  161.4490  212.1820  148.9640 N   0  0  0  0  0  0  0  0  0  0  0  0
  161.1480  212.7450  146.6140 C   0  0  0  0  0  1  0  0  0  0  0  0
  160.8350  211.7490  147.7140 C   0  0  0  0  0  2  0  0  0  0  0  0
  160.3910  212.3950  149.9440 C   0  0  0  0  0  2  0  0  0  0  0  0
  159.9030  213.8330  149.8880 C   0  0  0  0  0  2  0  0  0  0  0  0
  159.8560  214.3710  151.1750 O   0  0  0  0  0  1  0  0  0  0  0  0
  160.1330  209.9450  153.1200 O   0  0  0  0  0  0  0  0  0  0  0  0
  159.8200  211.2220  153.6420 C   0  0  0  0  0  0  0  0  0  0  0  0
  160.8240  212.1390  153.3700 F   0  0  0  0  0  0  0  0  0  0  0  0
  158.4940  211.7370  153.0960 C   0  0  0  0  0  1  0  0  0  0  0  0
  159.7010  211.1120  155.0130 F   0  0  0  0  0  0  0  0  0  0  0  0
  1  5  1  0  0  0  0
  1 13  1  0  0  0  0
  2  6  1  0  0  0  0
  3  7  1  0  0  0  0
  4  1  1  0  0  0  0
  5  3  1  0  0  0  0
  6 15  1  0  0  0  0
  6  4  1  0  0  0  0
  8  5  1  0  0  0  0
  9 13  1  0  0  0  0
 10  7  1  0  0  0  0
 11 16  1  0  0  0  0
 12 11  1  0  0  0  0
 12 16  1  0  0  0  0
 12  2  1  0  0  0  0
 13 10  1  0  0  0  0
 14  4  1  0  0  0  0
 14  8  1  0  0  0  0
 15 18  1  0  0  0  0
 16 17  1  0  0  0  0
 17 14  1  0  0  0  0
 18  9  1  0  0  0  0
 20 19  1  0  0  0  0
 20 15  1  0  0  0  0
 21 20  2  0  0  0  0
 22 24  1  0  0  0  0
 23 25  1  0  0  0  0
 24 23  2  0  0  0  0
 24 21  1  0  0  0  0
 25 19  2  0  0  0  0
 26 17  1  0  0  0  0
 27 26  1  0  0  0  0
 27 30  1  0  0  0  0
 28 29  1  0  0  0  0
 29 27  1  0  0  0  0
 31 30  1  0  0  0  0
 31 32  1  0  0  0  0
 33 34  1  0  0  0  0
 33  3  1  0  0  0  0
 34 37  1  0  0  0  0
 35 34  1  0  0  0  0
 36 34  1  0  0  0  0
M  END
>  <MODEL>
4

>  <REMARK>
 VINA RESULT:      -5.4      1.625      2.150
  Name = 
  8 active torsions:
  status: ('A' for Active; 'I' for Inactive)
    1  A    between atoms: C_1  and  N_4
    2  A    between atoms: C_1  and  C_27
    3  A    between atoms: C_2  and  O_22
    4  A    between atoms: N_4  and  C_12
    5  A    between atoms: N_4  and  C_37
    6  A    between atoms: C_6  and  O_22
    7  A    between atoms: C_8  and  C_12
    8  A    between atoms: C_23  and  C_30
                            x       y       z     vdW  Elec       q    Type
                         _______ _______ _______ _____ _____    ______ ____

>  <TORSDO>
F 8

$$$$
=
 OpenBabel11122413563D

 37 42  0  0  1  0  0  0  0  0999 V2000
  161.5660  212.2520  150.0130 C   0  0  1  0  0  3  0  0  0  0  0  0
  162.1550  209.5050  152.0090 O   0  0  0  0  0  0  0  0  0  0  0  0
  161.2050  212.8070  147.5370 C   0  0  2  0  0  3  0  0  0  0  0  0
  161.2120  210.7940  150.2160 C   0  0  2  0  0  3  0  0  0  0  0  0
  162.1740  212.2710  148.6140 C   0  0  2  0  0  3  0  0  0  0  0  0
  161.0670  210.3310  151.6790 C   0  0  2  0  0  3  0  0  0  0  0  0
  160.5600  214.1440  147.9540 C   0  0  0  0  0  2  0  0  0  0  0  0
  162.5570  210.8230  148.3330 C   0  0  0  0  0  2  0  0  0  0  0  0
  160.0810  213.5210  151.5960 C   0  0  0  0  0  2  0  0  0  0  0  0
  160.5960  214.4010  149.3980 N   0  0  0  0  0  2  0  0  0  0  0  0
  160.6280  207.8620  151.1510 O   0  0  0  0  0  0  0  0  0  0  0  0
  161.8390  208.1300  151.8280 C   0  0  1  0  0  3  0  0  0  0  0  0
  160.3440  213.1690  150.1390 C   0  0  1  0  0  3  0  0  0  0  0  0
  162.2540  210.0290  149.5280 N   0  0  2  0  0  0  0  0  0  0  0  0
  160.8750  211.4380  152.7270 C   0  0  1  0  0  3  0  0  0  0  0  0
  161.8000  207.7020  150.3830 C   0  0  2  0  0  3  0  0  0  0  0  0
  161.7080  208.6990  149.2010 C   0  0  2  0  0  3  0  0  0  0  0  0
  159.6630  212.3060  152.4090 C   0  0  0  0  0  2  0  0  0  0  0  0
  159.4790  210.4920  154.5720 C   0  0  0  0  0  3  0  0  0  0  0  0
  160.7440  210.8650  154.1060 C   0  0  0  0  0  0  0  0  0  0  0  0
  161.8640  210.7030  154.9360 C   0  0  0  0  0  3  0  0  0  0  0  0
  162.8250  210.0150  157.0400 O   0  0  0  0  0  1  0  0  0  0  0  0
  160.4480  209.8030  156.6810 C   0  0  0  0  0  3  0  0  0  0  0  0
  161.7150  210.1740  156.2210 C   0  0  0  0  0  0  0  0  0  0  0  0
  159.3310  209.9620  155.8570 C   0  0  0  0  0  3  0  0  0  0  0  0
  162.4130  208.0530  147.9870 C   0  0  0  0  0  2  0  0  0  0  0  0
  162.1780  206.6070  147.8530 N   0  0  0  0  0  0  0  0  0  0  0  0
  160.8310  204.9360  149.0040 C   0  0  0  0  0  1  0  0  0  0  0  0
  160.8260  206.2700  148.2820 C   0  0  0  0  0  2  0  0  0  0  0  0
  162.3310  206.2030  146.4610 C   0  0  0  0  0  2  0  0  0  0  0  0
  160.9760  206.1520  145.7760 C   0  0  0  0  0  2  0  0  0  0  0  0
  161.1010  205.5770  144.5110 O   0  0  0  0  0  1  0  0  0  0  0  0
  160.1900  211.8680  147.2560 O   0  0  0  0  0  0  0  0  0  0  0  0
  159.5730  212.2030  146.0280 C   0  0  0  0  0  0  0  0  0  0  0  0
  159.7060  211.1820  145.0990 F   0  0  0  0  0  0  0  0  0  0  0  0
  158.0980  212.5340  146.2180 C   0  0  0  0  0  1  0  0  0  0  0  0
  160.1980  213.3260  145.5210 F   0  0  0  0  0  0  0  0  0  0  0  0
  1 13  1  0  0  0  0
  1  4  1  0  0  0  0
  3  7  1  0  0  0  0
  3  5  1  0  0  0  0
  4  6  1  0  0  0  0
  5  1  1  0  0  0  0
  6  2  1  0  0  0  0
  6 15  1  0  0  0  0
  7 10  1  0  0  0  0
  8  5  1  0  0  0  0
  8 14  1  0  0  0  0
  9 18  1  0  0  0  0
 10 13  1  0  0  0  0
 11 12  1  0  0  0  0
 12  2  1  0  0  0  0
 13  9  1  0  0  0  0
 14  4  1  0  0  0  0
 15 20  1  0  0  0  0
 16 11  1  0  0  0  0
 16 12  1  0  0  0  0
 17 14  1  0  0  0  0
 17 16  1  0  0  0  0
 18 15  1  0  0  0  0
 19 25  1  0  0  0  0
 20 19  2  0  0  0  0
 20 21  1  0  0  0  0
 21 24  2  0  0  0  0
 24 23  1  0  0  0  0
 24 22  1  0  0  0  0
 25 23  2  0  0  0  0
 26 17  1  0  0  0  0
 27 26  1  0  0  0  0
 27 29  1  0  0  0  0
 29 28  1  0  0  0  0
 30 27  1  0  0  0  0
 31 30  1  0  0  0  0
 32 31  1  0  0  0  0
 33  3  1  0  0  0  0
 34 36  1  0  0  0  0
 34 33  1  0  0  0  0
 35 34  1  0  0  0  0
 37 34  1  0  0  0  0
M  END
>  <MODEL>
5

>  <REMARK>
 VINA RESULT:      -5.0      3.124      7.961
  Name = 
  8 active torsions:
  status: ('A' for Active; 'I' for Inactive)
    1  A    between atoms: C_1  and  N_4
    2  A    between atoms: C_1  and  C_27
    3  A    between atoms: C_2  and  O_22
    4  A    between atoms: N_4  and  C_12
    5  A    between atoms: N_4  and  C_37
    6  A    between atoms: C_6  and  O_22
    7  A    between atoms: C_8  and  C_12
    8  A    between atoms: C_23  and  C_30
                            x       y       z     vdW  Elec       q    Type
                         _______ _______ _______ _____ _____    ______ ____

>  <TORSDO>
F 8

$$$$
