=
 OpenBabel11122413503D

 37 42  0  0  1  0  0  0  0  0999 V2000
  161.5340  213.2820  146.7630 C   0  0  0  0  0  0  0  0  0  0  0  0
  160.4130  212.4930  150.6960 C   0  0  0  0  0  0  0  0  0  0  0  0
  162.2320  209.6150  152.5520 C   0  0  0  0  0  2  0  0  0  0  0  0
  160.2620  214.1530  148.8170 C   0  0  2  0  0  3  0  0  0  0  0  0
  161.1160  211.2930  151.0490 N   0  0  0  0  0  0  0  0  0  0  0  0
  160.8350  212.9620  149.5340 C   0  0  0  0  0  0  0  0  0  0  0  0
  160.9560  210.4520  152.2570 C   0  0  2  0  0  3  0  0  0  0  0  0
  158.8440  214.4530  149.3020 C   0  0  0  0  0  2  0  0  0  0  0  0
  161.9820  212.1800  149.0170 C   0  0  2  0  0  3  0  0  0  0  0  0
  162.6790  214.2750  146.8810 C   0  0  0  0  0  1  0  0  0  0  0  0
  159.2760  213.0860  152.8460 C   0  0  0  0  0  2  0  0  0  0  0  0
  158.7850  214.4130  150.8270 C   0  0  0  0  0  2  0  0  0  0  0  0
  161.8680  211.9760  147.4990 C   0  0  0  0  0  2  0  0  0  0  0  0
  161.6480  208.0530  151.0180 C   0  0  1  0  0  3  0  0  0  0  0  0
  162.7100  208.8460  151.4720 O   0  0  0  0  0  0  0  0  0  0  0  0
  159.1480  213.0160  151.3430 C   0  0  1  0  0  3  0  0  0  0  0  0
  161.9330  210.9060  149.8890 C   0  0  2  0  0  3  0  0  0  0  0  0
  160.2310  213.8920  147.3060 C   0  0  0  0  0  2  0  0  0  0  0  0
  160.5600  211.2610  153.5110 C   0  0  1  0  0  3  0  0  0  0  0  0
  161.3320  212.9630  145.2970 C   0  0  0  0  0  1  0  0  0  0  0  0
  161.2080  208.4820  149.6440 C   0  0  0  0  0  3  0  0  0  0  0  0
  161.3050  209.7330  149.1610 C   0  0  0  0  0  3  0  0  0  0  0  0
  159.1970  211.7470  153.3910 N   0  0  0  0  0  2  0  0  0  0  0  0
  161.3480  211.0240  155.8770 C   0  0  0  0  0  3  0  0  0  0  0  0
  160.6700  210.4710  154.7850 C   0  0  0  0  0  0  0  0  0  0  0  0
  160.1080  209.1900  154.8910 C   0  0  0  0  0  3  0  0  0  0  0  0
  159.6340  207.1100  156.1900 C   0  0  0  0  0  1  0  0  0  0  0  0
  160.9070  209.0240  157.1700 C   0  0  0  0  0  3  0  0  0  0  0  0
  160.2270  208.4680  156.0820 C   0  0  0  0  0  0  0  0  0  0  0  0
  161.4660  210.3000  157.0690 C   0  0  0  0  0  3  0  0  0  0  0  0
  162.0300  206.6120  151.0270 C   0  0  0  0  0  0  0  0  0  0  0  0
  161.2210  205.6710  150.3200 N   0  0  0  0  0  2  0  0  0  0  0  0
  163.0520  206.2290  151.6620 O   0  0  0  0  0  0  0  0  0  0  0  0
  161.2850  203.7120  148.8620 C   0  0  0  0  0  1  0  0  0  0  0  0
  161.5310  204.2500  150.2620 C   0  0  2  0  0  3  0  0  0  0  0  0
  160.9010  203.9880  152.5680 O   0  0  0  0  0  1  0  0  0  0  0  0
  160.6950  203.4880  151.2810 C   0  0  0  0  0  2  0  0  0  0  0  0
  1 10  1  0  0  0  0
  1 18  1  0  0  0  0
  1 13  1  0  0  0  0
  2  5  1  0  0  0  0
  2 16  1  0  0  0  0
  4 18  1  6  0  0  0
  4  8  1  0  0  0  0
  4  6  1  0  0  0  0
  5  7  1  0  0  0  0
  6  2  2  0  0  0  0
  7  3  1  1  0  0  0
  7 19  1  0  0  0  0
  8 12  1  0  0  0  0
  9 13  1  6  0  0  0
  9  6  1  0  0  0  0
  9 17  1  0  0  0  0
 11 23  1  0  0  0  0
 14 31  1  6  0  0  0
 14 15  1  0  0  0  0
 15  3  1  0  0  0  0
 16 12  1  6  0  0  0
 16 11  1  0  0  0  0
 17 22  1  6  0  0  0
 17  5  1  0  0  0  0
 19 25  1  1  0  0  0
 20  1  1  0  0  0  0
 21 14  1  0  0  0  0
 22 21  2  0  0  0  0
 23 19  1  0  0  0  0
 24 30  1  0  0  0  0
 25 26  1  0  0  0  0
 25 24  2  0  0  0  0
 26 29  2  0  0  0  0
 29 27  1  0  0  0  0
 29 28  1  0  0  0  0
 30 28  2  0  0  0  0
 31 33  2  0  0  0  0
 32 31  1  0  0  0  0
 35 34  1  6  0  0  0
 35 32  1  0  0  0  0
 35 37  1  0  0  0  0
 37 36  1  0  0  0  0
M  END
>  <MODEL>
1

>  <REMARK>
 VINA RESULT:      -6.3      0.000      0.000
  Name = 
  4 active torsions:
  status: ('A' for Active; 'I' for Inactive)
    1  A    between atoms: CA_4  and  N_12
    2  A    between atoms: CA_4  and  C_37
    3  A    between atoms: C_8  and  C_18
    4  A    between atoms: C_23  and  C_30
                            x       y       z     vdW  Elec       q    Type
                         _______ _______ _______ _____ _____    ______ ____

>  <TORSDO>
F 4

$$$$
=
 OpenBabel11122413503D

 37 42  0  0  1  0  0  0  0  0999 V2000
  161.2990  203.3480  151.8510 C   0  0  0  0  0  0  0  0  0  0  0  0
  161.5160  206.7670  149.4820 C   0  0  0  0  0  0  0  0  0  0  0  0
  162.5470  210.0900  151.1940 C   0  0  0  0  0  2  0  0  0  0  0  0
  161.3660  204.2600  149.4510 C   0  0  2  0  0  3  0  0  0  0  0  0
  161.7420  207.8440  150.4040 N   0  0  0  0  0  0  0  0  0  0  0  0
  161.6240  205.5970  150.0890 C   0  0  0  0  0  0  0  0  0  0  0  0
  161.7170  209.3010  150.1430 C   0  0  2  0  0  3  0  0  0  0  0  0
  160.4890  204.4080  148.2070 C   0  0  0  0  0  2  0  0  0  0  0  0
  162.0650  205.7530  151.4940 C   0  0  2  0  0  3  0  0  0  0  0  0
  162.7020  202.7650  151.8140 C   0  0  0  0  0  1  0  0  0  0  0  0
  161.6160  207.9390  147.2730 C   0  0  0  0  0  2  0  0  0  0  0  0
  160.9940  205.5540  147.3350 C   0  0  0  0  0  2  0  0  0  0  0  0
  161.3180  204.7760  152.4150 C   0  0  0  0  0  2  0  0  0  0  0  0
  160.8480  210.0230  152.6920 C   0  0  1  0  0  3  0  0  0  0  0  0
  162.2260  209.8210  152.5400 O   0  0  0  0  0  0  0  0  0  0  0  0
  160.9190  206.8830  148.0960 C   0  0  1  0  0  3  0  0  0  0  0  0
  161.8290  207.2580  151.7490 C   0  0  2  0  0  3  0  0  0  0  0  0
  160.6670  203.3280  150.4490 C   0  0  0  0  0  2  0  0  0  0  0  0
  162.1880  209.6710  148.7200 C   0  0  1  0  0  3  0  0  0  0  0  0
  160.4520  202.4880  152.7640 C   0  0  0  0  0  1  0  0  0  0  0  0
  160.1430  208.7210  152.9640 C   0  0  0  0  0  3  0  0  0  0  0  0
  160.5550  207.5180  152.5300 C   0  0  0  0  0  3  0  0  0  0  0  0
  161.2070  209.2470  147.7360 N   0  0  0  0  0  2  0  0  0  0  0  0
  163.6590  211.5750  148.0230 C   0  0  0  0  0  3  0  0  0  0  0  0
  162.4330  211.1430  148.5410 C   0  0  0  0  0  0  0  0  0  0  0  0
  161.4540  212.0860  148.8890 C   0  0  0  0  0  3  0  0  0  0  0  0
  160.6670  214.4470  149.0950 C   0  0  0  0  0  1  0  0  0  0  0  0
  162.9310  213.8780  148.2050 C   0  0  0  0  0  3  0  0  0  0  0  0
  161.7040  213.4510  148.7220 C   0  0  0  0  0  0  0  0  0  0  0  0
  163.9070  212.9410  147.8550 C   0  0  0  0  0  3  0  0  0  0  0  0
  160.5800  211.0090  153.7760 C   0  0  0  0  0  0  0  0  0  0  0  0
  159.4470  211.8730  153.6700 N   0  0  0  0  0  2  0  0  0  0  0  0
  161.3520  211.0850  154.7720 O   0  0  0  0  0  0  0  0  0  0  0  0
  158.0510  212.2860  155.6310 C   0  0  0  0  0  1  0  0  0  0  0  0
  159.1020  212.8520  154.6910 C   0  0  2  0  0  3  0  0  0  0  0  0
  158.8570  214.1300  152.6690 O   0  0  0  0  0  1  0  0  0  0  0  0
  158.6020  214.1340  154.0420 C   0  0  0  0  0  2  0  0  0  0  0  0
  1 13  1  0  0  0  0
  1 20  1  0  0  0  0
  2  6  2  0  0  0  0
  2  5  1  0  0  0  0
  3 15  1  0  0  0  0
  4  8  1  6  0  0  0
  4  6  1  0  0  0  0
  4 18  1  0  0  0  0
  5 17  1  0  0  0  0
  6  9  1  0  0  0  0
  7  5  1  0  0  0  0
  7  3  1  1  0  0  0
  9 17  1  0  0  0  0
  9 13  1  1  0  0  0
 10  1  1  0  0  0  0
 11 23  1  0  0  0  0
 12 16  1  0  0  0  0
 12  8  1  0  0  0  0
 14 21  1  0  0  0  0
 14 31  1  1  0  0  0
 15 14  1  0  0  0  0
 16 11  1  6  0  0  0
 16  2  1  0  0  0  0
 17 22  1  6  0  0  0
 18  1  1  0  0  0  0
 19 25  1  1  0  0  0
 19  7  1  0  0  0  0
 22 21  2  0  0  0  0
 23 19  1  0  0  0  0
 24 25  1  0  0  0  0
 25 26  2  0  0  0  0
 28 29  2  0  0  0  0
 29 26  1  0  0  0  0
 29 27  1  0  0  0  0
 30 24  2  0  0  0  0
 30 28  1  0  0  0  0
 31 33  2  0  0  0  0
 32 31  1  0  0  0  0
 32 35  1  0  0  0  0
 35 34  1  1  0  0  0
 36 37  1  0  0  0  0
 37 35  1  0  0  0  0
M  END
>  <MODEL>
2

>  <REMARK>
 VINA RESULT:      -4.0      2.276      8.176
  Name = 
  4 active torsions:
  status: ('A' for Active; 'I' for Inactive)
    1  A    between atoms: CA_4  and  N_12
    2  A    between atoms: CA_4  and  C_37
    3  A    between atoms: C_8  and  C_18
    4  A    between atoms: C_23  and  C_30
                            x       y       z     vdW  Elec       q    Type
                         _______ _______ _______ _____ _____    ______ ____

>  <TORSDO>
F 4

$$$$
=
 OpenBabel11122413503D

 37 42  0  0  1  0  0  0  0  0999 V2000
  161.2910  203.3050  151.8320 C   0  0  0  0  0  0  0  0  0  0  0  0
  161.5010  206.7320  149.4740 C   0  0  0  0  0  0  0  0  0  0  0  0
  162.5590  210.0440  151.1890 C   0  0  0  0  0  2  0  0  0  0  0  0
  161.3410  204.2250  149.4360 C   0  0  2  0  0  3  0  0  0  0  0  0
  161.7390  207.8040  150.3980 N   0  0  0  0  0  0  0  0  0  0  0  0
  161.6090  205.5590  150.0760 C   0  0  0  0  0  0  0  0  0  0  0  0
  161.7170  209.2630  150.1430 C   0  0  2  0  0  3  0  0  0  0  0  0
  160.4540  204.3810  148.2000 C   0  0  0  0  0  2  0  0  0  0  0  0
  162.0640  205.7080  151.4780 C   0  0  2  0  0  3  0  0  0  0  0  0
  162.6920  202.7160  151.7810 C   0  0  0  0  0  1  0  0  0  0  0  0
  161.5860  207.9110  147.2690 C   0  0  0  0  0  2  0  0  0  0  0  0
  160.9560  205.5290  147.3280 C   0  0  0  0  0  2  0  0  0  0  0  0
  161.3210  204.7300  152.4020 C   0  0  0  0  0  2  0  0  0  0  0  0
  160.8740  209.9780  152.7020 C   0  0  1  0  0  3  0  0  0  0  0  0
  162.2500  209.7720  152.5370 O   0  0  0  0  0  0  0  0  0  0  0  0
  160.8920  206.8550  148.0940 C   0  0  1  0  0  3  0  0  0  0  0  0
  161.8360  207.2130  151.7400 C   0  0  2  0  0  3  0  0  0  0  0  0
  160.6480  203.2920  150.4360 C   0  0  0  0  0  2  0  0  0  0  0  0
  162.1770  209.6360  148.7170 C   0  0  1  0  0  3  0  0  0  0  0  0
  160.4490  202.4440  152.7500 C   0  0  0  0  0  1  0  0  0  0  0  0
  160.1660  208.6780  152.9750 C   0  0  0  0  0  3  0  0  0  0  0  0
  160.5690  207.4750  152.5330 C   0  0  0  0  0  3  0  0  0  0  0  0
  161.1860  209.2200  147.7410 N   0  0  0  0  0  2  0  0  0  0  0  0
  163.6180  211.5340  147.9440 C   0  0  0  0  0  3  0  0  0  0  0  0
  162.4260  211.1080  148.5410 C   0  0  0  0  0  0  0  0  0  0  0  0
  161.4850  212.0560  148.9700 C   0  0  0  0  0  3  0  0  0  0  0  0
  160.7420  214.4220  149.2640 C   0  0  0  0  0  1  0  0  0  0  0  0
  162.9310  213.8410  148.2090 C   0  0  0  0  0  3  0  0  0  0  0  0
  161.7390  213.4200  148.8050 C   0  0  0  0  0  0  0  0  0  0  0  0
  163.8690  212.9000  147.7780 C   0  0  0  0  0  3  0  0  0  0  0  0
  160.6190  210.9620  153.7920 C   0  0  0  0  0  0  0  0  0  0  0  0
  160.8520  210.5760  155.1480 N   0  0  0  0  0  2  0  0  0  0  0  0
  160.1930  212.1180  153.5190 O   0  0  0  0  0  0  0  0  0  0  0  0
  161.8430  211.4380  157.2080 C   0  0  0  0  0  1  0  0  0  0  0  0
  160.6470  211.4790  156.2720 C   0  0  2  0  0  3  0  0  0  0  0  0
  158.2440  211.5670  156.3370 O   0  0  0  0  0  1  0  0  0  0  0  0
  159.3730  211.1070  157.0180 C   0  0  0  0  0  2  0  0  0  0  0  0
  1 13  1  0  0  0  0
  1 20  1  0  0  0  0
  2  6  2  0  0  0  0
  2  5  1  0  0  0  0
  3 15  1  0  0  0  0
  4  8  1  6  0  0  0
  4  6  1  0  0  0  0
  4 18  1  0  0  0  0
  5 17  1  0  0  0  0
  6  9  1  0  0  0  0
  7  5  1  0  0  0  0
  7  3  1  1  0  0  0
  9 17  1  0  0  0  0
  9 13  1  1  0  0  0
 10  1  1  0  0  0  0
 11 23  1  0  0  0  0
 12 16  1  0  0  0  0
 12  8  1  0  0  0  0
 14 21  1  0  0  0  0
 14 31  1  1  0  0  0
 15 14  1  0  0  0  0
 16 11  1  6  0  0  0
 16  2  1  0  0  0  0
 17 22  1  1  0  0  0
 18  1  1  0  0  0  0
 19 25  1  1  0  0  0
 19  7  1  0  0  0  0
 22 21  2  0  0  0  0
 23 19  1  0  0  0  0
 24 25  1  0  0  0  0
 25 26  2  0  0  0  0
 28 29  2  0  0  0  0
 29 26  1  0  0  0  0
 29 27  1  0  0  0  0
 30 24  2  0  0  0  0
 30 28  1  0  0  0  0
 31 32  1  0  0  0  0
 32 35  1  0  0  0  0
 33 31  2  0  0  0  0
 35 37  1  0  0  0  0
 35 34  1  1  0  0  0
 36 37  1  0  0  0  0
M  END
>  <MODEL>
3

>  <REMARK>
 VINA RESULT:      -4.0      2.208      8.070
  Name = 
  4 active torsions:
  status: ('A' for Active; 'I' for Inactive)
    1  A    between atoms: CA_4  and  N_12
    2  A    between atoms: CA_4  and  C_37
    3  A    between atoms: C_8  and  C_18
    4  A    between atoms: C_23  and  C_30
                            x       y       z     vdW  Elec       q    Type
                         _______ _______ _______ _____ _____    ______ ____

>  <TORSDO>
F 4

$$$$
=
 OpenBabel11122413503D

 37 42  0  0  1  0  0  0  0  0999 V2000
  161.0890  203.6090  146.1800 C   0  0  0  0  0  0  0  0  0  0  0  0
  161.1630  204.4530  150.2580 C   0  0  0  0  0  0  0  0  0  0  0  0
  160.4560  208.1020  151.3620 C   0  0  0  0  0  2  0  0  0  0  0  0
  161.0830  202.6150  148.5470 C   0  0  2  0  0  3  0  0  0  0  0  0
  161.0450  205.8810  150.3440 N   0  0  0  0  0  0  0  0  0  0  0  0
  160.9550  204.0370  149.0200 C   0  0  0  0  0  0  0  0  0  0  0  0
  161.2010  206.7490  151.5330 C   0  0  2  0  0  3  0  0  0  0  0  0
  161.9580  201.8000  149.5000 C   0  0  0  0  0  2  0  0  0  0  0  0
  160.5430  205.1500  148.1350 C   0  0  2  0  0  3  0  0  0  0  0  0
  159.6380  203.2650  145.8840 C   0  0  0  0  0  1  0  0  0  0  0  0
  161.1490  203.7800  152.6680 C   0  0  0  0  0  2  0  0  0  0  0  0
  161.5510  202.0600  150.9480 C   0  0  0  0  0  2  0  0  0  0  0  0
  161.2060  205.0280  146.7540 C   0  0  0  0  0  2  0  0  0  0  0  0
  162.1560  208.9640  150.1360 C   0  0  1  0  0  3  0  0  0  0  0  0
  160.7640  208.8130  150.1850 O   0  0  0  0  0  0  0  0  0  0  0  0
  161.7550  203.5360  151.3070 C   0  0  1  0  0  3  0  0  0  0  0  0
  160.9170  206.3930  148.9720 C   0  0  2  0  0  3  0  0  0  0  0  0
  161.7030  202.5810  147.1450 C   0  0  0  0  0  2  0  0  0  0  0  0
  160.7520  206.0670  152.8440 C   0  0  1  0  0  3  0  0  0  0  0  0
  161.8630  203.5580  144.8800 C   0  0  0  0  0  1  0  0  0  0  0  0
  162.7420  208.1630  149.0040 C   0  0  0  0  0  3  0  0  0  0  0  0
  162.2180  207.0260  148.5140 C   0  0  0  0  0  3  0  0  0  0  0  0
  161.6810  205.0120  153.2100 N   0  0  0  0  0  2  0  0  0  0  0  0
  160.0200  206.5980  155.1800 C   0  0  0  0  0  3  0  0  0  0  0  0
  160.6410  207.0220  154.0000 C   0  0  0  0  0  0  0  0  0  0  0  0
  161.1460  208.3270  153.9090 C   0  0  0  0  0  3  0  0  0  0  0  0
  161.5590  210.5860  154.8920 C   0  0  0  0  0  1  0  0  0  0  0  0
  160.4030  208.7760  156.1690 C   0  0  0  0  0  3  0  0  0  0  0  0
  161.0260  209.2030  154.9920 C   0  0  0  0  0  0  0  0  0  0  0  0
  159.9010  207.4750  156.2630 C   0  0  0  0  0  3  0  0  0  0  0  0
  162.5230  210.4030  150.0140 C   0  0  0  0  0  0  0  0  0  0  0  0
  162.1610  211.1180  148.8320 N   0  0  0  0  0  2  0  0  0  0  0  0
  163.1550  210.9790  150.9430 O   0  0  0  0  0  0  0  0  0  0  0  0
  161.2060  213.3660  148.7970 C   0  0  0  0  0  1  0  0  0  0  0  0
  162.4640  212.5290  148.6390 C   0  0  2  0  0  3  0  0  0  0  0  0
  162.0920  212.9540  146.3010 O   0  0  0  0  0  1  0  0  0  0  0  0
  163.0820  212.7500  147.2650 C   0  0  0  0  0  2  0  0  0  0  0  0
  1 13  1  0  0  0  0
  1 18  1  0  0  0  0
  2  5  1  0  0  0  0
  2 16  1  0  0  0  0
  4 18  1  6  0  0  0
  4  6  1  0  0  0  0
  4  8  1  0  0  0  0
  5  7  1  0  0  0  0
  6  2  2  0  0  0  0
  7  3  1  6  0  0  0
  7 19  1  0  0  0  0
  8 12  1  0  0  0  0
  9 13  1  6  0  0  0
  9 17  1  0  0  0  0
  9  6  1  0  0  0  0
 10  1  1  0  0  0  0
 11 23  1  0  0  0  0
 14 31  1  6  0  0  0
 14 15  1  0  0  0  0
 15  3  1  0  0  0  0
 16 12  1  6  0  0  0
 16 11  1  0  0  0  0
 17 22  1  6  0  0  0
 17  5  1  0  0  0  0
 19 23  1  0  0  0  0
 19 25  1  1  0  0  0
 20  1  1  0  0  0  0
 21 14  1  0  0  0  0
 22 21  2  0  0  0  0
 24 30  1  0  0  0  0
 25 24  2  0  0  0  0
 26 25  1  0  0  0  0
 26 29  2  0  0  0  0
 27 29  1  0  0  0  0
 28 30  2  0  0  0  0
 29 28  1  0  0  0  0
 31 33  2  0  0  0  0
 32 31  1  0  0  0  0
 35 34  1  6  0  0  0
 35 32  1  0  0  0  0
 36 37  1  0  0  0  0
 37 35  1  0  0  0  0
M  END
>  <MODEL>
4

>  <REMARK>
 VINA RESULT:      -3.9      2.244      7.440
  Name = 
  4 active torsions:
  status: ('A' for Active; 'I' for Inactive)
    1  A    between atoms: CA_4  and  N_12
    2  A    between atoms: CA_4  and  C_37
    3  A    between atoms: C_8  and  C_18
    4  A    between atoms: C_23  and  C_30
                            x       y       z     vdW  Elec       q    Type
                         _______ _______ _______ _____ _____    ______ ____

>  <TORSDO>
F 4

$$$$
=
 OpenBabel11122413503D

 37 42  0  0  1  0  0  0  0  0999 V2000
  160.7160  209.1550  155.4850 C   0  0  0  0  0  0  0  0  0  0  0  0
  161.4840  208.7690  151.4090 C   0  0  0  0  0  0  0  0  0  0  0  0
  160.3240  205.5130  149.6520 C   0  0  0  0  0  2  0  0  0  0  0  0
  161.4060  210.3800  153.3360 C   0  0  2  0  0  3  0  0  0  0  0  0
  161.1090  207.4220  151.0870 N   0  0  0  0  0  0  0  0  0  0  0  0
  161.1040  209.0830  152.6370 C   0  0  0  0  0  0  0  0  0  0  0  0
  161.3390  206.6770  149.8280 C   0  0  2  0  0  3  0  0  0  0  0  0
  162.6050  211.0790  152.6950 C   0  0  0  0  0  2  0  0  0  0  0  0
  160.3040  207.9990  153.2510 C   0  0  2  0  0  3  0  0  0  0  0  0
  159.3310  209.7790  155.5580 C   0  0  0  0  0  1  0  0  0  0  0  0
  162.1130  209.6890  149.1680 C   0  0  0  0  0  2  0  0  0  0  0  0
  162.4720  211.0760  151.1740 C   0  0  0  0  0  2  0  0  0  0  0  0
  160.6700  207.8170  154.7320 C   0  0  0  0  0  2  0  0  0  0  0  0
  161.5230  204.1650  151.0220 C   0  0  1  0  0  3  0  0  0  0  0  0
  160.2300  204.6260  150.7420 O   0  0  0  0  0  0  0  0  0  0  0  0
  162.4530  209.6400  150.6380 C   0  0  1  0  0  3  0  0  0  0  0  0
  160.5950  206.8030  152.3180 C   0  0  2  0  0  3  0  0  0  0  0  0
  161.7090  210.1200  154.8160 C   0  0  0  0  0  2  0  0  0  0  0  0
  161.3210  207.5810  148.5760 C   0  0  1  0  0  3  0  0  0  0  0  0
  161.1910  208.8900  156.8970 C   0  0  0  0  0  1  0  0  0  0  0  0
  162.0020  204.6860  152.3510 C   0  0  0  0  0  3  0  0  0  0  0  0
  161.6190  205.8500  152.9040 C   0  0  0  0  0  3  0  0  0  0  0  0
  162.4940  208.4360  148.5520 N   0  0  0  0  0  2  0  0  0  0  0  0
  160.1470  206.9240  146.4630 C   0  0  0  0  0  3  0  0  0  0  0  0
  161.2710  206.8080  147.2880 C   0  0  0  0  0  0  0  0  0  0  0  0
  162.3320  205.9730  146.9060 C   0  0  0  0  0  3  0  0  0  0  0  0
  163.3860  204.3690  145.3080 C   0  0  0  0  0  1  0  0  0  0  0  0
  161.1380  205.3740  144.8870 C   0  0  0  0  0  3  0  0  0  0  0  0
  162.2640  205.2560  145.7080 C   0  0  0  0  0  0  0  0  0  0  0  0
  160.0810  206.2080  145.2630 C   0  0  0  0  0  3  0  0  0  0  0  0
  161.5660  202.6760  150.9890 C   0  0  0  0  0  0  0  0  0  0  0  0
  161.1760  201.9930  149.7960 N   0  0  0  0  0  2  0  0  0  0  0  0
  161.9330  202.0270  152.0080 O   0  0  0  0  0  0  0  0  0  0  0  0
  161.5810  200.1410  148.2550 C   0  0  0  0  0  1  0  0  0  0  0  0
  161.2060  200.5420  149.6720 C   0  0  2  0  0  3  0  0  0  0  0  0
  158.8230  200.8510  149.7610 O   0  0  0  0  0  1  0  0  0  0  0  0
  159.8530  199.9550  150.0520 C   0  0  0  0  0  2  0  0  0  0  0  0
  1 10  1  0  0  0  0
  1 20  1  0  0  0  0
  2  6  2  0  0  0  0
  3 15  1  0  0  0  0
  4  8  1  6  0  0  0
  4 18  1  0  0  0  0
  5  2  1  0  0  0  0
  5 17  1  0  0  0  0
  6  9  1  0  0  0  0
  6  4  1  0  0  0  0
  7  3  1  6  0  0  0
  7  5  1  0  0  0  0
  9 13  1  1  0  0  0
 12  8  1  0  0  0  0
 13  1  1  0  0  0  0
 14 31  1  1  0  0  0
 14 21  1  0  0  0  0
 15 14  1  0  0  0  0
 16 11  1  6  0  0  0
 16 12  1  0  0  0  0
 16  2  1  0  0  0  0
 17 22  1  1  0  0  0
 17  9  1  0  0  0  0
 18  1  1  0  0  0  0
 19 25  1  6  0  0  0
 19  7  1  0  0  0  0
 21 22  2  0  0  0  0
 23 19  1  0  0  0  0
 23 11  1  0  0  0  0
 24 25  1  0  0  0  0
 26 25  2  0  0  0  0
 27 29  1  0  0  0  0
 28 30  1  0  0  0  0
 28 29  2  0  0  0  0
 29 26  1  0  0  0  0
 30 24  2  0  0  0  0
 31 33  2  0  0  0  0
 32 31  1  0  0  0  0
 35 34  1  6  0  0  0
 35 32  1  0  0  0  0
 35 37  1  0  0  0  0
 36 37  1  0  0  0  0
M  END
>  <MODEL>
5

>  <REMARK>
 VINA RESULT:      -3.3      3.039      7.249
  Name = 
  4 active torsions:
  status: ('A' for Active; 'I' for Inactive)
    1  A    between atoms: CA_4  and  N_12
    2  A    between atoms: CA_4  and  C_37
    3  A    between atoms: C_8  and  C_18
    4  A    between atoms: C_23  and  C_30
                            x       y       z     vdW  Elec       q    Type
                         _______ _______ _______ _____ _____    ______ ____

>  <TORSDO>
F 4

$$$$
