=
 OpenBabel11122414363D

 34 40  0  0  1  0  0  0  0  0999 V2000
  161.0070  207.9850  154.4000 C   0  0  1  0  0  3  0  0  0  0  0  0
  161.7120  205.9710  153.2490 C   0  0  0  0  0  2  0  0  0  0  0  0
  157.4580  213.5640  153.8060 C   0  0  0  0  0  0  0  0  0  0  0  0
  159.7500  210.0440  155.2510 C   0  0  0  0  0  0  0  0  0  0  0  0
  159.3430  211.9240  153.7460 C   0  0  0  0  0  0  0  0  0  0  0  0
  159.1810  213.7740  151.9960 C   0  0  0  0  0  1  0  0  0  0  0  0
  156.5440  213.6060  152.9390 O   0  0  0  0  0  0  0  0  0  0  0  0
  158.1710  213.4620  156.1750 C   0  0  0  0  0  2  0  0  0  0  0  0
  161.7980  207.9910  152.2080 C   0  0  2  0  0  3  0  0  0  0  0  0
  161.6750  208.3470  149.0000 C   0  0  0  0  0  2  0  0  0  0  0  0
  159.9320  211.2090  152.7480 N   0  0  0  0  0  0  0  0  0  0  0  0
  158.4940  211.9750  156.2250 C   0  0  0  0  0  2  0  0  0  0  0  0
  161.0070  209.2180  151.7280 C   0  0  1  0  0  3  0  0  0  0  0  0
  162.2060  205.6560  151.8460 C   0  0  0  0  0  2  0  0  0  0  0  0
  159.2360  211.3470  155.0490 C   0  0  0  0  0  0  0  0  0  0  0  0
  157.1360  213.7000  155.1840 N   0  0  0  0  0  2  0  0  0  0  0  0
  161.5650  207.0980  149.8430 C   0  0  0  0  0  0  0  0  0  0  0  0
  160.3660  209.3540  154.1870 C   0  0  0  0  0  0  0  0  0  0  0  0
  158.8870  213.3310  153.4270 C   0  0  1  0  0  3  0  0  0  0  0  0
  160.4530  209.9700  152.9230 C   0  0  0  0  0  0  0  0  0  0  0  0
  160.3530  208.0880  156.7730 C   0  0  0  0  0  2  0  0  0  0  0  0
  162.5350  209.4300  149.6550 C   0  0  0  0  0  2  0  0  0  0  0  0
  159.4960  209.3330  156.5670 C   0  0  0  0  0  2  0  0  0  0  0  0
  161.8320  210.1410  150.8180 C   0  0  0  0  0  2  0  0  0  0  0  0
  162.3120  207.0100  151.1580 C   0  0  1  0  0  3  0  0  0  0  0  0
  160.3120  207.2250  155.5260 C   0  0  0  0  0  2  0  0  0  0  0  0
  160.9900  207.2310  153.1450 N   0  0  2  0  0  0  0  0  0  0  0  0
  160.8120  206.1170  149.4490 N   0  0  0  0  0  0  0  0  0  0  0  0
  160.1210  206.1760  148.2590 O   0  0  0  0  0  0  0  0  0  0  0  0
  162.2120  205.9870  145.7190 O   0  0  0  0  0  0  0  0  0  0  0  0
  161.7940  204.6910  147.4760 C   0  0  0  0  0  3  0  0  0  0  0  0
  160.5010  205.3620  147.1640 C   0  0  2  0  0  3  0  0  0  0  0  0
  162.7250  205.0840  146.6290 C   0  0  0  0  0  3  0  0  0  0  0  0
  160.8380  206.2380  145.9580 C   0  0  0  0  0  2  0  0  0  0  0  0
  1 26  1  1  0  0  0
  3 16  1  0  0  0  0
  4 23  1  0  0  0  0
  5 15  2  0  0  0  0
  6 19  1  0  0  0  0
  7  3  2  0  0  0  0
  8 12  1  0  0  0  0
  9 27  1  0  0  0  0
 10 22  1  0  0  0  0
 10 17  1  0  0  0  0
 11 20  2  0  0  0  0
 11  5  1  0  0  0  0
 13  9  1  0  0  0  0
 13 20  1  0  0  0  0
 14  2  1  0  0  0  0
 15  4  1  0  0  0  0
 15 12  1  0  0  0  0
 16  8  1  0  0  0  0
 17 25  1  0  0  0  0
 18  1  1  0  0  0  0
 18  4  2  0  0  0  0
 19  5  1  0  0  0  0
 19  3  1  0  0  0  0
 20 18  1  0  0  0  0
 22 24  1  0  0  0  0
 23 21  1  0  0  0  0
 24 13  1  0  0  0  0
 25 14  1  0  0  0  0
 25  9  1  0  0  0  0
 26 21  1  0  0  0  0
 27  2  1  0  0  0  0
 27  1  1  0  0  0  0
 28 17  2  0  0  0  0
 29 28  1  0  0  0  0
 30 34  1  0  0  0  0
 30 33  1  0  0  0  0
 32 31  1  0  0  0  0
 32 29  1  0  0  0  0
 33 31  2  0  0  0  0
 34 32  1  0  0  0  0
M  END
>  <MODEL>
1

>  <REMARK>
 VINA RESULT:      -9.3      0.000      0.000
  Name = 
  2 active torsions:
  status: ('A' for Active; 'I' for Inactive)
    1  A    between atoms: N_28  and  O_29
    2  A    between atoms: O_29  and  C_32
                            x       y       z     vdW  Elec       q    Type
                         _______ _______ _______ _____ _____    ______ ____

>  <TORSDO>
F 2

$$$$
=
 OpenBabel11122414363D

 34 40  0  0  1  0  0  0  0  0999 V2000
  161.6110  209.7810  151.0330 C   0  0  1  0  0  3  0  0  0  0  0  0
  160.9040  211.6830  152.3600 C   0  0  0  0  0  2  0  0  0  0  0  0
  160.4520  203.3680  149.7690 C   0  0  0  0  0  0  0  0  0  0  0  0
  161.7470  207.6160  149.6780 C   0  0  0  0  0  0  0  0  0  0  0  0
  161.3500  205.4710  150.7770 C   0  0  0  0  0  0  0  0  0  0  0  0
  161.0200  203.3870  152.2120 C   0  0  0  0  0  1  0  0  0  0  0  0
  159.3140  202.8980  150.0380 O   0  0  0  0  0  0  0  0  0  0  0  0
  162.1400  204.0930  148.1090 C   0  0  0  0  0  2  0  0  0  0  0  0
  161.1760  209.6390  153.3180 C   0  0  2  0  0  3  0  0  0  0  0  0
  159.6390  208.7130  156.0040 C   0  0  0  0  0  2  0  0  0  0  0  0
  161.0830  206.1480  151.9270 N   0  0  0  0  0  0  0  0  0  0  0  0
  161.8990  205.5920  148.2170 C   0  0  0  0  0  2  0  0  0  0  0  0
  160.7440  208.1650  153.3340 C   0  0  1  0  0  3  0  0  0  0  0  0
  160.5030  211.8870  153.8130 C   0  0  0  0  0  2  0  0  0  0  0  0
  161.6970  206.2040  149.6000 C   0  0  0  0  0  0  0  0  0  0  0  0
  160.9140  203.3800  148.4250 N   0  0  0  0  0  2  0  0  0  0  0  0
  159.5220  209.9940  155.2120 C   0  0  0  0  0  0  0  0  0  0  0  0
  161.4770  208.2670  150.8990 C   0  0  0  0  0  0  0  0  0  0  0  0
  161.3260  203.9590  150.8300 C   0  0  1  0  0  3  0  0  0  0  0  0
  161.1480  207.4980  152.0330 C   0  0  0  0  0  0  0  0  0  0  0  0
  162.2820  209.8950  148.6650 C   0  0  0  0  0  2  0  0  0  0  0  0
  161.0270  208.0770  155.9010 C   0  0  0  0  0  2  0  0  0  0  0  0
  161.9350  208.4310  148.4130 C   0  0  0  0  0  2  0  0  0  0  0  0
  161.2830  207.3960  154.5500 C   0  0  0  0  0  2  0  0  0  0  0  0
  160.7300  210.5330  154.4710 C   0  0  1  0  0  3  0  0  0  0  0  0
  161.3370  210.4740  149.7010 C   0  0  0  0  0  2  0  0  0  0  0  0
  160.7200  210.2640  152.0890 N   0  0  2  0  0  0  0  0  0  0  0  0
  158.3830  210.6120  155.1480 N   0  0  0  0  0  0  0  0  0  0  0  0
  157.2720  210.1390  155.8090 O   0  0  0  0  0  0  0  0  0  0  0  0
  155.5580  212.8670  156.5010 O   0  0  0  0  0  0  0  0  0  0  0  0
  156.1310  211.8390  154.6150 C   0  0  0  0  0  3  0  0  0  0  0  0
  156.0100  210.7580  155.6330 C   0  0  2  0  0  3  0  0  0  0  0  0
  155.8670  213.0090  155.1620 C   0  0  0  0  0  3  0  0  0  0  0  0
  155.6190  211.5110  156.9040 C   0  0  0  0  0  2  0  0  0  0  0  0
  1 26  1  6  0  0  0
  1 27  1  0  0  0  0
  2 14  1  0  0  0  0
  3  7  2  0  0  0  0
  3 19  1  0  0  0  0
  4 18  1  0  0  0  0
  5 19  1  0  0  0  0
  5 11  2  0  0  0  0
  8 12  1  0  0  0  0
  8 16  1  0  0  0  0
  9 13  1  0  0  0  0
  9 25  1  0  0  0  0
 11 20  1  0  0  0  0
 12 15  1  0  0  0  0
 13 24  1  0  0  0  0
 14 25  1  0  0  0  0
 15  4  2  0  0  0  0
 15  5  1  0  0  0  0
 16  3  1  0  0  0  0
 17 10  1  0  0  0  0
 18  1  1  0  0  0  0
 18 20  2  0  0  0  0
 19  6  1  0  0  0  0
 20 13  1  0  0  0  0
 21 26  1  0  0  0  0
 22 10  1  0  0  0  0
 23 21  1  0  0  0  0
 23  4  1  0  0  0  0
 24 22  1  0  0  0  0
 25 17  1  0  0  0  0
 27  2  1  0  0  0  0
 27  9  1  0  0  0  0
 28 17  2  0  0  0  0
 28 29  1  0  0  0  0
 30 34  1  0  0  0  0
 31 33  2  0  0  0  0
 31 32  1  0  0  0  0
 32 29  1  0  0  0  0
 32 34  1  0  0  0  0
 33 30  1  0  0  0  0
M  END
>  <MODEL>
2

>  <REMARK>
 VINA RESULT:      -6.9      2.118      8.710
  Name = 
  2 active torsions:
  status: ('A' for Active; 'I' for Inactive)
    1  A    between atoms: N_28  and  O_29
    2  A    between atoms: O_29  and  C_32
                            x       y       z     vdW  Elec       q    Type
                         _______ _______ _______ _____ _____    ______ ____

>  <TORSDO>
F 2

$$$$
=
 OpenBabel11122414363D

 34 40  0  0  1  0  0  0  0  0999 V2000
  161.9370  208.7200  150.4190 C   0  0  1  0  0  3  0  0  0  0  0  0
  161.4980  210.7740  151.6290 C   0  0  0  0  0  2  0  0  0  0  0  0
  160.0320  202.4070  149.6590 C   0  0  0  0  0  0  0  0  0  0  0  0
  161.7780  206.4670  149.2180 C   0  0  0  0  0  0  0  0  0  0  0  0
  161.1970  204.4590  150.4820 C   0  0  0  0  0  0  0  0  0  0  0  0
  160.7010  202.5270  152.0730 C   0  0  0  0  0  1  0  0  0  0  0  0
  158.8620  202.0860  150.0000 O   0  0  0  0  0  0  0  0  0  0  0  0
  161.7180  202.8240  147.8940 C   0  0  0  0  0  2  0  0  0  0  0  0
  161.5860  208.7820  152.7220 C   0  0  2  0  0  3  0  0  0  0  0  0
  160.0710  208.2170  155.5190 C   0  0  0  0  0  2  0  0  0  0  0  0
  161.0530  205.2380  151.5890 N   0  0  0  0  0  0  0  0  0  0  0  0
  161.6470  204.3450  147.9020 C   0  0  0  0  0  2  0  0  0  0  0  0
  160.9960  207.3700  152.8580 C   0  0  1  0  0  3  0  0  0  0  0  0
  161.1840  211.1190  153.0770 C   0  0  0  0  0  2  0  0  0  0  0  0
  161.5710  205.0670  149.2440 C   0  0  0  0  0  0  0  0  0  0  0  0
  160.4360  202.2760  148.3020 N   0  0  0  0  0  2  0  0  0  0  0  0
  160.0620  209.4470  154.6410 C   0  0  0  0  0  0  0  0  0  0  0  0
  161.6330  207.2250  150.3990 C   0  0  0  0  0  0  0  0  0  0  0  0
  161.0100  202.9670  150.6440 C   0  0  1  0  0  3  0  0  0  0  0  0
  161.2700  206.5760  151.5950 C   0  0  0  0  0  0  0  0  0  0  0  0
  162.5160  208.5990  148.0280 C   0  0  0  0  0  2  0  0  0  0  0  0
  161.3760  207.4240  155.4140 C   0  0  0  0  0  2  0  0  0  0  0  0
  162.0010  207.1690  147.8930 C   0  0  0  0  0  2  0  0  0  0  0  0
  161.4990  206.6300  154.1070 C   0  0  0  0  0  2  0  0  0  0  0  0
  161.2890  209.7960  153.8230 C   0  0  1  0  0  3  0  0  0  0  0  0
  161.6840  209.3480  149.0510 C   0  0  0  0  0  2  0  0  0  0  0  0
  161.1490  209.3700  151.4680 N   0  0  2  0  0  0  0  0  0  0  0  0
  158.9960  210.1830  154.5720 N   0  0  0  0  0  0  0  0  0  0  0  0
  157.8680  209.8830  155.3040 O   0  0  0  0  0  0  0  0  0  0  0  0
  157.1440  213.0860  155.0300 O   0  0  0  0  0  0  0  0  0  0  0  0
  155.9440  211.2170  154.9360 C   0  0  0  0  0  3  0  0  0  0  0  0
  157.0730  210.9150  155.8610 C   0  0  2  0  0  3  0  0  0  0  0  0
  156.0370  212.4560  154.4970 C   0  0  0  0  0  3  0  0  0  0  0  0
  157.8660  212.2210  155.8900 C   0  0  0  0  0  2  0  0  0  0  0  0
  1 26  1  6  0  0  0
  1 27  1  0  0  0  0
  2 14  1  0  0  0  0
  3  7  2  0  0  0  0
  3 19  1  0  0  0  0
  4 15  2  0  0  0  0
  4 18  1  0  0  0  0
  5 19  1  0  0  0  0
  5 11  2  0  0  0  0
  8 12  1  0  0  0  0
  8 16  1  0  0  0  0
  9 13  1  0  0  0  0
  9 25  1  0  0  0  0
 11 20  1  0  0  0  0
 12 15  1  0  0  0  0
 13 24  1  0  0  0  0
 14 25  1  0  0  0  0
 15  5  1  0  0  0  0
 16  3  1  0  0  0  0
 17 10  1  0  0  0  0
 18  1  1  0  0  0  0
 18 20  2  0  0  0  0
 19  6  1  0  0  0  0
 20 13  1  0  0  0  0
 21 26  1  0  0  0  0
 22 10  1  0  0  0  0
 23 21  1  0  0  0  0
 23  4  1  0  0  0  0
 24 22  1  0  0  0  0
 25 17  1  0  0  0  0
 27  2  1  0  0  0  0
 27  9  1  0  0  0  0
 28 17  2  0  0  0  0
 28 29  1  0  0  0  0
 29 32  1  0  0  0  0
 30 34  1  0  0  0  0
 31 32  1  0  0  0  0
 32 34  1  0  0  0  0
 33 31  2  0  0  0  0
 33 30  1  0  0  0  0
M  END
>  <MODEL>
3

>  <REMARK>
 VINA RESULT:      -6.8      2.242      8.793
  Name = 
  2 active torsions:
  status: ('A' for Active; 'I' for Inactive)
    1  A    between atoms: N_28  and  O_29
    2  A    between atoms: O_29  and  C_32
                            x       y       z     vdW  Elec       q    Type
                         _______ _______ _______ _____ _____    ______ ____

>  <TORSDO>
F 2

$$$$
=
 OpenBabel11122414363D

 34 40  0  0  1  0  0  0  0  0999 V2000
  160.8250  208.5540  154.6630 C   0  0  1  0  0  3  0  0  0  0  0  0
  161.4370  206.2400  154.2820 C   0  0  0  0  0  2  0  0  0  0  0  0
  157.7410  213.8110  152.0320 C   0  0  0  0  0  0  0  0  0  0  0  0
  159.6820  210.8420  154.7060 C   0  0  0  0  0  0  0  0  0  0  0  0
  159.4980  212.1430  152.6470 C   0  0  0  0  0  0  0  0  0  0  0  0
  159.5680  213.3240  150.3860 C   0  0  0  0  0  1  0  0  0  0  0  0
  156.8790  213.6160  151.1330 O   0  0  0  0  0  0  0  0  0  0  0  0
  158.3170  214.4530  154.3530 C   0  0  0  0  0  2  0  0  0  0  0  0
  161.7290  207.7980  152.6530 C   0  0  2  0  0  3  0  0  0  0  0  0
  161.8040  207.0890  149.5020 C   0  0  0  0  0  2  0  0  0  0  0  0
  160.0830  211.1100  151.9810 N   0  0  0  0  0  0  0  0  0  0  0  0
  158.5250  213.0500  154.9060 C   0  0  0  0  0  2  0  0  0  0  0  0
  161.0600  208.8410  151.7440 C   0  0  1  0  0  3  0  0  0  0  0  0
  161.9800  205.4550  153.0970 C   0  0  0  0  0  2  0  0  0  0  0  0
  159.2790  212.0320  154.0550 C   0  0  0  0  0  0  0  0  0  0  0  0
  157.3570  214.4090  153.2640 N   0  0  0  0  0  2  0  0  0  0  0  0
  161.5560  206.1930  150.6930 C   0  0  0  0  0  0  0  0  0  0  0  0
  160.3000  209.8090  153.9710 C   0  0  0  0  0  0  0  0  0  0  0  0
  159.1660  213.3900  151.8570 C   0  0  1  0  0  3  0  0  0  0  0  0
  160.5010  209.9710  152.5870 C   0  0  0  0  0  0  0  0  0  0  0  0
  160.0560  209.4640  156.8200 C   0  0  0  0  0  2  0  0  0  0  0  0
  162.7060  208.2790  149.8340 C   0  0  0  0  0  2  0  0  0  0  0  0
  159.3060  210.6170  156.1580 C   0  0  0  0  0  2  0  0  0  0  0  0
  161.9980  209.3690  150.6480 C   0  0  0  0  0  2  0  0  0  0  0  0
  162.2230  206.5020  152.0180 C   0  0  1  0  0  3  0  0  0  0  0  0
  160.0160  208.2430  155.9190 C   0  0  0  0  0  2  0  0  0  0  0  0
  160.8180  207.4320  153.7220 N   0  0  2  0  0  0  0  0  0  0  0  0
  160.7530  205.1790  150.5830 N   0  0  0  0  0  0  0  0  0  0  0  0
  160.1330  204.8820  149.3900 O   0  0  0  0  0  0  0  0  0  0  0  0
  161.9490  202.1810  148.8690 O   0  0  0  0  0  0  0  0  0  0  0  0
  160.1430  202.6170  150.0890 C   0  0  0  0  0  3  0  0  0  0  0  0
  160.0660  203.5450  148.9260 C   0  0  2  0  0  3  0  0  0  0  0  0
  161.2270  201.8730  150.0050 C   0  0  0  0  0  3  0  0  0  0  0  0
  161.3230  203.2110  148.1240 C   0  0  0  0  0  2  0  0  0  0  0  0
  1 26  1  1  0  0  0
  3 16  1  0  0  0  0
  4 23  1  0  0  0  0
  5 15  2  0  0  0  0
  6 19  1  0  0  0  0
  7  3  2  0  0  0  0
  8 12  1  0  0  0  0
  9 27  1  0  0  0  0
 10 22  1  0  0  0  0
 10 17  1  0  0  0  0
 11 20  2  0  0  0  0
 11  5  1  0  0  0  0
 13 20  1  0  0  0  0
 13  9  1  0  0  0  0
 14  2  1  0  0  0  0
 15  4  1  0  0  0  0
 15 12  1  0  0  0  0
 16  8  1  0  0  0  0
 17 25  1  0  0  0  0
 18  1  1  0  0  0  0
 18  4  2  0  0  0  0
 19  3  1  0  0  0  0
 19  5  1  0  0  0  0
 20 18  1  0  0  0  0
 22 24  1  0  0  0  0
 23 21  1  0  0  0  0
 24 13  1  0  0  0  0
 25  9  1  0  0  0  0
 25 14  1  0  0  0  0
 26 21  1  0  0  0  0
 27  2  1  0  0  0  0
 27  1  1  0  0  0  0
 28 17  2  0  0  0  0
 29 28  1  0  0  0  0
 30 33  1  0  0  0  0
 32 29  1  0  0  0  0
 32 31  1  0  0  0  0
 33 31  2  0  0  0  0
 34 30  1  0  0  0  0
 34 32  1  0  0  0  0
M  END
>  <MODEL>
4

>  <REMARK>
 VINA RESULT:      -6.5      1.644      1.970
  Name = 
  2 active torsions:
  status: ('A' for Active; 'I' for Inactive)
    1  A    between atoms: N_28  and  O_29
    2  A    between atoms: O_29  and  C_32
                            x       y       z     vdW  Elec       q    Type
                         _______ _______ _______ _____ _____    ______ ____

>  <TORSDO>
F 2

$$$$
