=
 OpenBabel11122412413D

 30 35  0  0  1  0  0  0  0  0999 V2000
  161.4590  207.5120  151.3240 C   0  0  0  0  0  0  0  0  0  0  0  0
  161.7010  209.9920  151.0090 C   0  0  0  0  0  0  0  0  0  0  0  0
  161.9660  206.8700  147.2830 N   0  0  0  0  0  2  0  0  0  0  0  0
  161.4930  206.2020  150.7520 C   0  0  0  0  0  0  0  0  0  0  0  0
  161.0330  207.6650  152.7710 C   0  0  0  0  0  2  0  0  0  0  0  0
  160.5940  204.3540  153.6280 O   0  0  0  0  0  0  0  0  0  0  0  0
  160.3940  203.4150  150.1730 C   0  0  1  0  0  3  0  0  0  0  0  0
  161.2240  205.2250  153.0470 C   0  0  0  0  0  0  0  0  0  0  0  0
  160.7560  203.7690  148.7450 C   0  0  2  0  0  3  0  0  0  0  0  0
  161.7320  205.5390  147.3020 C   0  0  0  0  0  0  0  0  0  0  0  0
  161.5240  206.5450  153.6890 C   0  0  2  0  0  3  0  0  0  0  0  0
  161.7660  205.0230  151.6650 C   0  0  1  0  0  3  0  0  0  0  0  0
  161.9370  211.0610  150.1400 C   0  0  0  0  0  3  0  0  0  0  0  0
  161.4650  202.5520  148.1870 C   0  0  0  0  0  2  0  0  0  0  0  0
  160.0610  201.9310  150.0970 C   0  0  0  0  0  2  0  0  0  0  0  0
  161.5070  210.2790  152.3540 O   0  0  0  0  0  1  0  0  0  0  0  0
  161.8640  207.2060  148.5810 C   0  0  0  0  0  0  0  0  0  0  0  0
  162.1500  210.8470  148.8160 N   0  0  0  0  0  0  0  0  0  0  0  0
  161.6810  208.6660  150.5030 C   0  0  0  0  0  0  0  0  0  0  0  0
  161.6120  206.1030  149.3500 C   0  0  0  0  0  0  0  0  0  0  0  0
  161.6670  204.8550  146.2460 O   0  0  0  0  0  0  0  0  0  0  0  0
  161.5070  205.0210  148.5390 N   0  0  0  0  0  0  0  0  0  0  0  0
  160.8160  201.3730  148.8930 C   0  0  0  0  0  2  0  0  0  0  0  0
  162.3500  202.7750  151.3600 O   0  0  0  0  0  0  0  0  0  0  0  0
  162.1430  209.5960  148.2910 C   0  0  0  0  0  3  0  0  0  0  0  0
  161.9150  208.4890  149.1130 C   0  0  0  0  0  0  0  0  0  0  0  0
  161.5500  203.6610  151.0970 C   0  0  0  0  0  0  0  0  0  0  0  0
  160.8950  206.6520  154.9830 N   0  0  0  0  0  0  0  0  0  0  0  0
  160.2060  207.8640  156.9390 C   0  0  0  0  0  1  0  0  0  0  0  0
  160.8610  207.7730  155.6050 C   0  0  0  0  0  3  0  0  0  0  0  0
  1  5  1  0  0  0  0
  2 16  1  0  0  0  0
  3 10  1  0  0  0  0
  3 17  1  0  0  0  0
  4  1  1  0  0  0  0
  5 11  1  0  0  0  0
  7 15  1  6  0  0  0
  7 27  1  0  0  0  0
  8  6  2  0  0  0  0
  8 11  1  0  0  0  0
  9 14  1  1  0  0  0
  9  7  1  0  0  0  0
 10 22  1  0  0  0  0
 11 28  1  1  0  0  0
 12  4  1  6  0  0  0
 12  8  1  0  0  0  0
 13  2  2  0  0  0  0
 14 23  1  0  0  0  0
 17 26  2  0  0  0  0
 17 20  1  0  0  0  0
 18 13  1  0  0  0  0
 19  2  1  0  0  0  0
 19  1  2  0  0  0  0
 20  4  2  0  0  0  0
 21 10  2  0  0  0  0
 22  9  1  0  0  0  0
 22 20  1  0  0  0  0
 23 15  1  0  0  0  0
 25 18  2  0  0  0  0
 25 26  1  0  0  0  0
 26 19  1  0  0  0  0
 27 24  2  0  0  0  0
 27 12  1  0  0  0  0
 28 30  2  0  0  0  0
 30 29  1  0  0  0  0
M  END
>  <MODEL>
1

>  <REMARK>
 VINA RESULT:      -9.9      0.000      0.000
  Name = 
  1 active torsions:
  status: ('A' for Active; 'I' for Inactive)
    1  A    between atoms: C_11  and  N_28
                            x       y       z     vdW  Elec       q    Type
                         _______ _______ _______ _____ _____    ______ ____

>  <TORSDO>
F 1

$$$$
=
 OpenBabel11122412413D

 30 35  0  0  1  0  0  0  0  0999 V2000
  161.6230  208.3770  151.7690 C   0  0  0  0  0  0  0  0  0  0  0  0
  161.6440  209.3600  154.0810 C   0  0  0  0  0  0  0  0  0  0  0  0
  160.7070  204.6500  153.2780 N   0  0  0  0  0  2  0  0  0  0  0  0
  161.3900  207.2430  150.9300 C   0  0  0  0  0  0  0  0  0  0  0  0
  162.1850  209.6410  151.1490 C   0  0  0  0  0  2  0  0  0  0  0  0
  162.3080  208.6890  147.8370 O   0  0  0  0  0  0  0  0  0  0  0  0
  162.1060  205.2280  148.7540 C   0  0  1  0  0  3  0  0  0  0  0  0
  161.7360  208.7020  148.9170 C   0  0  0  0  0  0  0  0  0  0  0  0
  161.6680  204.2210  149.7980 C   0  0  2  0  0  3  0  0  0  0  0  0
  160.7860  203.9810  152.1070 C   0  0  0  0  0  0  0  0  0  0  0  0
  161.6460  209.9430  149.7500 C   0  0  2  0  0  3  0  0  0  0  0  0
  161.0600  207.4840  149.4690 C   0  0  1  0  0  3  0  0  0  0  0  0
  161.4620  209.1700  155.4530 C   0  0  0  0  0  3  0  0  0  0  0  0
  160.7790  203.2350  149.0700 C   0  0  0  0  0  2  0  0  0  0  0  0
  162.2580  204.3880  147.4930 C   0  0  0  0  0  2  0  0  0  0  0  0
  161.9830  210.6330  153.6410 O   0  0  0  0  0  1  0  0  0  0  0  0
  160.9560  205.9190  152.9090 C   0  0  0  0  0  0  0  0  0  0  0  0
  161.1150  207.9540  155.9460 N   0  0  0  0  0  0  0  0  0  0  0  0
  161.4680  208.2690  153.1900 C   0  0  0  0  0  0  0  0  0  0  0  0
  161.1420  206.0050  151.5570 C   0  0  0  0  0  0  0  0  0  0  0  0
  160.6830  202.7260  152.0440 O   0  0  0  0  0  0  0  0  0  0  0  0
  161.0530  204.7590  151.0250 N   0  0  0  0  0  0  0  0  0  0  0  0
  161.3440  203.1760  147.6600 C   0  0  0  0  0  2  0  0  0  0  0  0
  160.1960  206.1900  147.7180 O   0  0  0  0  0  0  0  0  0  0  0  0
  160.9330  206.8850  155.1320 C   0  0  0  0  0  3  0  0  0  0  0  0
  161.0990  207.0160  153.7510 C   0  0  0  0  0  0  0  0  0  0  0  0
  161.0680  206.2950  148.5680 C   0  0  0  0  0  0  0  0  0  0  0  0
  162.3900  211.0260  149.1550 N   0  0  0  0  0  0  0  0  0  0  0  0
  162.5670  213.1390  148.0250 C   0  0  0  0  0  1  0  0  0  0  0  0
  161.7830  212.0300  148.6350 C   0  0  0  0  0  3  0  0  0  0  0  0
  1 19  1  0  0  0  0
  2 13  1  0  0  0  0
  4 20  1  0  0  0  0
  4  1  2  0  0  0  0
  5  1  1  0  0  0  0
  6  8  2  0  0  0  0
  7 15  1  6  0  0  0
  7  9  1  0  0  0  0
  8 12  1  0  0  0  0
  8 11  1  0  0  0  0
  9 14  1  6  0  0  0
  9 22  1  0  0  0  0
 10  3  1  0  0  0  0
 11 28  1  6  0  0  0
 11  5  1  0  0  0  0
 12 27  1  6  0  0  0
 12  4  1  0  0  0  0
 13 18  2  0  0  0  0
 15 23  1  0  0  0  0
 16  2  1  0  0  0  0
 17  3  1  0  0  0  0
 17 26  1  0  0  0  0
 19 26  1  0  0  0  0
 19  2  2  0  0  0  0
 20 17  2  0  0  0  0
 21 10  2  0  0  0  0
 22 20  1  0  0  0  0
 22 10  1  0  0  0  0
 23 14  1  0  0  0  0
 24 27  2  0  0  0  0
 25 18  1  0  0  0  0
 26 25  2  0  0  0  0
 27  7  1  0  0  0  0
 29 30  1  0  0  0  0
 30 28  2  0  0  0  0
M  END
>  <MODEL>
2

>  <REMARK>
 VINA RESULT:      -9.0      1.653      5.096
  Name = 
  1 active torsions:
  status: ('A' for Active; 'I' for Inactive)
    1  A    between atoms: C_11  and  N_28
                            x       y       z     vdW  Elec       q    Type
                         _______ _______ _______ _____ _____    ______ ____

>  <TORSDO>
F 1

$$$$
=
 OpenBabel11122412413D

 30 35  0  0  1  0  0  0  0  0999 V2000
  161.2920  205.3750  149.8880 C   0  0  0  0  0  0  0  0  0  0  0  0
  161.0580  202.8780  149.7500 C   0  0  0  0  0  0  0  0  0  0  0  0
  160.9960  205.2530  153.9990 N   0  0  0  0  0  2  0  0  0  0  0  0
  161.4090  206.5440  150.7030 C   0  0  0  0  0  0  0  0  0  0  0  0
  161.1750  205.5420  148.3860 C   0  0  0  0  0  2  0  0  0  0  0  0
  161.4710  208.9680  148.1290 O   0  0  0  0  0  0  0  0  0  0  0  0
  160.6700  209.3650  151.6020 C   0  0  1  0  0  3  0  0  0  0  0  0
  161.8100  207.9080  148.6350 C   0  0  0  0  0  0  0  0  0  0  0  0
  160.6490  208.7240  152.9750 C   0  0  2  0  0  3  0  0  0  0  0  0
  160.9870  206.5890  154.1980 C   0  0  0  0  0  0  0  0  0  0  0  0
  162.0280  206.6740  147.8140 C   0  0  2  0  0  3  0  0  0  0  0  0
  162.0610  207.7760  150.1060 C   0  0  1  0  0  3  0  0  0  0  0  0
  160.9240  201.6590  150.4190 C   0  0  0  0  0  3  0  0  0  0  0  0
  161.4030  209.6730  153.8830 C   0  0  0  0  0  2  0  0  0  0  0  0
  160.5710  210.8540  151.9050 C   0  0  0  0  0  2  0  0  0  0  0  0
  161.1210  202.8530  148.3620 O   0  0  0  0  0  1  0  0  0  0  0  0
  161.1290  205.1550  152.6640 C   0  0  0  0  0  0  0  0  0  0  0  0
  160.8720  201.6140  151.7750 N   0  0  0  0  0  0  0  0  0  0  0  0
  161.1410  204.0840  150.4930 C   0  0  0  0  0  0  0  0  0  0  0  0
  161.2320  206.3930  152.0940 C   0  0  0  0  0  0  0  0  0  0  0  0
  160.8030  207.0960  155.3370 O   0  0  0  0  0  0  0  0  0  0  0  0
  161.1260  207.3320  153.0680 N   0  0  0  0  0  0  0  0  0  0  0  0
  161.1230  211.0540  153.3150 C   0  0  0  0  0  2  0  0  0  0  0  0
  162.9160  209.7870  150.9510 O   0  0  0  0  0  0  0  0  0  0  0  0
  160.9500  202.7410  152.5250 C   0  0  0  0  0  3  0  0  0  0  0  0
  161.0890  203.9880  151.9090 C   0  0  0  0  0  0  0  0  0  0  0  0
  161.9470  209.0460  150.8810 C   0  0  0  0  0  0  0  0  0  0  0  0
  161.6900  206.9010  146.4300 N   0  0  0  0  0  0  0  0  0  0  0  0
  161.0880  206.1710  144.2220 C   0  0  0  0  0  1  0  0  0  0  0  0
  161.4360  205.9170  145.6470 C   0  0  0  0  0  3  0  0  0  0  0  0
  1 19  2  0  0  0  0
  1  4  1  0  0  0  0
  2 13  2  0  0  0  0
  2 19  1  0  0  0  0
  3 10  1  0  0  0  0
  4 20  2  0  0  0  0
  5  1  1  0  0  0  0
  6  8  2  0  0  0  0
  7 15  1  1  0  0  0
  7  9  1  0  0  0  0
  9 22  1  0  0  0  0
  9 14  1  1  0  0  0
 10 21  2  0  0  0  0
 11 28  1  6  0  0  0
 11  5  1  0  0  0  0
 11  8  1  0  0  0  0
 12  8  1  6  0  0  0
 12  4  1  0  0  0  0
 12 27  1  0  0  0  0
 13 18  1  0  0  0  0
 15 23  1  0  0  0  0
 16  2  1  0  0  0  0
 17  3  1  0  0  0  0
 18 25  2  0  0  0  0
 19 26  1  0  0  0  0
 20 17  1  0  0  0  0
 20 22  1  0  0  0  0
 22 10  1  0  0  0  0
 23 14  1  0  0  0  0
 26 25  1  0  0  0  0
 26 17  2  0  0  0  0
 27 24  2  0  0  0  0
 27  7  1  0  0  0  0
 29 30  1  0  0  0  0
 30 28  2  0  0  0  0
M  END
>  <MODEL>
3

>  <REMARK>
 VINA RESULT:      -8.1      1.996      7.308
  Name = 
  1 active torsions:
  status: ('A' for Active; 'I' for Inactive)
    1  A    between atoms: C_11  and  N_28
                            x       y       z     vdW  Elec       q    Type
                         _______ _______ _______ _____ _____    ______ ____

>  <TORSDO>
F 1

$$$$
=
 OpenBabel11122412413D

 30 35  0  0  1  0  0  0  0  0999 V2000
  161.5400  207.4260  151.0030 C   0  0  0  0  0  0  0  0  0  0  0  0
  161.4390  207.9730  153.4530 C   0  0  0  0  0  0  0  0  0  0  0  0
  160.6810  203.4670  151.7720 N   0  0  0  0  0  2  0  0  0  0  0  0
  161.3760  206.4580  149.9630 C   0  0  0  0  0  0  0  0  0  0  0  0
  162.0870  208.7940  150.6470 C   0  0  0  0  0  2  0  0  0  0  0  0
  162.3720  208.4630  147.2260 O   0  0  0  0  0  0  0  0  0  0  0  0
  162.2410  204.8890  147.4940 C   0  0  1  0  0  3  0  0  0  0  0  0
  161.7570  208.2650  148.2640 C   0  0  0  0  0  0  0  0  0  0  0  0
  161.7930  203.6990  148.3190 C   0  0  2  0  0  3  0  0  0  0  0  0
  160.8280  203.0230  150.5040 C   0  0  0  0  0  0  0  0  0  0  0  0
  161.5960  209.3330  149.3030 C   0  0  2  0  0  3  0  0  0  0  0  0
  161.0980  206.9520  148.5570 C   0  0  1  0  0  3  0  0  0  0  0  0
  161.2070  207.5330  154.7590 C   0  0  0  0  0  3  0  0  0  0  0  0
  160.9650  202.8410  147.3850 C   0  0  0  0  0  2  0  0  0  0  0  0
  162.4690  204.2950  146.1100 C   0  0  0  0  0  2  0  0  0  0  0  0
  161.7550  209.3130  153.2650 O   0  0  0  0  0  1  0  0  0  0  0  0
  160.9050  204.7870  151.6490 C   0  0  0  0  0  0  0  0  0  0  0  0
  160.8790  206.2400  155.0080 N   0  0  0  0  0  0  0  0  0  0  0  0
  161.3320  207.0580  152.3730 C   0  0  0  0  0  0  0  0  0  0  0  0
  161.1420  205.1210  150.3450 C   0  0  0  0  0  0  0  0  0  0  0  0
  160.7650  201.7990  150.2120 O   0  0  0  0  0  0  0  0  0  0  0  0
  161.1130  203.9910  149.5940 N   0  0  0  0  0  0  0  0  0  0  0  0
  161.5870  203.0520  146.0150 C   0  0  0  0  0  2  0  0  0  0  0  0
  160.3440  205.9780  146.5640 O   0  0  0  0  0  0  0  0  0  0  0  0
  160.7630  205.3320  154.0070 C   0  0  0  0  0  3  0  0  0  0  0  0
  160.9800  205.7160  152.6810 C   0  0  0  0  0  0  0  0  0  0  0  0
  161.1780  205.9480  147.4570 C   0  0  0  0  0  0  0  0  0  0  0  0
  162.3290  210.5230  148.9460 N   0  0  0  0  0  0  0  0  0  0  0  0
  162.5020  212.7500  148.0630 C   0  0  0  0  0  1  0  0  0  0  0  0
  161.7290  211.5300  148.4240 C   0  0  0  0  0  3  0  0  0  0  0  0
  1 19  1  0  0  0  0
  2 13  1  0  0  0  0
  4 20  1  0  0  0  0
  4  1  2  0  0  0  0
  5  1  1  0  0  0  0
  6  8  2  0  0  0  0
  7 15  1  6  0  0  0
  7  9  1  0  0  0  0
  8 12  1  0  0  0  0
  8 11  1  0  0  0  0
  9 14  1  6  0  0  0
  9 22  1  0  0  0  0
 10  3  1  0  0  0  0
 11 28  1  6  0  0  0
 11  5  1  0  0  0  0
 12 27  1  6  0  0  0
 12  4  1  0  0  0  0
 13 18  2  0  0  0  0
 16  2  1  0  0  0  0
 17  3  1  0  0  0  0
 17 26  1  0  0  0  0
 19 26  1  0  0  0  0
 19  2  2  0  0  0  0
 20 17  2  0  0  0  0
 21 10  2  0  0  0  0
 22 20  1  0  0  0  0
 22 10  1  0  0  0  0
 23 15  1  0  0  0  0
 23 14  1  0  0  0  0
 24 27  2  0  0  0  0
 25 18  1  0  0  0  0
 26 25  2  0  0  0  0
 27  7  1  0  0  0  0
 29 30  1  0  0  0  0
 30 28  2  0  0  0  0
M  END
>  <MODEL>
4

>  <REMARK>
 VINA RESULT:      -8.0      1.589      5.049
  Name = 
  1 active torsions:
  status: ('A' for Active; 'I' for Inactive)
    1  A    between atoms: C_11  and  N_28
                            x       y       z     vdW  Elec       q    Type
                         _______ _______ _______ _____ _____    ______ ____

>  <TORSDO>
F 1

$$$$
=
 OpenBabel11122412413D

 30 35  0  0  1  0  0  0  0  0999 V2000
  161.6300  207.7400  149.4470 C   0  0  0  0  0  0  0  0  0  0  0  0
  161.6260  205.9910  147.6430 C   0  0  0  0  0  0  0  0  0  0  0  0
  161.2270  204.8470  152.3580 N   0  0  0  0  0  2  0  0  0  0  0  0
  161.6180  208.0490  150.8430 C   0  0  0  0  0  0  0  0  0  0  0  0
  161.5430  208.8750  148.4470 C   0  0  0  0  0  2  0  0  0  0  0  0
  161.5380  211.5750  150.5920 O   0  0  0  0  0  0  0  0  0  0  0  0
  160.6040  209.4730  153.3440 C   0  0  1  0  0  3  0  0  0  0  0  0
  161.9560  210.4700  150.2770 C   0  0  0  0  0  0  0  0  0  0  0  0
  160.6010  208.0700  153.9180 C   0  0  2  0  0  3  0  0  0  0  0  0
  161.0930  205.6910  153.4040 C   0  0  0  0  0  0  0  0  0  0  0  0
  162.3070  210.1330  148.8600 C   0  0  2  0  0  3  0  0  0  0  0  0
  162.1740  209.3870  151.2890 C   0  0  1  0  0  3  0  0  0  0  0  0
  161.5810  204.6370  147.3020 C   0  0  0  0  0  3  0  0  0  0  0  0
  161.2410  208.1850  155.2860 C   0  0  0  0  0  2  0  0  0  0  0  0
  160.3630  210.3550  154.5610 C   0  0  0  0  0  2  0  0  0  0  0  0
  161.7310  206.9170  146.6120 O   0  0  0  0  0  1  0  0  0  0  0  0
  161.4070  205.6870  151.3230 C   0  0  0  0  0  0  0  0  0  0  0  0
  161.4950  203.6820  148.2630 N   0  0  0  0  0  0  0  0  0  0  0  0
  161.5780  206.3760  149.0080 C   0  0  0  0  0  0  0  0  0  0  0  0
  161.4150  206.9870  151.7470 C   0  0  0  0  0  0  0  0  0  0  0  0
  160.8310  205.2820  154.5670 O   0  0  0  0  0  0  0  0  0  0  0  0
  161.1970  207.0090  153.0860 N   0  0  0  0  0  0  0  0  0  0  0  0
  160.8540  209.5700  155.7760 C   0  0  0  0  0  2  0  0  0  0  0  0
  162.8220  210.3280  153.3340 O   0  0  0  0  0  0  0  0  0  0  0  0
  161.4500  204.0030  149.5790 C   0  0  0  0  0  3  0  0  0  0  0  0
  161.4940  205.3410  149.9790 C   0  0  0  0  0  0  0  0  0  0  0  0
  161.9250  209.7880  152.7040 C   0  0  0  0  0  0  0  0  0  0  0  0
  161.9900  211.2230  147.9700 N   0  0  0  0  0  0  0  0  0  0  0  0
  162.4610  213.3190  146.8950 C   0  0  0  0  0  1  0  0  0  0  0  0
  162.8040  212.2030  147.8190 C   0  0  0  0  0  3  0  0  0  0  0  0
  1  4  1  0  0  0  0
  2 19  1  0  0  0  0
  3 10  1  0  0  0  0
  4 12  1  0  0  0  0
  4 20  2  0  0  0  0
  5 11  1  0  0  0  0
  5  1  1  0  0  0  0
  7  9  1  0  0  0  0
  7 15  1  1  0  0  0
  8  6  2  0  0  0  0
  9 14  1  1  0  0  0
 10 21  2  0  0  0  0
 11 28  1  6  0  0  0
 11  8  1  0  0  0  0
 12  8  1  6  0  0  0
 12 27  1  0  0  0  0
 13  2  2  0  0  0  0
 13 18  1  0  0  0  0
 14 23  1  0  0  0  0
 15 23  1  0  0  0  0
 16  2  1  0  0  0  0
 17 20  1  0  0  0  0
 17  3  1  0  0  0  0
 18 25  2  0  0  0  0
 19  1  2  0  0  0  0
 19 26  1  0  0  0  0
 20 22  1  0  0  0  0
 22 10  1  0  0  0  0
 22  9  1  0  0  0  0
 25 26  1  0  0  0  0
 26 17  2  0  0  0  0
 27 24  2  0  0  0  0
 27  7  1  0  0  0  0
 29 30  1  0  0  0  0
 30 28  2  0  0  0  0
M  END
>  <MODEL>
5

>  <REMARK>
 VINA RESULT:      -7.8      1.663      6.729
  Name = 
  1 active torsions:
  status: ('A' for Active; 'I' for Inactive)
    1  A    between atoms: C_11  and  N_28
                            x       y       z     vdW  Elec       q    Type
                         _______ _______ _______ _____ _____    ______ ____

>  <TORSDO>
F 1

$$$$
