=
 OpenBabel11122413483D

 37 42  0  0  1  0  0  0  0  0999 V2000
  159.1930  212.0940  155.7670 C   0  0  0  0  0  0  0  0  0  0  0  0
  158.9190  212.6980  151.6350 C   0  0  0  0  0  0  0  0  0  0  0  0
  161.9920  211.7640  149.6220 O   0  0  0  0  0  0  0  0  0  0  0  0
  158.1170  213.3400  153.8140 C   0  0  0  0  0  0  0  0  0  0  0  0
  159.9870  211.8310  151.0550 C   0  0  1  0  0  3  0  0  0  0  0  0
  158.9500  212.6020  152.9870 C   0  0  0  0  0  0  0  0  0  0  0  0
  160.8560  212.5320  149.9900 C   0  0  2  0  0  3  0  0  0  0  0  0
  157.1830  214.1990  153.2080 C   0  0  0  0  0  3  0  0  0  0  0  0
  159.9810  211.7700  153.4510 N   0  0  0  0  0  0  0  0  0  0  0  0
  158.3150  210.8550  155.8230 C   0  0  0  0  0  1  0  0  0  0  0  0
  158.0090  213.6600  149.5110 C   0  0  0  0  0  2  0  0  0  0  0  0
  157.1160  214.2860  151.7980 C   0  0  0  0  0  3  0  0  0  0  0  0
  160.4050  211.8270  154.8460 C   0  0  0  0  0  2  0  0  0  0  0  0
  162.2940  209.3990  150.0370 C   0  0  1  0  0  3  0  0  0  0  0  0
  161.5680  210.4790  149.2330 C   0  0  0  0  0  2  0  0  0  0  0  0
  157.9950  213.5280  150.9970 C   0  0  0  0  0  0  0  0  0  0  0  0
  160.8160  211.4240  152.3010 C   0  0  1  0  0  3  0  0  0  0  0  0
  158.3470  213.3060  155.3010 C   0  0  0  0  0  2  0  0  0  0  0  0
  160.0270  213.0060  148.7700 C   0  0  1  0  0  3  0  0  0  0  0  0
  159.7040  212.3760  157.1630 C   0  0  0  0  0  1  0  0  0  0  0  0
  162.4370  209.6880  151.5400 C   0  0  0  0  0  2  0  0  0  0  0  0
  161.1190  209.9330  152.2690 C   0  0  0  0  0  2  0  0  0  0  0  0
  159.2620  214.1360  149.1030 O   0  0  0  0  0  0  0  0  0  0  0  0
  162.0180  214.1350  147.7600 C   0  0  0  0  0  3  0  0  0  0  0  0
  160.8880  213.3270  147.5860 C   0  0  0  0  0  0  0  0  0  0  0  0
  160.5740  212.8380  146.3100 C   0  0  0  0  0  3  0  0  0  0  0  0
  161.0490  212.6360  143.8670 C   0  0  0  0  0  1  0  0  0  0  0  0
  162.5120  213.9640  145.3950 C   0  0  0  0  0  3  0  0  0  0  0  0
  161.3860  213.1560  145.2180 C   0  0  0  0  0  0  0  0  0  0  0  0
  162.8290  214.4530  146.6660 C   0  0  0  0  0  3  0  0  0  0  0  0
  160.5350  205.5400  148.9060 O   0  0  0  0  0  0  0  0  0  0  0  0
  160.7460  206.4460  148.0550 C   0  0  0  0  0  0  0  0  0  0  0  0
  161.7020  208.0500  149.7850 C   0  0  0  0  0  0  0  0  0  0  0  0
  161.3200  207.7000  148.4510 N   0  0  0  0  0  2  0  0  0  0  0  0
  161.5580  207.2350  150.7360 O   0  0  0  0  0  0  0  0  0  0  0  0
  161.2730  205.5000  145.8480 C   0  0  0  0  0  1  0  0  0  0  0  0
  160.4110  206.2120  146.7230 O   0  0  0  0  0  0  0  0  0  0  0  0
  1 10  1  0  0  0  0
  1 20  1  0  0  0  0
  2  6  1  0  0  0  0
  4 18  1  0  0  0  0
  5  2  1  1  0  0  0
  5 17  1  0  0  0  0
  6  9  1  0  0  0  0
  6  4  2  0  0  0  0
  7  3  1  6  0  0  0
  7  5  1  0  0  0  0
  8  4  1  0  0  0  0
  9 13  1  0  0  0  0
 11 16  1  0  0  0  0
 12  8  2  0  0  0  0
 13  1  1  0  0  0  0
 14 33  1  1  0  0  0
 14 21  1  0  0  0  0
 15  3  1  0  0  0  0
 15 14  1  0  0  0  0
 16  2  2  0  0  0  0
 16 12  1  0  0  0  0
 17 22  1  6  0  0  0
 17  9  1  0  0  0  0
 18  1  1  0  0  0  0
 19 25  1  6  0  0  0
 19 23  1  0  0  0  0
 19  7  1  0  0  0  0
 21 22  1  0  0  0  0
 23 11  1  0  0  0  0
 25 24  1  0  0  0  0
 26 25  2  0  0  0  0
 27 29  1  0  0  0  0
 28 30  1  0  0  0  0
 29 28  2  0  0  0  0
 29 26  1  0  0  0  0
 30 24  2  0  0  0  0
 32 34  1  0  0  0  0
 32 31  2  0  0  0  0
 33 35  2  0  0  0  0
 34 33  1  0  0  0  0
 36 37  1  0  0  0  0
 37 32  1  0  0  0  0
M  END
>  <MODEL>
1

>  <REMARK>
 VINA RESULT:      -6.4      0.000      0.000
  Name = 
  3 active torsions:
  status: ('A' for Active; 'I' for Inactive)
    1  A    between atoms: C_4  and  O_37
    2  A    between atoms: C_8  and  C_18
    3  A    between atoms: C_23  and  C_30
                            x       y       z     vdW  Elec       q    Type
                         _______ _______ _______ _____ _____    ______ ____

>  <TORSDO>
F 3

$$$$
=
 OpenBabel11122413483D

 37 42  0  0  1  0  0  0  0  0999 V2000
  159.7110  211.8110  155.8930 C   0  0  0  0  0  0  0  0  0  0  0  0
  159.1580  212.5930  151.8190 C   0  0  0  0  0  0  0  0  0  0  0  0
  162.0340  211.6270  149.5470 O   0  0  0  0  0  0  0  0  0  0  0  0
  158.5450  213.1760  154.0750 C   0  0  0  0  0  0  0  0  0  0  0  0
  160.1440  211.7110  151.1280 C   0  0  1  0  0  3  0  0  0  0  0  0
  159.2840  212.4410  153.1610 C   0  0  0  0  0  0  0  0  0  0  0  0
  160.9600  212.4220  150.0280 C   0  0  2  0  0  3  0  0  0  0  0  0
  157.6050  214.0930  153.5740 C   0  0  0  0  0  3  0  0  0  0  0  0
  160.3120  211.5530  153.5140 N   0  0  0  0  0  0  0  0  0  0  0  0
  158.7920  210.6050  155.9690 C   0  0  0  0  0  1  0  0  0  0  0  0
  158.1330  213.6740  149.8080 C   0  0  0  0  0  2  0  0  0  0  0  0
  157.4380  214.2390  152.1780 C   0  0  0  0  0  3  0  0  0  0  0  0
  160.8410  211.5380  154.8740 C   0  0  0  0  0  2  0  0  0  0  0  0
  162.2700  209.2380  149.8480 C   0  0  1  0  0  3  0  0  0  0  0  0
  161.5310  210.3760  149.1430 C   0  0  0  0  0  2  0  0  0  0  0  0
  158.2230  213.4820  151.2850 C   0  0  0  0  0  0  0  0  0  0  0  0
  161.0460  211.2230  152.2920 C   0  0  1  0  0  3  0  0  0  0  0  0
  158.8830  213.0730  155.5380 C   0  0  0  0  0  2  0  0  0  0  0  0
  160.0620  212.9750  148.8920 C   0  0  1  0  0  3  0  0  0  0  0  0
  160.3350  212.0170  157.2570 C   0  0  0  0  0  1  0  0  0  0  0  0
  162.5350  209.4600  151.3460 C   0  0  0  0  0  2  0  0  0  0  0  0
  161.2850  209.7250  152.1810 C   0  0  0  0  0  2  0  0  0  0  0  0
  159.3710  214.1190  149.3250 O   0  0  0  0  0  0  0  0  0  0  0  0
  161.9830  214.1210  147.7710 C   0  0  0  0  0  3  0  0  0  0  0  0
  160.8460  213.3130  147.6600 C   0  0  0  0  0  0  0  0  0  0  0  0
  160.4520  212.8380  146.4010 C   0  0  0  0  0  3  0  0  0  0  0  0
  160.7710  212.6640  143.9310 C   0  0  0  0  0  1  0  0  0  0  0  0
  162.3260  213.9780  145.3780 C   0  0  0  0  0  3  0  0  0  0  0  0
  161.1920  213.1690  145.2630 C   0  0  0  0  0  0  0  0  0  0  0  0
  162.7220  214.4530  146.6320 C   0  0  0  0  0  3  0  0  0  0  0  0
  160.4180  205.2770  149.4690 O   0  0  0  0  0  0  0  0  0  0  0  0
  160.9910  205.6400  150.5310 C   0  0  0  0  0  0  0  0  0  0  0  0
  161.6070  207.9240  149.5900 C   0  0  0  0  0  0  0  0  0  0  0  0
  161.5910  206.9400  150.6290 N   0  0  0  0  0  2  0  0  0  0  0  0
  161.0600  207.6990  148.4760 O   0  0  0  0  0  0  0  0  0  0  0  0
  161.0210  203.3520  151.4300 C   0  0  0  0  0  1  0  0  0  0  0  0
  161.0350  204.7590  151.6100 O   0  0  0  0  0  0  0  0  0  0  0  0
  1 10  1  0  0  0  0
  1 20  1  0  0  0  0
  2  6  1  0  0  0  0
  4 18  1  0  0  0  0
  5  2  1  1  0  0  0
  5 17  1  0  0  0  0
  6  9  1  0  0  0  0
  6  4  2  0  0  0  0
  7  3  1  6  0  0  0
  7  5  1  0  0  0  0
  8  4  1  0  0  0  0
  9 13  1  0  0  0  0
 11 16  1  0  0  0  0
 12  8  2  0  0  0  0
 13  1  1  0  0  0  0
 14 33  1  1  0  0  0
 14 21  1  0  0  0  0
 15  3  1  0  0  0  0
 15 14  1  0  0  0  0
 16  2  2  0  0  0  0
 16 12  1  0  0  0  0
 17 22  1  6  0  0  0
 17  9  1  0  0  0  0
 18  1  1  0  0  0  0
 19 25  1  6  0  0  0
 19 23  1  0  0  0  0
 19  7  1  0  0  0  0
 21 22  1  0  0  0  0
 23 11  1  0  0  0  0
 25 24  1  0  0  0  0
 26 25  2  0  0  0  0
 27 29  1  0  0  0  0
 28 30  1  0  0  0  0
 29 28  2  0  0  0  0
 29 26  1  0  0  0  0
 30 24  2  0  0  0  0
 31 32  2  0  0  0  0
 32 34  1  0  0  0  0
 32 37  1  0  0  0  0
 33 34  1  0  0  0  0
 35 33  2  0  0  0  0
 36 37  1  0  0  0  0
M  END
>  <MODEL>
2

>  <REMARK>
 VINA RESULT:      -6.3      1.164      1.512
  Name = 
  3 active torsions:
  status: ('A' for Active; 'I' for Inactive)
    1  A    between atoms: C_4  and  O_37
    2  A    between atoms: C_8  and  C_18
    3  A    between atoms: C_23  and  C_30
                            x       y       z     vdW  Elec       q    Type
                         _______ _______ _______ _____ _____    ______ ____

>  <TORSDO>
F 3

$$$$
=
 OpenBabel11122413483D

 37 42  0  0  1  0  0  0  0  0999 V2000
  160.6840  209.2200  155.9750 C   0  0  0  0  0  0  0  0  0  0  0  0
  159.8000  211.1610  152.3740 C   0  0  0  0  0  0  0  0  0  0  0  0
  162.3580  210.7520  149.6070 O   0  0  0  0  0  0  0  0  0  0  0  0
  159.4560  211.1010  154.7580 C   0  0  0  0  0  0  0  0  0  0  0  0
  160.6430  210.4680  151.3550 C   0  0  1  0  0  3  0  0  0  0  0  0
  160.0440  210.6250  153.5960 C   0  0  0  0  0  0  0  0  0  0  0  0
  161.4010  211.4260  150.4120 C   0  0  2  0  0  3  0  0  0  0  0  0
  158.5460  212.1660  154.6450 C   0  0  0  0  0  3  0  0  0  0  0  0
  161.0290  209.6260  153.5650 N   0  0  0  0  0  0  0  0  0  0  0  0
  159.6840  208.0870  155.8150 C   0  0  0  0  0  1  0  0  0  0  0  0
  158.6720  212.8200  150.8770 C   0  0  0  0  0  2  0  0  0  0  0  0
  158.2560  212.7140  153.3740 C   0  0  0  0  0  3  0  0  0  0  0  0
  161.6840  209.1960  154.7970 C   0  0  0  0  0  2  0  0  0  0  0  0
  162.4360  208.3690  149.1990 C   0  0  1  0  0  3  0  0  0  0  0  0
  161.7230  209.6950  148.9300 C   0  0  0  0  0  2  0  0  0  0  0  0
  158.8900  212.2090  152.2210 C   0  0  0  0  0  0  0  0  0  0  0  0
  161.6130  209.6250  152.2240 C   0  0  1  0  0  3  0  0  0  0  0  0
  159.9260  210.5670  156.0850 C   0  0  0  0  0  2  0  0  0  0  0  0
  160.4440  212.3230  149.5870 C   0  0  1  0  0  3  0  0  0  0  0  0
  161.4510  208.9960  157.2600 C   0  0  0  0  0  1  0  0  0  0  0  0
  162.8620  208.1390  150.6580 C   0  0  0  0  0  2  0  0  0  0  0  0
  161.7230  208.2120  151.6720 C   0  0  0  0  0  2  0  0  0  0  0  0
  159.8880  213.3260  150.3990 O   0  0  0  0  0  0  0  0  0  0  0  0
  162.1970  213.8370  148.6420 C   0  0  0  0  0  3  0  0  0  0  0  0
  161.1280  212.9620  148.4170 C   0  0  0  0  0  0  0  0  0  0  0  0
  160.7080  212.7010  147.1050 C   0  0  0  0  0  3  0  0  0  0  0  0
  160.9070  213.0350  144.6380 C   0  0  0  0  0  1  0  0  0  0  0  0
  162.4210  214.1870  146.2560 C   0  0  0  0  0  3  0  0  0  0  0  0
  161.3550  213.3130  146.0270 C   0  0  0  0  0  0  0  0  0  0  0  0
  162.8420  214.4480  147.5640 C   0  0  0  0  0  3  0  0  0  0  0  0
  160.4410  204.9120  147.3740 O   0  0  0  0  0  0  0  0  0  0  0  0
  161.5800  205.2930  146.9950 C   0  0  0  0  0  0  0  0  0  0  0  0
  161.6510  207.2160  148.6620 C   0  0  0  0  0  0  0  0  0  0  0  0
  162.2110  206.4280  147.6060 N   0  0  0  0  0  2  0  0  0  0  0  0
  160.5200  206.9410  149.1460 O   0  0  0  0  0  0  0  0  0  0  0  0
  161.5770  203.5500  145.2620 C   0  0  0  0  0  1  0  0  0  0  0  0
  162.2200  204.5970  145.9710 O   0  0  0  0  0  0  0  0  0  0  0  0
  1 18  1  0  0  0  0
  1 20  1  0  0  0  0
  2  6  1  0  0  0  0
  4 18  1  0  0  0  0
  5 17  1  0  0  0  0
  5  2  1  1  0  0  0
  6  4  2  0  0  0  0
  7  3  1  6  0  0  0
  7  5  1  0  0  0  0
  8  4  1  0  0  0  0
  9  6  1  0  0  0  0
  9 13  1  0  0  0  0
 10  1  1  0  0  0  0
 11 16  1  0  0  0  0
 12  8  2  0  0  0  0
 13  1  1  0  0  0  0
 14 33  1  1  0  0  0
 14 21  1  0  0  0  0
 15 14  1  0  0  0  0
 15  3  1  0  0  0  0
 16  2  2  0  0  0  0
 16 12  1  0  0  0  0
 17 22  1  6  0  0  0
 17  9  1  0  0  0  0
 19 25  1  6  0  0  0
 19 23  1  0  0  0  0
 19  7  1  0  0  0  0
 21 22  1  0  0  0  0
 23 11  1  0  0  0  0
 25 24  1  0  0  0  0
 26 25  2  0  0  0  0
 27 29  1  0  0  0  0
 28 30  1  0  0  0  0
 29 28  2  0  0  0  0
 29 26  1  0  0  0  0
 30 24  2  0  0  0  0
 32 31  2  0  0  0  0
 32 34  1  0  0  0  0
 33 35  2  0  0  0  0
 34 33  1  0  0  0  0
 36 37  1  0  0  0  0
 37 32  1  0  0  0  0
M  END
>  <MODEL>
3

>  <REMARK>
 VINA RESULT:      -6.1      1.620      2.022
  Name = 
  3 active torsions:
  status: ('A' for Active; 'I' for Inactive)
    1  A    between atoms: C_4  and  O_37
    2  A    between atoms: C_8  and  C_18
    3  A    between atoms: C_23  and  C_30
                            x       y       z     vdW  Elec       q    Type
                         _______ _______ _______ _____ _____    ______ ____

>  <TORSDO>
F 3

$$$$
=
 OpenBabel11122413483D

 37 42  0  0  1  0  0  0  0  0999 V2000
  162.0720  205.8900  147.7200 C   0  0  0  0  0  0  0  0  0  0  0  0
  160.9700  207.1460  151.5570 C   0  0  0  0  0  0  0  0  0  0  0  0
  162.1030  210.6250  152.5450 O   0  0  0  0  0  0  0  0  0  0  0  0
  161.4120  205.2720  150.1090 C   0  0  0  0  0  0  0  0  0  0  0  0
  161.0800  208.6340  151.5130 C   0  0  1  0  0  3  0  0  0  0  0  0
  161.3470  206.6340  150.3590 C   0  0  0  0  0  0  0  0  0  0  0  0
  161.8200  209.2450  152.7210 C   0  0  2  0  0  3  0  0  0  0  0  0
  161.0370  204.3960  151.1430 C   0  0  0  0  0  3  0  0  0  0  0  0
  161.7670  207.6200  149.4530 N   0  0  0  0  0  0  0  0  0  0  0  0
  160.7020  206.0420  147.0830 C   0  0  0  0  0  1  0  0  0  0  0  0
  160.2130  206.8850  153.9280 C   0  0  0  0  0  2  0  0  0  0  0  0
  160.6100  204.9150  152.3870 C   0  0  0  0  0  3  0  0  0  0  0  0
  162.5420  207.2560  148.2710 C   0  0  0  0  0  2  0  0  0  0  0  0
  161.0570  212.0880  150.9250 C   0  0  1  0  0  3  0  0  0  0  0  0
  160.9090  211.3000  152.2280 C   0  0  0  0  0  2  0  0  0  0  0  0
  160.5760  206.3070  152.6010 C   0  0  0  0  0  0  0  0  0  0  0  0
  161.8370  208.8850  150.1830 C   0  0  1  0  0  3  0  0  0  0  0  0
  162.0160  204.7950  148.8150 C   0  0  0  0  0  2  0  0  0  0  0  0
  161.1090  208.9420  154.0640 C   0  0  1  0  0  3  0  0  0  0  0  0
  163.0460  205.4450  146.6490 C   0  0  0  0  0  1  0  0  0  0  0  0
  161.7910  211.3490  149.7940 C   0  0  0  0  0  2  0  0  0  0  0  0
  161.1730  210.0100  149.4020 C   0  0  0  0  0  2  0  0  0  0  0  0
  161.3070  207.6000  154.4330 O   0  0  0  0  0  0  0  0  0  0  0  0
  162.8100  209.5620  155.7900 C   0  0  0  0  0  3  0  0  0  0  0  0
  161.5830  209.8310  155.1730 C   0  0  0  0  0  0  0  0  0  0  0  0
  160.8130  210.9200  155.6050 C   0  0  0  0  0  3  0  0  0  0  0  0
  160.4500  212.8860  157.1010 C   0  0  0  0  0  1  0  0  0  0  0  0
  162.4950  211.4610  157.2600 C   0  0  0  0  0  3  0  0  0  0  0  0
  161.2690  211.7330  156.6460 C   0  0  0  0  0  0  0  0  0  0  0  0
  163.2660  210.3760  156.8320 C   0  0  0  0  0  3  0  0  0  0  0  0
  157.3740  213.7820  149.2460 O   0  0  0  0  0  0  0  0  0  0  0  0
  158.4590  213.7950  148.6060 C   0  0  0  0  0  0  0  0  0  0  0  0
  159.7410  212.6310  150.4710 C   0  0  0  0  0  0  0  0  0  0  0  0
  159.6510  213.2370  149.1780 N   0  0  0  0  0  2  0  0  0  0  0  0
  158.7280  212.5390  151.2170 O   0  0  0  0  0  0  0  0  0  0  0  0
  159.5640  214.1380  146.4370 C   0  0  0  0  0  1  0  0  0  0  0  0
  158.4860  214.3610  147.3320 O   0  0  0  0  0  0  0  0  0  0  0  0
  1 13  1  0  0  0  0
  1 18  1  0  0  0  0
  2 16  1  0  0  0  0
  4  6  1  0  0  0  0
  4  8  2  0  0  0  0
  5  2  1  1  0  0  0
  5  7  1  0  0  0  0
  6  2  2  0  0  0  0
  7  3  1  6  0  0  0
  7 19  1  0  0  0  0
  8 12  1  0  0  0  0
  9 17  1  0  0  0  0
  9  6  1  0  0  0  0
 10  1  1  0  0  0  0
 11 23  1  0  0  0  0
 12 16  2  0  0  0  0
 13  9  1  0  0  0  0
 14 33  1  6  0  0  0
 14 15  1  0  0  0  0
 15  3  1  0  0  0  0
 16 11  1  0  0  0  0
 17 22  1  6  0  0  0
 17  5  1  0  0  0  0
 18  4  1  0  0  0  0
 19 23  1  0  0  0  0
 19 25  1  1  0  0  0
 20  1  1  0  0  0  0
 21 14  1  0  0  0  0
 22 21  1  0  0  0  0
 24 30  1  0  0  0  0
 25 26  1  0  0  0  0
 25 24  2  0  0  0  0
 26 29  2  0  0  0  0
 29 27  1  0  0  0  0
 29 28  1  0  0  0  0
 30 28  2  0  0  0  0
 32 34  1  0  0  0  0
 32 31  2  0  0  0  0
 33 35  2  0  0  0  0
 34 33  1  0  0  0  0
 36 37  1  0  0  0  0
 37 32  1  0  0  0  0
M  END
>  <MODEL>
4

>  <REMARK>
 VINA RESULT:      -4.4      2.761      8.303
  Name = 
  3 active torsions:
  status: ('A' for Active; 'I' for Inactive)
    1  A    between atoms: C_4  and  O_37
    2  A    between atoms: C_8  and  C_18
    3  A    between atoms: C_23  and  C_30
                            x       y       z     vdW  Elec       q    Type
                         _______ _______ _______ _____ _____    ______ ____

>  <TORSDO>
F 3

$$$$
=
 OpenBabel11122413483D

 37 42  0  0  1  0  0  0  0  0999 V2000
  162.0890  205.9750  147.7020 C   0  0  0  0  0  0  0  0  0  0  0  0
  160.9200  207.2660  151.5070 C   0  0  0  0  0  0  0  0  0  0  0  0
  162.1480  210.7020  152.5340 O   0  0  0  0  0  0  0  0  0  0  0  0
  161.3360  205.3790  150.0690 C   0  0  0  0  0  0  0  0  0  0  0  0
  161.0840  208.7500  151.4690 C   0  0  1  0  0  3  0  0  0  0  0  0
  161.3130  206.7430  150.3200 C   0  0  0  0  0  0  0  0  0  0  0  0
  161.8100  209.3330  152.6990 C   0  0  2  0  0  3  0  0  0  0  0  0
  160.9010  204.5160  151.0890 C   0  0  0  0  0  3  0  0  0  0  0  0
  161.7950  207.7140  149.4280 N   0  0  0  0  0  0  0  0  0  0  0  0
  160.7440  206.1770  147.0250 C   0  0  0  0  0  1  0  0  0  0  0  0
  160.0850  207.0310  153.8550 C   0  0  0  0  0  2  0  0  0  0  0  0
  160.4560  205.0490  152.3220 C   0  0  0  0  0  3  0  0  0  0  0  0
  162.5910  207.3230  148.2690 C   0  0  0  0  0  2  0  0  0  0  0  0
  161.2030  212.2030  150.8870 C   0  0  1  0  0  3  0  0  0  0  0  0
  160.9880  211.4200  152.1840 C   0  0  0  0  0  2  0  0  0  0  0  0
  160.4650  206.4420  152.5380 C   0  0  0  0  0  0  0  0  0  0  0  0
  161.8890  208.9750  150.1620 C   0  0  1  0  0  3  0  0  0  0  0  0
  161.9610  204.8820  148.7930 C   0  0  0  0  0  2  0  0  0  0  0  0
  161.0490  209.0540  154.0200 C   0  0  1  0  0  3  0  0  0  0  0  0
  163.0770  205.4970  146.6590 C   0  0  0  0  0  1  0  0  0  0  0  0
  161.9430  211.4390  149.7770 C   0  0  0  0  0  2  0  0  0  0  0  0
  161.2890  210.1230  149.3650 C   0  0  0  0  0  2  0  0  0  0  0  0
  161.1880  207.7060  154.3930 O   0  0  0  0  0  0  0  0  0  0  0  0
  162.7170  209.6080  155.8020 C   0  0  0  0  0  3  0  0  0  0  0  0
  161.5220  209.9250  155.1450 C   0  0  0  0  0  0  0  0  0  0  0  0
  160.7830  211.0450  155.5510 C   0  0  0  0  0  3  0  0  0  0  0  0
  160.4510  213.0260  157.0340 C   0  0  0  0  0  1  0  0  0  0  0  0
  162.4300  211.5190  157.2610 C   0  0  0  0  0  3  0  0  0  0  0  0
  161.2380  211.8400  156.6060 C   0  0  0  0  0  0  0  0  0  0  0  0
  163.1700  210.4030  156.8580 C   0  0  0  0  0  3  0  0  0  0  0  0
  157.3040  213.9110  149.8220 O   0  0  0  0  0  0  0  0  0  0  0  0
  157.5670  213.5480  150.9990 C   0  0  0  0  0  0  0  0  0  0  0  0
  159.9220  212.7930  150.3960 C   0  0  0  0  0  0  0  0  0  0  0  0
  158.8490  212.9900  151.3220 N   0  0  0  0  0  2  0  0  0  0  0  0
  159.8000  213.1230  149.1840 O   0  0  0  0  0  0  0  0  0  0  0  0
  156.8750  213.4620  153.3570 C   0  0  0  0  0  1  0  0  0  0  0  0
  156.5930  213.6940  151.9860 O   0  0  0  0  0  0  0  0  0  0  0  0
  1 13  1  0  0  0  0
  1 18  1  0  0  0  0
  2 16  1  0  0  0  0
  4  6  1  0  0  0  0
  4  8  2  0  0  0  0
  5  2  1  1  0  0  0
  5  7  1  0  0  0  0
  6  2  2  0  0  0  0
  7  3  1  6  0  0  0
  7 19  1  0  0  0  0
  8 12  1  0  0  0  0
  9 17  1  0  0  0  0
  9  6  1  0  0  0  0
 10  1  1  0  0  0  0
 11 23  1  0  0  0  0
 12 16  2  0  0  0  0
 13  9  1  0  0  0  0
 14 33  1  6  0  0  0
 14 15  1  0  0  0  0
 15  3  1  0  0  0  0
 16 11  1  0  0  0  0
 17 22  1  6  0  0  0
 17  5  1  0  0  0  0
 18  4  1  0  0  0  0
 19 23  1  0  0  0  0
 19 25  1  1  0  0  0
 20  1  1  0  0  0  0
 21 14  1  0  0  0  0
 22 21  1  0  0  0  0
 24 30  1  0  0  0  0
 25 26  1  0  0  0  0
 25 24  2  0  0  0  0
 26 29  2  0  0  0  0
 29 27  1  0  0  0  0
 29 28  1  0  0  0  0
 30 28  2  0  0  0  0
 31 32  2  0  0  0  0
 32 34  1  0  0  0  0
 32 37  1  0  0  0  0
 33 34  1  0  0  0  0
 35 33  2  0  0  0  0
 37 36  1  0  0  0  0
M  END
>  <MODEL>
5

>  <REMARK>
 VINA RESULT:      -4.1      2.882      8.437
  Name = 
  3 active torsions:
  status: ('A' for Active; 'I' for Inactive)
    1  A    between atoms: C_4  and  O_37
    2  A    between atoms: C_8  and  C_18
    3  A    between atoms: C_23  and  C_30
                            x       y       z     vdW  Elec       q    Type
                         _______ _______ _______ _____ _____    ______ ____

>  <TORSDO>
F 3

$$$$
