=
 OpenBabel11122412563D

 32 38  0  0  1  0  0  0  0  0999 V2000
  160.6520  209.2970  157.0820 C   0  0  1  0  0  3  0  0  0  0  0  0
  160.9760  206.9710  152.4350 C   0  0  0  0  0  0  0  0  0  0  0  0
  162.3630  210.6470  149.4000 C   0  0  0  0  0  2  0  0  0  0  0  0
  161.7210  209.8900  148.2530 C   0  0  0  0  0  2  0  0  0  0  0  0
  160.8220  204.5780  151.5460 C   0  0  0  0  0  0  0  0  0  0  0  0
  160.9270  203.7390  150.3570 C   0  0  0  0  0  0  0  0  0  0  0  0
  161.1930  207.4610  154.8830 C   0  0  1  0  0  3  0  0  0  0  0  0
  161.1120  209.2880  153.2890 N   0  0  0  0  0  2  0  0  0  0  0  0
  161.2370  203.1480  148.2170 C   0  0  0  0  0  0  0  0  0  0  0  0
  160.9490  209.8850  155.6960 C   0  0  2  0  0  3  0  0  0  0  0  0
  161.6300  210.3070  150.6910 C   0  0  0  0  0  2  0  0  0  0  0  0
  161.1790  208.3550  152.1960 C   0  0  0  0  0  0  0  0  0  0  0  0
  161.4860  208.8200  150.9100 C   0  0  0  0  0  0  0  0  0  0  0  0
  161.3380  206.5410  150.0440 C   0  0  0  0  0  0  0  0  0  0  0  0
  160.9770  202.0910  148.9210 N   0  0  0  0  0  0  0  0  0  0  0  0
  160.0830  207.9810  157.0040 O   0  0  0  0  0  0  0  0  0  0  0  0
  160.6480  208.8530  154.5960 C   0  0  2  0  0  3  0  0  0  0  0  0
  160.7820  202.4580  150.2670 N   0  0  0  0  0  2  0  0  0  0  0  0
  160.8860  207.0320  156.3200 C   0  0  0  0  0  2  0  0  0  0  0  0
  162.0990  209.4820  156.6140 C   0  0  1  0  0  3  0  0  0  0  0  0
  161.9510  208.3980  148.4500 C   0  0  0  0  0  2  0  0  0  0  0  0
  161.5480  207.9160  149.8270 C   0  0  0  0  0  0  0  0  0  0  0  0
  161.4270  205.6010  148.8830 C   0  0  0  0  0  2  0  0  0  0  0  0
  160.6350  206.5070  153.8390 C   0  0  0  0  0  2  0  0  0  0  0  0
  160.5620  204.0580  152.6640 O   0  0  0  0  0  0  0  0  0  0  0  0
  161.4970  203.1300  146.7530 C   0  0  0  0  0  1  0  0  0  0  0  0
  161.0410  206.0540  151.3580 C   0  0  0  0  0  0  0  0  0  0  0  0
  161.2270  204.3060  149.0860 C   0  0  0  0  0  0  0  0  0  0  0  0
  162.6810  210.7240  157.2610 C   0  0  0  0  0  2  0  0  0  0  0  0
  163.8960  211.1740  156.5200 C   0  0  0  0  0  0  0  0  0  0  0  0
  163.9600  211.0460  155.3070 O   0  0  0  0  0  0  0  0  0  0  0  0
  165.0240  211.8040  157.2600 C   0  0  0  0  0  1  0  0  0  0  0  0
  1 16  1  6  0  0  0
  2 24  1  0  0  0  0
  3 11  1  0  0  0  0
  4 21  1  0  0  0  0
  4  3  1  0  0  0  0
  5 25  2  0  0  0  0
  6  5  1  0  0  0  0
  7 24  1  6  0  0  0
  7 19  1  0  0  0  0
  8 17  1  0  0  0  0
  9 15  2  0  0  0  0
  9 28  1  0  0  0  0
 10 20  1  0  0  0  0
 10  1  1  0  0  0  0
 11 13  1  0  0  0  0
 12  2  1  0  0  0  0
 12  8  1  0  0  0  0
 13 12  2  0  0  0  0
 14 27  1  0  0  0  0
 15 18  1  0  0  0  0
 17  7  1  0  0  0  0
 17 10  1  0  0  0  0
 18  6  1  0  0  0  0
 19 16  1  0  0  0  0
 20  1  1  0  0  0  0
 20 29  1  0  0  0  0
 21 22  1  0  0  0  0
 22 14  2  0  0  0  0
 22 13  1  0  0  0  0
 23 28  1  0  0  0  0
 23 14  1  0  0  0  0
 26  9  1  0  0  0  0
 27  5  1  0  0  0  0
 27  2  2  0  0  0  0
 28  6  2  0  0  0  0
 30 32  1  0  0  0  0
 30 29  1  0  0  0  0
 31 30  2  0  0  0  0
M  END
>  <MODEL>
1

>  <REMARK>
 VINA RESULT:      -9.6      0.000      0.000
  Name = 
  2 active torsions:
  status: ('A' for Active; 'I' for Inactive)
    1  A    between atoms: C_20  and  C_29
    2  A    between atoms: C_29  and  C_30
                            x       y       z     vdW  Elec       q    Type
                         _______ _______ _______ _____ _____    ______ ____

>  <TORSDO>
F 2

$$$$
=
 OpenBabel11122412563D

 32 38  0  0  1  0  0  0  0  0999 V2000
  162.0060  213.2950  148.5950 C   0  0  1  0  0  3  0  0  0  0  0  0
  161.5630  208.2070  149.6050 C   0  0  0  0  0  0  0  0  0  0  0  0
  160.6380  208.0750  154.4810 C   0  0  0  0  0  2  0  0  0  0  0  0
  161.2280  206.6780  154.5160 C   0  0  0  0  0  2  0  0  0  0  0  0
  161.4940  206.0460  148.2380 C   0  0  0  0  0  0  0  0  0  0  0  0
  161.3330  204.5970  148.3070 C   0  0  0  0  0  0  0  0  0  0  0  0
  161.3350  210.4590  148.5300 C   0  0  1  0  0  3  0  0  0  0  0  0
  161.6440  210.2930  150.9310 N   0  0  0  0  0  2  0  0  0  0  0  0
  161.0200  202.5510  149.1670 C   0  0  0  0  0  0  0  0  0  0  0  0
  161.8050  212.5610  149.9280 C   0  0  2  0  0  3  0  0  0  0  0  0
  161.2990  208.8660  153.3600 C   0  0  0  0  0  2  0  0  0  0  0  0
  161.5090  208.8620  150.8620 C   0  0  0  0  0  0  0  0  0  0  0  0
  161.2840  208.1340  152.0380 C   0  0  0  0  0  0  0  0  0  0  0  0
  161.2200  206.0610  150.7490 C   0  0  0  0  0  0  0  0  0  0  0  0
  161.1520  202.4610  147.8800 N   0  0  0  0  0  0  0  0  0  0  0  0
  162.4390  212.4140  147.5480 O   0  0  0  0  0  0  0  0  0  0  0  0
  162.0270  211.0510  149.7500 C   0  0  2  0  0  3  0  0  0  0  0  0
  161.3490  203.7450  147.3360 N   0  0  0  0  0  0  0  0  0  0  0  0
  161.5600  211.3290  147.2900 C   0  0  0  0  0  2  0  0  0  0  0  0
  160.5970  213.0960  149.1640 C   0  0  1  0  0  3  0  0  0  0  0  0
  160.8410  205.9420  153.2410 C   0  0  0  0  0  2  0  0  0  0  0  0
  161.1570  206.7290  151.9860 C   0  0  0  0  0  0  0  0  0  0  0  0
  161.0640  204.5730  150.7190 C   0  0  0  0  0  3  0  0  0  0  0  0
  161.8190  209.0290  148.3550 C   0  0  0  0  0  2  0  0  0  0  0  0
  161.6710  206.6100  147.1260 O   0  0  0  0  0  0  0  0  0  0  0  0
  160.7960  201.3870  150.0650 C   0  0  0  0  0  1  0  0  0  0  0  0
  161.4320  206.7990  149.5390 C   0  0  0  0  0  0  0  0  0  0  0  0
  161.1260  203.9420  149.5540 C   0  0  0  0  0  0  0  0  0  0  0  0
  160.1300  214.3860  149.8100 C   0  0  0  0  0  2  0  0  0  0  0  0
  159.0650  214.1050  150.8190 C   0  0  0  0  0  0  0  0  0  0  0  0
  159.2110  214.4500  151.9800 O   0  0  0  0  0  0  0  0  0  0  0  0
  157.8100  213.4230  150.3990 C   0  0  0  0  0  1  0  0  0  0  0  0
  1 16  1  6  0  0  0
  1 20  1  0  0  0  0
  1 10  1  0  0  0  0
  2 12  1  0  0  0  0
  3  4  1  0  0  0  0
  5  6  1  0  0  0  0
  5 27  1  0  0  0  0
  6 28  1  0  0  0  0
  7 19  1  6  0  0  0
  7 17  1  0  0  0  0
  9 28  1  0  0  0  0
  9 26  1  0  0  0  0
 11  3  1  0  0  0  0
 12  8  1  0  0  0  0
 12 13  2  0  0  0  0
 13 11  1  0  0  0  0
 14 22  2  0  0  0  0
 15  9  2  0  0  0  0
 17 10  1  0  0  0  0
 17  8  1  0  0  0  0
 18 15  1  0  0  0  0
 18  6  2  0  0  0  0
 19 16  1  0  0  0  0
 20 29  1  0  0  0  0
 20 10  1  0  0  0  0
 21  4  1  0  0  0  0
 22 13  1  0  0  0  0
 22 21  1  0  0  0  0
 23 14  1  0  0  0  0
 24  7  1  0  0  0  0
 24  2  1  0  0  0  0
 25  5  2  0  0  0  0
 27  2  2  0  0  0  0
 27 14  1  0  0  0  0
 28 23  2  0  0  0  0
 29 30  1  0  0  0  0
 30 31  2  0  0  0  0
 32 30  1  0  0  0  0
M  END
>  <MODEL>
2

>  <REMARK>
 VINA RESULT:      -8.8      2.979      5.775
  Name = 
  2 active torsions:
  status: ('A' for Active; 'I' for Inactive)
    1  A    between atoms: C_20  and  C_29
    2  A    between atoms: C_29  and  C_30
                            x       y       z     vdW  Elec       q    Type
                         _______ _______ _______ _____ _____    ______ ____

>  <TORSDO>
F 2

$$$$
=
 OpenBabel11122412563D

 32 38  0  0  1  0  0  0  0  0999 V2000
  161.7840  202.7570  147.0990 C   0  0  1  0  0  3  0  0  0  0  0  0
  161.4010  206.2820  150.9110 C   0  0  0  0  0  0  0  0  0  0  0  0
  161.8790  210.6130  148.5310 C   0  0  0  0  0  2  0  0  0  0  0  0
  162.3880  211.2230  149.8230 C   0  0  0  0  0  2  0  0  0  0  0  0
  160.8460  206.2580  153.4080 C   0  0  0  0  0  0  0  0  0  0  0  0
  160.6420  207.0870  154.5920 C   0  0  0  0  0  0  0  0  0  0  0  0
  160.9880  204.2910  149.4460 C   0  0  1  0  0  3  0  0  0  0  0  0
  161.9510  206.3080  148.5000 N   0  0  0  0  0  2  0  0  0  0  0  0
  160.4860  208.9120  155.8830 C   0  0  0  0  0  0  0  0  0  0  0  0
  161.9320  204.2850  147.0580 C   0  0  2  0  0  3  0  0  0  0  0  0
  162.2350  209.1320  148.5070 C   0  0  0  0  0  2  0  0  0  0  0  0
  161.7340  207.0080  149.7390 C   0  0  0  0  0  0  0  0  0  0  0  0
  161.8140  208.4070  149.7630 C   0  0  0  0  0  0  0  0  0  0  0  0
  161.2910  208.4010  152.1490 C   0  0  0  0  0  0  0  0  0  0  0  0
  160.2460  207.8570  156.5990 N   0  0  0  0  0  0  0  0  0  0  0  0
  161.8630  202.2390  148.4350 O   0  0  0  0  0  0  0  0  0  0  0  0
  162.0220  204.8560  148.4820 C   0  0  2  0  0  3  0  0  0  0  0  0
  160.3440  206.7080  155.7900 N   0  0  0  0  0  2  0  0  0  0  0  0
  160.8960  202.7680  149.3290 C   0  0  0  0  0  2  0  0  0  0  0  0
  160.5850  203.6410  146.7410 C   0  0  1  0  0  3  0  0  0  0  0  0
  161.6230  210.6200  150.9930 C   0  0  0  0  0  2  0  0  0  0  0  0
  161.6100  209.1060  150.9730 C   0  0  0  0  0  0  0  0  0  0  0  0
  161.0620  209.1660  153.4140 C   0  0  0  0  0  2  0  0  0  0  0  0
  161.3340  204.7670  150.8480 C   0  0  0  0  0  2  0  0  0  0  0  0
  160.7300  205.0060  153.4860 O   0  0  0  0  0  0  0  0  0  0  0  0
  160.4680  210.3000  156.4160 C   0  0  0  0  0  1  0  0  0  0  0  0
  161.1890  206.9720  152.1290 C   0  0  0  0  0  0  0  0  0  0  0  0
  160.7630  208.5040  154.5230 C   0  0  0  0  0  0  0  0  0  0  0  0
  160.3800  203.6260  145.2380 C   0  0  0  0  0  2  0  0  0  0  0  0
  160.7170  204.9580  144.6550 C   0  0  0  0  0  0  0  0  0  0  0  0
  161.4470  205.0370  143.6810 O   0  0  0  0  0  0  0  0  0  0  0  0
  160.1380  206.1950  145.2510 C   0  0  0  0  0  1  0  0  0  0  0  0
  1 16  1  1  0  0  0
  2 27  1  0  0  0  0
  3  4  1  0  0  0  0
  4 21  1  0  0  0  0
  5 25  2  0  0  0  0
  5  6  1  0  0  0  0
  6 18  1  0  0  0  0
  7 19  1  1  0  0  0
  7 24  1  0  0  0  0
  8 12  1  0  0  0  0
  9 26  1  0  0  0  0
  9 15  2  0  0  0  0
 10  1  1  0  0  0  0
 10 17  1  0  0  0  0
 11  3  1  0  0  0  0
 11 13  1  0  0  0  0
 12 13  1  0  0  0  0
 12  2  2  0  0  0  0
 13 22  2  0  0  0  0
 14 23  1  0  0  0  0
 16 19  1  0  0  0  0
 17  8  1  0  0  0  0
 17  7  1  0  0  0  0
 18 15  1  0  0  0  0
 20 10  1  0  0  0  0
 20  1  1  0  0  0  0
 22 21  1  0  0  0  0
 22 14  1  0  0  0  0
 23 28  1  0  0  0  0
 24  2  1  0  0  0  0
 27 14  2  0  0  0  0
 27  5  1  0  0  0  0
 28  6  2  0  0  0  0
 28  9  1  0  0  0  0
 29 20  1  0  0  0  0
 30 29  1  0  0  0  0
 30 32  1  0  0  0  0
 31 30  2  0  0  0  0
M  END
>  <MODEL>
3

>  <REMARK>
 VINA RESULT:      -8.6      2.459      7.934
  Name = 
  2 active torsions:
  status: ('A' for Active; 'I' for Inactive)
    1  A    between atoms: C_20  and  C_29
    2  A    between atoms: C_29  and  C_30
                            x       y       z     vdW  Elec       q    Type
                         _______ _______ _______ _____ _____    ______ ____

>  <TORSDO>
F 2

$$$$
=
 OpenBabel11122412563D

 32 38  0  0  1  0  0  0  0  0999 V2000
  161.3760  210.3310  154.3660 C   0  0  1  0  0  3  0  0  0  0  0  0
  161.3260  206.8800  150.4690 C   0  0  0  0  0  0  0  0  0  0  0  0
  160.4560  202.5630  152.7610 C   0  0  0  0  0  2  0  0  0  0  0  0
  161.1500  201.8570  151.6120 C   0  0  0  0  0  2  0  0  0  0  0  0
  161.4070  206.9690  147.9140 C   0  0  0  0  0  0  0  0  0  0  0  0
  161.3570  206.1740  146.6910 C   0  0  0  0  0  0  0  0  0  0  0  0
  160.9200  208.9310  151.8510 C   0  0  1  0  0  3  0  0  0  0  0  0
  161.2610  206.7880  152.9390 N   0  0  0  0  0  2  0  0  0  0  0  0
  161.2060  204.3890  145.3450 C   0  0  0  0  0  0  0  0  0  0  0  0
  161.2430  208.8020  154.3950 C   0  0  2  0  0  3  0  0  0  0  0  0
  161.0460  203.9590  152.9160 C   0  0  0  0  0  2  0  0  0  0  0  0
  161.2340  206.1220  151.6640 C   0  0  0  0  0  0  0  0  0  0  0  0
  161.0750  204.7310  151.6170 C   0  0  0  0  0  0  0  0  0  0  0  0
  161.1550  204.7970  149.1770 C   0  0  0  0  0  0  0  0  0  0  0  0
  161.3330  205.4600  144.6250 N   0  0  0  0  0  0  0  0  0  0  0  0
  161.8650  210.8110  153.1050 O   0  0  0  0  0  0  0  0  0  0  0  0
  161.5760  208.2060  153.0180 C   0  0  2  0  0  3  0  0  0  0  0  0
  161.4290  206.5840  145.4680 N   0  0  0  0  0  0  0  0  0  0  0  0
  161.0680  210.4480  151.9880 C   0  0  0  0  0  2  0  0  0  0  0  0
  159.9910  209.6750  154.3970 C   0  0  1  0  0  3  0  0  0  0  0  0
  160.8090  202.5700  150.3110 C   0  0  0  0  0  2  0  0  0  0  0  0
  161.0530  204.0630  150.3740 C   0  0  0  0  0  0  0  0  0  0  0  0
  161.1120  204.0680  147.8720 C   0  0  0  0  0  3  0  0  0  0  0  0
  161.5090  208.3840  150.5600 C   0  0  0  0  0  2  0  0  0  0  0  0
  161.5320  208.2210  147.8480 O   0  0  0  0  0  0  0  0  0  0  0  0
  161.0780  203.0180  144.7820 C   0  0  0  0  0  1  0  0  0  0  0  0
  161.3000  206.2220  149.2150 C   0  0  0  0  0  0  0  0  0  0  0  0
  161.2110  204.7590  146.7440 C   0  0  0  0  0  0  0  0  0  0  0  0
  159.4340  209.7450  155.8060 C   0  0  0  0  0  2  0  0  0  0  0  0
  158.5250  210.9210  155.9460 C   0  0  0  0  0  0  0  0  0  0  0  0
  158.3790  211.4600  157.0320 O   0  0  0  0  0  0  0  0  0  0  0  0
  157.8130  211.4540  154.7520 C   0  0  0  0  0  1  0  0  0  0  0  0
  1 16  1  6  0  0  0
  1 10  1  0  0  0  0
  1 20  1  0  0  0  0
  2 24  1  0  0  0  0
  2 12  1  0  0  0  0
  3 11  1  0  0  0  0
  4  3  1  0  0  0  0
  5 27  1  0  0  0  0
  6 28  1  0  0  0  0
  6  5  1  0  0  0  0
  7 24  1  6  0  0  0
  7 19  1  0  0  0  0
  7 17  1  0  0  0  0
  8 17  1  0  0  0  0
  9 28  1  0  0  0  0
 10 20  1  0  0  0  0
 12  8  1  0  0  0  0
 13 12  2  0  0  0  0
 13 11  1  0  0  0  0
 14 27  1  0  0  0  0
 14 22  2  0  0  0  0
 15  9  2  0  0  0  0
 15 18  1  0  0  0  0
 17 10  1  0  0  0  0
 18  6  2  0  0  0  0
 19 16  1  0  0  0  0
 20 29  1  0  0  0  0
 21 22  1  0  0  0  0
 21  4  1  0  0  0  0
 22 13  1  0  0  0  0
 23 14  1  0  0  0  0
 25  5  2  0  0  0  0
 26  9  1  0  0  0  0
 27  2  2  0  0  0  0
 28 23  2  0  0  0  0
 29 30  1  0  0  0  0
 30 31  2  0  0  0  0
 32 30  1  0  0  0  0
M  END
>  <MODEL>
4

>  <REMARK>
 VINA RESULT:      -8.4      2.661      4.728
  Name = 
  2 active torsions:
  status: ('A' for Active; 'I' for Inactive)
    1  A    between atoms: C_20  and  C_29
    2  A    between atoms: C_29  and  C_30
                            x       y       z     vdW  Elec       q    Type
                         _______ _______ _______ _____ _____    ______ ____

>  <TORSDO>
F 2

$$$$
=
 OpenBabel11122412563D

 32 38  0  0  1  0  0  0  0  0999 V2000
  160.5100  207.9240  156.5710 C   0  0  1  0  0  3  0  0  0  0  0  0
  161.1530  207.0710  151.4760 C   0  0  0  0  0  0  0  0  0  0  0  0
  162.3930  211.5400  149.7040 C   0  0  0  0  0  2  0  0  0  0  0  0
  161.8440  211.1150  148.3560 C   0  0  0  0  0  2  0  0  0  0  0  0
  161.1940  205.0340  149.9290 C   0  0  0  0  0  0  0  0  0  0  0  0
  161.3970  204.5840  148.5560 C   0  0  0  0  0  0  0  0  0  0  0  0
  161.2510  206.8390  153.9690 C   0  0  1  0  0  3  0  0  0  0  0  0
  161.1020  209.0440  152.9660 N   0  0  0  0  0  2  0  0  0  0  0  0
  161.8210  204.6590  146.3560 C   0  0  0  0  0  0  0  0  0  0  0  0
  160.8150  208.9050  155.4300 C   0  0  2  0  0  3  0  0  0  0  0  0
  161.6400  210.8000  150.8030 C   0  0  0  0  0  2  0  0  0  0  0  0
  161.2700  208.4730  151.6560 C   0  0  0  0  0  0  0  0  0  0  0  0
  161.5900  209.3070  150.5760 C   0  0  0  0  0  0  0  0  0  0  0  0
  161.6280  207.3740  149.0850 C   0  0  0  0  0  0  0  0  0  0  0  0
  161.6090  203.4290  146.7110 N   0  0  0  0  0  0  0  0  0  0  0  0
  160.0340  206.6590  156.0870 O   0  0  0  0  0  0  0  0  0  0  0  0
  160.6230  208.2230  154.0660 C   0  0  2  0  0  3  0  0  0  0  0  0
  161.3420  203.3790  148.0930 N   0  0  0  0  0  2  0  0  0  0  0  0
  160.9230  205.9950  155.2030 C   0  0  0  0  0  2  0  0  0  0  0  0
  161.9560  208.3160  156.2540 C   0  0  1  0  0  3  0  0  0  0  0  0
  162.1690  209.6450  148.1270 C   0  0  0  0  0  2  0  0  0  0  0  0
  161.7520  208.7620  149.2840 C   0  0  0  0  0  0  0  0  0  0  0  0
  161.8210  206.8190  147.7090 C   0  0  0  0  0  2  0  0  0  0  0  0
  160.7950  206.2010  152.6660 C   0  0  0  0  0  2  0  0  0  0  0  0
  160.9300  204.1990  150.8340 O   0  0  0  0  0  0  0  0  0  0  0  0
  162.1330  205.0810  144.9640 C   0  0  0  0  0  1  0  0  0  0  0  0
  161.3190  206.5110  150.1860 C   0  0  0  0  0  0  0  0  0  0  0  0
  161.7020  205.5110  147.5190 C   0  0  0  0  0  0  0  0  0  0  0  0
  162.4290  209.3470  157.2610 C   0  0  0  0  0  2  0  0  0  0  0  0
  162.6550  210.6620  156.5900 C   0  0  0  0  0  0  0  0  0  0  0  0
  163.5890  210.8070  155.8180 O   0  0  0  0  0  0  0  0  0  0  0  0
  161.7200  211.7930  156.8450 C   0  0  0  0  0  1  0  0  0  0  0  0
  1 16  1  6  0  0  0
  2 12  1  0  0  0  0
  2 24  1  0  0  0  0
  3 11  1  0  0  0  0
  4  3  1  0  0  0  0
  5 27  1  0  0  0  0
  5 25  2  0  0  0  0
  6  5  1  0  0  0  0
  7 24  1  6  0  0  0
  7 17  1  0  0  0  0
  7 19  1  0  0  0  0
  8 17  1  0  0  0  0
  9 15  2  0  0  0  0
  9 28  1  0  0  0  0
 10 20  1  0  0  0  0
 10  1  1  0  0  0  0
 12  8  1  0  0  0  0
 13 11  1  0  0  0  0
 13 12  2  0  0  0  0
 14 22  2  0  0  0  0
 14 27  1  0  0  0  0
 15 18  1  0  0  0  0
 17 10  1  0  0  0  0
 18  6  1  0  0  0  0
 19 16  1  0  0  0  0
 20  1  1  0  0  0  0
 20 29  1  0  0  0  0
 21  4  1  0  0  0  0
 21 22  1  0  0  0  0
 22 13  1  0  0  0  0
 23 14  1  0  0  0  0
 26  9  1  0  0  0  0
 27  2  2  0  0  0  0
 28 23  1  0  0  0  0
 28  6  2  0  0  0  0
 30 32  1  0  0  0  0
 30 29  1  0  0  0  0
 31 30  2  0  0  0  0
M  END
>  <MODEL>
5

>  <REMARK>
 VINA RESULT:      -7.8      1.247      1.612
  Name = 
  2 active torsions:
  status: ('A' for Active; 'I' for Inactive)
    1  A    between atoms: C_20  and  C_29
    2  A    between atoms: C_29  and  C_30
                            x       y       z     vdW  Elec       q    Type
                         _______ _______ _______ _____ _____    ______ ____

>  <TORSDO>
F 2

$$$$
=
 OpenBabel11122412563D

 32 38  0  0  1  0  0  0  0  0999 V2000
  161.9550  203.3340  146.6630 C   0  0  1  0  0  3  0  0  0  0  0  0
  161.4690  206.6640  150.6350 C   0  0  0  0  0  0  0  0  0  0  0  0
  161.7700  211.1140  148.4540 C   0  0  0  0  0  2  0  0  0  0  0  0
  162.2650  211.6820  149.7690 C   0  0  0  0  0  2  0  0  0  0  0  0
  160.9330  206.5050  153.1310 C   0  0  0  0  0  0  0  0  0  0  0  0
  160.7070  207.2710  154.3520 C   0  0  0  0  0  0  0  0  0  0  0  0
  161.1190  204.7280  149.0820 C   0  0  1  0  0  3  0  0  0  0  0  0
  162.0010  206.8210  148.2250 N   0  0  0  0  0  2  0  0  0  0  0  0
  160.4920  209.0280  155.7270 C   0  0  0  0  0  0  0  0  0  0  0  0
  162.0460  204.8660  146.6910 C   0  0  2  0  0  3  0  0  0  0  0  0
  162.1800  209.6500  148.3590 C   0  0  0  0  0  2  0  0  0  0  0  0
  161.7670  207.4540  149.4950 C   0  0  0  0  0  0  0  0  0  0  0  0
  161.7960  208.8530  149.5830 C   0  0  0  0  0  0  0  0  0  0  0  0
  161.2890  208.7190  151.9690 C   0  0  0  0  0  0  0  0  0  0  0  0
  160.2970  207.9330  156.3950 N   0  0  0  0  0  0  0  0  0  0  0  0
  162.0630  202.7580  147.9730 O   0  0  0  0  0  0  0  0  0  0  0  0
  162.1260  205.3740  148.1390 C   0  0  2  0  0  3  0  0  0  0  0  0
  160.4310  206.8270  155.5340 N   0  0  0  0  0  2  0  0  0  0  0  0
  161.0840  203.2090  148.8960 C   0  0  0  0  0  2  0  0  0  0  0  0
  160.7220  204.1880  146.3520 C   0  0  1  0  0  3  0  0  0  0  0  0
  161.5310  210.9980  150.9150 C   0  0  0  0  0  2  0  0  0  0  0  0
  161.5740  209.4880  150.8250 C   0  0  0  0  0  0  0  0  0  0  0  0
  161.0410  209.4160  153.2690 C   0  0  0  0  0  2  0  0  0  0  0  0
  161.4570  205.1520  150.5020 C   0  0  0  0  0  2  0  0  0  0  0  0
  160.8640  205.2470  153.1520 O   0  0  0  0  0  0  0  0  0  0  0  0
  160.4270  210.3890  156.3230 C   0  0  0  0  0  1  0  0  0  0  0  0
  161.2400  207.2890  151.8840 C   0  0  0  0  0  0  0  0  0  0  0  0
  160.7750  208.6930  154.3480 C   0  0  0  0  0  0  0  0  0  0  0  0
  160.5070  204.2340  144.8520 C   0  0  0  0  0  2  0  0  0  0  0  0
  159.5770  203.1460  144.4270 C   0  0  0  0  0  0  0  0  0  0  0  0
  158.5890  203.4070  143.7600 O   0  0  0  0  0  0  0  0  0  0  0  0
  159.8710  201.7340  144.7980 C   0  0  0  0  0  1  0  0  0  0  0  0
  1 10  1  0  0  0  0
  1 16  1  1  0  0  0
  2 27  1  0  0  0  0
  3  4  1  0  0  0  0
  4 21  1  0  0  0  0
  5 25  2  0  0  0  0
  5  6  1  0  0  0  0
  6 18  1  0  0  0  0
  7 19  1  1  0  0  0
  7 24  1  0  0  0  0
  8 12  1  0  0  0  0
  9 26  1  0  0  0  0
  9 15  2  0  0  0  0
 10 17  1  0  0  0  0
 11  3  1  0  0  0  0
 11 13  1  0  0  0  0
 12 13  1  0  0  0  0
 12  2  2  0  0  0  0
 13 22  2  0  0  0  0
 14 23  1  0  0  0  0
 16 19  1  0  0  0  0
 17  8  1  0  0  0  0
 17  7  1  0  0  0  0
 18 15  1  0  0  0  0
 20  1  1  0  0  0  0
 20 10  1  0  0  0  0
 22 21  1  0  0  0  0
 22 14  1  0  0  0  0
 23 28  1  0  0  0  0
 24  2  1  0  0  0  0
 27 14  2  0  0  0  0
 27  5  1  0  0  0  0
 28  6  2  0  0  0  0
 28  9  1  0  0  0  0
 29 20  1  0  0  0  0
 30 32  1  0  0  0  0
 30 29  1  0  0  0  0
 31 30  2  0  0  0  0
M  END
>  <MODEL>
6

>  <REMARK>
 VINA RESULT:      -7.5      2.518      8.281
  Name = 
  2 active torsions:
  status: ('A' for Active; 'I' for Inactive)
    1  A    between atoms: C_20  and  C_29
    2  A    between atoms: C_29  and  C_30
                            x       y       z     vdW  Elec       q    Type
                         _______ _______ _______ _____ _____    ______ ____

>  <TORSDO>
F 2

$$$$
=
 OpenBabel11122412563D

 32 38  0  0  1  0  0  0  0  0999 V2000
  162.3650  210.9370  151.1780 C   0  0  1  0  0  3  0  0  0  0  0  0
  161.5020  206.3230  148.9270 C   0  0  0  0  0  0  0  0  0  0  0  0
  160.8810  203.2570  152.7820 C   0  0  0  0  0  2  0  0  0  0  0  0
  161.3350  202.1130  151.8960 C   0  0  0  0  0  2  0  0  0  0  0  0
  161.1380  205.4620  146.5460 C   0  0  0  0  0  0  0  0  0  0  0  0
  160.8440  204.2840  145.7370 C   0  0  0  0  0  0  0  0  0  0  0  0
  161.4230  208.7670  149.4760 C   0  0  1  0  0  3  0  0  0  0  0  0
  161.8660  207.1490  151.2290 N   0  0  0  0  0  2  0  0  0  0  0  0
  160.3910  202.1550  145.2030 C   0  0  0  0  0  0  0  0  0  0  0  0
  162.1800  209.5470  151.8020 C   0  0  2  0  0  3  0  0  0  0  0  0
  161.5420  204.5450  152.3090 C   0  0  0  0  0  2  0  0  0  0  0  0
  161.5910  206.0690  150.3200 C   0  0  0  0  0  0  0  0  0  0  0  0
  161.3730  204.7810  150.8260 C   0  0  0  0  0  0  0  0  0  0  0  0
  161.0270  203.9410  148.5590 C   0  0  0  0  0  0  0  0  0  0  0  0
  160.4310  202.8690  144.1220 N   0  0  0  0  0  0  0  0  0  0  0  0
  162.6440  210.8700  149.7720 O   0  0  0  0  0  0  0  0  0  0  0  0
  162.2440  208.4580  150.7200 C   0  0  2  0  0  3  0  0  0  0  0  0
  160.7160  204.2080  144.4530 N   0  0  0  0  0  0  0  0  0  0  0  0
  161.6510  210.2060  149.0060 C   0  0  0  0  0  2  0  0  0  0  0  0
  160.9830  210.4820  151.6590 C   0  0  1  0  0  3  0  0  0  0  0  0
  160.7990  202.3310  150.4880 C   0  0  0  0  0  2  0  0  0  0  0  0
  161.1080  203.7100  149.9450 C   0  0  0  0  0  0  0  0  0  0  0  0
  160.7280  202.7930  147.6480 C   0  0  0  0  0  3  0  0  0  0  0  0
  161.7550  207.7290  148.4150 C   0  0  0  0  0  2  0  0  0  0  0  0
  161.2970  206.5830  145.9950 O   0  0  0  0  0  0  0  0  0  0  0  0
  160.1140  200.6930  145.2260 C   0  0  0  0  0  1  0  0  0  0  0  0
  161.2310  205.2580  148.0340 C   0  0  0  0  0  0  0  0  0  0  0  0
  160.6540  203.0090  146.3410 C   0  0  0  0  0  0  0  0  0  0  0  0
  160.6840  211.1190  153.0020 C   0  0  0  0  0  2  0  0  0  0  0  0
  159.5760  212.1120  152.8700 C   0  0  0  0  0  0  0  0  0  0  0  0
  159.6600  213.0230  152.0630 O   0  0  0  0  0  0  0  0  0  0  0  0
  158.3550  211.9740  153.7110 C   0  0  0  0  0  1  0  0  0  0  0  0
  1 16  1  6  0  0  0
  1 20  1  0  0  0  0
  1 10  1  0  0  0  0
  2 12  1  0  0  0  0
  4  3  1  0  0  0  0
  5 27  1  0  0  0  0
  6 28  1  0  0  0  0
  6  5  1  0  0  0  0
  7 24  1  6  0  0  0
  7 17  1  0  0  0  0
  9 26  1  0  0  0  0
  9 28  1  0  0  0  0
 11  3  1  0  0  0  0
 12 13  2  0  0  0  0
 12  8  1  0  0  0  0
 13 11  1  0  0  0  0
 14 22  2  0  0  0  0
 15 18  1  0  0  0  0
 15  9  2  0  0  0  0
 17  8  1  0  0  0  0
 17 10  1  0  0  0  0
 18  6  2  0  0  0  0
 19  7  1  0  0  0  0
 19 16  1  0  0  0  0
 20 10  1  0  0  0  0
 20 29  1  0  0  0  0
 21  4  1  0  0  0  0
 22 21  1  0  0  0  0
 22 13  1  0  0  0  0
 23 14  1  0  0  0  0
 24  2  1  0  0  0  0
 25  5  2  0  0  0  0
 27 14  1  0  0  0  0
 27  2  2  0  0  0  0
 28 23  2  0  0  0  0
 30 29  1  0  0  0  0
 30 32  1  0  0  0  0
 31 30  2  0  0  0  0
M  END
>  <MODEL>
7

>  <REMARK>
 VINA RESULT:      -7.1      3.495      5.444
  Name = 
  2 active torsions:
  status: ('A' for Active; 'I' for Inactive)
    1  A    between atoms: C_20  and  C_29
    2  A    between atoms: C_29  and  C_30
                            x       y       z     vdW  Elec       q    Type
                         _______ _______ _______ _____ _____    ______ ____

>  <TORSDO>
F 2

$$$$
=
 OpenBabel11122412563D

 32 38  0  0  1  0  0  0  0  0999 V2000
  161.0990  201.3400  149.0200 C   0  0  1  0  0  3  0  0  0  0  0  0
  161.2890  205.8420  151.6270 C   0  0  0  0  0  0  0  0  0  0  0  0
  161.5860  209.2480  148.0280 C   0  0  0  0  0  2  0  0  0  0  0  0
  162.2680  210.1760  149.0150 C   0  0  0  0  0  2  0  0  0  0  0  0
  161.0480  206.5840  154.0630 C   0  0  0  0  0  0  0  0  0  0  0  0
  161.0150  207.7340  154.9610 C   0  0  0  0  0  0  0  0  0  0  0  0
  160.6420  203.5400  150.8760 C   0  0  1  0  0  3  0  0  0  0  0  0
  161.5360  205.1270  149.2730 N   0  0  0  0  0  2  0  0  0  0  0  0
  161.0700  209.8630  155.6600 C   0  0  0  0  0  0  0  0  0  0  0  0
  161.2820  202.7760  148.5100 C   0  0  2  0  0  3  0  0  0  0  0  0
  161.8960  207.8060  148.4060 C   0  0  0  0  0  2  0  0  0  0  0  0
  161.4930  206.1710  150.2630 C   0  0  0  0  0  0  0  0  0  0  0  0
  161.6140  207.5080  149.8600 C   0  0  0  0  0  0  0  0  0  0  0  0
  161.3910  208.2330  152.1820 C   0  0  0  0  0  0  0  0  0  0  0  0
  160.8920  209.0810  156.6790 N   0  0  0  0  0  0  0  0  0  0  0  0
  161.3290  201.2310  150.4330 O   0  0  0  0  0  0  0  0  0  0  0  0
  161.5640  203.7320  149.6800 C   0  0  2  0  0  3  0  0  0  0  0  0
  160.8570  207.7410  156.2440 N   0  0  0  0  0  2  0  0  0  0  0  0
  160.4960  202.0580  151.2300 C   0  0  0  0  0  2  0  0  0  0  0  0
  159.8900  202.1540  148.5500 C   0  0  1  0  0  3  0  0  0  0  0  0
  161.6380  209.9910  150.3890 C   0  0  0  0  0  2  0  0  0  0  0  0
  161.5810  208.5410  150.8220 C   0  0  0  0  0  0  0  0  0  0  0  0
  161.3420  209.3470  153.1790 C   0  0  0  0  0  2  0  0  0  0  0  0
  161.1730  204.3820  152.0260 C   0  0  0  0  0  2  0  0  0  0  0  0
  160.9080  205.4200  154.5230 O   0  0  0  0  0  0  0  0  0  0  0  0
  161.1570  211.3450  155.7530 C   0  0  0  0  0  1  0  0  0  0  0  0
  161.2480  206.8700  152.6000 C   0  0  0  0  0  0  0  0  0  0  0  0
  161.1650  209.0580  154.4610 C   0  0  0  0  0  0  0  0  0  0  0  0
  159.5000  201.7130  147.1520 C   0  0  0  0  0  2  0  0  0  0  0  0
  160.7000  201.6780  146.2650 C   0  0  0  0  0  0  0  0  0  0  0  0
  161.2650  200.6210  146.0370 O   0  0  0  0  0  0  0  0  0  0  0  0
  161.1930  202.9350  145.6370 C   0  0  0  0  0  1  0  0  0  0  0  0
  1 16  1  1  0  0  0
  2 24  1  0  0  0  0
  2 27  1  0  0  0  0
  3 11  1  0  0  0  0
  3  4  1  0  0  0  0
  4 21  1  0  0  0  0
  5 25  2  0  0  0  0
  5  6  1  0  0  0  0
  6 18  1  0  0  0  0
  7 19  1  1  0  0  0
  7 24  1  0  0  0  0
  8 17  1  0  0  0  0
  8 12  1  0  0  0  0
  9 26  1  0  0  0  0
  9 15  2  0  0  0  0
 10 20  1  0  0  0  0
 10  1  1  0  0  0  0
 10 17  1  0  0  0  0
 11 13  1  0  0  0  0
 12  2  2  0  0  0  0
 13 12  1  0  0  0  0
 13 22  2  0  0  0  0
 14 27  2  0  0  0  0
 14 23  1  0  0  0  0
 16 19  1  0  0  0  0
 17  7  1  0  0  0  0
 18 15  1  0  0  0  0
 20  1  1  0  0  0  0
 21 22  1  0  0  0  0
 22 14  1  0  0  0  0
 23 28  1  0  0  0  0
 27  5  1  0  0  0  0
 28  6  2  0  0  0  0
 28  9  1  0  0  0  0
 29 20  1  0  0  0  0
 30 29  1  0  0  0  0
 31 30  2  0  0  0  0
 32 30  1  0  0  0  0
M  END
>  <MODEL>
8

>  <REMARK>
 VINA RESULT:      -7.0      2.067      8.016
  Name = 
  2 active torsions:
  status: ('A' for Active; 'I' for Inactive)
    1  A    between atoms: C_20  and  C_29
    2  A    between atoms: C_29  and  C_30
                            x       y       z     vdW  Elec       q    Type
                         _______ _______ _______ _____ _____    ______ ____

>  <TORSDO>
F 2

$$$$
