=
 OpenBabel11122412513D

 32 37  0  0  1  0  0  0  0  0999 V2000
  161.8630  208.2970  150.5330 C   0  0  0  0  0  2  0  0  0  0  0  0
  161.4130  212.8080  147.4650 C   0  0  1  0  0  3  0  0  0  0  0  0
  156.9350  213.3850  149.4490 C   0  0  0  0  0  2  0  0  0  0  0  0
  156.4240  213.9620  148.2090 N   0  0  0  0  0  2  0  0  0  0  0  0
  161.7420  212.8240  144.9570 C   0  0  1  0  0  3  0  0  0  0  0  0
  161.0490  213.0810  143.6510 C   0  0  0  0  0  0  0  0  0  0  0  0
  162.0470  210.9510  148.5760 C   0  0  1  0  0  3  0  0  0  0  0  0
  161.1470  212.8190  149.9420 C   0  0  0  0  0  2  0  0  0  0  0  0
  159.4330  213.5400  142.2450 N   0  0  0  0  0  0  0  0  0  0  0  0
  161.9410  210.7570  151.1080 C   0  0  0  0  0  2  0  0  0  0  0  0
  158.4250  213.6890  149.5780 C   0  0  0  0  0  2  0  0  0  0  0  0
  160.5880  213.3960  148.6280 C   0  0  2  0  0  3  0  0  0  0  0  0
  159.1580  213.0780  148.4630 N   0  0  2  0  0  0  0  0  0  0  0  0
  159.3980  213.1500  145.9830 C   0  0  1  0  0  3  0  0  0  0  0  0
  160.5430  213.1600  141.5780 C   0  0  0  0  0  3  0  0  0  0  0  0
  161.4440  208.5060  149.0840 C   0  0  0  0  0  2  0  0  0  0  0  0
  161.2710  211.3020  149.8580 C   0  0  2  0  0  3  0  0  0  0  0  0
  161.5600  212.8590  142.4220 N   0  0  0  0  0  0  0  0  0  0  0  0
  162.4120  209.4710  148.4060 C   0  0  0  0  0  2  0  0  0  0  0  0
  161.3390  209.4000  151.4520 C   0  0  2  0  0  3  0  0  0  0  0  0
  157.1510  213.3770  147.0850 C   0  0  0  0  0  2  0  0  0  0  0  0
  158.6490  213.6820  147.2140 C   0  0  1  0  0  3  0  0  0  0  0  0
  158.8780  213.8330  144.7060 C   0  0  0  0  0  2  0  0  0  0  0  0
  161.3270  211.4000  147.4580 O   0  0  0  0  0  0  0  0  0  0  0  0
  163.1240  213.4550  144.9440 C   0  0  0  0  0  1  0  0  0  0  0  0
  158.1650  213.9370  141.6580 C   0  0  0  0  0  1  0  0  0  0  0  0
  160.9200  213.3830  146.1410 C   0  0  1  0  0  3  0  0  0  0  0  0
  159.7440  213.4670  143.5450 C   0  0  0  0  0  0  0  0  0  0  0  0
  161.6570  209.0770  152.8350 N   0  0  0  0  0  2  0  0  0  0  0  0
  160.8830  209.5560  153.9350 C   0  0  0  0  0  0  0  0  0  0  0  0
  159.8920  210.3100  153.7460 O   0  0  0  0  0  0  0  0  0  0  0  0
  161.3280  209.0840  155.6000 S   0  0  0  0  0  1  0  0  0  0  0  0
  1 20  1  0  0  0  0
  2 24  1  6  0  0  0
  2 12  1  0  0  0  0
  3 11  1  0  0  0  0
  4  3  1  0  0  0  0
  5 25  1  6  0  0  0
  5 27  1  0  0  0  0
  6  5  1  0  0  0  0
  7 19  1  6  0  0  0
  7 17  1  0  0  0  0
  9 28  1  0  0  0  0
 10 20  1  0  0  0  0
 12  8  1  1  0  0  0
 13 12  1  0  0  0  0
 13 11  1  1  0  0  0
 14 23  1  6  0  0  0
 14 27  1  0  0  0  0
 14 22  1  0  0  0  0
 15  9  1  0  0  0  0
 15 18  2  0  0  0  0
 16  1  1  0  0  0  0
 17  8  1  1  0  0  0
 17 10  1  0  0  0  0
 18  6  1  0  0  0  0
 19 16  1  0  0  0  0
 20 29  1  1  0  0  0
 21  4  1  0  0  0  0
 22 21  1  6  0  0  0
 22 13  1  0  0  0  0
 24  7  1  0  0  0  0
 26  9  1  0  0  0  0
 27  2  1  0  0  0  0
 28  6  2  0  0  0  0
 28 23  1  0  0  0  0
 29 30  1  0  0  0  0
 30 32  1  0  0  0  0
 31 30  2  0  0  0  0
M  END
>  <MODEL>
1

>  <REMARK>
 VINA RESULT:      -5.1      0.000      0.000
  Name = 
  1 active torsions:
  status: ('A' for Active; 'I' for Inactive)
    1  A    between atoms: C_20  and  N_29
                            x       y       z     vdW  Elec       q    Type
                         _______ _______ _______ _____ _____    ______ ____

>  <TORSDO>
F 1

$$$$
=
 OpenBabel11122412513D

 32 37  0  0  1  0  0  0  0  0999 V2000
  161.0590  208.5580  152.7900 C   0  0  0  0  0  2  0  0  0  0  0  0
  161.0090  213.0570  149.6730 C   0  0  1  0  0  3  0  0  0  0  0  0
  156.1970  213.3880  150.6970 C   0  0  0  0  0  2  0  0  0  0  0  0
  155.9200  213.9450  149.3760 N   0  0  0  0  0  2  0  0  0  0  0  0
  161.8420  213.1050  147.2850 C   0  0  1  0  0  3  0  0  0  0  0  0
  161.4190  213.3330  145.8640 C   0  0  0  0  0  0  0  0  0  0  0  0
  161.5000  211.2300  150.8990 C   0  0  1  0  0  3  0  0  0  0  0  0
  160.2430  213.0400  152.0430 C   0  0  0  0  0  2  0  0  0  0  0  0
  160.1030  213.7150  144.1540 N   0  0  0  0  0  0  0  0  0  0  0  0
  160.8890  211.0150  153.3560 C   0  0  0  0  0  2  0  0  0  0  0  0
  157.6110  213.7690  151.1260 C   0  0  0  0  0  2  0  0  0  0  0  0
  159.9340  213.5950  150.6400 C   0  0  2  0  0  3  0  0  0  0  0  0
  158.5870  213.2040  150.1880 N   0  0  2  0  0  0  0  0  0  0  0  0
  159.3250  213.3020  147.8080 C   0  0  1  0  0  3  0  0  0  0  0  0
  161.3430  213.3980  143.7300 C   0  0  0  0  0  3  0  0  0  0  0  0
  160.9350  208.7540  151.2850 C   0  0  0  0  0  2  0  0  0  0  0  0
  160.4610  211.5320  151.9940 C   0  0  2  0  0  3  0  0  0  0  0  0
  162.1810  213.1450  144.7660 N   0  0  0  0  0  0  0  0  0  0  0  0
  161.9680  209.7710  150.8140 C   0  0  0  0  0  2  0  0  0  0  0  0
  160.3010  209.6270  153.5770 C   0  0  2  0  0  3  0  0  0  0  0  0
  156.8910  213.4050  148.4270 C   0  0  0  0  0  2  0  0  0  0  0  0
  158.3130  213.7870  148.8580 C   0  0  1  0  0  3  0  0  0  0  0  0
  159.0420  213.9650  146.4490 C   0  0  0  0  0  2  0  0  0  0  0  0
  161.0010  211.6470  149.6550 O   0  0  0  0  0  0  0  0  0  0  0  0
  163.1630  213.8080  147.5510 C   0  0  0  0  0  1  0  0  0  0  0  0
  158.9620  214.0490  143.3190 C   0  0  0  0  0  1  0  0  0  0  0  0
  160.7680  213.6140  148.2720 C   0  0  1  0  0  3  0  0  0  0  0  0
  160.1440  213.6510  145.4910 C   0  0  0  0  0  0  0  0  0  0  0  0
  160.3470  209.3130  154.9980 N   0  0  0  0  0  2  0  0  0  0  0  0
  160.3210  207.9730  155.4910 C   0  0  0  0  0  0  0  0  0  0  0  0
  160.2310  206.9970  154.6990 O   0  0  0  0  0  0  0  0  0  0  0  0
  160.4100  207.6780  157.2500 S   0  0  0  0  0  1  0  0  0  0  0  0
  1 20  1  0  0  0  0
  2 24  1  6  0  0  0
  2 12  1  0  0  0  0
  3 11  1  0  0  0  0
  4  3  1  0  0  0  0
  5 25  1  1  0  0  0
  5 27  1  0  0  0  0
  6  5  1  0  0  0  0
  7 19  1  6  0  0  0
  7 17  1  0  0  0  0
  9 28  1  0  0  0  0
 10 20  1  0  0  0  0
 12  8  1  1  0  0  0
 13 12  1  0  0  0  0
 13 11  1  1  0  0  0
 14 23  1  6  0  0  0
 14 27  1  0  0  0  0
 14 22  1  0  0  0  0
 15  9  1  0  0  0  0
 15 18  2  0  0  0  0
 16  1  1  0  0  0  0
 17  8  1  1  0  0  0
 17 10  1  0  0  0  0
 18  6  1  0  0  0  0
 19 16  1  0  0  0  0
 20 29  1  1  0  0  0
 21  4  1  0  0  0  0
 22 21  1  6  0  0  0
 22 13  1  0  0  0  0
 24  7  1  0  0  0  0
 26  9  1  0  0  0  0
 27  2  1  0  0  0  0
 28  6  2  0  0  0  0
 28 23  1  0  0  0  0
 29 30  1  0  0  0  0
 30 32  1  0  0  0  0
 31 30  2  0  0  0  0
M  END
>  <MODEL>
2

>  <REMARK>
 VINA RESULT:      -4.3      1.659      2.203
  Name = 
  1 active torsions:
  status: ('A' for Active; 'I' for Inactive)
    1  A    between atoms: C_20  and  N_29
                            x       y       z     vdW  Elec       q    Type
                         _______ _______ _______ _____ _____    ______ ____

>  <TORSDO>
F 1

$$$$
=
 OpenBabel11122412513D

 32 37  0  0  1  0  0  0  0  0999 V2000
  157.1820  213.3920  146.2800 C   0  0  0  0  0  2  0  0  0  0  0  0
  159.9730  213.1340  150.9820 C   0  0  1  0  0  3  0  0  0  0  0  0
  162.3020  209.2290  149.0730 C   0  0  0  0  0  2  0  0  0  0  0  0
  162.4050  208.6060  150.3900 N   0  0  0  0  0  2  0  0  0  0  0  0
  158.8650  213.0120  153.2530 C   0  0  1  0  0  3  0  0  0  0  0  0
  158.6990  212.1500  154.4690 C   0  0  0  0  0  0  0  0  0  0  0  0
  158.6610  213.6500  149.2220 C   0  0  1  0  0  3  0  0  0  0  0  0
  161.0770  213.3170  148.7560 C   0  0  0  0  0  2  0  0  0  0  0  0
  158.8720  210.4050  155.7830 N   0  0  0  0  0  0  0  0  0  0  0  0
  159.5710  213.9640  146.8700 C   0  0  0  0  0  2  0  0  0  0  0  0
  162.2940  210.7480  149.2260 C   0  0  0  0  0  2  0  0  0  0  0  0
  161.1600  212.6330  150.1340 C   0  0  2  0  0  3  0  0  0  0  0  0
  161.1270  211.1650  150.0120 N   0  0  2  0  0  0  0  0  0  0  0  0
  160.1000  210.9700  152.2760 C   0  0  1  0  0  3  0  0  0  0  0  0
  158.0140  211.3040  156.3070 C   0  0  0  0  0  3  0  0  0  0  0  0
  156.8530  212.7630  147.6270 C   0  0  0  0  0  2  0  0  0  0  0  0
  159.6780  213.1790  148.1670 C   0  0  2  0  0  3  0  0  0  0  0  0
  157.8760  212.3930  155.5110 N   0  0  0  0  0  0  0  0  0  0  0  0
  157.2050  213.7360  148.7470 C   0  0  0  0  0  2  0  0  0  0  0  0
  158.6540  213.2230  145.9060 C   0  0  2  0  0  3  0  0  0  0  0  0
  161.2590  209.0190  151.1940 C   0  0  0  0  0  2  0  0  0  0  0  0
  161.2490  210.5460  151.3490 C   0  0  1  0  0  3  0  0  0  0  0  0
  160.2830  210.3490  153.6710 C   0  0  0  0  0  2  0  0  0  0  0  0
  158.7480  212.8240  150.3540 O   0  0  0  0  0  0  0  0  0  0  0  0
  159.1100  214.4530  153.6690 C   0  0  0  0  0  1  0  0  0  0  0  0
  159.2580  209.1330  156.3700 C   0  0  0  0  0  1  0  0  0  0  0  0
  160.0350  212.5130  152.3750 C   0  0  1  0  0  3  0  0  0  0  0  0
  159.2830  210.9250  154.6200 C   0  0  0  0  0  0  0  0  0  0  0  0
  158.8770  213.7250  144.5580 N   0  0  0  0  0  2  0  0  0  0  0  0
  159.5500  212.9630  143.5540 C   0  0  0  0  0  0  0  0  0  0  0  0
  160.0050  211.8170  143.8130 O   0  0  0  0  0  0  0  0  0  0  0  0
  159.7540  213.6460  141.9170 S   0  0  0  0  0  1  0  0  0  0  0  0
  1 16  1  0  0  0  0
  2 24  1  6  0  0  0
  2 27  1  0  0  0  0
  3 11  1  0  0  0  0
  3  4  1  0  0  0  0
  4 21  1  0  0  0  0
  5 25  1  1  0  0  0
  5  6  1  0  0  0  0
  6 28  2  0  0  0  0
  6 18  1  0  0  0  0
  7 19  1  6  0  0  0
  7 24  1  0  0  0  0
  9 15  1  0  0  0  0
  9 26  1  0  0  0  0
 12  8  1  6  0  0  0
 12  2  1  0  0  0  0
 13 11  1  6  0  0  0
 13 12  1  0  0  0  0
 13 22  1  0  0  0  0
 14 27  1  0  0  0  0
 14 23  1  1  0  0  0
 16 19  1  0  0  0  0
 17 10  1  6  0  0  0
 17  8  1  0  0  0  0
 17  7  1  0  0  0  0
 18 15  2  0  0  0  0
 20 29  1  6  0  0  0
 20  1  1  0  0  0  0
 20 10  1  0  0  0  0
 22 21  1  6  0  0  0
 22 14  1  0  0  0  0
 23 28  1  0  0  0  0
 27  5  1  0  0  0  0
 28  9  1  0  0  0  0
 30 31  2  0  0  0  0
 30 29  1  0  0  0  0
 32 30  1  0  0  0  0
M  END
>  <MODEL>
3

>  <REMARK>
 VINA RESULT:      -4.1      3.593      8.872
  Name = 
  1 active torsions:
  status: ('A' for Active; 'I' for Inactive)
    1  A    between atoms: C_20  and  N_29
                            x       y       z     vdW  Elec       q    Type
                         _______ _______ _______ _____ _____    ______ ____

>  <TORSDO>
F 1

$$$$
=
 OpenBabel11122412513D

 32 37  0  0  1  0  0  0  0  0999 V2000
  159.7340  213.7410  147.4830 C   0  0  0  0  0  2  0  0  0  0  0  0
  162.1660  210.3700  151.0460 C   0  0  1  0  0  3  0  0  0  0  0  0
  160.8240  206.6820  148.0600 C   0  0  0  0  0  2  0  0  0  0  0  0
  160.6430  205.7840  149.1960 N   0  0  0  0  0  2  0  0  0  0  0  0
  161.6130  210.3190  153.5130 C   0  0  1  0  0  3  0  0  0  0  0  0
  161.0610  209.4550  154.6090 C   0  0  0  0  0  0  0  0  0  0  0  0
  161.3590  212.1000  149.8440 C   0  0  1  0  0  3  0  0  0  0  0  0
  162.7650  210.4520  148.6290 C   0  0  0  0  0  2  0  0  0  0  0  0
  160.1490  207.7190  155.5850 N   0  0  0  0  0  0  0  0  0  0  0  0
  161.8970  212.4370  147.3830 C   0  0  0  0  0  2  0  0  0  0  0  0
  161.8970  207.7160  148.3910 C   0  0  0  0  0  2  0  0  0  0  0  0
  162.5360  209.5060  149.8220 C   0  0  2  0  0  3  0  0  0  0  0  0
  161.4740  208.5250  149.5390 N   0  0  2  0  0  0  0  0  0  0  0  0
  160.9250  208.3740  151.9670 C   0  0  1  0  0  3  0  0  0  0  0  0
  160.2420  208.7490  156.4510 C   0  0  0  0  0  3  0  0  0  0  0  0
  159.2500  213.1070  148.7800 C   0  0  0  0  0  2  0  0  0  0  0  0
  161.6030  211.4290  148.4810 C   0  0  2  0  0  3  0  0  0  0  0  0
  160.7940  209.8450  155.8730 N   0  0  0  0  0  0  0  0  0  0  0  0
  160.3290  213.2360  149.8480 C   0  0  0  0  0  2  0  0  0  0  0  0
  160.6020  212.7880  146.6610 C   0  0  2  0  0  3  0  0  0  0  0  0
  160.2340  206.5720  150.3560 C   0  0  0  0  0  2  0  0  0  0  0  0
  161.3120  207.6120  150.6900 C   0  0  1  0  0  3  0  0  0  0  0  0
  160.8130  207.4020  153.1540 C   0  0  0  0  0  2  0  0  0  0  0  0
  161.0010  211.1230  150.7870 O   0  0  0  0  0  0  0  0  0  0  0  0
  162.8450  211.0580  154.0070 C   0  0  0  0  0  1  0  0  0  0  0  0
  159.6150  206.3980  155.8680 C   0  0  0  0  0  1  0  0  0  0  0  0
  161.9680  209.4770  152.2670 C   0  0  1  0  0  3  0  0  0  0  0  0
  160.6410  208.1690  154.4240 C   0  0  0  0  0  0  0  0  0  0  0  0
  160.9240  213.4010  145.3810 N   0  0  0  0  0  2  0  0  0  0  0  0
  160.4520  212.8790  144.1380 C   0  0  0  0  0  0  0  0  0  0  0  0
  159.7480  211.8350  144.1030 O   0  0  0  0  0  0  0  0  0  0  0  0
  160.8710  213.7130  142.6150 S   0  0  0  0  0  1  0  0  0  0  0  0
  1 16  1  0  0  0  0
  2 24  1  6  0  0  0
  2 27  1  0  0  0  0
  3 11  1  0  0  0  0
  3  4  1  0  0  0  0
  4 21  1  0  0  0  0
  5 25  1  1  0  0  0
  5  6  1  0  0  0  0
  6 18  1  0  0  0  0
  7 19  1  6  0  0  0
  7 24  1  0  0  0  0
  9 26  1  0  0  0  0
  9 15  1  0  0  0  0
 12  8  1  6  0  0  0
 12  2  1  0  0  0  0
 13 11  1  6  0  0  0
 13 12  1  0  0  0  0
 13 22  1  0  0  0  0
 14 27  1  0  0  0  0
 14 23  1  1  0  0  0
 16 19  1  0  0  0  0
 17 10  1  6  0  0  0
 17  8  1  0  0  0  0
 17  7  1  0  0  0  0
 18 15  2  0  0  0  0
 20 29  1  6  0  0  0
 20 10  1  0  0  0  0
 20  1  1  0  0  0  0
 22 21  1  6  0  0  0
 22 14  1  0  0  0  0
 23 28  1  0  0  0  0
 27  5  1  0  0  0  0
 28  6  2  0  0  0  0
 28  9  1  0  0  0  0
 30 29  1  0  0  0  0
 31 30  2  0  0  0  0
 32 30  1  0  0  0  0
M  END
>  <MODEL>
4

>  <REMARK>
 VINA RESULT:      -3.5      3.297      9.024
  Name = 
  1 active torsions:
  status: ('A' for Active; 'I' for Inactive)
    1  A    between atoms: C_20  and  N_29
                            x       y       z     vdW  Elec       q    Type
                         _______ _______ _______ _____ _____    ______ ____

>  <TORSDO>
F 1

$$$$
=
 OpenBabel11122412513D

 32 37  0  0  1  0  0  0  0  0999 V2000
  160.4500  204.7760  146.9000 C   0  0  0  0  0  2  0  0  0  0  0  0
  162.3060  209.0330  149.7990 C   0  0  1  0  0  3  0  0  0  0  0  0
  160.8310  206.5910  153.8210 C   0  0  0  0  0  2  0  0  0  0  0  0
  160.4900  207.8410  154.4950 N   0  0  0  0  0  2  0  0  0  0  0  0
  161.5830  211.4210  149.3830 C   0  0  1  0  0  3  0  0  0  0  0  0
  160.8800  212.5930  150.0010 C   0  0  0  0  0  0  0  0  0  0  0  0
  161.7490  207.5010  148.2400 C   0  0  1  0  0  3  0  0  0  0  0  0
  163.0740  206.6930  150.1790 C   0  0  0  0  0  2  0  0  0  0  0  0
  159.7440  213.7620  151.4650 N   0  0  0  0  0  0  0  0  0  0  0  0
  162.4820  205.0720  148.3730 C   0  0  0  0  0  2  0  0  0  0  0  0
  161.9720  206.8360  152.8370 C   0  0  0  0  0  2  0  0  0  0  0  0
  162.6760  208.0030  150.8860 C   0  0  2  0  0  3  0  0  0  0  0  0
  161.5480  207.7970  151.8120 N   0  0  2  0  0  0  0  0  0  0  0  0
  160.8240  210.1620  151.5020 C   0  0  1  0  0  3  0  0  0  0  0  0
  159.8740  214.4520  150.3130 C   0  0  0  0  0  3  0  0  0  0  0  0
  159.8200  206.1150  147.2630 C   0  0  0  0  0  2  0  0  0  0  0  0
  162.0210  206.2910  149.1520 C   0  0  2  0  0  3  0  0  0  0  0  0
  160.5650  213.7500  149.3800 N   0  0  0  0  0  0  0  0  0  0  0  0
  160.8320  207.2340  147.0400 C   0  0  0  0  0  2  0  0  0  0  0  0
  161.2780  204.1970  148.0460 C   0  0  2  0  0  3  0  0  0  0  0  0
  160.0780  208.8170  153.4900 C   0  0  0  0  0  2  0  0  0  0  0  0
  161.2230  209.0640  152.4990 C   0  0  1  0  0  3  0  0  0  0  0  0
  160.5400  211.4790  152.2450 C   0  0  0  0  0  2  0  0  0  0  0  0
  161.2370  208.5590  149.0100 O   0  0  0  0  0  0  0  0  0  0  0  0
  162.8430  211.8870  148.6740 C   0  0  0  0  0  1  0  0  0  0  0  0
  159.0710  214.2130  152.6710 C   0  0  0  0  0  1  0  0  0  0  0  0
  161.9420  210.3630  150.4520 C   0  0  1  0  0  3  0  0  0  0  0  0
  160.3540  212.5880  151.2610 C   0  0  0  0  0  0  0  0  0  0  0  0
  161.7430  202.8640  147.6890 N   0  0  0  0  0  2  0  0  0  0  0  0
  161.0110  201.6820  148.0140 C   0  0  0  0  0  0  0  0  0  0  0  0
  159.9290  201.7490  148.6550 O   0  0  0  0  0  0  0  0  0  0  0  0
  161.6410  200.0880  147.5100 S   0  0  0  0  0  1  0  0  0  0  0  0
  1 16  1  0  0  0  0
  1 20  1  0  0  0  0
  2 24  1  1  0  0  0
  2 27  1  0  0  0  0
  2 12  1  0  0  0  0
  3  4  1  0  0  0  0
  5 25  1  1  0  0  0
  5  6  1  0  0  0  0
  5 27  1  0  0  0  0
  6 28  2  0  0  0  0
  7 19  1  6  0  0  0
  7 24  1  0  0  0  0
  7 17  1  0  0  0  0
  9 26  1  0  0  0  0
 11  3  1  0  0  0  0
 12  8  1  6  0  0  0
 12 13  1  0  0  0  0
 13 22  1  0  0  0  0
 13 11  1  1  0  0  0
 14 23  1  1  0  0  0
 14 22  1  0  0  0  0
 15  9  1  0  0  0  0
 17 10  1  6  0  0  0
 17  8  1  0  0  0  0
 18  6  1  0  0  0  0
 18 15  2  0  0  0  0
 19 16  1  0  0  0  0
 20 29  1  6  0  0  0
 20 10  1  0  0  0  0
 21  4  1  0  0  0  0
 22 21  1  1  0  0  0
 27 14  1  0  0  0  0
 28  9  1  0  0  0  0
 28 23  1  0  0  0  0
 29 30  1  0  0  0  0
 30 31  2  0  0  0  0
 32 30  1  0  0  0  0
M  END
>  <MODEL>
5

>  <REMARK>
 VINA RESULT:      -2.4      4.571      7.310
  Name = 
  1 active torsions:
  status: ('A' for Active; 'I' for Inactive)
    1  A    between atoms: C_20  and  N_29
                            x       y       z     vdW  Elec       q    Type
                         _______ _______ _______ _____ _____    ______ ____

>  <TORSDO>
F 1

$$$$
