=
 OpenBabel11122414133D

 28 32  0  0  1  0  0  0  0  0999 V2000
  160.9490  208.7830  154.9410 C   0  0  2  0  0  3  0  0  0  0  0  0
  158.3910  210.1010  154.5720 F   0  0  0  0  0  0  0  0  0  0  0  0
  161.7600  212.1320  149.5660 O   0  0  0  0  0  0  0  0  0  0  0  0
  162.6820  209.8480  157.0590 C   0  0  0  0  0  2  0  0  0  0  0  0
  160.0470  212.8550  151.0860 C   0  0  2  0  0  3  0  0  0  0  0  0
  160.4600  208.0240  153.7260 C   0  0  0  0  0  2  0  0  0  0  0  0
  159.0340  210.9070  156.7070 C   0  0  0  0  0  1  0  0  0  0  0  0
  158.6810  211.2750  155.2820 C   0  0  1  0  0  0  0  0  0  0  0  0
  157.1330  212.7050  153.9920 C   0  0  1  0  0  3  0  0  0  0  0  0
  159.8880  212.0510  154.6240 C   0  0  2  0  0  3  0  0  0  0  0  0
  160.8130  207.2570  150.3300 C   0  0  0  0  0  1  0  0  0  0  0  0
  160.2660  210.8390  152.5100 C   0  0  1  0  0  3  0  0  0  0  0  0
  158.2070  213.6430  153.7480 N   0  0  0  0  0  2  0  0  0  0  0  0
  157.3890  212.1180  155.3630 C   0  0  0  0  0  2  0  0  0  0  0  0
  161.0160  208.3160  151.3880 C   0  0  2  0  0  3  0  0  0  0  0  0
  161.7100  210.1110  154.6600 C   0  0  2  0  0  3  0  0  0  0  0  0
  161.0660  211.9160  150.6070 C   0  0  0  0  0  0  0  0  0  0  0  0
  155.8680  213.4330  153.9850 N   0  0  0  0  0  1  0  0  0  0  0  0
  161.7560  209.5310  150.8520 C   0  0  0  0  0  2  0  0  0  0  0  0
  162.1790  210.8200  155.9720 C   0  0  0  0  0  2  0  0  0  0  0  0
  161.6650  207.8870  155.9530 C   0  0  0  0  0  2  0  0  0  0  0  0
  161.7150  208.6740  157.2610 C   0  0  0  0  0  2  0  0  0  0  0  0
  161.5500  207.7790  152.6960 C   0  0  0  0  0  2  0  0  0  0  0  0
  159.4000  212.0910  152.2210 C   0  0  1  0  0  3  0  0  0  0  0  0
  161.2360  210.7830  151.4280 N   0  0  0  0  0  0  0  0  0  0  0  0
  159.4490  212.9480  153.4810 C   0  0  2  0  0  3  0  0  0  0  0  0
  159.0040  213.1380  150.0380 C   0  0  0  0  0  1  0  0  0  0  0  0
  160.9060  211.1740  153.8700 C   0  0  2  0  0  3  0  0  0  0  0  0
  1  6  1  6  0  0  0
  1 21  1  0  0  0  0
  2  8  1  0  0  0  0
  3 17  2  0  0  0  0
  4 22  1  0  0  0  0
  5 27  1  6  0  0  0
  5 24  1  0  0  0  0
  8 14  1  0  0  0  0
  8  7  1  1  0  0  0
  9 18  1  1  0  0  0
  9 14  1  0  0  0  0
 10  8  1  0  0  0  0
 11 15  1  0  0  0  0
 12 28  1  0  0  0  0
 13  9  1  0  0  0  0
 15 23  1  0  0  0  0
 16  1  1  0  0  0  0
 16 20  1  0  0  0  0
 17  5  1  0  0  0  0
 17 25  1  0  0  0  0
 19 15  1  0  0  0  0
 19 25  1  0  0  0  0
 20  4  1  0  0  0  0
 21 22  1  0  0  0  0
 23  6  1  0  0  0  0
 24 12  1  0  0  0  0
 24 26  1  0  0  0  0
 25 12  1  0  0  0  0
 26 13  1  0  0  0  0
 26 10  1  0  0  0  0
 28 10  1  0  0  0  0
 28 16  1  0  0  0  0
M  END
>  <MODEL>
1

>  <REMARK>
 VINA RESULT:      -5.7      0.000      0.000
  Name = 
  0 active torsions:
  status: ('A' for Active; 'I' for Inactive)
                            x       y       z     vdW  Elec       q    Type
                         _______ _______ _______ _____ _____    ______ ____

>  <TORSDO>
F 0

$$$$
