=
 OpenBabel11122414123D

 28 32  0  0  1  0  0  0  0  0999 V2000
  160.7400  209.4040  154.6790 C   0  0  0  0  0  0  0  0  0  0  0  0
  157.5670  210.3150  155.1530 O   0  0  0  0  0  0  0  0  0  0  0  0
  160.4040  212.9550  149.7890 O   0  0  0  0  0  1  0  0  0  0  0  0
  162.0890  210.3530  156.9490 C   0  0  0  0  0  3  0  0  0  0  0  0
  158.6540  213.3650  151.4310 C   0  0  2  0  0  3  0  0  0  0  0  0
  160.0840  208.8210  153.4700 C   0  0  0  0  0  2  0  0  0  0  0  0
  158.1260  211.4550  157.2590 O   0  0  0  0  0  0  0  0  0  0  0  0
  157.7160  211.6500  155.8270 S   0  0  0  0  0  0  0  0  0  0  0  0
  156.0570  213.6720  154.9910 C   0  0  0  0  0  0  0  0  0  0  0  0
  158.9300  212.6780  154.9980 C   0  0  2  0  0  3  0  0  0  0  0  0
  162.5030  209.2200  150.7250 O   0  0  0  0  0  0  0  0  0  0  0  0
  159.2350  211.4730  152.8930 C   0  0  1  0  0  3  0  0  0  0  0  0
  156.9930  214.1160  154.2050 N   0  0  0  0  0  0  0  0  0  0  0  0
  156.2130  212.4840  155.7640 N   0  0  0  0  0  2  0  0  0  0  0  0
  161.7380  209.5710  151.6590 C   0  0  0  0  0  0  0  0  0  0  0  0
  160.6730  210.7850  155.0110 C   0  0  0  0  0  0  0  0  0  0  0  0
  160.0850  212.9060  151.1500 C   0  0  1  0  0  3  0  0  0  0  0  0
  154.8000  214.4530  155.1260 C   0  0  0  0  0  1  0  0  0  0  0  0
  161.5770  211.0330  151.9430 C   0  0  0  0  0  2  0  0  0  0  0  0
  161.3680  211.2360  156.1440 C   0  0  0  0  0  3  0  0  0  0  0  0
  161.4670  208.5290  155.4960 C   0  0  0  0  0  3  0  0  0  0  0  0
  162.1350  208.9980  156.6260 C   0  0  0  0  0  3  0  0  0  0  0  0
  161.0620  208.5620  152.4200 N   0  0  0  0  0  2  0  0  0  0  0  0
  158.2040  212.5820  152.6600 C   0  0  1  0  0  3  0  0  0  0  0  0
  160.1490  211.4890  151.6680 C   0  0  1  0  0  3  0  0  0  0  0  0
  158.2760  213.4820  153.8860 C   0  0  2  0  0  3  0  0  0  0  0  0
  157.7020  213.0490  150.2850 C   0  0  0  0  0  1  0  0  0  0  0  0
  159.9370  211.8470  154.2090 C   0  0  2  0  0  3  0  0  0  0  0  0
  1 16  2  0  0  0  0
  1 21  1  0  0  0  0
  2  8  2  0  0  0  0
  3 17  1  0  0  0  0
  5 27  1  6  0  0  0
  5 24  1  0  0  0  0
  6  1  1  0  0  0  0
  8  7  2  0  0  0  0
  9 18  1  0  0  0  0
  9 14  1  0  0  0  0
 10  8  1  6  0  0  0
 11 15  2  0  0  0  0
 12 28  1  0  0  0  0
 13  9  2  0  0  0  0
 14  8  1  0  0  0  0
 15 19  1  0  0  0  0
 15 23  1  0  0  0  0
 16 20  1  0  0  0  0
 17  5  1  0  0  0  0
 17 25  1  0  0  0  0
 20  4  2  0  0  0  0
 21 22  2  0  0  0  0
 22  4  1  0  0  0  0
 23  6  1  0  0  0  0
 24 12  1  0  0  0  0
 24 26  1  0  0  0  0
 25 19  1  0  0  0  0
 25 12  1  0  0  0  0
 26 13  1  0  0  0  0
 26 10  1  0  0  0  0
 28 10  1  0  0  0  0
 28 16  1  0  0  0  0
M  END
>  <MODEL>
1

>  <REMARK>
 VINA RESULT:      -4.7      0.000      0.000
  Name = 
  0 active torsions:
  status: ('A' for Active; 'I' for Inactive)
                            x       y       z     vdW  Elec       q    Type
                         _______ _______ _______ _____ _____    ______ ____

>  <TORSDO>
F 0

$$$$
=
 OpenBabel11122414123D

 28 32  0  0  1  0  0  0  0  0999 V2000
  161.9320  204.8870  146.1910 C   0  0  0  0  0  0  0  0  0  0  0  0
  163.2250  206.8160  148.5840 O   0  0  0  0  0  0  0  0  0  0  0  0
  159.9130  201.5380  150.8100 O   0  0  0  0  0  1  0  0  0  0  0  0
  160.1260  206.5570  144.8420 C   0  0  0  0  0  3  0  0  0  0  0  0
  160.5630  203.7980  151.4380 C   0  0  2  0  0  3  0  0  0  0  0  0
  162.9120  203.9530  146.8220 C   0  0  0  0  0  2  0  0  0  0  0  0
  161.7960  208.7110  147.9390 O   0  0  0  0  0  0  0  0  0  0  0  0
  162.0480  207.6610  148.9840 S   0  0  0  0  0  0  0  0  0  0  0  0
  161.6500  208.0740  151.6690 C   0  0  0  0  0  0  0  0  0  0  0  0
  160.5660  206.6720  149.1980 C   0  0  2  0  0  3  0  0  0  0  0  0
  161.3230  200.6340  146.7580 O   0  0  0  0  0  0  0  0  0  0  0  0
  161.4920  204.4090  149.2420 C   0  0  1  0  0  3  0  0  0  0  0  0
  160.7880  207.1000  151.6920 N   0  0  0  0  0  0  0  0  0  0  0  0
  162.3810  208.4150  150.4930 N   0  0  0  0  0  2  0  0  0  0  0  0
  161.4560  201.8530  147.0360 C   0  0  0  0  0  0  0  0  0  0  0  0
  160.8910  205.5280  146.9160 C   0  0  0  0  0  0  0  0  0  0  0  0
  160.0240  202.8570  150.3600 C   0  0  1  0  0  3  0  0  0  0  0  0
  161.8480  208.8900  152.8950 C   0  0  0  0  0  1  0  0  0  0  0  0
  160.4180  202.5100  147.8930 C   0  0  0  0  0  2  0  0  0  0  0  0
  159.9930  206.3480  146.2150 C   0  0  0  0  0  3  0  0  0  0  0  0
  162.0540  205.1060  144.8130 C   0  0  0  0  0  3  0  0  0  0  0  0
  161.1590  205.9380  144.1420 C   0  0  0  0  0  3  0  0  0  0  0  0
  162.5850  202.5660  146.5140 N   0  0  0  0  0  2  0  0  0  0  0  0
  161.3300  204.8840  150.6910 C   0  0  1  0  0  3  0  0  0  0  0  0
  161.0120  202.9580  149.2240 C   0  0  1  0  0  3  0  0  0  0  0  0
  160.4790  206.1450  150.6220 C   0  0  2  0  0  3  0  0  0  0  0  0
  161.5240  203.1040  152.3940 C   0  0  0  0  0  1  0  0  0  0  0  0
  160.6300  205.3700  148.4060 C   0  0  2  0  0  3  0  0  0  0  0  0
  1  6  1  0  0  0  0
  1 16  1  0  0  0  0
  2  8  2  0  0  0  0
  4 20  1  0  0  0  0
  5 27  1  1  0  0  0
  7  8  2  0  0  0  0
  8 14  1  0  0  0  0
  9 13  2  0  0  0  0
  9 18  1  0  0  0  0
 10  8  1  1  0  0  0
 10 26  1  0  0  0  0
 11 15  2  0  0  0  0
 12 24  1  0  0  0  0
 14  9  1  0  0  0  0
 15 19  1  0  0  0  0
 16 28  1  0  0  0  0
 17  3  1  0  0  0  0
 17  5  1  0  0  0  0
 19 25  1  0  0  0  0
 20 16  2  0  0  0  0
 21  1  2  0  0  0  0
 22 21  1  0  0  0  0
 22  4  2  0  0  0  0
 23  6  1  0  0  0  0
 23 15  1  0  0  0  0
 24  5  1  0  0  0  0
 25 12  1  0  0  0  0
 25 17  1  0  0  0  0
 26 24  1  0  0  0  0
 26 13  1  0  0  0  0
 28 10  1  0  0  0  0
 28 12  1  0  0  0  0
M  END
>  <MODEL>
2

>  <REMARK>
 VINA RESULT:      -4.4      6.414      9.734
  Name = 
  0 active torsions:
  status: ('A' for Active; 'I' for Inactive)
                            x       y       z     vdW  Elec       q    Type
                         _______ _______ _______ _____ _____    ______ ____

>  <TORSDO>
F 0

$$$$
