=
 OpenBabel11122414083D

 28 32  0  0  1  0  0  0  0  0999 V2000
  162.6140  211.7010  139.0870 C   0  0  0  0  0  0  0  0  0  0  0  0
  160.6940  211.5130  143.7640 F   0  0  0  0  0  0  0  0  0  0  0  0
  158.2440  211.6910  137.7880 O   0  0  0  0  0  0  0  0  0  0  0  0
  162.5350  214.3930  138.3260 C   0  0  0  0  0  3  0  0  0  0  0  0
  158.1200  212.6880  139.9590 C   0  0  0  0  0  0  0  0  0  0  0  0
  162.5970  210.3530  139.4480 O   0  0  0  0  0  0  0  0  0  0  0  0
  162.5280  212.9720  144.0230 C   0  0  0  0  0  1  0  0  0  0  0  0
  161.0790  212.8360  143.6010 C   0  0  1  0  0  0  0  0  0  0  0  0
  158.8090  213.7420  143.9530 C   0  0  1  0  0  3  0  0  0  0  0  0
  160.9370  213.2880  142.1280 C   0  0  2  0  0  3  0  0  0  0  0  0
  160.7380  210.3630  137.0130 O   0  0  0  0  0  1  0  0  0  0  0  0
  159.9030  211.4260  140.9130 C   0  0  1  0  0  3  0  0  0  0  0  0
  158.7980  214.4310  142.7280 O   0  0  0  0  0  0  0  0  0  0  0  0
  160.2240  213.7010  144.5120 C   0  0  0  0  0  2  0  0  0  0  0  0
  160.8730  209.3970  138.0110 C   0  0  2  0  0  3  0  0  0  0  0  0
  161.9590  212.6340  139.9070 C   0  0  0  0  0  0  0  0  0  0  0  0
  158.6650  211.8010  138.9700 C   0  0  0  0  0  0  0  0  0  0  0  0
  157.9030  214.4520  144.9360 C   0  0  0  0  0  1  0  0  0  0  0  0
  159.8470  209.5960  139.1350 C   0  0  0  0  0  2  0  0  0  0  0  0
  161.9140  213.9810  139.5070 C   0  0  0  0  0  3  0  0  0  0  0  0
  163.2330  212.1180  137.9000 C   0  0  0  0  0  3  0  0  0  0  0  0
  163.1970  213.4620  137.5240 C   0  0  0  0  0  3  0  0  0  0  0  0
  162.3170  209.3210  138.5110 C   0  0  0  0  0  2  0  0  0  0  0  0
  158.7860  212.4390  141.2650 C   0  0  1  0  0  3  0  0  0  0  0  0
  159.6960  211.0000  139.5220 N   0  0  0  0  0  0  0  0  0  0  0  0
  159.5050  213.6870  141.7510 C   0  0  2  0  0  3  0  0  0  0  0  0
  157.1870  213.5110  139.7630 O   0  0  0  0  0  0  0  0  0  0  0  0
  161.2540  212.1480  141.1600 C   0  0  1  0  0  3  0  0  0  0  0  0
  1  6  1  0  0  0  0
  1 16  1  0  0  0  0
  3 17  2  0  0  0  0
  4 20  1  0  0  0  0
  5 24  1  0  0  0  0
  8  2  1  0  0  0  0
  8  7  1  1  0  0  0
  8 14  1  0  0  0  0
  9 14  1  0  0  0  0
  9 18  1  1  0  0  0
 10  8  1  0  0  0  0
 11 15  1  0  0  0  0
 12 28  1  0  0  0  0
 12 24  1  0  0  0  0
 13  9  1  0  0  0  0
 15 23  1  0  0  0  0
 15 19  1  0  0  0  0
 16 28  1  0  0  0  0
 17 25  1  0  0  0  0
 17  5  1  0  0  0  0
 19 25  1  0  0  0  0
 20 16  2  0  0  0  0
 21  1  2  0  0  0  0
 22 21  1  0  0  0  0
 22  4  2  0  0  0  0
 23  6  1  0  0  0  0
 24 26  1  0  0  0  0
 25 12  1  0  0  0  0
 26 10  1  0  0  0  0
 26 13  1  0  0  0  0
 27  5  2  0  0  0  0
 28 10  1  0  0  0  0
M  END
>  <MODEL>
1

>  <REMARK>
 VINA RESULT:      -4.2      0.000      0.000
  Name = 
  0 active torsions:
  status: ('A' for Active; 'I' for Inactive)
                            x       y       z     vdW  Elec       q    Type
                         _______ _______ _______ _____ _____    ______ ____

>  <TORSDO>
F 0

$$$$
=
 OpenBabel11122414083D

 28 32  0  0  1  0  0  0  0  0999 V2000
  160.5000  209.7170  156.1970 C   0  0  0  0  0  0  0  0  0  0  0  0
  155.7850  210.6440  154.6170 F   0  0  0  0  0  0  0  0  0  0  0  0
  161.6780  211.0640  152.0040 O   0  0  0  0  0  0  0  0  0  0  0  0
  161.5550  212.1890  156.9760 C   0  0  0  0  0  3  0  0  0  0  0  0
  159.6300  212.2480  152.3540 C   0  0  0  0  0  0  0  0  0  0  0  0
  159.9910  208.4970  155.7520 O   0  0  0  0  0  0  0  0  0  0  0  0
  155.7370  211.4130  156.8450 C   0  0  0  0  0  1  0  0  0  0  0  0
  156.1040  211.7350  155.4100 C   0  0  1  0  0  0  0  0  0  0  0  0
  155.7980  213.3860  153.6000 C   0  0  1  0  0  3  0  0  0  0  0  0
  157.6140  212.0650  155.3370 C   0  0  2  0  0  3  0  0  0  0  0  0
  162.3630  208.9010  153.8580 O   0  0  0  0  0  1  0  0  0  0  0  0
  158.5860  210.5550  153.6680 C   0  0  1  0  0  3  0  0  0  0  0  0
  157.0910  213.9170  153.7450 O   0  0  0  0  0  0  0  0  0  0  0  0
  155.2740  212.9230  154.9520 C   0  0  0  0  0  2  0  0  0  0  0  0
  161.2670  208.0470  153.7230 C   0  0  2  0  0  3  0  0  0  0  0  0
  159.7730  210.8910  155.9430 C   0  0  0  0  0  0  0  0  0  0  0  0
  160.5270  211.1380  152.5090 C   0  0  0  0  0  0  0  0  0  0  0  0
  154.8780  214.4530  153.0450 C   0  0  0  0  0  1  0  0  0  0  0  0
  160.1470  208.6900  152.8940 C   0  0  0  0  0  2  0  0  0  0  0  0
  160.3200  212.1290  156.3260 C   0  0  0  0  0  3  0  0  0  0  0  0
  161.7420  209.7840  156.8450 C   0  0  0  0  0  3  0  0  0  0  0  0
  162.2640  211.0170  157.2380 C   0  0  0  0  0  3  0  0  0  0  0  0
  160.7990  207.5350  155.0870 C   0  0  0  0  0  2  0  0  0  0  0  0
  158.3220  211.9160  152.9770 C   0  0  1  0  0  3  0  0  0  0  0  0
  159.9160  210.0920  153.2450 N   0  0  0  0  0  0  0  0  0  0  0  0
  157.9970  212.8870  154.1010 C   0  0  2  0  0  3  0  0  0  0  0  0
  159.8940  213.3150  151.7400 O   0  0  0  0  0  0  0  0  0  0  0  0
  158.4560  210.7970  155.1950 C   0  0  1  0  0  3  0  0  0  0  0  0
  1 21  1  0  0  0  0
  2  8  1  0  0  0  0
  3 17  2  0  0  0  0
  4 22  1  0  0  0  0
  5 17  1  0  0  0  0
  5 24  1  0  0  0  0
  6  1  1  0  0  0  0
  8  7  1  1  0  0  0
  9 18  1  1  0  0  0
  9 13  1  0  0  0  0
  9 14  1  0  0  0  0
 10  8  1  0  0  0  0
 12 28  1  0  0  0  0
 13 26  1  0  0  0  0
 14  8  1  0  0  0  0
 15 11  1  0  0  0  0
 15 23  1  0  0  0  0
 16  1  2  0  0  0  0
 16 20  1  0  0  0  0
 17 25  1  0  0  0  0
 19 25  1  0  0  0  0
 19 15  1  0  0  0  0
 20  4  2  0  0  0  0
 21 22  2  0  0  0  0
 23  6  1  0  0  0  0
 24 12  1  0  0  0  0
 24 26  1  0  0  0  0
 25 12  1  0  0  0  0
 26 10  1  0  0  0  0
 27  5  2  0  0  0  0
 28 10  1  0  0  0  0
 28 16  1  0  0  0  0
M  END
>  <MODEL>
2

>  <REMARK>
 VINA RESULT:      -3.2     12.295     14.591
  Name = 
  0 active torsions:
  status: ('A' for Active; 'I' for Inactive)
                            x       y       z     vdW  Elec       q    Type
                         _______ _______ _______ _____ _____    ______ ____

>  <TORSDO>
F 0

$$$$
=
 OpenBabel11122414083D

 28 32  0  0  1  0  0  0  0  0999 V2000
  160.8900  209.2700  156.4810 C   0  0  0  0  0  0  0  0  0  0  0  0
  157.0910  211.5230  154.0160 F   0  0  0  0  0  0  0  0  0  0  0  0
  162.4170  208.2960  152.2980 O   0  0  0  0  0  0  0  0  0  0  0  0
  162.9960  211.1130  156.5080 C   0  0  0  0  0  3  0  0  0  0  0  0
  161.1630  210.2970  151.9210 C   0  0  0  0  0  0  0  0  0  0  0  0
  159.8590  208.3320  156.4140 O   0  0  0  0  0  0  0  0  0  0  0  0
  157.4790  212.9980  155.8140 C   0  0  0  0  0  1  0  0  0  0  0  0
  157.9050  212.5680  154.4250 C   0  0  1  0  0  0  0  0  0  0  0  0
  158.3380  213.3810  152.1340 C   0  0  1  0  0  3  0  0  0  0  0  0
  159.3930  212.1440  154.4610 C   0  0  2  0  0  3  0  0  0  0  0  0
  162.0840  206.9130  154.8590 O   0  0  0  0  0  1  0  0  0  0  0  0
  159.4990  209.8610  153.5710 C   0  0  1  0  0  3  0  0  0  0  0  0
  159.7340  213.2970  152.2730 O   0  0  0  0  0  0  0  0  0  0  0  0
  157.7050  213.7350  153.4710 C   0  0  0  0  0  2  0  0  0  0  0  0
  160.7130  206.6500  154.8690 C   0  0  2  0  0  3  0  0  0  0  0  0
  160.7820  210.4560  155.7380 C   0  0  0  0  0  0  0  0  0  0  0  0
  161.4490  209.0520  152.5750 C   0  0  0  0  0  0  0  0  0  0  0  0
  157.9990  214.4530  151.1200 C   0  0  0  0  0  1  0  0  0  0  0  0
  159.9910  207.3620  153.7180 C   0  0  0  0  0  2  0  0  0  0  0  0
  161.8520  211.3680  155.7480 C   0  0  0  0  0  3  0  0  0  0  0  0
  162.0420  209.0170  157.2390 C   0  0  0  0  0  3  0  0  0  0  0  0
  163.0900  209.9390  157.2560 C   0  0  0  0  0  3  0  0  0  0  0  0
  160.1070  206.9430  156.2430 C   0  0  0  0  0  2  0  0  0  0  0  0
  159.8720  210.8340  152.4240 C   0  0  1  0  0  3  0  0  0  0  0  0
  160.4480  208.7390  153.5290 N   0  0  0  0  0  0  0  0  0  0  0  0
  160.0710  212.1880  153.0870 C   0  0  2  0  0  3  0  0  0  0  0  0
  161.8700  210.8250  151.0220 O   0  0  0  0  0  0  0  0  0  0  0  0
  159.5470  210.6830  154.8860 C   0  0  1  0  0  3  0  0  0  0  0  0
  1 21  1  0  0  0  0
  2  8  1  0  0  0  0
  3 17  2  0  0  0  0
  4 22  1  0  0  0  0
  5 24  1  0  0  0  0
  5 17  1  0  0  0  0
  6  1  1  0  0  0  0
  8 10  1  0  0  0  0
  8  7  1  1  0  0  0
  9 18  1  6  0  0  0
  9 13  1  0  0  0  0
  9 14  1  0  0  0  0
 10 28  1  0  0  0  0
 11 15  1  0  0  0  0
 12 28  1  0  0  0  0
 13 26  1  0  0  0  0
 14  8  1  0  0  0  0
 15 23  1  0  0  0  0
 16 20  1  0  0  0  0
 16  1  2  0  0  0  0
 17 25  1  0  0  0  0
 19 15  1  0  0  0  0
 20  4  2  0  0  0  0
 21 22  2  0  0  0  0
 23  6  1  0  0  0  0
 24 26  1  0  0  0  0
 24 12  1  0  0  0  0
 25 12  1  0  0  0  0
 25 19  1  0  0  0  0
 26 10  1  0  0  0  0
 27  5  2  0  0  0  0
 28 16  1  0  0  0  0
M  END
>  <MODEL>
3

>  <REMARK>
 VINA RESULT:      -2.9     11.610     14.461
  Name = 
  0 active torsions:
  status: ('A' for Active; 'I' for Inactive)
                            x       y       z     vdW  Elec       q    Type
                         _______ _______ _______ _____ _____    ______ ____

>  <TORSDO>
F 0

$$$$
=
 OpenBabel11122414083D

 28 32  0  0  1  0  0  0  0  0999 V2000
  157.4270  211.5140  156.2390 C   0  0  0  0  0  0  0  0  0  0  0  0
  161.9490  209.5750  155.0670 F   0  0  0  0  0  0  0  0  0  0  0  0
  158.0680  214.0670  152.5170 O   0  0  0  0  0  0  0  0  0  0  0  0
  155.5680  210.1630  154.6410 C   0  0  0  0  0  3  0  0  0  0  0  0
  159.3580  212.1150  152.0160 C   0  0  0  0  0  0  0  0  0  0  0  0
  158.3620  212.2250  156.9900 O   0  0  0  0  0  0  0  0  0  0  0  0
  160.7580  207.6800  155.8090 C   0  0  0  0  0  1  0  0  0  0  0  0
  161.0420  208.6130  154.6490 C   0  0  1  0  0  0  0  0  0  0  0  0
  161.7530  208.6910  152.2850 C   0  0  1  0  0  3  0  0  0  0  0  0
  159.7140  209.2540  154.1800 C   0  0  2  0  0  3  0  0  0  0  0  0
  157.1390  214.4440  155.2700 O   0  0  0  0  0  1  0  0  0  0  0  0
  160.0360  211.6840  154.2600 C   0  0  1  0  0  3  0  0  0  0  0  0
  160.4580  208.9670  151.8130 O   0  0  0  0  0  0  0  0  0  0  0  0
  161.6750  207.8110  153.5230 C   0  0  0  0  0  2  0  0  0  0  0  0
  158.3390  214.4460  155.9820 C   0  0  2  0  0  3  0  0  0  0  0  0
  157.8790  210.6400  155.2380 C   0  0  0  0  0  0  0  0  0  0  0  0
  158.7910  213.1050  152.8890 C   0  0  0  0  0  0  0  0  0  0  0  0
  162.5370  207.9730  151.2080 C   0  0  0  0  0  1  0  0  0  0  0  0
  159.5240  214.0400  155.0960 C   0  0  0  0  0  2  0  0  0  0  0  0
  156.9370  209.9780  154.4320 C   0  0  0  0  0  3  0  0  0  0  0  0
  156.0520  211.7000  156.4430 C   0  0  0  0  0  3  0  0  0  0  0  0
  155.1250  211.0210  155.6490 C   0  0  0  0  0  3  0  0  0  0  0  0
  158.2200  213.6140  157.2610 C   0  0  0  0  0  2  0  0  0  0  0  0
  160.2560  211.2250  152.7960 C   0  0  1  0  0  3  0  0  0  0  0  0
  159.2180  212.9040  154.2250 N   0  0  0  0  0  0  0  0  0  0  0  0
  159.7710  209.7860  152.7420 C   0  0  2  0  0  3  0  0  0  0  0  0
  159.1640  212.0460  150.7730 O   0  0  0  0  0  0  0  0  0  0  0  0
  159.3720  210.4960  155.0040 C   0  0  1  0  0  3  0  0  0  0  0  0
  1 21  1  0  0  0  0
  1  6  1  0  0  0  0
  3 17  2  0  0  0  0
  4 22  1  0  0  0  0
  5 24  1  0  0  0  0
  5 17  1  0  0  0  0
  6 23  1  0  0  0  0
  8  2  1  0  0  0  0
  8  7  1  1  0  0  0
  9 18  1  6  0  0  0
  9 14  1  0  0  0  0
 10  8  1  0  0  0  0
 10 28  1  0  0  0  0
 11 15  1  0  0  0  0
 12 28  1  0  0  0  0
 13  9  1  0  0  0  0
 13 26  1  0  0  0  0
 14  8  1  0  0  0  0
 15 23  1  0  0  0  0
 16  1  2  0  0  0  0
 17 25  1  0  0  0  0
 19 15  1  0  0  0  0
 20  4  2  0  0  0  0
 20 16  1  0  0  0  0
 22 21  2  0  0  0  0
 24 12  1  0  0  0  0
 25 12  1  0  0  0  0
 25 19  1  0  0  0  0
 26 24  1  0  0  0  0
 26 10  1  0  0  0  0
 27  5  2  0  0  0  0
 28 16  1  0  0  0  0
M  END
>  <MODEL>
4

>  <REMARK>
 VINA RESULT:      -1.8     11.756     14.980
  Name = 
  0 active torsions:
  status: ('A' for Active; 'I' for Inactive)
                            x       y       z     vdW  Elec       q    Type
                         _______ _______ _______ _____ _____    ______ ____

>  <TORSDO>
F 0

$$$$
=
 OpenBabel11122414083D

 28 32  0  0  1  0  0  0  0  0999 V2000
  161.7200  210.0220  154.3340 C   0  0  0  0  0  0  0  0  0  0  0  0
  160.4610  214.2040  151.7820 F   0  0  0  0  0  0  0  0  0  0  0  0
  157.9310  210.8900  156.7170 O   0  0  0  0  0  0  0  0  0  0  0  0
  160.2010  207.9510  153.2230 C   0  0  0  0  0  3  0  0  0  0  0  0
  157.4330  211.8880  154.6010 C   0  0  0  0  0  0  0  0  0  0  0  0
  162.4310  211.0680  154.9240 O   0  0  0  0  0  0  0  0  0  0  0  0
  161.2740  212.7910  150.0780 C   0  0  0  0  0  1  0  0  0  0  0  0
  160.0870  213.1630  150.9450 C   0  0  1  0  0  0  0  0  0  0  0  0
  157.7040  213.8070  150.8880 C   0  0  1  0  0  3  0  0  0  0  0  0
  159.6430  211.9210  151.7520 C   0  0  2  0  0  3  0  0  0  0  0  0
  160.7010  210.1040  157.2610 O   0  0  0  0  0  1  0  0  0  0  0  0
  159.6660  212.5700  154.1170 C   0  0  1  0  0  3  0  0  0  0  0  0
  157.2620  212.5470  151.3300 O   0  0  0  0  0  0  0  0  0  0  0  0
  158.9610  213.6480  150.0460 C   0  0  0  0  0  2  0  0  0  0  0  0
  161.3790  211.3140  157.1110 C   0  0  2  0  0  3  0  0  0  0  0  0
  160.7240  210.3220  153.3910 C   0  0  0  0  0  0  0  0  0  0  0  0
  158.3020  211.4870  155.6720 C   0  0  0  0  0  0  0  0  0  0  0  0
  156.6200  214.4530  150.0530 C   0  0  0  0  0  1  0  0  0  0  0  0
  160.4690  212.4060  156.5340 C   0  0  0  0  0  2  0  0  0  0  0  0
  159.9580  209.2750  152.8500 C   0  0  0  0  0  3  0  0  0  0  0  0
  161.9580  208.6920  154.7080 C   0  0  0  0  0  3  0  0  0  0  0  0
  161.2030  207.6590  154.1490 C   0  0  0  0  0  3  0  0  0  0  0  0
  162.6770  211.1230  156.3240 C   0  0  0  0  0  2  0  0  0  0  0  0
  158.2060  212.6820  153.6100 C   0  0  1  0  0  3  0  0  0  0  0  0
  159.6300  211.9230  155.4370 N   0  0  0  0  0  0  0  0  0  0  0  0
  158.1940  212.0050  152.2490 C   0  0  2  0  0  3  0  0  0  0  0  0
  156.1980  211.6500  154.5390 O   0  0  0  0  0  0  0  0  0  0  0  0
  160.4510  211.7740  153.0420 C   0  0  1  0  0  3  0  0  0  0  0  0
  1 21  1  0  0  0  0
  1  6  1  0  0  0  0
  4 22  1  0  0  0  0
  5 17  1  0  0  0  0
  6 23  1  0  0  0  0
  8  7  1  6  0  0  0
  8 10  1  0  0  0  0
  8  2  1  0  0  0  0
  9 18  1  6  0  0  0
  9 13  1  0  0  0  0
 10 26  1  0  0  0  0
 10 28  1  0  0  0  0
 12 25  1  0  0  0  0
 13 26  1  0  0  0  0
 14  9  1  0  0  0  0
 14  8  1  0  0  0  0
 15 11  1  0  0  0  0
 16  1  2  0  0  0  0
 17  3  2  0  0  0  0
 19 15  1  0  0  0  0
 20  4  2  0  0  0  0
 20 16  1  0  0  0  0
 22 21  2  0  0  0  0
 23 15  1  0  0  0  0
 24 12  1  0  0  0  0
 24  5  1  0  0  0  0
 25 17  1  0  0  0  0
 25 19  1  0  0  0  0
 26 24  1  0  0  0  0
 27  5  2  0  0  0  0
 28 16  1  0  0  0  0
 28 12  1  0  0  0  0
M  END
>  <MODEL>
5

>  <REMARK>
 VINA RESULT:      -1.8     10.593     14.046
  Name = 
  0 active torsions:
  status: ('A' for Active; 'I' for Inactive)
                            x       y       z     vdW  Elec       q    Type
                         _______ _______ _______ _____ _____    ______ ____

>  <TORSDO>
F 0

$$$$
