=
 OpenBabel11122413593D

 37 42  0  0  1  0  0  0  0  0999 V2000
  162.4960  205.9180  147.2790 C   0  0  0  0  0  0  0  0  0  0  0  0
  160.7260  205.9490  150.6740 C   0  0  1  0  0  3  0  0  0  0  0  0
  160.2440  208.7300  152.3920 O   0  0  0  0  0  0  0  0  0  0  0  0
  160.5960  204.8170  148.3710 N   0  0  2  0  0  0  0  0  0  0  0  0
  161.5190  207.2210  150.9800 C   0  0  2  0  0  3  0  0  0  0  0  0
  160.4130  206.0450  149.1690 C   0  0  2  0  0  3  0  0  0  0  0  0
  161.2900  207.7930  152.3940 C   0  0  2  0  0  3  0  0  0  0  0  0
  160.1680  203.6460  149.1360 C   0  0  0  0  0  2  0  0  0  0  0  0
  161.1610  207.2630  148.6110 C   0  0  2  0  0  3  0  0  0  0  0  0
  161.7360  206.2700  146.1730 F   0  0  0  0  0  0  0  0  0  0  0  0
  161.5310  204.4600  152.5650 C   0  0  0  0  0  2  0  0  0  0  0  0
  161.0070  203.4180  150.4010 C   0  0  0  0  0  2  0  0  0  0  0  0
  162.4920  206.9420  148.2470 O   0  0  0  0  0  0  0  0  0  0  0  0
  161.9720  210.2710  151.9710 O   0  0  0  0  0  0  0  0  0  0  0  0
  160.8010  209.9920  152.7030 C   0  0  0  0  0  2  0  0  0  0  0  0
  161.5350  204.6980  151.0560 C   0  0  1  0  0  3  0  0  0  0  0  0
  161.1920  208.1780  149.8280 C   0  0  2  0  0  3  0  0  0  0  0  0
  161.9730  204.6340  147.9060 C   0  0  0  0  0  2  0  0  0  0  0  0
  161.1140  206.7330  153.5000 C   0  0  1  0  0  3  0  0  0  0  0  0
  163.7970  205.7040  146.8680 F   0  0  0  0  0  0  0  0  0  0  0  0
  161.5700  210.5050  150.6540 C   0  0  0  0  0  2  0  0  0  0  0  0
  162.1110  209.4130  149.7340 C   0  0  2  0  0  3  0  0  0  0  0  0
  162.1330  205.6070  153.3620 C   0  0  0  0  0  2  0  0  0  0  0  0
  159.8140  207.2950  155.5950 C   0  0  0  0  0  2  0  0  0  0  0  0
  161.1860  207.3080  154.9190 C   0  0  2  0  0  3  0  0  0  0  0  0
  161.8120  208.7080  154.9610 C   0  0  0  0  0  2  0  0  0  0  0  0
  162.4230  210.4990  156.4120 O   0  0  0  0  0  1  0  0  0  0  0  0
  160.5140  209.2140  157.0410 C   0  0  0  0  0  2  0  0  0  0  0  0
  161.8980  209.2070  156.4000 C   0  0  1  0  0  3  0  0  0  0  0  0
  159.9230  207.8080  157.0270 C   0  0  0  0  0  2  0  0  0  0  0  0
  162.1540  209.9780  148.3090 C   0  0  0  0  0  2  0  0  0  0  0  0
  161.9410  211.4970  148.2440 C   0  0  1  0  0  3  0  0  0  0  0  0
  163.2230  213.4540  147.9270 O   0  0  0  0  0  0  0  0  0  0  0  0
  163.2020  212.2330  147.9210 C   0  0  0  0  0  3  0  0  0  0  0  0
  160.8420  211.8840  147.2610 C   0  0  0  0  0  2  0  0  0  0  0  0
  159.9460  212.9650  147.8440 C   0  0  0  0  0  2  0  0  0  0  0  0
  160.0030  214.1120  147.0520 O   0  0  0  0  0  1  0  0  0  0  0  0
  1 18  1  0  0  0  0
  1 13  1  0  0  0  0
  2  5  1  0  0  0  0
  2 16  1  0  0  0  0
  3  7  1  0  0  0  0
  3 15  1  0  0  0  0
  4  8  1  0  0  0  0
  4  6  1  0  0  0  0
  5  7  1  0  0  0  0
  6  2  1  0  0  0  0
  7 19  1  0  0  0  0
  8 12  1  0  0  0  0
  9  6  1  0  0  0  0
  9 17  1  0  0  0  0
 10  1  1  0  0  0  0
 11 23  1  0  0  0  0
 12 16  1  0  0  0  0
 13  9  1  0  0  0  0
 14 15  1  0  0  0  0
 16 11  1  0  0  0  0
 17  5  1  0  0  0  0
 18  4  1  0  0  0  0
 19 25  1  0  0  0  0
 20  1  1  0  0  0  0
 21 14  1  0  0  0  0
 22 17  1  0  0  0  0
 22 21  1  0  0  0  0
 23 19  1  0  0  0  0
 24 30  1  0  0  0  0
 25 26  1  0  0  0  0
 25 24  1  0  0  0  0
 26 29  1  0  0  0  0
 29 27  1  0  0  0  0
 29 28  1  0  0  0  0
 30 28  1  0  0  0  0
 31 22  1  0  0  0  0
 32 31  1  0  0  0  0
 34 33  2  0  0  0  0
 34 32  1  0  0  0  0
 35 36  1  0  0  0  0
 35 32  1  0  0  0  0
 37 36  1  0  0  0  0
M  END
>  <MODEL>
1

>  <REMARK>
 VINA RESULT:      -7.6      0.000      0.000
  Name = 
  6 active torsions:
  status: ('A' for Active; 'I' for Inactive)
    1  A    between atoms: C_1  and  C_4
    2  A    between atoms: C_1  and  C_27
    3  A    between atoms: C_4  and  C_12
    4  A    between atoms: C_4  and  C_37
    5  A    between atoms: C_8  and  C_12
    6  A    between atoms: C_23  and  C_30
                            x       y       z     vdW  Elec       q    Type
                         _______ _______ _______ _____ _____    ______ ____

>  <TORSDO>
F 6

$$$$
=
 OpenBabel11122413593D

 37 42  0  0  1  0  0  0  0  0999 V2000
  159.9050  211.2650  153.7900 C   0  0  0  0  0  0  0  0  0  0  0  0
  161.6980  207.9630  153.0610 C   0  0  1  0  0  3  0  0  0  0  0  0
  162.9750  207.2610  150.0950 O   0  0  0  0  0  0  0  0  0  0  0  0
  161.4510  209.7280  154.9110 N   0  0  2  0  0  0  0  0  0  0  0  0
  161.2970  208.1660  151.5980 C   0  0  2  0  0  3  0  0  0  0  0  0
  161.9880  209.3830  153.5800 C   0  0  2  0  0  3  0  0  0  0  0  0
  161.7110  207.0180  150.6550 C   0  0  2  0  0  3  0  0  0  0  0  0
  161.5570  208.5810  155.8140 C   0  0  0  0  0  2  0  0  0  0  0  0
  161.5930  210.3750  152.4780 C   0  0  2  0  0  3  0  0  0  0  0  0
  160.7050  212.3660  154.0620 F   0  0  0  0  0  0  0  0  0  0  0  0
  160.5590  205.7430  153.5270 C   0  0  0  0  0  2  0  0  0  0  0  0
  160.7200  207.3790  155.3540 C   0  0  0  0  0  2  0  0  0  0  0  0
  160.2170  210.7060  152.5360 O   0  0  0  0  0  0  0  0  0  0  0  0
  161.7320  208.3070  148.3920 O   0  0  0  0  0  0  0  0  0  0  0  0
  162.7980  207.4390  148.7030 C   0  0  0  0  0  2  0  0  0  0  0  0
  160.5830  207.2390  153.8350 C   0  0  1  0  0  3  0  0  0  0  0  0
  161.8470  209.5470  151.2260 C   0  0  2  0  0  3  0  0  0  0  0  0
  160.0660  210.2030  154.8680 C   0  0  0  0  0  2  0  0  0  0  0  0
  161.6130  205.6080  151.2720 C   0  0  1  0  0  3  0  0  0  0  0  0
  158.5850  211.6750  153.7770 F   0  0  0  0  0  0  0  0  0  0  0  0
  162.1500  209.5920  148.7470 C   0  0  0  0  0  2  0  0  0  0  0  0
  161.3050  210.1230  149.9020 C   0  0  2  0  0  3  0  0  0  0  0  0
  160.3190  205.4300  152.0580 C   0  0  0  0  0  2  0  0  0  0  0  0
  161.1010  204.8670  148.9090 C   0  0  0  0  0  2  0  0  0  0  0  0
  161.7390  204.4780  150.2430 C   0  0  2  0  0  3  0  0  0  0  0  0
  161.1840  203.1440  150.7560 C   0  0  0  0  0  2  0  0  0  0  0  0
  160.8220  200.8590  150.1750 O   0  0  0  0  0  1  0  0  0  0  0  0
  160.7070  202.4480  148.4000 C   0  0  0  0  0  2  0  0  0  0  0  0
  161.3780  202.0510  149.7110 C   0  0  1  0  0  3  0  0  0  0  0  0
  161.2990  203.7560  147.8830 C   0  0  0  0  0  2  0  0  0  0  0  0
  161.3850  211.6540  149.8770 C   0  0  0  0  0  2  0  0  0  0  0  0
  161.3630  212.2480  148.4610 C   0  0  1  0  0  3  0  0  0  0  0  0
  159.5810  213.6540  149.1070 O   0  0  0  0  0  0  0  0  0  0  0  0
  160.1280  213.0490  148.1990 C   0  0  0  0  0  3  0  0  0  0  0  0
  162.6030  213.0850  148.1670 C   0  0  0  0  0  2  0  0  0  0  0  0
  162.3940  213.9560  146.9400 C   0  0  0  0  0  2  0  0  0  0  0  0
  162.6500  213.2200  145.7820 O   0  0  0  0  0  1  0  0  0  0  0  0
  1 10  1  0  0  0  0
  1 18  1  0  0  0  0
  2  6  1  0  0  0  0
  2 16  1  0  0  0  0
  3  7  1  0  0  0  0
  4  8  1  0  0  0  0
  5  2  1  0  0  0  0
  6  4  1  0  0  0  0
  7 19  1  0  0  0  0
  7  5  1  0  0  0  0
  9 13  1  0  0  0  0
  9  6  1  0  0  0  0
 11 16  1  0  0  0  0
 12  8  1  0  0  0  0
 13  1  1  0  0  0  0
 14 15  1  0  0  0  0
 14 21  1  0  0  0  0
 15  3  1  0  0  0  0
 16 12  1  0  0  0  0
 17  5  1  0  0  0  0
 17  9  1  0  0  0  0
 18  4  1  0  0  0  0
 19 23  1  0  0  0  0
 20  1  1  0  0  0  0
 21 22  1  0  0  0  0
 22 17  1  0  0  0  0
 23 11  1  0  0  0  0
 24 25  1  0  0  0  0
 25 26  1  0  0  0  0
 25 19  1  0  0  0  0
 28 29  1  0  0  0  0
 29 27  1  0  0  0  0
 29 26  1  0  0  0  0
 30 28  1  0  0  0  0
 30 24  1  0  0  0  0
 31 22  1  0  0  0  0
 32 31  1  0  0  0  0
 34 32  1  0  0  0  0
 34 33  2  0  0  0  0
 35 32  1  0  0  0  0
 36 35  1  0  0  0  0
 37 36  1  0  0  0  0
M  END
>  <MODEL>
2

>  <REMARK>
 VINA RESULT:      -7.5      3.165      6.150
  Name = 
  6 active torsions:
  status: ('A' for Active; 'I' for Inactive)
    1  A    between atoms: C_1  and  C_4
    2  A    between atoms: C_1  and  C_27
    3  A    between atoms: C_4  and  C_12
    4  A    between atoms: C_4  and  C_37
    5  A    between atoms: C_8  and  C_12
    6  A    between atoms: C_23  and  C_30
                            x       y       z     vdW  Elec       q    Type
                         _______ _______ _______ _____ _____    ______ ____

>  <TORSDO>
F 6

$$$$
=
 OpenBabel11122413593D

 37 42  0  0  1  0  0  0  0  0999 V2000
  159.4650  211.6620  155.4710 C   0  0  0  0  0  0  0  0  0  0  0  0
  161.4840  208.5850  154.4190 C   0  0  1  0  0  3  0  0  0  0  0  0
  162.6790  208.2150  151.3600 O   0  0  0  0  0  0  0  0  0  0  0  0
  161.1800  210.1810  156.4090 N   0  0  2  0  0  0  0  0  0  0  0  0
  161.0030  208.8620  152.9930 C   0  0  2  0  0  3  0  0  0  0  0  0
  161.6820  209.9830  155.0350 C   0  0  2  0  0  3  0  0  0  0  0  0
  161.4660  207.8260  151.9490 C   0  0  2  0  0  3  0  0  0  0  0  0
  161.4180  208.9830  157.2150 C   0  0  0  0  0  2  0  0  0  0  0  0
  161.1590  211.0170  154.0300 C   0  0  2  0  0  3  0  0  0  0  0  0
  160.1850  212.8030  155.7960 F   0  0  0  0  0  0  0  0  0  0  0  0
  160.5510  206.2490  154.7550 C   0  0  0  0  0  2  0  0  0  0  0  0
  160.6610  207.7530  156.6960 C   0  0  0  0  0  2  0  0  0  0  0  0
  159.7640  211.2250  154.1660 O   0  0  0  0  0  0  0  0  0  0  0  0
  161.2810  209.2760  149.7930 O   0  0  0  0  0  0  0  0  0  0  0  0
  162.4260  208.4810  149.9940 C   0  0  0  0  0  2  0  0  0  0  0  0
  160.4680  207.7150  155.1770 C   0  0  1  0  0  3  0  0  0  0  0  0
  161.4230  210.3080  152.7080 C   0  0  2  0  0  3  0  0  0  0  0  0
  159.7600  210.5400  156.4560 C   0  0  0  0  0  2  0  0  0  0  0  0
  161.5100  206.3710  152.4570 C   0  0  1  0  0  3  0  0  0  0  0  0
  158.1180  211.9590  155.5400 F   0  0  0  0  0  0  0  0  0  0  0  0
  161.6100  210.5620  150.2300 C   0  0  0  0  0  2  0  0  0  0  0  0
  160.7770  210.9330  151.4550 C   0  0  2  0  0  3  0  0  0  0  0  0
  160.2710  206.0260  153.2760 C   0  0  0  0  0  2  0  0  0  0  0  0
  160.8400  205.6950  150.1140 C   0  0  0  0  0  2  0  0  0  0  0  0
  161.6810  205.3350  151.3400 C   0  0  2  0  0  3  0  0  0  0  0  0
  161.3920  203.9030  151.8090 C   0  0  0  0  0  2  0  0  0  0  0  0
  161.3070  201.6270  151.1010 O   0  0  0  0  0  1  0  0  0  0  0  0
  160.7520  203.2780  149.4710 C   0  0  0  0  0  2  0  0  0  0  0  0
  161.6230  202.9150  150.6700 C   0  0  1  0  0  3  0  0  0  0  0  0
  161.0790  204.6890  148.9920 C   0  0  0  0  0  2  0  0  0  0  0  0
  160.7320  212.4630  151.5450 C   0  0  0  0  0  2  0  0  0  0  0  0
  159.8270  213.1150  150.4900 C   0  0  1  0  0  3  0  0  0  0  0  0
  158.3060  213.5150  152.2510 O   0  0  0  0  0  0  0  0  0  0  0  0
  158.4920  213.4990  151.0450 C   0  0  0  0  0  3  0  0  0  0  0  0
  160.4860  214.3200  149.8300 C   0  0  0  0  0  2  0  0  0  0  0  0
  161.0700  213.9480  148.4770 C   0  0  0  0  0  2  0  0  0  0  0  0
  160.3310  212.9120  147.9050 O   0  0  0  0  0  1  0  0  0  0  0  0
  1 20  1  0  0  0  0
  1 10  1  0  0  0  0
  1 18  1  0  0  0  0
  2  6  1  0  0  0  0
  2 16  1  0  0  0  0
  3  7  1  0  0  0  0
  4 18  1  0  0  0  0
  4  8  1  0  0  0  0
  5  2  1  0  0  0  0
  6  4  1  0  0  0  0
  7 19  1  0  0  0  0
  7  5  1  0  0  0  0
  9 13  1  0  0  0  0
  9  6  1  0  0  0  0
 11 16  1  0  0  0  0
 12  8  1  0  0  0  0
 13  1  1  0  0  0  0
 14 15  1  0  0  0  0
 14 21  1  0  0  0  0
 15  3  1  0  0  0  0
 16 12  1  0  0  0  0
 17  5  1  0  0  0  0
 17  9  1  0  0  0  0
 19 23  1  0  0  0  0
 21 22  1  0  0  0  0
 22 31  1  0  0  0  0
 22 17  1  0  0  0  0
 23 11  1  0  0  0  0
 24 25  1  0  0  0  0
 25 26  1  0  0  0  0
 25 19  1  0  0  0  0
 28 29  1  0  0  0  0
 29 27  1  0  0  0  0
 29 26  1  0  0  0  0
 30 28  1  0  0  0  0
 30 24  1  0  0  0  0
 32 34  1  0  0  0  0
 32 31  1  0  0  0  0
 34 33  2  0  0  0  0
 35 32  1  0  0  0  0
 36 35  1  0  0  0  0
 37 36  1  0  0  0  0
M  END
>  <MODEL>
3

>  <REMARK>
 VINA RESULT:      -7.3      3.738      6.541
  Name = 
  6 active torsions:
  status: ('A' for Active; 'I' for Inactive)
    1  A    between atoms: C_1  and  C_4
    2  A    between atoms: C_1  and  C_27
    3  A    between atoms: C_4  and  C_12
    4  A    between atoms: C_4  and  C_37
    5  A    between atoms: C_8  and  C_12
    6  A    between atoms: C_23  and  C_30
                            x       y       z     vdW  Elec       q    Type
                         _______ _______ _______ _____ _____    ______ ____

>  <TORSDO>
F 6

$$$$
=
 OpenBabel11122413593D

 37 42  0  0  1  0  0  0  0  0999 V2000
  161.6320  207.9340  148.4000 C   0  0  0  0  0  0  0  0  0  0  0  0
  161.6080  210.3700  151.3540 C   0  0  1  0  0  3  0  0  0  0  0  0
  161.4680  209.3420  154.4910 O   0  0  0  0  0  0  0  0  0  0  0  0
  162.7010  210.0430  149.0510 N   0  0  2  0  0  0  0  0  0  0  0  0
  160.8760  209.2780  152.1370 C   0  0  2  0  0  3  0  0  0  0  0  0
  162.5950  209.6000  150.4550 C   0  0  2  0  0  3  0  0  0  0  0  0
  160.4670  209.6830  153.5680 C   0  0  2  0  0  3  0  0  0  0  0  0
  162.6210  211.5020  148.9720 C   0  0  0  0  0  2  0  0  0  0  0  0
  162.3010  208.1020  150.6110 C   0  0  2  0  0  3  0  0  0  0  0  0
  162.8480  207.3440  148.0840 F   0  0  0  0  0  0  0  0  0  0  0  0
  159.8890  212.2330  151.4790 C   0  0  0  0  0  2  0  0  0  0  0  0
  161.2720  212.0540  149.4550 C   0  0  0  0  0  2  0  0  0  0  0  0
  161.2710  207.6740  149.7360 O   0  0  0  0  0  0  0  0  0  0  0  0
  160.2750  207.3200  154.6460 O   0  0  0  0  0  0  0  0  0  0  0  0
  160.9400  208.3460  155.3460 C   0  0  0  0  0  2  0  0  0  0  0  0
  160.6110  211.2390  150.5700 C   0  0  1  0  0  3  0  0  0  0  0  0
  161.7830  208.0470  152.0420 C   0  0  2  0  0  3  0  0  0  0  0  0
  161.6900  209.4390  148.1800 C   0  0  0  0  0  2  0  0  0  0  0  0
  160.0140  211.1500  153.7210 C   0  0  1  0  0  3  0  0  0  0  0  0
  160.6610  207.4100  147.5690 F   0  0  0  0  0  0  0  0  0  0  0  0
  161.2640  206.5780  153.9950 C   0  0  0  0  0  2  0  0  0  0  0  0
  161.1240  206.7230  152.4820 C   0  0  2  0  0  3  0  0  0  0  0  0
  159.0860  211.5690  152.5870 C   0  0  0  0  0  2  0  0  0  0  0  0
  157.8540  211.0790  155.0330 C   0  0  0  0  0  2  0  0  0  0  0  0
  159.3380  211.4470  155.0640 C   0  0  2  0  0  3  0  0  0  0  0  0
  159.5410  212.8960  155.5230 C   0  0  0  0  0  2  0  0  0  0  0  0
  159.0390  214.4530  157.2580 O   0  0  0  0  0  1  0  0  0  0  0  0
  157.4020  212.7750  156.8180 C   0  0  0  0  0  2  0  0  0  0  0  0
  158.8870  213.1190  156.8830 C   0  0  1  0  0  3  0  0  0  0  0  0
  157.2190  211.3190  156.3990 C   0  0  0  0  0  2  0  0  0  0  0  0
  161.8000  205.5120  151.8290 C   0  0  0  0  0  2  0  0  0  0  0  0
  160.8110  204.4300  151.3700 C   0  0  1  0  0  3  0  0  0  0  0  0
  161.3920  204.6450  149.0920 O   0  0  0  0  0  0  0  0  0  0  0  0
  160.4960  204.5320  149.9120 C   0  0  0  0  0  3  0  0  0  0  0  0
  161.2970  203.0250  151.7040 C   0  0  0  0  0  2  0  0  0  0  0  0
  160.5550  201.9820  150.8840 C   0  0  0  0  0  2  0  0  0  0  0  0
  161.4420  201.3230  150.0330 O   0  0  0  0  0  1  0  0  0  0  0  0
  1 13  1  0  0  0  0
  2  5  1  0  0  0  0
  3 15  1  0  0  0  0
  4  6  1  0  0  0  0
  5  7  1  0  0  0  0
  6  9  1  0  0  0  0
  6  2  1  0  0  0  0
  7 19  1  0  0  0  0
  7  3  1  0  0  0  0
  8  4  1  0  0  0  0
  8 12  1  0  0  0  0
  9 17  1  0  0  0  0
 10  1  1  0  0  0  0
 11 23  1  0  0  0  0
 12 16  1  0  0  0  0
 13  9  1  0  0  0  0
 14 15  1  0  0  0  0
 16  2  1  0  0  0  0
 16 11  1  0  0  0  0
 17  5  1  0  0  0  0
 17 22  1  0  0  0  0
 18  1  1  0  0  0  0
 18  4  1  0  0  0  0
 19 25  1  0  0  0  0
 20  1  1  0  0  0  0
 21 14  1  0  0  0  0
 22 21  1  0  0  0  0
 23 19  1  0  0  0  0
 24 25  1  0  0  0  0
 24 30  1  0  0  0  0
 25 26  1  0  0  0  0
 26 29  1  0  0  0  0
 28 29  1  0  0  0  0
 29 27  1  0  0  0  0
 30 28  1  0  0  0  0
 31 22  1  0  0  0  0
 32 35  1  0  0  0  0
 32 31  1  0  0  0  0
 33 34  2  0  0  0  0
 34 32  1  0  0  0  0
 36 35  1  0  0  0  0
 37 36  1  0  0  0  0
M  END
>  <MODEL>
4

>  <REMARK>
 VINA RESULT:      -7.2      2.668      6.038
  Name = 
  6 active torsions:
  status: ('A' for Active; 'I' for Inactive)
    1  A    between atoms: C_1  and  C_4
    2  A    between atoms: C_1  and  C_27
    3  A    between atoms: C_4  and  C_12
    4  A    between atoms: C_4  and  C_37
    5  A    between atoms: C_8  and  C_12
    6  A    between atoms: C_23  and  C_30
                            x       y       z     vdW  Elec       q    Type
                         _______ _______ _______ _____ _____    ______ ____

>  <TORSDO>
F 6

$$$$
=
 OpenBabel11122413593D

 37 42  0  0  1  0  0  0  0  0999 V2000
  159.5900  211.6530  155.6400 C   0  0  0  0  0  0  0  0  0  0  0  0
  161.5680  208.5970  154.4550 C   0  0  1  0  0  3  0  0  0  0  0  0
  162.6800  208.3020  151.3570 O   0  0  0  0  0  0  0  0  0  0  0  0
  161.3230  210.1420  156.4930 N   0  0  2  0  0  0  0  0  0  0  0  0
  161.0500  208.9120  153.0500 C   0  0  2  0  0  3  0  0  0  0  0  0
  161.7880  209.9770  155.1010 C   0  0  2  0  0  3  0  0  0  0  0  0
  161.4800  207.9020  151.9670 C   0  0  2  0  0  3  0  0  0  0  0  0
  161.5790  208.9230  157.2610 C   0  0  0  0  0  2  0  0  0  0  0  0
  161.2430  211.0390  154.1370 C   0  0  2  0  0  3  0  0  0  0  0  0
  160.3230  212.7820  155.9750 F   0  0  0  0  0  0  0  0  0  0  0  0
  160.6350  206.2560  154.7560 C   0  0  0  0  0  2  0  0  0  0  0  0
  160.8030  207.7090  156.7310 C   0  0  0  0  0  2  0  0  0  0  0  0
  159.8530  211.2490  154.3160 O   0  0  0  0  0  0  0  0  0  0  0  0
  161.2440  209.4080  149.8550 O   0  0  0  0  0  0  0  0  0  0  0  0
  162.3910  208.6040  150.0050 C   0  0  0  0  0  2  0  0  0  0  0  0
  160.5690  207.7110  155.2180 C   0  0  1  0  0  3  0  0  0  0  0  0
  161.4680  210.3640  152.7910 C   0  0  2  0  0  3  0  0  0  0  0  0
  159.9070  210.5040  156.5870 C   0  0  0  0  0  2  0  0  0  0  0  0
  161.5330  206.4340  152.4360 C   0  0  1  0  0  3  0  0  0  0  0  0
  158.2460  211.9520  155.7530 F   0  0  0  0  0  0  0  0  0  0  0  0
  161.5890  210.6810  150.3160 C   0  0  0  0  0  2  0  0  0  0  0  0
  160.7910  211.0230  151.5720 C   0  0  2  0  0  3  0  0  0  0  0  0
  160.3150  206.0730  153.2800 C   0  0  0  0  0  2  0  0  0  0  0  0
  160.8390  205.8490  150.0760 C   0  0  0  0  0  2  0  0  0  0  0  0
  161.6690  205.4270  151.2890 C   0  0  2  0  0  3  0  0  0  0  0  0
  161.3370  203.9920  151.7160 C   0  0  0  0  0  2  0  0  0  0  0  0
  161.1800  201.7410  150.9420 O   0  0  0  0  0  1  0  0  0  0  0  0
  160.6740  203.4550  149.3630 C   0  0  0  0  0  2  0  0  0  0  0  0
  161.5350  203.0310  150.5490 C   0  0  1  0  0  3  0  0  0  0  0  0
  161.0440  204.8690  148.9250 C   0  0  0  0  0  2  0  0  0  0  0  0
  160.7540  212.5500  151.7030 C   0  0  0  0  0  2  0  0  0  0  0  0
  159.3970  213.1660  151.3360 C   0  0  1  0  0  3  0  0  0  0  0  0
  160.1380  213.7300  149.1670 O   0  0  0  0  0  0  0  0  0  0  0  0
  159.2220  213.3160  149.8590 C   0  0  0  0  0  3  0  0  0  0  0  0
  158.2290  212.3830  151.9250 C   0  0  0  0  0  2  0  0  0  0  0  0
  157.4030  213.2540  152.8570 C   0  0  0  0  0  2  0  0  0  0  0  0
  156.5820  214.1030  152.1140 O   0  0  0  0  0  1  0  0  0  0  0  0
  1 20  1  0  0  0  0
  1 10  1  0  0  0  0
  1 18  1  0  0  0  0
  2  6  1  0  0  0  0
  2 16  1  0  0  0  0
  3  7  1  0  0  0  0
  4 18  1  0  0  0  0
  4  8  1  0  0  0  0
  5  2  1  0  0  0  0
  6  4  1  0  0  0  0
  7 19  1  0  0  0  0
  7  5  1  0  0  0  0
  9 13  1  0  0  0  0
  9  6  1  0  0  0  0
 11 16  1  0  0  0  0
 12  8  1  0  0  0  0
 13  1  1  0  0  0  0
 14 15  1  0  0  0  0
 14 21  1  0  0  0  0
 15  3  1  0  0  0  0
 16 12  1  0  0  0  0
 17  5  1  0  0  0  0
 17  9  1  0  0  0  0
 19 23  1  0  0  0  0
 21 22  1  0  0  0  0
 22 31  1  0  0  0  0
 22 17  1  0  0  0  0
 23 11  1  0  0  0  0
 24 25  1  0  0  0  0
 25 26  1  0  0  0  0
 25 19  1  0  0  0  0
 28 29  1  0  0  0  0
 29 27  1  0  0  0  0
 29 26  1  0  0  0  0
 30 28  1  0  0  0  0
 30 24  1  0  0  0  0
 32 31  1  0  0  0  0
 32 35  1  0  0  0  0
 33 34  2  0  0  0  0
 34 32  1  0  0  0  0
 35 36  1  0  0  0  0
 37 36  1  0  0  0  0
M  END
>  <MODEL>
5

>  <REMARK>
 VINA RESULT:      -6.9      3.892      6.660
  Name = 
  6 active torsions:
  status: ('A' for Active; 'I' for Inactive)
    1  A    between atoms: C_1  and  C_4
    2  A    between atoms: C_1  and  C_27
    3  A    between atoms: C_4  and  C_12
    4  A    between atoms: C_4  and  C_37
    5  A    between atoms: C_8  and  C_12
    6  A    between atoms: C_23  and  C_30
                            x       y       z     vdW  Elec       q    Type
                         _______ _______ _______ _____ _____    ______ ____

>  <TORSDO>
F 6

$$$$
=
 OpenBabel11122413593D

 37 42  0  0  1  0  0  0  0  0999 V2000
  159.7750  210.6000  154.4260 C   0  0  0  0  0  0  0  0  0  0  0  0
  161.6950  207.8830  152.5340 C   0  0  1  0  0  3  0  0  0  0  0  0
  162.9230  208.3690  149.5050 O   0  0  0  0  0  0  0  0  0  0  0  0
  161.4190  208.8440  154.9000 N   0  0  2  0  0  0  0  0  0  0  0  0
  161.2460  208.5810  151.2480 C   0  0  2  0  0  3  0  0  0  0  0  0
  161.9350  209.0320  153.5300 C   0  0  2  0  0  3  0  0  0  0  0  0
  161.6860  207.8750  149.9500 C   0  0  2  0  0  3  0  0  0  0  0  0
  161.6000  207.4550  155.3240 C   0  0  0  0  0  2  0  0  0  0  0  0
  161.4660  210.3340  152.8670 C   0  0  2  0  0  3  0  0  0  0  0  0
  160.5310  211.5680  155.0720 F   0  0  0  0  0  0  0  0  0  0  0  0
  160.6700  205.5890  152.1730 C   0  0  0  0  0  2  0  0  0  0  0  0
  160.8060  206.4590  154.4680 C   0  0  0  0  0  2  0  0  0  0  0  0
  160.0780  210.5490  153.0520 O   0  0  0  0  0  0  0  0  0  0  0  0
  161.5890  209.8940  148.3070 O   0  0  0  0  0  0  0  0  0  0  0  0
  162.7010  209.0290  148.2740 C   0  0  0  0  0  2  0  0  0  0  0  0
  160.6360  206.8720  153.0030 C   0  0  1  0  0  3  0  0  0  0  0  0
  161.7240  210.0290  151.3970 C   0  0  2  0  0  3  0  0  0  0  0  0
  160.0130  209.2300  155.0440 C   0  0  0  0  0  2  0  0  0  0  0  0
  161.6690  206.3340  150.0130 C   0  0  1  0  0  3  0  0  0  0  0  0
  158.4390  210.9180  154.5730 F   0  0  0  0  0  0  0  0  0  0  0  0
  161.9580  210.9830  149.1000 C   0  0  0  0  0  2  0  0  0  0  0  0
  161.1210  211.0170  150.3770 C   0  0  2  0  0  3  0  0  0  0  0  0
  160.4060  205.8160  150.6920 C   0  0  0  0  0  2  0  0  0  0  0  0
  161.0770  206.4400  147.5570 C   0  0  0  0  0  2  0  0  0  0  0  0
  161.8190  205.6610  148.6440 C   0  0  2  0  0  3  0  0  0  0  0  0
  161.3950  204.1870  148.6580 C   0  0  0  0  0  2  0  0  0  0  0  0
  161.1710  202.2360  147.3040 O   0  0  0  0  0  1  0  0  0  0  0  0
  160.8350  204.3360  146.2230 C   0  0  0  0  0  2  0  0  0  0  0  0
  161.6090  203.5600  147.2840 C   0  0  1  0  0  3  0  0  0  0  0  0
  161.2970  205.7900  146.1950 C   0  0  0  0  0  2  0  0  0  0  0  0
  161.1310  212.4550  150.9080 C   0  0  0  0  0  2  0  0  0  0  0  0
  159.9970  213.3240  150.3480 C   0  0  1  0  0  3  0  0  0  0  0  0
  160.3690  214.1490  148.1670 O   0  0  0  0  0  0  0  0  0  0  0  0
  159.9090  213.2530  148.8570 C   0  0  0  0  0  3  0  0  0  0  0  0
  158.6470  212.9830  150.9690 C   0  0  0  0  0  2  0  0  0  0  0  0
  158.3270  213.9180  152.1240 C   0  0  0  0  0  2  0  0  0  0  0  0
  157.5480  213.2550  153.0730 O   0  0  0  0  0  1  0  0  0  0  0  0
  1 20  1  0  0  0  0
  1 18  1  0  0  0  0
  1 10  1  0  0  0  0
  2 16  1  0  0  0  0
  2  6  1  0  0  0  0
  3  7  1  0  0  0  0
  4 18  1  0  0  0  0
  4  8  1  0  0  0  0
  5 17  1  0  0  0  0
  5  2  1  0  0  0  0
  6  4  1  0  0  0  0
  7 19  1  0  0  0  0
  7  5  1  0  0  0  0
  9 13  1  0  0  0  0
  9  6  1  0  0  0  0
 11 16  1  0  0  0  0
 12  8  1  0  0  0  0
 13  1  1  0  0  0  0
 14 21  1  0  0  0  0
 15 14  1  0  0  0  0
 15  3  1  0  0  0  0
 16 12  1  0  0  0  0
 17  9  1  0  0  0  0
 19 23  1  0  0  0  0
 21 22  1  0  0  0  0
 22 31  1  0  0  0  0
 22 17  1  0  0  0  0
 23 11  1  0  0  0  0
 24 25  1  0  0  0  0
 25 26  1  0  0  0  0
 25 19  1  0  0  0  0
 28 29  1  0  0  0  0
 29 27  1  0  0  0  0
 29 26  1  0  0  0  0
 30 28  1  0  0  0  0
 30 24  1  0  0  0  0
 32 31  1  0  0  0  0
 32 35  1  0  0  0  0
 33 34  2  0  0  0  0
 34 32  1  0  0  0  0
 35 36  1  0  0  0  0
 36 37  1  0  0  0  0
M  END
>  <MODEL>
6

>  <REMARK>
 VINA RESULT:      -5.7      3.381      6.516
  Name = 
  6 active torsions:
  status: ('A' for Active; 'I' for Inactive)
    1  A    between atoms: C_1  and  C_4
    2  A    between atoms: C_1  and  C_27
    3  A    between atoms: C_4  and  C_12
    4  A    between atoms: C_4  and  C_37
    5  A    between atoms: C_8  and  C_12
    6  A    between atoms: C_23  and  C_30
                            x       y       z     vdW  Elec       q    Type
                         _______ _______ _______ _____ _____    ______ ____

>  <TORSDO>
F 6

$$$$
=
 OpenBabel11122413593D

 37 42  0  0  1  0  0  0  0  0999 V2000
  159.9740  210.4260  154.2800 C   0  0  0  0  0  0  0  0  0  0  0  0
  161.7200  207.6990  152.2360 C   0  0  1  0  0  3  0  0  0  0  0  0
  162.8420  208.2300  149.1740 O   0  0  0  0  0  0  0  0  0  0  0  0
  161.5730  208.6010  154.6380 N   0  0  2  0  0  0  0  0  0  0  0  0
  161.2450  208.4490  150.9900 C   0  0  2  0  0  3  0  0  0  0  0  0
  162.0400  208.8110  153.2530 C   0  0  2  0  0  3  0  0  0  0  0  0
  161.6070  207.7660  149.6560 C   0  0  2  0  0  3  0  0  0  0  0  0
  161.7230  207.1960  155.0160 C   0  0  0  0  0  2  0  0  0  0  0  0
  161.5910  210.1460  152.6450 C   0  0  2  0  0  3  0  0  0  0  0  0
  160.7890  211.3480  154.9190 F   0  0  0  0  0  0  0  0  0  0  0  0
  160.6020  205.4530  151.8560 C   0  0  0  0  0  2  0  0  0  0  0  0
  160.8600  206.2520  154.1660 C   0  0  0  0  0  2  0  0  0  0  0  0
  160.2200  210.4040  152.8930 O   0  0  0  0  0  0  0  0  0  0  0  0
  161.5150  209.8330  148.0740 O   0  0  0  0  0  0  0  0  0  0  0  0
  162.5940  208.9320  147.9710 C   0  0  0  0  0  2  0  0  0  0  0  0
  160.6460  206.7120  152.7210 C   0  0  1  0  0  3  0  0  0  0  0  0
  161.7790  209.8750  151.1580 C   0  0  2  0  0  3  0  0  0  0  0  0
  160.1890  209.0310  154.8490 C   0  0  0  0  0  2  0  0  0  0  0  0
  161.5390  206.2250  149.6780 C   0  0  1  0  0  3  0  0  0  0  0  0
  158.6570  210.7840  154.4900 F   0  0  0  0  0  0  0  0  0  0  0  0
  161.9540  210.8860  148.8810 C   0  0  0  0  0  2  0  0  0  0  0  0
  161.1700  210.9110  150.1910 C   0  0  2  0  0  3  0  0  0  0  0  0
  160.2860  205.7320  150.3940 C   0  0  0  0  0  2  0  0  0  0  0  0
  163.0510  205.5140  147.7790 C   0  0  0  0  0  2  0  0  0  0  0  0
  161.6090  205.5870  148.2860 C   0  0  2  0  0  3  0  0  0  0  0  0
  160.6970  206.2820  147.2670 C   0  0  0  0  0  2  0  0  0  0  0  0
  159.9780  206.2520  144.9940 O   0  0  0  0  0  1  0  0  0  0  0  0
  162.2160  205.5440  145.4200 C   0  0  0  0  0  2  0  0  0  0  0  0
  160.7740  205.5760  145.9180 C   0  0  1  0  0  3  0  0  0  0  0  0
  163.1020  204.8140  146.4250 C   0  0  0  0  0  2  0  0  0  0  0  0
  161.2520  212.3320  150.7600 C   0  0  0  0  0  2  0  0  0  0  0  0
  160.1570  213.2700  150.2330 C   0  0  1  0  0  3  0  0  0  0  0  0
  159.4380  213.4320  152.4750 O   0  0  0  0  0  0  0  0  0  0  0  0
  159.3210  213.8430  151.3320 C   0  0  0  0  0  3  0  0  0  0  0  0
  160.7230  214.3890  149.3670 C   0  0  0  0  0  2  0  0  0  0  0  0
  160.5890  214.0570  147.8900 C   0  0  0  0  0  2  0  0  0  0  0  0
  159.4770  213.2400  147.6830 O   0  0  0  0  0  1  0  0  0  0  0  0
  1 20  1  0  0  0  0
  1 18  1  0  0  0  0
  1 10  1  0  0  0  0
  2 16  1  0  0  0  0
  2  6  1  0  0  0  0
  3  7  1  0  0  0  0
  4 18  1  0  0  0  0
  4  8  1  0  0  0  0
  5 17  1  0  0  0  0
  5  2  1  0  0  0  0
  6  4  1  0  0  0  0
  7 19  1  0  0  0  0
  7  5  1  0  0  0  0
  9 13  1  0  0  0  0
  9  6  1  0  0  0  0
 11 16  1  0  0  0  0
 12  8  1  0  0  0  0
 13  1  1  0  0  0  0
 14 21  1  0  0  0  0
 15 14  1  0  0  0  0
 15  3  1  0  0  0  0
 16 12  1  0  0  0  0
 17  9  1  0  0  0  0
 19 23  1  0  0  0  0
 21 22  1  0  0  0  0
 22 31  1  0  0  0  0
 22 17  1  0  0  0  0
 23 11  1  0  0  0  0
 24 25  1  0  0  0  0
 25 19  1  0  0  0  0
 26 25  1  0  0  0  0
 27 29  1  0  0  0  0
 28 29  1  0  0  0  0
 28 30  1  0  0  0  0
 29 26  1  0  0  0  0
 30 24  1  0  0  0  0
 32 31  1  0  0  0  0
 32 34  1  0  0  0  0
 34 33  2  0  0  0  0
 35 32  1  0  0  0  0
 36 35  1  0  0  0  0
 37 36  1  0  0  0  0
M  END
>  <MODEL>
7

>  <REMARK>
 VINA RESULT:      -5.4      3.172      6.476
  Name = 
  6 active torsions:
  status: ('A' for Active; 'I' for Inactive)
    1  A    between atoms: C_1  and  C_4
    2  A    between atoms: C_1  and  C_27
    3  A    between atoms: C_4  and  C_12
    4  A    between atoms: C_4  and  C_37
    5  A    between atoms: C_8  and  C_12
    6  A    between atoms: C_23  and  C_30
                            x       y       z     vdW  Elec       q    Type
                         _______ _______ _______ _____ _____    ______ ____

>  <TORSDO>
F 6

$$$$
=
 OpenBabel11122413593D

 37 42  0  0  1  0  0  0  0  0999 V2000
  160.6630  206.3960  146.8840 C   0  0  0  0  0  0  0  0  0  0  0  0
  162.1730  207.5420  150.2100 C   0  0  1  0  0  3  0  0  0  0  0  0
  162.2770  205.5860  152.8720 O   0  0  0  0  0  0  0  0  0  0  0  0
  162.5700  207.7170  147.6780 N   0  0  2  0  0  0  0  0  0  0  0  0
  161.2490  206.5250  150.8830 C   0  0  2  0  0  3  0  0  0  0  0  0
  162.5840  206.8700  148.8870 C   0  0  2  0  0  3  0  0  0  0  0  0
  161.3230  206.5130  152.4230 C   0  0  2  0  0  3  0  0  0  0  0  0
  163.0460  209.0630  147.9960 C   0  0  0  0  0  2  0  0  0  0  0  0
  161.7720  205.5760  148.7450 C   0  0  2  0  0  3  0  0  0  0  0  0
  161.4660  205.6120  146.0680 F   0  0  0  0  0  0  0  0  0  0  0  0
  161.3710  209.6750  151.3280 C   0  0  0  0  0  2  0  0  0  0  0  0
  162.1430  209.7960  148.9970 C   0  0  0  0  0  2  0  0  0  0  0  0
  160.5040  205.8120  148.1560 O   0  0  0  0  0  0  0  0  0  0  0  0
  160.4520  204.1010  152.8780 O   0  0  0  0  0  0  0  0  0  0  0  0
  161.5870  204.5670  153.5690 C   0  0  0  0  0  2  0  0  0  0  0  0
  161.4550  208.8880  150.0210 C   0  0  1  0  0  3  0  0  0  0  0  0
  161.5700  205.1890  150.2040 C   0  0  2  0  0  3  0  0  0  0  0  0
  161.2530  207.7900  147.0420 C   0  0  0  0  0  2  0  0  0  0  0  0
  161.5130  207.8990  153.0720 C   0  0  1  0  0  3  0  0  0  0  0  0
  159.4200  206.5140  146.2940 F   0  0  0  0  0  0  0  0  0  0  0  0
  160.9250  203.3670  151.7870 C   0  0  0  0  0  2  0  0  0  0  0  0
  160.5530  204.0620  150.4800 C   0  0  2  0  0  3  0  0  0  0  0  0
  160.6130  208.9470  152.4270 C   0  0  0  0  0  2  0  0  0  0  0  0
  159.9340  207.2910  154.9510 C   0  0  0  0  0  2  0  0  0  0  0  0
  161.2880  207.9030  154.5880 C   0  0  2  0  0  3  0  0  0  0  0  0
  161.4500  209.2970  155.2080 C   0  0  0  0  0  2  0  0  0  0  0  0
  161.3620  210.5130  157.2580 O   0  0  0  0  0  1  0  0  0  0  0  0
  159.8920  208.6450  157.0560 C   0  0  0  0  0  2  0  0  0  0  0  0
  161.2610  209.2300  156.7200 C   0  0  1  0  0  3  0  0  0  0  0  0
  159.7620  207.2440  156.4660 C   0  0  0  0  0  2  0  0  0  0  0  0
  160.5620  203.0080  149.3670 C   0  0  0  0  0  2  0  0  0  0  0  0
  160.6530  201.5660  149.8880 C   0  0  1  0  0  3  0  0  0  0  0  0
  158.3720  201.2870  149.3470 O   0  0  0  0  0  0  0  0  0  0  0  0
  159.3070  200.9340  150.0470 C   0  0  0  0  0  3  0  0  0  0  0  0
  161.5430  200.6910  149.0130 C   0  0  0  0  0  2  0  0  0  0  0  0
  161.0950  200.7390  147.5610 C   0  0  0  0  0  2  0  0  0  0  0  0
  161.6610  199.6790  146.8520 O   0  0  0  0  0  1  0  0  0  0  0  0
  1 18  1  0  0  0  0
  1 13  1  0  0  0  0
  2  5  1  0  0  0  0
  3 15  1  0  0  0  0
  4  8  1  0  0  0  0
  4  6  1  0  0  0  0
  5  7  1  0  0  0  0
  6  2  1  0  0  0  0
  7  3  1  0  0  0  0
  7 19  1  0  0  0  0
  8 12  1  0  0  0  0
  9  6  1  0  0  0  0
  9 17  1  0  0  0  0
 10  1  1  0  0  0  0
 11 23  1  0  0  0  0
 12 16  1  0  0  0  0
 13  9  1  0  0  0  0
 14 15  1  0  0  0  0
 16  2  1  0  0  0  0
 16 11  1  0  0  0  0
 17 22  1  0  0  0  0
 17  5  1  0  0  0  0
 18  4  1  0  0  0  0
 19 25  1  0  0  0  0
 20  1  1  0  0  0  0
 21 14  1  0  0  0  0
 22 21  1  0  0  0  0
 23 19  1  0  0  0  0
 24 30  1  0  0  0  0
 25 24  1  0  0  0  0
 25 26  1  0  0  0  0
 26 29  1  0  0  0  0
 29 28  1  0  0  0  0
 29 27  1  0  0  0  0
 30 28  1  0  0  0  0
 31 32  1  0  0  0  0
 31 22  1  0  0  0  0
 32 34  1  0  0  0  0
 33 34  2  0  0  0  0
 35 32  1  0  0  0  0
 36 35  1  0  0  0  0
 37 36  1  0  0  0  0
M  END
>  <MODEL>
8

>  <REMARK>
 VINA RESULT:      -5.3      2.655      6.080
  Name = 
  6 active torsions:
  status: ('A' for Active; 'I' for Inactive)
    1  A    between atoms: C_1  and  C_4
    2  A    between atoms: C_1  and  C_27
    3  A    between atoms: C_4  and  C_12
    4  A    between atoms: C_4  and  C_37
    5  A    between atoms: C_8  and  C_12
    6  A    between atoms: C_23  and  C_30
                            x       y       z     vdW  Elec       q    Type
                         _______ _______ _______ _____ _____    ______ ____

>  <TORSDO>
F 6

$$$$
=
 OpenBabel11122413593D

 37 42  0  0  1  0  0  0  0  0999 V2000
  161.9490  201.2810  148.2440 C   0  0  0  0  0  0  0  0  0  0  0  0
  160.4680  204.0500  150.4340 C   0  0  1  0  0  3  0  0  0  0  0  0
  160.7370  207.2510  149.6600 O   0  0  0  0  0  0  0  0  0  0  0  0
  159.9310  201.6880  149.5770 N   0  0  2  0  0  0  0  0  0  0  0  0
  161.5440  204.9690  149.8510 C   0  0  2  0  0  3  0  0  0  0  0  0
  160.0810  203.1240  149.2660 C   0  0  2  0  0  3  0  0  0  0  0  0
  161.5460  206.3990  150.4280 C   0  0  2  0  0  3  0  0  0  0  0  0
  159.3070  201.5160  150.8890 C   0  0  0  0  0  2  0  0  0  0  0  0
  161.0410  203.4080  148.1040 C   0  0  2  0  0  3  0  0  0  0  0  0
  161.2120  200.9010  147.1310 F   0  0  0  0  0  0  0  0  0  0  0  0
  161.0500  204.1980  152.9000 C   0  0  0  0  0  2  0  0  0  0  0  0
  160.1590  202.0760  152.0360 C   0  0  0  0  0  2  0  0  0  0  0  0
  162.2390  202.6600  148.2150 O   0  0  0  0  0  0  0  0  0  0  0  0
  162.7310  207.6510  148.4760 O   0  0  0  0  0  0  0  0  0  0  0  0
  161.5810  208.2160  149.0610 C   0  0  0  0  0  2  0  0  0  0  0  0
  161.0030  203.3000  151.6650 C   0  0  1  0  0  3  0  0  0  0  0  0
  161.3590  204.8800  148.3320 C   0  0  2  0  0  3  0  0  0  0  0  0
  161.1970  200.9540  149.5260 C   0  0  0  0  0  2  0  0  0  0  0  0
  161.2150  206.4900  151.9320 C   0  0  1  0  0  3  0  0  0  0  0  0
  163.1380  200.5780  148.2440 F   0  0  0  0  0  0  0  0  0  0  0  0
  162.3010  206.9680  147.3360 C   0  0  0  0  0  2  0  0  0  0  0  0
  162.5210  205.4660  147.5040 C   0  0  2  0  0  3  0  0  0  0  0  0
  161.9460  205.4160  152.7310 C   0  0  0  0  0  2  0  0  0  0  0  0
  161.2060  207.8820  154.0430 C   0  0  0  0  0  2  0  0  0  0  0  0
  161.5110  207.8630  152.5440 C   0  0  2  0  0  3  0  0  0  0  0  0
  160.7890  209.0050  151.8180 C   0  0  0  0  0  2  0  0  0  0  0  0
  160.4530  211.3660  151.7990 O   0  0  0  0  0  1  0  0  0  0  0  0
  160.8160  210.3520  153.9270 C   0  0  0  0  0  2  0  0  0  0  0  0
  161.1570  210.3480  152.4400 C   0  0  1  0  0  3  0  0  0  0  0  0
  161.5730  209.2360  154.6420 C   0  0  0  0  0  2  0  0  0  0  0  0
  162.5900  204.8420  146.1060 C   0  0  0  0  0  2  0  0  0  0  0  0
  161.2130  204.6050  145.4700 C   0  0  1  0  0  3  0  0  0  0  0  0
  161.5790  205.7440  143.4350 O   0  0  0  0  0  0  0  0  0  0  0  0
  160.8830  205.6280  144.4310 C   0  0  0  0  0  3  0  0  0  0  0  0
  161.0810  203.2030  144.8860 C   0  0  0  0  0  2  0  0  0  0  0  0
  159.6360  202.8950  144.5300 C   0  0  0  0  0  2  0  0  0  0  0  0
  159.3320  201.5750  144.8650 O   0  0  0  0  0  1  0  0  0  0  0  0
  1 18  1  0  0  0  0
  2 16  1  0  0  0  0
  3  7  1  0  0  0  0
  4  8  1  0  0  0  0
  5  7  1  0  0  0  0
  5  2  1  0  0  0  0
  6  4  1  0  0  0  0
  6  2  1  0  0  0  0
  7 19  1  0  0  0  0
  8 12  1  0  0  0  0
  9 13  1  0  0  0  0
  9 17  1  0  0  0  0
  9  6  1  0  0  0  0
 10  1  1  0  0  0  0
 13  1  1  0  0  0  0
 14 15  1  0  0  0  0
 15  3  1  0  0  0  0
 16 12  1  0  0  0  0
 16 11  1  0  0  0  0
 17  5  1  0  0  0  0
 18  4  1  0  0  0  0
 19 25  1  0  0  0  0
 19 23  1  0  0  0  0
 20  1  1  0  0  0  0
 21 22  1  0  0  0  0
 21 14  1  0  0  0  0
 22 17  1  0  0  0  0
 23 11  1  0  0  0  0
 24 30  1  0  0  0  0
 25 24  1  0  0  0  0
 26 29  1  0  0  0  0
 26 25  1  0  0  0  0
 27 29  1  0  0  0  0
 28 30  1  0  0  0  0
 29 28  1  0  0  0  0
 31 22  1  0  0  0  0
 32 31  1  0  0  0  0
 33 34  2  0  0  0  0
 34 32  1  0  0  0  0
 35 32  1  0  0  0  0
 36 37  1  0  0  0  0
 36 35  1  0  0  0  0
M  END
>  <MODEL>
9

>  <REMARK>
 VINA RESULT:      -5.2      2.800      5.108
  Name = 
  6 active torsions:
  status: ('A' for Active; 'I' for Inactive)
    1  A    between atoms: C_1  and  C_4
    2  A    between atoms: C_1  and  C_27
    3  A    between atoms: C_4  and  C_12
    4  A    between atoms: C_4  and  C_37
    5  A    between atoms: C_8  and  C_12
    6  A    between atoms: C_23  and  C_30
                            x       y       z     vdW  Elec       q    Type
                         _______ _______ _______ _____ _____    ______ ____

>  <TORSDO>
F 6

$$$$
