=
 OpenBabel11122412443D

 30 35  0  0  1  0  0  0  0  0999 V2000
  160.6780  205.7220  149.7710 C   0  0  0  0  0  0  0  0  0  0  0  0
  160.8010  203.2850  149.5850 C   0  0  0  0  0  0  0  0  0  0  0  0
  161.3000  205.5050  153.9430 N   0  0  0  0  0  0  0  0  0  0  0  0
  160.6370  207.0280  150.5630 C   0  0  2  0  0  3  0  0  0  0  0  0
  160.5930  205.9150  148.2930 C   0  0  0  0  0  2  0  0  0  0  0  0
  162.9670  208.6800  148.2320 O   0  0  0  0  0  0  0  0  0  0  0  0
  160.6110  209.7260  151.7190 C   0  0  1  0  0  3  0  0  0  0  0  0
  162.0980  207.8780  148.6710 C   0  0  0  0  0  0  0  0  0  0  0  0
  160.9340  209.0280  152.9490 N   0  0  0  0  0  0  0  0  0  0  0  0
  161.2800  206.7720  154.2280 C   0  0  0  0  0  0  0  0  0  0  0  0
  161.6980  206.7590  147.8640 N   0  0  0  0  0  0  0  0  0  0  0  0
  161.5050  208.0760  149.9790 N   0  0  0  0  0  0  0  0  0  0  0  0
  160.9510  202.0400  150.2020 C   0  0  0  0  0  3  0  0  0  0  0  0
  161.0220  209.9090  154.0940 C   0  0  0  0  0  2  0  0  0  0  0  0
  160.6340  211.2070  152.0660 C   0  0  0  0  0  2  0  0  0  0  0  0
  160.6170  203.2850  148.2410 F   0  0  0  0  0  0  0  0  0  0  0  0
  161.0950  205.4480  152.5320 C   0  0  0  0  0  0  0  0  0  0  0  0
  161.1330  201.9440  151.5780 C   0  0  0  0  0  3  0  0  0  0  0  0
  160.8250  204.4830  150.3520 C   0  0  0  0  0  0  0  0  0  0  0  0
  160.9650  206.7700  152.0010 C   0  0  0  0  0  0  0  0  0  0  0  0
  161.4560  207.2760  155.6170 C   0  0  0  0  0  1  0  0  0  0  0  0
  161.0550  207.5990  153.0270 C   0  0  0  0  0  0  0  0  0  0  0  0
  160.6300  211.2860  153.5870 C   0  0  0  0  0  2  0  0  0  0  0  0
  162.5180  210.1700  150.3370 O   0  0  0  0  0  0  0  0  0  0  0  0
  161.1710  203.0970  152.3550 C   0  0  0  0  0  3  0  0  0  0  0  0
  161.0240  204.3580  151.7660 C   0  0  0  0  0  0  0  0  0  0  0  0
  161.5920  209.3650  150.6330 C   0  0  0  0  0  0  0  0  0  0  0  0
  162.3220  206.5070  146.5710 C   0  0  0  0  0  2  0  0  0  0  0  0
  161.9780  204.3830  145.3060 C   0  0  0  0  0  1  0  0  0  0  0  0
  162.7280  205.0460  146.4460 C   0  0  0  0  0  2  0  0  0  0  0  0
  1 19  2  0  0  0  0
  2 13  2  0  0  0  0
  2 19  1  0  0  0  0
  3 10  2  0  0  0  0
  4  1  1  6  0  0  0
  4 20  1  0  0  0  0
  5  1  1  0  0  0  0
  6  8  2  0  0  0  0
  7 15  1  1  0  0  0
  7  9  1  0  0  0  0
  8 12  1  0  0  0  0
  9 22  1  0  0  0  0
  9 14  1  0  0  0  0
 10 21  1  0  0  0  0
 11  5  1  0  0  0  0
 11  8  1  0  0  0  0
 12  4  1  0  0  0  0
 12 27  1  0  0  0  0
 13 18  1  0  0  0  0
 15 23  1  0  0  0  0
 16  2  1  0  0  0  0
 17  3  1  0  0  0  0
 18 25  2  0  0  0  0
 19 26  1  0  0  0  0
 20 17  1  0  0  0  0
 20 22  2  0  0  0  0
 22 10  1  0  0  0  0
 23 14  1  0  0  0  0
 24 27  2  0  0  0  0
 26 25  1  0  0  0  0
 26 17  2  0  0  0  0
 27  7  1  0  0  0  0
 28 11  1  0  0  0  0
 29 30  1  0  0  0  0
 30 28  1  0  0  0  0
M  END
>  <MODEL>
1

>  <REMARK>
 VINA RESULT:      -9.8      0.000      0.000
  Name = 
  2 active torsions:
  status: ('A' for Active; 'I' for Inactive)
    1  A    between atoms: N_11  and  C_28
    2  A    between atoms: C_28  and  C_30
                            x       y       z     vdW  Elec       q    Type
                         _______ _______ _______ _____ _____    ______ ____

>  <TORSDO>
F 2

$$$$
=
 OpenBabel11122412443D

 30 35  0  0  1  0  0  0  0  0999 V2000
  160.8610  207.9790  151.0670 C   0  0  0  0  0  0  0  0  0  0  0  0
  161.4240  210.3490  150.8230 C   0  0  0  0  0  0  0  0  0  0  0  0
  162.4120  207.1430  147.2290 N   0  0  0  0  0  0  0  0  0  0  0  0
  160.7360  206.5480  150.5480 C   0  0  2  0  0  3  0  0  0  0  0  0
  160.4180  208.1430  152.4840 C   0  0  0  0  0  2  0  0  0  0  0  0
  162.1230  205.1450  153.6630 O   0  0  0  0  0  0  0  0  0  0  0  0
  160.4280  203.6910  149.9460 C   0  0  1  0  0  3  0  0  0  0  0  0
  161.5480  205.9450  152.8750 C   0  0  0  0  0  0  0  0  0  0  0  0
  161.1440  204.0340  148.7320 N   0  0  0  0  0  0  0  0  0  0  0  0
  162.2030  205.8620  147.1880 C   0  0  0  0  0  0  0  0  0  0  0  0
  161.2120  207.2660  153.3300 N   0  0  0  0  0  0  0  0  0  0  0  0
  161.2290  205.5440  151.5190 N   0  0  0  0  0  0  0  0  0  0  0  0
  161.9490  211.3830  150.0440 C   0  0  0  0  0  3  0  0  0  0  0  0
  161.3030  202.9110  147.8320 C   0  0  0  0  0  2  0  0  0  0  0  0
  160.2300  202.1840  149.8980 C   0  0  0  0  0  2  0  0  0  0  0  0
  160.9540  210.6830  152.0510 F   0  0  0  0  0  0  0  0  0  0  0  0
  161.9180  207.5500  148.5040 C   0  0  0  0  0  0  0  0  0  0  0  0
  162.4430  211.1340  148.7680 C   0  0  0  0  0  3  0  0  0  0  0  0
  161.3760  209.0170  150.3240 C   0  0  0  0  0  0  0  0  0  0  0  0
  161.4150  206.4190  149.2200 C   0  0  0  0  0  0  0  0  0  0  0  0
  162.5750  205.0340  146.0090 C   0  0  0  0  0  1  0  0  0  0  0  0
  161.5610  205.3740  148.4240 C   0  0  0  0  0  0  0  0  0  0  0  0
  160.5440  201.7600  148.4690 C   0  0  0  0  0  2  0  0  0  0  0  0
  161.8590  203.2980  151.8280 O   0  0  0  0  0  0  0  0  0  0  0  0
  162.4200  209.8410  148.2550 C   0  0  0  0  0  3  0  0  0  0  0  0
  161.9000  208.7840  149.0100 C   0  0  0  0  0  0  0  0  0  0  0  0
  161.1990  204.1410  151.1610 C   0  0  0  0  0  0  0  0  0  0  0  0
  161.5760  207.7110  154.6700 C   0  0  0  0  0  2  0  0  0  0  0  0
  159.6470  207.2630  156.1890 C   0  0  0  0  0  1  0  0  0  0  0  0
  160.3740  208.3190  155.3780 C   0  0  0  0  0  2  0  0  0  0  0  0
  1  5  1  0  0  0  0
  2 16  1  0  0  0  0
  3 17  1  0  0  0  0
  4 20  1  6  0  0  0
  4  1  1  0  0  0  0
  4 12  1  0  0  0  0
  5 11  1  0  0  0  0
  7 15  1  1  0  0  0
  7 27  1  0  0  0  0
  8 11  1  0  0  0  0
  8  6  2  0  0  0  0
  9  7  1  0  0  0  0
 10  3  2  0  0  0  0
 10 22  1  0  0  0  0
 11 28  1  0  0  0  0
 12  8  1  0  0  0  0
 13  2  2  0  0  0  0
 14 23  1  0  0  0  0
 14  9  1  0  0  0  0
 17 26  2  0  0  0  0
 17 20  1  0  0  0  0
 18 13  1  0  0  0  0
 19  2  1  0  0  0  0
 19  1  2  0  0  0  0
 21 10  1  0  0  0  0
 22  9  1  0  0  0  0
 22 20  2  0  0  0  0
 23 15  1  0  0  0  0
 25 18  2  0  0  0  0
 25 26  1  0  0  0  0
 26 19  1  0  0  0  0
 27 12  1  0  0  0  0
 27 24  2  0  0  0  0
 28 30  1  0  0  0  0
 30 29  1  0  0  0  0
M  END
>  <MODEL>
2

>  <REMARK>
 VINA RESULT:      -7.5      2.633      7.191
  Name = 
  2 active torsions:
  status: ('A' for Active; 'I' for Inactive)
    1  A    between atoms: N_11  and  C_28
    2  A    between atoms: C_28  and  C_30
                            x       y       z     vdW  Elec       q    Type
                         _______ _______ _______ _____ _____    ______ ____

>  <TORSDO>
F 2

$$$$
