=
 OpenBabel11122413393D

 37 42  0  0  1  0  0  0  0  0999 V2000
  161.9130  206.7970  151.4360 C   0  0  1  0  0  0  0  0  0  0  0  0
  161.3860  211.0830  151.8070 C   0  0  1  0  0  3  0  0  0  0  0  0
  158.2530  210.6870  151.9690 C   0  0  0  0  0  1  0  0  0  0  0  0
  161.8430  209.0280  150.2830 C   0  0  0  0  0  0  0  0  0  0  0  0
  160.5270  211.0850  153.0940 C   0  0  1  0  0  3  0  0  0  0  0  0
  161.8090  209.6230  151.6610 C   0  0  2  0  0  3  0  0  0  0  0  0
  159.0670  211.5550  152.9310 C   0  0  1  0  0  3  0  0  0  0  0  0
  161.6350  209.8470  149.0410 C   0  0  0  0  0  2  0  0  0  0  0  0
  160.9160  208.8210  152.4760 N   0  0  1  0  0  0  0  0  0  0  0  0
  163.2900  206.1790  151.5610 C   0  0  0  0  0  1  0  0  0  0  0  0
  160.4890  213.1690  150.5900 C   0  0  0  0  0  2  0  0  0  0  0  0
  161.5860  211.3450  149.3270 C   0  0  0  0  0  2  0  0  0  0  0  0
  161.5950  207.5520  152.7540 C   0  0  0  0  0  2  0  0  0  0  0  0
  160.7160  211.6540  150.5400 C   0  0  1  0  0  3  0  0  0  0  0  0
  160.5920  209.6570  153.6350 C   0  0  1  0  0  3  0  0  0  0  0  0
  161.8850  207.6880  150.1990 C   0  0  0  0  0  3  0  0  0  0  0  0
  158.9610  213.0730  152.6640 C   0  0  1  0  0  3  0  0  0  0  0  0
  160.9780  205.7760  151.2690 O   0  0  0  0  0  1  0  0  0  0  0  0
  160.1590  213.7370  151.9720 C   0  0  0  0  0  2  0  0  0  0  0  0
  162.5910  210.6530  154.9780 C   0  0  0  0  0  2  0  0  0  0  0  0
  163.2090  210.5870  156.2980 N   0  0  0  0  0  0  0  0  0  0  0  0
  160.9720  211.5190  157.0900 C   0  0  2  0  0  3  0  0  0  0  0  0
  162.5030  211.4470  157.2610 C   0  0  0  0  0  2  0  0  0  0  0  0
  160.2390  210.1710  156.9720 C   0  0  1  0  0  3  0  0  0  0  0  0
  158.9140  210.3620  156.5760 O   0  0  0  0  0  1  0  0  0  0  0  0
  160.9010  209.0710  156.1260 C   0  0  0  0  0  2  0  0  0  0  0  0
  160.6320  212.3900  156.0690 F   0  0  0  0  0  0  0  0  0  0  0  0
  161.5760  209.5140  154.8190 C   0  0  1  0  0  3  0  0  0  0  0  0
  164.6930  212.3800  156.9920 C   0  0  0  0  0  1  0  0  0  0  0  0
  164.5520  211.1220  156.1580 C   0  0  0  0  0  2  0  0  0  0  0  0
  157.4010  213.9440  150.8710 C   0  0  0  0  0  3  0  0  0  0  0  0
  157.6210  213.5700  152.2060 C   0  0  0  0  0  0  0  0  0  0  0  0
  156.5670  213.6340  153.1240 C   0  0  0  0  0  3  0  0  0  0  0  0
  154.2880  214.1390  153.6090 F   0  0  0  0  0  0  0  0  0  0  0  0
  155.0910  214.4530  151.3870 C   0  0  0  0  0  3  0  0  0  0  0  0
  155.3050  214.0760  152.7150 C   0  0  0  0  0  0  0  0  0  0  0  0
  156.1390  214.3860  150.4640 C   0  0  0  0  0  3  0  0  0  0  0  0
  1 10  1  1  0  0  0
  1 13  1  0  0  0  0
  2  5  1  0  0  0  0
  3  7  1  0  0  0  0
  4  6  1  0  0  0  0
  5 15  1  0  0  0  0
  6  2  1  0  0  0  0
  6  9  1  0  0  0  0
  7  5  1  0  0  0  0
  8 12  1  0  0  0  0
  8  4  1  0  0  0  0
  9 13  1  0  0  0  0
  9 15  1  0  0  0  0
 11 19  1  0  0  0  0
 12 14  1  0  0  0  0
 14 11  1  0  0  0  0
 14  2  1  0  0  0  0
 15 28  1  0  0  0  0
 16  4  2  0  0  0  0
 16  1  1  0  0  0  0
 17  7  1  0  0  0  0
 18  1  1  0  0  0  0
 19 17  1  0  0  0  0
 20 21  1  0  0  0  0
 21 23  1  0  0  0  0
 22 23  1  0  0  0  0
 24 22  1  0  0  0  0
 25 24  1  0  0  0  0
 26 24  1  0  0  0  0
 27 22  1  0  0  0  0
 28 20  1  0  0  0  0
 28 26  1  0  0  0  0
 30 21  1  0  0  0  0
 30 29  1  0  0  0  0
 31 32  1  0  0  0  0
 32 17  1  0  0  0  0
 32 33  2  0  0  0  0
 35 36  2  0  0  0  0
 36 33  1  0  0  0  0
 36 34  1  0  0  0  0
 37 31  2  0  0  0  0
 37 35  1  0  0  0  0
M  END
>  <MODEL>
1

>  <REMARK>
 VINA RESULT:      -0.7      0.000      0.000
  Name = 
  3 active torsions:
  status: ('A' for Active; 'I' for Inactive)
    1  A    between atoms: N_4  and  C_37
    2  A    between atoms: C_21  and  C_27
    3  A    between atoms: C_23  and  C_30
                            x       y       z     vdW  Elec       q    Type
                         _______ _______ _______ _____ _____    ______ ____

>  <TORSDO>
F 3

$$$$
=
 OpenBabel11122413393D

 37 42  0  0  1  0  0  0  0  0999 V2000
  157.2590  213.0260  155.8360 C   0  0  1  0  0  0  0  0  0  0  0  0
  160.8580  211.1480  154.3180 C   0  0  1  0  0  3  0  0  0  0  0  0
  159.1330  208.7530  153.1840 C   0  0  0  0  0  1  0  0  0  0  0  0
  159.3100  211.6660  156.3410 C   0  0  0  0  0  0  0  0  0  0  0  0
  160.4030  210.9600  152.8520 C   0  0  1  0  0  3  0  0  0  0  0  0
  159.7390  211.9820  154.9370 C   0  0  2  0  0  3  0  0  0  0  0  0
  160.2030  209.5030  152.3870 C   0  0  1  0  0  3  0  0  0  0  0  0
  160.0380  210.6790  157.2080 C   0  0  0  0  0  2  0  0  0  0  0  0
  158.5780  211.8710  154.0750 N   0  0  1  0  0  0  0  0  0  0  0  0
  157.2920  214.4530  156.3410 C   0  0  0  0  0  1  0  0  0  0  0  0
  162.4250  209.1260  154.6300 C   0  0  0  0  0  2  0  0  0  0  0  0
  161.3440  210.1980  156.5820 C   0  0  0  0  0  2  0  0  0  0  0  0
  157.7130  213.0220  154.3520 C   0  0  0  0  0  2  0  0  0  0  0  0
  161.1650  209.8580  155.1070 C   0  0  1  0  0  3  0  0  0  0  0  0
  159.1120  211.7670  152.7140 C   0  0  1  0  0  3  0  0  0  0  0  0
  158.1290  212.1640  156.7440 C   0  0  0  0  0  3  0  0  0  0  0  0
  161.5390  208.7410  152.2390 C   0  0  1  0  0  3  0  0  0  0  0  0
  155.9480  212.5580  155.9040 O   0  0  0  0  0  1  0  0  0  0  0  0
  162.7010  209.2080  153.1270 C   0  0  0  0  0  2  0  0  0  0  0  0
  159.8180  213.0480  150.5580 C   0  0  0  0  0  2  0  0  0  0  0  0
  159.6500  214.3440  149.9080 N   0  0  0  0  0  0  0  0  0  0  0  0
  157.1860  213.6920  149.8630 C   0  0  2  0  0  3  0  0  0  0  0  0
  158.3680  214.4160  149.1880 C   0  0  0  0  0  2  0  0  0  0  0  0
  156.9560  214.0080  151.3520 C   0  0  1  0  0  3  0  0  0  0  0  0
  156.0330  213.1220  151.9090 O   0  0  0  0  0  1  0  0  0  0  0  0
  158.1960  214.1320  152.2520 C   0  0  0  0  0  2  0  0  0  0  0  0
  157.2400  212.3300  149.6200 F   0  0  0  0  0  0  0  0  0  0  0  0
  159.3320  213.1260  152.0100 C   0  0  1  0  0  3  0  0  0  0  0  0
  160.8250  213.1450  148.1520 C   0  0  0  0  0  1  0  0  0  0  0  0
  160.7010  214.4510  148.9110 C   0  0  0  0  0  2  0  0  0  0  0  0
  161.5370  206.3920  153.1830 C   0  0  0  0  0  3  0  0  0  0  0  0
  161.4350  207.2520  152.0790 C   0  0  0  0  0  0  0  0  0  0  0  0
  161.2040  206.7180  150.8070 C   0  0  0  0  0  3  0  0  0  0  0  0
  160.8650  204.8230  149.4000 F   0  0  0  0  0  0  0  0  0  0  0  0
  161.1940  204.4820  151.7360 C   0  0  0  0  0  3  0  0  0  0  0  0
  161.0850  205.3360  150.6350 C   0  0  0  0  0  0  0  0  0  0  0  0
  161.4190  205.0110  153.0110 C   0  0  0  0  0  3  0  0  0  0  0  0
  1 18  1  0  0  0  0
  1 10  1  1  0  0  0
  1 16  1  0  0  0  0
  2  6  1  0  0  0  0
  2 14  1  0  0  0  0
  4 16  2  0  0  0  0
  4  8  1  0  0  0  0
  5  2  1  0  0  0  0
  6  4  1  0  0  0  0
  7  5  1  0  0  0  0
  7  3  1  0  0  0  0
  9 13  1  0  0  0  0
  9  6  1  0  0  0  0
 11 14  1  0  0  0  0
 12  8  1  0  0  0  0
 13  1  1  0  0  0  0
 14 12  1  0  0  0  0
 15  5  1  0  0  0  0
 15  9  1  0  0  0  0
 17  7  1  0  0  0  0
 17 19  1  0  0  0  0
 19 11  1  0  0  0  0
 20 28  1  0  0  0  0
 21 20  1  0  0  0  0
 22 24  1  0  0  0  0
 23 22  1  0  0  0  0
 23 21  1  0  0  0  0
 24 25  1  0  0  0  0
 24 26  1  0  0  0  0
 27 22  1  0  0  0  0
 28 26  1  0  0  0  0
 28 15  1  0  0  0  0
 29 30  1  0  0  0  0
 30 21  1  0  0  0  0
 32 17  1  0  0  0  0
 32 31  2  0  0  0  0
 33 32  1  0  0  0  0
 34 36  1  0  0  0  0
 35 37  2  0  0  0  0
 36 33  2  0  0  0  0
 36 35  1  0  0  0  0
 37 31  1  0  0  0  0
M  END
>  <MODEL>
2

>  <REMARK>
 VINA RESULT:      -0.1      2.969      7.646
  Name = 
  3 active torsions:
  status: ('A' for Active; 'I' for Inactive)
    1  A    between atoms: N_4  and  C_37
    2  A    between atoms: C_21  and  C_27
    3  A    between atoms: C_23  and  C_30
                            x       y       z     vdW  Elec       q    Type
                         _______ _______ _______ _____ _____    ______ ____

>  <TORSDO>
F 3

$$$$
=
 OpenBabel11122413393D

 37 42  0  0  1  0  0  0  0  0999 V2000
  158.9930  211.4650  153.8930 C   0  0  1  0  0  0  0  0  0  0  0  0
  162.0030  208.7040  152.4410 C   0  0  1  0  0  3  0  0  0  0  0  0
  159.8200  207.2490  150.6750 C   0  0  0  0  0  1  0  0  0  0  0  0
  160.3820  209.4200  154.3430 C   0  0  0  0  0  0  0  0  0  0  0  0
  161.7670  208.9040  150.9250 C   0  0  1  0  0  3  0  0  0  0  0  0
  161.1220  209.7720  153.0850 C   0  0  2  0  0  3  0  0  0  0  0  0
  161.1920  207.6920  150.1640 C   0  0  1  0  0  3  0  0  0  0  0  0
  160.5970  208.1260  155.0740 C   0  0  0  0  0  2  0  0  0  0  0  0
  160.1500  210.1990  152.0950 N   0  0  1  0  0  0  0  0  0  0  0  0
  159.3960  212.7010  154.6690 C   0  0  0  0  0  1  0  0  0  0  0  0
  162.7610  206.2430  152.5190 C   0  0  0  0  0  2  0  0  0  0  0  0
  161.7660  207.3210  154.5130 C   0  0  0  0  0  2  0  0  0  0  0  0
  159.6670  211.5230  152.4960 C   0  0  0  0  0  2  0  0  0  0  0  0
  161.7400  207.2860  152.9890 C   0  0  1  0  0  3  0  0  0  0  0  0
  160.8460  210.1190  150.8080 C   0  0  1  0  0  3  0  0  0  0  0  0
  159.3730  210.2310  154.7040 C   0  0  0  0  0  3  0  0  0  0  0  0
  162.2180  206.5460  150.0170 C   0  0  1  0  0  3  0  0  0  0  0  0
  157.6090  211.4740  153.7230 O   0  0  0  0  0  1  0  0  0  0  0  0
  163.2990  206.4450  151.1010 C   0  0  0  0  0  2  0  0  0  0  0  0
  162.1640  211.4330  148.9850 C   0  0  0  0  0  2  0  0  0  0  0  0
  162.5360  212.7980  148.6230 N   0  0  0  0  0  0  0  0  0  0  0  0
  160.0180  213.1330  148.4040 C   0  0  2  0  0  3  0  0  0  0  0  0
  161.4390  213.4790  147.9170 C   0  0  0  0  0  2  0  0  0  0  0  0
  159.7820  213.2190  149.9230 C   0  0  1  0  0  3  0  0  0  0  0  0
  158.5530  212.6510  150.2650 O   0  0  0  0  0  1  0  0  0  0  0  0
  160.8930  212.6960  150.8470 C   0  0  0  0  0  2  0  0  0  0  0  0
  159.5990  211.9230  147.8780 F   0  0  0  0  0  0  0  0  0  0  0  0
  161.6060  211.4050  150.4130 C   0  0  1  0  0  3  0  0  0  0  0  0
  163.1600  213.0110  146.2860 C   0  0  0  0  0  1  0  0  0  0  0  0
  163.6420  212.6950  147.6880 C   0  0  0  0  0  2  0  0  0  0  0  0
  161.1360  204.3020  150.4680 C   0  0  0  0  0  3  0  0  0  0  0  0
  161.6700  205.2260  149.5570 C   0  0  0  0  0  0  0  0  0  0  0  0
  161.6710  204.9270  148.1910 C   0  0  0  0  0  3  0  0  0  0  0  0
  161.1550  203.4260  146.4110 F   0  0  0  0  0  0  0  0  0  0  0  0
  160.6230  202.7920  148.6470 C   0  0  0  0  0  3  0  0  0  0  0  0
  161.1500  203.7120  147.7360 C   0  0  0  0  0  0  0  0  0  0  0  0
  160.6150  203.0880  150.0140 C   0  0  0  0  0  3  0  0  0  0  0  0
  1 10  1  1  0  0  0
  1 16  1  0  0  0  0
  2 14  1  0  0  0  0
  2  6  1  0  0  0  0
  4 16  2  0  0  0  0
  4  8  1  0  0  0  0
  5  2  1  0  0  0  0
  6  4  1  0  0  0  0
  7  3  1  0  0  0  0
  7  5  1  0  0  0  0
  9 13  1  0  0  0  0
  9  6  1  0  0  0  0
 11 14  1  0  0  0  0
 12  8  1  0  0  0  0
 13  1  1  0  0  0  0
 14 12  1  0  0  0  0
 15  5  1  0  0  0  0
 15  9  1  0  0  0  0
 17  7  1  0  0  0  0
 17 19  1  0  0  0  0
 18  1  1  0  0  0  0
 19 11  1  0  0  0  0
 20 28  1  0  0  0  0
 21 20  1  0  0  0  0
 22 24  1  0  0  0  0
 23 22  1  0  0  0  0
 23 21  1  0  0  0  0
 24 25  1  0  0  0  0
 24 26  1  0  0  0  0
 27 22  1  0  0  0  0
 28 15  1  0  0  0  0
 28 26  1  0  0  0  0
 29 30  1  0  0  0  0
 30 21  1  0  0  0  0
 32 17  1  0  0  0  0
 32 31  2  0  0  0  0
 33 32  1  0  0  0  0
 34 36  1  0  0  0  0
 35 37  2  0  0  0  0
 36 33  2  0  0  0  0
 36 35  1  0  0  0  0
 37 31  1  0  0  0  0
M  END
>  <MODEL>
3

>  <REMARK>
 VINA RESULT:       0.3      3.631      7.918
  Name = 
  3 active torsions:
  status: ('A' for Active; 'I' for Inactive)
    1  A    between atoms: N_4  and  C_37
    2  A    between atoms: C_21  and  C_27
    3  A    between atoms: C_23  and  C_30
                            x       y       z     vdW  Elec       q    Type
                         _______ _______ _______ _____ _____    ______ ____

>  <TORSDO>
F 3

$$$$
=
 OpenBabel11122413393D

 37 42  0  0  1  0  0  0  0  0999 V2000
  161.9030  207.8240  149.9560 C   0  0  1  0  0  0  0  0  0  0  0  0
  161.1130  211.6580  151.8180 C   0  0  1  0  0  3  0  0  0  0  0  0
  158.0260  210.9770  151.9150 C   0  0  0  0  0  1  0  0  0  0  0  0
  161.6240  210.3040  149.6590 C   0  0  0  0  0  0  0  0  0  0  0  0
  160.3250  211.1440  153.0470 C   0  0  1  0  0  3  0  0  0  0  0  0
  161.6240  210.3790  151.1580 C   0  0  2  0  0  3  0  0  0  0  0  0
  158.8300  211.5200  153.0980 C   0  0  1  0  0  3  0  0  0  0  0  0
  161.2950  211.4830  148.7880 C   0  0  0  0  0  2  0  0  0  0  0  0
  160.8310  209.2740  151.6650 N   0  0  1  0  0  0  0  0  0  0  0  0
  163.3230  207.3150  149.8190 C   0  0  0  0  0  1  0  0  0  0  0  0
  160.0150  213.9560  151.4330 C   0  0  0  0  0  2  0  0  0  0  0  0
  161.1610  212.7800  149.5820 C   0  0  0  0  0  2  0  0  0  0  0  0
  161.6060  208.0470  151.4630 C   0  0  0  0  0  2  0  0  0  0  0  0
  160.3390  212.5760  150.8490 C   0  0  1  0  0  3  0  0  0  0  0  0
  160.5140  209.6260  153.0520 C   0  0  1  0  0  3  0  0  0  0  0  0
  161.7500  209.0840  149.1100 C   0  0  0  0  0  3  0  0  0  0  0  0
  158.6090  213.0230  153.3820 C   0  0  1  0  0  3  0  0  0  0  0  0
  161.0310  206.8530  149.4670 O   0  0  0  0  0  1  0  0  0  0  0  0
  159.7210  213.9810  152.9350 C   0  0  0  0  0  2  0  0  0  0  0  0
  161.6420  209.9900  155.3720 C   0  0  0  0  0  2  0  0  0  0  0  0
  162.3980  209.2620  156.3870 N   0  0  0  0  0  0  0  0  0  0  0  0
  160.2760  207.8620  156.5690 C   0  0  2  0  0  3  0  0  0  0  0  0
  161.5050  208.4850  157.2610 C   0  0  0  0  0  2  0  0  0  0  0  0
  160.5530  207.0660  155.2810 C   0  0  1  0  0  3  0  0  0  0  0  0
  159.3610  206.7670  154.6190 O   0  0  0  0  0  1  0  0  0  0  0  0
  161.5850  207.6410  154.2980 C   0  0  0  0  0  2  0  0  0  0  0  0
  159.2770  208.8050  156.3970 F   0  0  0  0  0  0  0  0  0  0  0  0
  161.5670  209.1620  154.0840 C   0  0  1  0  0  3  0  0  0  0  0  0
  162.3090  211.5800  157.1060 C   0  0  0  0  0  1  0  0  0  0  0  0
  163.0430  210.2600  157.2230 C   0  0  0  0  0  2  0  0  0  0  0  0
  156.7770  213.9260  151.8880 C   0  0  0  0  0  3  0  0  0  0  0  0
  157.2160  213.5370  153.1630 C   0  0  0  0  0  0  0  0  0  0  0  0
  156.3350  213.6030  154.2470 C   0  0  0  0  0  3  0  0  0  0  0  0
  154.1780  214.1250  155.1180 F   0  0  0  0  0  0  0  0  0  0  0  0
  154.5940  214.4530  152.7930 C   0  0  0  0  0  3  0  0  0  0  0  0
  155.0270  214.0610  154.0630 C   0  0  0  0  0  0  0  0  0  0  0  0
  155.4690  214.3850  151.7050 C   0  0  0  0  0  3  0  0  0  0  0  0
  1 10  1  6  0  0  0
  1 13  1  0  0  0  0
  2  5  1  0  0  0  0
  3  7  1  0  0  0  0
  4  6  1  0  0  0  0
  5 15  1  0  0  0  0
  5  7  1  0  0  0  0
  6  9  1  0  0  0  0
  6  2  1  0  0  0  0
  7 17  1  0  0  0  0
  8 12  1  0  0  0  0
  8  4  1  0  0  0  0
  9 15  1  0  0  0  0
 11 19  1  0  0  0  0
 12 14  1  0  0  0  0
 13  9  1  0  0  0  0
 14 11  1  0  0  0  0
 14  2  1  0  0  0  0
 15 28  1  0  0  0  0
 16  4  2  0  0  0  0
 16  1  1  0  0  0  0
 18  1  1  0  0  0  0
 19 17  1  0  0  0  0
 20 21  1  0  0  0  0
 21 30  1  0  0  0  0
 21 23  1  0  0  0  0
 22 23  1  0  0  0  0
 24 22  1  0  0  0  0
 25 24  1  0  0  0  0
 26 24  1  0  0  0  0
 27 22  1  0  0  0  0
 28 26  1  0  0  0  0
 28 20  1  0  0  0  0
 29 30  1  0  0  0  0
 31 32  1  0  0  0  0
 32 17  1  0  0  0  0
 32 33  2  0  0  0  0
 35 36  2  0  0  0  0
 36 33  1  0  0  0  0
 36 34  1  0  0  0  0
 37 31  2  0  0  0  0
 37 35  1  0  0  0  0
M  END
>  <MODEL>
4

>  <REMARK>
 VINA RESULT:       0.6      1.498      1.895
  Name = 
  3 active torsions:
  status: ('A' for Active; 'I' for Inactive)
    1  A    between atoms: N_4  and  C_37
    2  A    between atoms: C_21  and  C_27
    3  A    between atoms: C_23  and  C_30
                            x       y       z     vdW  Elec       q    Type
                         _______ _______ _______ _____ _____    ______ ____

>  <TORSDO>
F 3

$$$$
=
 OpenBabel11122413393D

 37 42  0  0  1  0  0  0  0  0999 V2000
  159.4590  210.7120  154.1210 C   0  0  1  0  0  0  0  0  0  0  0  0
  162.3710  208.5140  151.7800 C   0  0  1  0  0  3  0  0  0  0  0  0
  160.0360  207.2260  150.0810 C   0  0  0  0  0  1  0  0  0  0  0  0
  161.0120  208.7410  153.9840 C   0  0  0  0  0  0  0  0  0  0  0  0
  161.9030  208.9630  150.3750 C   0  0  1  0  0  3  0  0  0  0  0  0
  161.5370  209.3730  152.7280 C   0  0  2  0  0  3  0  0  0  0  0  0
  161.2910  207.8640  149.4830 C   0  0  1  0  0  3  0  0  0  0  0  0
  161.4030  207.3590  154.4210 C   0  0  0  0  0  2  0  0  0  0  0  0
  160.4080  209.8900  151.9770 N   0  0  1  0  0  0  0  0  0  0  0  0
  159.9030  211.8180  155.0560 C   0  0  0  0  0  1  0  0  0  0  0  0
  163.2680  206.1500  151.2880 C   0  0  0  0  0  2  0  0  0  0  0  0
  162.5210  206.7670  153.5650 C   0  0  0  0  0  2  0  0  0  0  0  0
  159.9150  211.0760  152.6830 C   0  0  0  0  0  2  0  0  0  0  0  0
  162.2720  207.0040  152.0800 C   0  0  1  0  0  3  0  0  0  0  0  0
  160.9090  210.1000  150.6160 C   0  0  1  0  0  3  0  0  0  0  0  0
  160.0230  209.3880  154.6240 C   0  0  0  0  0  3  0  0  0  0  0  0
  162.3460  206.8520  148.9850 C   0  0  1  0  0  3  0  0  0  0  0  0
  158.0680  210.6390  154.1440 O   0  0  0  0  0  1  0  0  0  0  0  0
  163.5800  206.6470  149.8740 C   0  0  0  0  0  2  0  0  0  0  0  0
  162.0330  211.7560  148.9490 C   0  0  0  0  0  2  0  0  0  0  0  0
  162.2610  213.1860  148.7580 N   0  0  0  0  0  0  0  0  0  0  0  0
  159.7170  213.2960  148.6390 C   0  0  2  0  0  3  0  0  0  0  0  0
  161.0820  213.8390  148.1690 C   0  0  0  0  0  2  0  0  0  0  0  0
  159.5260  213.1660  150.1610 C   0  0  1  0  0  3  0  0  0  0  0  0
  158.3690  212.4420  150.4530 O   0  0  0  0  0  1  0  0  0  0  0  0
  160.7120  212.6430  150.9850 C   0  0  0  0  0  2  0  0  0  0  0  0
  159.3970  212.1260  147.9700 F   0  0  0  0  0  0  0  0  0  0  0  0
  161.5290  211.4940  150.3730 C   0  0  1  0  0  3  0  0  0  0  0  0
  162.8890  212.7820  146.4460 C   0  0  0  0  0  1  0  0  0  0  0  0
  163.3400  213.3110  147.7930 C   0  0  0  0  0  2  0  0  0  0  0  0
  161.9870  205.3310  146.9930 C   0  0  0  0  0  3  0  0  0  0  0  0
  161.8110  205.5960  148.3610 C   0  0  0  0  0  0  0  0  0  0  0  0
  161.1490  204.6630  149.1650 C   0  0  0  0  0  3  0  0  0  0  0  0
  160.0140  202.5780  149.3930 F   0  0  0  0  0  0  0  0  0  0  0  0
  160.8300  203.2200  147.2460 C   0  0  0  0  0  3  0  0  0  0  0  0
  160.6580  203.4780  148.6090 C   0  0  0  0  0  0  0  0  0  0  0  0
  161.4960  204.1470  146.4380 C   0  0  0  0  0  3  0  0  0  0  0  0
  1 18  1  0  0  0  0
  1 16  1  0  0  0  0
  1 10  1  1  0  0  0
  2 14  1  0  0  0  0
  2  6  1  0  0  0  0
  4  8  1  0  0  0  0
  4 16  2  0  0  0  0
  5 15  1  0  0  0  0
  5  2  1  0  0  0  0
  6  4  1  0  0  0  0
  7  3  1  0  0  0  0
  7  5  1  0  0  0  0
  9 13  1  0  0  0  0
  9  6  1  0  0  0  0
 11 14  1  0  0  0  0
 12  8  1  0  0  0  0
 13  1  1  0  0  0  0
 14 12  1  0  0  0  0
 15  9  1  0  0  0  0
 17  7  1  0  0  0  0
 17 19  1  0  0  0  0
 19 11  1  0  0  0  0
 20 28  1  0  0  0  0
 21 20  1  0  0  0  0
 22 24  1  0  0  0  0
 23 22  1  0  0  0  0
 23 21  1  0  0  0  0
 24 25  1  0  0  0  0
 24 26  1  0  0  0  0
 27 22  1  0  0  0  0
 28 15  1  0  0  0  0
 28 26  1  0  0  0  0
 29 30  1  0  0  0  0
 30 21  1  0  0  0  0
 31 32  1  0  0  0  0
 32 17  1  0  0  0  0
 32 33  2  0  0  0  0
 35 36  2  0  0  0  0
 36 33  1  0  0  0  0
 36 34  1  0  0  0  0
 37 31  2  0  0  0  0
 37 35  1  0  0  0  0
M  END
>  <MODEL>
5

>  <REMARK>
 VINA RESULT:       1.6      3.547      7.765
  Name = 
  3 active torsions:
  status: ('A' for Active; 'I' for Inactive)
    1  A    between atoms: N_4  and  C_37
    2  A    between atoms: C_21  and  C_27
    3  A    between atoms: C_23  and  C_30
                            x       y       z     vdW  Elec       q    Type
                         _______ _______ _______ _____ _____    ______ ____

>  <TORSDO>
F 3

$$$$
