=
 OpenBabel11122414283D

 34 40  0  0  1  0  0  0  0  0999 V2000
  161.4730  208.6670  151.0580 C   0  0  0  0  0  0  0  0  0  0  0  0
  161.7220  210.6340  152.6890 C   0  0  0  0  0  2  0  0  0  0  0  0
  160.1140  202.0940  149.0360 O   0  0  0  0  0  0  0  0  0  0  0  0
  161.6250  206.6500  149.6820 C   0  0  0  0  0  0  0  0  0  0  0  0
  160.8870  204.3740  150.6640 C   0  0  1  0  0  3  0  0  0  0  0  0
  160.9990  201.9470  151.2590 C   0  0  0  0  0  2  0  0  0  0  0  0
  160.9250  201.3190  149.8720 C   0  0  0  0  0  2  0  0  0  0  0  0
  161.8090  203.3360  147.8280 C   0  0  0  0  0  2  0  0  0  0  0  0
  161.4920  208.4350  153.5120 C   0  0  2  0  0  3  0  0  0  0  0  0
  159.4210  207.8840  155.7840 C   0  0  0  0  0  2  0  0  0  0  0  0
  160.2940  205.2310  151.7860 C   0  0  0  0  0  2  0  0  0  0  0  0
  161.1550  204.6630  148.1830 C   0  0  0  0  0  2  0  0  0  0  0  0
  160.7550  207.0990  153.4180 C   0  0  1  0  0  3  0  0  0  0  0  0
  161.6350  210.7280  154.2120 C   0  0  0  0  0  2  0  0  0  0  0  0
  161.6410  205.1370  149.5520 C   0  0  1  0  0  3  0  0  0  0  0  0
  160.7970  202.1900  147.8180 C   0  0  0  0  0  2  0  0  0  0  0  0
  159.9190  209.2860  155.3820 C   0  0  2  0  0  3  0  0  0  0  0  0
  161.4270  207.2550  150.9400 C   0  0  0  0  0  0  0  0  0  0  0  0
  161.7610  203.2650  151.2300 C   0  0  0  0  0  2  0  0  0  0  0  0
  161.2400  206.3630  152.1550 C   0  0  2  0  0  3  0  0  0  0  0  0
  161.9390  208.8490  148.6870 C   0  0  0  0  0  3  0  0  0  0  0  0
  160.5510  206.8720  155.9760 C   0  0  0  0  0  2  0  0  0  0  0  0
  161.9090  207.4580  148.5700 C   0  0  0  0  0  3  0  0  0  0  0  0
  160.9800  206.2220  154.6560 C   0  0  0  0  0  2  0  0  0  0  0  0
  161.3270  209.3220  154.7430 C   0  0  1  0  0  3  0  0  0  0  0  0
  161.7030  209.4510  149.9220 C   0  0  0  0  0  3  0  0  0  0  0  0
  161.0840  209.3050  152.3610 C   0  0  2  0  0  3  0  0  0  0  0  0
  159.8830  210.1940  156.6050 C   0  0  0  0  0  2  0  0  0  0  0  0
  158.8790  211.3160  156.4040 C   0  0  0  0  0  2  0  0  0  0  0  0
  156.0420  212.1530  154.6550 N   0  0  0  0  0  2  0  0  0  0  0  0
  158.1980  212.2980  154.2310 C   0  0  0  0  0  2  0  0  0  0  0  0
  158.0900  211.0940  155.1260 C   0  0  2  0  0  3  0  0  0  0  0  0
  157.0300  213.0560  154.3980 O   0  0  0  0  0  0  0  0  0  0  0  0
  156.6310  211.0860  155.4480 C   0  0  0  0  0  2  0  0  0  0  0  0
  1 27  1  0  0  0  0
  2 14  1  0  0  0  0
  3  7  1  0  0  0  0
  4 18  2  0  0  0  0
  5 19  1  1  0  0  0
  5 11  1  0  0  0  0
  7  6  1  0  0  0  0
  8 12  1  0  0  0  0
  9 25  1  0  0  0  0
 10 22  1  0  0  0  0
 11 20  1  0  0  0  0
 12 15  1  0  0  0  0
 13  9  1  0  0  0  0
 13 24  1  0  0  0  0
 14 25  1  0  0  0  0
 15  4  1  0  0  0  0
 15  5  1  0  0  0  0
 16  8  1  0  0  0  0
 16  3  1  0  0  0  0
 17 10  1  0  0  0  0
 17 28  1  0  0  0  0
 18  1  1  0  0  0  0
 18 20  1  0  0  0  0
 19  6  1  0  0  0  0
 20 13  1  0  0  0  0
 21 26  1  0  0  0  0
 23 21  2  0  0  0  0
 23  4  1  0  0  0  0
 24 22  1  0  0  0  0
 25 17  1  0  0  0  0
 26  1  2  0  0  0  0
 27  2  1  0  0  0  0
 27  9  1  0  0  0  0
 29 28  1  0  0  0  0
 30 34  1  0  0  0  0
 31 33  1  0  0  0  0
 31 32  1  0  0  0  0
 32 34  1  0  0  0  0
 32 29  1  0  0  0  0
 33 30  1  0  0  0  0
M  END
>  <MODEL>
1

>  <REMARK>
 VINA RESULT:      -9.9      0.000      0.000
  Name = 
  3 active torsions:
  status: ('A' for Active; 'I' for Inactive)
    1  A    between atoms: C_17  and  C_28
    2  A    between atoms: C_28  and  C_29
    3  A    between atoms: C_29  and  C_32
                            x       y       z     vdW  Elec       q    Type
                         _______ _______ _______ _____ _____    ______ ____

>  <TORSDO>
F 3

$$$$
=
 OpenBabel11122414283D

 34 40  0  0  1  0  0  0  0  0999 V2000
  161.1890  205.2600  152.2030 C   0  0  0  0  0  0  0  0  0  0  0  0
  160.8980  206.5140  154.4250 C   0  0  0  0  0  2  0  0  0  0  0  0
  162.2620  204.4940  145.3190 O   0  0  0  0  0  0  0  0  0  0  0  0
  161.0470  204.2100  149.9990 C   0  0  0  0  0  0  0  0  0  0  0  0
  161.4780  205.6260  147.8780 C   0  0  1  0  0  3  0  0  0  0  0  0
  161.1030  206.5740  145.5930 C   0  0  0  0  0  2  0  0  0  0  0  0
  161.2960  205.3260  144.7410 C   0  0  0  0  0  2  0  0  0  0  0  0
  160.8300  202.8910  146.4390 C   0  0  0  0  0  2  0  0  0  0  0  0
  160.8520  207.6960  152.3830 C   0  0  2  0  0  3  0  0  0  0  0  0
  162.5800  210.2820  152.0980 C   0  0  0  0  0  2  0  0  0  0  0  0
  161.9950  206.6690  148.8730 C   0  0  0  0  0  2  0  0  0  0  0  0
  161.5380  203.1170  147.7670 C   0  0  0  0  0  2  0  0  0  0  0  0
  161.4870  207.9120  151.0100 C   0  0  1  0  0  3  0  0  0  0  0  0
  160.8060  208.0020  154.7650 C   0  0  0  0  0  2  0  0  0  0  0  0
  160.9280  204.3180  148.4890 C   0  0  1  0  0  3  0  0  0  0  0  0
  161.7420  203.1960  145.2510 C   0  0  0  0  0  2  0  0  0  0  0  0
  162.2470  209.6010  153.4400 C   0  0  2  0  0  3  0  0  0  0  0  0
  161.1370  205.3720  150.7920 C   0  0  0  0  0  0  0  0  0  0  0  0
  160.4560  206.2380  146.9310 C   0  0  0  0  0  2  0  0  0  0  0  0
  161.1040  206.7270  150.1040 C   0  0  2  0  0  3  0  0  0  0  0  0
  161.0310  202.8500  152.0160 C   0  0  0  0  0  3  0  0  0  0  0  0
  161.3590  210.4780  151.1980 C   0  0  0  0  0  2  0  0  0  0  0  0
  160.9650  202.9570  150.6260 C   0  0  0  0  0  3  0  0  0  0  0  0
  161.0450  209.2310  150.3640 C   0  0  0  0  0  2  0  0  0  0  0  0
  160.9350  208.7830  153.4510 C   0  0  1  0  0  3  0  0  0  0  0  0
  161.1610  203.9950  152.8010 C   0  0  0  0  0  3  0  0  0  0  0  0
  161.4650  206.4870  153.0250 C   0  0  2  0  0  3  0  0  0  0  0  0
  162.2050  210.6610  154.5340 C   0  0  0  0  0  2  0  0  0  0  0  0
  160.9120  211.4550  154.4540 C   0  0  0  0  0  2  0  0  0  0  0  0
  158.7430  211.2090  157.1080 N   0  0  0  0  0  2  0  0  0  0  0  0
  160.9270  211.0220  156.8970 C   0  0  0  0  0  2  0  0  0  0  0  0
  160.5460  212.0030  155.8220 C   0  0  2  0  0  3  0  0  0  0  0  0
  159.7670  210.3230  157.2610 O   0  0  0  0  0  0  0  0  0  0  0  0
  159.0580  212.0350  155.9530 C   0  0  0  0  0  2  0  0  0  0  0  0
  1 26  1  0  0  0  0
  1 27  1  0  0  0  0
  2 14  1  0  0  0  0
  4 23  2  0  0  0  0
  4 18  1  0  0  0  0
  5 19  1  1  0  0  0
  5 15  1  0  0  0  0
  5 11  1  0  0  0  0
  6 19  1  0  0  0  0
  7  3  1  0  0  0  0
  7  6  1  0  0  0  0
  8 12  1  0  0  0  0
  9 27  1  0  0  0  0
  9 25  1  0  0  0  0
 10 17  1  0  0  0  0
 11 20  1  0  0  0  0
 12 15  1  0  0  0  0
 13  9  1  0  0  0  0
 15  4  1  0  0  0  0
 16  3  1  0  0  0  0
 16  8  1  0  0  0  0
 17 25  1  0  0  0  0
 17 28  1  0  0  0  0
 18  1  2  0  0  0  0
 20 18  1  0  0  0  0
 20 13  1  0  0  0  0
 21 26  2  0  0  0  0
 22 10  1  0  0  0  0
 23 21  1  0  0  0  0
 24 13  1  0  0  0  0
 24 22  1  0  0  0  0
 25 14  1  0  0  0  0
 27  2  1  0  0  0  0
 29 28  1  0  0  0  0
 29 32  1  0  0  0  0
 30 33  1  0  0  0  0
 31 33  1  0  0  0  0
 32 34  1  0  0  0  0
 32 31  1  0  0  0  0
 34 30  1  0  0  0  0
M  END
>  <MODEL>
2

>  <REMARK>
 VINA RESULT:      -9.5      1.940      4.078
  Name = 
  3 active torsions:
  status: ('A' for Active; 'I' for Inactive)
    1  A    between atoms: C_17  and  C_28
    2  A    between atoms: C_28  and  C_29
    3  A    between atoms: C_29  and  C_32
                            x       y       z     vdW  Elec       q    Type
                         _______ _______ _______ _____ _____    ______ ____

>  <TORSDO>
F 3

$$$$
=
 OpenBabel11122414283D

 34 40  0  0  1  0  0  0  0  0999 V2000
  161.6330  207.4060  150.0280 C   0  0  0  0  0  0  0  0  0  0  0  0
  161.2960  205.7610  148.0860 C   0  0  0  0  0  2  0  0  0  0  0  0
  162.0540  209.5130  156.7000 O   0  0  0  0  0  0  0  0  0  0  0  0
  161.5040  208.9500  151.9210 C   0  0  0  0  0  0  0  0  0  0  0  0
  161.3150  208.0120  154.3240 C   0  0  1  0  0  3  0  0  0  0  0  0
  160.4490  207.7340  156.6550 C   0  0  0  0  0  2  0  0  0  0  0  0
  160.8500  209.0740  157.2600 C   0  0  0  0  0  2  0  0  0  0  0  0
  161.2130  211.0830  155.0550 C   0  0  0  0  0  2  0  0  0  0  0  0
  160.7170  205.1320  150.2850 C   0  0  2  0  0  3  0  0  0  0  0  0
  161.6910  202.3710  151.3710 C   0  0  0  0  0  2  0  0  0  0  0  0
  161.6650  206.6780  153.6600 C   0  0  0  0  0  2  0  0  0  0  0  0
  161.9920  210.4010  153.9390 C   0  0  0  0  0  2  0  0  0  0  0  0
  161.1130  205.1110  151.7610 C   0  0  1  0  0  3  0  0  0  0  0  0
  160.8730  204.2930  148.0400 C   0  0  0  0  0  2  0  0  0  0  0  0
  161.1870  209.2290  153.3800 C   0  0  1  0  0  3  0  0  0  0  0  0
  161.8740  210.8730  156.4180 C   0  0  0  0  0  2  0  0  0  0  0  0
  161.6990  202.7730  149.8830 C   0  0  2  0  0  3  0  0  0  0  0  0
  161.3910  207.6430  151.4040 C   0  0  0  0  0  0  0  0  0  0  0  0
  160.0680  207.8800  155.1870 C   0  0  0  0  0  2  0  0  0  0  0  0
  160.9370  206.5300  152.3330 C   0  0  2  0  0  3  0  0  0  0  0  0
  162.0680  209.7670  149.6990 C   0  0  0  0  0  3  0  0  0  0  0  0
  160.3650  202.6650  152.0710 C   0  0  0  0  0  2  0  0  0  0  0  0
  161.8150  210.0060  151.0510 C   0  0  0  0  0  3  0  0  0  0  0  0
  160.2800  204.1110  152.5730 C   0  0  0  0  0  2  0  0  0  0  0  0
  160.6470  203.8340  149.4860 C   0  0  1  0  0  3  0  0  0  0  0  0
  161.9950  208.4700  149.1930 C   0  0  0  0  0  3  0  0  0  0  0  0
  161.6850  205.9910  149.5280 C   0  0  2  0  0  3  0  0  0  0  0  0
  161.5200  201.5220  149.0320 C   0  0  0  0  0  2  0  0  0  0  0  0
  160.5970  201.8060  147.8590 C   0  0  0  0  0  2  0  0  0  0  0  0
  160.5080  199.7370  145.1170 N   0  0  0  0  0  2  0  0  0  0  0  0
  160.4620  201.9220  145.3850 C   0  0  0  0  0  2  0  0  0  0  0  0
  161.2760  201.4350  146.5530 C   0  0  2  0  0  3  0  0  0  0  0  0
  159.7270  200.8320  144.8990 O   0  0  0  0  0  0  0  0  0  0  0  0
  161.2100  199.9540  146.3710 C   0  0  0  0  0  2  0  0  0  0  0  0
  1 18  1  0  0  0  0
  2 27  1  0  0  0  0
  3  7  1  0  0  0  0
  4 15  1  0  0  0  0
  5 11  1  6  0  0  0
  5 19  1  0  0  0  0
  6  7  1  0  0  0  0
  8 16  1  0  0  0  0
  9 13  1  0  0  0  0
 10 22  1  0  0  0  0
 12  8  1  0  0  0  0
 13 20  1  0  0  0  0
 13 24  1  0  0  0  0
 14  2  1  0  0  0  0
 14 25  1  0  0  0  0
 15 12  1  0  0  0  0
 15  5  1  0  0  0  0
 16  3  1  0  0  0  0
 17 10  1  0  0  0  0
 18  4  2  0  0  0  0
 18 20  1  0  0  0  0
 19  6  1  0  0  0  0
 20 11  1  0  0  0  0
 21 23  2  0  0  0  0
 22 24  1  0  0  0  0
 23  4  1  0  0  0  0
 25 17  1  0  0  0  0
 25  9  1  0  0  0  0
 26 21  1  0  0  0  0
 26  1  2  0  0  0  0
 27  1  1  0  0  0  0
 27  9  1  0  0  0  0
 28 17  1  0  0  0  0
 29 28  1  0  0  0  0
 30 34  1  0  0  0  0
 31 32  1  0  0  0  0
 32 29  1  0  0  0  0
 33 30  1  0  0  0  0
 33 31  1  0  0  0  0
 34 32  1  0  0  0  0
M  END
>  <MODEL>
3

>  <REMARK>
 VINA RESULT:      -8.6      3.438      8.701
  Name = 
  3 active torsions:
  status: ('A' for Active; 'I' for Inactive)
    1  A    between atoms: C_17  and  C_28
    2  A    between atoms: C_28  and  C_29
    3  A    between atoms: C_29  and  C_32
                            x       y       z     vdW  Elec       q    Type
                         _______ _______ _______ _____ _____    ______ ____

>  <TORSDO>
F 3

$$$$
=
 OpenBabel11122414283D

 34 40  0  0  1  0  0  0  0  0999 V2000
  160.6760  207.2930  154.1830 C   0  0  0  0  0  0  0  0  0  0  0  0
  161.7490  205.1050  153.3730 C   0  0  0  0  0  2  0  0  0  0  0  0
  157.9660  213.7350  153.6470 O   0  0  0  0  0  0  0  0  0  0  0  0
  160.0670  209.5530  154.8930 C   0  0  0  0  0  0  0  0  0  0  0  0
  159.5460  211.3560  153.1130 C   0  0  1  0  0  3  0  0  0  0  0  0
  159.6340  213.5610  151.9360 C   0  0  0  0  0  2  0  0  0  0  0  0
  158.9560  214.4530  152.9690 C   0  0  0  0  0  2  0  0  0  0  0  0
  159.1650  213.1630  155.6750 C   0  0  0  0  0  2  0  0  0  0  0  0
  161.6370  206.9730  151.9350 C   0  0  2  0  0  3  0  0  0  0  0  0
  160.5850  206.5730  149.0220 C   0  0  0  0  0  2  0  0  0  0  0  0
  159.5350  210.1690  152.1460 C   0  0  0  0  0  2  0  0  0  0  0  0
  158.8430  211.6850  155.5030 C   0  0  0  0  0  2  0  0  0  0  0  0
  160.7900  208.1180  151.3810 C   0  0  1  0  0  3  0  0  0  0  0  0
  162.2790  204.6590  152.0100 C   0  0  0  0  0  2  0  0  0  0  0  0
  159.8750  211.0280  154.5870 C   0  0  1  0  0  3  0  0  0  0  0  0
  158.1190  214.0530  155.0020 C   0  0  0  0  0  2  0  0  0  0  0  0
  161.0250  205.4260  149.9530 C   0  0  2  0  0  3  0  0  0  0  0  0
  160.4440  208.6560  153.8730 C   0  0  0  0  0  0  0  0  0  0  0  0
  160.4550  212.4650  152.6030 C   0  0  0  0  0  2  0  0  0  0  0  0
  160.6600  209.1990  152.4700 C   0  0  2  0  0  3  0  0  0  0  0  0
  160.1870  207.7410  156.5130 C   0  0  0  0  0  3  0  0  0  0  0  0
  161.5890  207.7250  148.9640 C   0  0  0  0  0  2  0  0  0  0  0  0
  159.9710  209.0870  156.2140 C   0  0  0  0  0  3  0  0  0  0  0  0
  161.3940  208.7250  150.1080 C   0  0  0  0  0  2  0  0  0  0  0  0
  162.0620  205.8200  151.0300 C   0  0  1  0  0  3  0  0  0  0  0  0
  160.5200  206.8440  155.4990 C   0  0  0  0  0  3  0  0  0  0  0  0
  160.9000  206.3160  153.0640 C   0  0  2  0  0  3  0  0  0  0  0  0
  161.5670  204.2820  149.1070 C   0  0  0  0  0  2  0  0  0  0  0  0
  160.8520  204.2290  147.7670 C   0  0  0  0  0  2  0  0  0  0  0  0
  161.6660  204.8560  144.4880 N   0  0  0  0  0  2  0  0  0  0  0  0
  162.7050  205.1600  146.4050 C   0  0  0  0  0  2  0  0  0  0  0  0
  161.8440  203.9500  146.6520 C   0  0  2  0  0  3  0  0  0  0  0  0
  162.1830  205.8290  145.2900 O   0  0  0  0  0  0  0  0  0  0  0  0
  161.1050  203.8360  145.3580 C   0  0  0  0  0  2  0  0  0  0  0  0
  1 26  1  0  0  0  0
  3 16  1  0  0  0  0
  4 23  2  0  0  0  0
  5 11  1  6  0  0  0
  5 15  1  0  0  0  0
  6 19  1  0  0  0  0
  6  7  1  0  0  0  0
  7  3  1  0  0  0  0
  9 27  1  0  0  0  0
 10 17  1  0  0  0  0
 11 20  1  0  0  0  0
 12  8  1  0  0  0  0
 13  9  1  0  0  0  0
 13 20  1  0  0  0  0
 14  2  1  0  0  0  0
 15  4  1  0  0  0  0
 15 12  1  0  0  0  0
 16  8  1  0  0  0  0
 17 25  1  0  0  0  0
 18  1  2  0  0  0  0
 18  4  1  0  0  0  0
 19  5  1  0  0  0  0
 20 18  1  0  0  0  0
 22 10  1  0  0  0  0
 22 24  1  0  0  0  0
 23 21  1  0  0  0  0
 24 13  1  0  0  0  0
 25  9  1  0  0  0  0
 25 14  1  0  0  0  0
 26 21  2  0  0  0  0
 27  2  1  0  0  0  0
 27  1  1  0  0  0  0
 28 17  1  0  0  0  0
 29 28  1  0  0  0  0
 30 33  1  0  0  0  0
 30 34  1  0  0  0  0
 31 32  1  0  0  0  0
 32 29  1  0  0  0  0
 33 31  1  0  0  0  0
 34 32  1  0  0  0  0
M  END
>  <MODEL>
4

>  <REMARK>
 VINA RESULT:      -8.2      2.951      8.975
  Name = 
  3 active torsions:
  status: ('A' for Active; 'I' for Inactive)
    1  A    between atoms: C_17  and  C_28
    2  A    between atoms: C_28  and  C_29
    3  A    between atoms: C_29  and  C_32
                            x       y       z     vdW  Elec       q    Type
                         _______ _______ _______ _____ _____    ______ ____

>  <TORSDO>
F 3

$$$$
=
 OpenBabel11122414283D

 34 40  0  0  1  0  0  0  0  0999 V2000
  160.8000  207.5170  154.0710 C   0  0  0  0  0  0  0  0  0  0  0  0
  162.2630  205.7610  152.9020 C   0  0  0  0  0  2  0  0  0  0  0  0
  157.1480  213.4620  154.7400 O   0  0  0  0  0  0  0  0  0  0  0  0
  159.7880  209.4300  155.2120 C   0  0  0  0  0  0  0  0  0  0  0  0
  159.1220  211.5250  153.8490 C   0  0  1  0  0  3  0  0  0  0  0  0
  158.9460  213.9420  153.2290 C   0  0  0  0  0  2  0  0  0  0  0  0
  158.0590  214.4530  154.3590 C   0  0  0  0  0  2  0  0  0  0  0  0
  158.2680  212.5810  156.7000 C   0  0  0  0  0  2  0  0  0  0  0  0
  161.9640  207.8900  151.9310 C   0  0  2  0  0  3  0  0  0  0  0  0
  161.2090  208.0760  148.9060 C   0  0  0  0  0  2  0  0  0  0  0  0
  159.3710  210.6210  152.6390 C   0  0  0  0  0  2  0  0  0  0  0  0
  158.1990  211.1610  156.1580 C   0  0  0  0  0  2  0  0  0  0  0  0
  160.9900  209.0100  151.5660 C   0  0  1  0  0  3  0  0  0  0  0  0
  162.9580  205.7390  151.5400 C   0  0  0  0  0  2  0  0  0  0  0  0
  159.3870  210.8940  155.2350 C   0  0  1  0  0  3  0  0  0  0  0  0
  157.1480  213.4570  156.1400 C   0  0  0  0  0  2  0  0  0  0  0  0
  161.7550  206.8070  149.5900 C   0  0  2  0  0  3  0  0  0  0  0  0
  160.3770  208.8700  154.0600 C   0  0  0  0  0  0  0  0  0  0  0  0
  159.8780  212.8380  153.7120 C   0  0  0  0  0  2  0  0  0  0  0  0
  160.6090  209.7640  152.8530 C   0  0  2  0  0  3  0  0  0  0  0  0
  160.0730  207.3100  156.3730 C   0  0  0  0  0  3  0  0  0  0  0  0
  162.0190  209.3330  149.2260 C   0  0  0  0  0  2  0  0  0  0  0  0
  159.6690  208.6470  156.3700 C   0  0  0  0  0  3  0  0  0  0  0  0
  161.5830  209.9860  150.5420 C   0  0  0  0  0  2  0  0  0  0  0  0
  162.6330  207.0630  150.8370 C   0  0  1  0  0  3  0  0  0  0  0  0
  160.6190  206.7430  155.2230 C   0  0  0  0  0  3  0  0  0  0  0  0
  161.2590  206.8840  152.7890 C   0  0  2  0  0  3  0  0  0  0  0  0
  162.5330  205.9900  148.5680 C   0  0  0  0  0  2  0  0  0  0  0  0
  161.6190  204.9890  147.8810 C   0  0  0  0  0  2  0  0  0  0  0  0
  160.8840  204.3380  144.5890 N   0  0  0  0  0  2  0  0  0  0  0  0
  162.1980  205.7840  145.6040 C   0  0  0  0  0  2  0  0  0  0  0  0
  162.1880  204.5980  146.5290 C   0  0  2  0  0  3  0  0  0  0  0  0
  161.0790  205.6750  144.7660 O   0  0  0  0  0  0  0  0  0  0  0  0
  161.2270  203.6840  145.8410 C   0  0  0  0  0  2  0  0  0  0  0  0
  1 26  1  0  0  0  0
  3 16  1  0  0  0  0
  4 15  1  0  0  0  0
  4 23  2  0  0  0  0
  5 11  1  6  0  0  0
  5 15  1  0  0  0  0
  6 19  1  0  0  0  0
  6  7  1  0  0  0  0
  7  3  1  0  0  0  0
  9 27  1  0  0  0  0
 10 22  1  0  0  0  0
 10 17  1  0  0  0  0
 11 20  1  0  0  0  0
 12  8  1  0  0  0  0
 13  9  1  0  0  0  0
 13 20  1  0  0  0  0
 14  2  1  0  0  0  0
 15 12  1  0  0  0  0
 16  8  1  0  0  0  0
 17 25  1  0  0  0  0
 18  1  2  0  0  0  0
 18  4  1  0  0  0  0
 19  5  1  0  0  0  0
 20 18  1  0  0  0  0
 22 24  1  0  0  0  0
 23 21  1  0  0  0  0
 24 13  1  0  0  0  0
 25 14  1  0  0  0  0
 25  9  1  0  0  0  0
 26 21  2  0  0  0  0
 27  2  1  0  0  0  0
 27  1  1  0  0  0  0
 28 17  1  0  0  0  0
 29 28  1  0  0  0  0
 30 33  1  0  0  0  0
 30 34  1  0  0  0  0
 31 32  1  0  0  0  0
 32 29  1  0  0  0  0
 33 31  1  0  0  0  0
 34 32  1  0  0  0  0
M  END
>  <MODEL>
5

>  <REMARK>
 VINA RESULT:      -8.0      3.029      9.085
  Name = 
  3 active torsions:
  status: ('A' for Active; 'I' for Inactive)
    1  A    between atoms: C_17  and  C_28
    2  A    between atoms: C_28  and  C_29
    3  A    between atoms: C_29  and  C_32
                            x       y       z     vdW  Elec       q    Type
                         _______ _______ _______ _____ _____    ______ ____

>  <TORSDO>
F 3

$$$$
=
 OpenBabel11122414283D

 34 40  0  0  1  0  0  0  0  0999 V2000
  160.7230  207.3770  154.2090 C   0  0  0  0  0  0  0  0  0  0  0  0
  162.0500  205.5020  153.0620 C   0  0  0  0  0  2  0  0  0  0  0  0
  157.4070  213.5270  154.7630 O   0  0  0  0  0  0  0  0  0  0  0  0
  159.8540  209.3830  155.3060 C   0  0  0  0  0  0  0  0  0  0  0  0
  159.2430  211.4550  153.8820 C   0  0  1  0  0  3  0  0  0  0  0  0
  159.1670  213.8520  153.1700 C   0  0  0  0  0  2  0  0  0  0  0  0
  158.3520  214.4530  154.3080 C   0  0  0  0  0  2  0  0  0  0  0  0
  158.5550  212.6670  156.7160 C   0  0  0  0  0  2  0  0  0  0  0  0
  161.8220  207.6040  152.0140 C   0  0  2  0  0  3  0  0  0  0  0  0
  160.9620  207.7090  149.0140 C   0  0  0  0  0  2  0  0  0  0  0  0
  159.4000  210.4920  152.7020 C   0  0  0  0  0  2  0  0  0  0  0  0
  158.3930  211.2310  156.2360 C   0  0  0  0  0  2  0  0  0  0  0  0
  160.8930  208.7580  151.6390 C   0  0  1  0  0  3  0  0  0  0  0  0
  162.6890  205.3900  151.6780 C   0  0  0  0  0  2  0  0  0  0  0  0
  159.5300  210.8670  155.2820 C   0  0  1  0  0  3  0  0  0  0  0  0
  157.4590  213.5770  156.1610 C   0  0  0  0  0  2  0  0  0  0  0  0
  161.4690  206.4420  149.7300 C   0  0  2  0  0  3  0  0  0  0  0  0
  160.3700  208.7480  154.1570 C   0  0  0  0  0  0  0  0  0  0  0  0
  160.0600  212.7210  153.6640 C   0  0  0  0  0  2  0  0  0  0  0  0
  160.6000  209.5810  152.9070 C   0  0  2  0  0  3  0  0  0  0  0  0
  160.0750  207.3000  156.5430 C   0  0  0  0  0  3  0  0  0  0  0  0
  161.8460  208.9340  149.2520 C   0  0  0  0  0  2  0  0  0  0  0  0
  159.7400  208.6540  156.4990 C   0  0  0  0  0  3  0  0  0  0  0  0
  161.4950  209.6610  150.5550 C   0  0  0  0  0  2  0  0  0  0  0  0
  162.4060  206.7000  150.9320 C   0  0  1  0  0  3  0  0  0  0  0  0
  160.5470  206.6590  155.3980 C   0  0  0  0  0  3  0  0  0  0  0  0
  161.0990  206.6700  152.9380 C   0  0  2  0  0  3  0  0  0  0  0  0
  162.1650  205.5450  148.7150 C   0  0  0  0  0  2  0  0  0  0  0  0
  161.1970  204.5060  148.1730 C   0  0  0  0  0  2  0  0  0  0  0  0
  159.8590  201.6300  149.4920 N   0  0  0  0  0  2  0  0  0  0  0  0
  161.1660  202.0590  147.7730 C   0  0  0  0  0  2  0  0  0  0  0  0
  161.5070  203.1410  148.7610 C   0  0  2  0  0  3  0  0  0  0  0  0
  159.9170  201.5360  148.1330 O   0  0  0  0  0  0  0  0  0  0  0  0
  160.5440  202.8560  149.8670 C   0  0  0  0  0  2  0  0  0  0  0  0
  1 26  1  0  0  0  0
  3 16  1  0  0  0  0
  4 23  2  0  0  0  0
  5 11  1  6  0  0  0
  5 15  1  0  0  0  0
  6 19  1  0  0  0  0
  6  7  1  0  0  0  0
  7  3  1  0  0  0  0
  9 27  1  0  0  0  0
 10 22  1  0  0  0  0
 10 17  1  0  0  0  0
 11 20  1  0  0  0  0
 12  8  1  0  0  0  0
 13  9  1  0  0  0  0
 13 20  1  0  0  0  0
 14  2  1  0  0  0  0
 15  4  1  0  0  0  0
 15 12  1  0  0  0  0
 16  8  1  0  0  0  0
 17 25  1  0  0  0  0
 18  1  2  0  0  0  0
 18  4  1  0  0  0  0
 19  5  1  0  0  0  0
 20 18  1  0  0  0  0
 22 24  1  0  0  0  0
 23 21  1  0  0  0  0
 24 13  1  0  0  0  0
 25 14  1  0  0  0  0
 25  9  1  0  0  0  0
 26 21  2  0  0  0  0
 27  2  1  0  0  0  0
 27  1  1  0  0  0  0
 28 17  1  0  0  0  0
 29 28  1  0  0  0  0
 29 32  1  0  0  0  0
 30 34  1  0  0  0  0
 31 33  1  0  0  0  0
 31 32  1  0  0  0  0
 32 34  1  0  0  0  0
 33 30  1  0  0  0  0
M  END
>  <MODEL>
6

>  <REMARK>
 VINA RESULT:      -7.9      2.453      8.969
  Name = 
  3 active torsions:
  status: ('A' for Active; 'I' for Inactive)
    1  A    between atoms: C_17  and  C_28
    2  A    between atoms: C_28  and  C_29
    3  A    between atoms: C_29  and  C_32
                            x       y       z     vdW  Elec       q    Type
                         _______ _______ _______ _____ _____    ______ ____

>  <TORSDO>
F 3

$$$$
=
 OpenBabel11122414283D

 34 40  0  0  1  0  0  0  0  0999 V2000
  161.6120  207.8890  149.4450 C   0  0  0  0  0  0  0  0  0  0  0  0
  162.0690  209.8830  150.9970 C   0  0  0  0  0  2  0  0  0  0  0  0
  159.9880  201.2910  147.7270 O   0  0  0  0  0  0  0  0  0  0  0  0
  161.5860  205.8480  148.0990 C   0  0  0  0  0  0  0  0  0  0  0  0
  160.9650  203.5940  149.2050 C   0  0  1  0  0  3  0  0  0  0  0  0
  161.1400  201.1760  149.8260 C   0  0  0  0  0  2  0  0  0  0  0  0
  160.8930  200.5240  148.4710 C   0  0  0  0  0  2  0  0  0  0  0  0
  161.5270  202.5000  146.2970 C   0  0  0  0  0  2  0  0  0  0  0  0
  161.9330  207.7000  151.8820 C   0  0  2  0  0  3  0  0  0  0  0  0
  160.1560  207.2030  154.4020 C   0  0  0  0  0  2  0  0  0  0  0  0
  160.5180  204.4740  150.3760 C   0  0  0  0  0  2  0  0  0  0  0  0
  160.9260  203.8380  146.7050 C   0  0  0  0  0  2  0  0  0  0  0  0
  161.1850  206.3680  151.9050 C   0  0  1  0  0  3  0  0  0  0  0  0
  162.1700  210.0050  152.5180 C   0  0  0  0  0  2  0  0  0  0  0  0
  161.5790  204.3330  147.9950 C   0  0  1  0  0  3  0  0  0  0  0  0
  160.5160  201.3600  146.4320 C   0  0  0  0  0  2  0  0  0  0  0  0
  160.6060  208.5940  153.9160 C   0  0  2  0  0  3  0  0  0  0  0  0
  161.5470  206.4760  149.3600 C   0  0  0  0  0  0  0  0  0  0  0  0
  161.8980  202.4890  149.6800 C   0  0  0  0  0  2  0  0  0  0  0  0
  161.5070  205.6060  150.6050 C   0  0  2  0  0  3  0  0  0  0  0  0
  161.7830  208.0260  147.0320 C   0  0  0  0  0  3  0  0  0  0  0  0
  161.2970  206.1870  154.4720 C   0  0  0  0  0  2  0  0  0  0  0  0
  161.7330  206.6330  146.9460 C   0  0  0  0  0  3  0  0  0  0  0  0
  161.5570  205.5110  153.1210 C   0  0  0  0  0  2  0  0  0  0  0  0
  161.9240  208.6100  153.1080 C   0  0  1  0  0  3  0  0  0  0  0  0
  161.7040  208.6520  148.2750 C   0  0  0  0  0  3  0  0  0  0  0  0
  161.3890  208.5520  150.7750 C   0  0  2  0  0  3  0  0  0  0  0  0
  160.7250  209.5230  155.1170 C   0  0  0  0  0  2  0  0  0  0  0  0
  159.3760  209.6880  155.7960 C   0  0  0  0  0  2  0  0  0  0  0  0
  159.4310  212.8020  157.2480 N   0  0  0  0  0  2  0  0  0  0  0  0
  160.0430  212.0210  155.2820 C   0  0  0  0  0  2  0  0  0  0  0  0
  158.9020  211.1260  155.6840 C   0  0  2  0  0  3  0  0  0  0  0  0
  160.5190  212.6440  156.4440 O   0  0  0  0  0  0  0  0  0  0  0  0
  158.5780  211.6420  157.0480 C   0  0  0  0  0  2  0  0  0  0  0  0
  1 27  1  0  0  0  0
  2 14  1  0  0  0  0
  3  7  1  0  0  0  0
  4 18  2  0  0  0  0
  5 19  1  1  0  0  0
  5 11  1  0  0  0  0
  7  6  1  0  0  0  0
  8 16  1  0  0  0  0
  8 12  1  0  0  0  0
  9 13  1  0  0  0  0
  9 25  1  0  0  0  0
 10 22  1  0  0  0  0
 11 20  1  0  0  0  0
 12 15  1  0  0  0  0
 13 24  1  0  0  0  0
 14 25  1  0  0  0  0
 15  4  1  0  0  0  0
 15  5  1  0  0  0  0
 16  3  1  0  0  0  0
 17 10  1  0  0  0  0
 17 28  1  0  0  0  0
 18  1  1  0  0  0  0
 18 20  1  0  0  0  0
 19  6  1  0  0  0  0
 20 13  1  0  0  0  0
 21 26  1  0  0  0  0
 23 21  2  0  0  0  0
 23  4  1  0  0  0  0
 24 22  1  0  0  0  0
 25 17  1  0  0  0  0
 26  1  2  0  0  0  0
 27  2  1  0  0  0  0
 27  9  1  0  0  0  0
 28 29  1  0  0  0  0
 31 32  1  0  0  0  0
 31 33  1  0  0  0  0
 32 29  1  0  0  0  0
 32 34  1  0  0  0  0
 33 30  1  0  0  0  0
 34 30  1  0  0  0  0
M  END
>  <MODEL>
7

>  <REMARK>
 VINA RESULT:      -7.4      1.548      2.010
  Name = 
  3 active torsions:
  status: ('A' for Active; 'I' for Inactive)
    1  A    between atoms: C_17  and  C_28
    2  A    between atoms: C_28  and  C_29
    3  A    between atoms: C_29  and  C_32
                            x       y       z     vdW  Elec       q    Type
                         _______ _______ _______ _____ _____    ______ ____

>  <TORSDO>
F 3

$$$$
