=
 OpenBabel11122412523D

 32 38  0  0  1  0  0  0  0  0999 V2000
  161.5000  201.8170  149.6300 C   0  0  1  0  0  3  0  0  0  0  0  0
  161.0920  206.4740  152.0880 C   0  0  1  0  0  3  0  0  0  0  0  0
  162.3220  209.5110  148.6050 C   0  0  0  0  0  3  0  0  0  0  0  0
  162.1340  210.6770  149.4880 C   0  0  0  0  0  3  0  0  0  0  0  0
  160.8840  207.2980  154.3940 C   0  0  0  0  0  0  0  0  0  0  0  0
  160.9720  208.3970  155.2350 C   0  0  0  0  0  0  0  0  0  0  0  0
  160.7150  204.0540  151.4930 C   0  0  1  0  0  3  0  0  0  0  0  0
  161.1060  205.6760  149.6740 C   0  0  0  0  0  2  0  0  0  0  0  0
  161.2160  210.4870  155.8990 C   0  0  0  0  0  0  0  0  0  0  0  0
  161.3830  203.2510  149.1160 C   0  0  2  0  0  3  0  0  0  0  0  0
  161.8920  208.3320  148.9530 N   0  0  0  0  0  0  0  0  0  0  0  0
  161.2630  206.7420  150.6710 N   0  0  1  0  0  0  0  0  0  0  0  0
  161.0960  208.1040  150.1680 C   0  0  1  0  0  3  0  0  0  0  0  0
  161.2520  208.8630  152.5240 C   0  0  0  0  0  0  0  0  0  0  0  0
  160.9810  209.6640  157.0420 N   0  0  0  0  0  0  0  0  0  0  0  0
  161.7310  201.7210  151.1540 C   0  0  0  0  0  2  0  0  0  0  0  0
  161.5170  204.3200  150.2180 C   0  0  2  0  0  3  0  0  0  0  0  0
  160.8390  208.4520  156.6570 N   0  0  0  0  0  0  0  0  0  0  0  0
  160.8430  202.6220  152.0200 C   0  0  0  0  0  2  0  0  0  0  0  0
  160.1390  202.3770  149.2380 C   0  0  1  0  0  3  0  0  0  0  0  0
  161.7010  210.5030  150.7380 C   0  0  0  0  0  3  0  0  0  0  0  0
  161.3820  209.1420  151.2180 C   0  0  2  0  0  3  0  0  0  0  0  0
  161.3400  209.8920  153.4260 N   0  0  0  0  0  0  0  0  0  0  0  0
  161.1500  205.0380  152.5610 C   0  0  0  0  0  2  0  0  0  0  0  0
  160.6210  206.0530  154.9560 O   0  0  0  0  0  1  0  0  0  0  0  0
  161.3960  211.7320  155.9270 O   0  0  0  0  0  0  0  0  0  0  0  0
  161.0560  207.5060  152.9840 C   0  0  0  0  0  0  0  0  0  0  0  0
  161.2070  209.6330  154.7430 C   0  0  0  0  0  0  0  0  0  0  0  0
  159.7750  201.8790  147.9230 N   0  0  0  0  0  2  0  0  0  0  0  0
  161.0060  201.6990  147.1710 C   0  0  0  0  0  3  0  0  0  0  0  0
  160.8840  202.3960  145.8330 C   0  0  0  0  0  1  0  0  0  0  0  0
  161.2570  200.2210  146.9430 C   0  0  0  0  0  1  0  0  0  0  0  0
  1 16  1  1  0  0  0
  2 24  1  1  0  0  0
  2 27  1  0  0  0  0
  3 11  2  0  0  0  0
  3  4  1  0  0  0  0
  4 21  2  0  0  0  0
  5 25  1  0  0  0  0
  5  6  1  0  0  0  0
  6 18  1  0  0  0  0
  7 19  1  1  0  0  0
  7 24  1  0  0  0  0
  8 17  1  0  0  0  0
  8 12  1  0  0  0  0
  9 26  2  0  0  0  0
  9 15  1  0  0  0  0
 10 20  1  0  0  0  0
 10  1  1  0  0  0  0
 10 17  1  0  0  0  0
 11 13  1  0  0  0  0
 12  2  1  0  0  0  0
 13 12  1  0  0  0  0
 13 22  1  0  0  0  0
 14 27  1  0  0  0  0
 14 23  2  0  0  0  0
 16 19  1  0  0  0  0
 17  7  1  0  0  0  0
 18 15  2  0  0  0  0
 20  1  1  0  0  0  0
 21 22  1  0  0  0  0
 22 14  1  0  0  0  0
 23 28  1  0  0  0  0
 27  5  2  0  0  0  0
 28  6  2  0  0  0  0
 28  9  1  0  0  0  0
 29 20  1  0  0  0  0
 30 29  1  0  0  0  0
 31 30  1  0  0  0  0
 32 30  1  0  0  0  0
M  END
>  <MODEL>
1

>  <REMARK>
 VINA RESULT:      -8.9      0.000      0.000
  Name = 
  2 active torsions:
  status: ('A' for Active; 'I' for Inactive)
    1  A    between atoms: C_20  and  N_29
    2  A    between atoms: N_29  and  C_30
                            x       y       z     vdW  Elec       q    Type
                         _______ _______ _______ _____ _____    ______ ____

>  <TORSDO>
F 2

$$$$
=
 OpenBabel11122412523D

 32 38  0  0  1  0  0  0  0  0999 V2000
  161.7080  209.7660  154.4100 C   0  0  1  0  0  3  0  0  0  0  0  0
  161.0770  206.5700  150.2540 C   0  0  1  0  0  3  0  0  0  0  0  0
  161.2800  202.2600  152.3150 C   0  0  0  0  0  3  0  0  0  0  0  0
  161.0820  201.5780  151.0230 C   0  0  0  0  0  3  0  0  0  0  0  0
  161.1440  206.7420  147.8030 C   0  0  0  0  0  0  0  0  0  0  0  0
  161.2180  206.0520  146.6030 C   0  0  0  0  0  0  0  0  0  0  0  0
  160.9430  208.6040  151.7350 C   0  0  1  0  0  3  0  0  0  0  0  0
  160.7990  206.3690  152.7730 C   0  0  0  0  0  2  0  0  0  0  0  0
  161.2790  204.3670  145.1790 C   0  0  0  0  0  0  0  0  0  0  0  0
  161.3110  208.2960  154.2870 C   0  0  2  0  0  3  0  0  0  0  0  0
  161.0810  203.5410  152.4330 N   0  0  0  0  0  0  0  0  0  0  0  0
  160.9720  205.7540  151.4510 N   0  0  1  0  0  0  0  0  0  0  0  0
  160.5370  204.3630  151.3420 C   0  0  1  0  0  3  0  0  0  0  0  0
  160.9760  204.5440  148.9080 C   0  0  0  0  0  0  0  0  0  0  0  0
  161.3530  205.5920  144.4490 N   0  0  0  0  0  0  0  0  0  0  0  0
  162.2000  210.3890  153.0860 C   0  0  0  0  0  2  0  0  0  0  0  0
  161.4780  207.7230  152.8660 C   0  0  2  0  0  3  0  0  0  0  0  0
  161.3170  206.5690  145.2740 N   0  0  0  0  0  0  0  0  0  0  0  0
  161.3530  210.0750  151.8470 C   0  0  0  0  0  2  0  0  0  0  0  0
  160.2370  209.3720  154.4080 C   0  0  1  0  0  3  0  0  0  0  0  0
  160.8920  202.2940  149.9140 C   0  0  0  0  0  3  0  0  0  0  0  0
  160.8480  203.7680  149.9960 C   0  0  2  0  0  3  0  0  0  0  0  0
  161.0700  203.9400  147.6800 N   0  0  0  0  0  0  0  0  0  0  0  0
  161.4100  208.0360  150.4090 C   0  0  0  0  0  2  0  0  0  0  0  0
  161.1520  208.1330  147.7690 O   0  0  0  0  0  1  0  0  0  0  0  0
  161.2870  203.2170  144.6680 O   0  0  0  0  0  0  0  0  0  0  0  0
  161.0490  205.9830  149.0190 C   0  0  0  0  0  0  0  0  0  0  0  0
  161.1950  204.7010  146.5740 C   0  0  0  0  0  0  0  0  0  0  0  0
  159.7310  209.3920  155.7690 N   0  0  0  0  0  2  0  0  0  0  0  0
  158.8690  210.5560  155.8940 C   0  0  0  0  0  3  0  0  0  0  0  0
  158.6080  211.1370  154.5210 C   0  0  0  0  0  1  0  0  0  0  0  0
  159.5410  211.6020  156.7610 C   0  0  0  0  0  1  0  0  0  0  0  0
  1 16  1  6  0  0  0
  2 24  1  1  0  0  0
  2 12  1  0  0  0  0
  3 11  2  0  0  0  0
  4  3  1  0  0  0  0
  5 27  1  0  0  0  0
  6  5  2  0  0  0  0
  7 24  1  6  0  0  0
  7 19  1  0  0  0  0
  7 17  1  0  0  0  0
  8 17  1  0  0  0  0
  9 28  1  0  0  0  0
 10 20  1  0  0  0  0
 10  1  1  0  0  0  0
 12  8  1  0  0  0  0
 13 12  1  0  0  0  0
 13 11  1  0  0  0  0
 14 27  2  0  0  0  0
 14 22  1  0  0  0  0
 15  9  1  0  0  0  0
 15 18  2  0  0  0  0
 17 10  1  0  0  0  0
 18  6  1  0  0  0  0
 19 16  1  0  0  0  0
 20  1  1  0  0  0  0
 20 29  1  0  0  0  0
 21 22  1  0  0  0  0
 21  4  2  0  0  0  0
 22 13  1  0  0  0  0
 23 14  1  0  0  0  0
 25  5  1  0  0  0  0
 26  9  2  0  0  0  0
 27  2  1  0  0  0  0
 28  6  1  0  0  0  0
 28 23  2  0  0  0  0
 29 30  1  0  0  0  0
 30 32  1  0  0  0  0
 31 30  1  0  0  0  0
M  END
>  <MODEL>
2

>  <REMARK>
 VINA RESULT:      -8.5      3.055      8.722
  Name = 
  2 active torsions:
  status: ('A' for Active; 'I' for Inactive)
    1  A    between atoms: C_20  and  N_29
    2  A    between atoms: N_29  and  C_30
                            x       y       z     vdW  Elec       q    Type
                         _______ _______ _______ _____ _____    ______ ____

>  <TORSDO>
F 2

$$$$
=
 OpenBabel11122412523D

 32 38  0  0  1  0  0  0  0  0999 V2000
  162.3620  213.2100  148.6830 C   0  0  1  0  0  3  0  0  0  0  0  0
  161.3420  208.1550  149.8250 C   0  0  1  0  0  3  0  0  0  0  0  0
  161.5130  208.1950  154.6040 C   0  0  0  0  0  3  0  0  0  0  0  0
  161.2070  206.7540  154.6750 C   0  0  0  0  0  3  0  0  0  0  0  0
  161.2580  206.0060  148.6360 C   0  0  0  0  0  0  0  0  0  0  0  0
  161.2280  204.6250  148.7560 C   0  0  0  0  0  0  0  0  0  0  0  0
  161.3820  210.3600  148.6040 C   0  0  1  0  0  3  0  0  0  0  0  0
  161.2200  210.3700  151.0670 C   0  0  0  0  0  2  0  0  0  0  0  0
  161.1330  202.6260  149.6840 C   0  0  0  0  0  0  0  0  0  0  0  0
  161.9010  212.5120  149.9610 C   0  0  2  0  0  3  0  0  0  0  0  0
  161.3710  208.8540  153.4900 N   0  0  0  0  0  0  0  0  0  0  0  0
  161.2830  208.9040  151.0680 N   0  0  1  0  0  0  0  0  0  0  0  0
  160.7900  208.2530  152.2810 C   0  0  1  0  0  3  0  0  0  0  0  0
  161.0780  206.0950  151.0930 C   0  0  0  0  0  0  0  0  0  0  0  0
  161.2060  202.4740  148.2660 N   0  0  0  0  0  0  0  0  0  0  0  0
  162.7910  212.2370  147.5640 C   0  0  0  0  0  2  0  0  0  0  0  0
  161.9540  210.9730  149.8830 C   0  0  2  0  0  3  0  0  0  0  0  0
  161.2610  203.6340  147.7270 N   0  0  0  0  0  0  0  0  0  0  0  0
  161.8550  211.0480  147.3200 C   0  0  0  0  0  2  0  0  0  0  0  0
  160.8790  213.1520  149.0280 C   0  0  1  0  0  3  0  0  0  0  0  0
  160.9730  206.0660  153.5570 C   0  0  0  0  0  3  0  0  0  0  0  0
  160.9900  206.7630  152.2540 C   0  0  2  0  0  3  0  0  0  0  0  0
  161.0690  204.7240  151.1240 N   0  0  0  0  0  0  0  0  0  0  0  0
  161.7410  208.8870  148.5630 C   0  0  0  0  0  2  0  0  0  0  0  0
  161.3170  206.5590  147.3610 O   0  0  0  0  0  1  0  0  0  0  0  0
  161.0640  201.6800  150.5110 O   0  0  0  0  0  0  0  0  0  0  0  0
  161.2120  206.7940  149.8350 C   0  0  0  0  0  0  0  0  0  0  0  0
  161.1520  204.0340  149.9690 C   0  0  0  0  0  0  0  0  0  0  0  0
  160.4630  214.4300  149.5800 N   0  0  0  0  0  2  0  0  0  0  0  0
  159.0110  214.4240  149.6390 C   0  0  0  0  0  3  0  0  0  0  0  0
  158.5620  213.7210  150.9020 C   0  0  0  0  0  1  0  0  0  0  0  0
  158.4510  213.6950  148.4340 C   0  0  0  0  0  1  0  0  0  0  0  0
  1 16  1  6  0  0  0
  1 20  1  0  0  0  0
  1 10  1  0  0  0  0
  2 24  1  1  0  0  0
  2 27  1  0  0  0  0
  2 12  1  0  0  0  0
  3  4  1  0  0  0  0
  5  6  2  0  0  0  0
  5 27  1  0  0  0  0
  6 28  1  0  0  0  0
  7 19  1  6  0  0  0
  7 17  1  0  0  0  0
  8 12  1  0  0  0  0
  9 28  1  0  0  0  0
  9 26  2  0  0  0  0
 11  3  2  0  0  0  0
 12 13  1  0  0  0  0
 13 11  1  0  0  0  0
 14 23  1  0  0  0  0
 14 22  1  0  0  0  0
 15  9  1  0  0  0  0
 17 10  1  0  0  0  0
 17  8  1  0  0  0  0
 18 15  2  0  0  0  0
 18  6  1  0  0  0  0
 19 16  1  0  0  0  0
 20 29  1  0  0  0  0
 20 10  1  0  0  0  0
 21  4  2  0  0  0  0
 22 13  1  0  0  0  0
 22 21  1  0  0  0  0
 24  7  1  0  0  0  0
 25  5  1  0  0  0  0
 27 14  2  0  0  0  0
 28 23  2  0  0  0  0
 29 30  1  0  0  0  0
 30 31  1  0  0  0  0
 32 30  1  0  0  0  0
M  END
>  <MODEL>
3

>  <REMARK>
 VINA RESULT:      -6.5      2.865      8.403
  Name = 
  2 active torsions:
  status: ('A' for Active; 'I' for Inactive)
    1  A    between atoms: C_20  and  N_29
    2  A    between atoms: N_29  and  C_30
                            x       y       z     vdW  Elec       q    Type
                         _______ _______ _______ _____ _____    ______ ____

>  <TORSDO>
F 2

$$$$
=
 OpenBabel11122412523D

 32 38  0  0  1  0  0  0  0  0999 V2000
  161.6130  201.5520  147.7520 C   0  0  1  0  0  3  0  0  0  0  0  0
  161.1100  205.6620  151.0290 C   0  0  1  0  0  3  0  0  0  0  0  0
  162.5570  209.2820  148.2610 C   0  0  0  0  0  3  0  0  0  0  0  0
  162.3310  210.2620  149.3390 C   0  0  0  0  0  3  0  0  0  0  0  0
  160.7820  206.0370  153.4360 C   0  0  0  0  0  0  0  0  0  0  0  0
  160.8330  206.9540  154.4750 C   0  0  0  0  0  0  0  0  0  0  0  0
  160.7450  203.4080  149.9640 C   0  0  1  0  0  3  0  0  0  0  0  0
  161.2510  205.3390  148.5120 C   0  0  0  0  0  2  0  0  0  0  0  0
  161.0580  208.8740  155.5380 C   0  0  0  0  0  0  0  0  0  0  0  0
  161.5370  203.0590  147.5150 C   0  0  2  0  0  3  0  0  0  0  0  0
  162.0990  208.0670  148.3540 N   0  0  0  0  0  0  0  0  0  0  0  0
  161.3620  206.1920  149.7010 N   0  0  1  0  0  0  0  0  0  0  0  0
  161.2350  207.6280  149.4590 C   0  0  1  0  0  3  0  0  0  0  0  0
  161.2670  207.9210  151.9220 C   0  0  0  0  0  0  0  0  0  0  0  0
  160.7530  207.8530  156.4880 N   0  0  0  0  0  0  0  0  0  0  0  0
  161.7580  201.1620  149.2390 C   0  0  0  0  0  2  0  0  0  0  0  0
  161.6190  203.8960  148.8080 C   0  0  2  0  0  3  0  0  0  0  0  0
  160.6210  206.7390  155.8720 N   0  0  0  0  0  0  0  0  0  0  0  0
  160.8310  201.8990  150.2140 C   0  0  0  0  0  2  0  0  0  0  0  0
  160.2800  202.2020  147.4020 C   0  0  1  0  0  3  0  0  0  0  0  0
  161.8280  209.8620  150.5080 C   0  0  0  0  0  3  0  0  0  0  0  0
  161.4720  208.4420  150.7010 C   0  0  2  0  0  3  0  0  0  0  0  0
  161.3130  208.7580  153.0070 N   0  0  0  0  0  0  0  0  0  0  0  0
  161.1290  204.1620  151.2220 C   0  0  0  0  0  2  0  0  0  0  0  0
  160.4770  204.7130  153.7350 O   0  0  0  0  0  1  0  0  0  0  0  0
  161.2470  210.0870  155.8130 O   0  0  0  0  0  0  0  0  0  0  0  0
  161.0340  206.5060  152.1020 C   0  0  0  0  0  0  0  0  0  0  0  0
  161.1050  208.2560  154.2410 C   0  0  0  0  0  0  0  0  0  0  0  0
  159.9850  201.9700  145.9990 N   0  0  0  0  0  2  0  0  0  0  0  0
  159.9670  203.2650  145.3400 C   0  0  0  0  0  3  0  0  0  0  0  0
  159.0520  203.2040  144.1360 C   0  0  0  0  0  1  0  0  0  0  0  0
  161.3670  203.6300  144.8860 C   0  0  0  0  0  1  0  0  0  0  0  0
  1 16  1  1  0  0  0
  2 24  1  1  0  0  0
  2 27  1  0  0  0  0
  3 11  2  0  0  0  0
  3  4  1  0  0  0  0
  4 21  2  0  0  0  0
  5 25  1  0  0  0  0
  5  6  1  0  0  0  0
  6 18  1  0  0  0  0
  7 19  1  1  0  0  0
  7 24  1  0  0  0  0
  8 17  1  0  0  0  0
  8 12  1  0  0  0  0
  9 26  2  0  0  0  0
  9 15  1  0  0  0  0
 10  1  1  0  0  0  0
 10 17  1  0  0  0  0
 11 13  1  0  0  0  0
 12  2  1  0  0  0  0
 13 12  1  0  0  0  0
 13 22  1  0  0  0  0
 14 27  1  0  0  0  0
 14 23  2  0  0  0  0
 16 19  1  0  0  0  0
 17  7  1  0  0  0  0
 18 15  2  0  0  0  0
 20 10  1  0  0  0  0
 20  1  1  0  0  0  0
 21 22  1  0  0  0  0
 22 14  1  0  0  0  0
 23 28  1  0  0  0  0
 27  5  2  0  0  0  0
 28  6  2  0  0  0  0
 28  9  1  0  0  0  0
 29 20  1  0  0  0  0
 30 29  1  0  0  0  0
 31 30  1  0  0  0  0
 32 30  1  0  0  0  0
M  END
>  <MODEL>
4

>  <REMARK>
 VINA RESULT:      -6.4      1.195      1.711
  Name = 
  2 active torsions:
  status: ('A' for Active; 'I' for Inactive)
    1  A    between atoms: C_20  and  N_29
    2  A    between atoms: N_29  and  C_30
                            x       y       z     vdW  Elec       q    Type
                         _______ _______ _______ _____ _____    ______ ____

>  <TORSDO>
F 2

$$$$
