=
 OpenBabel11122412373D

 30 35  0  0  1  0  0  0  0  0999 V2000
  161.3610  206.2650  150.3970 C   0  0  0  0  0  0  0  0  0  0  0  0
  161.0800  203.7400  150.3510 C   0  0  0  0  0  0  0  0  0  0  0  0
  160.7290  206.3070  154.5450 N   0  0  0  0  0  2  0  0  0  0  0  0
  161.3710  207.4830  151.1520 C   0  0  0  0  0  0  0  0  0  0  0  0
  161.5960  206.3530  149.0270 C   0  0  0  0  0  3  0  0  0  0  0  0
  162.0110  209.8440  148.5800 O   0  0  0  0  0  0  0  0  0  0  0  0
  160.2720  210.2660  151.9640 C   0  0  1  0  0  3  0  0  0  0  0  0
  161.8140  208.7380  149.1590 C   0  0  0  0  0  0  0  0  0  0  0  0
  160.0760  209.5180  153.2890 C   0  0  2  0  0  3  0  0  0  0  0  0
  160.8370  207.7160  154.8940 C   0  0  1  0  0  3  0  0  0  0  0  0
  161.8300  207.5640  148.4020 C   0  0  0  0  0  0  0  0  0  0  0  0
  161.5860  208.6940  150.5110 N   0  0  0  0  0  0  0  0  0  0  0  0
  160.8370  202.5630  151.0650 C   0  0  0  0  0  3  0  0  0  0  0  0
  160.0460  210.5860  154.3660 C   0  0  0  0  0  2  0  0  0  0  0  0
  160.1340  211.7490  152.2650 C   0  0  0  0  0  2  0  0  0  0  0  0
  161.3170  203.5040  148.6210 Cl  0  0  0  0  0  0  0  0  0  0  0  0
  160.9150  206.1850  153.1490 C   0  0  0  0  0  0  0  0  0  0  0  0
  160.6260  202.5840  152.4380 C   0  0  0  0  0  3  0  0  0  0  0  0
  161.1160  205.0010  151.0340 C   0  0  0  0  0  0  0  0  0  0  0  0
  161.1420  207.3870  152.5420 C   0  0  0  0  0  0  0  0  0  0  0  0
  161.9780  207.9120  155.8720 C   0  0  0  0  0  1  0  0  0  0  0  0
  161.1450  208.4640  153.5810 C   0  0  1  0  0  3  0  0  0  0  0  0
  159.5800  211.8430  153.6690 C   0  0  0  0  0  2  0  0  0  0  0  0
  162.8730  210.2490  151.9790 C   0  0  0  0  0  1  0  0  0  0  0  0
  160.6530  203.7910  153.1220 C   0  0  0  0  0  3  0  0  0  0  0  0
  160.8920  204.9880  152.4400 C   0  0  0  0  0  0  0  0  0  0  0  0
  161.5800  209.9890  151.2090 C   0  0  2  0  0  3  0  0  0  0  0  0
  162.0530  207.5880  146.9240 C   0  0  0  0  0  2  0  0  0  0  0  0
  160.6710  206.1980  145.6530 C   0  0  0  0  0  1  0  0  0  0  0  0
  161.9280  206.2460  146.3800 N   0  0  0  0  0  2  0  0  0  0  0  0
  1 19  2  0  0  0  0
  1  4  1  0  0  0  0
  2 19  1  0  0  0  0
  2 13  2  0  0  0  0
  3 10  1  0  0  0  0
  4 20  2  0  0  0  0
  5  1  1  0  0  0  0
  6  8  2  0  0  0  0
  7 15  1  1  0  0  0
  7  9  1  0  0  0  0
  8 12  1  0  0  0  0
  9 22  1  0  0  0  0
  9 14  1  1  0  0  0
 10 21  1  1  0  0  0
 11  5  2  0  0  0  0
 11  8  1  0  0  0  0
 12  4  1  0  0  0  0
 12 27  1  0  0  0  0
 13 18  1  0  0  0  0
 15 23  1  0  0  0  0
 16  2  1  0  0  0  0
 17  3  1  0  0  0  0
 18 25  2  0  0  0  0
 19 26  1  0  0  0  0
 20 17  1  0  0  0  0
 22 20  1  6  0  0  0
 22 10  1  0  0  0  0
 23 14  1  0  0  0  0
 26 25  1  0  0  0  0
 26 17  2  0  0  0  0
 27  7  1  0  0  0  0
 27 24  1  1  0  0  0
 28 11  1  0  0  0  0
 29 30  1  0  0  0  0
 30 28  1  0  0  0  0
M  END
>  <MODEL>
1

>  <REMARK>
 VINA RESULT:      -7.2      0.000      0.000
  Name = 
  2 active torsions:
  status: ('A' for Active; 'I' for Inactive)
    1  A    between atoms: C_11  and  C_28
    2  A    between atoms: C_28  and  N_30
                            x       y       z     vdW  Elec       q    Type
                         _______ _______ _______ _____ _____    ______ ____

>  <TORSDO>
F 2

$$$$
=
 OpenBabel11122412373D

 30 35  0  0  1  0  0  0  0  0999 V2000
  161.4560  207.7550  151.4520 C   0  0  0  0  0  0  0  0  0  0  0  0
  161.5890  210.2320  150.9030 C   0  0  0  0  0  0  0  0  0  0  0  0
  162.1380  206.7790  147.4280 N   0  0  0  0  0  2  0  0  0  0  0  0
  161.5010  206.3960  151.0000 C   0  0  0  0  0  0  0  0  0  0  0  0
  161.2390  207.9770  152.8100 C   0  0  0  0  0  3  0  0  0  0  0  0
  160.9230  204.6720  154.0480 O   0  0  0  0  0  0  0  0  0  0  0  0
  160.2690  203.6080  150.4290 C   0  0  1  0  0  3  0  0  0  0  0  0
  161.0970  205.6190  153.2310 C   0  0  0  0  0  0  0  0  0  0  0  0
  160.6170  204.0320  148.9960 C   0  0  2  0  0  3  0  0  0  0  0  0
  162.1180  205.3230  147.4210 C   0  0  1  0  0  3  0  0  0  0  0  0
  161.0690  206.9340  153.7020 C   0  0  0  0  0  0  0  0  0  0  0  0
  161.3080  205.3590  151.9010 N   0  0  0  0  0  0  0  0  0  0  0  0
  161.7720  211.2210  149.9330 C   0  0  0  0  0  3  0  0  0  0  0  0
  160.7470  202.7440  148.2050 C   0  0  0  0  0  2  0  0  0  0  0  0
  159.9920  202.1150  150.3970 C   0  0  0  0  0  2  0  0  0  0  0  0
  161.3160  210.8530  152.5290 Cl  0  0  0  0  0  0  0  0  0  0  0  0
  161.9010  207.2140  148.7530 C   0  0  0  0  0  0  0  0  0  0  0  0
  161.9950  210.8910  148.6010 C   0  0  0  0  0  3  0  0  0  0  0  0
  161.6280  208.8470  150.5340 C   0  0  0  0  0  0  0  0  0  0  0  0
  161.7310  206.1760  149.6240 C   0  0  0  0  0  0  0  0  0  0  0  0
  163.4570  204.7980  146.9440 C   0  0  0  0  0  1  0  0  0  0  0  0
  161.8800  204.8860  148.8800 C   0  0  1  0  0  3  0  0  0  0  0  0
  159.8920  201.7370  148.9360 C   0  0  0  0  0  2  0  0  0  0  0  0
  162.7150  203.3900  151.2900 C   0  0  0  0  0  1  0  0  0  0  0  0
  162.0360  209.5580  148.2180 C   0  0  0  0  0  3  0  0  0  0  0  0
  161.8550  208.5430  149.1620 C   0  0  0  0  0  0  0  0  0  0  0  0
  161.3080  203.9410  151.5110 C   0  0  2  0  0  3  0  0  0  0  0  0
  160.8180  207.2450  155.1430 C   0  0  0  0  0  2  0  0  0  0  0  0
  161.9260  208.5840  156.7040 C   0  0  0  0  0  1  0  0  0  0  0  0
  161.2190  208.6100  155.4350 N   0  0  0  0  0  2  0  0  0  0  0  0
  1  5  1  0  0  0  0
  2 16  1  0  0  0  0
  3 17  1  0  0  0  0
  4  1  1  0  0  0  0
  4 12  1  0  0  0  0
  5 11  2  0  0  0  0
  7 15  1  6  0  0  0
  7 27  1  0  0  0  0
  8 11  1  0  0  0  0
  8  6  2  0  0  0  0
  9 14  1  6  0  0  0
  9  7  1  0  0  0  0
 10 21  1  1  0  0  0
 10  3  1  0  0  0  0
 10 22  1  0  0  0  0
 11 28  1  0  0  0  0
 12  8  1  0  0  0  0
 13  2  2  0  0  0  0
 14 23  1  0  0  0  0
 17 26  2  0  0  0  0
 17 20  1  0  0  0  0
 18 13  1  0  0  0  0
 19  2  1  0  0  0  0
 19  1  2  0  0  0  0
 20  4  2  0  0  0  0
 22  9  1  0  0  0  0
 22 20  1  1  0  0  0
 23 15  1  0  0  0  0
 25 18  2  0  0  0  0
 25 26  1  0  0  0  0
 26 19  1  0  0  0  0
 27 24  1  6  0  0  0
 27 12  1  0  0  0  0
 28 30  1  0  0  0  0
 30 29  1  0  0  0  0
M  END
>  <MODEL>
2

>  <REMARK>
 VINA RESULT:      -6.7      2.668      7.267
  Name = 
  2 active torsions:
  status: ('A' for Active; 'I' for Inactive)
    1  A    between atoms: C_11  and  C_28
    2  A    between atoms: C_28  and  N_30
                            x       y       z     vdW  Elec       q    Type
                         _______ _______ _______ _____ _____    ______ ____

>  <TORSDO>
F 2

$$$$
=
 OpenBabel11122412373D

 30 35  0  0  1  0  0  0  0  0999 V2000
  161.4190  207.7310  151.0650 C   0  0  0  0  0  0  0  0  0  0  0  0
  161.4220  205.4080  150.0360 C   0  0  0  0  0  0  0  0  0  0  0  0
  160.4640  206.1170  154.8190 N   0  0  0  0  0  2  0  0  0  0  0  0
  161.2360  208.5590  152.2200 C   0  0  0  0  0  0  0  0  0  0  0  0
  161.7490  208.3600  149.8670 C   0  0  0  0  0  3  0  0  0  0  0  0
  161.8110  211.7710  150.8240 O   0  0  0  0  0  0  0  0  0  0  0  0
  159.7770  210.7240  153.8940 C   0  0  1  0  0  3  0  0  0  0  0  0
  161.6920  210.5160  150.9150 C   0  0  0  0  0  0  0  0  0  0  0  0
  159.5620  209.5090  154.8050 C   0  0  2  0  0  3  0  0  0  0  0  0
  160.3890  207.2850  155.6850 C   0  0  1  0  0  3  0  0  0  0  0  0
  161.8970  209.7320  149.7780 C   0  0  0  0  0  0  0  0  0  0  0  0
  161.3660  209.9350  152.1150 N   0  0  0  0  0  0  0  0  0  0  0  0
  161.2550  204.0330  150.2180 C   0  0  0  0  0  3  0  0  0  0  0  0
  159.3300  210.0710  156.1950 C   0  0  0  0  0  2  0  0  0  0  0  0
  159.4540  211.9600  154.7150 C   0  0  0  0  0  2  0  0  0  0  0  0
  161.8180  205.8790  148.3850 Cl  0  0  0  0  0  0  0  0  0  0  0  0
  160.7710  206.5590  153.5110 C   0  0  0  0  0  0  0  0  0  0  0  0
  160.9360  203.5050  151.4640 C   0  0  0  0  0  3  0  0  0  0  0  0
  161.2650  206.3050  151.1440 C   0  0  0  0  0  0  0  0  0  0  0  0
  160.9110  207.9160  153.4350 C   0  0  0  0  0  0  0  0  0  0  0  0
  161.4210  207.1680  156.7880 C   0  0  0  0  0  1  0  0  0  0  0  0
  160.7140  208.5030  154.7970 C   0  0  1  0  0  3  0  0  0  0  0  0
  158.7850  211.4630  155.9770 C   0  0  0  0  0  2  0  0  0  0  0  0
  162.3550  210.8890  154.1980 C   0  0  0  0  0  1  0  0  0  0  0  0
  160.7770  204.3510  152.5520 C   0  0  0  0  0  3  0  0  0  0  0  0
  160.9350  205.7320  152.4060 C   0  0  0  0  0  0  0  0  0  0  0  0
  161.1630  210.8550  153.2450 C   0  0  2  0  0  3  0  0  0  0  0  0
  162.2300  210.3420  148.4540 C   0  0  0  0  0  2  0  0  0  0  0  0
  161.7910  212.4230  147.4890 C   0  0  0  0  0  1  0  0  0  0  0  0
  161.1620  211.2330  148.0340 N   0  0  0  0  0  2  0  0  0  0  0  0
  1 19  2  0  0  0  0
  1  4  1  0  0  0  0
  2 13  2  0  0  0  0
  2 19  1  0  0  0  0
  3 10  1  0  0  0  0
  4 20  2  0  0  0  0
  5  1  1  0  0  0  0
  6  8  2  0  0  0  0
  7 15  1  1  0  0  0
  7  9  1  0  0  0  0
  8 12  1  0  0  0  0
  9 14  1  1  0  0  0
 10 21  1  1  0  0  0
 11  5  2  0  0  0  0
 11  8  1  0  0  0  0
 12  4  1  0  0  0  0
 12 27  1  0  0  0  0
 13 18  1  0  0  0  0
 15 23  1  0  0  0  0
 16  2  1  0  0  0  0
 17  3  1  0  0  0  0
 18 25  2  0  0  0  0
 19 26  1  0  0  0  0
 20 17  1  0  0  0  0
 22 20  1  6  0  0  0
 22  9  1  0  0  0  0
 22 10  1  0  0  0  0
 23 14  1  0  0  0  0
 26 25  1  0  0  0  0
 26 17  2  0  0  0  0
 27  7  1  0  0  0  0
 27 24  1  1  0  0  0
 28 11  1  0  0  0  0
 29 30  1  0  0  0  0
 30 28  1  0  0  0  0
M  END
>  <MODEL>
3

>  <REMARK>
 VINA RESULT:      -6.3      1.867      2.408
  Name = 
  2 active torsions:
  status: ('A' for Active; 'I' for Inactive)
    1  A    between atoms: C_11  and  C_28
    2  A    between atoms: C_28  and  N_30
                            x       y       z     vdW  Elec       q    Type
                         _______ _______ _______ _____ _____    ______ ____

>  <TORSDO>
F 2

$$$$
=
 OpenBabel11122412373D

 30 35  0  0  1  0  0  0  0  0999 V2000
  160.7480  210.6790  151.6410 C   0  0  0  0  0  0  0  0  0  0  0  0
  161.9630  208.7440  150.5300 C   0  0  0  0  0  0  0  0  0  0  0  0
  160.1990  208.3980  155.1200 N   0  0  0  0  0  2  0  0  0  0  0  0
  160.0590  211.1980  152.7840 C   0  0  0  0  0  0  0  0  0  0  0  0
  160.8930  211.5190  150.5380 C   0  0  0  0  0  3  0  0  0  0  0  0
  159.2360  214.4530  151.6340 O   0  0  0  0  0  0  0  0  0  0  0  0
  157.5630  212.2590  154.2880 C   0  0  1  0  0  3  0  0  0  0  0  0
  159.7060  213.2810  151.6530 C   0  0  0  0  0  0  0  0  0  0  0  0
  157.8280  210.9860  155.1010 C   0  0  2  0  0  3  0  0  0  0  0  0
  159.4810  209.2990  156.0100 C   0  0  1  0  0  3  0  0  0  0  0  0
  160.3930  212.8080  150.5320 C   0  0  0  0  0  0  0  0  0  0  0  0
  159.5430  212.4850  152.7580 N   0  0  0  0  0  0  0  0  0  0  0  0
  162.4360  207.4320  150.6250 C   0  0  0  0  0  3  0  0  0  0  0  0
  157.1900  211.2220  156.4570 C   0  0  0  0  0  2  0  0  0  0  0  0
  156.6010  213.1130  155.0970 C   0  0  0  0  0  2  0  0  0  0  0  0
  162.2950  209.5240  148.9860 Cl  0  0  0  0  0  0  0  0  0  0  0  0
  160.4240  209.0750  153.8990 C   0  0  0  0  0  0  0  0  0  0  0  0
  162.2480  206.6810  151.7800 C   0  0  0  0  0  3  0  0  0  0  0  0
  161.2700  209.3400  151.6340 C   0  0  0  0  0  0  0  0  0  0  0  0
  159.9230  210.3460  153.9020 C   0  0  0  0  0  0  0  0  0  0  0  0
  160.3030  209.5420  157.2600 C   0  0  0  0  0  1  0  0  0  0  0  0
  159.3070  210.6230  155.2380 C   0  0  1  0  0  3  0  0  0  0  0  0
  156.0910  212.2280  156.2120 C   0  0  0  0  0  2  0  0  0  0  0  0
  159.7060  213.5440  155.0120 C   0  0  0  0  0  1  0  0  0  0  0  0
  161.5790  207.2340  152.8620 C   0  0  0  0  0  3  0  0  0  0  0  0
  161.0910  208.5430  152.8010 C   0  0  0  0  0  0  0  0  0  0  0  0
  158.7960  213.0790  153.8780 C   0  0  2  0  0  3  0  0  0  0  0  0
  160.5640  213.6470  149.3060 C   0  0  0  0  0  2  0  0  0  0  0  0
  162.4150  213.7370  147.8850 C   0  0  0  0  0  1  0  0  0  0  0  0
  161.2970  212.9060  148.2940 N   0  0  0  0  0  2  0  0  0  0  0  0
  1  4  1  0  0  0  0
  2 13  2  0  0  0  0
  2 19  1  0  0  0  0
  3 10  1  0  0  0  0
  4 20  2  0  0  0  0
  5  1  1  0  0  0  0
  6  8  2  0  0  0  0
  7 15  1  1  0  0  0
  7  9  1  0  0  0  0
  8 12  1  0  0  0  0
  9 22  1  0  0  0  0
  9 14  1  1  0  0  0
 10 21  1  1  0  0  0
 11  5  2  0  0  0  0
 11  8  1  0  0  0  0
 12  4  1  0  0  0  0
 12 27  1  0  0  0  0
 13 18  1  0  0  0  0
 15 23  1  0  0  0  0
 16  2  1  0  0  0  0
 17 20  1  0  0  0  0
 17  3  1  0  0  0  0
 18 25  2  0  0  0  0
 19  1  2  0  0  0  0
 19 26  1  0  0  0  0
 22 20  1  6  0  0  0
 22 10  1  0  0  0  0
 23 14  1  0  0  0  0
 26 25  1  0  0  0  0
 26 17  2  0  0  0  0
 27  7  1  0  0  0  0
 27 24  1  1  0  0  0
 28 11  1  0  0  0  0
 29 30  1  0  0  0  0
 30 28  1  0  0  0  0
M  END
>  <MODEL>
4

>  <REMARK>
 VINA RESULT:      -5.9      3.189      4.811
  Name = 
  2 active torsions:
  status: ('A' for Active; 'I' for Inactive)
    1  A    between atoms: C_11  and  C_28
    2  A    between atoms: C_28  and  N_30
                            x       y       z     vdW  Elec       q    Type
                         _______ _______ _______ _____ _____    ______ ____

>  <TORSDO>
F 2

$$$$
=
 OpenBabel11122412373D

 30 35  0  0  1  0  0  0  0  0999 V2000
  160.8330  209.8490  152.3310 C   0  0  0  0  0  0  0  0  0  0  0  0
  161.9960  209.6930  150.0780 C   0  0  0  0  0  0  0  0  0  0  0  0
  159.5700  213.7550  151.4610 N   0  0  0  0  0  2  0  0  0  0  0  0
  160.0630  210.6190  153.2610 C   0  0  0  0  0  0  0  0  0  0  0  0
  161.1920  208.5560  152.7050 C   0  0  0  0  0  3  0  0  0  0  0  0
  159.7800  208.3160  155.9470 O   0  0  0  0  0  0  0  0  0  0  0  0
  159.6230  212.1410  155.9270 C   0  0  1  0  0  3  0  0  0  0  0  0
  160.0940  208.8030  154.8240 C   0  0  0  0  0  0  0  0  0  0  0  0
  159.4890  213.3090  154.9410 C   0  0  2  0  0  3  0  0  0  0  0  0
  158.8230  214.1450  152.6480 C   0  0  1  0  0  3  0  0  0  0  0  0
  160.8270  208.0220  153.9280 C   0  0  0  0  0  0  0  0  0  0  0  0
  159.7210  210.0810  154.4920 N   0  0  0  0  0  0  0  0  0  0  0  0
  162.3180  210.3120  148.8660 C   0  0  0  0  0  3  0  0  0  0  0  0
  158.6690  214.3640  155.6600 C   0  0  0  0  0  2  0  0  0  0  0  0
  159.0740  212.6180  157.2610 C   0  0  0  0  0  2  0  0  0  0  0  0
  162.6240  208.0550  150.2450 Cl  0  0  0  0  0  0  0  0  0  0  0  0
  160.0560  212.4420  151.6610 C   0  0  0  0  0  0  0  0  0  0  0  0
  161.8990  211.6070  148.5850 C   0  0  0  0  0  3  0  0  0  0  0  0
  161.2210  210.3930  151.0590 C   0  0  0  0  0  0  0  0  0  0  0  0
  159.6940  211.9260  152.8730 C   0  0  0  0  0  0  0  0  0  0  0  0
  157.3880  214.4530  152.2680 C   0  0  0  0  0  1  0  0  0  0  0  0
  158.8590  212.9330  153.6000 C   0  0  1  0  0  3  0  0  0  0  0  0
  158.8990  214.1150  157.1320 C   0  0  0  0  0  2  0  0  0  0  0  0
  157.4660  210.8780  155.2060 C   0  0  0  0  0  1  0  0  0  0  0  0
  161.1480  212.3070  149.5190 C   0  0  0  0  0  3  0  0  0  0  0  0
  160.8090  211.7190  150.7420 C   0  0  0  0  0  0  0  0  0  0  0  0
  158.9610  210.8180  155.5130 C   0  0  2  0  0  3  0  0  0  0  0  0
  161.2660  206.6350  154.2750 C   0  0  0  0  0  2  0  0  0  0  0  0
  161.2010  204.8890  152.7240 C   0  0  0  0  0  1  0  0  0  0  0  0
  161.9740  206.0420  153.1530 N   0  0  0  0  0  2  0  0  0  0  0  0
  1  5  1  0  0  0  0
  1  4  1  0  0  0  0
  2 16  1  0  0  0  0
  2 19  1  0  0  0  0
  3 17  1  0  0  0  0
  3 10  1  0  0  0  0
  4 12  1  0  0  0  0
  5 11  2  0  0  0  0
  7 15  1  1  0  0  0
  8  6  2  0  0  0  0
  9 14  1  1  0  0  0
  9  7  1  0  0  0  0
 10 21  1  6  0  0  0
 10 22  1  0  0  0  0
 11 28  1  0  0  0  0
 11  8  1  0  0  0  0
 12  8  1  0  0  0  0
 12 27  1  0  0  0  0
 13  2  2  0  0  0  0
 14 23  1  0  0  0  0
 17 20  1  0  0  0  0
 18 13  1  0  0  0  0
 18 25  2  0  0  0  0
 19  1  2  0  0  0  0
 20  4  2  0  0  0  0
 22 20  1  6  0  0  0
 22  9  1  0  0  0  0
 23 15  1  0  0  0  0
 25 26  1  0  0  0  0
 26 19  1  0  0  0  0
 26 17  2  0  0  0  0
 27 24  1  6  0  0  0
 27  7  1  0  0  0  0
 29 30  1  0  0  0  0
 30 28  1  0  0  0  0
M  END
>  <MODEL>
5

>  <REMARK>
 VINA RESULT:      -5.5      2.984      6.306
  Name = 
  2 active torsions:
  status: ('A' for Active; 'I' for Inactive)
    1  A    between atoms: C_11  and  C_28
    2  A    between atoms: C_28  and  N_30
                            x       y       z     vdW  Elec       q    Type
                         _______ _______ _______ _____ _____    ______ ____

>  <TORSDO>
F 2

$$$$
=
 OpenBabel11122412373D

 30 35  0  0  1  0  0  0  0  0999 V2000
  161.4390  208.1030  151.1400 C   0  0  0  0  0  0  0  0  0  0  0  0
  161.4060  208.2750  153.6740 C   0  0  0  0  0  0  0  0  0  0  0  0
  160.9380  203.9430  151.3700 N   0  0  0  0  0  2  0  0  0  0  0  0
  161.3780  207.2820  149.9670 C   0  0  0  0  0  0  0  0  0  0  0  0
  161.5920  209.4760  150.9590 C   0  0  0  0  0  3  0  0  0  0  0  0
  161.7480  209.7350  147.4280 O   0  0  0  0  0  0  0  0  0  0  0  0
  162.5560  205.9930  147.4040 C   0  0  1  0  0  3  0  0  0  0  0  0
  161.6440  209.2150  148.5750 C   0  0  0  0  0  0  0  0  0  0  0  0
  162.2960  204.7260  148.2300 C   0  0  2  0  0  3  0  0  0  0  0  0
  160.9160  203.5230  149.9760 C   0  0  1  0  0  3  0  0  0  0  0  0
  161.6850  210.0410  149.7000 C   0  0  0  0  0  0  0  0  0  0  0  0
  161.4940  207.8570  148.7110 N   0  0  0  0  0  0  0  0  0  0  0  0
  161.3020  207.6200  154.9040 C   0  0  0  0  0  3  0  0  0  0  0  0
  162.1690  203.5970  147.2260 C   0  0  0  0  0  2  0  0  0  0  0  0
  162.7910  205.5490  145.9710 C   0  0  0  0  0  2  0  0  0  0  0  0
  161.6140  210.0210  153.7980 Cl  0  0  0  0  0  0  0  0  0  0  0  0
  161.1180  205.3450  151.4030 C   0  0  0  0  0  0  0  0  0  0  0  0
  161.1390  206.2410  154.9740 C   0  0  0  0  0  3  0  0  0  0  0  0
  161.3460  207.5270  152.4530 C   0  0  0  0  0  0  0  0  0  0  0  0
  161.2130  205.8920  150.1550 C   0  0  0  0  0  0  0  0  0  0  0  0
  159.5880  202.8610  149.6650 C   0  0  0  0  0  1  0  0  0  0  0  0
  161.0660  204.8070  149.1350 C   0  0  1  0  0  3  0  0  0  0  0  0
  162.9560  204.0460  146.0170 C   0  0  0  0  0  2  0  0  0  0  0  0
  160.0640  206.6550  147.0560 C   0  0  0  0  0  1  0  0  0  0  0  0
  161.0790  205.4940  153.8060 C   0  0  0  0  0  3  0  0  0  0  0  0
  161.1810  206.1160  152.5590 C   0  0  0  0  0  0  0  0  0  0  0  0
  161.4730  207.0810  147.4610 C   0  0  2  0  0  3  0  0  0  0  0  0
  161.8710  211.5200  149.5800 C   0  0  0  0  0  2  0  0  0  0  0  0
  160.4630  213.3820  149.5300 C   0  0  0  0  0  1  0  0  0  0  0  0
  160.8260  212.2130  150.3130 N   0  0  0  0  0  2  0  0  0  0  0  0
  1 19  1  0  0  0  0
  2 16  1  0  0  0  0
  2 13  1  0  0  0  0
  3 17  1  0  0  0  0
  4 20  1  0  0  0  0
  4  1  2  0  0  0  0
  5  1  1  0  0  0  0
  6  8  2  0  0  0  0
  7 15  1  6  0  0  0
  7 27  1  0  0  0  0
  7  9  1  0  0  0  0
  8 12  1  0  0  0  0
  8 11  1  0  0  0  0
  9 14  1  6  0  0  0
  9 22  1  0  0  0  0
 10 21  1  6  0  0  0
 10  3  1  0  0  0  0
 11  5  2  0  0  0  0
 12  4  1  0  0  0  0
 13 18  2  0  0  0  0
 15 23  1  0  0  0  0
 17 26  1  0  0  0  0
 19 26  1  0  0  0  0
 19  2  2  0  0  0  0
 20 17  2  0  0  0  0
 22 10  1  0  0  0  0
 22 20  1  1  0  0  0
 23 14  1  0  0  0  0
 25 18  1  0  0  0  0
 26 25  2  0  0  0  0
 27 24  1  1  0  0  0
 27 12  1  0  0  0  0
 28 11  1  0  0  0  0
 28 30  1  0  0  0  0
 29 30  1  0  0  0  0
M  END
>  <MODEL>
6

>  <REMARK>
 VINA RESULT:      -5.3      2.383      5.793
  Name = 
  2 active torsions:
  status: ('A' for Active; 'I' for Inactive)
    1  A    between atoms: C_11  and  C_28
    2  A    between atoms: C_28  and  N_30
                            x       y       z     vdW  Elec       q    Type
                         _______ _______ _______ _____ _____    ______ ____

>  <TORSDO>
F 2

$$$$
=
 OpenBabel11122412373D

 30 35  0  0  1  0  0  0  0  0999 V2000
  160.7710  209.5290  152.7080 C   0  0  0  0  0  0  0  0  0  0  0  0
  160.3740  212.0160  152.3740 C   0  0  0  0  0  0  0  0  0  0  0  0
  161.7940  209.1020  148.6610 N   0  0  0  0  0  2  0  0  0  0  0  0
  161.1300  208.2600  152.1490 C   0  0  0  0  0  0  0  0  0  0  0  0
  160.4620  209.5720  154.0660 C   0  0  0  0  0  3  0  0  0  0  0  0
  160.8380  206.1760  155.0070 O   0  0  0  0  0  0  0  0  0  0  0  0
  160.5650  205.3370  151.2810 C   0  0  1  0  0  3  0  0  0  0  0  0
  160.8280  207.2110  154.2820 C   0  0  0  0  0  0  0  0  0  0  0  0
  160.8610  205.9570  149.9100 C   0  0  2  0  0  3  0  0  0  0  0  0
  162.0960  207.6830  148.5320 C   0  0  1  0  0  3  0  0  0  0  0  0
  160.4940  208.4390  154.8580 C   0  0  0  0  0  0  0  0  0  0  0  0
  161.1390  207.1270  152.9480 N   0  0  0  0  0  0  0  0  0  0  0  0
  160.3690  213.1070  151.5010 C   0  0  0  0  0  3  0  0  0  0  0  0
  161.3000  204.8080  149.0230 C   0  0  0  0  0  2  0  0  0  0  0  0
  160.6250  203.8290  151.1110 C   0  0  0  0  0  2  0  0  0  0  0  0
  159.9130  212.4100  154.0280 Cl  0  0  0  0  0  0  0  0  0  0  0  0
  161.4200  209.3510  150.0020 C   0  0  0  0  0  0  0  0  0  0  0  0
  160.7070  212.9590  150.1600 C   0  0  0  0  0  3  0  0  0  0  0  0
  160.7310  210.7130  151.8950 C   0  0  0  0  0  0  0  0  0  0  0  0
  161.4520  208.2240  150.7740 C   0  0  0  0  0  0  0  0  0  0  0  0
  163.5340  207.5070  148.0880 C   0  0  0  0  0  1  0  0  0  0  0  0
  161.9070  207.0720  149.9350 C   0  0  1  0  0  3  0  0  0  0  0  0
  160.6620  203.5760  149.6200 C   0  0  0  0  0  2  0  0  0  0  0  0
  162.9660  205.5740  152.2550 C   0  0  0  0  0  1  0  0  0  0  0  0
  161.0540  211.7070  149.6710 C   0  0  0  0  0  3  0  0  0  0  0  0
  161.0680  210.5940  150.5160 C   0  0  0  0  0  0  0  0  0  0  0  0
  161.4650  205.7850  152.4430 C   0  0  2  0  0  3  0  0  0  0  0  0
  160.1290  208.5520  156.3040 C   0  0  0  0  0  2  0  0  0  0  0  0
  162.1780  209.1390  157.2590 C   0  0  0  0  0  1  0  0  0  0  0  0
  160.8610  209.6470  156.9170 N   0  0  0  0  0  2  0  0  0  0  0  0
  1  5  1  0  0  0  0
  2 16  1  0  0  0  0
  3 17  1  0  0  0  0
  4  1  1  0  0  0  0
  4 12  1  0  0  0  0
  5 11  2  0  0  0  0
  7 15  1  6  0  0  0
  7 27  1  0  0  0  0
  8 11  1  0  0  0  0
  8  6  2  0  0  0  0
  9 14  1  6  0  0  0
  9 22  1  0  0  0  0
  9  7  1  0  0  0  0
 10 21  1  1  0  0  0
 10  3  1  0  0  0  0
 10 22  1  0  0  0  0
 11 28  1  0  0  0  0
 12  8  1  0  0  0  0
 13  2  2  0  0  0  0
 14 23  1  0  0  0  0
 17 26  2  0  0  0  0
 17 20  1  0  0  0  0
 18 13  1  0  0  0  0
 19  2  1  0  0  0  0
 19  1  2  0  0  0  0
 20  4  2  0  0  0  0
 22 20  1  1  0  0  0
 23 15  1  0  0  0  0
 25 18  2  0  0  0  0
 25 26  1  0  0  0  0
 26 19  1  0  0  0  0
 27 24  1  6  0  0  0
 27 12  1  0  0  0  0
 28 30  1  0  0  0  0
 30 29  1  0  0  0  0
M  END
>  <MODEL>
7

>  <REMARK>
 VINA RESULT:      -5.3      2.806      7.303
  Name = 
  2 active torsions:
  status: ('A' for Active; 'I' for Inactive)
    1  A    between atoms: C_11  and  C_28
    2  A    between atoms: C_28  and  N_30
                            x       y       z     vdW  Elec       q    Type
                         _______ _______ _______ _____ _____    ______ ____

>  <TORSDO>
F 2

$$$$
