=
 OpenBabel11122412333D

 30 35  0  0  1  0  0  0  0  0999 V2000
  161.5780  206.3770  150.0750 C   0  0  1  0  0  3  0  0  0  0  0  0
  161.2400  203.8650  149.7820 C   0  0  0  0  0  0  0  0  0  0  0  0
  160.7340  205.9580  154.3070 C   0  0  0  0  0  2  0  0  0  0  0  0
  161.9520  207.4610  151.1070 C   0  0  1  0  0  3  0  0  0  0  0  0
  162.4980  206.4240  149.0090 O   0  0  0  0  0  0  0  0  0  0  0  0
  162.2720  209.9600  148.4740 O   0  0  0  0  0  0  0  0  0  0  0  0
  160.3990  210.2050  151.9130 C   0  0  1  0  0  3  0  0  0  0  0  0
  162.1280  208.8460  149.0460 C   0  0  0  0  0  0  0  0  0  0  0  0
  160.2060  209.4420  153.2320 C   0  0  2  0  0  3  0  0  0  0  0  0
  160.7680  207.4130  154.6210 C   0  0  0  0  0  0  0  0  0  0  0  0
  162.2200  207.5770  148.2290 C   0  0  2  0  0  3  0  0  0  0  0  0
  161.8370  208.7770  150.4550 N   0  0  0  0  0  0  0  0  0  0  0  0
  160.9700  202.5990  150.3090 C   0  0  0  0  0  3  0  0  0  0  0  0
  160.3330  210.4850  154.3220 C   0  0  0  0  0  2  0  0  0  0  0  0
  160.1630  211.6750  152.2260 C   0  0  0  0  0  2  0  0  0  0  0  0
  161.3460  204.0060  148.4040 O   0  0  0  0  0  1  0  0  0  0  0  0
  161.4190  205.9520  152.9560 C   0  0  2  0  0  3  0  0  0  0  0  0
  160.8280  202.4210  151.6860 C   0  0  0  0  0  3  0  0  0  0  0  0
  161.3890  204.9740  150.6400 C   0  0  0  0  0  0  0  0  0  0  0  0
  161.0410  207.2700  152.3130 C   0  0  1  0  0  3  0  0  0  0  0  0
  160.5480  207.8510  155.7380 O   0  0  0  0  0  0  0  0  0  0  0  0
  161.1640  208.2670  153.4510 C   0  0  1  0  0  3  0  0  0  0  0  0
  159.8140  211.7610  153.7000 C   0  0  0  0  0  2  0  0  0  0  0  0
  162.9840  210.2750  152.0720 C   0  0  0  0  0  1  0  0  0  0  0  0
  160.9430  203.5140  152.5450 C   0  0  0  0  0  3  0  0  0  0  0  0
  161.1870  204.7930  152.0320 C   0  0  0  0  0  0  0  0  0  0  0  0
  161.7530  210.0340  151.2030 C   0  0  2  0  0  3  0  0  0  0  0  0
  160.9790  207.3900  147.3610 C   0  0  0  0  0  2  0  0  0  0  0  0
  160.0300  206.1990  145.7670 C   0  0  0  0  0  1  0  0  0  0  0  0
  161.2750  206.5530  146.2850 O   0  0  0  0  0  0  0  0  0  0  0  0
  1  5  1  6  0  0  0
  1 19  1  0  0  0  0
  1  4  1  0  0  0  0
  2 13  2  0  0  0  0
  2 19  1  0  0  0  0
  3 10  1  0  0  0  0
  4 12  1  6  0  0  0
  4 20  1  0  0  0  0
  6  8  2  0  0  0  0
  7 15  1  1  0  0  0
  7  9  1  0  0  0  0
  8 12  1  0  0  0  0
  9 22  1  0  0  0  0
  9 14  1  1  0  0  0
 10 21  2  0  0  0  0
 11 28  1  1  0  0  0
 11  5  1  0  0  0  0
 11  8  1  0  0  0  0
 12 27  1  0  0  0  0
 13 18  1  0  0  0  0
 15 23  1  0  0  0  0
 16  2  1  0  0  0  0
 17  3  1  1  0  0  0
 18 25  2  0  0  0  0
 19 26  2  0  0  0  0
 20 17  1  0  0  0  0
 20 22  1  0  0  0  0
 22 10  1  0  0  0  0
 23 14  1  0  0  0  0
 26 25  1  0  0  0  0
 26 17  1  0  0  0  0
 27  7  1  0  0  0  0
 27 24  1  0  0  0  0
 29 30  1  0  0  0  0
 30 28  1  0  0  0  0
M  END
>  <MODEL>
1

>  <REMARK>
 VINA RESULT:      -9.2      0.000      0.000
  Name = 
  2 active torsions:
  status: ('A' for Active; 'I' for Inactive)
    1  A    between atoms: C_11  and  C_28
    2  A    between atoms: C_28  and  O_30
                            x       y       z     vdW  Elec       q    Type
                         _______ _______ _______ _____ _____    ______ ____

>  <TORSDO>
F 2

$$$$
=
 OpenBabel11122412333D

 30 35  0  0  1  0  0  0  0  0999 V2000
  160.8920  209.7530  152.5220 C   0  0  1  0  0  3  0  0  0  0  0  0
  160.4700  212.1970  151.9220 C   0  0  0  0  0  0  0  0  0  0  0  0
  161.9240  208.9580  148.3860 C   0  0  0  0  0  2  0  0  0  0  0  0
  161.6650  208.4910  152.0870 C   0  0  1  0  0  3  0  0  0  0  0  0
  161.2730  210.0930  153.8340 O   0  0  0  0  0  0  0  0  0  0  0  0
  160.8290  206.8160  155.2130 O   0  0  0  0  0  0  0  0  0  0  0  0
  160.5910  205.4680  151.5360 C   0  0  1  0  0  3  0  0  0  0  0  0
  160.9460  207.7190  154.3420 C   0  0  0  0  0  0  0  0  0  0  0  0
  160.9780  205.8350  150.0960 C   0  0  2  0  0  3  0  0  0  0  0  0
  162.0830  207.4870  148.5410 C   0  0  0  0  0  0  0  0  0  0  0  0
  160.6860  209.1580  154.7260 C   0  0  2  0  0  3  0  0  0  0  0  0
  161.2800  207.3850  152.9800 N   0  0  0  0  0  0  0  0  0  0  0  0
  160.4540  213.2430  150.9940 C   0  0  0  0  0  3  0  0  0  0  0  0
  161.5520  204.5680  149.4990 C   0  0  0  0  0  2  0  0  0  0  0  0
  160.5050  203.9500  151.5870 C   0  0  0  0  0  2  0  0  0  0  0  0
  159.9820  212.4320  153.2010 O   0  0  0  0  0  1  0  0  0  0  0  0
  161.9720  209.3950  149.8360 C   0  0  2  0  0  3  0  0  0  0  0  0
  160.9100  213.0390  149.6910 C   0  0  0  0  0  3  0  0  0  0  0  0
  160.9660  210.9300  151.5540 C   0  0  0  0  0  0  0  0  0  0  0  0
  161.3530  208.2540  150.6150 C   0  0  1  0  0  3  0  0  0  0  0  0
  162.3560  206.7500  147.6070 O   0  0  0  0  0  0  0  0  0  0  0  0
  161.9430  207.0170  149.9610 C   0  0  1  0  0  3  0  0  0  0  0  0
  160.8140  203.4450  150.1900 C   0  0  0  0  0  2  0  0  0  0  0  0
  162.9990  205.6640  152.4720 C   0  0  0  0  0  1  0  0  0  0  0  0
  161.3740  211.7820  149.3030 C   0  0  0  0  0  3  0  0  0  0  0  0
  161.3730  210.7180  150.2130 C   0  0  0  0  0  0  0  0  0  0  0  0
  161.5170  205.9760  152.6550 C   0  0  2  0  0  3  0  0  0  0  0  0
  159.1950  209.4160  154.9200 C   0  0  0  0  0  2  0  0  0  0  0  0
  157.7900  210.9880  155.5620 C   0  0  0  0  0  1  0  0  0  0  0  0
  159.0070  210.3950  155.8960 O   0  0  0  0  0  0  0  0  0  0  0  0
  1 19  1  6  0  0  0
  1  5  1  0  0  0  0
  2 16  1  0  0  0  0
  3 10  1  0  0  0  0
  4  1  1  0  0  0  0
  4 12  1  1  0  0  0
  5 11  1  0  0  0  0
  7 15  1  6  0  0  0
  7 27  1  0  0  0  0
  8 11  1  0  0  0  0
  8  6  2  0  0  0  0
  9 14  1  1  0  0  0
  9  7  1  0  0  0  0
 10 22  1  0  0  0  0
 11 28  1  6  0  0  0
 12  8  1  0  0  0  0
 13  2  2  0  0  0  0
 14 23  1  0  0  0  0
 17  3  1  6  0  0  0
 17 26  1  0  0  0  0
 17 20  1  0  0  0  0
 18 13  1  0  0  0  0
 19  2  1  0  0  0  0
 20  4  1  0  0  0  0
 21 10  2  0  0  0  0
 22  9  1  0  0  0  0
 22 20  1  0  0  0  0
 23 15  1  0  0  0  0
 24 27  1  0  0  0  0
 25 18  2  0  0  0  0
 25 26  1  0  0  0  0
 26 19  2  0  0  0  0
 27 12  1  0  0  0  0
 28 30  1  0  0  0  0
 29 30  1  0  0  0  0
M  END
>  <MODEL>
2

>  <REMARK>
 VINA RESULT:      -6.7      1.890      7.168
  Name = 
  2 active torsions:
  status: ('A' for Active; 'I' for Inactive)
    1  A    between atoms: C_11  and  C_28
    2  A    between atoms: C_28  and  O_30
                            x       y       z     vdW  Elec       q    Type
                         _______ _______ _______ _____ _____    ______ ____

>  <TORSDO>
F 2

$$$$
=
 OpenBabel11122412333D

 30 35  0  0  1  0  0  0  0  0999 V2000
  161.6360  208.1060  149.5230 C   0  0  1  0  0  3  0  0  0  0  0  0
  161.4510  206.1010  147.9560 C   0  0  0  0  0  0  0  0  0  0  0  0
  160.8300  205.4960  152.8910 C   0  0  0  0  0  2  0  0  0  0  0  0
  161.9460  208.5100  150.9790 C   0  0  1  0  0  3  0  0  0  0  0  0
  162.5490  208.7500  148.6660 O   0  0  0  0  0  0  0  0  0  0  0  0
  162.1060  212.0280  150.0440 O   0  0  0  0  0  0  0  0  0  0  0  0
  160.2300  210.3440  153.0500 C   0  0  1  0  0  3  0  0  0  0  0  0
  162.0320  210.7740  149.9470 C   0  0  0  0  0  0  0  0  0  0  0  0
  160.0870  208.9950  153.7720 C   0  0  2  0  0  3  0  0  0  0  0  0
  160.7750  206.5720  153.9170 C   0  0  0  0  0  0  0  0  0  0  0  0
  162.1990  210.1240  148.5920 C   0  0  2  0  0  3  0  0  0  0  0  0
  161.7490  209.9640  151.1060 N   0  0  0  0  0  0  0  0  0  0  0  0
  161.2600  204.7330  147.7380 C   0  0  0  0  0  3  0  0  0  0  0  0
  160.1530  209.3220  155.2490 C   0  0  0  0  0  2  0  0  0  0  0  0
  159.9060  211.4190  154.0760 C   0  0  0  0  0  2  0  0  0  0  0  0
  161.5450  206.9460  146.8570 O   0  0  0  0  0  1  0  0  0  0  0  0
  161.5110  206.2330  151.7550 C   0  0  2  0  0  3  0  0  0  0  0  0
  161.1330  203.8570  148.8160 C   0  0  0  0  0  3  0  0  0  0  0  0
  161.5350  206.6060  149.2690 C   0  0  0  0  0  0  0  0  0  0  0  0
  161.0510  207.6690  151.8820 C   0  0  1  0  0  3  0  0  0  0  0  0
  160.5320  206.3510  155.0920 O   0  0  0  0  0  0  0  0  0  0  0  0
  161.1150  207.9310  153.3760 C   0  0  1  0  0  3  0  0  0  0  0  0
  159.5560  210.7040  155.3670 C   0  0  0  0  0  2  0  0  0  0  0  0
  162.8060  210.4580  153.2990 C   0  0  0  0  0  1  0  0  0  0  0  0
  161.1830  204.3450  150.1210 C   0  0  0  0  0  3  0  0  0  0  0  0
  161.3470  205.7150  150.3570 C   0  0  0  0  0  0  0  0  0  0  0  0
  161.5900  210.6410  152.3960 C   0  0  2  0  0  3  0  0  0  0  0  0
  160.9690  210.3510  147.7180 C   0  0  0  0  0  2  0  0  0  0  0  0
  159.8950  212.2010  147.1850 C   0  0  0  0  0  1  0  0  0  0  0  0
  161.1100  211.5410  147.0030 O   0  0  0  0  0  0  0  0  0  0  0  0
  1  5  1  6  0  0  0
  1  4  1  0  0  0  0
  2 19  1  0  0  0  0
  3 10  1  0  0  0  0
  4 12  1  6  0  0  0
  4 20  1  0  0  0  0
  7  9  1  0  0  0  0
  7 15  1  1  0  0  0
  8  6  2  0  0  0  0
  8 12  1  0  0  0  0
  9 14  1  1  0  0  0
 10 21  2  0  0  0  0
 11 28  1  6  0  0  0
 11  5  1  0  0  0  0
 11  8  1  0  0  0  0
 12 27  1  0  0  0  0
 13  2  2  0  0  0  0
 13 18  1  0  0  0  0
 14 23  1  0  0  0  0
 15 23  1  0  0  0  0
 16  2  1  0  0  0  0
 17 20  1  0  0  0  0
 17  3  1  1  0  0  0
 18 25  2  0  0  0  0
 19  1  1  0  0  0  0
 19 26  2  0  0  0  0
 20 22  1  0  0  0  0
 22  9  1  0  0  0  0
 22 10  1  0  0  0  0
 25 26  1  0  0  0  0
 26 17  1  0  0  0  0
 27  7  1  0  0  0  0
 27 24  1  0  0  0  0
 30 29  1  0  0  0  0
 30 28  1  0  0  0  0
M  END
>  <MODEL>
3

>  <REMARK>
 VINA RESULT:      -6.2      1.555      2.457
  Name = 
  2 active torsions:
  status: ('A' for Active; 'I' for Inactive)
    1  A    between atoms: C_11  and  C_28
    2  A    between atoms: C_28  and  O_30
                            x       y       z     vdW  Elec       q    Type
                         _______ _______ _______ _____ _____    ______ ____

>  <TORSDO>
F 2

$$$$
