=
 OpenBabel11122412563D

 32 37  0  0  1  0  0  0  0  0999 V2000
  161.0420  208.6830  152.9670 C   0  0  0  0  0  2  0  0  0  0  0  0
  161.4260  212.6360  149.5320 C   0  0  1  0  0  3  0  0  0  0  0  0
  156.6360  213.6270  150.2640 C   0  0  0  0  0  3  0  0  0  0  0  0
  156.4240  213.5870  148.8850 C   0  0  0  0  0  3  0  0  0  0  0  0
  162.3700  213.0010  147.3400 C   0  0  1  0  0  3  0  0  0  0  0  0
  162.1080  213.5670  145.9530 C   0  0  1  0  0  3  0  0  0  0  0  0
  161.8820  210.5820  150.7930 N   0  0  1  0  0  0  0  0  0  0  0  0
  160.4620  212.3560  151.7850 C   0  0  0  0  0  2  0  0  0  0  0  0
  160.6590  213.4180  144.0730 N   0  0  0  0  0  0  0  0  0  0  0  0
  160.8760  210.2050  153.0460 C   0  0  2  0  0  3  0  0  0  0  0  0
  157.9170  213.4120  150.7800 C   0  0  0  0  0  3  0  0  0  0  0  0
  160.3120  212.9060  150.4430 N   0  0  0  0  0  0  0  0  0  0  0  0
  158.9960  213.1620  149.9190 C   0  0  0  0  0  0  0  0  0  0  0  0
  159.9420  212.8220  147.6160 C   0  0  1  0  0  3  0  0  0  0  0  0
  162.2710  213.3290  143.3220 S   0  0  0  0  0  0  0  0  0  0  0  0
  160.8750  208.0240  151.2710 S   0  0  0  0  0  0  0  0  0  0  0  0
  160.7150  210.8480  151.6630 C   0  0  2  0  0  3  0  0  0  0  0  0
  163.1280  213.1770  144.9240 C   0  0  0  0  0  2  0  0  0  0  0  0
  162.1750  209.1480  150.6290 C   0  0  0  0  0  2  0  0  0  0  0  0
  157.4930  213.3400  148.0200 C   0  0  0  0  0  3  0  0  0  0  0  0
  158.7870  213.1480  148.5280 C   0  0  0  0  0  0  0  0  0  0  0  0
  159.7410  213.4380  146.2980 N   0  0  0  0  0  2  0  0  0  0  0  0
  161.6270  211.1140  149.4520 C   0  0  0  0  0  2  0  0  0  0  0  0
  163.5220  213.5920  147.8660 O   0  0  0  0  0  1  0  0  0  0  0  0
  159.8360  212.4250  143.4040 C   0  0  0  0  0  1  0  0  0  0  0  0
  161.2170  213.2810  148.2200 N   0  0  1  0  0  0  0  0  0  0  0  0
  160.8290  212.9790  145.4470 C   0  0  2  0  0  3  0  0  0  0  0  0
  161.9700  210.7550  153.7220 O   0  0  0  0  0  0  0  0  0  0  0  0
  161.5150  210.9750  155.0240 C   0  0  0  0  0  2  0  0  0  0  0  0
  162.4330  210.3140  155.9900 C   0  0  0  0  0  0  0  0  0  0  0  0
  163.4850  210.8990  156.3590 O   0  0  0  0  0  0  0  0  0  0  0  0
  162.1020  209.0410  156.5290 N   0  0  0  0  0  1  0  0  0  0  0  0
  1 10  1  0  0  0  0
  2 23  1  6  0  0  0
  2 12  1  0  0  0  0
  3 11  1  0  0  0  0
  4  3  2  0  0  0  0
  5 24  1  1  0  0  0
  5 26  1  0  0  0  0
  6 18  1  6  0  0  0
  6  5  1  0  0  0  0
  7 23  1  6  0  0  0
  7 17  1  0  0  0  0
  9 27  1  0  0  0  0
 10 28  1  6  0  0  0
 12  8  1  0  0  0  0
 13 12  1  0  0  0  0
 13 11  2  0  0  0  0
 14 22  1  6  0  0  0
 14 26  1  0  0  0  0
 14 21  1  0  0  0  0
 15  9  1  0  0  0  0
 15 18  1  0  0  0  0
 16  1  1  0  0  0  0
 17  8  1  1  0  0  0
 17 10  1  0  0  0  0
 19  7  1  0  0  0  0
 19 16  1  0  0  0  0
 20 21  2  0  0  0  0
 20  4  1  0  0  0  0
 21 13  1  0  0  0  0
 25  9  1  0  0  0  0
 26  2  1  0  0  0  0
 27  6  1  0  0  0  0
 27 22  1  0  0  0  0
 28 29  1  0  0  0  0
 29 30  1  0  0  0  0
 30 31  2  0  0  0  0
 30 32  1  0  0  0  0
M  END
>  <MODEL>
1

>  <REMARK>
 VINA RESULT:      -5.4      0.000      0.000
  Name = 
  3 active torsions:
  status: ('A' for Active; 'I' for Inactive)
    1  A    between atoms: C_10  and  O_20
    2  A    between atoms: O_20  and  C_29
    3  A    between atoms: C_29  and  C_30
                            x       y       z     vdW  Elec       q    Type
                         _______ _______ _______ _____ _____    ______ ____

>  <TORSDO>
F 3

$$$$
=
 OpenBabel11122412563D

 32 37  0  0  1  0  0  0  0  0999 V2000
  160.2380  209.6910  154.3590 C   0  0  0  0  0  2  0  0  0  0  0  0
  160.3150  213.4410  150.6850 C   0  0  1  0  0  3  0  0  0  0  0  0
  155.4610  214.0980  151.3710 C   0  0  0  0  0  3  0  0  0  0  0  0
  155.2540  213.9550  149.9980 C   0  0  0  0  0  3  0  0  0  0  0  0
  161.2290  213.7420  148.4710 C   0  0  1  0  0  3  0  0  0  0  0  0
  160.9260  214.1990  147.0530 C   0  0  1  0  0  3  0  0  0  0  0  0
  160.9290  211.5120  152.0690 N   0  0  1  0  0  0  0  0  0  0  0  0
  159.3730  213.2260  152.9540 C   0  0  0  0  0  2  0  0  0  0  0  0
  159.4950  213.8200  145.1910 N   0  0  0  0  0  0  0  0  0  0  0  0
  159.9530  211.1980  154.3440 C   0  0  2  0  0  3  0  0  0  0  0  0
  156.7540  214.0160  151.8950 C   0  0  0  0  0  3  0  0  0  0  0  0
  159.1820  213.6790  151.5810 N   0  0  0  0  0  0  0  0  0  0  0  0
  157.8510  213.7980  151.0480 C   0  0  0  0  0  0  0  0  0  0  0  0
  158.8230  213.3910  148.7670 C   0  0  1  0  0  3  0  0  0  0  0  0
  161.1100  213.8120  144.4410 S   0  0  0  0  0  0  0  0  0  0  0  0
  160.1250  208.9170  152.7090 S   0  0  0  0  0  0  0  0  0  0  0  0
  159.7440  211.7390  152.9250 C   0  0  2  0  0  3  0  0  0  0  0  0
  161.9750  213.8270  146.0460 C   0  0  0  0  0  2  0  0  0  0  0  0
  161.3340  210.0970  151.9930 C   0  0  0  0  0  2  0  0  0  0  0  0
  156.3400  213.7400  149.1460 C   0  0  0  0  0  3  0  0  0  0  0  0
  157.6440  213.6820  149.6610 C   0  0  0  0  0  0  0  0  0  0  0  0
  158.5750  213.9060  147.4130 N   0  0  0  0  0  2  0  0  0  0  0  0
  160.6340  211.9370  150.6980 C   0  0  0  0  0  2  0  0  0  0  0  0
  162.3310  214.4530  148.9560 O   0  0  0  0  0  1  0  0  0  0  0  0
  158.7530  212.7270  144.5880 C   0  0  0  0  0  1  0  0  0  0  0  0
  160.0580  213.9850  149.3370 N   0  0  1  0  0  0  0  0  0  0  0  0
  159.6980  213.4820  146.5890 C   0  0  2  0  0  3  0  0  0  0  0  0
  161.0000  211.8720  154.9810 O   0  0  0  0  0  0  0  0  0  0  0  0
  160.6690  211.8520  156.3380 C   0  0  0  0  0  2  0  0  0  0  0  0
  159.5270  212.7720  156.5860 C   0  0  0  0  0  0  0  0  0  0  0  0
  158.3960  212.3060  156.8820 O   0  0  0  0  0  0  0  0  0  0  0  0
  159.7220  214.1790  156.5280 N   0  0  0  0  0  1  0  0  0  0  0  0
  2 23  1  6  0  0  0
  2 12  1  0  0  0  0
  3 11  1  0  0  0  0
  4  3  2  0  0  0  0
  5 24  1  1  0  0  0
  5 26  1  0  0  0  0
  6 18  1  6  0  0  0
  6  5  1  0  0  0  0
  7 23  1  6  0  0  0
  7 17  1  0  0  0  0
  9 27  1  0  0  0  0
 10  1  1  0  0  0  0
 10 28  1  6  0  0  0
 12  8  1  0  0  0  0
 13 12  1  0  0  0  0
 13 11  2  0  0  0  0
 14 22  1  6  0  0  0
 14 26  1  0  0  0  0
 14 21  1  0  0  0  0
 15  9  1  0  0  0  0
 15 18  1  0  0  0  0
 16  1  1  0  0  0  0
 17  8  1  1  0  0  0
 17 10  1  0  0  0  0
 19  7  1  0  0  0  0
 19 16  1  0  0  0  0
 20 21  2  0  0  0  0
 20  4  1  0  0  0  0
 21 13  1  0  0  0  0
 25  9  1  0  0  0  0
 26  2  1  0  0  0  0
 27  6  1  0  0  0  0
 27 22  1  0  0  0  0
 28 29  1  0  0  0  0
 29 30  1  0  0  0  0
 30 31  2  0  0  0  0
 32 30  1  0  0  0  0
M  END
>  <MODEL>
2

>  <REMARK>
 VINA RESULT:      -3.8      2.029      2.273
  Name = 
  3 active torsions:
  status: ('A' for Active; 'I' for Inactive)
    1  A    between atoms: C_10  and  O_20
    2  A    between atoms: O_20  and  C_29
    3  A    between atoms: C_29  and  C_30
                            x       y       z     vdW  Elec       q    Type
                         _______ _______ _______ _____ _____    ______ ____

>  <TORSDO>
F 3

$$$$
=
 OpenBabel11122412563D

 32 37  0  0  1  0  0  0  0  0999 V2000
  160.8260  206.0280  150.9310 C   0  0  0  0  0  2  0  0  0  0  0  0
  162.2800  210.8650  149.4960 C   0  0  1  0  0  3  0  0  0  0  0  0
  158.4610  212.6840  152.0590 C   0  0  0  0  0  3  0  0  0  0  0  0
  158.0550  213.4010  150.9330 C   0  0  0  0  0  3  0  0  0  0  0  0
  162.9650  211.9890  147.4720 C   0  0  1  0  0  3  0  0  0  0  0  0
  162.7600  213.2190  146.6030 C   0  0  1  0  0  3  0  0  0  0  0  0
  162.0420  208.4260  149.5850 N   0  0  1  0  0  0  0  0  0  0  0  0
  161.6200  209.7860  151.6130 C   0  0  0  0  0  2  0  0  0  0  0  0
  161.1210  214.4530  145.4000 N   0  0  0  0  0  0  0  0  0  0  0  0
  161.3040  207.2800  151.6760 C   0  0  2  0  0  3  0  0  0  0  0  0
  159.6050  211.8830  152.0020 C   0  0  0  0  0  3  0  0  0  0  0  0
  161.5140  210.9500  150.7410 N   0  0  0  0  0  0  0  0  0  0  0  0
  160.3540  211.7980  150.8190 C   0  0  0  0  0  0  0  0  0  0  0  0
  160.7410  212.4010  148.4110 C   0  0  1  0  0  3  0  0  0  0  0  0
  162.4330  214.2930  144.2070 S   0  0  0  0  0  0  0  0  0  0  0  0
  160.1650  206.3850  149.2660 S   0  0  0  0  0  0  0  0  0  0  0  0
  161.2210  208.5430  150.8100 C   0  0  2  0  0  3  0  0  0  0  0  0
  163.3750  213.1220  145.2380 C   0  0  0  0  0  2  0  0  0  0  0  0
  161.7020  207.2520  148.7630 C   0  0  0  0  0  2  0  0  0  0  0  0
  158.7960  213.3250  149.7510 C   0  0  0  0  0  3  0  0  0  0  0  0
  159.9600  212.5430  149.6930 C   0  0  0  0  0  0  0  0  0  0  0  0
  160.6190  213.6210  147.6020 N   0  0  0  0  0  2  0  0  0  0  0  0
  161.8330  209.6040  148.7390 C   0  0  0  0  0  2  0  0  0  0  0  0
  164.3210  211.8780  147.7960 O   0  0  0  0  0  1  0  0  0  0  0  0
  159.8800  214.2130  144.6840 C   0  0  0  0  0  1  0  0  0  0  0  0
  162.1650  212.1080  148.7070 N   0  0  1  0  0  0  0  0  0  0  0  0
  161.2940  213.3580  146.3390 C   0  0  2  0  0  3  0  0  0  0  0  0
  162.6110  207.0780  152.1290 O   0  0  0  0  0  0  0  0  0  0  0  0
  162.4750  206.3160  153.2930 C   0  0  0  0  0  2  0  0  0  0  0  0
  161.4300  206.9180  154.1620 C   0  0  0  0  0  0  0  0  0  0  0  0
  160.3960  206.2610  154.4500 O   0  0  0  0  0  0  0  0  0  0  0  0
  161.6170  208.2200  154.7010 N   0  0  0  0  0  1  0  0  0  0  0  0
  1 10  1  0  0  0  0
  2 23  1  6  0  0  0
  2 12  1  0  0  0  0
  4  3  2  0  0  0  0
  5 24  1  1  0  0  0
  5 26  1  0  0  0  0
  6 18  1  6  0  0  0
  6  5  1  0  0  0  0
  7 23  1  6  0  0  0
  7 17  1  0  0  0  0
  9 27  1  0  0  0  0
 10 28  1  6  0  0  0
 11  3  1  0  0  0  0
 12 13  1  0  0  0  0
 12  8  1  0  0  0  0
 13 11  2  0  0  0  0
 14 22  1  1  0  0  0
 14 26  1  0  0  0  0
 14 21  1  0  0  0  0
 15 18  1  0  0  0  0
 15  9  1  0  0  0  0
 16  1  1  0  0  0  0
 17  8  1  1  0  0  0
 17 10  1  0  0  0  0
 19 16  1  0  0  0  0
 19  7  1  0  0  0  0
 20  4  1  0  0  0  0
 21 20  2  0  0  0  0
 21 13  1  0  0  0  0
 25  9  1  0  0  0  0
 26  2  1  0  0  0  0
 27  6  1  0  0  0  0
 27 22  1  0  0  0  0
 28 29  1  0  0  0  0
 29 30  1  0  0  0  0
 30 31  2  0  0  0  0
 30 32  1  0  0  0  0
M  END
>  <MODEL>
3

>  <REMARK>
 VINA RESULT:      -2.8      2.125      2.636
  Name = 
  3 active torsions:
  status: ('A' for Active; 'I' for Inactive)
    1  A    between atoms: C_10  and  O_20
    2  A    between atoms: O_20  and  C_29
    3  A    between atoms: C_29  and  C_30
                            x       y       z     vdW  Elec       q    Type
                         _______ _______ _______ _____ _____    ______ ____

>  <TORSDO>
F 3

$$$$
