=
 OpenBabel11122413333D

 37 44  0  0  1  0  0  0  0  0999 V2000
  161.2140  204.4440  147.7470 O   0  0  0  0  0  0  0  0  0  0  0  0
  160.9540  203.3740  151.9610 C   0  0  0  0  0  0  0  0  0  0  0  0
  160.9750  207.5950  151.1910 C   0  0  1  0  0  3  0  0  0  0  0  0
  161.9450  203.7210  146.7900 C   0  0  2  0  0  3  0  0  0  0  0  0
  161.1710  208.4810  147.5960 O   0  0  0  0  0  0  0  0  0  0  0  0
  161.1200  205.7030  152.8430 C   0  0  2  0  0  3  0  0  0  0  0  0
  161.5490  207.4910  149.8490 N   0  0  0  0  0  0  0  0  0  0  0  0
  160.9260  205.5070  145.2940 C   0  0  0  0  0  0  0  0  0  0  0  0
  160.8820  206.1710  151.6230 C   0  0  2  0  0  3  0  0  0  0  0  0
  161.5490  208.6380  148.9490 C   0  0  0  0  0  0  0  0  0  0  0  0
  161.5120  206.6510  153.9010 C   0  0  0  0  0  3  0  0  0  0  0  0
  161.5660  204.1440  145.3670 C   0  0  0  0  0  2  0  0  0  0  0  0
  161.2090  205.3290  150.5300 C   0  0  0  0  0  0  0  0  0  0  0  0
  159.4860  202.9890  151.9610 C   0  0  0  0  0  1  0  0  0  0  0  0
  162.3870  209.5250  151.8700 C   0  0  0  0  0  3  0  0  0  0  0  0
  161.8750  207.9010  153.5710 C   0  0  0  0  0  3  0  0  0  0  0  0
  161.2940  203.9470  150.6850 O   0  0  0  0  0  0  0  0  0  0  0  0
  161.6070  206.7480  145.8090 C   0  0  1  0  0  3  0  0  0  0  0  0
  160.9200  207.1980  147.0780 C   0  0  1  0  0  3  0  0  0  0  0  0
  161.8290  208.3570  152.1580 C   0  0  0  0  0  0  0  0  0  0  0  0
  161.5820  206.0670  149.5020 C   0  0  0  0  0  0  0  0  0  0  0  0
  161.2020  204.3110  153.0330 O   0  0  0  0  0  0  0  0  0  0  0  0
  161.9000  209.8820  149.3640 C   0  0  0  0  0  0  0  0  0  0  0  0
  161.7830  202.1270  152.1840 C   0  0  0  0  0  1  0  0  0  0  0  0
  162.2960  206.5560  147.1580 C   0  0  1  0  0  3  0  0  0  0  0  0
  159.8320  205.6090  144.7630 O   0  0  0  0  0  0  0  0  0  0  0  0
  162.0800  205.4580  148.1970 C   0  0  2  0  0  3  0  0  0  0  0  0
  162.3580  210.2200  150.6530 O   0  0  0  0  0  0  0  0  0  0  0  0
  163.0410  211.7840  148.2350 C   0  0  0  0  0  3  0  0  0  0  0  0
  161.8760  211.0260  148.4190 C   0  0  0  0  0  0  0  0  0  0  0  0
  160.7440  211.3240  147.6410 C   0  0  0  0  0  3  0  0  0  0  0  0
  159.3430  212.7460  145.7790 Cl  0  0  0  0  0  0  0  0  0  0  0  0
  161.9290  213.1390  146.5650 C   0  0  0  0  0  3  0  0  0  0  0  0
  160.7670  212.3800  146.7260 C   0  0  0  0  0  0  0  0  0  0  0  0
  163.0670  212.8390  147.3180 C   0  0  0  0  0  3  0  0  0  0  0  0
  160.8030  201.9790  148.1540 C   0  0  0  0  0  1  0  0  0  0  0  0
  161.7010  202.2330  146.9590 C   0  0  0  0  0  2  0  0  0  0  0  0
  1 27  1  0  0  0  0
  2 14  1  0  0  0  0
  2 24  1  0  0  0  0
  2 22  1  0  0  0  0
  3  9  1  0  0  0  0
  3 20  1  1  0  0  0
  4 37  1  6  0  0  0
  4  1  1  0  0  0  0
  5 10  1  0  0  0  0
  6 22  1  0  0  0  0
  6 11  1  6  0  0  0
  7  3  1  0  0  0  0
  8 12  1  0  0  0  0
  9 13  1  6  0  0  0
  9  6  1  0  0  0  0
 10 23  2  0  0  0  0
 10  7  1  0  0  0  0
 12  4  1  0  0  0  0
 13 17  1  0  0  0  0
 15 20  2  0  0  0  0
 16 11  2  0  0  0  0
 17  2  1  0  0  0  0
 18  8  1  1  0  0  0
 18 19  1  0  0  0  0
 18 25  1  0  0  0  0
 19 25  1  0  0  0  0
 19  5  1  6  0  0  0
 20 16  1  0  0  0  0
 21  7  1  0  0  0  0
 21 13  2  0  0  0  0
 23 28  1  0  0  0  0
 25 27  1  0  0  0  0
 26  8  2  0  0  0  0
 27 21  1  0  0  0  0
 28 15  1  0  0  0  0
 29 30  1  0  0  0  0
 30 23  1  0  0  0  0
 31 30  2  0  0  0  0
 32 34  1  0  0  0  0
 33 34  2  0  0  0  0
 33 35  1  0  0  0  0
 34 31  1  0  0  0  0
 35 29  2  0  0  0  0
 37 36  1  0  0  0  0
M  END
>  <MODEL>
1

>  <REMARK>
 VINA RESULT:      -5.6      0.000      0.000
  Name = 
  2 active torsions:
  status: ('A' for Active; 'I' for Inactive)
    1  A    between atoms: C_4  and  C_37
    2  A    between atoms: C_23  and  C_30
                            x       y       z     vdW  Elec       q    Type
                         _______ _______ _______ _____ _____    ______ ____

>  <TORSDO>
F 2

$$$$
=
 OpenBabel11122413333D

 37 44  0  0  1  0  0  0  0  0999 V2000
  161.2350  207.5600  153.7220 O   0  0  0  0  0  0  0  0  0  0  0  0
  161.1330  203.6120  151.8850 C   0  0  0  0  0  0  0  0  0  0  0  0
  162.0040  206.8200  149.1710 C   0  0  1  0  0  3  0  0  0  0  0  0
  160.4030  207.9620  154.7790 C   0  0  2  0  0  3  0  0  0  0  0  0
  162.1100  210.1670  150.7630 O   0  0  0  0  0  0  0  0  0  0  0  0
  161.4200  204.3990  149.5330 C   0  0  2  0  0  3  0  0  0  0  0  0
  161.4640  207.8790  150.0260 N   0  0  0  0  0  0  0  0  0  0  0  0
  161.8140  210.0610  154.5190 C   0  0  0  0  0  0  0  0  0  0  0  0
  161.7880  205.5920  149.9890 C   0  0  2  0  0  3  0  0  0  0  0  0
  161.7290  209.2810  149.7300 C   0  0  0  0  0  0  0  0  0  0  0  0
  161.1970  204.2330  148.0860 C   0  0  0  0  0  3  0  0  0  0  0  0
  160.9060  209.2620  155.4180 C   0  0  0  0  0  2  0  0  0  0  0  0
  161.3310  205.9630  151.2790 C   0  0  0  0  0  0  0  0  0  0  0  0
  162.4890  203.1460  152.3790 C   0  0  0  0  0  1  0  0  0  0  0  0
  160.9970  207.7110  147.0810 C   0  0  0  0  0  3  0  0  0  0  0  0
  161.1090  205.3160  147.3000 C   0  0  0  0  0  3  0  0  0  0  0  0
  160.9590  205.0010  152.2160 O   0  0  0  0  0  0  0  0  0  0  0  0
  161.3860  210.5380  153.1560 C   0  0  1  0  0  3  0  0  0  0  0  0
  162.1080  209.7330  152.1010 C   0  0  1  0  0  3  0  0  0  0  0  0
  161.2930  206.6800  147.8600 C   0  0  0  0  0  0  0  0  0  0  0  0
  161.1510  207.2690  151.3230 C   0  0  0  0  0  0  0  0  0  0  0  0
  161.0480  203.4040  150.4570 O   0  0  0  0  0  0  0  0  0  0  0  0
  161.6270  209.7850  148.4740 C   0  0  0  0  0  0  0  0  0  0  0  0
  160.0590  202.7970  152.5740 C   0  0  0  0  0  1  0  0  0  0  0  0
  160.6290  209.4880  152.3470 C   0  0  1  0  0  3  0  0  0  0  0  0
  162.9230  210.3640  154.9310 O   0  0  0  0  0  0  0  0  0  0  0  0
  160.5810  207.9740  152.5470 C   0  0  2  0  0  3  0  0  0  0  0  0
  161.2060  209.0730  147.3330 O   0  0  0  0  0  0  0  0  0  0  0  0
  163.1970  211.7170  148.4930 C   0  0  0  0  0  3  0  0  0  0  0  0
  161.9160  211.2180  148.2120 C   0  0  0  0  0  0  0  0  0  0  0  0
  160.9710  212.0700  147.6160 C   0  0  0  0  0  3  0  0  0  0  0  0
  160.0950  214.4530  146.6140 Cl  0  0  0  0  0  0  0  0  0  0  0  0
  162.5620  213.8930  147.6420 C   0  0  0  0  0  3  0  0  0  0  0  0
  161.2900  213.4030  147.3420 C   0  0  0  0  0  0  0  0  0  0  0  0
  163.5170  213.0490  148.2150 C   0  0  0  0  0  3  0  0  0  0  0  0
  160.5930  207.4550  157.2090 C   0  0  0  0  0  1  0  0  0  0  0  0
  160.3300  206.8730  155.8340 C   0  0  0  0  0  2  0  0  0  0  0  0
  1  4  1  0  0  0  0
  2 17  1  0  0  0  0
  2 14  1  0  0  0  0
  2 24  1  0  0  0  0
  3 20  1  6  0  0  0
  3  9  1  0  0  0  0
  3  7  1  0  0  0  0
  4 12  1  0  0  0  0
  4 37  1  1  0  0  0
  6 11  1  6  0  0  0
  6  9  1  0  0  0  0
  6 22  1  0  0  0  0
  7 21  1  0  0  0  0
  8 26  2  0  0  0  0
  8 12  1  0  0  0  0
  9 13  1  1  0  0  0
 10  7  1  0  0  0  0
 10  5  1  0  0  0  0
 13 21  2  0  0  0  0
 13 17  1  0  0  0  0
 15 28  1  0  0  0  0
 15 20  2  0  0  0  0
 16 20  1  0  0  0  0
 16 11  2  0  0  0  0
 18  8  1  1  0  0  0
 19  5  1  6  0  0  0
 19 25  1  0  0  0  0
 19 18  1  0  0  0  0
 21 27  1  0  0  0  0
 22  2  1  0  0  0  0
 23 10  2  0  0  0  0
 25 27  1  0  0  0  0
 25 18  1  0  0  0  0
 27  1  1  0  0  0  0
 28 23  1  0  0  0  0
 30 23  1  0  0  0  0
 30 29  2  0  0  0  0
 31 30  1  0  0  0  0
 32 34  1  0  0  0  0
 33 35  2  0  0  0  0
 34 31  2  0  0  0  0
 34 33  1  0  0  0  0
 35 29  1  0  0  0  0
 37 36  1  0  0  0  0
M  END
>  <MODEL>
2

>  <REMARK>
 VINA RESULT:      -4.9      1.602      5.474
  Name = 
  2 active torsions:
  status: ('A' for Active; 'I' for Inactive)
    1  A    between atoms: C_4  and  C_37
    2  A    between atoms: C_23  and  C_30
                            x       y       z     vdW  Elec       q    Type
                         _______ _______ _______ _____ _____    ______ ____

>  <TORSDO>
F 2

$$$$
=
 OpenBabel11122413333D

 37 44  0  0  1  0  0  0  0  0999 V2000
  161.5200  211.8510  150.6680 O   0  0  0  0  0  0  0  0  0  0  0  0
  160.9570  210.5080  154.7730 C   0  0  0  0  0  0  0  0  0  0  0  0
  161.8870  207.3810  151.9850 C   0  0  1  0  0  3  0  0  0  0  0  0
  160.8040  212.9030  150.0740 C   0  0  2  0  0  3  0  0  0  0  0  0
  162.3860  208.5520  148.5030 O   0  0  0  0  0  0  0  0  0  0  0  0
  161.1350  208.0660  154.2860 C   0  0  2  0  0  3  0  0  0  0  0  0
  161.5010  208.1360  150.7920 N   0  0  0  0  0  0  0  0  0  0  0  0
  162.3600  212.3050  148.1550 C   0  0  0  0  0  0  0  0  0  0  0  0
  161.6320  208.3510  153.0880 C   0  0  2  0  0  3  0  0  0  0  0  0
  161.8580  207.6590  149.4620 C   0  0  0  0  0  0  0  0  0  0  0  0
  160.7920  206.6660  154.5950 C   0  0  0  0  0  3  0  0  0  0  0  0
  161.4580  213.3490  148.7620 C   0  0  0  0  0  2  0  0  0  0  0  0
  161.3040  209.6140  152.5330 C   0  0  0  0  0  0  0  0  0  0  0  0
  162.3040  210.9670  155.3010 C   0  0  0  0  0  1  0  0  0  0  0  0
  160.8060  205.2670  151.2490 C   0  0  0  0  0  3  0  0  0  0  0  0
  160.7360  205.7630  153.6040 C   0  0  0  0  0  3  0  0  0  0  0  0
  160.9240  210.6820  153.3450 O   0  0  0  0  0  0  0  0  0  0  0  0
  161.8740  210.9250  147.7980 C   0  0  1  0  0  3  0  0  0  0  0  0
  162.4480  209.9300  148.7810 C   0  0  1  0  0  3  0  0  0  0  0  0
  161.0730  206.1440  152.2080 C   0  0  0  0  0  0  0  0  0  0  0  0
  161.2350  209.5140  151.2190 C   0  0  0  0  0  0  0  0  0  0  0  0
  160.7500  209.1240  155.1320 O   0  0  0  0  0  0  0  0  0  0  0  0
  161.7060  206.3600  149.0960 C   0  0  0  0  0  0  0  0  0  0  0  0
  159.8730  211.3560  155.4030 C   0  0  0  0  0  1  0  0  0  0  0  0
  160.9750  210.2960  148.8610 C   0  0  1  0  0  3  0  0  0  0  0  0
  163.5170  212.6070  147.9090 O   0  0  0  0  0  0  0  0  0  0  0  0
  160.8180  210.6790  150.3310 C   0  0  2  0  0  3  0  0  0  0  0  0
  161.1450  205.3420  149.8920 O   0  0  0  0  0  0  0  0  0  0  0  0
  163.2550  205.1440  147.5740 C   0  0  0  0  0  3  0  0  0  0  0  0
  162.0920  205.9120  147.7350 C   0  0  0  0  0  0  0  0  0  0  0  0
  161.2860  206.1640  146.6120 C   0  0  0  0  0  3  0  0  0  0  0  0
  160.6460  206.0280  143.9610 Cl  0  0  0  0  0  0  0  0  0  0  0  0
  162.8240  204.9410  145.2000 C   0  0  0  0  0  3  0  0  0  0  0  0
  161.6550  205.6890  145.3500 C   0  0  0  0  0  0  0  0  0  0  0  0
  163.6230  204.6650  146.3130 C   0  0  0  0  0  3  0  0  0  0  0  0
  159.3290  214.1790  151.6210 C   0  0  0  0  0  1  0  0  0  0  0  0
  160.7190  214.0830  151.0260 C   0  0  0  0  0  2  0  0  0  0  0  0
  2 22  1  0  0  0  0
  2 14  1  0  0  0  0
  2 24  1  0  0  0  0
  3 20  1  1  0  0  0
  3  9  1  0  0  0  0
  4  1  1  0  0  0  0
  4 37  1  1  0  0  0
  5 10  1  0  0  0  0
  6 11  1  6  0  0  0
  6 22  1  0  0  0  0
  7 21  1  0  0  0  0
  7  3  1  0  0  0  0
  8 12  1  0  0  0  0
  9 13  1  6  0  0  0
  9  6  1  0  0  0  0
 10  7  1  0  0  0  0
 12  4  1  0  0  0  0
 13 17  1  0  0  0  0
 15 20  2  0  0  0  0
 16 11  2  0  0  0  0
 17  2  1  0  0  0  0
 18  8  1  1  0  0  0
 18 19  1  0  0  0  0
 18 25  1  0  0  0  0
 19  5  1  6  0  0  0
 19 25  1  0  0  0  0
 20 16  1  0  0  0  0
 21 13  2  0  0  0  0
 23 10  2  0  0  0  0
 23 28  1  0  0  0  0
 25 27  1  0  0  0  0
 26  8  2  0  0  0  0
 27  1  1  0  0  0  0
 27 21  1  0  0  0  0
 28 15  1  0  0  0  0
 29 30  1  0  0  0  0
 30 23  1  0  0  0  0
 31 30  2  0  0  0  0
 32 34  1  0  0  0  0
 33 34  2  0  0  0  0
 33 35  1  0  0  0  0
 34 31  1  0  0  0  0
 35 29  2  0  0  0  0
 37 36  1  0  0  0  0
M  END
>  <MODEL>
3

>  <REMARK>
 VINA RESULT:      -3.5      2.497      6.532
  Name = 
  2 active torsions:
  status: ('A' for Active; 'I' for Inactive)
    1  A    between atoms: C_4  and  C_37
    2  A    between atoms: C_23  and  C_30
                            x       y       z     vdW  Elec       q    Type
                         _______ _______ _______ _____ _____    ______ ____

>  <TORSDO>
F 2

$$$$
=
 OpenBabel11122413333D

 37 44  0  0  1  0  0  0  0  0999 V2000
  161.2760  203.1060  149.5530 O   0  0  0  0  0  0  0  0  0  0  0  0
  162.0210  205.5960  146.0580 C   0  0  0  0  0  0  0  0  0  0  0  0
  162.2060  207.6800  149.8040 C   0  0  1  0  0  3  0  0  0  0  0  0
  160.3720  202.0310  149.5810 C   0  0  2  0  0  3  0  0  0  0  0  0
  161.5940  205.5340  152.7660 O   0  0  0  0  0  0  0  0  0  0  0  0
  162.1470  207.7630  147.2910 C   0  0  2  0  0  3  0  0  0  0  0  0
  161.4510  206.6790  150.5600 N   0  0  0  0  0  0  0  0  0  0  0  0
  161.3090  201.8680  151.9400 C   0  0  0  0  0  0  0  0  0  0  0  0
  162.2520  207.0950  148.4340 C   0  0  2  0  0  3  0  0  0  0  0  0
  161.4140  206.7190  152.0170 C   0  0  0  0  0  0  0  0  0  0  0  0
  161.9710  209.2250  147.3390 C   0  0  0  0  0  3  0  0  0  0  0  0
  160.5860  201.1590  150.8230 C   0  0  0  0  0  2  0  0  0  0  0  0
  161.7200  205.7810  148.4690 C   0  0  0  0  0  0  0  0  0  0  0  0
  163.4430  205.1320  145.8040 C   0  0  0  0  0  1  0  0  0  0  0  0
  161.0440  209.6270  150.8220 C   0  0  0  0  0  3  0  0  0  0  0  0
  161.6600  209.8170  148.5030 C   0  0  0  0  0  3  0  0  0  0  0  0
  161.5560  205.0390  147.3000 O   0  0  0  0  0  0  0  0  0  0  0  0
  160.7960  203.1460  152.5500 C   0  0  1  0  0  3  0  0  0  0  0  0
  161.6780  204.2920  152.1110 C   0  0  1  0  0  3  0  0  0  0  0  0
  161.5480  209.0250  149.7540 C   0  0  0  0  0  0  0  0  0  0  0  0
  161.2670  205.5200  149.6800 C   0  0  0  0  0  0  0  0  0  0  0  0
  161.9890  207.0400  146.0930 O   0  0  0  0  0  0  0  0  0  0  0  0
  161.2140  207.8730  152.7020 C   0  0  0  0  0  0  0  0  0  0  0  0
  161.1410  205.1020  144.9300 C   0  0  0  0  0  1  0  0  0  0  0  0
  160.2820  204.1550  151.5260 C   0  0  1  0  0  3  0  0  0  0  0  0
  162.3260  201.3640  152.3880 O   0  0  0  0  0  0  0  0  0  0  0  0
  160.5550  204.2190  150.0240 C   0  0  2  0  0  3  0  0  0  0  0  0
  160.9590  209.1360  152.1310 O   0  0  0  0  0  0  0  0  0  0  0  0
  160.4590  206.8860  154.8590 C   0  0  0  0  0  3  0  0  0  0  0  0
  161.1950  207.8730  154.1870 C   0  0  0  0  0  0  0  0  0  0  0  0
  161.9560  208.7820  154.9410 C   0  0  0  0  0  3  0  0  0  0  0  0
  162.8940  209.8780  157.2580 Cl  0  0  0  0  0  0  0  0  0  0  0  0
  161.2010  207.7510  156.9950 C   0  0  0  0  0  3  0  0  0  0  0  0
  161.9520  208.7270  156.3370 C   0  0  0  0  0  0  0  0  0  0  0  0
  160.4570  206.8280  156.2560 C   0  0  0  0  0  3  0  0  0  0  0  0
  160.9090  202.0530  147.1510 C   0  0  0  0  0  1  0  0  0  0  0  0
  160.5260  201.1830  148.3320 C   0  0  0  0  0  2  0  0  0  0  0  0
  1  4  1  0  0  0  0
  1 27  1  0  0  0  0
  2 22  1  0  0  0  0
  2 17  1  0  0  0  0
  3 20  1  6  0  0  0
  3  7  1  0  0  0  0
  4 37  1  6  0  0  0
  4 12  1  0  0  0  0
  6 11  1  1  0  0  0
  6  9  1  0  0  0  0
  7 10  1  0  0  0  0
  8 26  2  0  0  0  0
  9 13  1  1  0  0  0
  9  3  1  0  0  0  0
 10 23  2  0  0  0  0
 10  5  1  0  0  0  0
 11 16  2  0  0  0  0
 12  8  1  0  0  0  0
 13 21  2  0  0  0  0
 14  2  1  0  0  0  0
 15 28  1  0  0  0  0
 16 20  1  0  0  0  0
 17 13  1  0  0  0  0
 18  8  1  6  0  0  0
 19 18  1  0  0  0  0
 19  5  1  1  0  0  0
 20 15  2  0  0  0  0
 21 27  1  0  0  0  0
 21  7  1  0  0  0  0
 22  6  1  0  0  0  0
 23 30  1  0  0  0  0
 24  2  1  0  0  0  0
 25 19  1  0  0  0  0
 25 18  1  0  0  0  0
 27 25  1  0  0  0  0
 28 23  1  0  0  0  0
 29 35  1  0  0  0  0
 30 29  2  0  0  0  0
 30 31  1  0  0  0  0
 31 34  2  0  0  0  0
 34 33  1  0  0  0  0
 34 32  1  0  0  0  0
 35 33  2  0  0  0  0
 36 37  1  0  0  0  0
M  END
>  <MODEL>
4

>  <REMARK>
 VINA RESULT:      -3.4      2.623      6.324
  Name = 
  2 active torsions:
  status: ('A' for Active; 'I' for Inactive)
    1  A    between atoms: C_4  and  C_37
    2  A    between atoms: C_23  and  C_30
                            x       y       z     vdW  Elec       q    Type
                         _______ _______ _______ _____ _____    ______ ____

>  <TORSDO>
F 2

$$$$
