=
 OpenBabel11122414133D

 28 32  0  0  1  0  0  0  0  0999 V2000
  163.0750  211.9360  139.2130 C   0  0  0  0  0  0  0  0  0  0  0  0
  161.3340  212.0180  142.1990 O   0  0  0  0  0  1  0  0  0  0  0  0
  157.5520  213.8180  137.0130 C   0  0  0  0  0  1  0  0  0  0  0  0
  164.8580  214.0880  138.9240 C   0  0  0  0  0  3  0  0  0  0  0  0
  157.8430  213.3280  139.4350 C   0  0  2  0  0  3  0  0  0  0  0  0
  162.1910  210.7270  139.3180 C   0  0  0  0  0  2  0  0  0  0  0  0
  163.0260  213.6760  142.3780 C   0  0  0  0  0  1  0  0  0  0  0  0
  161.5360  213.3950  142.3240 C   0  0  1  0  0  0  0  0  0  0  0  0
  159.6040  214.0660  143.6930 C   0  0  0  0  0  0  0  0  0  0  0  0
  160.8680  214.1590  141.1520 C   0  0  2  0  0  3  0  0  0  0  0  0
  159.5240  209.7310  137.6590 O   0  0  0  0  0  0  0  0  0  0  0  0
  160.0960  212.6990  139.3890 C   0  0  1  0  0  3  0  0  0  0  0  0
  158.6770  213.8180  142.5480 C   0  0  0  0  0  2  0  0  0  0  0  0
  160.9730  213.8440  143.5520 O   0  0  0  0  0  0  0  0  0  0  0  0
  160.4680  210.5520  137.5300 C   0  0  0  0  0  0  0  0  0  0  0  0
  162.6140  213.2700  139.4000 C   0  0  0  0  0  0  0  0  0  0  0  0
  158.1490  212.8600  138.0250 C   0  0  2  0  0  3  0  0  0  0  0  0
  159.1310  214.4510  144.8300 N   0  0  0  0  0  2  0  0  0  0  0  0
  160.2040  211.8830  137.0830 N   0  0  0  0  0  2  0  0  0  0  0  0
  163.5200  214.3270  139.2400 C   0  0  0  0  0  3  0  0  0  0  0  0
  164.4230  211.7130  138.8990 C   0  0  0  0  0  3  0  0  0  0  0  0
  165.3090  212.7800  138.7560 C   0  0  0  0  0  3  0  0  0  0  0  0
  161.8530  210.1670  137.9360 C   0  0  0  0  0  2  0  0  0  0  0  0
  158.9610  212.9200  140.2830 N   0  0  1  0  0  0  0  0  0  0  0  0
  159.6500  212.9140  137.9600 C   0  0  2  0  0  3  0  0  0  0  0  0
  159.3310  214.0230  141.1720 C   0  0  2  0  0  3  0  0  0  0  0  0
  156.5610  212.6810  139.9260 C   0  0  0  0  0  1  0  0  0  0  0  0
  161.1940  213.6620  139.7500 C   0  0  2  0  0  3  0  0  0  0  0  0
  1  6  1  0  0  0  0
  1 16  1  0  0  0  0
  2  8  1  0  0  0  0
  3 17  1  0  0  0  0
  4 20  1  0  0  0  0
  5 27  1  1  0  0  0
  5 24  1  0  0  0  0
  8  7  1  6  0  0  0
  8 14  1  0  0  0  0
  9 18  2  0  0  0  0
 10 26  1  0  0  0  0
 10  8  1  0  0  0  0
 12 28  1  0  0  0  0
 12 24  1  0  0  0  0
 13  9  1  0  0  0  0
 14  9  1  0  0  0  0
 15 11  2  0  0  0  0
 15 23  1  0  0  0  0
 16 28  1  0  0  0  0
 17  5  1  0  0  0  0
 19 15  1  0  0  0  0
 19 25  1  0  0  0  0
 20 16  2  0  0  0  0
 21  1  2  0  0  0  0
 22 21  1  0  0  0  0
 22  4  2  0  0  0  0
 23  6  1  0  0  0  0
 24 26  1  0  0  0  0
 25 17  1  0  0  0  0
 25 12  1  0  0  0  0
 26 13  1  0  0  0  0
 28 10  1  0  0  0  0
M  END
>  <MODEL>
1

>  <REMARK>
 VINA RESULT:      -4.2      0.000      0.000
  Name = 
  0 active torsions:
  status: ('A' for Active; 'I' for Inactive)
                            x       y       z     vdW  Elec       q    Type
                         _______ _______ _______ _____ _____    ______ ____

>  <TORSDO>
F 0

$$$$
=
 OpenBabel11122414133D

 28 32  0  0  1  0  0  0  0  0999 V2000
  161.0760  209.5380  156.0910 C   0  0  0  0  0  0  0  0  0  0  0  0
  162.6130  210.3240  153.0950 O   0  0  0  0  0  1  0  0  0  0  0  0
  156.7720  213.4490  153.8430 C   0  0  0  0  0  1  0  0  0  0  0  0
  159.9380  206.9690  156.0980 C   0  0  0  0  0  3  0  0  0  0  0  0
  158.8590  213.0010  152.5630 C   0  0  2  0  0  3  0  0  0  0  0  0
  161.7090  210.8960  156.1870 C   0  0  0  0  0  2  0  0  0  0  0  0
  162.1020  208.0070  152.9840 C   0  0  0  0  0  1  0  0  0  0  0  0
  161.8400  209.3840  152.4070 C   0  0  1  0  0  0  0  0  0  0  0  0
  161.8100  210.3250  150.1330 C   0  0  0  0  0  0  0  0  0  0  0  0
  160.3340  209.7440  152.4880 C   0  0  2  0  0  3  0  0  0  0  0  0
  160.4820  213.9390  156.4880 O   0  0  0  0  0  0  0  0  0  0  0  0
  159.8670  211.5160  154.0640 C   0  0  1  0  0  3  0  0  0  0  0  0
  160.9230  211.4410  150.5810 C   0  0  0  0  0  2  0  0  0  0  0  0
  162.2380  209.3580  151.0410 O   0  0  0  0  0  0  0  0  0  0  0  0
  160.1080  212.7470  156.6370 C   0  0  0  0  0  0  0  0  0  0  0  0
  160.1920  209.1500  155.0450 C   0  0  0  0  0  0  0  0  0  0  0  0
  158.2760  213.2840  153.9350 C   0  0  2  0  0  3  0  0  0  0  0  0
  162.2110  210.2770  148.9080 N   0  0  0  0  0  2  0  0  0  0  0  0
  158.8390  212.3260  156.1320 N   0  0  0  0  0  2  0  0  0  0  0  0
  159.6280  207.8670  155.0750 C   0  0  0  0  0  3  0  0  0  0  0  0
  161.3790  208.6220  157.1080 C   0  0  0  0  0  3  0  0  0  0  0  0
  160.8160  207.3460  157.1120 C   0  0  0  0  0  3  0  0  0  0  0  0
  161.0290  211.7480  157.2580 C   0  0  0  0  0  2  0  0  0  0  0  0
  160.0280  212.1450  152.7530 N   0  0  1  0  0  0  0  0  0  0  0  0
  158.6100  212.0440  154.7160 C   0  0  2  0  0  3  0  0  0  0  0  0
  160.0130  211.0670  151.7620 C   0  0  2  0  0  3  0  0  0  0  0  0
  159.2750  214.3020  151.9020 C   0  0  0  0  0  1  0  0  0  0  0  0
  159.7820  210.0250  153.8790 C   0  0  2  0  0  3  0  0  0  0  0  0
  1  6  1  0  0  0  0
  1 21  1  0  0  0  0
  3 17  1  0  0  0  0
  4 22  1  0  0  0  0
  5 27  1  1  0  0  0
  5 24  1  0  0  0  0
  5 17  1  0  0  0  0
  6 23  1  0  0  0  0
  8 10  1  0  0  0  0
  8  7  1  1  0  0  0
  8  2  1  0  0  0  0
  9 13  1  0  0  0  0
  9 14  1  0  0  0  0
 10 28  1  0  0  0  0
 11 15  2  0  0  0  0
 12 25  1  0  0  0  0
 13 26  1  0  0  0  0
 14  8  1  0  0  0  0
 15 23  1  0  0  0  0
 16 20  1  0  0  0  0
 16  1  2  0  0  0  0
 17 25  1  0  0  0  0
 18  9  2  0  0  0  0
 19 15  1  0  0  0  0
 20  4  2  0  0  0  0
 21 22  2  0  0  0  0
 24 12  1  0  0  0  0
 25 19  1  0  0  0  0
 26 10  1  0  0  0  0
 26 24  1  0  0  0  0
 28 12  1  0  0  0  0
 28 16  1  0  0  0  0
M  END
>  <MODEL>
2

>  <REMARK>
 VINA RESULT:      -4.2     11.206     15.113
  Name = 
  0 active torsions:
  status: ('A' for Active; 'I' for Inactive)
                            x       y       z     vdW  Elec       q    Type
                         _______ _______ _______ _____ _____    ______ ____

>  <TORSDO>
F 0

$$$$
=
 OpenBabel11122414133D

 28 32  0  0  1  0  0  0  0  0999 V2000
  160.2700  210.0140  138.2760 C   0  0  0  0  0  0  0  0  0  0  0  0
  160.0080  211.1170  141.5430 O   0  0  0  0  0  1  0  0  0  0  0  0
  155.9760  214.4530  137.4130 C   0  0  0  0  0  1  0  0  0  0  0  0
  162.6240  210.8830  137.0120 C   0  0  0  0  0  3  0  0  0  0  0  0
  156.8530  213.9740  139.6930 C   0  0  2  0  0  3  0  0  0  0  0  0
  159.0210  209.4620  138.8990 C   0  0  0  0  0  2  0  0  0  0  0  0
  162.2210  211.6330  140.8500 C   0  0  0  0  0  1  0  0  0  0  0  0
  160.8790  212.1820  141.2950 C   0  0  1  0  0  0  0  0  0  0  0  0
  160.1610  213.8240  142.9810 C   0  0  0  0  0  0  0  0  0  0  0  0
  160.2890  213.1390  140.2280 C   0  0  2  0  0  3  0  0  0  0  0  0
  155.8110  209.9690  138.3510 O   0  0  0  0  0  0  0  0  0  0  0  0
  158.3280  212.2460  139.1350 C   0  0  1  0  0  3  0  0  0  0  0  0
  158.8860  214.0630  142.2390 C   0  0  0  0  0  2  0  0  0  0  0  0
  161.0930  212.9060  142.5010 O   0  0  0  0  0  0  0  0  0  0  0  0
  156.9140  210.1610  137.7750 C   0  0  0  0  0  0  0  0  0  0  0  0
  160.6140  211.3960  138.2880 C   0  0  0  0  0  0  0  0  0  0  0  0
  156.3580  213.3630  138.3960 C   0  0  2  0  0  3  0  0  0  0  0  0
  160.3830  214.4440  144.0900 N   0  0  0  0  0  2  0  0  0  0  0  0
  157.1820  211.4120  137.1390 N   0  0  0  0  0  2  0  0  0  0  0  0
  161.7880  211.8060  137.6410 C   0  0  0  0  0  3  0  0  0  0  0  0
  161.1220  209.1000  137.6430 C   0  0  0  0  0  3  0  0  0  0  0  0
  162.2920  209.5300  137.0160 C   0  0  0  0  0  3  0  0  0  0  0  0
  157.9790  209.1150  137.8370 C   0  0  0  0  0  2  0  0  0  0  0  0
  157.8550  213.0670  140.2490 N   0  0  1  0  0  0  0  0  0  0  0  0
  157.5570  212.6110  137.8870 C   0  0  2  0  0  3  0  0  0  0  0  0
  159.0060  213.8390  140.7230 C   0  0  2  0  0  3  0  0  0  0  0  0
  155.6980  214.1230  140.6650 C   0  0  0  0  0  1  0  0  0  0  0  0
  159.7990  212.4930  138.9390 C   0  0  2  0  0  3  0  0  0  0  0  0
  1 16  1  0  0  0  0
  1  6  1  0  0  0  0
  3 17  1  0  0  0  0
  4 22  2  0  0  0  0
  4 20  1  0  0  0  0
  5 24  1  0  0  0  0
  5 27  1  1  0  0  0
  8  7  1  6  0  0  0
  8  2  1  0  0  0  0
  8 14  1  0  0  0  0
  9 18  2  0  0  0  0
 10 26  1  0  0  0  0
 10  8  1  0  0  0  0
 12 24  1  0  0  0  0
 13  9  1  0  0  0  0
 14  9  1  0  0  0  0
 15 23  1  0  0  0  0
 15 11  2  0  0  0  0
 16 28  1  0  0  0  0
 17  5  1  0  0  0  0
 19 15  1  0  0  0  0
 19 25  1  0  0  0  0
 20 16  2  0  0  0  0
 21  1  2  0  0  0  0
 22 21  1  0  0  0  0
 23  6  1  0  0  0  0
 24 26  1  0  0  0  0
 25 17  1  0  0  0  0
 25 12  1  0  0  0  0
 26 13  1  0  0  0  0
 28 12  1  0  0  0  0
 28 10  1  0  0  0  0
M  END
>  <MODEL>
3

>  <REMARK>
 VINA RESULT:      -3.9      2.028      2.699
  Name = 
  0 active torsions:
  status: ('A' for Active; 'I' for Inactive)
                            x       y       z     vdW  Elec       q    Type
                         _______ _______ _______ _____ _____    ______ ____

>  <TORSDO>
F 0

$$$$
=
 OpenBabel11122414133D

 28 32  0  0  1  0  0  0  0  0999 V2000
  161.1230  209.5030  155.3200 C   0  0  0  0  0  0  0  0  0  0  0  0
  157.8040  210.4760  155.3080 O   0  0  0  0  0  1  0  0  0  0  0  0
  161.2070  213.0190  150.1710 C   0  0  0  0  0  1  0  0  0  0  0  0
  162.6500  210.8420  157.2610 C   0  0  0  0  0  3  0  0  0  0  0  0
  159.0880  212.6830  151.4330 C   0  0  2  0  0  3  0  0  0  0  0  0
  160.3640  208.7040  154.3010 C   0  0  0  0  0  2  0  0  0  0  0  0
  158.7630  211.4310  157.2610 C   0  0  0  0  0  1  0  0  0  0  0  0
  158.1190  211.6960  155.9130 C   0  0  1  0  0  0  0  0  0  0  0  0
  156.2810  213.1340  155.1330 C   0  0  0  0  0  0  0  0  0  0  0  0
  159.0540  212.5360  155.0060 C   0  0  2  0  0  3  0  0  0  0  0  0
  160.4560  208.5760  151.0090 O   0  0  0  0  0  0  0  0  0  0  0  0
  159.9140  211.2910  153.1220 C   0  0  1  0  0  3  0  0  0  0  0  0
  156.8350  213.1290  153.7450 C   0  0  0  0  0  2  0  0  0  0  0  0
  156.9210  212.4270  156.1490 O   0  0  0  0  0  0  0  0  0  0  0  0
  161.1650  208.9920  151.9620 C   0  0  0  0  0  0  0  0  0  0  0  0
  161.0960  210.9250  155.3880 C   0  0  0  0  0  0  0  0  0  0  0  0
  160.3340  212.0090  150.8900 C   0  0  2  0  0  3  0  0  0  0  0  0
  155.1850  213.7660  155.3840 N   0  0  0  0  0  2  0  0  0  0  0  0
  161.7750  210.2820  151.8920 N   0  0  0  0  0  2  0  0  0  0  0  0
  161.8740  211.5710  156.3590 C   0  0  0  0  0  3  0  0  0  0  0  0
  161.9050  208.7870  156.2360 C   0  0  0  0  0  3  0  0  0  0  0  0
  162.6630  209.4500  157.2010 C   0  0  0  0  0  3  0  0  0  0  0  0
  161.2930  208.1770  153.2070 C   0  0  0  0  0  2  0  0  0  0  0  0
  158.7120  211.9840  152.6590 N   0  0  1  0  0  0  0  0  0  0  0  0
  161.0310  211.5180  152.1280 C   0  0  2  0  0  3  0  0  0  0  0  0
  158.3620  212.9600  153.6930 C   0  0  2  0  0  3  0  0  0  0  0  0
  157.9650  212.5840  150.4180 C   0  0  0  0  0  1  0  0  0  0  0  0
  160.2930  211.8280  154.4750 C   0  0  2  0  0  3  0  0  0  0  0  0
  1 16  2  0  0  0  0
  1 21  1  0  0  0  0
  2  8  1  0  0  0  0
  3 17  1  0  0  0  0
  5 27  1  6  0  0  0
  5 24  1  0  0  0  0
  6  1  1  0  0  0  0
  8 14  1  0  0  0  0
  8  7  1  1  0  0  0
  9 18  2  0  0  0  0
  9 14  1  0  0  0  0
 10  8  1  0  0  0  0
 11 15  2  0  0  0  0
 12 28  1  0  0  0  0
 13  9  1  0  0  0  0
 15 23  1  0  0  0  0
 16 20  1  0  0  0  0
 17  5  1  0  0  0  0
 17 25  1  0  0  0  0
 19 15  1  0  0  0  0
 19 25  1  0  0  0  0
 20  4  2  0  0  0  0
 21 22  2  0  0  0  0
 22  4  1  0  0  0  0
 23  6  1  0  0  0  0
 24 12  1  0  0  0  0
 24 26  1  0  0  0  0
 25 12  1  0  0  0  0
 26 13  1  0  0  0  0
 26 10  1  0  0  0  0
 28 10  1  0  0  0  0
 28 16  1  0  0  0  0
M  END
>  <MODEL>
4

>  <REMARK>
 VINA RESULT:      -2.7     11.163     14.512
  Name = 
  0 active torsions:
  status: ('A' for Active; 'I' for Inactive)
                            x       y       z     vdW  Elec       q    Type
                         _______ _______ _______ _____ _____    ______ ____

>  <TORSDO>
F 0

$$$$
=
 OpenBabel11122414133D

 28 32  0  0  1  0  0  0  0  0999 V2000
  160.9900  208.8510  153.9410 C   0  0  0  0  0  0  0  0  0  0  0  0
  158.1270  210.6150  153.1370 O   0  0  0  0  0  1  0  0  0  0  0  0
  163.2090  212.0430  149.0660 C   0  0  0  0  0  1  0  0  0  0  0  0
  162.2790  209.8400  156.2330 C   0  0  0  0  0  3  0  0  0  0  0  0
  160.8310  212.2910  149.7570 C   0  0  2  0  0  3  0  0  0  0  0  0
  160.3300  208.2280  152.7460 C   0  0  0  0  0  2  0  0  0  0  0  0
  158.7850  211.3740  155.2900 C   0  0  0  0  0  1  0  0  0  0  0  0
  158.5780  211.7410  153.8330 C   0  0  1  0  0  0  0  0  0  0  0  0
  157.4060  213.5600  152.6620 C   0  0  0  0  0  0  0  0  0  0  0  0
  159.8860  212.2880  153.2060 C   0  0  2  0  0  3  0  0  0  0  0  0
  161.1920  207.9590  149.5760 O   0  0  0  0  0  0  0  0  0  0  0  0
  160.8430  210.8000  151.5610 C   0  0  1  0  0  3  0  0  0  0  0  0
  158.2640  213.3670  151.4530 C   0  0  0  0  0  2  0  0  0  0  0  0
  157.5800  212.7540  153.7850 O   0  0  0  0  0  0  0  0  0  0  0  0
  161.7260  208.2210  150.6850 C   0  0  0  0  0  0  0  0  0  0  0  0
  161.3030  210.2370  154.0380 C   0  0  0  0  0  0  0  0  0  0  0  0
  161.9630  211.3090  149.5210 C   0  0  2  0  0  3  0  0  0  0  0  0
  156.4750  214.4530  152.6500 N   0  0  0  0  0  2  0  0  0  0  0  0
  162.6360  209.3170  150.8010 N   0  0  0  0  0  2  0  0  0  0  0  0
  161.9550  210.7050  155.1870 C   0  0  0  0  0  3  0  0  0  0  0  0
  161.3190  207.9970  155.0030 C   0  0  0  0  0  3  0  0  0  0  0  0
  161.9580  208.4870  156.1420 C   0  0  0  0  0  3  0  0  0  0  0  0
  161.3370  207.4470  151.9020 C   0  0  0  0  0  2  0  0  0  0  0  0
  160.0030  211.7520  150.8340 N   0  0  1  0  0  0  0  0  0  0  0  0
  162.1900  210.7060  150.8790 C   0  0  2  0  0  3  0  0  0  0  0  0
  159.6650  212.8220  151.7750 C   0  0  2  0  0  3  0  0  0  0  0  0
  160.0030  212.4360  148.4940 C   0  0  0  0  0  1  0  0  0  0  0  0
  161.0010  211.2760  152.9790 C   0  0  2  0  0  3  0  0  0  0  0  0
  1 16  2  0  0  0  0
  1 21  1  0  0  0  0
  2  8  1  0  0  0  0
  3 17  1  0  0  0  0
  5 27  1  6  0  0  0
  5 24  1  0  0  0  0
  6  1  1  0  0  0  0
  8  7  1  1  0  0  0
  9 14  1  0  0  0  0
 10  8  1  0  0  0  0
 11 15  2  0  0  0  0
 12 28  1  0  0  0  0
 13 26  1  0  0  0  0
 13  9  1  0  0  0  0
 14  8  1  0  0  0  0
 15 19  1  0  0  0  0
 15 23  1  0  0  0  0
 16 20  1  0  0  0  0
 17  5  1  0  0  0  0
 17 25  1  0  0  0  0
 18  9  2  0  0  0  0
 19 25  1  0  0  0  0
 20  4  2  0  0  0  0
 21 22  2  0  0  0  0
 22  4  1  0  0  0  0
 23  6  1  0  0  0  0
 24 12  1  0  0  0  0
 24 26  1  0  0  0  0
 25 12  1  0  0  0  0
 26 10  1  0  0  0  0
 28 10  1  0  0  0  0
 28 16  1  0  0  0  0
M  END
>  <MODEL>
5

>  <REMARK>
 VINA RESULT:      -2.6      9.844     13.125
  Name = 
  0 active torsions:
  status: ('A' for Active; 'I' for Inactive)
                            x       y       z     vdW  Elec       q    Type
                         _______ _______ _______ _____ _____    ______ ____

>  <TORSDO>
F 0

$$$$
