=
 OpenBabel11122413193D

 31 35  0  0  1  0  0  0  0  0999 V2000
  161.0070  207.0600  154.1160 C   0  0  0  0  0  0  0  0  0  0  0  0
  161.3940  206.8590  150.3720 C   0  0  0  0  0  0  0  0  0  0  0  0
  161.2590  205.4770  150.0140 C   0  0  0  0  0  0  0  0  0  0  0  0
  160.9000  203.1260  150.5850 C   0  0  0  0  0  0  0  0  0  0  0  0
  161.3090  207.3590  151.7080 C   0  0  0  0  0  0  0  0  0  0  0  0
  161.1580  208.4300  154.3180 C   0  0  0  0  0  3  0  0  0  0  0  0
  161.0270  204.4640  150.9630 C   0  0  0  0  0  3  0  0  0  0  0  0
  161.7680  209.1660  149.6190 C   0  0  0  0  0  0  0  0  0  0  0  0
  160.7860  206.2390  155.1700 F   0  0  0  0  0  0  0  0  0  0  0  0
  161.5900  206.0360  147.6620 C   0  0  0  0  0  3  0  0  0  0  0  0
  160.6710  202.1520  151.5480 O   0  0  0  0  0  1  0  0  0  0  0  0
  161.6810  209.5960  150.9030 N   0  0  0  0  0  0  0  0  0  0  0  0
  161.6280  207.8000  149.3260 C   0  0  0  0  0  0  0  0  0  0  0  0
  162.0050  210.1110  148.5680 N   0  0  0  0  0  2  0  0  0  0  0  0
  161.0820  206.5340  152.8240 C   0  0  0  0  0  3  0  0  0  0  0  0
  161.0030  202.7670  149.2430 C   0  0  0  0  0  3  0  0  0  0  0  0
  161.4610  208.7510  151.9360 C   0  0  0  0  0  0  0  0  0  0  0  0
  161.3840  209.2730  153.2310 C   0  0  0  0  0  3  0  0  0  0  0  0
  161.7220  207.3760  147.9960 C   0  0  0  0  0  3  0  0  0  0  0  0
  161.3610  205.0890  148.6510 C   0  0  0  0  0  0  0  0  0  0  0  0
  161.2340  203.7480  148.2780 C   0  0  0  0  0  3  0  0  0  0  0  0
  161.2750  211.9610  149.9900 C   0  0  0  0  0  1  0  0  0  0  0  0
  162.1260  211.5450  148.8010 C   0  0  2  0  0  3  0  0  0  0  0  0
  160.9900  213.7420  145.2830 C   0  0  0  0  0  0  0  0  0  0  0  0
  160.6230  211.9020  146.8100 C   0  0  0  0  0  3  0  0  0  0  0  0
  163.5330  213.8490  147.9070 F   0  0  0  0  0  0  0  0  0  0  0  0
  160.6260  214.4530  144.1480 O   0  0  0  0  0  1  0  0  0  0  0  0
  160.2560  212.6180  145.6680 C   0  0  0  0  0  3  0  0  0  0  0  0
  162.4620  213.4370  147.1840 C   0  0  0  0  0  0  0  0  0  0  0  0
  161.7280  212.3060  147.5750 C   0  0  0  0  0  0  0  0  0  0  0  0
  162.0910  214.1510  146.0400 C   0  0  0  0  0  3  0  0  0  0  0  0
  1  6  1  0  0  0  0
  1  9  1  0  0  0  0
  2  5  1  0  0  0  0
  3  2  1  0  0  0  0
  3  7  1  0  0  0  0
  4  7  2  0  0  0  0
  4 11  1  0  0  0  0
  5 17  2  0  0  0  0
  5 15  1  0  0  0  0
  8 12  2  0  0  0  0
 10 19  2  0  0  0  0
 10 20  1  0  0  0  0
 12 17  1  0  0  0  0
 13  8  1  0  0  0  0
 13  2  2  0  0  0  0
 14 23  1  0  0  0  0
 14  8  1  0  0  0  0
 15  1  2  0  0  0  0
 16  4  1  0  0  0  0
 17 18  1  0  0  0  0
 18  6  2  0  0  0  0
 19 13  1  0  0  0  0
 20  3  2  0  0  0  0
 21 20  1  0  0  0  0
 21 16  2  0  0  0  0
 23 22  1  1  0  0  0
 24 28  2  0  0  0  0
 24 31  1  0  0  0  0
 25 30  2  0  0  0  0
 27 24  1  0  0  0  0
 28 25  1  0  0  0  0
 29 30  1  0  0  0  0
 29 26  1  0  0  0  0
 30 23  1  0  0  0  0
 31 29  2  0  0  0  0
M  END
>  <MODEL>
1

>  <REMARK>
 VINA RESULT:     -10.8      0.000      0.000
  Name = 
  2 active torsions:
  status: ('A' for Active; 'I' for Inactive)
    1  A    between atoms: C_5  and  N_16
    2  A    between atoms: C_5  and  C_30
                            x       y       z     vdW  Elec       q    Type
                         _______ _______ _______ _____ _____    ______ ____

>  <TORSDO>
F 2

$$$$
=
 OpenBabel11122413193D

 31 35  0  0  1  0  0  0  0  0999 V2000
  161.2000  205.3690  145.6900 C   0  0  0  0  0  0  0  0  0  0  0  0
  161.0790  204.5560  149.3680 C   0  0  0  0  0  0  0  0  0  0  0  0
  161.0930  203.1250  149.4770 C   0  0  0  0  0  0  0  0  0  0  0  0
  161.1550  200.8870  148.4930 C   0  0  0  0  0  0  0  0  0  0  0  0
  161.1150  205.2710  148.1310 C   0  0  0  0  0  0  0  0  0  0  0  0
  161.1810  206.7620  145.7320 C   0  0  0  0  0  3  0  0  0  0  0  0
  161.1430  202.2770  148.3560 C   0  0  0  0  0  3  0  0  0  0  0  0
  161.0120  206.7200  150.5240 C   0  0  0  0  0  0  0  0  0  0  0  0
  161.2510  204.7280  144.4980 F   0  0  0  0  0  0  0  0  0  0  0  0
  161.0040  203.2940  151.9100 C   0  0  0  0  0  3  0  0  0  0  0  0
  161.2050  200.0790  147.3650 O   0  0  0  0  0  1  0  0  0  0  0  0
  161.0460  207.3570  149.3270 N   0  0  0  0  0  0  0  0  0  0  0  0
  161.0270  205.3170  150.5720 C   0  0  0  0  0  0  0  0  0  0  0  0
  160.9570  207.4850  151.7360 N   0  0  0  0  0  2  0  0  0  0  0  0
  161.1670  204.6350  146.8770 C   0  0  0  0  0  3  0  0  0  0  0  0
  161.1170  200.3110  149.7610 C   0  0  0  0  0  3  0  0  0  0  0  0
  161.0960  206.6890  148.1530 C   0  0  0  0  0  0  0  0  0  0  0  0
  161.1290  207.4200  146.9610 C   0  0  0  0  0  3  0  0  0  0  0  0
  160.9900  204.6780  151.8160 C   0  0  0  0  0  3  0  0  0  0  0  0
  161.0540  202.5160  150.7600 C   0  0  0  0  0  0  0  0  0  0  0  0
  161.0660  201.1250  150.8920 C   0  0  0  0  0  3  0  0  0  0  0  0
  162.3680  209.4600  151.4510 C   0  0  0  0  0  1  0  0  0  0  0  0
  160.9720  208.9420  151.7560 C   0  0  2  0  0  3  0  0  0  0  0  0
  159.6140  210.4090  155.5640 C   0  0  0  0  0  0  0  0  0  0  0  0
  160.7020  208.6930  154.2490 C   0  0  0  0  0  3  0  0  0  0  0  0
  159.6450  211.4400  152.0570 F   0  0  0  0  0  0  0  0  0  0  0  0
  159.1750  210.8840  156.7910 O   0  0  0  0  0  1  0  0  0  0  0  0
  160.2600  209.1720  155.4850 C   0  0  0  0  0  3  0  0  0  0  0  0
  159.8510  210.6910  153.1680 C   0  0  0  0  0  0  0  0  0  0  0  0
  160.4990  209.4480  153.0830 C   0  0  0  0  0  0  0  0  0  0  0  0
  159.4100  211.1660  154.4080 C   0  0  0  0  0  3  0  0  0  0  0  0
  1  6  2  0  0  0  0
  1 15  1  0  0  0  0
  2  3  2  0  0  0  0
  2 13  1  0  0  0  0
  3 20  1  0  0  0  0
  4 16  1  0  0  0  0
  5 17  1  0  0  0  0
  5  2  1  0  0  0  0
  6 18  1  0  0  0  0
  7  4  2  0  0  0  0
  7  3  1  0  0  0  0
  8 13  1  0  0  0  0
  8 14  1  0  0  0  0
  9  1  1  0  0  0  0
 11  4  1  0  0  0  0
 12  8  2  0  0  0  0
 13 19  2  0  0  0  0
 14 23  1  0  0  0  0
 15  5  2  0  0  0  0
 16 21  2  0  0  0  0
 17 12  1  0  0  0  0
 18 17  2  0  0  0  0
 19 10  1  0  0  0  0
 20 21  1  0  0  0  0
 20 10  2  0  0  0  0
 23 22  1  1  0  0  0
 23 30  1  0  0  0  0
 24 27  1  0  0  0  0
 25 28  2  0  0  0  0
 26 29  1  0  0  0  0
 28 24  1  0  0  0  0
 29 31  1  0  0  0  0
 30 29  2  0  0  0  0
 30 25  1  0  0  0  0
 31 24  2  0  0  0  0
M  END
>  <MODEL>
2

>  <REMARK>
 VINA RESULT:     -10.8      4.132      6.398
  Name = 
  2 active torsions:
  status: ('A' for Active; 'I' for Inactive)
    1  A    between atoms: C_5  and  N_16
    2  A    between atoms: C_5  and  C_30
                            x       y       z     vdW  Elec       q    Type
                         _______ _______ _______ _____ _____    ______ ____

>  <TORSDO>
F 2

$$$$
=
 OpenBabel11122413193D

 31 35  0  0  1  0  0  0  0  0999 V2000
  160.8640  201.8040  150.5770 C   0  0  0  0  0  0  0  0  0  0  0  0
  161.2170  205.2790  149.1620 C   0  0  0  0  0  0  0  0  0  0  0  0
  161.2070  205.1490  147.7330 C   0  0  0  0  0  0  0  0  0  0  0  0
  161.0750  203.8110  145.6900 C   0  0  0  0  0  0  0  0  0  0  0  0
  161.1050  204.1840  150.0740 C   0  0  0  0  0  0  0  0  0  0  0  0
  160.8900  202.0770  151.9440 C   0  0  0  0  0  3  0  0  0  0  0  0
  161.0830  203.9070  147.0840 C   0  0  0  0  0  3  0  0  0  0  0  0
  161.3650  206.7750  151.1030 C   0  0  0  0  0  0  0  0  0  0  0  0
  160.7350  200.5280  150.1440 F   0  0  0  0  0  0  0  0  0  0  0  0
  161.4520  207.5650  147.4940 C   0  0  0  0  0  3  0  0  0  0  0  0
  160.9500  202.5690  145.0820 O   0  0  0  0  0  1  0  0  0  0  0  0
  161.2570  205.7060  151.9310 N   0  0  0  0  0  0  0  0  0  0  0  0
  161.3490  206.5880  149.7120 C   0  0  0  0  0  0  0  0  0  0  0  0
  161.5000  208.0910  151.6560 N   0  0  0  0  0  2  0  0  0  0  0  0
  160.9700  202.8480  149.6560 C   0  0  0  0  0  3  0  0  0  0  0  0
  161.1930  204.9590  144.9110 C   0  0  0  0  0  3  0  0  0  0  0  0
  161.1290  204.4410  151.4680 C   0  0  0  0  0  0  0  0  0  0  0  0
  161.0220  203.3930  152.3880 C   0  0  0  0  0  3  0  0  0  0  0  0
  161.4640  207.7030  148.8750 C   0  0  0  0  0  3  0  0  0  0  0  0
  161.3260  206.3070  146.9190 C   0  0  0  0  0  0  0  0  0  0  0  0
  161.3180  206.2050  145.5260 C   0  0  0  0  0  3  0  0  0  0  0  0
  160.7390  207.2570  153.8240 C   0  0  0  0  0  1  0  0  0  0  0  0
  161.4900  208.3550  153.0890 C   0  0  2  0  0  3  0  0  0  0  0  0
  159.7290  212.1940  153.9000 C   0  0  0  0  0  0  0  0  0  0  0  0
  160.0220  210.2940  152.4300 C   0  0  0  0  0  3  0  0  0  0  0  0
  161.9740  209.7910  155.4960 F   0  0  0  0  0  0  0  0  0  0  0  0
  159.1630  213.4330  154.1640 O   0  0  0  0  0  1  0  0  0  0  0  0
  159.4510  211.5410  152.6960 C   0  0  0  0  0  3  0  0  0  0  0  0
  161.1520  210.3520  154.5750 C   0  0  0  0  0  0  0  0  0  0  0  0
  160.8770  209.6920  153.3660 C   0  0  0  0  0  0  0  0  0  0  0  0
  160.5790  211.6000  154.8370 C   0  0  0  0  0  3  0  0  0  0  0  0
  1  6  1  0  0  0  0
  2 13  1  0  0  0  0
  2  5  1  0  0  0  0
  3  2  2  0  0  0  0
  4  7  2  0  0  0  0
  5 17  2  0  0  0  0
  6 18  2  0  0  0  0
  7  3  1  0  0  0  0
  8 14  1  0  0  0  0
  8 12  2  0  0  0  0
  9  1  1  0  0  0  0
 10 19  1  0  0  0  0
 11  4  1  0  0  0  0
 13  8  1  0  0  0  0
 14 23  1  0  0  0  0
 15  5  1  0  0  0  0
 15  1  2  0  0  0  0
 16 21  2  0  0  0  0
 16  4  1  0  0  0  0
 17 12  1  0  0  0  0
 17 18  1  0  0  0  0
 19 13  2  0  0  0  0
 20 10  2  0  0  0  0
 20  3  1  0  0  0  0
 21 20  1  0  0  0  0
 23 30  1  0  0  0  0
 23 22  1  1  0  0  0
 24 27  1  0  0  0  0
 24 31  1  0  0  0  0
 25 28  1  0  0  0  0
 25 30  2  0  0  0  0
 28 24  2  0  0  0  0
 29 31  2  0  0  0  0
 29 26  1  0  0  0  0
 30 29  1  0  0  0  0
M  END
>  <MODEL>
3

>  <REMARK>
 VINA RESULT:     -10.7      3.978      5.720
  Name = 
  2 active torsions:
  status: ('A' for Active; 'I' for Inactive)
    1  A    between atoms: C_5  and  N_16
    2  A    between atoms: C_5  and  C_30
                            x       y       z     vdW  Elec       q    Type
                         _______ _______ _______ _____ _____    ______ ____

>  <TORSDO>
F 2

$$$$
=
 OpenBabel11122413193D

 31 35  0  0  1  0  0  0  0  0999 V2000
  161.9830  209.4700  148.9570 C   0  0  0  0  0  0  0  0  0  0  0  0
  161.3710  206.5040  151.2000 C   0  0  0  0  0  0  0  0  0  0  0  0
  161.2320  205.3590  150.3460 C   0  0  0  0  0  0  0  0  0  0  0  0
  161.1850  204.3070  148.1380 C   0  0  0  0  0  0  0  0  0  0  0  0
  161.6150  207.8330  150.7350 C   0  0  0  0  0  0  0  0  0  0  0  0
  162.0950  210.4890  149.9010 C   0  0  0  0  0  3  0  0  0  0  0  0
  161.3240  205.4390  148.9450 C   0  0  0  0  0  3  0  0  0  0  0  0
  161.3860  207.3890  153.4900 C   0  0  0  0  0  0  0  0  0  0  0  0
  162.1050  209.7510  147.6370 F   0  0  0  0  0  0  0  0  0  0  0  0
  160.8870  203.9280  152.2930 C   0  0  0  0  0  3  0  0  0  0  0  0
  161.2830  204.4230  146.7580 O   0  0  0  0  0  1  0  0  0  0  0  0
  161.6160  208.6340  153.0030 N   0  0  0  0  0  0  0  0  0  0  0  0
  161.2580  206.3040  152.6080 C   0  0  0  0  0  0  0  0  0  0  0  0
  161.2700  207.1880  154.9050 N   0  0  0  0  0  2  0  0  0  0  0  0
  161.7450  208.1580  149.3730 C   0  0  0  0  0  3  0  0  0  0  0  0
  160.9490  203.0630  148.7180 C   0  0  0  0  0  3  0  0  0  0  0  0
  161.7320  208.8840  151.6790 C   0  0  0  0  0  0  0  0  0  0  0  0
  161.9700  210.1960  151.2580 C   0  0  0  0  0  3  0  0  0  0  0  0
  161.0190  205.0280  153.1280 C   0  0  0  0  0  3  0  0  0  0  0  0
  160.9900  204.0800  150.9160 C   0  0  0  0  0  0  0  0  0  0  0  0
  160.8510  202.9510  150.1050 C   0  0  0  0  0  3  0  0  0  0  0  0
  161.0220  207.7900  157.2610 C   0  0  0  0  0  1  0  0  0  0  0  0
  161.4250  208.2650  155.8740 C   0  0  2  0  0  3  0  0  0  0  0  0
  159.0980  211.6870  154.7030 C   0  0  0  0  0  0  0  0  0  0  0  0
  159.2090  209.3950  155.4720 C   0  0  0  0  0  3  0  0  0  0  0  0
  162.6060  210.7230  155.0630 F   0  0  0  0  0  0  0  0  0  0  0  0
  158.3500  212.7930  154.3250 O   0  0  0  0  0  1  0  0  0  0  0  0
  158.4560  210.5080  155.0910 C   0  0  0  0  0  3  0  0  0  0  0  0
  161.2520  210.6410  155.0760 C   0  0  0  0  0  0  0  0  0  0  0  0
  160.6110  209.4530  155.4660 C   0  0  0  0  0  0  0  0  0  0  0  0
  160.4940  211.7530  154.6960 C   0  0  0  0  0  3  0  0  0  0  0  0
  1 15  2  0  0  0  0
  1  6  1  0  0  0  0
  2 13  1  0  0  0  0
  3 20  1  0  0  0  0
  3  2  2  0  0  0  0
  4 16  1  0  0  0  0
  4  7  2  0  0  0  0
  5  2  1  0  0  0  0
  5 17  2  0  0  0  0
  6 18  2  0  0  0  0
  7  3  1  0  0  0  0
  8 14  1  0  0  0  0
  9  1  1  0  0  0  0
 10 19  1  0  0  0  0
 11  4  1  0  0  0  0
 12  8  2  0  0  0  0
 13 19  2  0  0  0  0
 13  8  1  0  0  0  0
 14 23  1  0  0  0  0
 15  5  1  0  0  0  0
 16 21  2  0  0  0  0
 17 12  1  0  0  0  0
 18 17  1  0  0  0  0
 20 10  2  0  0  0  0
 21 20  1  0  0  0  0
 23 22  1  1  0  0  0
 24 28  1  0  0  0  0
 26 29  1  0  0  0  0
 27 24  1  0  0  0  0
 28 25  2  0  0  0  0
 29 30  2  0  0  0  0
 30 25  1  0  0  0  0
 30 23  1  0  0  0  0
 31 24  2  0  0  0  0
 31 29  1  0  0  0  0
M  END
>  <MODEL>
4

>  <REMARK>
 VINA RESULT:     -10.5      3.347      6.105
  Name = 
  2 active torsions:
  status: ('A' for Active; 'I' for Inactive)
    1  A    between atoms: C_5  and  N_16
    2  A    between atoms: C_5  and  C_30
                            x       y       z     vdW  Elec       q    Type
                         _______ _______ _______ _____ _____    ______ ____

>  <TORSDO>
F 2

$$$$
=
 OpenBabel11122413193D

 31 35  0  0  1  0  0  0  0  0999 V2000
  161.9230  207.3850  147.6340 C   0  0  0  0  0  0  0  0  0  0  0  0
  161.3060  205.9220  151.0520 C   0  0  0  0  0  0  0  0  0  0  0  0
  161.1610  204.5050  150.8770 C   0  0  0  0  0  0  0  0  0  0  0  0
  161.1060  202.4980  149.4800 C   0  0  0  0  0  0  0  0  0  0  0  0
  161.5530  206.8450  149.9890 C   0  0  0  0  0  0  0  0  0  0  0  0
  162.0400  208.7370  147.9480 C   0  0  0  0  0  3  0  0  0  0  0  0
  161.2500  203.8800  149.6200 C   0  0  0  0  0  3  0  0  0  0  0  0
  161.3290  207.8250  152.6020 C   0  0  0  0  0  0  0  0  0  0  0  0
  162.0420  206.9750  146.3480 F   0  0  0  0  0  0  0  0  0  0  0  0
  160.8160  204.2270  153.2770 C   0  0  0  0  0  3  0  0  0  0  0  0
  161.2000  201.9140  148.2240 O   0  0  0  0  0  1  0  0  0  0  0  0
  161.5620  208.6640  151.5630 N   0  0  0  0  0  0  0  0  0  0  0  0
  161.1960  206.4460  152.3730 C   0  0  0  0  0  0  0  0  0  0  0  0
  161.2160  208.3520  153.9310 N   0  0  0  0  0  2  0  0  0  0  0  0
  161.6820  206.4520  148.6450 C   0  0  0  0  0  3  0  0  0  0  0  0
  160.8660  201.7050  150.6000 C   0  0  0  0  0  3  0  0  0  0  0  0
  161.6760  208.2260  150.2890 C   0  0  0  0  0  0  0  0  0  0  0  0
  161.9170  209.1560  149.2730 C   0  0  0  0  0  3  0  0  0  0  0  0
  160.9530  205.5960  153.4580 C   0  0  0  0  0  3  0  0  0  0  0  0
  160.9160  203.6770  152.0050 C   0  0  0  0  0  0  0  0  0  0  0  0
  160.7710  202.2950  151.8600 C   0  0  0  0  0  3  0  0  0  0  0  0
  162.1330  209.9400  155.5470 C   0  0  0  0  0  1  0  0  0  0  0  0
  161.3770  209.7670  154.2400 C   0  0  2  0  0  3  0  0  0  0  0  0
  157.5430  211.7060  154.4320 C   0  0  0  0  0  0  0  0  0  0  0  0
  159.2190  210.2790  155.4370 C   0  0  0  0  0  3  0  0  0  0  0  0
  160.3790  211.4110  152.1440 F   0  0  0  0  0  0  0  0  0  0  0  0
  156.3060  212.3330  154.4910 O   0  0  0  0  0  1  0  0  0  0  0  0
  157.9740  210.9110  155.4960 C   0  0  0  0  0  3  0  0  0  0  0  0
  159.6030  211.2400  153.2430 C   0  0  0  0  0  0  0  0  0  0  0  0
  160.0410  210.4390  154.3100 C   0  0  0  0  0  0  0  0  0  0  0  0
  158.3560  211.8700  153.3070 C   0  0  0  0  0  3  0  0  0  0  0  0
  1  6  2  0  0  0  0
  1 15  1  0  0  0  0
  2 13  1  0  0  0  0
  3  2  2  0  0  0  0
  3 20  1  0  0  0  0
  4  7  2  0  0  0  0
  4 16  1  0  0  0  0
  5 17  1  0  0  0  0
  5  2  1  0  0  0  0
  6 18  1  0  0  0  0
  7  3  1  0  0  0  0
  8 14  1  0  0  0  0
  9  1  1  0  0  0  0
 10 19  1  0  0  0  0
 11  4  1  0  0  0  0
 12  8  2  0  0  0  0
 13  8  1  0  0  0  0
 13 19  2  0  0  0  0
 14 23  1  0  0  0  0
 15  5  2  0  0  0  0
 16 21  2  0  0  0  0
 17 12  1  0  0  0  0
 18 17  2  0  0  0  0
 20 10  2  0  0  0  0
 21 20  1  0  0  0  0
 23 30  1  0  0  0  0
 23 22  1  1  0  0  0
 24 27  1  0  0  0  0
 24 28  1  0  0  0  0
 25 28  2  0  0  0  0
 26 29  1  0  0  0  0
 29 31  1  0  0  0  0
 29 30  2  0  0  0  0
 30 25  1  0  0  0  0
 31 24  2  0  0  0  0
M  END
>  <MODEL>
5

>  <REMARK>
 VINA RESULT:     -10.5      3.571      5.873
  Name = 
  2 active torsions:
  status: ('A' for Active; 'I' for Inactive)
    1  A    between atoms: C_5  and  N_16
    2  A    between atoms: C_5  and  C_30
                            x       y       z     vdW  Elec       q    Type
                         _______ _______ _______ _____ _____    ______ ____

>  <TORSDO>
F 2

$$$$
=
 OpenBabel11122413193D

 31 35  0  0  1  0  0  0  0  0999 V2000
  160.9850  201.7760  150.5310 C   0  0  0  0  0  0  0  0  0  0  0  0
  161.2180  205.2160  149.0100 C   0  0  0  0  0  0  0  0  0  0  0  0
  161.1800  205.0440  147.5860 C   0  0  0  0  0  0  0  0  0  0  0  0
  161.0390  203.6450  145.5850 C   0  0  0  0  0  0  0  0  0  0  0  0
  161.1540  204.1460  149.9540 C   0  0  0  0  0  0  0  0  0  0  0  0
  161.0340  202.0890  151.8880 C   0  0  0  0  0  3  0  0  0  0  0  0
  161.0740  203.7820  146.9750 C   0  0  0  0  0  3  0  0  0  0  0  0
  161.3690  206.7710  150.9040 C   0  0  0  0  0  0  0  0  0  0  0  0
  160.8800  200.4850  150.1370 F   0  0  0  0  0  0  0  0  0  0  0  0
  161.3570  207.4580  147.2730 C   0  0  0  0  0  3  0  0  0  0  0  0
  160.9340  202.3830  145.0150 O   0  0  0  0  0  1  0  0  0  0  0  0
  161.3060  205.7240  151.7640 N   0  0  0  0  0  0  0  0  0  0  0  0
  161.3270  206.5440  149.5200 C   0  0  0  0  0  0  0  0  0  0  0  0
  161.4810  208.1050  151.4160 N   0  0  0  0  0  2  0  0  0  0  0  0
  161.0450  202.7950  149.5780 C   0  0  0  0  0  3  0  0  0  0  0  0
  161.1100  204.7730  144.7710 C   0  0  0  0  0  3  0  0  0  0  0  0
  161.2010  204.4440  151.3400 C   0  0  0  0  0  0  0  0  0  0  0  0
  161.1420  203.4200  152.2910 C   0  0  0  0  0  3  0  0  0  0  0  0
  161.3950  207.6370  148.6480 C   0  0  0  0  0  3  0  0  0  0  0  0
  161.2510  206.1810  146.7370 C   0  0  0  0  0  0  0  0  0  0  0  0
  161.2160  206.0390  145.3470 C   0  0  0  0  0  3  0  0  0  0  0  0
  160.8110  207.3030  153.6260 C   0  0  0  0  0  1  0  0  0  0  0  0
  161.4950  208.4110  152.8410 C   0  0  2  0  0  3  0  0  0  0  0  0
  159.5950  212.2000  153.5660 C   0  0  0  0  0  0  0  0  0  0  0  0
  160.1330  209.9550  154.2930 C   0  0  0  0  0  3  0  0  0  0  0  0
  161.5770  210.5550  150.9730 F   0  0  0  0  0  0  0  0  0  0  0  0
  158.9820  213.4230  153.7980 O   0  0  0  0  0  1  0  0  0  0  0  0
  159.5160  211.1870  154.5260 C   0  0  0  0  0  3  0  0  0  0  0  0
  160.9080  210.7490  152.1360 C   0  0  0  0  0  0  0  0  0  0  0  0
  160.8310  209.7280  153.0960 C   0  0  0  0  0  0  0  0  0  0  0  0
  160.2890  211.9810  152.3740 C   0  0  0  0  0  3  0  0  0  0  0  0
  1  6  1  0  0  0  0
  2 13  1  0  0  0  0
  2  5  1  0  0  0  0
  3  2  2  0  0  0  0
  4  7  2  0  0  0  0
  5 17  2  0  0  0  0
  6 18  2  0  0  0  0
  7  3  1  0  0  0  0
  8 14  1  0  0  0  0
  8 12  2  0  0  0  0
  9  1  1  0  0  0  0
 10 19  1  0  0  0  0
 11  4  1  0  0  0  0
 13  8  1  0  0  0  0
 14 23  1  0  0  0  0
 15  5  1  0  0  0  0
 15  1  2  0  0  0  0
 16 21  2  0  0  0  0
 16  4  1  0  0  0  0
 17 12  1  0  0  0  0
 17 18  1  0  0  0  0
 19 13  2  0  0  0  0
 20 10  2  0  0  0  0
 20  3  1  0  0  0  0
 21 20  1  0  0  0  0
 23 30  1  0  0  0  0
 23 22  1  1  0  0  0
 24 27  1  0  0  0  0
 24 28  1  0  0  0  0
 25 28  2  0  0  0  0
 26 29  1  0  0  0  0
 29 31  1  0  0  0  0
 29 30  2  0  0  0  0
 30 25  1  0  0  0  0
 31 24  2  0  0  0  0
M  END
>  <MODEL>
6

>  <REMARK>
 VINA RESULT:     -10.2      3.808      5.485
  Name = 
  2 active torsions:
  status: ('A' for Active; 'I' for Inactive)
    1  A    between atoms: C_5  and  N_16
    2  A    between atoms: C_5  and  C_30
                            x       y       z     vdW  Elec       q    Type
                         _______ _______ _______ _____ _____    ______ ____

>  <TORSDO>
F 2

$$$$
=
 OpenBabel11122413193D

 31 35  0  0  1  0  0  0  0  0999 V2000
  161.5300  204.5130  147.3510 C   0  0  0  0  0  0  0  0  0  0  0  0
  161.5090  207.0730  150.1160 C   0  0  0  0  0  0  0  0  0  0  0  0
  161.3220  206.3560  151.3450 C   0  0  0  0  0  0  0  0  0  0  0  0
  161.0010  204.2860  152.6070 C   0  0  0  0  0  0  0  0  0  0  0  0
  161.5750  206.4610  148.8270 C   0  0  0  0  0  0  0  0  0  0  0  0
  161.7150  205.3330  146.2400 C   0  0  0  0  0  3  0  0  0  0  0  0
  161.1820  204.9580  151.3960 C   0  0  0  0  0  3  0  0  0  0  0  0
  161.8230  209.2440  149.0130 C   0  0  0  0  0  0  0  0  0  0  0  0
  161.4180  203.1720  147.1930 F   0  0  0  0  0  0  0  0  0  0  0  0
  161.4010  208.4490  152.5980 C   0  0  0  0  0  3  0  0  0  0  0  0
  160.8680  202.9040  152.6210 O   0  0  0  0  0  1  0  0  0  0  0  0
  161.8790  208.6200  147.8100 N   0  0  0  0  0  0  0  0  0  0  0  0
  161.6380  208.4920  150.1840 C   0  0  0  0  0  0  0  0  0  0  0  0
  161.9510  210.6700  149.0820 N   0  0  0  0  0  2  0  0  0  0  0  0
  161.4610  205.0740  148.6280 C   0  0  0  0  0  3  0  0  0  0  0  0
  160.9540  205.0020  153.8010 C   0  0  0  0  0  3  0  0  0  0  0  0
  161.7630  207.2790  147.6830 C   0  0  0  0  0  0  0  0  0  0  0  0
  161.8310  206.7130  146.4060 C   0  0  0  0  0  3  0  0  0  0  0  0
  161.5820  209.1530  151.4160 C   0  0  0  0  0  3  0  0  0  0  0  0
  161.2700  207.0670  152.5740 C   0  0  0  0  0  0  0  0  0  0  0  0
  161.0880  206.3900  153.7840 C   0  0  0  0  0  3  0  0  0  0  0  0
  163.3500  212.4420  148.1450 C   0  0  0  0  0  1  0  0  0  0  0  0
  162.1780  211.5040  147.9080 C   0  0  2  0  0  3  0  0  0  0  0  0
  158.6210  213.7300  146.9620 C   0  0  0  0  0  0  0  0  0  0  0  0
  160.3550  212.1750  146.3030 C   0  0  0  0  0  3  0  0  0  0  0  0
  160.9010  213.2290  149.7750 F   0  0  0  0  0  0  0  0  0  0  0  0
  157.4740  214.4490  146.6590 O   0  0  0  0  0  1  0  0  0  0  0  0
  159.2000  212.8990  145.9980 C   0  0  0  0  0  3  0  0  0  0  0  0
  160.3550  213.1130  148.5390 C   0  0  0  0  0  0  0  0  0  0  0  0
  160.9410  212.2790  147.5740 C   0  0  0  0  0  0  0  0  0  0  0  0
  159.1980  213.8360  148.2300 C   0  0  0  0  0  3  0  0  0  0  0  0
  1 15  1  0  0  0  0
  2 13  2  0  0  0  0
  2  3  1  0  0  0  0
  3  7  2  0  0  0  0
  3 20  1  0  0  0  0
  4 11  1  0  0  0  0
  4 16  2  0  0  0  0
  5  2  1  0  0  0  0
  6 18  1  0  0  0  0
  6  1  2  0  0  0  0
  7  4  1  0  0  0  0
  8 14  1  0  0  0  0
  8 13  1  0  0  0  0
  9  1  1  0  0  0  0
 12  8  2  0  0  0  0
 13 19  1  0  0  0  0
 15  5  2  0  0  0  0
 17 12  1  0  0  0  0
 17  5  1  0  0  0  0
 18 17  2  0  0  0  0
 19 10  2  0  0  0  0
 20 10  1  0  0  0  0
 20 21  2  0  0  0  0
 21 16  1  0  0  0  0
 23 22  1  1  0  0  0
 23 14  1  0  0  0  0
 24 31  1  0  0  0  0
 25 30  2  0  0  0  0
 27 24  1  0  0  0  0
 28 25  1  0  0  0  0
 28 24  2  0  0  0  0
 29 26  1  0  0  0  0
 30 23  1  0  0  0  0
 30 29  1  0  0  0  0
 31 29  2  0  0  0  0
M  END
>  <MODEL>
7

>  <REMARK>
 VINA RESULT:     -10.0      2.210      4.098
  Name = 
  2 active torsions:
  status: ('A' for Active; 'I' for Inactive)
    1  A    between atoms: C_5  and  N_16
    2  A    between atoms: C_5  and  C_30
                            x       y       z     vdW  Elec       q    Type
                         _______ _______ _______ _____ _____    ______ ____

>  <TORSDO>
F 2

$$$$
=
 OpenBabel11122413193D

 31 35  0  0  1  0  0  0  0  0999 V2000
  160.8380  204.0000  152.3220 C   0  0  0  0  0  0  0  0  0  0  0  0
  161.4920  205.3920  148.8820 C   0  0  0  0  0  0  0  0  0  0  0  0
  161.3820  204.2960  147.9630 C   0  0  0  0  0  0  0  0  0  0  0  0
  160.9830  201.9370  147.4560 C   0  0  0  0  0  0  0  0  0  0  0  0
  161.3120  205.2810  150.2960 C   0  0  0  0  0  0  0  0  0  0  0  0
  160.9750  205.1500  153.0980 C   0  0  0  0  0  3  0  0  0  0  0  0
  161.0830  202.9850  148.3740 C   0  0  0  0  0  3  0  0  0  0  0  0
  161.9190  207.7880  149.2060 C   0  0  0  0  0  0  0  0  0  0  0  0
  160.5420  202.8160  152.9110 F   0  0  0  0  0  0  0  0  0  0  0  0
  161.8800  205.7890  146.0970 C   0  0  0  0  0  3  0  0  0  0  0  0
  160.6850  200.6550  147.8970 O   0  0  0  0  0  1  0  0  0  0  0  0
  161.7410  207.6360  150.5420 N   0  0  0  0  0  0  0  0  0  0  0  0
  161.8000  206.6800  148.3530 C   0  0  0  0  0  0  0  0  0  0  0  0
  162.2310  209.0820  148.6730 N   0  0  0  0  0  2  0  0  0  0  0  0
  161.0050  204.0680  150.9380 C   0  0  0  0  0  3  0  0  0  0  0  0
  161.1810  202.1780  146.0990 C   0  0  0  0  0  3  0  0  0  0  0  0
  161.4470  206.4400  151.1020 C   0  0  0  0  0  0  0  0  0  0  0  0
  161.2790  206.3670  152.4880 C   0  0  0  0  0  3  0  0  0  0  0  0
  161.9890  206.8570  146.9770 C   0  0  0  0  0  3  0  0  0  0  0  0
  161.5820  204.5190  146.5740 C   0  0  0  0  0  0  0  0  0  0  0  0
  161.4810  203.4680  145.6590 C   0  0  0  0  0  3  0  0  0  0  0  0
  161.9250  209.9680  150.9310 C   0  0  0  0  0  1  0  0  0  0  0  0
  162.3360  210.2770  149.5010 C   0  0  2  0  0  3  0  0  0  0  0  0
  159.9010  213.4340  147.8860 C   0  0  0  0  0  0  0  0  0  0  0  0
  161.3610  211.5340  147.5460 C   0  0  0  0  0  3  0  0  0  0  0  0
  160.9240  212.1230  151.1420 F   0  0  0  0  0  0  0  0  0  0  0  0
  159.1150  214.4530  147.3680 O   0  0  0  0  0  1  0  0  0  0  0  0
  160.5690  212.5600  147.0240 C   0  0  0  0  0  3  0  0  0  0  0  0
  160.8160  212.2550  149.7960 C   0  0  0  0  0  0  0  0  0  0  0  0
  161.4910  211.3760  148.9350 C   0  0  0  0  0  0  0  0  0  0  0  0
  160.0250  213.2820  149.2700 C   0  0  0  0  0  3  0  0  0  0  0  0
  1  9  1  0  0  0  0
  1  6  1  0  0  0  0
  2  5  1  0  0  0  0
  3  7  1  0  0  0  0
  3  2  2  0  0  0  0
  4 11  1  0  0  0  0
  4  7  2  0  0  0  0
  5 15  1  0  0  0  0
  5 17  2  0  0  0  0
  8 12  2  0  0  0  0
 10 20  2  0  0  0  0
 10 19  1  0  0  0  0
 12 17  1  0  0  0  0
 13  2  1  0  0  0  0
 13  8  1  0  0  0  0
 14  8  1  0  0  0  0
 14 23  1  0  0  0  0
 15  1  2  0  0  0  0
 16  4  1  0  0  0  0
 17 18  1  0  0  0  0
 18  6  2  0  0  0  0
 19 13  2  0  0  0  0
 20  3  1  0  0  0  0
 21 16  2  0  0  0  0
 21 20  1  0  0  0  0
 23 22  1  1  0  0  0
 24 31  1  0  0  0  0
 25 30  2  0  0  0  0
 27 24  1  0  0  0  0
 28 25  1  0  0  0  0
 28 24  2  0  0  0  0
 29 26  1  0  0  0  0
 30 23  1  0  0  0  0
 30 29  1  0  0  0  0
 31 29  2  0  0  0  0
M  END
>  <MODEL>
8

>  <REMARK>
 VINA RESULT:      -9.5      1.942      2.750
  Name = 
  2 active torsions:
  status: ('A' for Active; 'I' for Inactive)
    1  A    between atoms: C_5  and  N_16
    2  A    between atoms: C_5  and  C_30
                            x       y       z     vdW  Elec       q    Type
                         _______ _______ _______ _____ _____    ______ ____

>  <TORSDO>
F 2

$$$$
=
 OpenBabel11122413193D

 31 35  0  0  1  0  0  0  0  0999 V2000
  161.0820  201.2790  149.9980 C   0  0  0  0  0  0  0  0  0  0  0  0
  161.1810  205.0190  149.5390 C   0  0  0  0  0  0  0  0  0  0  0  0
  161.1470  205.2640  148.1260 C   0  0  0  0  0  0  0  0  0  0  0  0
  161.0560  204.4990  145.8050 C   0  0  0  0  0  0  0  0  0  0  0  0
  161.1590  203.7190  150.1330 C   0  0  0  0  0  0  0  0  0  0  0  0
  161.1210  201.1880  151.3880 C   0  0  0  0  0  3  0  0  0  0  0  0
  161.0880  204.2300  147.1750 C   0  0  0  0  0  3  0  0  0  0  0  0
  161.2760  205.9630  151.8030 C   0  0  0  0  0  0  0  0  0  0  0  0
  161.0250  200.1540  149.2460 F   0  0  0  0  0  0  0  0  0  0  0  0
  161.2320  207.6710  148.5250 C   0  0  0  0  0  3  0  0  0  0  0  0
  160.9980  203.4530  144.8930 O   0  0  0  0  0  1  0  0  0  0  0  0
  161.2540  204.7110  152.3230 N   0  0  0  0  0  0  0  0  0  0  0  0
  161.2410  206.1450  150.4120 C   0  0  0  0  0  0  0  0  0  0  0  0
  161.3380  207.0960  152.6800 N   0  0  0  0  0  2  0  0  0  0  0  0
  161.1010  202.5320  149.3810 C   0  0  0  0  0  3  0  0  0  0  0  0
  161.0830  205.8160  145.3520 C   0  0  0  0  0  3  0  0  0  0  0  0
  161.1980  203.6050  151.5460 C   0  0  0  0  0  0  0  0  0  0  0  0
  161.1790  202.3480  152.1600 C   0  0  0  0  0  3  0  0  0  0  0  0
  161.2660  207.4450  149.8940 C   0  0  0  0  0  3  0  0  0  0  0  0
  161.1740  206.6000  147.6420 C   0  0  0  0  0  0  0  0  0  0  0  0
  161.1420  206.8650  146.2710 C   0  0  0  0  0  3  0  0  0  0  0  0
  160.1500  206.1590  154.6000 C   0  0  0  0  0  1  0  0  0  0  0  0
  161.3430  206.9760  154.1320 C   0  0  2  0  0  3  0  0  0  0  0  0
  161.3150  210.8680  155.9620 C   0  0  0  0  0  0  0  0  0  0  0  0
  161.2020  209.4880  153.9780 C   0  0  0  0  0  3  0  0  0  0  0  0
  161.5840  207.3560  156.9410 F   0  0  0  0  0  0  0  0  0  0  0  0
  161.3070  212.1230  156.5550 O   0  0  0  0  0  1  0  0  0  0  0  0
  161.1930  210.7510  154.5750 C   0  0  0  0  0  3  0  0  0  0  0  0
  161.4560  208.4570  156.1580 C   0  0  0  0  0  0  0  0  0  0  0  0
  161.3350  208.3330  154.7650 C   0  0  0  0  0  0  0  0  0  0  0  0
  161.4460  209.7230  156.7520 C   0  0  0  0  0  3  0  0  0  0  0  0
  1  6  1  0  0  0  0
  2  5  1  0  0  0  0
  2 13  1  0  0  0  0
  3  2  2  0  0  0  0
  4  7  2  0  0  0  0
  5 17  2  0  0  0  0
  6 18  2  0  0  0  0
  7  3  1  0  0  0  0
  8 12  2  0  0  0  0
  8 14  1  0  0  0  0
  9  1  1  0  0  0  0
 10 19  1  0  0  0  0
 11  4  1  0  0  0  0
 13  8  1  0  0  0  0
 14 23  1  0  0  0  0
 15  1  2  0  0  0  0
 15  5  1  0  0  0  0
 16  4  1  0  0  0  0
 16 21  2  0  0  0  0
 17 18  1  0  0  0  0
 17 12  1  0  0  0  0
 19 13  2  0  0  0  0
 20  3  1  0  0  0  0
 20 10  2  0  0  0  0
 21 20  1  0  0  0  0
 23 22  1  1  0  0  0
 23 30  1  0  0  0  0
 24 27  1  0  0  0  0
 24 31  1  0  0  0  0
 25 28  1  0  0  0  0
 25 30  2  0  0  0  0
 28 24  2  0  0  0  0
 29 31  2  0  0  0  0
 29 26  1  0  0  0  0
 30 29  1  0  0  0  0
M  END
>  <MODEL>
9

>  <REMARK>
 VINA RESULT:      -9.3      4.406      6.916
  Name = 
  2 active torsions:
  status: ('A' for Active; 'I' for Inactive)
    1  A    between atoms: C_5  and  N_16
    2  A    between atoms: C_5  and  C_30
                            x       y       z     vdW  Elec       q    Type
                         _______ _______ _______ _____ _____    ______ ____

>  <TORSDO>
F 2

$$$$
