=
 OpenBabel11122412513D

 32 37  0  0  1  0  0  0  0  0999 V2000
  157.8790  213.2640  145.6530 C   0  0  0  0  0  2  0  0  0  0  0  0
  159.9300  213.3970  150.9620 C   0  0  1  0  0  3  0  0  0  0  0  0
  162.0810  209.7670  148.6500 C   0  0  0  0  0  2  0  0  0  0  0  0
  162.2140  208.9290  149.9180 C   0  0  0  0  0  2  0  0  0  0  0  0
  159.1970  213.1390  153.3830 C   0  0  0  0  0  0  0  0  0  0  0  0
  159.1890  212.3570  154.5340 C   0  0  0  0  0  0  0  0  0  0  0  0
  158.6330  213.9180  148.8940 C   0  0  1  0  0  3  0  0  0  0  0  0
  161.1180  213.7920  148.9090 C   0  0  0  0  0  2  0  0  0  0  0  0
  159.6910  210.5360  155.9150 C   0  0  1  0  0  3  0  0  0  0  0  0
  159.9350  214.2340  146.7470 C   0  0  0  0  0  2  0  0  0  0  0  0
  162.1860  211.2490  149.0060 C   0  0  0  0  0  2  0  0  0  0  0  0
  161.1260  213.0210  150.1710 N   0  0  2  0  0  0  0  0  0  0  0  0
  161.1000  211.6170  149.9280 N   0  0  2  0  0  0  0  0  0  0  0  0
  160.5470  211.3910  152.3410 C   0  0  0  0  0  0  0  0  0  0  0  0
  158.8370  211.5810  156.6700 C   0  0  0  0  0  2  0  0  0  0  0  0
  157.2540  212.2940  147.0630 S   0  0  0  0  0  0  0  0  0  0  0  0
  159.8650  213.5140  148.0820 C   0  0  2  0  0  3  0  0  0  0  0  0
  158.5870  212.6380  155.7410 O   0  0  0  0  0  0  0  0  0  0  0  0
  157.3000  213.7520  148.1580 C   0  0  0  0  0  2  0  0  0  0  0  0
  159.4060  213.3240  145.6440 C   0  0  2  0  0  3  0  0  0  0  0  0
  161.2260  209.4020  150.9800 C   0  0  0  0  0  2  0  0  0  0  0  0
  161.3930  210.9080  151.1920 C   0  0  1  0  0  3  0  0  0  0  0  0
  160.5200  210.6810  153.5100 N   0  0  0  0  0  0  0  0  0  0  0  0
  158.6210  213.1410  150.1990 C   0  0  0  0  0  2  0  0  0  0  0  0
  158.4890  214.4530  153.3590 C   0  0  0  0  0  1  0  0  0  0  0  0
  158.9170  209.2370  155.8040 C   0  0  0  0  0  1  0  0  0  0  0  0
  159.9020  212.6470  152.2600 C   0  0  0  0  0  0  0  0  0  0  0  0
  159.8310  211.1600  154.5760 C   0  0  0  0  0  0  0  0  0  0  0  0
  159.8660  213.8230  144.3570 N   0  0  0  0  0  2  0  0  0  0  0  0
  160.1950  212.9570  143.2690 C   0  0  0  0  0  0  0  0  0  0  0  0
  160.1180  211.7060  143.3960 O   0  0  0  0  0  0  0  0  0  0  0  0
  160.6370  213.5390  141.9760 C   0  0  0  0  0  1  0  0  0  0  0  0
  1 16  1  0  0  0  0
  2 24  1  6  0  0  0
  2 27  1  0  0  0  0
  3 11  1  0  0  0  0
  3  4  1  0  0  0  0
  4 21  1  0  0  0  0
  5  6  1  0  0  0  0
  6 28  2  0  0  0  0
  6 18  1  0  0  0  0
  7 19  1  6  0  0  0
  7 24  1  0  0  0  0
  9 26  1  6  0  0  0
  9 15  1  0  0  0  0
 12  8  1  6  0  0  0
 12  2  1  0  0  0  0
 13 11  1  6  0  0  0
 13 12  1  0  0  0  0
 13 22  1  0  0  0  0
 14 23  2  0  0  0  0
 16 19  1  0  0  0  0
 17 10  1  6  0  0  0
 17  7  1  0  0  0  0
 17  8  1  0  0  0  0
 18 15  1  0  0  0  0
 20 29  1  6  0  0  0
 20  1  1  0  0  0  0
 20 10  1  0  0  0  0
 22 21  1  6  0  0  0
 22 14  1  0  0  0  0
 23 28  1  0  0  0  0
 25  5  1  0  0  0  0
 27 14  1  0  0  0  0
 27  5  2  0  0  0  0
 28  9  1  0  0  0  0
 30 31  2  0  0  0  0
 30 29  1  0  0  0  0
 32 30  1  0  0  0  0
M  END
>  <MODEL>
1

>  <REMARK>
 VINA RESULT:      -4.1      0.000      0.000
  Name = 
  1 active torsions:
  status: ('A' for Active; 'I' for Inactive)
    1  A    between atoms: C_20  and  N_29
                            x       y       z     vdW  Elec       q    Type
                         _______ _______ _______ _____ _____    ______ ____

>  <TORSDO>
F 1

$$$$
=
 OpenBabel11122412513D

 32 37  0  0  1  0  0  0  0  0999 V2000
  159.2040  210.7280  154.1930 C   0  0  0  0  0  2  0  0  0  0  0  0
  160.8330  213.6000  149.5550 C   0  0  1  0  0  3  0  0  0  0  0  0
  156.0270  213.7200  149.7420 C   0  0  0  0  0  2  0  0  0  0  0  0
  155.8860  213.7480  148.2220 C   0  0  0  0  0  2  0  0  0  0  0  0
  162.0360  213.2790  147.3390 C   0  0  0  0  0  0  0  0  0  0  0  0
  161.9470  213.1790  145.9540 C   0  0  0  0  0  0  0  0  0  0  0  0
  160.8600  212.2530  151.6560 C   0  0  1  0  0  3  0  0  0  0  0  0
  159.7090  214.4530  151.5030 C   0  0  0  0  0  2  0  0  0  0  0  0
  160.9300  213.1810  143.8460 C   0  0  1  0  0  3  0  0  0  0  0  0
  159.5820  213.1610  153.6440 C   0  0  0  0  0  2  0  0  0  0  0  0
  157.3040  214.4530  150.1470 C   0  0  0  0  0  2  0  0  0  0  0  0
  159.6710  214.3920  150.0250 N   0  0  2  0  0  0  0  0  0  0  0  0
  158.4720  213.7820  149.5560 N   0  0  2  0  0  0  0  0  0  0  0  0
  159.6200  213.6340  147.3560 C   0  0  0  0  0  0  0  0  0  0  0  0
  162.4540  212.9500  143.7230 C   0  0  0  0  0  2  0  0  0  0  0  0
  159.3470  210.0450  152.5100 S   0  0  0  0  0  0  0  0  0  0  0  0
  159.6510  213.0630  152.1290 C   0  0  2  0  0  3  0  0  0  0  0  0
  162.9700  212.9640  145.0560 O   0  0  0  0  0  0  0  0  0  0  0  0
  160.9650  210.8490  152.2610 C   0  0  0  0  0  2  0  0  0  0  0  0
  158.5960  212.1300  154.1810 C   0  0  2  0  0  3  0  0  0  0  0  0
  157.1580  213.2310  147.5560 C   0  0  0  0  0  2  0  0  0  0  0  0
  158.3620  214.0020  148.0980 C   0  0  1  0  0  3  0  0  0  0  0  0
  159.6040  213.5480  145.9910 N   0  0  0  0  0  0  0  0  0  0  0  0
  160.8450  212.1800  150.1400 C   0  0  0  0  0  2  0  0  0  0  0  0
  163.3580  213.1430  148.0210 C   0  0  0  0  0  1  0  0  0  0  0  0
  160.1920  211.9580  143.3370 C   0  0  0  0  0  1  0  0  0  0  0  0
  160.8430  213.5210  148.0580 C   0  0  0  0  0  0  0  0  0  0  0  0
  160.7540  213.3040  145.3150 C   0  0  0  0  0  0  0  0  0  0  0  0
  158.2090  212.5050  155.5330 N   0  0  0  0  0  2  0  0  0  0  0  0
  156.9350  213.0740  155.8390 C   0  0  0  0  0  0  0  0  0  0  0  0
  156.0940  213.2960  154.9270 O   0  0  0  0  0  0  0  0  0  0  0  0
  156.6000  213.4110  157.2460 C   0  0  0  0  0  1  0  0  0  0  0  0
  2 12  1  0  0  0  0
  2 24  1  1  0  0  0
  3 11  1  0  0  0  0
  4  3  1  0  0  0  0
  5 25  1  0  0  0  0
  5 27  1  0  0  0  0
  6  5  2  0  0  0  0
  7 24  1  6  0  0  0
  7 17  1  0  0  0  0
  7 19  1  0  0  0  0
  9 26  1  1  0  0  0
  9 28  1  0  0  0  0
 10 20  1  0  0  0  0
 12  8  1  1  0  0  0
 13 12  1  0  0  0  0
 13 11  1  1  0  0  0
 14 27  2  0  0  0  0
 14 22  1  0  0  0  0
 15  9  1  0  0  0  0
 15 18  1  0  0  0  0
 16  1  1  0  0  0  0
 17  8  1  6  0  0  0
 17 10  1  0  0  0  0
 18  6  1  0  0  0  0
 19 16  1  0  0  0  0
 20  1  1  0  0  0  0
 20 29  1  1  0  0  0
 21  4  1  0  0  0  0
 22 21  1  6  0  0  0
 22 13  1  0  0  0  0
 23 14  1  0  0  0  0
 27  2  1  0  0  0  0
 28  6  1  0  0  0  0
 28 23  2  0  0  0  0
 29 30  1  0  0  0  0
 30 32  1  0  0  0  0
 31 30  2  0  0  0  0
M  END
>  <MODEL>
2

>  <REMARK>
 VINA RESULT:      -3.0      2.211      8.470
  Name = 
  1 active torsions:
  status: ('A' for Active; 'I' for Inactive)
    1  A    between atoms: C_20  and  N_29
                            x       y       z     vdW  Elec       q    Type
                         _______ _______ _______ _____ _____    ______ ____

>  <TORSDO>
F 1

$$$$
=
 OpenBabel11122412513D

 32 37  0  0  1  0  0  0  0  0999 V2000
  161.8490  210.2920  150.7710 C   0  0  0  0  0  2  0  0  0  0  0  0
  161.6420  213.9620  146.4230 C   0  0  1  0  0  3  0  0  0  0  0  0
  157.1370  212.5810  147.3920 C   0  0  0  0  0  2  0  0  0  0  0  0
  156.6960  212.7120  145.9370 C   0  0  0  0  0  2  0  0  0  0  0  0
  162.4230  214.2420  144.0200 C   0  0  0  0  0  0  0  0  0  0  0  0
  162.0940  214.2550  142.6680 C   0  0  0  0  0  0  0  0  0  0  0  0
  162.4670  212.4900  148.2630 C   0  0  1  0  0  3  0  0  0  0  0  0
  160.7320  214.2350  148.6320 C   0  0  0  0  0  2  0  0  0  0  0  0
  160.7220  214.1480  140.7760 C   0  0  1  0  0  3  0  0  0  0  0  0
  161.4040  212.7650  150.5440 C   0  0  0  0  0  2  0  0  0  0  0  0
  158.2070  213.6280  147.6950 C   0  0  0  0  0  2  0  0  0  0  0  0
  160.4210  214.3090  147.1870 N   0  0  2  0  0  0  0  0  0  0  0  0
  159.3760  213.4080  146.8290 N   0  0  2  0  0  0  0  0  0  0  0  0
  160.0600  213.8350  144.4770 C   0  0  0  0  0  0  0  0  0  0  0  0
  162.1930  214.4100  140.3760 C   0  0  0  0  0  2  0  0  0  0  0  0
  161.8440  209.8530  149.0020 S   0  0  0  0  0  0  0  0  0  0  0  0
  161.1960  212.8400  149.0410 C   0  0  2  0  0  3  0  0  0  0  0  0
  162.9360  214.4520  141.5960 O   0  0  0  0  0  0  0  0  0  0  0  0
  163.0840  211.1350  148.6230 C   0  0  0  0  0  2  0  0  0  0  0  0
  160.8780  211.4340  151.0690 C   0  0  2  0  0  3  0  0  0  0  0  0
  157.9030  212.6770  145.0050 C   0  0  0  0  0  2  0  0  0  0  0  0
  158.9220  213.7250  145.4580 C   0  0  1  0  0  3  0  0  0  0  0  0
  159.7990  213.8800  143.1350 N   0  0  0  0  0  0  0  0  0  0  0  0
  162.1730  212.5640  146.7750 C   0  0  0  0  0  2  0  0  0  0  0  0
  163.8370  214.4530  144.4530 C   0  0  0  0  0  1  0  0  0  0  0  0
  160.2760  212.8140  140.2110 C   0  0  0  0  0  1  0  0  0  0  0  0
  161.3780  214.0350  144.9490 C   0  0  0  0  0  0  0  0  0  0  0  0
  160.8130  214.0680  142.2550 C   0  0  0  0  0  0  0  0  0  0  0  0
  160.6770  211.5390  152.5060 N   0  0  0  0  0  2  0  0  0  0  0  0
  159.4370  211.9580  153.0810 C   0  0  0  0  0  0  0  0  0  0  0  0
  158.4640  212.2790  152.3490 O   0  0  0  0  0  0  0  0  0  0  0  0
  159.2970  212.0190  154.5590 C   0  0  0  0  0  1  0  0  0  0  0  0
  1 20  1  0  0  0  0
  2 24  1  1  0  0  0
  2 12  1  0  0  0  0
  3 11  1  0  0  0  0
  4  3  1  0  0  0  0
  5 25  1  0  0  0  0
  5 27  1  0  0  0  0
  6  5  2  0  0  0  0
  7 24  1  6  0  0  0
  7 19  1  0  0  0  0
  7 17  1  0  0  0  0
  9 26  1  6  0  0  0
  9 28  1  0  0  0  0
 10 20  1  0  0  0  0
 12  8  1  1  0  0  0
 13 12  1  0  0  0  0
 13 11  1  1  0  0  0
 14 27  2  0  0  0  0
 14 22  1  0  0  0  0
 15  9  1  0  0  0  0
 15 18  1  0  0  0  0
 16  1  1  0  0  0  0
 17  8  1  1  0  0  0
 17 10  1  0  0  0  0
 18  6  1  0  0  0  0
 19 16  1  0  0  0  0
 20 29  1  1  0  0  0
 21  4  1  0  0  0  0
 22 21  1  6  0  0  0
 22 13  1  0  0  0  0
 23 14  1  0  0  0  0
 27  2  1  0  0  0  0
 28  6  1  0  0  0  0
 28 23  2  0  0  0  0
 29 30  1  0  0  0  0
 30 32  1  0  0  0  0
 31 30  2  0  0  0  0
M  END
>  <MODEL>
3

>  <REMARK>
 VINA RESULT:      -2.5      2.174      9.157
  Name = 
  1 active torsions:
  status: ('A' for Active; 'I' for Inactive)
    1  A    between atoms: C_20  and  N_29
                            x       y       z     vdW  Elec       q    Type
                         _______ _______ _______ _____ _____    ______ ____

>  <TORSDO>
F 1

$$$$
=
 OpenBabel11122412513D

 32 37  0  0  1  0  0  0  0  0999 V2000
  160.5280  208.9660  153.0710 C   0  0  0  0  0  2  0  0  0  0  0  0
  161.6780  212.7800  149.0030 C   0  0  1  0  0  3  0  0  0  0  0  0
  156.9180  212.7710  149.7010 C   0  0  0  0  0  2  0  0  0  0  0  0
  156.6200  213.1150  148.2450 C   0  0  0  0  0  2  0  0  0  0  0  0
  162.6430  212.9550  146.6580 C   0  0  0  0  0  0  0  0  0  0  0  0
  162.4110  213.1480  145.3000 C   0  0  0  0  0  0  0  0  0  0  0  0
  161.9170  211.0210  150.7580 C   0  0  1  0  0  3  0  0  0  0  0  0
  160.7660  213.1830  151.1920 C   0  0  0  0  0  2  0  0  0  0  0  0
  161.1800  213.5740  143.3550 C   0  0  1  0  0  3  0  0  0  0  0  0
  160.8570  211.4670  153.0120 C   0  0  0  0  0  2  0  0  0  0  0  0
  158.2330  213.4250  150.1200 C   0  0  0  0  0  2  0  0  0  0  0  0
  160.5740  213.4340  149.7460 N   0  0  2  0  0  0  0  0  0  0  0  0
  159.3300  212.9150  149.2840 N   0  0  2  0  0  0  0  0  0  0  0  0
  160.2440  213.2540  146.9970 C   0  0  0  0  0  0  0  0  0  0  0  0
  162.6830  213.4030  143.0300 C   0  0  0  0  0  2  0  0  0  0  0  0
  160.4940  208.6550  151.2750 S   0  0  0  0  0  0  0  0  0  0  0  0
  160.7670  211.6910  151.5120 C   0  0  2  0  0  3  0  0  0  0  0  0
  163.3330  213.1450  144.2760 O   0  0  0  0  0  0  0  0  0  0  0  0
  162.0800  209.5230  151.0380 C   0  0  0  0  0  2  0  0  0  0  0  0
  159.9280  210.3280  153.4170 C   0  0  2  0  0  3  0  0  0  0  0  0
  157.8140  212.7730  147.3580 C   0  0  0  0  0  2  0  0  0  0  0  0
  159.0710  213.4350  147.9250 C   0  0  1  0  0  3  0  0  0  0  0  0
  160.0860  213.4570  145.6530 N   0  0  0  0  0  0  0  0  0  0  0  0
  161.7450  211.2690  149.2690 C   0  0  0  0  0  2  0  0  0  0  0  0
  164.0280  212.7020  147.1570 C   0  0  0  0  0  1  0  0  0  0  0  0
  160.3890  212.4730  142.6780 C   0  0  0  0  0  1  0  0  0  0  0  0
  161.5330  213.0180  147.5300 C   0  0  0  0  0  0  0  0  0  0  0  0
  161.1590  213.3820  144.8270 C   0  0  0  0  0  0  0  0  0  0  0  0
  159.6850  210.4020  154.8500 N   0  0  0  0  0  2  0  0  0  0  0  0
  160.7370  210.3290  155.8140 C   0  0  0  0  0  0  0  0  0  0  0  0
  161.9330  210.1710  155.4510 O   0  0  0  0  0  0  0  0  0  0  0  0
  160.4160  210.4350  157.2610 C   0  0  0  0  0  1  0  0  0  0  0  0
  1 20  1  0  0  0  0
  2 24  1  6  0  0  0
  2 12  1  0  0  0  0
  3 11  1  0  0  0  0
  4  3  1  0  0  0  0
  5 25  1  0  0  0  0
  5 27  1  0  0  0  0
  6  5  2  0  0  0  0
  7 24  1  6  0  0  0
  7 19  1  0  0  0  0
  7 17  1  0  0  0  0
  9 26  1  6  0  0  0
  9 28  1  0  0  0  0
 10 20  1  0  0  0  0
 12  8  1  1  0  0  0
 13 12  1  0  0  0  0
 13 11  1  1  0  0  0
 14 27  2  0  0  0  0
 14 22  1  0  0  0  0
 15  9  1  0  0  0  0
 15 18  1  0  0  0  0
 16  1  1  0  0  0  0
 17  8  1  1  0  0  0
 17 10  1  0  0  0  0
 18  6  1  0  0  0  0
 19 16  1  0  0  0  0
 20 29  1  1  0  0  0
 21  4  1  0  0  0  0
 22 21  1  6  0  0  0
 22 13  1  0  0  0  0
 23 14  1  0  0  0  0
 27  2  1  0  0  0  0
 28  6  1  0  0  0  0
 28 23  2  0  0  0  0
 29 30  1  0  0  0  0
 30 32  1  0  0  0  0
 31 30  2  0  0  0  0
M  END
>  <MODEL>
4

>  <REMARK>
 VINA RESULT:      -1.8      2.124      8.617
  Name = 
  1 active torsions:
  status: ('A' for Active; 'I' for Inactive)
    1  A    between atoms: C_20  and  N_29
                            x       y       z     vdW  Elec       q    Type
                         _______ _______ _______ _____ _____    ______ ____

>  <TORSDO>
F 1

$$$$
=
 OpenBabel11122412513D

 32 37  0  0  1  0  0  0  0  0999 V2000
  159.0810  210.8180  155.0940 C   0  0  0  0  0  2  0  0  0  0  0  0
  161.9650  207.7750  151.2410 C   0  0  1  0  0  3  0  0  0  0  0  0
  161.5910  212.2740  149.5770 C   0  0  0  0  0  2  0  0  0  0  0  0
  161.5580  211.8200  148.1200 C   0  0  0  0  0  2  0  0  0  0  0  0
  161.7030  205.7890  149.6770 C   0  0  0  0  0  0  0  0  0  0  0  0
  161.5520  205.3290  148.3720 C   0  0  0  0  0  0  0  0  0  0  0  0
  160.6910  208.4470  153.2810 C   0  0  1  0  0  3  0  0  0  0  0  0
  162.7550  209.6300  152.5520 C   0  0  0  0  0  2  0  0  0  0  0  0
  161.3840  205.4510  146.0420 C   0  0  1  0  0  3  0  0  0  0  0  0
  161.5220  210.4630  154.5660 C   0  0  0  0  0  2  0  0  0  0  0  0
  162.4640  211.3180  150.3870 C   0  0  0  0  0  2  0  0  0  0  0  0
  162.6450  209.0910  151.1790 N   0  0  2  0  0  0  0  0  0  0  0  0
  161.9000  209.9610  150.3310 N   0  0  2  0  0  0  0  0  0  0  0  0
  161.8060  208.0450  148.7500 C   0  0  0  0  0  0  0  0  0  0  0  0
  161.3090  203.9830  146.5230 C   0  0  0  0  0  2  0  0  0  0  0  0
  158.3650  209.9800  153.6420 S   0  0  0  0  0  0  0  0  0  0  0  0
  161.3850  209.8080  153.2020 C   0  0  2  0  0  3  0  0  0  0  0  0
  161.4170  204.0250  147.9480 O   0  0  0  0  0  0  0  0  0  0  0  0
  159.3250  208.4650  153.9740 C   0  0  0  0  0  2  0  0  0  0  0  0
  160.4110  211.4890  154.7560 C   0  0  2  0  0  3  0  0  0  0  0  0
  161.1560  210.3520  148.0240 C   0  0  0  0  0  2  0  0  0  0  0  0
  162.0640  209.5180  148.9300 C   0  0  1  0  0  3  0  0  0  0  0  0
  161.6770  207.5270  147.4900 N   0  0  0  0  0  0  0  0  0  0  0  0
  160.5710  207.8700  151.8810 C   0  0  0  0  0  2  0  0  0  0  0  0
  161.7250  204.8260  150.8180 C   0  0  0  0  0  1  0  0  0  0  0  0
  160.0770  205.8310  145.3740 C   0  0  0  0  0  1  0  0  0  0  0  0
  161.8420  207.1820  149.8700 C   0  0  0  0  0  0  0  0  0  0  0  0
  161.5330  206.1890  147.3210 C   0  0  0  0  0  0  0  0  0  0  0  0
  160.7850  212.3970  155.8300 N   0  0  0  0  0  2  0  0  0  0  0  0
  160.0440  213.5820  156.1290 C   0  0  0  0  0  0  0  0  0  0  0  0
  159.0360  213.9010  155.4450 O   0  0  0  0  0  0  0  0  0  0  0  0
  160.4720  214.4510  157.2560 C   0  0  0  0  0  1  0  0  0  0  0  0
  2 24  1  6  0  0  0
  3 11  1  0  0  0  0
  4  3  1  0  0  0  0
  5 27  1  0  0  0  0
  5 25  1  0  0  0  0
  6  5  2  0  0  0  0
  7 24  1  6  0  0  0
  7 19  1  0  0  0  0
  9 26  1  1  0  0  0
  9 15  1  0  0  0  0
  9 28  1  0  0  0  0
 10 20  1  0  0  0  0
 12  2  1  0  0  0  0
 12  8  1  1  0  0  0
 13 11  1  6  0  0  0
 13 12  1  0  0  0  0
 14 22  1  0  0  0  0
 14 27  2  0  0  0  0
 15 18  1  0  0  0  0
 16 19  1  0  0  0  0
 16  1  1  0  0  0  0
 17  8  1  1  0  0  0
 17  7  1  0  0  0  0
 17 10  1  0  0  0  0
 18  6  1  0  0  0  0
 20  1  1  0  0  0  0
 20 29  1  1  0  0  0
 21  4  1  0  0  0  0
 22 21  1  6  0  0  0
 22 13  1  0  0  0  0
 23 14  1  0  0  0  0
 27  2  1  0  0  0  0
 28 23  2  0  0  0  0
 28  6  1  0  0  0  0
 29 30  1  0  0  0  0
 30 32  1  0  0  0  0
 31 30  2  0  0  0  0
M  END
>  <MODEL>
5

>  <REMARK>
 VINA RESULT:      -1.3      3.651      8.570
  Name = 
  1 active torsions:
  status: ('A' for Active; 'I' for Inactive)
    1  A    between atoms: C_20  and  N_29
                            x       y       z     vdW  Elec       q    Type
                         _______ _______ _______ _____ _____    ______ ____

>  <TORSDO>
F 1

$$$$
