=
 OpenBabel11122412573D

 32 37  0  0  1  0  0  0  0  0999 V2000
  161.3520  201.2930  150.2030 C   0  0  0  0  0  2  0  0  0  0  0  0
  161.3750  206.5330  152.3250 C   0  0  0  0  0  0  0  0  0  0  0  0
  162.5860  209.8430  148.8380 C   0  0  0  0  0  2  0  0  0  0  0  0
  161.5260  210.7670  149.3990 C   0  0  0  0  0  2  0  0  0  0  0  0
  160.7450  207.3830  154.5190 C   0  0  0  0  0  0  0  0  0  0  0  0
  160.4460  208.4940  155.2970 C   0  0  0  0  0  0  0  0  0  0  0  0
  161.4600  204.1030  151.6280 C   0  0  2  0  0  3  0  0  0  0  0  0
  160.7150  205.9510  150.0000 C   0  0  0  0  0  2  0  0  0  0  0  0
  160.1110  210.7540  155.7990 C   0  0  1  0  0  3  0  0  0  0  0  0
  160.8290  203.5810  149.2270 C   0  0  0  0  0  2  0  0  0  0  0  0
  162.1490  208.4030  149.0600 C   0  0  0  0  0  2  0  0  0  0  0  0
  161.7120  206.7320  150.8650 C   0  0  1  0  0  3  0  0  0  0  0  0
  161.7850  208.1350  150.4580 N   0  0  0  0  0  0  0  0  0  0  0  0
  161.0950  208.9230  152.6420 C   0  0  0  0  0  0  0  0  0  0  0  0
  159.8780  209.8580  156.9880 C   0  0  0  0  0  3  0  0  0  0  0  0
  162.0540  201.9810  151.3780 C   0  0  0  0  0  2  0  0  0  0  0  0
  160.5640  204.4810  150.4300 C   0  0  1  0  0  3  0  0  0  0  0  0
  160.0710  208.5680  156.6950 C   0  0  0  0  0  3  0  0  0  0  0  0
  161.1680  202.8080  152.0760 O   0  0  0  0  0  0  0  0  0  0  0  0
  160.3130  202.1680  149.4940 C   0  0  1  0  0  3  0  0  0  0  0  0
  161.5030  210.6360  150.9120 C   0  0  0  0  0  2  0  0  0  0  0  0
  161.4090  209.1960  151.3620 C   0  0  0  0  0  0  0  0  0  0  0  0
  160.7870  209.9640  153.4780 N   0  0  0  0  0  0  0  0  0  0  0  0
  161.2820  205.0940  152.7800 C   0  0  0  0  0  2  0  0  0  0  0  0
  160.7100  206.1590  155.1070 F   0  0  0  0  0  0  0  0  0  0  0  0
  161.2920  211.6680  156.0730 C   0  0  0  0  0  1  0  0  0  0  0  0
  161.0820  207.5770  153.1440 C   0  0  0  0  0  0  0  0  0  0  0  0
  160.4740  209.7450  154.7740 C   0  0  0  0  0  0  0  0  0  0  0  0
  159.9080  201.4960  148.1920 C   0  0  0  0  0  2  0  0  0  0  0  0
  161.0940  201.3650  147.2510 C   0  0  1  0  0  3  0  0  0  0  0  0
  161.4330  200.0220  147.0890 O   0  0  0  0  0  1  0  0  0  0  0  0
  160.7290  201.9510  145.9030 C   0  0  0  0  0  1  0  0  0  0  0  0
  1 16  1  0  0  0  0
  2 24  1  0  0  0  0
  2 27  2  0  0  0  0
  3 11  1  0  0  0  0
  3  4  1  0  0  0  0
  4 21  1  0  0  0  0
  5 25  1  0  0  0  0
  5  6  2  0  0  0  0
  6 18  1  0  0  0  0
  7 19  1  0  0  0  0
  7 24  1  1  0  0  0
  8 17  1  0  0  0  0
  9 26  1  1  0  0  0
  9 15  1  0  0  0  0
 10 20  1  0  0  0  0
 11 13  1  0  0  0  0
 12  8  1  6  0  0  0
 12  2  1  0  0  0  0
 13 12  1  0  0  0  0
 13 22  1  0  0  0  0
 14 27  1  0  0  0  0
 14 23  1  0  0  0  0
 16 19  1  0  0  0  0
 17 10  1  6  0  0  0
 17  7  1  0  0  0  0
 18 15  2  0  0  0  0
 20 29  1  6  0  0  0
 20  1  1  0  0  0  0
 21 22  1  0  0  0  0
 22 14  2  0  0  0  0
 23 28  2  0  0  0  0
 27  5  1  0  0  0  0
 28  6  1  0  0  0  0
 28  9  1  0  0  0  0
 30 32  1  6  0  0  0
 30 29  1  0  0  0  0
 31 30  1  0  0  0  0
M  END
>  <MODEL>
1

>  <REMARK>
 VINA RESULT:     -10.0      0.000      0.000
  Name = 
  2 active torsions:
  status: ('A' for Active; 'I' for Inactive)
    1  A    between atoms: C_20  and  C_29
    2  A    between atoms: C_29  and  C_30
                            x       y       z     vdW  Elec       q    Type
                         _______ _______ _______ _____ _____    ______ ____

>  <TORSDO>
F 2

$$$$
=
 OpenBabel11122412573D

 32 37  0  0  1  0  0  0  0  0999 V2000
  162.2890  213.2150  148.2730 C   0  0  0  0  0  2  0  0  0  0  0  0
  161.8180  208.0340  150.4850 C   0  0  0  0  0  0  0  0  0  0  0  0
  161.5210  208.2470  155.4290 C   0  0  0  0  0  2  0  0  0  0  0  0
  160.4670  207.1600  155.3760 C   0  0  0  0  0  2  0  0  0  0  0  0
  161.5750  205.8510  149.4320 C   0  0  0  0  0  0  0  0  0  0  0  0
  161.2630  204.5070  149.5930 C   0  0  0  0  0  0  0  0  0  0  0  0
  162.1960  210.2360  149.2980 C   0  0  2  0  0  3  0  0  0  0  0  0
  160.7500  210.0730  151.4210 C   0  0  0  0  0  2  0  0  0  0  0  0
  160.6330  202.5540  150.7160 C   0  0  1  0  0  3  0  0  0  0  0  0
  161.1260  212.2900  150.3350 C   0  0  0  0  0  2  0  0  0  0  0  0
  161.4300  209.0800  154.1600 C   0  0  0  0  0  2  0  0  0  0  0  0
  161.7560  208.9470  151.6880 C   0  0  1  0  0  3  0  0  0  0  0  0
  161.4640  208.2580  152.9440 N   0  0  0  0  0  0  0  0  0  0  0  0
  161.1720  206.1230  151.8360 C   0  0  0  0  0  0  0  0  0  0  0  0
  160.8620  202.3250  149.2440 C   0  0  0  0  0  3  0  0  0  0  0  0
  163.1050  211.9220  148.1820 C   0  0  0  0  0  2  0  0  0  0  0  0
  160.9860  210.7910  150.0810 C   0  0  1  0  0  3  0  0  0  0  0  0
  161.2210  203.4440  148.6080 C   0  0  0  0  0  3  0  0  0  0  0  0
  162.2690  210.8120  148.0240 O   0  0  0  0  0  0  0  0  0  0  0  0
  160.9650  213.0690  149.0310 C   0  0  1  0  0  3  0  0  0  0  0  0
  160.8270  206.1720  154.2790 C   0  0  0  0  0  2  0  0  0  0  0  0
  161.1170  206.8570  152.9630 C   0  0  0  0  0  0  0  0  0  0  0  0
  160.8790  204.7860  151.9080 N   0  0  0  0  0  0  0  0  0  0  0  0
  162.1100  208.7130  149.1660 C   0  0  0  0  0  2  0  0  0  0  0  0
  161.9130  206.2870  148.1900 F   0  0  0  0  0  0  0  0  0  0  0  0
  161.6500  201.7630  151.5190 C   0  0  0  0  0  1  0  0  0  0  0  0
  161.5340  206.7080  150.5750 C   0  0  0  0  0  0  0  0  0  0  0  0
  160.9290  204.0050  150.8070 C   0  0  0  0  0  0  0  0  0  0  0  0
  160.3990  214.4520  149.3070 C   0  0  0  0  0  2  0  0  0  0  0  0
  158.8810  214.4500  149.2210 C   0  0  1  0  0  3  0  0  0  0  0  0
  158.4450  213.3820  148.4370 O   0  0  0  0  0  1  0  0  0  0  0  0
  158.3030  214.3140  150.6130 C   0  0  0  0  0  1  0  0  0  0  0  0
  1 20  1  0  0  0  0
  2 27  2  0  0  0  0
  2 12  1  0  0  0  0
  4  3  1  0  0  0  0
  5  6  2  0  0  0  0
  5 27  1  0  0  0  0
  6 28  1  0  0  0  0
  7 24  1  6  0  0  0
  7 17  1  0  0  0  0
  9 28  1  0  0  0  0
  9 26  1  1  0  0  0
 11  3  1  0  0  0  0
 12  8  1  6  0  0  0
 12 13  1  0  0  0  0
 13 22  1  0  0  0  0
 13 11  1  0  0  0  0
 14 23  1  0  0  0  0
 14 22  2  0  0  0  0
 15  9  1  0  0  0  0
 16  1  1  0  0  0  0
 17 10  1  1  0  0  0
 17  8  1  0  0  0  0
 18 15  2  0  0  0  0
 18  6  1  0  0  0  0
 19 16  1  0  0  0  0
 19  7  1  0  0  0  0
 20 29  1  1  0  0  0
 20 10  1  0  0  0  0
 21  4  1  0  0  0  0
 22 21  1  0  0  0  0
 24  2  1  0  0  0  0
 25  5  1  0  0  0  0
 27 14  1  0  0  0  0
 28 23  2  0  0  0  0
 30 29  1  0  0  0  0
 30 32  1  1  0  0  0
 31 30  1  0  0  0  0
M  END
>  <MODEL>
2

>  <REMARK>
 VINA RESULT:      -7.7      3.442      8.311
  Name = 
  2 active torsions:
  status: ('A' for Active; 'I' for Inactive)
    1  A    between atoms: C_20  and  C_29
    2  A    between atoms: C_29  and  C_30
                            x       y       z     vdW  Elec       q    Type
                         _______ _______ _______ _____ _____    ______ ____

>  <TORSDO>
F 2

$$$$
=
 OpenBabel11122412573D

 32 37  0  0  1  0  0  0  0  0999 V2000
  161.9120  203.3280  151.0590 C   0  0  0  0  0  2  0  0  0  0  0  0
  160.9890  208.7320  152.4410 C   0  0  0  0  0  0  0  0  0  0  0  0
  162.4740  211.7600  148.8070 C   0  0  0  0  0  2  0  0  0  0  0  0
  161.2360  212.5980  149.0500 C   0  0  0  0  0  2  0  0  0  0  0  0
  159.8760  209.7330  154.3620 C   0  0  0  0  0  0  0  0  0  0  0  0
  159.3220  210.8770  154.9230 C   0  0  0  0  0  0  0  0  0  0  0  0
  161.4570  206.2690  152.0970 C   0  0  2  0  0  3  0  0  0  0  0  0
  160.8380  207.8160  150.1350 C   0  0  0  0  0  2  0  0  0  0  0  0
  158.6640  213.1180  155.0560 C   0  0  1  0  0  3  0  0  0  0  0  0
  161.3420  205.4080  149.7130 C   0  0  0  0  0  2  0  0  0  0  0  0
  162.1570  210.3100  149.1390 C   0  0  0  0  0  2  0  0  0  0  0  0
  161.5690  208.8090  151.0470 C   0  0  1  0  0  3  0  0  0  0  0  0
  161.5690  210.1550  150.4770 N   0  0  0  0  0  0  0  0  0  0  0  0
  160.4050  211.0870  152.3860 C   0  0  0  0  0  0  0  0  0  0  0  0
  158.3090  212.3370  156.2960 C   0  0  0  0  0  3  0  0  0  0  0  0
  162.3060  204.2260  152.2350 C   0  0  0  0  0  2  0  0  0  0  0  0
  160.7650  206.3960  150.7230 C   0  0  1  0  0  3  0  0  0  0  0  0
  158.6870  211.0580  156.2130 C   0  0  0  0  0  3  0  0  0  0  0  0
  161.2240  205.0070  152.6550 O   0  0  0  0  0  0  0  0  0  0  0  0
  160.9360  203.9800  150.0730 C   0  0  1  0  0  3  0  0  0  0  0  0
  160.9460  212.6340  150.5410 C   0  0  0  0  0  2  0  0  0  0  0  0
  160.9220  211.2530  151.1540 C   0  0  0  0  0  0  0  0  0  0  0  0
  159.8390  212.1670  153.0110 N   0  0  0  0  0  0  0  0  0  0  0  0
  160.9640  207.3520  153.0600 C   0  0  0  0  0  2  0  0  0  0  0  0
  159.8600  208.5880  155.0920 F   0  0  0  0  0  0  0  0  0  0  0  0
  159.6710  214.1990  155.4060 C   0  0  0  0  0  1  0  0  0  0  0  0
  160.4410  209.8140  153.0520 C   0  0  0  0  0  0  0  0  0  0  0  0
  159.3150  212.0550  154.2520 C   0  0  0  0  0  0  0  0  0  0  0  0
  160.8540  203.1210  148.8210 C   0  0  0  0  0  2  0  0  0  0  0  0
  160.7080  201.6500  149.1740 C   0  0  1  0  0  3  0  0  0  0  0  0
  159.3610  201.3260  149.3380 O   0  0  0  0  0  1  0  0  0  0  0  0
  161.2890  200.8090  148.0560 C   0  0  0  0  0  1  0  0  0  0  0  0
  1 16  1  0  0  0  0
  2 27  2  0  0  0  0
  2 24  1  0  0  0  0
  3  4  1  0  0  0  0
  3 11  1  0  0  0  0
  4 21  1  0  0  0  0
  5  6  2  0  0  0  0
  5 25  1  0  0  0  0
  6 18  1  0  0  0  0
  7 19  1  0  0  0  0
  7 24  1  1  0  0  0
  8 17  1  0  0  0  0
  9 26  1  1  0  0  0
  9 15  1  0  0  0  0
 10 20  1  0  0  0  0
 11 13  1  0  0  0  0
 12  8  1  6  0  0  0
 12  2  1  0  0  0  0
 13 12  1  0  0  0  0
 13 22  1  0  0  0  0
 14 23  1  0  0  0  0
 14 27  1  0  0  0  0
 16 19  1  0  0  0  0
 17 10  1  6  0  0  0
 17  7  1  0  0  0  0
 18 15  2  0  0  0  0
 20 29  1  6  0  0  0
 20  1  1  0  0  0  0
 21 22  1  0  0  0  0
 22 14  2  0  0  0  0
 23 28  2  0  0  0  0
 27  5  1  0  0  0  0
 28  6  1  0  0  0  0
 28  9  1  0  0  0  0
 29 30  1  0  0  0  0
 30 32  1  6  0  0  0
 30 31  1  0  0  0  0
M  END
>  <MODEL>
3

>  <REMARK>
 VINA RESULT:      -7.5      1.689      2.363
  Name = 
  2 active torsions:
  status: ('A' for Active; 'I' for Inactive)
    1  A    between atoms: C_20  and  C_29
    2  A    between atoms: C_29  and  C_30
                            x       y       z     vdW  Elec       q    Type
                         _______ _______ _______ _____ _____    ______ ____

>  <TORSDO>
F 2

$$$$
=
 OpenBabel11122412573D

 32 37  0  0  1  0  0  0  0  0999 V2000
  160.5740  208.2070  157.1200 C   0  0  0  0  0  2  0  0  0  0  0  0
  160.7770  205.9650  151.9340 C   0  0  0  0  0  0  0  0  0  0  0  0
  161.6510  209.4630  148.5320 C   0  0  0  0  0  2  0  0  0  0  0  0
  162.5790  208.4950  147.8290 C   0  0  0  0  0  2  0  0  0  0  0  0
  160.6820  203.6520  151.1770 C   0  0  0  0  0  0  0  0  0  0  0  0
  160.8750  202.7580  150.1310 C   0  0  0  0  0  0  0  0  0  0  0  0
  160.4870  206.7750  154.3130 C   0  0  2  0  0  3  0  0  0  0  0  0
  162.1400  207.8990  152.6930 C   0  0  0  0  0  2  0  0  0  0  0  0
  161.4310  202.0440  147.9740 C   0  0  1  0  0  3  0  0  0  0  0  0
  161.8660  208.7880  155.0090 C   0  0  0  0  0  2  0  0  0  0  0  0
  161.6800  209.1720  150.0250 C   0  0  0  0  0  2  0  0  0  0  0  0
  161.0640  207.4310  151.7060 C   0  0  1  0  0  3  0  0  0  0  0  0
  161.4270  207.7570  150.3270 N   0  0  0  0  0  0  0  0  0  0  0  0
  161.3790  205.4340  149.6430 C   0  0  0  0  0  0  0  0  0  0  0  0
  161.0150  200.9050  148.8700 C   0  0  0  0  0  3  0  0  0  0  0  0
  159.6290  207.3460  156.2760 C   0  0  0  0  0  2  0  0  0  0  0  0
  161.8260  207.5260  154.1520 C   0  0  1  0  0  3  0  0  0  0  0  0
  160.6990  201.3190  150.1010 C   0  0  0  0  0  3  0  0  0  0  0  0
  160.3270  206.3220  155.6280 O   0  0  0  0  0  0  0  0  0  0  0  0
  161.9540  208.4240  156.4900 C   0  0  1  0  0  3  0  0  0  0  0  0
  162.0010  207.0930  147.9250 C   0  0  0  0  0  2  0  0  0  0  0  0
  161.6330  206.7210  149.3430 C   0  0  0  0  0  0  0  0  0  0  0  0
  161.5440  204.4880  148.6660 N   0  0  0  0  0  0  0  0  0  0  0  0
  160.4060  205.5870  153.3510 C   0  0  0  0  0  2  0  0  0  0  0  0
  160.2500  203.1610  152.3680 F   0  0  0  0  0  0  0  0  0  0  0  0
  160.4380  202.1840  146.8340 C   0  0  0  0  0  1  0  0  0  0  0  0
  160.9360  205.0390  150.9520 C   0  0  0  0  0  0  0  0  0  0  0  0
  161.2930  203.1830  148.9130 C   0  0  0  0  0  0  0  0  0  0  0  0
  162.6820  209.5130  157.2610 C   0  0  0  0  0  2  0  0  0  0  0  0
  162.7750  210.7930  156.4460 C   0  0  1  0  0  3  0  0  0  0  0  0
  161.7890  211.6930  156.8510 O   0  0  0  0  0  1  0  0  0  0  0  0
  164.1360  211.4210  156.6560 C   0  0  0  0  0  1  0  0  0  0  0  0
  2 24  1  0  0  0  0
  3 11  1  0  0  0  0
  4 21  1  0  0  0  0
  4  3  1  0  0  0  0
  5 25  1  0  0  0  0
  6  5  2  0  0  0  0
  7 24  1  6  0  0  0
  7 19  1  0  0  0  0
  9 26  1  6  0  0  0
  9 15  1  0  0  0  0
  9 28  1  0  0  0  0
 10 20  1  0  0  0  0
 11 13  1  0  0  0  0
 12  2  1  0  0  0  0
 12  8  1  1  0  0  0
 13 12  1  0  0  0  0
 14 27  1  0  0  0  0
 15 18  2  0  0  0  0
 16  1  1  0  0  0  0
 17  8  1  6  0  0  0
 17  7  1  0  0  0  0
 17 10  1  0  0  0  0
 18  6  1  0  0  0  0
 19 16  1  0  0  0  0
 20  1  1  0  0  0  0
 20 29  1  1  0  0  0
 21 22  1  0  0  0  0
 22 14  2  0  0  0  0
 22 13  1  0  0  0  0
 23 28  2  0  0  0  0
 23 14  1  0  0  0  0
 27  5  1  0  0  0  0
 27  2  2  0  0  0  0
 28  6  1  0  0  0  0
 30 32  1  1  0  0  0
 30 31  1  0  0  0  0
 30 29  1  0  0  0  0
M  END
>  <MODEL>
4

>  <REMARK>
 VINA RESULT:      -7.4      2.630      7.979
  Name = 
  2 active torsions:
  status: ('A' for Active; 'I' for Inactive)
    1  A    between atoms: C_20  and  C_29
    2  A    between atoms: C_29  and  C_30
                            x       y       z     vdW  Elec       q    Type
                         _______ _______ _______ _____ _____    ______ ____

>  <TORSDO>
F 2

$$$$
