=
 OpenBabel11122413303D

 31 35  0  0  1  0  0  0  0  0999 V2000
  161.0130  204.6280  144.9170 C   0  0  0  0  0  0  0  0  0  0  0  0
  160.4350  205.0230  148.6580 C   0  0  2  0  0  3  0  0  0  0  0  0
  160.8180  203.7210  149.3370 C   0  0  0  0  0  0  0  0  0  0  0  0
  161.2580  201.3310  149.2710 C   0  0  0  0  0  0  0  0  0  0  0  0
  161.0400  205.1690  147.2830 C   0  0  0  0  0  0  0  0  0  0  0  0
  162.1620  205.4000  144.7240 C   0  0  0  0  0  3  0  0  0  0  0  0
  160.9250  202.5220  148.6170 C   0  0  0  0  0  3  0  0  0  0  0  0
  162.2820  206.5390  149.5390 C   0  0  2  0  0  3  0  0  0  0  0  0
  160.4430  203.9890  143.8680 F   0  0  0  0  0  0  0  0  0  0  0  0
  160.8590  204.9110  151.4770 N   0  0  0  0  0  2  0  0  0  0  0  0
  161.3710  200.1810  148.5650 F   0  0  0  0  0  0  0  0  0  0  0  0
  162.7680  206.6820  148.1690 N   0  0  0  0  0  2  0  0  0  0  0  0
  160.7740  206.2470  149.5430 C   0  0  2  0  0  3  0  0  0  0  0  0
  160.4520  204.5150  146.1920 C   0  0  0  0  0  3  0  0  0  0  0  0
  161.4770  201.3300  150.6500 C   0  0  0  0  0  3  0  0  0  0  0  0
  162.1970  205.9480  147.0830 C   0  0  0  0  0  0  0  0  0  0  0  0
  162.7500  206.0630  145.8040 C   0  0  0  0  0  3  0  0  0  0  0  0
  160.2670  206.0570  150.9070 N   0  0  0  0  0  2  0  0  0  0  0  0
  161.0000  203.7010  150.7310 C   0  0  0  0  0  0  0  0  0  0  0  0
  161.3480  202.5140  151.3810 C   0  0  0  0  0  3  0  0  0  0  0  0
  161.4860  209.1650  148.7620 O   0  0  0  0  0  0  0  0  0  0  0  0
  162.1230  209.0430  149.8450 C   0  0  0  0  0  0  0  0  0  0  0  0
  162.5590  207.7570  150.2870 N   0  0  0  0  0  2  0  0  0  0  0  0
  160.2810  211.4710  152.3600 C   0  0  1  0  0  3  0  0  0  0  0  0
  162.2310  209.9450  152.1720 C   0  0  0  0  0  2  0  0  0  0  0  0
  161.9310  212.0090  149.1450 O   0  0  0  0  0  0  0  0  0  0  0  0
  158.8070  211.5750  152.6880 C   0  0  0  0  0  1  0  0  0  0  0  0
  160.7620  210.0420  152.5720 C   0  0  0  0  0  2  0  0  0  0  0  0
  161.6380  211.4410  150.2290 C   0  0  0  0  0  0  0  0  0  0  0  0
  162.4300  210.2450  150.6830 C   0  0  2  0  0  3  0  0  0  0  0  0
  160.5090  211.8960  150.9820 N   0  0  0  0  0  2  0  0  0  0  0  0
  1 14  1  0  0  0  0
  2  5  1  6  0  0  0
  2  3  1  0  0  0  0
  2 13  1  0  0  0  0
  3 19  1  0  0  0  0
  4 15  2  0  0  0  0
  6  1  2  0  0  0  0
  6 17  1  0  0  0  0
  7  4  1  0  0  0  0
  7  3  2  0  0  0  0
  8 13  1  0  0  0  0
  8 23  1  1  0  0  0
  9  1  1  0  0  0  0
 11  4  1  0  0  0  0
 12  8  1  0  0  0  0
 13 18  1  1  0  0  0
 14  5  2  0  0  0  0
 15 20  1  0  0  0  0
 16  5  1  0  0  0  0
 16 12  1  0  0  0  0
 17 16  2  0  0  0  0
 18 10  1  0  0  0  0
 19 20  2  0  0  0  0
 19 10  1  0  0  0  0
 21 22  2  0  0  0  0
 22 23  1  0  0  0  0
 24 28  1  0  0  0  0
 24 27  1  6  0  0  0
 25 28  1  0  0  0  0
 26 29  2  0  0  0  0
 29 30  1  0  0  0  0
 29 31  1  0  0  0  0
 30 22  1  6  0  0  0
 30 25  1  0  0  0  0
 31 24  1  0  0  0  0
M  END
>  <MODEL>
1

>  <REMARK>
 VINA RESULT:      -7.7      0.000      0.000
  Name = 
  2 active torsions:
  status: ('A' for Active; 'I' for Inactive)
    1  A    between atoms: C_5  and  C_30
    2  A    between atoms: C_10  and  N_16
                            x       y       z     vdW  Elec       q    Type
                         _______ _______ _______ _____ _____    ______ ____

>  <TORSDO>
F 2

$$$$
=
 OpenBabel11122413303D

 31 35  0  0  1  0  0  0  0  0999 V2000
  161.0920  204.2330  145.5030 C   0  0  0  0  0  0  0  0  0  0  0  0
  160.4880  205.8370  148.9010 C   0  0  2  0  0  3  0  0  0  0  0  0
  160.8620  204.8310  149.9730 C   0  0  0  0  0  0  0  0  0  0  0  0
  161.2940  202.5510  150.7000 C   0  0  0  0  0  0  0  0  0  0  0  0
  161.1040  205.5220  147.5590 C   0  0  0  0  0  0  0  0  0  0  0  0
  162.2450  204.8980  145.0750 C   0  0  0  0  0  3  0  0  0  0  0  0
  160.9690  203.4610  149.6880 C   0  0  0  0  0  3  0  0  0  0  0  0
  162.3340  207.5570  149.2490 C   0  0  2  0  0  3  0  0  0  0  0  0
  160.5270  203.2860  144.7170 F   0  0  0  0  0  0  0  0  0  0  0  0
  160.8910  206.6580  151.6030 N   0  0  0  0  0  2  0  0  0  0  0  0
  161.4080  201.2330  150.4120 F   0  0  0  0  0  0  0  0  0  0  0  0
  162.8300  207.2410  147.9120 N   0  0  0  0  0  2  0  0  0  0  0  0
  160.8250  207.2840  149.3360 C   0  0  2  0  0  3  0  0  0  0  0  0
  160.5220  204.5460  146.7390 C   0  0  0  0  0  3  0  0  0  0  0  0
  161.5030  203.0030  152.0050 C   0  0  0  0  0  3  0  0  0  0  0  0
  162.2650  206.1910  147.1240 C   0  0  0  0  0  0  0  0  0  0  0  0
  162.8270  205.8790  145.8820 C   0  0  0  0  0  3  0  0  0  0  0  0
  160.3080  207.5530  150.6830 N   0  0  0  0  0  2  0  0  0  0  0  0
  161.0340  205.2690  151.2970 C   0  0  0  0  0  0  0  0  0  0  0  0
  161.3730  204.3620  152.3040 C   0  0  0  0  0  3  0  0  0  0  0  0
  161.3330  209.7930  147.7910 O   0  0  0  0  0  0  0  0  0  0  0  0
  162.0680  210.0280  148.7890 C   0  0  0  0  0  0  0  0  0  0  0  0
  162.6100  208.9520  149.5570 N   0  0  0  0  0  2  0  0  0  0  0  0
  161.0120  213.7050  147.8020 C   0  0  1  0  0  3  0  0  0  0  0  0
  161.1400  212.1470  149.7310 C   0  0  0  0  0  2  0  0  0  0  0  0
  164.2020  211.9260  147.7080 O   0  0  0  0  0  0  0  0  0  0  0  0
  160.1680  214.1820  146.6390 C   0  0  0  0  0  1  0  0  0  0  0  0
  160.2480  212.6620  148.6070 C   0  0  0  0  0  2  0  0  0  0  0  0
  163.0190  212.1910  148.0490 C   0  0  0  0  0  0  0  0  0  0  0  0
  162.3830  211.4370  149.1840 C   0  0  2  0  0  3  0  0  0  0  0  0
  162.2690  213.1570  147.3040 N   0  0  0  0  0  2  0  0  0  0  0  0
  1 14  1  0  0  0  0
  2  5  1  6  0  0  0
  2 13  1  0  0  0  0
  2  3  1  0  0  0  0
  3 19  1  0  0  0  0
  4 15  2  0  0  0  0
  6  1  2  0  0  0  0
  6 17  1  0  0  0  0
  7  3  2  0  0  0  0
  7  4  1  0  0  0  0
  8 13  1  0  0  0  0
  8 23  1  6  0  0  0
  9  1  1  0  0  0  0
 11  4  1  0  0  0  0
 12  8  1  0  0  0  0
 13 18  1  1  0  0  0
 14  5  2  0  0  0  0
 15 20  1  0  0  0  0
 16  5  1  0  0  0  0
 16 12  1  0  0  0  0
 17 16  2  0  0  0  0
 18 10  1  0  0  0  0
 19 10  1  0  0  0  0
 19 20  2  0  0  0  0
 21 22  2  0  0  0  0
 22 23  1  0  0  0  0
 24 27  1  6  0  0  0
 24 28  1  0  0  0  0
 26 29  2  0  0  0  0
 28 25  1  0  0  0  0
 29 30  1  0  0  0  0
 30 22  1  6  0  0  0
 30 25  1  0  0  0  0
 31 24  1  0  0  0  0
 31 29  1  0  0  0  0
M  END
>  <MODEL>
2

>  <REMARK>
 VINA RESULT:      -7.4      1.828      2.430
  Name = 
  2 active torsions:
  status: ('A' for Active; 'I' for Inactive)
    1  A    between atoms: C_5  and  C_30
    2  A    between atoms: C_10  and  N_16
                            x       y       z     vdW  Elec       q    Type
                         _______ _______ _______ _____ _____    ______ ____

>  <TORSDO>
F 2

$$$$
=
 OpenBabel11122413303D

 31 35  0  0  1  0  0  0  0  0999 V2000
  160.8590  206.5810  146.6760 C   0  0  0  0  0  0  0  0  0  0  0  0
  160.2110  204.9080  150.0320 C   0  0  2  0  0  3  0  0  0  0  0  0
  160.6650  203.4630  149.9370 C   0  0  0  0  0  0  0  0  0  0  0  0
  161.2520  201.4940  148.6370 C   0  0  0  0  0  0  0  0  0  0  0  0
  160.8230  205.7880  148.9690 C   0  0  0  0  0  0  0  0  0  0  0  0
  161.9600  207.3900  146.9690 C   0  0  0  0  0  3  0  0  0  0  0  0
  160.8550  202.8330  148.6970 C   0  0  0  0  0  3  0  0  0  0  0  0
  161.9500  205.8100  151.6590 C   0  0  2  0  0  3  0  0  0  0  0  0
  160.3420  206.5700  145.4240 F   0  0  0  0  0  0  0  0  0  0  0  0
  160.6060  203.3390  152.3820 N   0  0  0  0  0  2  0  0  0  0  0  0
  161.4440  200.8990  147.4360 F   0  0  0  0  0  0  0  0  0  0  0  0
  162.4430  206.6790  150.5940 N   0  0  0  0  0  2  0  0  0  0  0  0
  160.4640  205.4910  151.4430 C   0  0  2  0  0  3  0  0  0  0  0  0
  160.2900  205.7850  147.6730 C   0  0  0  0  0  3  0  0  0  0  0  0
  161.4540  200.7720  149.8150 C   0  0  0  0  0  3  0  0  0  0  0  0
  161.9330  206.6060  149.2610 C   0  0  0  0  0  0  0  0  0  0  0  0
  162.4930  207.4060  148.2610 C   0  0  0  0  0  3  0  0  0  0  0  0
  159.9530  204.5840  152.4780 N   0  0  0  0  0  2  0  0  0  0  0  0
  160.8310  202.7160  151.1150 C   0  0  0  0  0  0  0  0  0  0  0  0
  161.2430  201.3820  151.0550 C   0  0  0  0  0  3  0  0  0  0  0  0
  160.6130  208.1720  152.5300 O   0  0  0  0  0  0  0  0  0  0  0  0
  161.4330  207.6370  153.3260 C   0  0  0  0  0  0  0  0  0  0  0  0
  162.1430  206.4570  152.9480 N   0  0  0  0  0  2  0  0  0  0  0  0
  159.5510  209.9030  155.9600 C   0  0  1  0  0  3  0  0  0  0  0  0
  160.6630  207.6980  155.7020 C   0  0  0  0  0  2  0  0  0  0  0  0
  162.6590  210.3280  154.0870 O   0  0  0  0  0  0  0  0  0  0  0  0
  158.2540  210.6700  155.8140 C   0  0  0  0  0  1  0  0  0  0  0  0
  159.3310  208.4370  155.6140 C   0  0  0  0  0  2  0  0  0  0  0  0
  161.6860  209.7340  154.6200 C   0  0  0  0  0  0  0  0  0  0  0  0
  161.6720  208.2310  154.6800 C   0  0  2  0  0  3  0  0  0  0  0  0
  160.5700  210.4930  155.0980 N   0  0  0  0  0  2  0  0  0  0  0  0
  1  6  2  0  0  0  0
  1 14  1  0  0  0  0
  2  5  1  6  0  0  0
  2 13  1  0  0  0  0
  3  2  1  0  0  0  0
  3 19  1  0  0  0  0
  4  7  1  0  0  0  0
  4 15  2  0  0  0  0
  5 16  1  0  0  0  0
  6 17  1  0  0  0  0
  7  3  2  0  0  0  0
  8 23  1  1  0  0  0
  9  1  1  0  0  0  0
 10 18  1  0  0  0  0
 11  4  1  0  0  0  0
 12  8  1  0  0  0  0
 13  8  1  0  0  0  0
 13 18  1  1  0  0  0
 14  5  2  0  0  0  0
 15 20  1  0  0  0  0
 16 12  1  0  0  0  0
 17 16  2  0  0  0  0
 19 10  1  0  0  0  0
 20 19  2  0  0  0  0
 21 22  2  0  0  0  0
 23 22  1  0  0  0  0
 24 27  1  6  0  0  0
 26 29  2  0  0  0  0
 28 25  1  0  0  0  0
 28 24  1  0  0  0  0
 29 30  1  0  0  0  0
 29 31  1  0  0  0  0
 30 22  1  6  0  0  0
 30 25  1  0  0  0  0
 31 24  1  0  0  0  0
M  END
>  <MODEL>
3

>  <REMARK>
 VINA RESULT:      -6.9      2.467      2.933
  Name = 
  2 active torsions:
  status: ('A' for Active; 'I' for Inactive)
    1  A    between atoms: C_5  and  C_30
    2  A    between atoms: C_10  and  N_16
                            x       y       z     vdW  Elec       q    Type
                         _______ _______ _______ _____ _____    ______ ____

>  <TORSDO>
F 2

$$$$
=
 OpenBabel11122413303D

 31 35  0  0  1  0  0  0  0  0999 V2000
  160.8630  207.5420  156.3010 C   0  0  0  0  0  0  0  0  0  0  0  0
  161.8640  208.5280  152.7640 C   0  0  2  0  0  3  0  0  0  0  0  0
  161.4480  207.4120  151.8250 C   0  0  0  0  0  0  0  0  0  0  0  0
  160.8080  205.1030  151.4090 C   0  0  0  0  0  0  0  0  0  0  0  0
  161.1310  208.4910  154.0840 C   0  0  0  0  0  0  0  0  0  0  0  0
  159.7680  208.3800  156.5310 C   0  0  0  0  0  3  0  0  0  0  0  0
  161.1670  206.1210  152.2990 C   0  0  0  0  0  3  0  0  0  0  0  0
  160.2520  210.3540  152.0180 C   0  0  2  0  0  3  0  0  0  0  0  0
  161.2650  206.6750  157.2610 F   0  0  0  0  0  0  0  0  0  0  0  0
  161.7320  208.9570  149.9470 N   0  0  0  0  0  2  0  0  0  0  0  0
  160.5260  203.8640  151.8770 F   0  0  0  0  0  0  0  0  0  0  0  0
  159.6380  210.3020  153.3420 N   0  0  0  0  0  2  0  0  0  0  0  0
  161.7220  209.9170  152.0950 C   0  0  2  0  0  3  0  0  0  0  0  0
  161.5440  207.5990  155.0820 C   0  0  0  0  0  3  0  0  0  0  0  0
  160.7360  205.3660  150.0390 C   0  0  0  0  0  3  0  0  0  0  0  0
  160.0280  209.3340  154.3200 C   0  0  0  0  0  0  0  0  0  0  0  0
  159.3540  209.2780  155.5440 C   0  0  0  0  0  3  0  0  0  0  0  0
  162.3530  209.9190  150.7690 N   0  0  0  0  0  2  0  0  0  0  0  0
  161.4130  207.6550  150.4410 C   0  0  0  0  0  0  0  0  0  0  0  0
  161.0390  206.6410  149.5540 C   0  0  0  0  0  3  0  0  0  0  0  0
  158.0150  212.0930  152.3340 O   0  0  0  0  0  0  0  0  0  0  0  0
  159.0080  212.5290  151.6890 C   0  0  0  0  0  0  0  0  0  0  0  0
  160.1570  211.7050  151.4870 N   0  0  0  0  0  2  0  0  0  0  0  0
  157.6210  214.4520  148.5290 C   0  0  1  0  0  3  0  0  0  0  0  0
  157.5660  214.4530  151.0110 C   0  0  0  0  0  2  0  0  0  0  0  0
  160.9960  213.8890  149.8120 O   0  0  0  0  0  0  0  0  0  0  0  0
  156.9910  213.8990  147.2680 C   0  0  0  0  0  1  0  0  0  0  0  0
  156.8750  213.9380  149.7530 C   0  0  0  0  0  2  0  0  0  0  0  0
  159.7400  213.9810  149.8220 C   0  0  0  0  0  0  0  0  0  0  0  0
  158.9970  213.9170  151.1280 C   0  0  2  0  0  3  0  0  0  0  0  0
  159.0290  214.0720  148.5820 N   0  0  0  0  0  2  0  0  0  0  0  0
  1  6  1  0  0  0  0
  1  9  1  0  0  0  0
  2  3  1  6  0  0  0
  2  5  1  0  0  0  0
  3  7  1  0  0  0  0
  4 11  1  0  0  0  0
  4  7  2  0  0  0  0
  5 16  2  0  0  0  0
  5 14  1  0  0  0  0
  8 23  1  1  0  0  0
  8 13  1  0  0  0  0
  8 12  1  0  0  0  0
 10 19  1  0  0  0  0
 10 18  1  0  0  0  0
 12 16  1  0  0  0  0
 13 18  1  6  0  0  0
 13  2  1  0  0  0  0
 14  1  2  0  0  0  0
 15  4  1  0  0  0  0
 16 17  1  0  0  0  0
 17  6  2  0  0  0  0
 19  3  2  0  0  0  0
 20 15  2  0  0  0  0
 20 19  1  0  0  0  0
 22 21  2  0  0  0  0
 23 22  1  0  0  0  0
 24 27  1  6  0  0  0
 24 31  1  0  0  0  0
 24 28  1  0  0  0  0
 25 30  1  0  0  0  0
 26 29  2  0  0  0  0
 28 25  1  0  0  0  0
 29 30  1  0  0  0  0
 30 22  1  6  0  0  0
 31 29  1  0  0  0  0
M  END
>  <MODEL>
4

>  <REMARK>
 VINA RESULT:      -6.6      3.654      6.736
  Name = 
  2 active torsions:
  status: ('A' for Active; 'I' for Inactive)
    1  A    between atoms: C_5  and  C_30
    2  A    between atoms: C_10  and  N_16
                            x       y       z     vdW  Elec       q    Type
                         _______ _______ _______ _____ _____    ______ ____

>  <TORSDO>
F 2

$$$$
=
 OpenBabel11122413303D

 31 35  0  0  1  0  0  0  0  0999 V2000
  161.0160  201.5020  149.9710 C   0  0  0  0  0  0  0  0  0  0  0  0
  162.1430  204.5910  148.0550 C   0  0  2  0  0  3  0  0  0  0  0  0
  161.4100  204.6190  146.7270 C   0  0  0  0  0  0  0  0  0  0  0  0
  160.1510  203.5150  144.9640 C   0  0  0  0  0  0  0  0  0  0  0  0
  161.4670  203.7140  149.0810 C   0  0  0  0  0  0  0  0  0  0  0  0
  160.2000  202.0610  150.9580 C   0  0  0  0  0  3  0  0  0  0  0  0
  160.8010  203.4690  146.2010 C   0  0  0  0  0  3  0  0  0  0  0  0
  161.0700  206.6020  149.1910 C   0  0  2  0  0  3  0  0  0  0  0  0
  161.1940  200.1610  149.9210 F   0  0  0  0  0  0  0  0  0  0  0  0
  162.0490  206.9700  146.4820 N   0  0  0  0  0  2  0  0  0  0  0  0
  159.5550  202.4040  144.4700 F   0  0  0  0  0  0  0  0  0  0  0  0
  160.5040  205.6930  150.1850 N   0  0  0  0  0  2  0  0  0  0  0  0
  162.3660  206.0190  148.6110 C   0  0  2  0  0  3  0  0  0  0  0  0
  161.6500  202.3260  149.0380 C   0  0  0  0  0  3  0  0  0  0  0  0
  160.1130  204.7090  144.2390 C   0  0  0  0  0  3  0  0  0  0  0  0
  160.6440  204.2740  150.0780 C   0  0  0  0  0  0  0  0  0  0  0  0
  160.0180  203.4460  151.0140 C   0  0  0  0  0  3  0  0  0  0  0  0
  162.9330  206.8940  147.5780 N   0  0  0  0  0  2  0  0  0  0  0  0
  161.4010  205.8030  145.9710 C   0  0  0  0  0  0  0  0  0  0  0  0
  160.7380  205.8530  144.7410 C   0  0  0  0  0  3  0  0  0  0  0  0
  162.7580  207.0440  151.4450 O   0  0  0  0  0  0  0  0  0  0  0  0
  162.1970  208.0490  150.9290 C   0  0  0  0  0  0  0  0  0  0  0  0
  161.3320  207.8960  149.8040 N   0  0  0  0  0  2  0  0  0  0  0  0
  160.1390  210.9750  152.6070 C   0  0  1  0  0  3  0  0  0  0  0  0
  162.0810  209.4730  152.9790 C   0  0  0  0  0  2  0  0  0  0  0  0
  162.1100  210.7660  149.5370 O   0  0  0  0  0  0  0  0  0  0  0  0
  158.6410  211.1340  152.7530 C   0  0  0  0  0  1  0  0  0  0  0  0
  160.5800  209.6420  153.1960 C   0  0  0  0  0  2  0  0  0  0  0  0
  161.7030  210.4640  150.6900 C   0  0  0  0  0  0  0  0  0  0  0  0
  162.4320  209.4180  151.4880 C   0  0  2  0  0  3  0  0  0  0  0  0
  160.5090  211.0680  151.1980 N   0  0  0  0  0  2  0  0  0  0  0  0
  1  6  1  0  0  0  0
  2  3  1  6  0  0  0
  2 13  1  0  0  0  0
  2  5  1  0  0  0  0
  4  7  2  0  0  0  0
  5 16  2  0  0  0  0
  6 17  2  0  0  0  0
  7  3  1  0  0  0  0
  8 23  1  1  0  0  0
  8 12  1  0  0  0  0
  9  1  1  0  0  0  0
 10 18  1  0  0  0  0
 11  4  1  0  0  0  0
 13 18  1  6  0  0  0
 13  8  1  0  0  0  0
 14  5  1  0  0  0  0
 14  1  2  0  0  0  0
 15 20  2  0  0  0  0
 15  4  1  0  0  0  0
 16 12  1  0  0  0  0
 16 17  1  0  0  0  0
 19 10  1  0  0  0  0
 19  3  2  0  0  0  0
 20 19  1  0  0  0  0
 22 21  2  0  0  0  0
 23 22  1  0  0  0  0
 24 27  1  6  0  0  0
 24 28  1  0  0  0  0
 25 28  1  0  0  0  0
 26 29  2  0  0  0  0
 29 31  1  0  0  0  0
 29 30  1  0  0  0  0
 30 22  1  6  0  0  0
 30 25  1  0  0  0  0
 31 24  1  0  0  0  0
M  END
>  <MODEL>
5

>  <REMARK>
 VINA RESULT:      -6.1      1.283      4.058
  Name = 
  2 active torsions:
  status: ('A' for Active; 'I' for Inactive)
    1  A    between atoms: C_5  and  C_30
    2  A    between atoms: C_10  and  N_16
                            x       y       z     vdW  Elec       q    Type
                         _______ _______ _______ _____ _____    ______ ____

>  <TORSDO>
F 2

$$$$
=
 OpenBabel11122413303D

 31 35  0  0  1  0  0  0  0  0999 V2000
  160.9480  209.2550  154.8570 C   0  0  0  0  0  0  0  0  0  0  0  0
  162.1820  209.5900  151.2730 C   0  0  2  0  0  3  0  0  0  0  0  0
  161.6730  208.3990  150.4830 C   0  0  0  0  0  0  0  0  0  0  0  0
  160.7830  206.1390  150.3690 C   0  0  0  0  0  0  0  0  0  0  0  0
  161.4040  209.8290  152.5430 C   0  0  0  0  0  0  0  0  0  0  0  0
  159.9500  210.2330  154.9070 C   0  0  0  0  0  3  0  0  0  0  0  0
  161.2270  207.2320  151.1210 C   0  0  0  0  0  3  0  0  0  0  0  0
  160.8220  211.4510  150.1890 C   0  0  2  0  0  3  0  0  0  0  0  0
  161.2110  208.5010  155.9510 F   0  0  0  0  0  0  0  0  0  0  0  0
  162.2020  209.6080  148.4200 N   0  0  0  0  0  2  0  0  0  0  0  0
  160.3420  205.0220  150.9950 F   0  0  0  0  0  0  0  0  0  0  0  0
  160.1590  211.6640  151.4730 N   0  0  0  0  0  2  0  0  0  0  0  0
  162.2280  210.8710  150.4040 C   0  0  2  0  0  3  0  0  0  0  0  0
  161.6740  209.0560  153.6800 C   0  0  0  0  0  3  0  0  0  0  0  0
  160.7910  206.2020  148.9740 C   0  0  0  0  0  3  0  0  0  0  0  0
  160.3980  210.8150  152.5980 C   0  0  0  0  0  0  0  0  0  0  0  0
  159.6800  211.0160  153.7810 C   0  0  0  0  0  3  0  0  0  0  0  0
  162.9010  210.6070  149.1270 N   0  0  0  0  0  2  0  0  0  0  0  0
  161.7160  208.4360  149.0780 C   0  0  0  0  0  0  0  0  0  0  0  0
  161.2580  207.3500  148.3280 C   0  0  0  0  0  3  0  0  0  0  0  0
  160.1240  211.8240  147.4500 O   0  0  0  0  0  0  0  0  0  0  0  0
  160.5300  212.8310  148.0930 C   0  0  0  0  0  0  0  0  0  0  0  0
  160.9050  212.7100  149.4650 N   0  0  0  0  0  2  0  0  0  0  0  0
  160.6240  214.3370  144.4410 C   0  0  1  0  0  3  0  0  0  0  0  0
  159.3750  214.4530  146.5840 C   0  0  0  0  0  2  0  0  0  0  0  0
  162.9960  214.4070  147.2200 O   0  0  0  0  0  0  0  0  0  0  0  0
  160.7550  213.6250  143.1120 C   0  0  0  0  0  1  0  0  0  0  0  0
  159.4470  213.7690  145.2230 C   0  0  0  0  0  2  0  0  0  0  0  0
  161.8920  214.2890  146.6260 C   0  0  0  0  0  0  0  0  0  0  0  0
  160.6230  214.1680  147.4250 C   0  0  2  0  0  3  0  0  0  0  0  0
  161.8650  214.1990  145.1970 N   0  0  0  0  0  2  0  0  0  0  0  0
  1  6  1  0  0  0  0
  1  9  1  0  0  0  0
  2  3  1  6  0  0  0
  2  5  1  0  0  0  0
  3  7  1  0  0  0  0
  4 11  1  0  0  0  0
  4  7  2  0  0  0  0
  5 16  2  0  0  0  0
  5 14  1  0  0  0  0
  8 23  1  1  0  0  0
  8 13  1  0  0  0  0
  8 12  1  0  0  0  0
 10 19  1  0  0  0  0
 10 18  1  0  0  0  0
 12 16  1  0  0  0  0
 13 18  1  6  0  0  0
 13  2  1  0  0  0  0
 14  1  2  0  0  0  0
 15  4  1  0  0  0  0
 16 17  1  0  0  0  0
 17  6  2  0  0  0  0
 19  3  2  0  0  0  0
 20 15  2  0  0  0  0
 20 19  1  0  0  0  0
 21 22  2  0  0  0  0
 22 23  1  0  0  0  0
 24 27  1  6  0  0  0
 24 31  1  0  0  0  0
 24 28  1  0  0  0  0
 25 30  1  0  0  0  0
 28 25  1  0  0  0  0
 29 26  2  0  0  0  0
 29 30  1  0  0  0  0
 30 22  1  6  0  0  0
 31 29  1  0  0  0  0
M  END
>  <MODEL>
6

>  <REMARK>
 VINA RESULT:      -5.9      3.889      7.055
  Name = 
  2 active torsions:
  status: ('A' for Active; 'I' for Inactive)
    1  A    between atoms: C_5  and  C_30
    2  A    between atoms: C_10  and  N_16
                            x       y       z     vdW  Elec       q    Type
                         _______ _______ _______ _____ _____    ______ ____

>  <TORSDO>
F 2

$$$$
=
 OpenBabel11122413303D

 31 35  0  0  1  0  0  0  0  0999 V2000
  161.7780  213.2290  148.0760 C   0  0  0  0  0  0  0  0  0  0  0  0
  159.5210  214.1250  151.0060 C   0  0  2  0  0  3  0  0  0  0  0  0
  158.0840  214.1060  150.5210 C   0  0  0  0  0  0  0  0  0  0  0  0
  156.4360  214.1810  148.7350 C   0  0  0  0  0  0  0  0  0  0  0  0
  160.4560  213.3520  150.1070 C   0  0  0  0  0  0  0  0  0  0  0  0
  162.1680  211.9280  148.4050 C   0  0  0  0  0  3  0  0  0  0  0  0
  157.7700  214.1780  149.1550 C   0  0  0  0  0  3  0  0  0  0  0  0
  159.4870  212.1080  152.5610 C   0  0  2  0  0  3  0  0  0  0  0  0
  162.2260  213.8010  146.9330 F   0  0  0  0  0  0  0  0  0  0  0  0
  157.3510  214.0530  152.8570 N   0  0  0  0  0  2  0  0  0  0  0  0
  156.1430  214.2370  147.4140 F   0  0  0  0  0  0  0  0  0  0  0  0
  160.4430  211.4530  151.6730 N   0  0  0  0  0  2  0  0  0  0  0  0
  159.6340  213.6340  152.4700 C   0  0  2  0  0  3  0  0  0  0  0  0
  160.9270  213.9400  148.9260 C   0  0  0  0  0  3  0  0  0  0  0  0
  155.4070  214.1230  149.6780 C   0  0  0  0  0  3  0  0  0  0  0  0
  160.8530  212.0410  150.4360 C   0  0  0  0  0  0  0  0  0  0  0  0
  161.7110  211.3370  149.5860 C   0  0  0  0  0  3  0  0  0  0  0  0
  158.6550  214.3190  153.3230 N   0  0  0  0  0  2  0  0  0  0  0  0
  157.0410  214.0900  151.4630 C   0  0  0  0  0  0  0  0  0  0  0  0
  155.7080  214.0780  151.0410 C   0  0  0  0  0  3  0  0  0  0  0  0
  157.4750  211.0780  154.2990 O   0  0  0  0  0  0  0  0  0  0  0  0
  158.6530  211.1490  154.7450 C   0  0  0  0  0  0  0  0  0  0  0  0
  159.7060  211.6640  153.9300 N   0  0  0  0  0  2  0  0  0  0  0  0
  161.7660  210.8730  157.1640 C   0  0  1  0  0  3  0  0  0  0  0  0
  159.4890  211.8490  156.9930 C   0  0  0  0  0  2  0  0  0  0  0  0
  159.4890  208.3890  155.7510 O   0  0  0  0  0  0  0  0  0  0  0  0
  163.2350  211.0780  156.8640 C   0  0  0  0  0  1  0  0  0  0  0  0
  160.9730  212.1040  156.7440 C   0  0  0  0  0  2  0  0  0  0  0  0
  159.9040  209.5170  156.1260 C   0  0  0  0  0  0  0  0  0  0  0  0
  158.9650  210.6920  156.1370 C   0  0  2  0  0  3  0  0  0  0  0  0
  161.2840  209.6840  156.4690 N   0  0  0  0  0  2  0  0  0  0  0  0
  1  6  2  0  0  0  0
  1 14  1  0  0  0  0
  2  5  1  6  0  0  0
  2 13  1  0  0  0  0
  3  2  1  0  0  0  0
  3 19  1  0  0  0  0
  4  7  1  0  0  0  0
  4 15  2  0  0  0  0
  5 16  1  0  0  0  0
  6 17  1  0  0  0  0
  7  3  2  0  0  0  0
  8 23  1  1  0  0  0
  9  1  1  0  0  0  0
 10 18  1  0  0  0  0
 11  4  1  0  0  0  0
 12  8  1  0  0  0  0
 13  8  1  0  0  0  0
 13 18  1  1  0  0  0
 14  5  2  0  0  0  0
 15 20  1  0  0  0  0
 16 12  1  0  0  0  0
 17 16  2  0  0  0  0
 19 10  1  0  0  0  0
 20 19  2  0  0  0  0
 21 22  2  0  0  0  0
 23 22  1  0  0  0  0
 24 27  1  6  0  0  0
 26 29  2  0  0  0  0
 28 25  1  0  0  0  0
 28 24  1  0  0  0  0
 29 30  1  0  0  0  0
 29 31  1  0  0  0  0
 30 22  1  6  0  0  0
 30 25  1  0  0  0  0
 31 24  1  0  0  0  0
M  END
>  <MODEL>
7

>  <REMARK>
 VINA RESULT:      -5.4      6.774      9.031
  Name = 
  2 active torsions:
  status: ('A' for Active; 'I' for Inactive)
    1  A    between atoms: C_5  and  C_30
    2  A    between atoms: C_10  and  N_16
                            x       y       z     vdW  Elec       q    Type
                         _______ _______ _______ _____ _____    ______ ____

>  <TORSDO>
F 2

$$$$
=
 OpenBabel11122413303D

 31 35  0  0  1  0  0  0  0  0999 V2000
  161.9210  206.2550  147.2700 C   0  0  0  0  0  0  0  0  0  0  0  0
  162.4350  209.1120  149.7320 C   0  0  2  0  0  3  0  0  0  0  0  0
  161.7970  210.3600  149.1500 C   0  0  0  0  0  0  0  0  0  0  0  0
  160.9300  211.6310  147.2680 C   0  0  0  0  0  0  0  0  0  0  0  0
  161.9130  207.8400  149.1090 C   0  0  0  0  0  0  0  0  0  0  0  0
  160.9400  205.4970  147.9160 C   0  0  0  0  0  3  0  0  0  0  0  0
  161.4970  210.4610  147.7830 C   0  0  0  0  0  3  0  0  0  0  0  0
  160.8680  208.6910  151.6950 C   0  0  2  0  0  3  0  0  0  0  0  0
  162.4000  205.8590  146.0680 F   0  0  0  0  0  0  0  0  0  0  0  0
  161.9020  211.3850  151.3720 N   0  0  0  0  0  2  0  0  0  0  0  0
  160.6320  211.7140  145.9500 F   0  0  0  0  0  0  0  0  0  0  0  0
  160.4630  207.4420  151.0580 N   0  0  0  0  0  2  0  0  0  0  0  0
  162.2950  209.0680  151.2730 C   0  0  2  0  0  3  0  0  0  0  0  0
  162.4080  207.4220  147.8660 C   0  0  0  0  0  3  0  0  0  0  0  0
  160.6670  212.7110  148.1140 C   0  0  0  0  0  3  0  0  0  0  0  0
  160.9250  207.0710  149.7560 C   0  0  0  0  0  0  0  0  0  0  0  0
  160.4470  205.9020  149.1590 C   0  0  0  0  0  3  0  0  0  0  0  0
  162.7120  210.3440  151.8680 N   0  0  0  0  0  2  0  0  0  0  0  0
  161.5670  211.4670  149.9850 C   0  0  0  0  0  0  0  0  0  0  0  0
  160.9860  212.6300  149.4720 C   0  0  0  0  0  3  0  0  0  0  0  0
  159.4680  210.4490  153.4510 O   0  0  0  0  0  0  0  0  0  0  0  0
  160.0650  209.4630  153.9640 C   0  0  0  0  0  0  0  0  0  0  0  0
  160.7930  208.5500  153.1420 N   0  0  0  0  0  2  0  0  0  0  0  0
  162.2440  210.2410  157.1670 C   0  0  1  0  0  3  0  0  0  0  0  0
  159.9790  210.5650  156.2050 C   0  0  0  0  0  2  0  0  0  0  0  0
  161.1350  207.1250  155.6130 O   0  0  0  0  0  0  0  0  0  0  0  0
  163.6500  210.7960  157.2600 C   0  0  0  0  0  1  0  0  0  0  0  0
  161.3700  211.1750  156.3420 C   0  0  0  0  0  2  0  0  0  0  0  0
  161.1510  208.3530  155.8930 C   0  0  0  0  0  0  0  0  0  0  0  0
  160.0190  209.2360  155.4430 C   0  0  2  0  0  3  0  0  0  0  0  0
  162.2810  208.9070  156.5750 N   0  0  0  0  0  2  0  0  0  0  0  0
  1 14  2  0  0  0  0
  1  6  1  0  0  0  0
  2  5  1  6  0  0  0
  2 13  1  0  0  0  0
  3  2  1  0  0  0  0
  3 19  1  0  0  0  0
  4  7  1  0  0  0  0
  4 15  2  0  0  0  0
  5 16  2  0  0  0  0
  6 17  2  0  0  0  0
  7  3  2  0  0  0  0
  8 23  1  1  0  0  0
  9  1  1  0  0  0  0
 10 18  1  0  0  0  0
 11  4  1  0  0  0  0
 12  8  1  0  0  0  0
 13  8  1  0  0  0  0
 13 18  1  1  0  0  0
 14  5  1  0  0  0  0
 15 20  1  0  0  0  0
 16 12  1  0  0  0  0
 17 16  1  0  0  0  0
 19 10  1  0  0  0  0
 20 19  2  0  0  0  0
 21 22  2  0  0  0  0
 23 22  1  0  0  0  0
 24 27  1  6  0  0  0
 25 28  1  0  0  0  0
 26 29  2  0  0  0  0
 28 24  1  0  0  0  0
 29 31  1  0  0  0  0
 30 22  1  6  0  0  0
 30 29  1  0  0  0  0
 30 25  1  0  0  0  0
 31 24  1  0  0  0  0
M  END
>  <MODEL>
8

>  <REMARK>
 VINA RESULT:      -5.3      3.437      6.303
  Name = 
  2 active torsions:
  status: ('A' for Active; 'I' for Inactive)
    1  A    between atoms: C_5  and  C_30
    2  A    between atoms: C_10  and  N_16
                            x       y       z     vdW  Elec       q    Type
                         _______ _______ _______ _____ _____    ______ ____

>  <TORSDO>
F 2

$$$$
