=
 OpenBabel11122414323D

 34 40  0  0  1  0  0  0  0  0999 V2000
  161.3750  208.4120  153.5400 C   0  0  0  0  0  0  0  0  0  0  0  0
  160.4540  210.3550  154.8150 C   0  0  0  0  0  2  0  0  0  0  0  0
  162.2250  205.1280  147.8110 C   0  0  2  0  0  3  0  0  0  0  0  0
  161.3890  206.5220  151.9810 C   0  0  0  0  0  0  0  0  0  0  0  0
  161.7370  206.9470  149.6100 C   0  0  0  0  0  0  0  0  0  0  0  0
  161.6820  207.4020  147.2870 O   0  0  0  0  0  0  0  0  0  0  0  0
  162.8180  205.0260  146.4150 C   0  0  0  0  0  1  0  0  0  0  0  0
  160.3560  204.2500  149.3170 C   0  0  0  0  0  2  0  0  0  0  0  0
  161.3740  210.7970  152.6330 C   0  0  1  0  0  3  0  0  0  0  0  0
  160.6230  212.8990  150.9500 O   0  0  0  0  0  0  0  0  0  0  0  0
  161.8180  208.2750  149.8920 N   0  0  0  0  0  0  0  0  0  0  0  0
  161.3610  204.5410  150.4260 C   0  0  0  0  0  2  0  0  0  0  0  0
  161.7910  210.1960  151.3650 N   0  0  0  0  0  0  0  0  0  0  0  0
  159.4490  211.1810  154.0240 C   0  0  0  0  0  2  0  0  0  0  0  0
  161.4960  206.0260  150.6640 C   0  0  0  0  0  0  0  0  0  0  0  0
  161.0280  204.1860  147.9440 C   0  0  0  0  0  2  0  0  0  0  0  0
  159.6360  212.4990  151.8870 C   0  0  2  0  0  3  0  0  0  0  0  0
  161.4850  207.9130  152.2260 C   0  0  0  0  0  0  0  0  0  0  0  0
  161.8740  206.5410  148.1890 C   0  0  0  0  0  0  0  0  0  0  0  0
  161.6970  208.7800  151.1480 C   0  0  0  0  0  0  0  0  0  0  0  0
  161.1070  206.1410  154.3650 C   0  0  0  0  0  3  0  0  0  0  0  0
  160.7640  211.9150  149.9520 C   0  0  0  0  0  2  0  0  0  0  0  0
  161.1920  205.6500  153.0640 C   0  0  0  0  0  3  0  0  0  0  0  0
  162.0160  211.0880  150.2310 C   0  0  0  0  0  2  0  0  0  0  0  0
  159.9030  211.1520  152.5800 C   0  0  1  0  0  3  0  0  0  0  0  0
  161.2090  207.5100  154.6020 C   0  0  0  0  0  3  0  0  0  0  0  0
  161.5370  209.8860  153.8470 C   0  0  2  0  0  3  0  0  0  0  0  0
  158.2270  212.5590  151.3080 C   0  0  0  0  0  2  0  0  0  0  0  0
  157.3890  213.2650  152.1740 O   0  0  0  0  0  0  0  0  0  0  0  0
  155.9430  213.5720  149.4160 O   0  0  0  0  0  0  0  0  0  0  0  0
  155.4410  214.4500  151.5530 C   0  0  0  0  0  2  0  0  0  0  0  0
  156.9320  214.3480  151.4210 C   0  0  2  0  0  3  0  0  0  0  0  0
  154.9300  214.2040  150.1530 C   0  0  0  0  0  2  0  0  0  0  0  0
  157.1420  214.0630  149.9510 C   0  0  0  0  0  2  0  0  0  0  0  0
  1 27  1  0  0  0  0
  1 26  1  0  0  0  0
  3  7  1  6  0  0  0
  3 16  1  0  0  0  0
  3 19  1  0  0  0  0
  4 18  1  0  0  0  0
  4 23  2  0  0  0  0
  5 11  1  0  0  0  0
  5 15  2  0  0  0  0
  6 19  2  0  0  0  0
  8 12  1  0  0  0  0
  9 13  1  6  0  0  0
  9 27  1  0  0  0  0
 10 17  1  0  0  0  0
 11 20  2  0  0  0  0
 12 15  1  0  0  0  0
 14  2  1  0  0  0  0
 15  4  1  0  0  0  0
 16  8  1  0  0  0  0
 17 28  1  6  0  0  0
 17 25  1  0  0  0  0
 18  1  2  0  0  0  0
 19  5  1  0  0  0  0
 20 13  1  0  0  0  0
 20 18  1  0  0  0  0
 21 26  2  0  0  0  0
 22 24  1  0  0  0  0
 22 10  1  0  0  0  0
 23 21  1  0  0  0  0
 24 13  1  0  0  0  0
 25  9  1  0  0  0  0
 25 14  1  1  0  0  0
 27  2  1  1  0  0  0
 28 29  1  0  0  0  0
 30 34  1  0  0  0  0
 30 33  1  0  0  0  0
 32 31  1  0  0  0  0
 32 29  1  1  0  0  0
 33 31  1  0  0  0  0
 34 32  1  0  0  0  0
M  END
>  <MODEL>
1

>  <REMARK>
 VINA RESULT:      -8.4      0.000      0.000
  Name = 
  3 active torsions:
  status: ('A' for Active; 'I' for Inactive)
    1  A    between atoms: C_17  and  C_28
    2  A    between atoms: C_28  and  O_29
    3  A    between atoms: O_29  and  C_32
                            x       y       z     vdW  Elec       q    Type
                         _______ _______ _______ _____ _____    ______ ____

>  <TORSDO>
F 3

$$$$
=
 OpenBabel11122414323D

 34 40  0  0  1  0  0  0  0  0999 V2000
  161.1810  208.7960  153.3930 C   0  0  0  0  0  0  0  0  0  0  0  0
  160.1940  210.8190  154.4810 C   0  0  0  0  0  2  0  0  0  0  0  0
  162.3000  205.1100  147.9630 C   0  0  2  0  0  3  0  0  0  0  0  0
  161.2740  206.7970  151.9790 C   0  0  0  0  0  0  0  0  0  0  0  0
  161.7230  207.0510  149.6000 C   0  0  0  0  0  0  0  0  0  0  0  0
  161.7680  207.3350  147.2500 O   0  0  0  0  0  0  0  0  0  0  0  0
  162.9540  204.9120  146.6050 C   0  0  0  0  0  1  0  0  0  0  0  0
  160.3720  204.3280  149.4460 C   0  0  0  0  0  2  0  0  0  0  0  0
  161.2060  211.1080  152.3140 C   0  0  1  0  0  3  0  0  0  0  0  0
  160.5180  213.0760  150.4510 O   0  0  0  0  0  0  0  0  0  0  0  0
  161.7840  208.3970  149.7880 N   0  0  0  0  0  0  0  0  0  0  0  0
  161.3250  204.7080  150.5740 C   0  0  0  0  0  2  0  0  0  0  0  0
  161.6820  210.4200  151.1130 N   0  0  0  0  0  0  0  0  0  0  0  0
  159.2200  211.5760  153.5880 C   0  0  0  0  0  2  0  0  0  0  0  0
  161.4420  206.2080  150.7080 C   0  0  0  0  0  0  0  0  0  0  0  0
  161.1040  204.1700  148.1120 C   0  0  0  0  0  2  0  0  0  0  0  0
  159.4930  212.7360  151.3710 C   0  0  2  0  0  3  0  0  0  0  0  0
  161.3510  208.2030  152.1250 C   0  0  0  0  0  0  0  0  0  0  0  0
  161.9250  206.5430  148.2210 C   0  0  0  0  0  0  0  0  0  0  0  0
  161.6050  208.9910  150.9970 C   0  0  0  0  0  0  0  0  0  0  0  0
  160.8890  206.5900  154.3700 C   0  0  0  0  0  3  0  0  0  0  0  0
  160.7090  212.0230  149.5350 C   0  0  0  0  0  2  0  0  0  0  0  0
  161.0340  206.0050  153.1130 C   0  0  0  0  0  3  0  0  0  0  0  0
  161.9510  211.2290  149.9270 C   0  0  0  0  0  2  0  0  0  0  0  0
  159.7370  211.4460  152.1720 C   0  0  1  0  0  3  0  0  0  0  0  0
  160.9730  207.9730  154.5100 C   0  0  0  0  0  3  0  0  0  0  0  0
  161.3210  210.2900  153.5970 C   0  0  2  0  0  3  0  0  0  0  0  0
  158.1110  212.7410  150.7280 C   0  0  0  0  0  2  0  0  0  0  0  0
  158.1010  213.6070  149.6320 O   0  0  0  0  0  0  0  0  0  0  0  0
  156.9000  214.4530  146.8690 O   0  0  0  0  0  0  0  0  0  0  0  0
  157.3790  212.3260  147.7820 C   0  0  0  0  0  2  0  0  0  0  0  0
  156.9710  213.2400  148.9000 C   0  0  2  0  0  3  0  0  0  0  0  0
  157.0360  213.0990  146.5310 C   0  0  0  0  0  2  0  0  0  0  0  0
  156.4180  214.4530  148.1860 C   0  0  0  0  0  2  0  0  0  0  0  0
  1 27  1  0  0  0  0
  1 26  1  0  0  0  0
  3  7  1  6  0  0  0
  3 16  1  0  0  0  0
  3 19  1  0  0  0  0
  4 18  1  0  0  0  0
  4 23  2  0  0  0  0
  5 11  1  0  0  0  0
  5 15  2  0  0  0  0
  6 19  2  0  0  0  0
  8 12  1  0  0  0  0
  9 13  1  6  0  0  0
  9 27  1  0  0  0  0
 10 17  1  0  0  0  0
 11 20  2  0  0  0  0
 12 15  1  0  0  0  0
 14  2  1  0  0  0  0
 15  4  1  0  0  0  0
 16  8  1  0  0  0  0
 17 28  1  6  0  0  0
 17 25  1  0  0  0  0
 18  1  2  0  0  0  0
 19  5  1  0  0  0  0
 20 13  1  0  0  0  0
 20 18  1  0  0  0  0
 21 26  2  0  0  0  0
 22 24  1  0  0  0  0
 22 10  1  0  0  0  0
 23 21  1  0  0  0  0
 24 13  1  0  0  0  0
 25  9  1  0  0  0  0
 25 14  1  1  0  0  0
 27  2  1  1  0  0  0
 29 28  1  0  0  0  0
 30 34  1  0  0  0  0
 31 32  1  0  0  0  0
 32 29  1  6  0  0  0
 33 30  1  0  0  0  0
 33 31  1  0  0  0  0
 34 32  1  0  0  0  0
M  END
>  <MODEL>
2

>  <REMARK>
 VINA RESULT:      -8.2      1.130      1.459
  Name = 
  3 active torsions:
  status: ('A' for Active; 'I' for Inactive)
    1  A    between atoms: C_17  and  C_28
    2  A    between atoms: C_28  and  O_29
    3  A    between atoms: O_29  and  C_32
                            x       y       z     vdW  Elec       q    Type
                         _______ _______ _______ _____ _____    ______ ____

>  <TORSDO>
F 3

$$$$
=
 OpenBabel11122414323D

 34 40  0  0  1  0  0  0  0  0999 V2000
  161.2320  208.6790  154.1880 C   0  0  0  0  0  0  0  0  0  0  0  0
  160.2730  210.5370  155.5580 C   0  0  0  0  0  2  0  0  0  0  0  0
  161.9520  205.5720  148.3450 C   0  0  2  0  0  3  0  0  0  0  0  0
  161.2690  206.8260  152.5860 C   0  0  0  0  0  0  0  0  0  0  0  0
  161.4600  207.3210  150.2100 C   0  0  0  0  0  0  0  0  0  0  0  0
  161.2520  207.8200  147.9050 O   0  0  0  0  0  0  0  0  0  0  0  0
  162.4730  205.5340  146.9170 C   0  0  0  0  0  1  0  0  0  0  0  0
  160.2230  204.5550  149.9270 C   0  0  0  0  0  2  0  0  0  0  0  0
  161.0440  211.0780  153.3410 C   0  0  1  0  0  3  0  0  0  0  0  0
  160.0820  213.1680  151.7530 O   0  0  0  0  0  0  0  0  0  0  0  0
  161.4800  208.6450  150.5200 N   0  0  0  0  0  0  0  0  0  0  0  0
  161.2690  204.8800  150.9870 C   0  0  0  0  0  2  0  0  0  0  0  0
  161.4240  210.5300  152.0380 N   0  0  0  0  0  0  0  0  0  0  0  0
  159.1800  211.3190  154.8420 C   0  0  0  0  0  2  0  0  0  0  0  0
  161.3320  206.3660  151.2540 C   0  0  0  0  0  0  0  0  0  0  0  0
  160.8210  204.5590  148.5180 C   0  0  0  0  0  2  0  0  0  0  0  0
  159.1730  212.6910  152.7310 C   0  0  2  0  0  3  0  0  0  0  0  0
  161.2980  208.2150  152.8590 C   0  0  0  0  0  0  0  0  0  0  0  0
  161.5430  206.9530  148.7750 C   0  0  0  0  0  0  0  0  0  0  0  0
  161.4000  209.1150  151.7930 C   0  0  0  0  0  0  0  0  0  0  0  0
  161.1410  206.3800  154.9720 C   0  0  0  0  0  3  0  0  0  0  0  0
  160.2250  212.2150  150.7250 C   0  0  0  0  0  2  0  0  0  0  0  0
  161.1820  205.9220  153.6560 C   0  0  0  0  0  3  0  0  0  0  0  0
  161.5350  211.4570  150.9150 C   0  0  0  0  0  2  0  0  0  0  0  0
  159.5540  211.3480  153.3760 C   0  0  1  0  0  3  0  0  0  0  0  0
  161.1760  207.7470  155.2360 C   0  0  0  0  0  3  0  0  0  0  0  0
  161.3260  210.1530  154.5220 C   0  0  2  0  0  3  0  0  0  0  0  0
  157.7330  212.6800  152.2300 C   0  0  0  0  0  2  0  0  0  0  0  0
  157.0310  213.7530  152.7830 O   0  0  0  0  0  0  0  0  0  0  0  0
  155.4730  214.0580  155.4790 O   0  0  0  0  0  0  0  0  0  0  0  0
  154.7490  214.1720  153.2320 C   0  0  0  0  0  2  0  0  0  0  0  0
  155.8750  213.1830  153.3180 C   0  0  2  0  0  3  0  0  0  0  0  0
  154.3950  214.4520  154.6730 C   0  0  0  0  0  2  0  0  0  0  0  0
  156.0560  212.9760  154.8050 C   0  0  0  0  0  2  0  0  0  0  0  0
  1 27  1  0  0  0  0
  1 26  1  0  0  0  0
  3  7  1  6  0  0  0
  3 16  1  0  0  0  0
  3 19  1  0  0  0  0
  4 18  1  0  0  0  0
  4 23  2  0  0  0  0
  5 11  1  0  0  0  0
  5 15  2  0  0  0  0
  6 19  2  0  0  0  0
  8 12  1  0  0  0  0
  9 13  1  6  0  0  0
  9 25  1  0  0  0  0
  9 27  1  0  0  0  0
 10 17  1  0  0  0  0
 11 20  2  0  0  0  0
 12 15  1  0  0  0  0
 14  2  1  0  0  0  0
 15  4  1  0  0  0  0
 16  8  1  0  0  0  0
 17 28  1  6  0  0  0
 17 25  1  0  0  0  0
 18  1  2  0  0  0  0
 19  5  1  0  0  0  0
 20 13  1  0  0  0  0
 20 18  1  0  0  0  0
 21 26  2  0  0  0  0
 22 24  1  0  0  0  0
 22 10  1  0  0  0  0
 23 21  1  0  0  0  0
 24 13  1  0  0  0  0
 25 14  1  1  0  0  0
 27  2  1  1  0  0  0
 28 29  1  0  0  0  0
 31 32  1  0  0  0  0
 31 33  1  0  0  0  0
 32 29  1  1  0  0  0
 32 34  1  0  0  0  0
 33 30  1  0  0  0  0
 34 30  1  0  0  0  0
M  END
>  <MODEL>
3

>  <REMARK>
 VINA RESULT:      -7.7      1.393      1.817
  Name = 
  3 active torsions:
  status: ('A' for Active; 'I' for Inactive)
    1  A    between atoms: C_17  and  C_28
    2  A    between atoms: C_28  and  O_29
    3  A    between atoms: O_29  and  C_32
                            x       y       z     vdW  Elec       q    Type
                         _______ _______ _______ _____ _____    ______ ____

>  <TORSDO>
F 3

$$$$
=
 OpenBabel11122414323D

 34 40  0  0  1  0  0  0  0  0999 V2000
  161.3500  211.3990  150.3160 C   0  0  0  0  0  0  0  0  0  0  0  0
  162.2910  209.7980  148.6430 C   0  0  0  0  0  2  0  0  0  0  0  0
  157.6900  212.6130  155.7430 C   0  0  2  0  0  3  0  0  0  0  0  0
  159.6600  212.4750  151.7270 C   0  0  0  0  0  0  0  0  0  0  0  0
  159.1050  211.4760  153.8760 C   0  0  0  0  0  0  0  0  0  0  0  0
  158.2960  210.2960  155.7630 O   0  0  0  0  0  0  0  0  0  0  0  0
  157.4530  212.4870  157.2390 C   0  0  0  0  0  1  0  0  0  0  0  0
  156.5280  213.0540  153.5100 C   0  0  0  0  0  2  0  0  0  0  0  0
  162.2390  209.0920  150.9450 C   0  0  1  0  0  3  0  0  0  0  0  0
  162.0970  206.4430  151.8280 O   0  0  0  0  0  0  0  0  0  0  0  0
  160.0020  210.4880  153.6130 N   0  0  0  0  0  0  0  0  0  0  0  0
  157.8930  213.6090  153.1170 C   0  0  0  0  0  2  0  0  0  0  0  0
  161.6620  209.3530  152.2650 N   0  0  0  0  0  0  0  0  0  0  0  0
  161.6670  208.4100  148.7100 C   0  0  0  0  0  2  0  0  0  0  0  0
  158.8950  212.4980  152.9130 C   0  0  0  0  0  0  0  0  0  0  0  0
  156.3780  212.9380  155.0290 C   0  0  0  0  0  2  0  0  0  0  0  0
  161.5800  206.6700  150.5280 C   0  0  2  0  0  3  0  0  0  0  0  0
  160.5860  211.4280  151.5010 C   0  0  0  0  0  0  0  0  0  0  0  0
  158.3640  211.4020  155.1600 C   0  0  0  0  0  0  0  0  0  0  0  0
  160.7350  210.4310  152.4700 C   0  0  0  0  0  0  0  0  0  0  0  0
  160.2930  213.4680  149.6010 C   0  0  0  0  0  3  0  0  0  0  0  0
  161.2330  206.9980  152.7930 C   0  0  0  0  0  2  0  0  0  0  0  0
  159.5210  213.4830  150.7610 C   0  0  0  0  0  3  0  0  0  0  0  0
  161.8090  208.3210  153.2880 C   0  0  0  0  0  2  0  0  0  0  0  0
  161.3480  208.1470  150.1660 C   0  0  1  0  0  3  0  0  0  0  0  0
  161.2070  212.4400  149.3850 C   0  0  0  0  0  3  0  0  0  0  0  0
  162.3950  210.3320  150.0690 C   0  0  2  0  0  3  0  0  0  0  0  0
  160.3440  205.8250  150.2380 C   0  0  0  0  0  2  0  0  0  0  0  0
  160.4560  205.2390  148.9750 O   0  0  0  0  0  0  0  0  0  0  0  0
  160.0810  202.1610  149.3860 O   0  0  0  0  0  0  0  0  0  0  0  0
  161.4290  203.3860  147.8790 C   0  0  0  0  0  2  0  0  0  0  0  0
  161.3230  204.1620  149.1600 C   0  0  2  0  0  3  0  0  0  0  0  0
  160.8510  202.0320  148.2210 C   0  0  0  0  0  2  0  0  0  0  0  0
  160.7040  203.1760  150.1250 C   0  0  0  0  0  2  0  0  0  0  0  0
  1 18  1  0  0  0  0
  2 14  1  0  0  0  0
  3  7  1  1  0  0  0
  4 15  1  0  0  0  0
  5 19  1  0  0  0  0
  8 16  1  0  0  0  0
  9 13  1  1  0  0  0
 10 22  1  0  0  0  0
 11  5  1  0  0  0  0
 12  8  1  0  0  0  0
 13 20  1  0  0  0  0
 13 24  1  0  0  0  0
 15 12  1  0  0  0  0
 15  5  2  0  0  0  0
 16  3  1  0  0  0  0
 17 28  1  1  0  0  0
 17 10  1  0  0  0  0
 18  4  2  0  0  0  0
 18 20  1  0  0  0  0
 19  3  1  0  0  0  0
 19  6  2  0  0  0  0
 20 11  2  0  0  0  0
 21 23  2  0  0  0  0
 22 24  1  0  0  0  0
 23  4  1  0  0  0  0
 25 14  1  6  0  0  0
 25 17  1  0  0  0  0
 25  9  1  0  0  0  0
 26 21  1  0  0  0  0
 26  1  2  0  0  0  0
 27  2  1  6  0  0  0
 27  1  1  0  0  0  0
 27  9  1  0  0  0  0
 29 28  1  0  0  0  0
 30 34  1  0  0  0  0
 31 33  1  0  0  0  0
 31 32  1  0  0  0  0
 32 29  1  6  0  0  0
 32 34  1  0  0  0  0
 33 30  1  0  0  0  0
M  END
>  <MODEL>
4

>  <REMARK>
 VINA RESULT:      -7.6      2.467      8.455
  Name = 
  3 active torsions:
  status: ('A' for Active; 'I' for Inactive)
    1  A    between atoms: C_17  and  C_28
    2  A    between atoms: C_28  and  O_29
    3  A    between atoms: O_29  and  C_32
                            x       y       z     vdW  Elec       q    Type
                         _______ _______ _______ _____ _____    ______ ____

>  <TORSDO>
F 3

$$$$
=
 OpenBabel11122414323D

 34 40  0  0  1  0  0  0  0  0999 V2000
  162.1410  209.1160  150.0120 C   0  0  0  0  0  0  0  0  0  0  0  0
  162.4680  207.3090  148.3160 C   0  0  0  0  0  2  0  0  0  0  0  0
  159.5260  211.2710  155.7430 C   0  0  2  0  0  3  0  0  0  0  0  0
  160.9360  210.5950  151.5500 C   0  0  0  0  0  0  0  0  0  0  0  0
  160.3990  209.7940  153.7840 C   0  0  0  0  0  0  0  0  0  0  0  0
  159.5450  208.8760  155.7930 O   0  0  0  0  0  0  0  0  0  0  0  0
  159.4350  211.2280  157.2590 C   0  0  0  0  0  1  0  0  0  0  0  0
  158.2630  211.9550  153.6290 C   0  0  0  0  0  2  0  0  0  0  0  0
  162.5050  206.6690  150.6380 C   0  0  1  0  0  3  0  0  0  0  0  0
  161.8210  204.1500  151.6390 O   0  0  0  0  0  0  0  0  0  0  0  0
  160.9930  208.6110  153.4680 N   0  0  0  0  0  0  0  0  0  0  0  0
  159.6680  212.1500  153.0710 C   0  0  0  0  0  2  0  0  0  0  0  0
  162.1620  207.0830  152.0000 N   0  0  0  0  0  0  0  0  0  0  0  0
  161.5360  206.1200  148.5060 C   0  0  0  0  0  2  0  0  0  0  0  0
  160.3390  210.8230  152.8070 C   0  0  0  0  0  0  0  0  0  0  0  0
  158.2610  211.9000  155.1590 C   0  0  0  0  0  2  0  0  0  0  0  0
  161.2310  204.4800  150.3920 C   0  0  2  0  0  3  0  0  0  0  0  0
  161.5470  209.3490  151.2690 C   0  0  0  0  0  0  0  0  0  0  0  0
  159.8130  209.9230  155.1410 C   0  0  0  0  0  0  0  0  0  0  0  0
  161.5560  208.3590  152.2580 C   0  0  0  0  0  0  0  0  0  0  0  0
  161.5480  211.3720  149.3290 C   0  0  0  0  0  3  0  0  0  0  0  0
  161.2330  204.9150  152.6660 C   0  0  0  0  0  2  0  0  0  0  0  0
  160.9390  211.5940  150.5630 C   0  0  0  0  0  3  0  0  0  0  0  0
  162.1670  206.0600  153.0430 C   0  0  0  0  0  2  0  0  0  0  0  0
  161.3280  205.9640  149.9970 C   0  0  1  0  0  3  0  0  0  0  0  0
  162.1530  210.1470  149.0610 C   0  0  0  0  0  3  0  0  0  0  0  0
  162.8600  207.8200  149.7000 C   0  0  2  0  0  3  0  0  0  0  0  0
  159.8020  203.9640  150.2700 C   0  0  0  0  0  2  0  0  0  0  0  0
  159.8140  202.6370  149.8330 O   0  0  0  0  0  0  0  0  0  0  0  0
  161.1660  200.3360  148.2000 O   0  0  0  0  0  0  0  0  0  0  0  0
  160.7560  202.6020  147.6660 C   0  0  0  0  0  2  0  0  0  0  0  0
  161.0180  202.5020  149.1400 C   0  0  2  0  0  3  0  0  0  0  0  0
  161.1440  201.2440  147.1310 C   0  0  0  0  0  2  0  0  0  0  0  0
  161.5450  201.0950  149.3150 C   0  0  0  0  0  2  0  0  0  0  0  0
  1 18  1  0  0  0  0
  2 14  1  0  0  0  0
  3  7  1  1  0  0  0
  4 15  1  0  0  0  0
  5 19  1  0  0  0  0
  8 16  1  0  0  0  0
  9 13  1  1  0  0  0
 10 22  1  0  0  0  0
 11  5  1  0  0  0  0
 12  8  1  0  0  0  0
 13 20  1  0  0  0  0
 13 24  1  0  0  0  0
 15 12  1  0  0  0  0
 15  5  2  0  0  0  0
 16  3  1  0  0  0  0
 17 28  1  1  0  0  0
 17 10  1  0  0  0  0
 18  4  2  0  0  0  0
 18 20  1  0  0  0  0
 19  3  1  0  0  0  0
 19  6  2  0  0  0  0
 20 11  2  0  0  0  0
 21 23  2  0  0  0  0
 22 24  1  0  0  0  0
 23  4  1  0  0  0  0
 25 14  1  6  0  0  0
 25 17  1  0  0  0  0
 25  9  1  0  0  0  0
 26 21  1  0  0  0  0
 26  1  2  0  0  0  0
 27  2  1  6  0  0  0
 27  1  1  0  0  0  0
 27  9  1  0  0  0  0
 29 28  1  0  0  0  0
 30 34  1  0  0  0  0
 31 32  1  0  0  0  0
 32 34  1  0  0  0  0
 32 29  1  1  0  0  0
 33 31  1  0  0  0  0
 33 30  1  0  0  0  0
M  END
>  <MODEL>
5

>  <REMARK>
 VINA RESULT:      -7.1      3.055      8.619
  Name = 
  3 active torsions:
  status: ('A' for Active; 'I' for Inactive)
    1  A    between atoms: C_17  and  C_28
    2  A    between atoms: C_28  and  O_29
    3  A    between atoms: O_29  and  C_32
                            x       y       z     vdW  Elec       q    Type
                         _______ _______ _______ _____ _____    ______ ____

>  <TORSDO>
F 3

$$$$
=
 OpenBabel11122414323D

 34 40  0  0  1  0  0  0  0  0999 V2000
  161.3870  206.3820  153.2300 C   0  0  0  0  0  0  0  0  0  0  0  0
  160.5260  207.8290  155.0780 C   0  0  0  0  0  2  0  0  0  0  0  0
  162.3410  205.2380  146.7410 C   0  0  2  0  0  3  0  0  0  0  0  0
  161.3650  205.1580  151.1080 C   0  0  0  0  0  0  0  0  0  0  0  0
  161.8730  206.3510  149.0490 C   0  0  0  0  0  0  0  0  0  0  0  0
  161.9810  207.5890  147.0330 O   0  0  0  0  0  0  0  0  0  0  0  0
  163.0040  205.5800  145.4170 C   0  0  0  0  0  1  0  0  0  0  0  0
  160.3360  204.0480  147.7860 C   0  0  0  0  0  2  0  0  0  0  0  0
  161.5950  208.9250  153.2190 C   0  0  1  0  0  3  0  0  0  0  0  0
  161.0820  211.5360  152.3600 O   0  0  0  0  0  0  0  0  0  0  0  0
  162.0260  207.4870  149.7820 N   0  0  0  0  0  0  0  0  0  0  0  0
  161.2930  203.8510  148.9570 C   0  0  0  0  0  2  0  0  0  0  0  0
  162.0430  208.7710  151.8340 N   0  0  0  0  0  0  0  0  0  0  0  0
  159.6240  208.9580  154.5980 C   0  0  0  0  0  2  0  0  0  0  0  0
  161.5130  205.1440  149.7050 C   0  0  0  0  0  0  0  0  0  0  0  0
  161.0790  204.4100  146.4990 C   0  0  0  0  0  2  0  0  0  0  0  0
  160.0190  210.9170  153.0670 C   0  0  2  0  0  3  0  0  0  0  0  0
  161.5380  206.3640  151.8280 C   0  0  0  0  0  0  0  0  0  0  0  0
  162.0640  206.4550  147.5810 C   0  0  0  0  0  0  0  0  0  0  0  0
  161.8670  207.5310  151.1310 C   0  0  0  0  0  0  0  0  0  0  0  0
  160.9230  203.9970  153.1970 C   0  0  0  0  0  3  0  0  0  0  0  0
  161.2140  210.9520  151.0850 C   0  0  0  0  0  2  0  0  0  0  0  0
  161.0490  203.9830  151.8090 C   0  0  0  0  0  3  0  0  0  0  0  0
  162.3900  209.9800  151.0920 C   0  0  0  0  0  2  0  0  0  0  0  0
  160.1560  209.3960  153.2500 C   0  0  1  0  0  3  0  0  0  0  0  0
  161.1010  205.1840  153.9020 C   0  0  0  0  0  3  0  0  0  0  0  0
  161.6290  207.6390  154.0400 C   0  0  2  0  0  3  0  0  0  0  0  0
  158.6530  211.2890  152.5030 C   0  0  0  0  0  2  0  0  0  0  0  0
  158.3910  212.6390  152.7490 O   0  0  0  0  0  0  0  0  0  0  0  0
  156.2580  214.1150  154.4980 O   0  0  0  0  0  0  0  0  0  0  0  0
  156.9260  211.8490  154.4260 C   0  0  0  0  0  2  0  0  0  0  0  0
  158.1190  212.7050  154.1160 C   0  0  2  0  0  3  0  0  0  0  0  0
  155.8880  212.8300  154.9190 C   0  0  0  0  0  2  0  0  0  0  0  0
  157.6590  214.1010  154.4720 C   0  0  0  0  0  2  0  0  0  0  0  0
  1 26  1  0  0  0  0
  1 27  1  0  0  0  0
  3  7  1  6  0  0  0
  3 19  1  0  0  0  0
  4 23  2  0  0  0  0
  4 18  1  0  0  0  0
  5 15  2  0  0  0  0
  5 11  1  0  0  0  0
  6 19  2  0  0  0  0
  8 12  1  0  0  0  0
  9 13  1  6  0  0  0
  9 25  1  0  0  0  0
  9 27  1  0  0  0  0
 10 17  1  0  0  0  0
 11 20  2  0  0  0  0
 12 15  1  0  0  0  0
 14  2  1  0  0  0  0
 15  4  1  0  0  0  0
 16  3  1  0  0  0  0
 16  8  1  0  0  0  0
 17 28  1  6  0  0  0
 17 25  1  0  0  0  0
 18  1  2  0  0  0  0
 19  5  1  0  0  0  0
 20 18  1  0  0  0  0
 20 13  1  0  0  0  0
 21 26  2  0  0  0  0
 22 24  1  0  0  0  0
 22 10  1  0  0  0  0
 23 21  1  0  0  0  0
 24 13  1  0  0  0  0
 25 14  1  1  0  0  0
 27  2  1  1  0  0  0
 28 29  1  0  0  0  0
 30 33  1  0  0  0  0
 31 33  1  0  0  0  0
 32 29  1  6  0  0  0
 32 31  1  0  0  0  0
 32 34  1  0  0  0  0
 34 30  1  0  0  0  0
M  END
>  <MODEL>
6

>  <REMARK>
 VINA RESULT:      -6.3      1.893      2.338
  Name = 
  3 active torsions:
  status: ('A' for Active; 'I' for Inactive)
    1  A    between atoms: C_17  and  C_28
    2  A    between atoms: C_28  and  O_29
    3  A    between atoms: O_29  and  C_32
                            x       y       z     vdW  Elec       q    Type
                         _______ _______ _______ _____ _____    ______ ____

>  <TORSDO>
F 3

$$$$
=
 OpenBabel11122414323D

 34 40  0  0  1  0  0  0  0  0999 V2000
  160.6090  210.6200  138.1940 C   0  0  0  0  0  0  0  0  0  0  0  0
  162.8100  211.0690  139.2910 C   0  0  0  0  0  2  0  0  0  0  0  0
  153.9530  210.6690  138.3410 C   0  0  2  0  0  3  0  0  0  0  0  0
  158.3210  209.7740  137.9590 C   0  0  0  0  0  0  0  0  0  0  0  0
  156.4750  211.1020  138.8260 C   0  0  0  0  0  0  0  0  0  0  0  0
  154.7410  212.1980  140.0080 O   0  0  0  0  0  0  0  0  0  0  0  0
  152.6320  211.4200  138.3830 C   0  0  0  0  0  1  0  0  0  0  0  0
  155.0490  208.4130  138.8300 C   0  0  0  0  0  2  0  0  0  0  0  0
  161.0520  212.6800  139.6340 C   0  0  1  0  0  3  0  0  0  0  0  0
  160.7980  214.3570  141.8560 O   0  0  0  0  0  0  0  0  0  0  0  0
  157.3790  212.0270  139.2460 N   0  0  0  0  0  0  0  0  0  0  0  0
  155.9980  208.8360  137.7140 C   0  0  0  0  0  2  0  0  0  0  0  0
  159.6110  212.9170  139.5400 N   0  0  0  0  0  0  0  0  0  0  0  0
  162.7000  211.3560  140.7820 C   0  0  0  0  0  2  0  0  0  0  0  0
  156.9360  209.9240  138.1790 C   0  0  0  0  0  0  0  0  0  0  0  0
  153.7550  209.2300  138.8170 C   0  0  0  0  0  2  0  0  0  0  0  0
  161.5290  213.1640  142.0860 C   0  0  2  0  0  3  0  0  0  0  0  0
  159.2230  210.7680  138.4100 C   0  0  0  0  0  0  0  0  0  0  0  0
  155.0420  211.3700  139.1040 C   0  0  0  0  0  0  0  0  0  0  0  0
  158.7190  211.8970  139.0650 C   0  0  0  0  0  0  0  0  0  0  0  0
  160.1930  208.5140  137.0540 C   0  0  0  0  0  3  0  0  0  0  0  0
  159.4300  214.0600  141.7010 C   0  0  0  0  0  2  0  0  0  0  0  0
  158.8250  208.6490  137.2880 C   0  0  0  0  0  3  0  0  0  0  0  0
  159.0690  214.0920  140.2190 C   0  0  0  0  0  2  0  0  0  0  0  0
  161.3950  212.0950  140.9880 C   0  0  1  0  0  3  0  0  0  0  0  0
  161.0760  209.4970  137.4940 C   0  0  0  0  0  3  0  0  0  0  0  0
  161.5970  211.6920  138.6050 C   0  0  2  0  0  3  0  0  0  0  0  0
  161.2660  212.5790  143.4680 C   0  0  0  0  0  2  0  0  0  0  0  0
  162.2870  212.9560  144.3440 O   0  0  0  0  0  0  0  0  0  0  0  0
  160.4790  212.0330  146.7240 O   0  0  0  0  0  0  0  0  0  0  0  0
  162.4060  213.4010  146.6610 C   0  0  0  0  0  2  0  0  0  0  0  0
  161.6350  213.6090  145.3900 C   0  0  2  0  0  3  0  0  0  0  0  0
  161.4610  212.6140  147.5400 C   0  0  0  0  0  2  0  0  0  0  0  0
  160.3110  212.9300  145.6600 C   0  0  0  0  0  2  0  0  0  0  0  0
  1 18  1  0  0  0  0
  1 27  1  0  0  0  0
  2 14  1  0  0  0  0
  3  7  1  1  0  0  0
  3 16  1  0  0  0  0
  3 19  1  0  0  0  0
  4 15  2  0  0  0  0
  4 18  1  0  0  0  0
  5 19  1  0  0  0  0
  5 11  2  0  0  0  0
  9 13  1  1  0  0  0
  9 25  1  0  0  0  0
 10 17  1  0  0  0  0
 12 15  1  0  0  0  0
 12  8  1  0  0  0  0
 13 24  1  0  0  0  0
 15  5  1  0  0  0  0
 16  8  1  0  0  0  0
 17 28  1  1  0  0  0
 18 20  2  0  0  0  0
 19  6  2  0  0  0  0
 20 11  1  0  0  0  0
 20 13  1  0  0  0  0
 21 23  2  0  0  0  0
 21 26  1  0  0  0  0
 22 10  1  0  0  0  0
 23  4  1  0  0  0  0
 24 22  1  0  0  0  0
 25 14  1  6  0  0  0
 25 17  1  0  0  0  0
 26  1  2  0  0  0  0
 27  2  1  1  0  0  0
 27  9  1  0  0  0  0
 28 29  1  0  0  0  0
 30 33  1  0  0  0  0
 31 33  1  0  0  0  0
 32 29  1  6  0  0  0
 32 34  1  0  0  0  0
 32 31  1  0  0  0  0
 34 30  1  0  0  0  0
M  END
>  <MODEL>
7

>  <REMARK>
 VINA RESULT:      -6.0      9.687     12.488
  Name = 
  3 active torsions:
  status: ('A' for Active; 'I' for Inactive)
    1  A    between atoms: C_17  and  C_28
    2  A    between atoms: C_28  and  O_29
    3  A    between atoms: O_29  and  C_32
                            x       y       z     vdW  Elec       q    Type
                         _______ _______ _______ _____ _____    ______ ____

>  <TORSDO>
F 3

$$$$
