=
 OpenBabel11122413283D

 31 35  0  0  1  0  0  0  0  0999 V2000
  161.7560  208.7130  151.2400 C   0  0  0  0  0  0  0  0  0  0  0  0
  161.0840  211.2260  154.0230 C   0  0  2  0  0  3  0  0  0  0  0  0
  160.0820  212.2160  153.4500 C   0  0  0  0  0  0  0  0  0  0  0  0
  158.9130  213.2230  151.5700 C   0  0  0  0  0  0  0  0  0  0  0  0
  161.1620  209.9110  153.2690 C   0  0  0  0  0  0  0  0  0  0  0  0
  161.2720  207.5260  151.7910 C   0  0  0  0  0  3  0  0  0  0  0  0
  159.7630  212.2410  152.0840 C   0  0  0  0  0  3  0  0  0  0  0  0
  159.7940  209.9590  155.8250 C   0  0  1  0  0  3  0  0  0  0  0  0
  162.2720  208.7170  149.9880 F   0  0  0  0  0  0  0  0  0  0  0  0
  159.9310  213.2690  155.6760 N   0  0  0  0  0  0  0  0  0  0  0  0
  158.5110  213.2270  149.8680 Cl  0  0  0  0  0  0  0  0  0  0  0  0
  160.2380  208.6120  155.2610 C   0  0  0  0  0  2  0  0  0  0  0  0
  160.8710  211.0110  155.5400 C   0  0  2  0  0  3  0  0  0  0  0  0
  161.7050  209.8970  151.9780 C   0  0  0  0  0  3  0  0  0  0  0  0
  158.3910  214.2050  152.4140 C   0  0  0  0  0  3  0  0  0  0  0  0
  160.6850  208.7010  153.8300 C   0  0  0  0  0  0  0  0  0  0  0  0
  160.7480  207.5190  153.0860 C   0  0  0  0  0  3  0  0  0  0  0  0
  160.5600  212.2940  156.2610 C   0  0  0  0  0  3  0  0  0  0  0  0
  159.5670  213.2240  154.2910 C   0  0  0  0  0  0  0  0  0  0  0  0
  158.7230  214.2100  153.7700 C   0  0  0  0  0  3  0  0  0  0  0  0
  158.5450  210.3310  155.2540 O   0  0  0  0  0  0  0  0  0  0  0  0
  157.6660  211.0920  157.2490 O   0  0  0  0  0  0  0  0  0  0  0  0
  157.5030  210.8610  156.0200 C   0  0  0  0  0  0  0  0  0  0  0  0
  154.9800  213.4430  156.6960 C   0  0  0  0  0  0  0  0  0  0  0  0
  156.1160  212.4660  154.7150 C   0  0  0  0  0  2  0  0  0  0  0  0
  154.6240  209.8320  156.7310 O   0  0  0  0  0  0  0  0  0  0  0  0
  154.4770  214.4530  157.2520 O   0  0  0  0  0  0  0  0  0  0  0  0
  156.1060  213.6130  155.7260 C   0  0  0  0  0  2  0  0  0  0  0  0
  155.0530  210.9700  156.4100 C   0  0  0  0  0  0  0  0  0  0  0  0
  156.1610  211.0960  155.4020 C   0  0  2  0  0  3  0  0  0  0  0  0
  154.5070  212.1360  157.0330 N   0  0  0  0  0  2  0  0  0  0  0  0
  1  6  2  0  0  0  0
  1 14  1  0  0  0  0
  2  5  1  6  0  0  0
  2 13  1  0  0  0  0
  3  2  1  0  0  0  0
  3 19  1  0  0  0  0
  4  7  1  0  0  0  0
  4 15  2  0  0  0  0
  5 16  1  0  0  0  0
  6 17  1  0  0  0  0
  7  3  2  0  0  0  0
  8 21  1  6  0  0  0
  9  1  1  0  0  0  0
 10 18  2  0  0  0  0
 11  4  1  0  0  0  0
 12  8  1  0  0  0  0
 13  8  1  0  0  0  0
 13 18  1  1  0  0  0
 14  5  2  0  0  0  0
 15 20  1  0  0  0  0
 16 12  1  0  0  0  0
 17 16  2  0  0  0  0
 19 10  1  0  0  0  0
 20 19  2  0  0  0  0
 21 23  1  0  0  0  0
 23 22  2  0  0  0  0
 24 31  1  0  0  0  0
 24 27  2  0  0  0  0
 25 30  1  0  0  0  0
 25 28  1  0  0  0  0
 28 24  1  0  0  0  0
 29 26  2  0  0  0  0
 29 31  1  0  0  0  0
 30 23  1  1  0  0  0
 30 29  1  0  0  0  0
M  END
>  <MODEL>
1

>  <REMARK>
 VINA RESULT:      -4.9      0.000      0.000
  Name = 
  3 active torsions:
  status: ('A' for Active; 'I' for Inactive)
    1  A    between atoms: C_5  and  O_16
    2  A    between atoms: C_5  and  C_30
    3  A    between atoms: C_10  and  O_16
                            x       y       z     vdW  Elec       q    Type
                         _______ _______ _______ _____ _____    ______ ____

>  <TORSDO>
F 3

$$$$
=
 OpenBabel11122413283D

 31 35  0  0  1  0  0  0  0  0999 V2000
  161.6660  214.0220  144.0480 C   0  0  0  0  0  0  0  0  0  0  0  0
  160.8370  214.4220  147.7450 C   0  0  2  0  0  3  0  0  0  0  0  0
  159.4780  213.7650  147.9350 C   0  0  0  0  0  0  0  0  0  0  0  0
  157.4020  212.8610  147.0490 C   0  0  0  0  0  0  0  0  0  0  0  0
  161.5580  214.0060  146.4760 C   0  0  0  0  0  0  0  0  0  0  0  0
  162.8030  213.2140  144.0870 C   0  0  0  0  0  3  0  0  0  0  0  0
  158.6850  213.3740  146.8460 C   0  0  0  0  0  3  0  0  0  0  0  0
  162.4720  212.9200  149.0030 C   0  0  1  0  0  3  0  0  0  0  0  0
  161.1570  214.4180  142.8570 F   0  0  0  0  0  0  0  0  0  0  0  0
  159.7010  214.1320  150.3640 N   0  0  0  0  0  0  0  0  0  0  0  0
  156.4340  212.3600  145.6800 Cl  0  0  0  0  0  0  0  0  0  0  0  0
  163.4080  212.8520  147.8000 C   0  0  0  0  0  2  0  0  0  0  0  0
  161.7290  214.2600  148.9970 C   0  0  2  0  0  3  0  0  0  0  0  0
  161.0500  214.4190  145.2370 C   0  0  0  0  0  3  0  0  0  0  0  0
  156.8890  212.7560  148.3430 C   0  0  0  0  0  3  0  0  0  0  0  0
  162.7200  213.1980  146.5100 C   0  0  0  0  0  0  0  0  0  0  0  0
  163.3340  212.8130  145.3150 C   0  0  0  0  0  3  0  0  0  0  0  0
  160.9590  214.4440  150.2760 C   0  0  0  0  0  3  0  0  0  0  0  0
  158.9440  213.6750  149.2370 C   0  0  0  0  0  0  0  0  0  0  0  0
  157.6560  213.1680  149.4340 C   0  0  0  0  0  3  0  0  0  0  0  0
  161.5620  211.8260  148.9690 O   0  0  0  0  0  0  0  0  0  0  0  0
  160.6460  211.0350  150.9350 O   0  0  0  0  0  0  0  0  0  0  0  0
  161.4820  210.8900  150.0030 C   0  0  0  0  0  0  0  0  0  0  0  0
  160.9630  207.3240  149.2900 C   0  0  0  0  0  0  0  0  0  0  0  0
  162.5810  209.1010  148.6620 C   0  0  0  0  0  2  0  0  0  0  0  0
  162.2940  208.8890  152.2810 O   0  0  0  0  0  0  0  0  0  0  0  0
  160.3270  206.2900  148.9610 O   0  0  0  0  0  0  0  0  0  0  0  0
  161.3220  208.3380  148.2490 C   0  0  0  0  0  2  0  0  0  0  0  0
  162.0240  208.7120  151.0650 C   0  0  0  0  0  0  0  0  0  0  0  0
  162.4370  209.7380  150.0480 C   0  0  2  0  0  3  0  0  0  0  0  0
  161.2930  207.5490  150.6630 N   0  0  0  0  0  2  0  0  0  0  0  0
  1  6  2  0  0  0  0
  1 14  1  0  0  0  0
  2  5  1  6  0  0  0
  2  3  1  0  0  0  0
  2 13  1  0  0  0  0
  3 19  1  0  0  0  0
  4 15  2  0  0  0  0
  5 16  1  0  0  0  0
  6 17  1  0  0  0  0
  7  4  1  0  0  0  0
  7  3  2  0  0  0  0
  8 21  1  6  0  0  0
  9  1  1  0  0  0  0
 11  4  1  0  0  0  0
 12  8  1  0  0  0  0
 13  8  1  0  0  0  0
 13 18  1  1  0  0  0
 14  5  2  0  0  0  0
 15 20  1  0  0  0  0
 16 12  1  0  0  0  0
 17 16  2  0  0  0  0
 18 10  2  0  0  0  0
 19 20  2  0  0  0  0
 19 10  1  0  0  0  0
 21 23  1  0  0  0  0
 23 22  2  0  0  0  0
 24 31  1  0  0  0  0
 25 30  1  0  0  0  0
 27 24  2  0  0  0  0
 28 25  1  0  0  0  0
 28 24  1  0  0  0  0
 29 26  2  0  0  0  0
 30 23  1  6  0  0  0
 30 29  1  0  0  0  0
 31 29  1  0  0  0  0
M  END
>  <MODEL>
2

>  <REMARK>
 VINA RESULT:      -3.3      5.589      8.125
  Name = 
  3 active torsions:
  status: ('A' for Active; 'I' for Inactive)
    1  A    between atoms: C_5  and  O_16
    2  A    between atoms: C_5  and  C_30
    3  A    between atoms: C_10  and  O_16
                            x       y       z     vdW  Elec       q    Type
                         _______ _______ _______ _____ _____    ______ ____

>  <TORSDO>
F 3

$$$$
=
 OpenBabel11122413283D

 31 35  0  0  1  0  0  0  0  0999 V2000
  159.7540  213.3930  150.4860 C   0  0  0  0  0  0  0  0  0  0  0  0
  160.8520  211.6420  153.6870 C   0  0  2  0  0  3  0  0  0  0  0  0
  159.5750  211.1250  154.3310 C   0  0  0  0  0  0  0  0  0  0  0  0
  157.1530  211.1010  154.5500 C   0  0  0  0  0  0  0  0  0  0  0  0
  160.7140  211.9780  152.2130 C   0  0  0  0  0  0  0  0  0  0  0  0
  160.3600  212.6130  149.5010 C   0  0  0  0  0  3  0  0  0  0  0  0
  158.3050  211.5150  153.8780 C   0  0  0  0  0  3  0  0  0  0  0  0
  162.1080  209.5460  152.9510 C   0  0  1  0  0  3  0  0  0  0  0  0
  158.9870  214.4530  150.1350 F   0  0  0  0  0  0  0  0  0  0  0  0
  160.9560  209.9880  156.0290 N   0  0  0  0  0  0  0  0  0  0  0  0
  155.5770  211.5820  153.9600 Cl  0  0  0  0  0  0  0  0  0  0  0  0
  162.3130  210.1050  151.5460 C   0  0  0  0  0  2  0  0  0  0  0  0
  162.0480  210.7000  153.9560 C   0  0  2  0  0  3  0  0  0  0  0  0
  159.9340  213.0790  151.8350 C   0  0  0  0  0  3  0  0  0  0  0  0
  157.2580  210.3100  155.6950 C   0  0  0  0  0  3  0  0  0  0  0  0
  161.3380  211.1980  151.2090 C   0  0  0  0  0  0  0  0  0  0  0  0
  161.1590  211.5270  149.8630 C   0  0  0  0  0  3  0  0  0  0  0  0
  162.0570  210.1760  155.3650 C   0  0  0  0  0  3  0  0  0  0  0  0
  159.6720  210.3430  155.5010 C   0  0  0  0  0  0  0  0  0  0  0  0
  158.5160  209.9370  156.1730 C   0  0  0  0  0  3  0  0  0  0  0  0
  160.9180  208.7660  152.9900 O   0  0  0  0  0  0  0  0  0  0  0  0
  160.2230  206.8740  154.1170 O   0  0  0  0  0  0  0  0  0  0  0  0
  160.9380  207.3870  153.2140 C   0  0  0  0  0  0  0  0  0  0  0  0
  160.6580  206.0820  149.7920 C   0  0  0  0  0  0  0  0  0  0  0  0
  162.3640  207.2420  151.1760 C   0  0  0  0  0  2  0  0  0  0  0  0
  161.1620  204.2720  152.8960 O   0  0  0  0  0  0  0  0  0  0  0  0
  160.1380  205.9030  148.6600 O   0  0  0  0  0  0  0  0  0  0  0  0
  161.2600  207.4100  150.1310 C   0  0  0  0  0  2  0  0  0  0  0  0
  161.2130  205.2070  152.0560 C   0  0  0  0  0  0  0  0  0  0  0  0
  161.8620  206.5110  152.4260 C   0  0  2  0  0  3  0  0  0  0  0  0
  160.6230  205.0350  150.7650 N   0  0  0  0  0  2  0  0  0  0  0  0
  1 14  1  0  0  0  0
  2  5  1  6  0  0  0
  2 13  1  0  0  0  0
  2  3  1  0  0  0  0
  3 19  1  0  0  0  0
  4 15  2  0  0  0  0
  6 17  1  0  0  0  0
  6  1  2  0  0  0  0
  7  3  2  0  0  0  0
  7  4  1  0  0  0  0
  8 21  1  6  0  0  0
  8 13  1  0  0  0  0
  9  1  1  0  0  0  0
 11  4  1  0  0  0  0
 12  8  1  0  0  0  0
 13 18  1  1  0  0  0
 14  5  2  0  0  0  0
 15 20  1  0  0  0  0
 16 12  1  0  0  0  0
 16  5  1  0  0  0  0
 17 16  2  0  0  0  0
 18 10  2  0  0  0  0
 19 10  1  0  0  0  0
 19 20  2  0  0  0  0
 21 23  1  0  0  0  0
 23 22  2  0  0  0  0
 24 28  1  0  0  0  0
 24 31  1  0  0  0  0
 25 30  1  0  0  0  0
 27 24  2  0  0  0  0
 28 25  1  0  0  0  0
 29 30  1  0  0  0  0
 29 26  2  0  0  0  0
 30 23  1  6  0  0  0
 31 29  1  0  0  0  0
M  END
>  <MODEL>
3

>  <REMARK>
 VINA RESULT:      -3.2      3.540      6.396
  Name = 
  3 active torsions:
  status: ('A' for Active; 'I' for Inactive)
    1  A    between atoms: C_5  and  O_16
    2  A    between atoms: C_5  and  C_30
    3  A    between atoms: C_10  and  O_16
                            x       y       z     vdW  Elec       q    Type
                         _______ _______ _______ _____ _____    ______ ____

>  <TORSDO>
F 3

$$$$
=
 OpenBabel11122413283D

 31 35  0  0  1  0  0  0  0  0999 V2000
  155.2220  210.4020  155.5460 C   0  0  0  0  0  0  0  0  0  0  0  0
  158.4340  212.0260  156.7930 C   0  0  2  0  0  3  0  0  0  0  0  0
  159.5410  211.0250  156.5020 C   0  0  0  0  0  0  0  0  0  0  0  0
  160.2970  208.7830  155.9380 C   0  0  0  0  0  0  0  0  0  0  0  0
  157.1610  211.7950  156.0000 C   0  0  0  0  0  0  0  0  0  0  0  0
  154.8300  211.2690  154.5250 C   0  0  0  0  0  3  0  0  0  0  0  0
  159.2640  209.7080  156.1050 C   0  0  0  0  0  3  0  0  0  0  0  0
  158.8930  213.9840  155.2200 C   0  0  1  0  0  3  0  0  0  0  0  0
  154.4830  209.3000  155.8210 F   0  0  0  0  0  0  0  0  0  0  0  0
  161.1840  212.7060  157.2500 N   0  0  0  0  0  0  0  0  0  0  0  0
  159.9350  207.1510  155.4240 Cl  0  0  0  0  0  0  0  0  0  0  0  0
  157.4500  213.9850  154.7250 C   0  0  0  0  0  2  0  0  0  0  0  0
  158.9360  213.4840  156.6680 C   0  0  2  0  0  3  0  0  0  0  0  0
  156.3780  210.6670  156.2820 C   0  0  0  0  0  3  0  0  0  0  0  0
  161.6180  209.1600  156.1900 C   0  0  0  0  0  3  0  0  0  0  0  0
  156.7510  212.6790  154.9730 C   0  0  0  0  0  0  0  0  0  0  0  0
  155.5860  212.4090  154.2480 C   0  0  0  0  0  3  0  0  0  0  0  0
  160.3100  213.6680  157.2510 C   0  0  0  0  0  3  0  0  0  0  0  0
  160.8760  211.3900  156.7740 C   0  0  0  0  0  0  0  0  0  0  0  0
  161.9060  210.4580  156.6130 C   0  0  0  0  0  3  0  0  0  0  0  0
  159.6940  213.1700  154.3700 O   0  0  0  0  0  0  0  0  0  0  0  0
  160.0360  214.4530  152.4810 O   0  0  0  0  0  0  0  0  0  0  0  0
  159.7200  213.3410  152.9840 C   0  0  0  0  0  0  0  0  0  0  0  0
  161.6540  210.5250  151.6300 C   0  0  0  0  0  0  0  0  0  0  0  0
  159.4800  210.8690  152.7840 C   0  0  0  0  0  2  0  0  0  0  0  0
  159.7020  213.0210  149.8610 O   0  0  0  0  0  0  0  0  0  0  0  0
  162.6630  209.7990  151.4420 O   0  0  0  0  0  0  0  0  0  0  0  0
  160.9540  210.4960  152.9530 C   0  0  0  0  0  2  0  0  0  0  0  0
  160.0630  212.2440  150.7820 C   0  0  0  0  0  0  0  0  0  0  0  0
  159.3080  212.2200  152.0810 C   0  0  2  0  0  3  0  0  0  0  0  0
  161.2130  211.4130  150.5990 N   0  0  0  0  0  2  0  0  0  0  0  0
  1  9  1  0  0  0  0
  1 14  1  0  0  0  0
  2  5  1  6  0  0  0
  3 19  1  0  0  0  0
  3  2  1  0  0  0  0
  4  7  1  0  0  0  0
  4 15  2  0  0  0  0
  5 14  2  0  0  0  0
  6  1  2  0  0  0  0
  7  3  2  0  0  0  0
  8 21  1  6  0  0  0
  8 13  1  0  0  0  0
 10 18  2  0  0  0  0
 11  4  1  0  0  0  0
 12 16  1  0  0  0  0
 12  8  1  0  0  0  0
 13  2  1  0  0  0  0
 13 18  1  6  0  0  0
 15 20  1  0  0  0  0
 16  5  1  0  0  0  0
 17  6  1  0  0  0  0
 17 16  2  0  0  0  0
 19 10  1  0  0  0  0
 20 19  2  0  0  0  0
 22 23  2  0  0  0  0
 23 21  1  0  0  0  0
 24 28  1  0  0  0  0
 25 28  1  0  0  0  0
 26 29  2  0  0  0  0
 27 24  2  0  0  0  0
 29 30  1  0  0  0  0
 30 25  1  0  0  0  0
 30 23  1  1  0  0  0
 31 29  1  0  0  0  0
 31 24  1  0  0  0  0
M  END
>  <MODEL>
4

>  <REMARK>
 VINA RESULT:      -2.8      3.477      6.445
  Name = 
  3 active torsions:
  status: ('A' for Active; 'I' for Inactive)
    1  A    between atoms: C_5  and  O_16
    2  A    between atoms: C_5  and  C_30
    3  A    between atoms: C_10  and  O_16
                            x       y       z     vdW  Elec       q    Type
                         _______ _______ _______ _____ _____    ______ ____

>  <TORSDO>
F 3

$$$$
=
 OpenBabel11122413283D

 31 35  0  0  1  0  0  0  0  0999 V2000
  155.2910  210.3290  155.3700 C   0  0  0  0  0  0  0  0  0  0  0  0
  158.5180  211.9860  156.5320 C   0  0  2  0  0  3  0  0  0  0  0  0
  159.6320  211.0190  156.1640 C   0  0  0  0  0  0  0  0  0  0  0  0
  160.4110  208.8140  155.4970 C   0  0  0  0  0  0  0  0  0  0  0  0
  157.2170  211.7510  155.7870 C   0  0  0  0  0  0  0  0  0  0  0  0
  154.8370  211.2180  154.3940 C   0  0  0  0  0  3  0  0  0  0  0  0
  159.3660  209.7090  155.7360 C   0  0  0  0  0  3  0  0  0  0  0  0
  158.8680  214.0010  155.0050 C   0  0  1  0  0  3  0  0  0  0  0  0
  154.5870  209.2030  155.6400 F   0  0  0  0  0  0  0  0  0  0  0  0
  161.2700  212.7130  156.8950 N   0  0  0  0  0  0  0  0  0  0  0  0
  160.0620  207.1910  154.9470 Cl  0  0  0  0  0  0  0  0  0  0  0  0
  157.4050  213.9860  154.5710 C   0  0  0  0  0  2  0  0  0  0  0  0
  158.9830  213.4580  156.4330 C   0  0  2  0  0  3  0  0  0  0  0  0
  156.4710  210.5970  156.0640 C   0  0  0  0  0  3  0  0  0  0  0  0
  161.7330  209.2120  155.7050 C   0  0  0  0  0  3  0  0  0  0  0  0
  156.7450  212.6570  154.8060 C   0  0  0  0  0  0  0  0  0  0  0  0
  155.5570  212.3830  154.1230 C   0  0  0  0  0  3  0  0  0  0  0  0
  160.3760  213.6540  156.9630 C   0  0  0  0  0  3  0  0  0  0  0  0
  160.9690  211.4060  156.3910 C   0  0  0  0  0  0  0  0  0  0  0  0
  162.0110  210.5030  156.1570 C   0  0  0  0  0  3  0  0  0  0  0  0
  159.6480  213.2320  154.0960 O   0  0  0  0  0  0  0  0  0  0  0  0
  159.1760  211.8900  152.2780 O   0  0  0  0  0  0  0  0  0  0  0  0
  159.2750  213.0500  152.7620 C   0  0  0  0  0  0  0  0  0  0  0  0
  157.7340  213.2940  149.4370 C   0  0  0  0  0  0  0  0  0  0  0  0
  157.5570  214.4530  151.6280 C   0  0  0  0  0  2  0  0  0  0  0  0
  161.0210  214.3840  150.5200 O   0  0  0  0  0  0  0  0  0  0  0  0
  157.1640  212.8860  148.3920 O   0  0  0  0  0  0  0  0  0  0  0  0
  156.9660  213.3740  150.7190 C   0  0  0  0  0  2  0  0  0  0  0  0
  159.7960  214.1040  150.5750 C   0  0  0  0  0  0  0  0  0  0  0  0
  159.0540  214.2350  151.8750 C   0  0  2  0  0  3  0  0  0  0  0  0
  159.1240  213.6290  149.4050 N   0  0  0  0  0  2  0  0  0  0  0  0
  1  9  1  0  0  0  0
  1 14  1  0  0  0  0
  2  5  1  6  0  0  0
  3 19  1  0  0  0  0
  3  2  1  0  0  0  0
  4 15  2  0  0  0  0
  4  7  1  0  0  0  0
  5 14  2  0  0  0  0
  6  1  2  0  0  0  0
  7  3  2  0  0  0  0
  8 21  1  6  0  0  0
  8 13  1  0  0  0  0
 10 18  2  0  0  0  0
 11  4  1  0  0  0  0
 12 16  1  0  0  0  0
 12  8  1  0  0  0  0
 13  2  1  0  0  0  0
 13 18  1  6  0  0  0
 15 20  1  0  0  0  0
 16  5  1  0  0  0  0
 17  6  1  0  0  0  0
 17 16  2  0  0  0  0
 19 10  1  0  0  0  0
 20 19  2  0  0  0  0
 22 23  2  0  0  0  0
 23 21  1  0  0  0  0
 24 28  1  0  0  0  0
 25 30  1  0  0  0  0
 26 29  2  0  0  0  0
 27 24  2  0  0  0  0
 28 25  1  0  0  0  0
 29 30  1  0  0  0  0
 30 23  1  1  0  0  0
 31 24  1  0  0  0  0
 31 29  1  0  0  0  0
M  END
>  <MODEL>
5

>  <REMARK>
 VINA RESULT:      -2.6      3.654      6.213
  Name = 
  3 active torsions:
  status: ('A' for Active; 'I' for Inactive)
    1  A    between atoms: C_5  and  O_16
    2  A    between atoms: C_5  and  C_30
    3  A    between atoms: C_10  and  O_16
                            x       y       z     vdW  Elec       q    Type
                         _______ _______ _______ _____ _____    ______ ____

>  <TORSDO>
F 3

$$$$
=
 OpenBabel11122413283D

 31 35  0  0  1  0  0  0  0  0999 V2000
  156.5060  211.2300  154.7930 C   0  0  0  0  0  0  0  0  0  0  0  0
  160.0360  210.7830  156.1530 C   0  0  2  0  0  3  0  0  0  0  0  0
  160.2480  209.2810  156.2620 C   0  0  0  0  0  0  0  0  0  0  0  0
  159.3950  207.0040  156.3170 C   0  0  0  0  0  0  0  0  0  0  0  0
  158.8950  211.1870  155.2380 C   0  0  0  0  0  0  0  0  0  0  0  0
  156.7400  211.8440  153.5620 C   0  0  0  0  0  3  0  0  0  0  0  0
  159.1890  208.3710  156.1170 C   0  0  0  0  0  3  0  0  0  0  0  0
  161.6120  211.5320  154.2900 C   0  0  1  0  0  3  0  0  0  0  0  0
  155.2390  210.9440  155.1780 F   0  0  0  0  0  0  0  0  0  0  0  0
  162.5960  209.7110  156.8810 N   0  0  0  0  0  0  0  0  0  0  0  0
  158.0680  205.8820  156.1150 Cl  0  0  0  0  0  0  0  0  0  0  0  0
  160.4930  212.2930  153.5850 C   0  0  0  0  0  2  0  0  0  0  0  0
  161.3500  211.5200  155.7990 C   0  0  2  0  0  3  0  0  0  0  0  0
  157.5780  210.9090  155.6280 C   0  0  0  0  0  3  0  0  0  0  0  0
  160.6570  206.5340  156.6870 C   0  0  0  0  0  3  0  0  0  0  0  0
  159.1260  211.8220  153.9940 C   0  0  0  0  0  0  0  0  0  0  0  0
  158.0450  212.1480  153.1700 C   0  0  0  0  0  3  0  0  0  0  0  0
  162.5350  210.9630  156.5380 C   0  0  0  0  0  3  0  0  0  0  0  0
  161.5140  208.8000  156.6550 C   0  0  0  0  0  0  0  0  0  0  0  0
  161.7120  207.4310  156.8620 C   0  0  0  0  0  3  0  0  0  0  0  0
  161.6980  210.2100  153.7710 O   0  0  0  0  0  0  0  0  0  0  0  0
  163.0090  210.4790  151.8890 O   0  0  0  0  0  0  0  0  0  0  0  0
  161.9990  209.9530  152.4310 C   0  0  0  0  0  0  0  0  0  0  0  0
  162.0420  206.3390  151.7760 C   0  0  0  0  0  0  0  0  0  0  0  0
  160.3880  208.0540  152.4800 C   0  0  0  0  0  2  0  0  0  0  0  0
  162.0430  209.0920  149.4120 O   0  0  0  0  0  0  0  0  0  0  0  0
  162.4540  205.1530  151.8550 O   0  0  0  0  0  0  0  0  0  0  0  0
  161.3540  206.9650  152.9490 C   0  0  0  0  0  2  0  0  0  0  0  0
  161.8140  208.4450  150.4670 C   0  0  0  0  0  0  0  0  0  0  0  0
  161.0860  209.1010  151.6050 C   0  0  2  0  0  3  0  0  0  0  0  0
  162.2790  207.0970  150.5870 N   0  0  0  0  0  2  0  0  0  0  0  0
  1  9  1  0  0  0  0
  1 14  1  0  0  0  0
  2  5  1  6  0  0  0
  2  3  1  0  0  0  0
  3 19  1  0  0  0  0
  4 15  2  0  0  0  0
  5 14  2  0  0  0  0
  6  1  2  0  0  0  0
  7  3  2  0  0  0  0
  7  4  1  0  0  0  0
  8 21  1  6  0  0  0
  8 13  1  0  0  0  0
 11  4  1  0  0  0  0
 12 16  1  0  0  0  0
 12  8  1  0  0  0  0
 13  2  1  0  0  0  0
 13 18  1  1  0  0  0
 15 20  1  0  0  0  0
 16  5  1  0  0  0  0
 17  6  1  0  0  0  0
 17 16  2  0  0  0  0
 18 10  2  0  0  0  0
 19 20  2  0  0  0  0
 19 10  1  0  0  0  0
 22 23  2  0  0  0  0
 23 21  1  0  0  0  0
 24 27  2  0  0  0  0
 24 28  1  0  0  0  0
 25 28  1  0  0  0  0
 26 29  2  0  0  0  0
 29 31  1  0  0  0  0
 29 30  1  0  0  0  0
 30 23  1  1  0  0  0
 30 25  1  0  0  0  0
 31 24  1  0  0  0  0
M  END
>  <MODEL>
6

>  <REMARK>
 VINA RESULT:      -2.4      4.038      7.152
  Name = 
  3 active torsions:
  status: ('A' for Active; 'I' for Inactive)
    1  A    between atoms: C_5  and  O_16
    2  A    between atoms: C_5  and  C_30
    3  A    between atoms: C_10  and  O_16
                            x       y       z     vdW  Elec       q    Type
                         _______ _______ _______ _____ _____    ______ ____

>  <TORSDO>
F 3

$$$$
