=
 OpenBabel11122412523D

 32 37  0  0  1  0  0  0  0  0999 V2000
  161.2600  210.6040  150.9970 C   0  0  0  0  0  2  0  0  0  0  0  0
  161.4160  213.7420  146.3290 C   0  0  1  0  0  3  0  0  0  0  0  0
  157.2400  212.2140  146.6010 C   0  0  0  0  0  2  0  0  0  0  0  0
  156.5720  213.3000  146.0070 O   0  0  0  0  0  0  0  0  0  0  0  0
  162.3390  213.1680  144.0250 C   0  0  1  0  0  3  0  0  0  0  0  0
  161.9630  213.0040  142.5850 C   0  0  0  0  0  0  0  0  0  0  0  0
  161.9680  212.3280  148.2840 C   0  0  1  0  0  3  0  0  0  0  0  0
  160.6160  214.4460  148.5280 C   0  0  0  0  0  2  0  0  0  0  0  0
  160.7450  212.8830  140.7900 N   0  0  0  0  0  0  0  0  0  0  0  0
  161.1660  213.0910  150.5630 C   0  0  0  0  0  2  0  0  0  0  0  0
  158.5450  212.6750  147.2620 C   0  0  0  0  0  2  0  0  0  0  0  0
  160.3630  214.4530  147.0770 N   0  0  2  0  0  0  0  0  0  0  0  0
  158.9860  214.0490  146.7220 C   0  0  1  0  0  3  0  0  0  0  0  0
  159.7850  213.4520  144.3840 C   0  0  1  0  0  3  0  0  0  0  0  0
  161.9800  212.4990  140.5010 N   0  0  0  0  0  0  0  0  0  0  0  0
  161.2180  210.2020  149.5280 C   0  0  0  0  0  2  0  0  0  0  0  0
  160.8600  213.0360  149.0770 C   0  0  2  0  0  3  0  0  0  0  0  0
  162.7480  212.5530  141.5850 N   0  0  0  0  0  0  0  0  0  0  0  0
  162.3280  210.9160  148.7660 C   0  0  0  0  0  2  0  0  0  0  0  0
  160.5060  211.9080  151.2580 C   0  0  2  0  0  3  0  0  0  0  0  0
  157.3150  213.6380  144.8590 C   0  0  0  0  0  2  0  0  0  0  0  0
  158.7170  214.1850  145.2100 C   0  0  1  0  0  3  0  0  0  0  0  0
  159.5560  213.7170  142.8840 C   0  0  0  0  0  2  0  0  0  0  0  0
  161.5990  212.2990  146.8090 C   0  0  0  0  0  2  0  0  0  0  0  0
  163.6290  213.9620  144.1350 C   0  0  0  0  0  1  0  0  0  0  0  0
  159.6550  212.9510  139.8340 C   0  0  0  0  0  1  0  0  0  0  0  0
  161.2130  213.8790  144.8140 C   0  0  1  0  0  3  0  0  0  0  0  0
  160.7030  213.1830  142.0950 C   0  0  0  0  0  0  0  0  0  0  0  0
  160.4560  212.1650  152.6900 N   0  0  0  0  0  2  0  0  0  0  0  0
  159.3570  211.7600  153.5080 C   0  0  0  0  0  0  0  0  0  0  0  0
  158.3610  211.1760  153.0050 O   0  0  0  0  0  0  0  0  0  0  0  0
  159.3870  212.0360  154.9680 C   0  0  0  0  0  1  0  0  0  0  0  0
  1 20  1  0  0  0  0
  2 24  1  1  0  0  0
  2 12  1  0  0  0  0
  3 11  1  0  0  0  0
  4  3  1  0  0  0  0
  5 25  1  6  0  0  0
  5 27  1  0  0  0  0
  6  5  1  0  0  0  0
  7 24  1  6  0  0  0
  7 19  1  0  0  0  0
  7 17  1  0  0  0  0
  9 28  1  0  0  0  0
 10 20  1  0  0  0  0
 12  8  1  1  0  0  0
 13 12  1  0  0  0  0
 13 11  1  6  0  0  0
 14 23  1  6  0  0  0
 14 27  1  0  0  0  0
 14 22  1  0  0  0  0
 15  9  1  0  0  0  0
 15 18  2  0  0  0  0
 16  1  1  0  0  0  0
 17  8  1  6  0  0  0
 17 10  1  0  0  0  0
 18  6  1  0  0  0  0
 19 16  1  0  0  0  0
 20 29  1  1  0  0  0
 21  4  1  0  0  0  0
 22 21  1  1  0  0  0
 22 13  1  0  0  0  0
 26  9  1  0  0  0  0
 27  2  1  0  0  0  0
 28  6  2  0  0  0  0
 28 23  1  0  0  0  0
 29 30  1  0  0  0  0
 30 32  1  0  0  0  0
 31 30  2  0  0  0  0
M  END
>  <MODEL>
1

>  <REMARK>
 VINA RESULT:      -2.9      0.000      0.000
  Name = 
  1 active torsions:
  status: ('A' for Active; 'I' for Inactive)
    1  A    between atoms: C_20  and  N_29
                            x       y       z     vdW  Elec       q    Type
                         _______ _______ _______ _____ _____    ______ ____

>  <TORSDO>
F 1

$$$$
