=
 OpenBabel11122414113D

 28 32  0  0  1  0  0  0  0  0999 V2000
  158.6910  212.0860  152.0430 C   0  0  0  0  0  0  0  0  0  0  0  0
  160.2890  208.7880  150.8460 O   0  0  0  0  0  0  0  0  0  0  0  0
  159.4680  209.5850  156.8980 C   0  0  0  0  0  1  0  0  0  0  0  0
  160.4630  213.2010  150.1870 C   0  0  0  0  0  3  0  0  0  0  0  0
  161.6670  210.6230  156.4210 C   0  0  1  0  0  3  0  0  0  0  0  0
  157.8090  211.5490  153.0300 N   0  0  0  0  0  2  0  0  0  0  0  0
  162.7070  208.3320  150.8900 O   0  0  0  0  0  0  0  0  0  0  0  0
  161.4840  208.5660  151.7310 S   0  0  0  0  0  0  0  0  0  0  0  0
  161.2060  207.3480  154.1630 C   0  0  0  0  0  0  0  0  0  0  0  0
  161.7580  209.9720  152.7840 C   0  0  2  0  0  3  0  0  0  0  0  0
  157.7450  214.4530  154.9210 O   0  0  0  0  0  0  0  0  0  0  0  0
  160.8210  211.5280  154.3300 N   0  0  2  0  0  0  0  0  0  0  0  0
  161.6310  208.4270  154.7510 N   0  0  0  0  0  0  0  0  0  0  0  0
  161.2140  207.2050  152.7450 N   0  0  0  0  0  2  0  0  0  0  0  0
  158.0180  213.2320  154.7900 C   0  0  0  0  0  0  0  0  0  0  0  0
  160.0340  211.6820  152.0330 C   0  0  0  0  0  0  0  0  0  0  0  0
  160.1880  210.8800  156.5790 C   0  0  1  0  0  3  0  0  0  0  0  0
  160.6390  206.2530  154.9910 C   0  0  0  0  0  1  0  0  0  0  0  0
  159.1350  212.7200  155.4660 O   0  0  0  0  0  0  0  0  0  0  0  0
  160.9230  212.2570  151.1100 C   0  0  0  0  0  3  0  0  0  0  0  0
  158.2390  213.0470  151.1300 C   0  0  0  0  0  3  0  0  0  0  0  0
  159.1230  213.5960  150.1970 C   0  0  0  0  0  3  0  0  0  0  0  0
  157.0830  212.3850  153.9720 C   0  0  0  0  0  2  0  0  0  0  0  0
  161.9710  210.8620  154.9520 C   0  0  2  0  0  3  0  0  0  0  0  0
  159.6880  211.4240  155.2530 C   0  0  1  0  0  3  0  0  0  0  0  0
  162.2990  209.5950  154.1470 C   0  0  2  0  0  3  0  0  0  0  0  0
  162.4430  211.6190  157.2610 C   0  0  0  0  0  1  0  0  0  0  0  0
  160.5130  210.7620  153.1230 C   0  0  1  0  0  3  0  0  0  0  0  0
  1  6  1  0  0  0  0
  2  8  2  0  0  0  0
  4 22  2  0  0  0  0
  4 20  1  0  0  0  0
  5 17  1  0  0  0  0
  5 27  1  1  0  0  0
  6 23  1  0  0  0  0
  7  8  2  0  0  0  0
  8 14  1  0  0  0  0
  9 13  2  0  0  0  0
  9 18  1  0  0  0  0
 10  8  1  6  0  0  0
 10 28  1  0  0  0  0
 10 26  1  0  0  0  0
 12 24  1  0  0  0  0
 12 25  1  0  0  0  0
 14  9  1  0  0  0  0
 15 11  2  0  0  0  0
 15 19  1  0  0  0  0
 16  1  1  0  0  0  0
 16 28  1  0  0  0  0
 17  3  1  0  0  0  0
 20 16  2  0  0  0  0
 21  1  2  0  0  0  0
 22 21  1  0  0  0  0
 23 15  1  0  0  0  0
 24  5  1  0  0  0  0
 25 19  1  0  0  0  0
 25 17  1  0  0  0  0
 26 13  1  0  0  0  0
 26 24  1  0  0  0  0
 28 12  1  0  0  0  0
M  END
>  <MODEL>
1

>  <REMARK>
 VINA RESULT:      -2.2      0.000      0.000
  Name = 
  0 active torsions:
  status: ('A' for Active; 'I' for Inactive)
                            x       y       z     vdW  Elec       q    Type
                         _______ _______ _______ _____ _____    ______ ____

>  <TORSDO>
F 0

$$$$
=
 OpenBabel11122414113D

 28 32  0  0  1  0  0  0  0  0999 V2000
  159.5040  213.7670  150.3860 C   0  0  0  0  0  0  0  0  0  0  0  0
  158.4760  214.4530  154.0380 O   0  0  0  0  0  0  0  0  0  0  0  0
  163.0710  210.4810  153.0150 C   0  0  0  0  0  1  0  0  0  0  0  0
  156.7350  213.6310  150.0090 C   0  0  0  0  0  3  0  0  0  0  0  0
  161.0130  209.1090  152.8740 C   0  0  1  0  0  3  0  0  0  0  0  0
  160.9230  213.7850  150.5580 N   0  0  0  0  0  2  0  0  0  0  0  0
  157.0340  212.9660  155.3670 O   0  0  0  0  0  0  0  0  0  0  0  0
  158.3710  213.1050  154.6950 S   0  0  0  0  0  0  0  0  0  0  0  0
  160.5880  211.8850  155.7300 C   0  0  0  0  0  0  0  0  0  0  0  0
  158.5610  211.8040  153.4980 C   0  0  2  0  0  3  0  0  0  0  0  0
  161.5320  211.7110  147.8490 O   0  0  0  0  0  0  0  0  0  0  0  0
  159.8590  210.9030  151.7110 N   0  0  2  0  0  0  0  0  0  0  0  0
  160.4380  210.9020  154.8910 N   0  0  0  0  0  0  0  0  0  0  0  0
  159.6210  212.9240  155.8590 N   0  0  0  0  0  2  0  0  0  0  0  0
  161.5810  211.9510  149.0820 C   0  0  0  0  0  0  0  0  0  0  0  0
  158.7190  213.0050  151.2640 C   0  0  0  0  0  0  0  0  0  0  0  0
  162.0310  209.8930  152.0830 C   0  0  1  0  0  3  0  0  0  0  0  0
  161.8330  211.9590  156.5360 C   0  0  0  0  0  1  0  0  0  0  0  0
  161.4560  210.8790  149.9780 O   0  0  0  0  0  0  0  0  0  0  0  0
  157.3320  212.9280  151.0600 C   0  0  0  0  0  3  0  0  0  0  0  0
  158.9060  214.4530  149.3220 C   0  0  0  0  0  3  0  0  0  0  0  0
  157.5220  214.3930  149.1410 C   0  0  0  0  0  3  0  0  0  0  0  0
  161.8440  213.3670  149.5150 C   0  0  0  0  0  2  0  0  0  0  0  0
  159.7150  209.8890  152.7610 C   0  0  2  0  0  3  0  0  0  0  0  0
  161.2830  211.0150  151.3860 C   0  0  1  0  0  3  0  0  0  0  0  0
  159.2650  210.5840  154.0550 C   0  0  2  0  0  3  0  0  0  0  0  0
  160.8310  207.7420  152.2450 C   0  0  0  0  0  1  0  0  0  0  0  0
  159.4130  212.1650  152.3000 C   0  0  1  0  0  3  0  0  0  0  0  0
  1  6  1  0  0  0  0
  1 16  1  0  0  0  0
  2  8  2  0  0  0  0
  4 20  1  0  0  0  0
  5 27  1  6  0  0  0
  8  7  2  0  0  0  0
  8 14  1  0  0  0  0
  9 14  1  0  0  0  0
  9 18  1  0  0  0  0
 10 26  1  0  0  0  0
 10  8  1  1  0  0  0
 11 15  2  0  0  0  0
 12 28  1  0  0  0  0
 12 24  1  0  0  0  0
 13  9  2  0  0  0  0
 15 23  1  0  0  0  0
 15 19  1  0  0  0  0
 16 28  1  0  0  0  0
 17  5  1  0  0  0  0
 17  3  1  0  0  0  0
 19 25  1  0  0  0  0
 20 16  2  0  0  0  0
 21  1  2  0  0  0  0
 22 21  1  0  0  0  0
 22  4  2  0  0  0  0
 23  6  1  0  0  0  0
 24  5  1  0  0  0  0
 24 26  1  0  0  0  0
 25 12  1  0  0  0  0
 25 17  1  0  0  0  0
 26 13  1  0  0  0  0
 28 10  1  0  0  0  0
M  END
>  <MODEL>
2

>  <REMARK>
 VINA RESULT:      -1.0      2.229      5.060
  Name = 
  0 active torsions:
  status: ('A' for Active; 'I' for Inactive)
                            x       y       z     vdW  Elec       q    Type
                         _______ _______ _______ _____ _____    ______ ____

>  <TORSDO>
F 0

$$$$
=
 OpenBabel11122414113D

 28 32  0  0  1  0  0  0  0  0999 V2000
  160.6080  209.1720  152.5750 C   0  0  0  0  0  0  0  0  0  0  0  0
  157.8880  211.8890  152.8740 O   0  0  0  0  0  0  0  0  0  0  0  0
  160.4520  210.9460  147.3530 C   0  0  0  0  0  1  0  0  0  0  0  0
  161.5320  210.3430  154.9410 C   0  0  0  0  0  3  0  0  0  0  0  0
  161.9530  212.5680  148.4730 C   0  0  1  0  0  3  0  0  0  0  0  0
  160.1850  208.5830  151.3440 N   0  0  0  0  0  2  0  0  0  0  0  0
  158.3600  214.2970  153.0580 O   0  0  0  0  0  0  0  0  0  0  0  0
  158.4330  213.0950  152.1600 S   0  0  0  0  0  0  0  0  0  0  0  0
  158.1500  213.3540  149.4530 C   0  0  0  0  0  0  0  0  0  0  0  0
  160.1220  212.8300  151.6730 C   0  0  2  0  0  3  0  0  0  0  0  0
  163.3500  207.4480  150.5060 O   0  0  0  0  0  0  0  0  0  0  0  0
  161.6910  211.3980  150.5870 N   0  0  2  0  0  0  0  0  0  0  0  0
  159.4440  213.3440  149.3180 N   0  0  0  0  0  0  0  0  0  0  0  0
  157.5230  213.3880  150.7320 N   0  0  0  0  0  2  0  0  0  0  0  0
  162.3440  208.1650  150.2760 C   0  0  0  0  0  0  0  0  0  0  0  0
  160.7280  210.5670  152.6600 C   0  0  0  0  0  0  0  0  0  0  0  0
  161.7110  211.1060  148.1800 C   0  0  1  0  0  3  0  0  0  0  0  0
  157.2990  213.2670  148.2390 C   0  0  0  0  0  1  0  0  0  0  0  0
  162.5350  209.4060  149.6520 O   0  0  0  0  0  0  0  0  0  0  0  0
  161.2080  211.1480  153.8450 C   0  0  0  0  0  3  0  0  0  0  0  0
  160.9540  208.3680  153.6680 C   0  0  0  0  0  3  0  0  0  0  0  0
  161.4060  208.9550  154.8530 C   0  0  0  0  0  3  0  0  0  0  0  0
  160.9890  207.6110  150.6220 C   0  0  0  0  0  2  0  0  0  0  0  0
  161.7420  212.7270  149.9690 C   0  0  2  0  0  3  0  0  0  0  0  0
  161.5330  210.4100  149.5180 C   0  0  1  0  0  3  0  0  0  0  0  0
  160.4740  213.5000  150.3620 C   0  0  2  0  0  3  0  0  0  0  0  0
  163.3880  212.9180  148.1300 C   0  0  0  0  0  1  0  0  0  0  0  0
  160.4890  211.3840  151.4200 C   0  0  1  0  0  3  0  0  0  0  0  0
  1 16  2  0  0  0  0
  1 21  1  0  0  0  0
  3 17  1  0  0  0  0
  5 27  1  1  0  0  0
  5 24  1  0  0  0  0
  6  1  1  0  0  0  0
  8  2  2  0  0  0  0
  8  7  2  0  0  0  0
  9 14  1  0  0  0  0
 10  8  1  6  0  0  0
 12 28  1  0  0  0  0
 13  9  2  0  0  0  0
 13 26  1  0  0  0  0
 14  8  1  0  0  0  0
 15 11  2  0  0  0  0
 15 23  1  0  0  0  0
 16 20  1  0  0  0  0
 17  5  1  0  0  0  0
 17 25  1  0  0  0  0
 18  9  1  0  0  0  0
 19 15  1  0  0  0  0
 20  4  2  0  0  0  0
 21 22  2  0  0  0  0
 22  4  1  0  0  0  0
 23  6  1  0  0  0  0
 24 26  1  0  0  0  0
 24 12  1  0  0  0  0
 25 19  1  0  0  0  0
 25 12  1  0  0  0  0
 26 10  1  0  0  0  0
 28 10  1  0  0  0  0
 28 16  1  0  0  0  0
M  END
>  <MODEL>
3

>  <REMARK>
 VINA RESULT:       0.1      2.559      6.741
  Name = 
  0 active torsions:
  status: ('A' for Active; 'I' for Inactive)
                            x       y       z     vdW  Elec       q    Type
                         _______ _______ _______ _____ _____    ______ ____

>  <TORSDO>
F 0

$$$$
=
 OpenBabel11122414113D

 28 32  0  0  1  0  0  0  0  0999 V2000
  160.9800  206.4260  150.5020 C   0  0  0  0  0  0  0  0  0  0  0  0
  159.6010  208.5790  153.3880 O   0  0  0  0  0  0  0  0  0  0  0  0
  160.3960  211.2540  147.8970 C   0  0  0  0  0  1  0  0  0  0  0  0
  162.7530  205.5490  152.4810 C   0  0  0  0  0  3  0  0  0  0  0  0
  162.5950  211.4620  149.0210 C   0  0  1  0  0  3  0  0  0  0  0  0
  160.1170  206.8890  149.4610 N   0  0  0  0  0  2  0  0  0  0  0  0
  160.9650  210.1340  154.7220 O   0  0  0  0  0  0  0  0  0  0  0  0
  160.3910  209.8570  153.3610 S   0  0  0  0  0  0  0  0  0  0  0  0
  159.6600  211.9100  151.7100 C   0  0  0  0  0  0  0  0  0  0  0  0
  161.7160  209.7540  152.1790 C   0  0  2  0  0  3  0  0  0  0  0  0
  162.3760  206.1820  146.9290 O   0  0  0  0  0  0  0  0  0  0  0  0
  162.3690  209.2260  149.9460 N   0  0  2  0  0  0  0  0  0  0  0  0
  160.7960  211.8110  151.0840 N   0  0  0  0  0  0  0  0  0  0  0  0
  159.3760  211.1610  152.8880 N   0  0  0  0  0  2  0  0  0  0  0  0
  161.6860  207.0000  147.5900 C   0  0  0  0  0  0  0  0  0  0  0  0
  161.6270  207.3630  151.3220 C   0  0  0  0  0  0  0  0  0  0  0  0
  161.7690  210.6340  148.0650 C   0  0  1  0  0  3  0  0  0  0  0  0
  158.6020  212.7860  151.1450 C   0  0  0  0  0  1  0  0  0  0  0  0
  162.1900  208.2940  147.7890 O   0  0  0  0  0  0  0  0  0  0  0  0
  162.5280  206.9180  152.3020 C   0  0  0  0  0  3  0  0  0  0  0  0
  161.2240  205.0580  150.6700 C   0  0  0  0  0  3  0  0  0  0  0  0
  162.1020  204.6210  151.6650 C   0  0  0  0  0  3  0  0  0  0  0  0
  160.3290  206.5570  148.0620 C   0  0  0  0  0  2  0  0  0  0  0  0
  162.7800  210.6000  150.2570 C   0  0  2  0  0  3  0  0  0  0  0  0
  161.6300  209.2530  148.6810 C   0  0  1  0  0  3  0  0  0  0  0  0
  162.0060  211.0740  151.4960 C   0  0  2  0  0  3  0  0  0  0  0  0
  163.9480  211.7450  148.4000 C   0  0  0  0  0  1  0  0  0  0  0  0
  161.4540  208.8250  151.0130 C   0  0  1  0  0  3  0  0  0  0  0  0
  1 21  2  0  0  0  0
  1 16  1  0  0  0  0
  3 17  1  0  0  0  0
  5 27  1  6  0  0  0
  5 24  1  0  0  0  0
  6  1  1  0  0  0  0
  8  2  2  0  0  0  0
  8  7  2  0  0  0  0
  9 14  1  0  0  0  0
 10  8  1  1  0  0  0
 11 15  2  0  0  0  0
 12 24  1  0  0  0  0
 12 28  1  0  0  0  0
 13 26  1  0  0  0  0
 13  9  2  0  0  0  0
 14  8  1  0  0  0  0
 15 19  1  0  0  0  0
 15 23  1  0  0  0  0
 16 20  2  0  0  0  0
 17 25  1  0  0  0  0
 17  5  1  0  0  0  0
 18  9  1  0  0  0  0
 19 25  1  0  0  0  0
 20  4  1  0  0  0  0
 21 22  1  0  0  0  0
 22  4  2  0  0  0  0
 23  6  1  0  0  0  0
 24 26  1  0  0  0  0
 25 12  1  0  0  0  0
 26 10  1  0  0  0  0
 28 16  1  0  0  0  0
 28 10  1  0  0  0  0
M  END
>  <MODEL>
4

>  <REMARK>
 VINA RESULT:       0.3      3.321      7.016
  Name = 
  0 active torsions:
  status: ('A' for Active; 'I' for Inactive)
                            x       y       z     vdW  Elec       q    Type
                         _______ _______ _______ _____ _____    ______ ____

>  <TORSDO>
F 0

$$$$
=
 OpenBabel11122414113D

 28 32  0  0  1  0  0  0  0  0999 V2000
  160.5280  209.3940  154.7560 C   0  0  0  0  0  0  0  0  0  0  0  0
  157.7180  211.2560  156.6270 O   0  0  0  0  0  0  0  0  0  0  0  0
  158.1200  211.9880  150.5240 C   0  0  0  0  0  1  0  0  0  0  0  0
  162.0730  210.3090  156.9010 C   0  0  0  0  0  3  0  0  0  0  0  0
  159.6450  213.7010  151.4640 C   0  0  1  0  0  3  0  0  0  0  0  0
  159.7740  208.9510  153.6250 N   0  0  0  0  0  2  0  0  0  0  0  0
  157.8220  213.6310  157.2600 O   0  0  0  0  0  0  0  0  0  0  0  0
  157.7460  212.6670  156.1100 S   0  0  0  0  0  0  0  0  0  0  0  0
  156.4220  213.3340  153.8120 C   0  0  0  0  0  0  0  0  0  0  0  0
  159.1440  212.9190  155.0410 C   0  0  2  0  0  3  0  0  0  0  0  0
  162.5280  208.8030  151.5260 O   0  0  0  0  0  0  0  0  0  0  0  0
  160.3980  212.1400  153.1680 N   0  0  2  0  0  0  0  0  0  0  0  0
  157.5510  213.6680  153.2600 N   0  0  0  0  0  0  0  0  0  0  0  0
  156.3280  212.9790  155.1900 N   0  0  0  0  0  2  0  0  0  0  0  0
  161.4060  209.2790  151.8350 C   0  0  0  0  0  0  0  0  0  0  0  0
  160.4410  210.7360  155.1540 C   0  0  0  0  0  0  0  0  0  0  0  0
  159.5540  212.3030  150.9000 C   0  0  1  0  0  3  0  0  0  0  0  0
  155.2020  213.2600  152.9690 C   0  0  0  0  0  1  0  0  0  0  0  0
  161.1400  210.6210  151.5250 O   0  0  0  0  0  0  0  0  0  0  0  0
  161.2300  211.1930  156.2200 C   0  0  0  0  0  3  0  0  0  0  0  0
  161.3890  208.5160  155.4260 C   0  0  0  0  0  3  0  0  0  0  0  0
  162.1520  208.9720  156.5040 C   0  0  0  0  0  3  0  0  0  0  0  0
  160.3940  208.3550  152.4530 C   0  0  0  0  0  2  0  0  0  0  0  0
  159.9920  213.5300  152.9320 C   0  0  2  0  0  3  0  0  0  0  0  0
  160.0110  211.3540  151.9940 C   0  0  1  0  0  3  0  0  0  0  0  0
  158.8580  213.8820  153.9080 C   0  0  2  0  0  3  0  0  0  0  0  0
  160.7650  214.4500  150.7690 C   0  0  0  0  0  1  0  0  0  0  0  0
  159.6200  211.6790  154.3170 C   0  0  1  0  0  3  0  0  0  0  0  0
  1 16  2  0  0  0  0
  1 21  1  0  0  0  0
  3 17  1  0  0  0  0
  5 27  1  6  0  0  0
  5 24  1  0  0  0  0
  6  1  1  0  0  0  0
  8  2  2  0  0  0  0
  8  7  2  0  0  0  0
  9 14  1  0  0  0  0
 10  8  1  6  0  0  0
 11 15  2  0  0  0  0
 12 28  1  0  0  0  0
 13  9  2  0  0  0  0
 13 26  1  0  0  0  0
 14  8  1  0  0  0  0
 15 23  1  0  0  0  0
 16 20  1  0  0  0  0
 17  5  1  0  0  0  0
 17 25  1  0  0  0  0
 18  9  1  0  0  0  0
 19 15  1  0  0  0  0
 19 25  1  0  0  0  0
 20  4  2  0  0  0  0
 21 22  2  0  0  0  0
 22  4  1  0  0  0  0
 23  6  1  0  0  0  0
 24 12  1  0  0  0  0
 24 26  1  0  0  0  0
 25 12  1  0  0  0  0
 26 10  1  0  0  0  0
 28 10  1  0  0  0  0
 28 16  1  0  0  0  0
M  END
>  <MODEL>
5

>  <REMARK>
 VINA RESULT:       0.4      2.131      6.249
  Name = 
  0 active torsions:
  status: ('A' for Active; 'I' for Inactive)
                            x       y       z     vdW  Elec       q    Type
                         _______ _______ _______ _____ _____    ______ ____

>  <TORSDO>
F 0

$$$$
=
 OpenBabel11122414113D

 28 32  0  0  1  0  0  0  0  0999 V2000
  160.4090  209.8410  153.0540 C   0  0  0  0  0  0  0  0  0  0  0  0
  157.3520  212.0360  153.8910 O   0  0  0  0  0  0  0  0  0  0  0  0
  159.5000  212.1330  148.1190 C   0  0  0  0  0  1  0  0  0  0  0  0
  161.3640  210.8760  155.4710 C   0  0  0  0  0  3  0  0  0  0  0  0
  160.8380  213.8410  149.3150 C   0  0  1  0  0  3  0  0  0  0  0  0
  159.9660  209.3310  151.7940 N   0  0  0  0  0  2  0  0  0  0  0  0
  157.4710  214.4530  154.3360 O   0  0  0  0  0  0  0  0  0  0  0  0
  157.6400  213.3850  153.2930 S   0  0  0  0  0  0  0  0  0  0  0  0
  157.0690  213.8940  150.6680 C   0  0  0  0  0  0  0  0  0  0  0  0
  159.2970  213.4500  152.6510 C   0  0  2  0  0  3  0  0  0  0  0  0
  163.1740  208.8190  150.5870 O   0  0  0  0  0  0  0  0  0  0  0  0
  160.9540  212.4180  151.2820 N   0  0  2  0  0  0  0  0  0  0  0  0
  158.3310  214.1070  150.4360 N   0  0  0  0  0  0  0  0  0  0  0  0
  156.5660  213.6840  151.9850 N   0  0  0  0  0  2  0  0  0  0  0  0
  162.0540  209.3860  150.5240 C   0  0  0  0  0  0  0  0  0  0  0  0
  160.3250  211.2180  153.3020 C   0  0  0  0  0  0  0  0  0  0  0  0
  160.7930  212.4010  148.8620 C   0  0  1  0  0  3  0  0  0  0  0  0
  156.1310  213.8060  149.5200 C   0  0  0  0  0  1  0  0  0  0  0  0
  161.9970  210.7040  150.0450 O   0  0  0  0  0  0  0  0  0  0  0  0
  160.8210  211.7340  154.5100 C   0  0  0  0  0  3  0  0  0  0  0  0
  160.9730  208.9870  154.0090 C   0  0  0  0  0  3  0  0  0  0  0  0
  161.4410  209.5040  155.2200 C   0  0  0  0  0  3  0  0  0  0  0  0
  160.8370  208.5870  150.8990 C   0  0  0  0  0  2  0  0  0  0  0  0
  160.7470  213.7980  150.8300 C   0  0  2  0  0  3  0  0  0  0  0  0
  160.8470  211.5420  150.1130 C   0  0  1  0  0  3  0  0  0  0  0  0
  159.4190  214.3090  151.4110 C   0  0  2  0  0  3  0  0  0  0  0  0
  162.1650  214.4530  148.9110 C   0  0  0  0  0  1  0  0  0  0  0  0
  159.8520  212.1190  152.1940 C   0  0  1  0  0  3  0  0  0  0  0  0
  1 16  2  0  0  0  0
  1 21  1  0  0  0  0
  3 17  1  0  0  0  0
  5 27  1  1  0  0  0
  5 24  1  0  0  0  0
  6  1  1  0  0  0  0
  8  2  2  0  0  0  0
  8  7  2  0  0  0  0
  9 14  1  0  0  0  0
 10  8  1  6  0  0  0
 12 28  1  0  0  0  0
 13  9  2  0  0  0  0
 13 26  1  0  0  0  0
 14  8  1  0  0  0  0
 15 11  2  0  0  0  0
 15 23  1  0  0  0  0
 16 20  1  0  0  0  0
 17  5  1  0  0  0  0
 17 25  1  0  0  0  0
 18  9  1  0  0  0  0
 19 25  1  0  0  0  0
 19 15  1  0  0  0  0
 20  4  2  0  0  0  0
 21 22  2  0  0  0  0
 22  4  1  0  0  0  0
 23  6  1  0  0  0  0
 24 12  1  0  0  0  0
 24 26  1  0  0  0  0
 25 12  1  0  0  0  0
 26 10  1  0  0  0  0
 28 10  1  0  0  0  0
 28 16  1  0  0  0  0
M  END
>  <MODEL>
6

>  <REMARK>
 VINA RESULT:       0.7      2.291      6.593
  Name = 
  0 active torsions:
  status: ('A' for Active; 'I' for Inactive)
                            x       y       z     vdW  Elec       q    Type
                         _______ _______ _______ _____ _____    ______ ____

>  <TORSDO>
F 0

$$$$
