=
 OpenBabel11122414373D

 34 40  0  0  1  0  0  0  0  0999 V2000
  160.8830  203.9540  151.2630 C   0  0  0  0  0  0  0  0  0  0  0  0
  160.9870  205.8950  152.8990 C   0  0  0  0  0  2  0  0  0  0  0  0
  160.1520  201.7790  145.1480 C   0  0  0  0  0  0  0  0  0  0  0  0
  161.2290  202.2730  149.4390 N   0  0  0  0  0  0  0  0  0  0  0  0
  161.0950  203.0430  147.0550 C   0  0  0  0  0  0  0  0  0  0  0  0
  161.0530  204.0900  144.7310 C   0  0  0  0  0  1  0  0  0  0  0  0
  159.1050  202.0940  144.5200 O   0  0  0  0  0  0  0  0  0  0  0  0
  161.5430  200.0700  146.3100 C   0  0  0  0  0  2  0  0  0  0  0  0
  160.6090  206.3310  150.6130 C   0  0  0  0  0  0  0  0  0  0  0  0
  162.2160  208.8040  149.3920 C   0  0  0  0  0  2  0  0  0  0  0  0
  160.8870  204.2500  147.5010 N   0  0  0  0  0  0  0  0  0  0  0  0
  161.4570  200.6350  147.6960 C   0  0  0  0  0  3  0  0  0  0  0  0
  160.6870  206.0160  149.3020 C   0  0  0  0  0  0  0  0  0  0  0  0
  160.8100  207.3980  152.7190 C   0  0  0  0  0  2  0  0  0  0  0  0
  161.2810  201.9250  148.0400 C   0  0  0  0  0  0  0  0  0  0  0  0
  160.3650  200.4250  145.5330 N   0  0  0  0  0  2  0  0  0  0  0  0
  162.2490  208.2270  150.8060 C   0  0  2  0  0  3  0  0  0  0  0  0
  160.9610  203.6300  149.8230 C   0  0  0  0  0  0  0  0  0  0  0  0
  161.1540  202.8140  145.5630 C   0  0  2  0  0  3  0  0  0  0  0  0
  160.8110  204.5910  148.8950 C   0  0  0  0  0  0  0  0  0  0  0  0
  161.4000  201.6650  151.7680 C   0  0  0  0  0  3  0  0  0  0  0  0
  162.1970  207.7210  148.3270 C   0  0  0  0  0  2  0  0  0  0  0  0
  161.4760  201.3080  150.4800 C   0  0  0  0  0  3  0  0  0  0  0  0
  160.8230  207.0810  148.2590 C   0  0  0  0  0  2  0  0  0  0  0  0
  160.8620  207.6820  151.2120 C   0  0  1  0  0  3  0  0  0  0  0  0
  161.0620  203.0130  152.1430 N   0  0  0  0  0  0  0  0  0  0  0  0
  160.3580  205.3020  151.6610 C   0  0  1  0  0  3  0  0  0  0  0  0
  162.7070  209.3390  151.7460 C   0  0  0  0  0  2  0  0  0  0  0  0
  161.9830  210.5660  151.4570 N   0  0  0  0  0  2  0  0  0  0  0  0
  159.7170  212.3620  153.3470 N   0  0  0  0  0  2  0  0  0  0  0  0
  161.3300  210.6370  153.6550 C   0  0  0  0  0  2  0  0  0  0  0  0
  160.8520  210.5790  152.2850 N   0  0  0  0  0  0  0  0  0  0  0  0
  160.6140  211.7830  154.3280 C   0  0  0  0  0  2  0  0  0  0  0  0
  160.1830  211.8520  152.0670 C   0  0  0  0  0  2  0  0  0  0  0  0
  1 27  1  0  0  0  0
  1 26  2  0  0  0  0
  3 16  1  0  0  0  0
  3 19  1  0  0  0  0
  4 18  1  0  0  0  0
  4 23  1  0  0  0  0
  5 11  2  0  0  0  0
  5 15  1  0  0  0  0
  7  3  2  0  0  0  0
  8 12  1  0  0  0  0
  9 25  1  0  0  0  0
  9 27  1  0  0  0  0
 10 17  1  0  0  0  0
 11 20  1  0  0  0  0
 12 15  2  0  0  0  0
 13  9  2  0  0  0  0
 14  2  1  0  0  0  0
 15  4  1  0  0  0  0
 16  8  1  0  0  0  0
 17 25  1  0  0  0  0
 17 28  1  1  0  0  0
 18  1  1  0  0  0  0
 19  6  1  6  0  0  0
 19  5  1  0  0  0  0
 20 13  1  0  0  0  0
 20 18  2  0  0  0  0
 21 26  1  0  0  0  0
 22 10  1  0  0  0  0
 23 21  2  0  0  0  0
 24 22  1  0  0  0  0
 24 13  1  0  0  0  0
 25 14  1  1  0  0  0
 27  2  1  1  0  0  0
 29 28  1  0  0  0  0
 29 32  1  0  0  0  0
 30 33  1  0  0  0  0
 31 33  1  0  0  0  0
 32 31  1  0  0  0  0
 34 32  1  0  0  0  0
 34 30  1  0  0  0  0
M  END
>  <MODEL>
1

>  <REMARK>
 VINA RESULT:      -8.6      0.000      0.000
  Name = 
  3 active torsions:
  status: ('A' for Active; 'I' for Inactive)
    1  A    between atoms: C_17  and  C_28
    2  A    between atoms: C_28  and  N_29
    3  A    between atoms: N_29  and  N_32
                            x       y       z     vdW  Elec       q    Type
                         _______ _______ _______ _____ _____    ______ ____

>  <TORSDO>
F 3

$$$$
=
 OpenBabel11122414373D

 34 40  0  0  1  0  0  0  0  0999 V2000
  161.2540  208.3370  152.6010 C   0  0  0  0  0  0  0  0  0  0  0  0
  161.4480  205.8260  152.9360 C   0  0  0  0  0  2  0  0  0  0  0  0
  161.9380  213.5750  148.7600 C   0  0  0  0  0  0  0  0  0  0  0  0
  160.6880  210.6730  151.8970 N   0  0  0  0  0  0  0  0  0  0  0  0
  161.1520  211.3570  149.5270 C   0  0  0  0  0  0  0  0  0  0  0  0
  161.5800  211.7670  147.0480 C   0  0  0  0  0  1  0  0  0  0  0  0
  163.0690  213.8040  148.2540 O   0  0  0  0  0  0  0  0  0  0  0  0
  160.1370  214.1570  150.3800 C   0  0  0  0  0  2  0  0  0  0  0  0
  162.0710  206.7670  150.8650 C   0  0  0  0  0  0  0  0  0  0  0  0
  161.1160  205.1650  148.2740 C   0  0  0  0  0  2  0  0  0  0  0  0
  161.5790  210.1450  149.3050 N   0  0  0  0  0  0  0  0  0  0  0  0
  160.2420  212.9450  151.2570 C   0  0  0  0  0  3  0  0  0  0  0  0
  162.0210  207.7320  149.9220 C   0  0  0  0  0  0  0  0  0  0  0  0
  161.9520  204.7070  152.0310 C   0  0  0  0  0  2  0  0  0  0  0  0
  160.6640  211.7160  150.9010 C   0  0  0  0  0  0  0  0  0  0  0  0
  161.4160  214.4530  149.7510 N   0  0  0  0  0  2  0  0  0  0  0  0
  160.8610  204.8650  149.7500 C   0  0  2  0  0  3  0  0  0  0  0  0
  161.2110  209.3790  151.5550 C   0  0  0  0  0  0  0  0  0  0  0  0
  161.1510  212.3530  148.3910 C   0  0  2  0  0  3  0  0  0  0  0  0
  161.6260  209.1140  150.3040 C   0  0  0  0  0  0  0  0  0  0  0  0
  160.2280  209.8790  154.1280 C   0  0  0  0  0  3  0  0  0  0  0  0
  160.9800  206.6440  147.9540 C   0  0  0  0  0  2  0  0  0  0  0  0
  160.1690  210.8670  153.2260 C   0  0  0  0  0  3  0  0  0  0  0  0
  162.1880  207.4020  148.4720 C   0  0  0  0  0  2  0  0  0  0  0  0
  162.0680  205.2880  150.6160 C   0  0  1  0  0  3  0  0  0  0  0  0
  160.8170  208.6080  153.7960 N   0  0  0  0  0  0  0  0  0  0  0  0
  162.0230  207.0800  152.3210 C   0  0  1  0  0  3  0  0  0  0  0  0
  160.5840  203.3700  149.8740 C   0  0  0  0  0  2  0  0  0  0  0  0
  161.4990  202.6210  149.0270 N   0  0  0  0  0  2  0  0  0  0  0  0
  161.3870  199.8880  146.9180 N   0  0  0  0  0  2  0  0  0  0  0  0
  160.4700  202.0820  147.0490 C   0  0  0  0  0  2  0  0  0  0  0  0
  160.7480  201.6200  148.3970 N   0  0  0  0  0  0  0  0  0  0  0  0
  160.8890  200.9810  146.1060 C   0  0  0  0  0  2  0  0  0  0  0  0
  161.6280  200.4750  148.2270 C   0  0  0  0  0  2  0  0  0  0  0  0
  1 26  2  0  0  0  0
  3 16  1  0  0  0  0
  4 23  1  0  0  0  0
  5 15  1  0  0  0  0
  7  3  2  0  0  0  0
  8 12  1  0  0  0  0
  9 27  1  0  0  0  0
 10 17  1  0  0  0  0
 11  5  2  0  0  0  0
 11 20  1  0  0  0  0
 13 20  1  0  0  0  0
 13  9  2  0  0  0  0
 14  2  1  0  0  0  0
 15 12  2  0  0  0  0
 15  4  1  0  0  0  0
 16  8  1  0  0  0  0
 17 28  1  6  0  0  0
 17 25  1  0  0  0  0
 18  4  1  0  0  0  0
 18  1  1  0  0  0  0
 19  6  1  6  0  0  0
 19  3  1  0  0  0  0
 19  5  1  0  0  0  0
 20 18  2  0  0  0  0
 22 10  1  0  0  0  0
 22 24  1  0  0  0  0
 23 21  2  0  0  0  0
 24 13  1  0  0  0  0
 25  9  1  0  0  0  0
 25 14  1  1  0  0  0
 26 21  1  0  0  0  0
 27  1  1  0  0  0  0
 27  2  1  1  0  0  0
 29 28  1  0  0  0  0
 30 34  1  0  0  0  0
 31 32  1  0  0  0  0
 32 29  1  0  0  0  0
 33 30  1  0  0  0  0
 33 31  1  0  0  0  0
 34 32  1  0  0  0  0
M  END
>  <MODEL>
2

>  <REMARK>
 VINA RESULT:      -7.3      2.929      8.729
  Name = 
  3 active torsions:
  status: ('A' for Active; 'I' for Inactive)
    1  A    between atoms: C_17  and  C_28
    2  A    between atoms: C_28  and  N_29
    3  A    between atoms: N_29  and  N_32
                            x       y       z     vdW  Elec       q    Type
                         _______ _______ _______ _____ _____    ______ ____

>  <TORSDO>
F 3

$$$$
=
 OpenBabel11122414373D

 34 40  0  0  1  0  0  0  0  0999 V2000
  161.3200  207.7220  149.3740 C   0  0  0  0  0  0  0  0  0  0  0  0
  161.2410  206.0300  147.4800 C   0  0  0  0  0  2  0  0  0  0  0  0
  160.2540  209.2070  155.6440 C   0  0  0  0  0  0  0  0  0  0  0  0
  161.7600  209.0400  151.4580 N   0  0  0  0  0  0  0  0  0  0  0  0
  161.1620  208.0210  153.6710 C   0  0  0  0  0  0  0  0  0  0  0  0
  160.6050  206.7210  155.7920 C   0  0  0  0  0  1  0  0  0  0  0  0
  159.0930  209.0520  156.1090 O   0  0  0  0  0  0  0  0  0  0  0  0
  162.1030  210.7030  154.9020 C   0  0  0  0  0  2  0  0  0  0  0  0
  160.4880  205.4000  149.6240 C   0  0  0  0  0  0  0  0  0  0  0  0
  161.3860  202.5000  150.6080 C   0  0  0  0  0  2  0  0  0  0  0  0
  160.7730  206.9550  153.0280 N   0  0  0  0  0  0  0  0  0  0  0  0
  162.0860  210.3520  153.4440 C   0  0  0  0  0  3  0  0  0  0  0  0
  160.4560  205.5210  150.9680 C   0  0  0  0  0  0  0  0  0  0  0  0
  160.7410  204.5920  147.4100 C   0  0  0  0  0  2  0  0  0  0  0  0
  161.6980  209.1860  152.8910 C   0  0  0  0  0  0  0  0  0  0  0  0
  160.7860  210.5190  155.4930 N   0  0  0  0  0  2  0  0  0  0  0  0
  161.7200  203.2300  149.3090 C   0  0  2  0  0  3  0  0  0  0  0  0
  161.2740  207.8350  150.8460 C   0  0  0  0  0  0  0  0  0  0  0  0
  161.0710  208.0390  155.1790 C   0  0  2  0  0  3  0  0  0  0  0  0
  160.8130  206.8200  151.5980 C   0  0  0  0  0  0  0  0  0  0  0  0
  162.3530  209.8870  149.2780 C   0  0  0  0  0  3  0  0  0  0  0  0
  161.4480  203.4160  151.8190 C   0  0  0  0  0  2  0  0  0  0  0  0
  162.3310  210.0510  150.6060 C   0  0  0  0  0  3  0  0  0  0  0  0
  160.2360  204.3280  151.8450 C   0  0  0  0  0  2  0  0  0  0  0  0
  160.5380  204.1140  148.8540 C   0  0  1  0  0  3  0  0  0  0  0  0
  161.8000  208.7050  148.6700 N   0  0  0  0  0  0  0  0  0  0  0  0
  160.5900  206.5840  148.7240 C   0  0  1  0  0  3  0  0  0  0  0  0
  162.0610  202.1740  148.2620 C   0  0  0  0  0  2  0  0  0  0  0  0
  160.8470  201.7000  147.6180 N   0  0  0  0  0  2  0  0  0  0  0  0
  159.9040  200.4210  144.5510 N   0  0  0  0  0  2  0  0  0  0  0  0
  161.2980  199.8180  146.3860 C   0  0  0  0  0  2  0  0  0  0  0  0
  161.2070  201.2670  146.3350 N   0  0  0  0  0  0  0  0  0  0  0  0
  160.4560  199.2800  145.2540 C   0  0  0  0  0  2  0  0  0  0  0  0
  160.0760  201.5410  145.4630 C   0  0  0  0  0  2  0  0  0  0  0  0
  1 18  1  0  0  0  0
  3  7  2  0  0  0  0
  4 15  1  0  0  0  0
  5 19  1  0  0  0  0
  8 16  1  0  0  0  0
  9 13  2  0  0  0  0
 10 22  1  0  0  0  0
 11  5  2  0  0  0  0
 12  8  1  0  0  0  0
 13 20  1  0  0  0  0
 13 24  1  0  0  0  0
 14  2  1  0  0  0  0
 15 12  2  0  0  0  0
 15  5  1  0  0  0  0
 16  3  1  0  0  0  0
 17 28  1  6  0  0  0
 17 10  1  0  0  0  0
 18  4  1  0  0  0  0
 18 20  2  0  0  0  0
 19  3  1  0  0  0  0
 19  6  1  6  0  0  0
 20 11  1  0  0  0  0
 21 23  2  0  0  0  0
 22 24  1  0  0  0  0
 23  4  1  0  0  0  0
 25 14  1  6  0  0  0
 25 17  1  0  0  0  0
 25  9  1  0  0  0  0
 26 21  1  0  0  0  0
 26  1  2  0  0  0  0
 27  2  1  6  0  0  0
 27  1  1  0  0  0  0
 27  9  1  0  0  0  0
 29 28  1  0  0  0  0
 30 33  1  0  0  0  0
 30 34  1  0  0  0  0
 32 31  1  0  0  0  0
 32 29  1  0  0  0  0
 33 31  1  0  0  0  0
 34 32  1  0  0  0  0
M  END
>  <MODEL>
3

>  <REMARK>
 VINA RESULT:      -6.9      2.850      9.192
  Name = 
  3 active torsions:
  status: ('A' for Active; 'I' for Inactive)
    1  A    between atoms: C_17  and  C_28
    2  A    between atoms: C_28  and  N_29
    3  A    between atoms: N_29  and  N_32
                            x       y       z     vdW  Elec       q    Type
                         _______ _______ _______ _____ _____    ______ ____

>  <TORSDO>
F 3

$$$$
=
 OpenBabel11122414373D

 34 40  0  0  1  0  0  0  0  0999 V2000
  161.7200  207.6720  148.3770 C   0  0  0  0  0  0  0  0  0  0  0  0
  161.9460  210.1950  148.5780 C   0  0  0  0  0  2  0  0  0  0  0  0
  161.5790  201.7890  151.2100 C   0  0  0  0  0  0  0  0  0  0  0  0
  161.0440  205.2630  148.4770 N   0  0  0  0  0  0  0  0  0  0  0  0
  160.9560  204.1330  150.7160 C   0  0  0  0  0  0  0  0  0  0  0  0
  160.8040  203.2530  153.1040 C   0  0  0  0  0  1  0  0  0  0  0  0
  162.5650  201.4370  151.9110 O   0  0  0  0  0  0  0  0  0  0  0  0
  160.2120  201.5730  149.1380 C   0  0  0  0  0  2  0  0  0  0  0  0
  162.0860  208.8650  150.5200 C   0  0  0  0  0  0  0  0  0  0  0  0
  160.5310  209.9780  153.0750 C   0  0  0  0  0  2  0  0  0  0  0  0
  161.3010  205.2690  151.2560 N   0  0  0  0  0  0  0  0  0  0  0  0
  160.4980  202.9240  148.5540 C   0  0  0  0  0  3  0  0  0  0  0  0
  161.8350  207.7420  151.2250 C   0  0  0  0  0  0  0  0  0  0  0  0
  162.2080  211.1100  149.7690 C   0  0  0  0  0  2  0  0  0  0  0  0
  160.8060  204.0520  149.2240 C   0  0  0  0  0  0  0  0  0  0  0  0
  161.3150  201.1280  149.9770 N   0  0  0  0  0  2  0  0  0  0  0  0
  160.6200  210.5570  151.6640 C   0  0  2  0  0  3  0  0  0  0  0  0
  161.4520  206.4540  149.1680 C   0  0  0  0  0  0  0  0  0  0  0  0
  160.7080  202.9420  151.6120 C   0  0  2  0  0  3  0  0  0  0  0  0
  161.5620  206.4680  150.5080 C   0  0  0  0  0  0  0  0  0  0  0  0
  161.1000  206.4740  146.3910 C   0  0  0  0  0  3  0  0  0  0  0  0
  160.3480  208.4700  153.0700 C   0  0  0  0  0  2  0  0  0  0  0  0
  160.8500  205.3370  147.0520 C   0  0  0  0  0  3  0  0  0  0  0  0
  161.6550  207.7880  152.7110 C   0  0  0  0  0  2  0  0  0  0  0  0
  162.0020  210.2700  151.0370 C   0  0  1  0  0  3  0  0  0  0  0  0
  161.5760  207.6430  147.0840 N   0  0  0  0  0  0  0  0  0  0  0  0
  162.3820  208.8320  149.0590 C   0  0  1  0  0  3  0  0  0  0  0  0
  160.3550  212.0560  151.7650 C   0  0  0  0  0  2  0  0  0  0  0  0
  159.5030  212.3370  152.9100 N   0  0  0  0  0  2  0  0  0  0  0  0
  157.0730  214.2950  151.4290 N   0  0  0  0  0  2  0  0  0  0  0  0
  157.4160  213.1100  153.4670 C   0  0  0  0  0  2  0  0  0  0  0  0
  158.1950  212.4650  152.4240 N   0  0  0  0  0  0  0  0  0  0  0  0
  156.7100  214.2840  152.8330 C   0  0  0  0  0  2  0  0  0  0  0  0
  158.2400  213.4310  151.3380 C   0  0  0  0  0  2  0  0  0  0  0  0
  1 27  1  0  0  0  0
  1 18  1  0  0  0  0
  2 14  1  0  0  0  0
  3 19  1  0  0  0  0
  3  7  2  0  0  0  0
  4 18  1  0  0  0  0
  4 15  1  0  0  0  0
  5 11  2  0  0  0  0
  5 19  1  0  0  0  0
  8 16  1  0  0  0  0
  9 25  1  0  0  0  0
  9 13  2  0  0  0  0
 12  8  1  0  0  0  0
 12 15  2  0  0  0  0
 13 24  1  0  0  0  0
 15  5  1  0  0  0  0
 16  3  1  0  0  0  0
 17 28  1  1  0  0  0
 17 10  1  0  0  0  0
 18 20  2  0  0  0  0
 19  6  1  1  0  0  0
 20 13  1  0  0  0  0
 20 11  1  0  0  0  0
 21 23  2  0  0  0  0
 21 26  1  0  0  0  0
 22 10  1  0  0  0  0
 23  4  1  0  0  0  0
 24 22  1  0  0  0  0
 25 14  1  6  0  0  0
 25 17  1  0  0  0  0
 26  1  2  0  0  0  0
 27  2  1  6  0  0  0
 27  9  1  0  0  0  0
 28 29  1  0  0  0  0
 30 33  1  0  0  0  0
 32 29  1  0  0  0  0
 32 31  1  0  0  0  0
 33 31  1  0  0  0  0
 34 30  1  0  0  0  0
 34 32  1  0  0  0  0
M  END
>  <MODEL>
4

>  <REMARK>
 VINA RESULT:      -6.8      2.348      4.701
  Name = 
  3 active torsions:
  status: ('A' for Active; 'I' for Inactive)
    1  A    between atoms: C_17  and  C_28
    2  A    between atoms: C_28  and  N_29
    3  A    between atoms: N_29  and  N_32
                            x       y       z     vdW  Elec       q    Type
                         _______ _______ _______ _____ _____    ______ ____

>  <TORSDO>
F 3

$$$$
=
 OpenBabel11122414373D

 34 40  0  0  1  0  0  0  0  0999 V2000
  161.6850  206.9870  148.2550 C   0  0  0  0  0  0  0  0  0  0  0  0
  161.9820  209.0580  149.6960 C   0  0  0  0  0  2  0  0  0  0  0  0
  161.5510  200.4800  147.7080 C   0  0  0  0  0  0  0  0  0  0  0  0
  160.9570  204.8580  147.1550 N   0  0  0  0  0  0  0  0  0  0  0  0
  160.9600  202.7460  148.5100 C   0  0  0  0  0  0  0  0  0  0  0  0
  160.9130  200.7730  150.1240 C   0  0  0  0  0  1  0  0  0  0  0  0
  162.5640  199.8260  148.0740 O   0  0  0  0  0  0  0  0  0  0  0  0
  160.0710  201.3390  145.8960 C   0  0  0  0  0  2  0  0  0  0  0  0
  162.1930  206.9260  150.6800 C   0  0  0  0  0  0  0  0  0  0  0  0
  160.8030  206.5750  153.5320 C   0  0  0  0  0  2  0  0  0  0  0  0
  161.3610  203.4510  149.5310 N   0  0  0  0  0  0  0  0  0  0  0  0
  160.3590  202.8020  146.0650 C   0  0  0  0  0  3  0  0  0  0  0  0
  161.9520  205.5990  150.7310 C   0  0  0  0  0  0  0  0  0  0  0  0
  162.3300  209.2410  151.1690 C   0  0  0  0  0  2  0  0  0  0  0  0
  160.7290  203.4340  147.1960 C   0  0  0  0  0  0  0  0  0  0  0  0
  161.2060  200.5370  146.3270 N   0  0  0  0  0  2  0  0  0  0  0  0
  160.8310  207.7920  152.6090 C   0  0  2  0  0  3  0  0  0  0  0  0
  161.4300  205.5340  148.3310 C   0  0  0  0  0  0  0  0  0  0  0  0
  160.7310  201.2630  148.6890 C   0  0  2  0  0  3  0  0  0  0  0  0
  161.6100  204.8650  149.4830 C   0  0  0  0  0  0  0  0  0  0  0  0
  160.9320  206.9620  145.9750 C   0  0  0  0  0  3  0  0  0  0  0  0
  160.5840  205.2780  152.7720 C   0  0  0  0  0  2  0  0  0  0  0  0
  160.6900  205.6450  145.9790 C   0  0  0  0  0  3  0  0  0  0  0  0
  161.8530  204.8820  152.0410 C   0  0  0  0  0  2  0  0  0  0  0  0
  162.1710  207.8720  151.8440 C   0  0  1  0  0  3  0  0  0  0  0  0
  161.4720  207.6180  147.1370 N   0  0  0  0  0  0  0  0  0  0  0  0
  162.4100  207.6430  149.3920 C   0  0  1  0  0  3  0  0  0  0  0  0
  160.6090  209.0290  153.4730 C   0  0  0  0  0  2  0  0  0  0  0  0
  160.4170  208.6410  154.8610 N   0  0  0  0  0  2  0  0  0  0  0  0
  162.9450  210.7030  155.9960 N   0  0  0  0  0  2  0  0  0  0  0  0
  161.3430  209.1840  156.8890 C   0  0  0  0  0  2  0  0  0  0  0  0
  160.8180  209.7280  155.6490 N   0  0  0  0  0  0  0  0  0  0  0  0
  162.7060  209.7980  157.1030 C   0  0  0  0  0  2  0  0  0  0  0  0
  161.9650  210.3300  154.9890 C   0  0  0  0  0  2  0  0  0  0  0  0
  1 18  1  0  0  0  0
  1 27  1  0  0  0  0
  2 14  1  0  0  0  0
  3  7  2  0  0  0  0
  3 19  1  0  0  0  0
  4 15  1  0  0  0  0
  4 18  1  0  0  0  0
  5 19  1  0  0  0  0
  5 11  2  0  0  0  0
  8 12  1  0  0  0  0
  8 16  1  0  0  0  0
  9 13  2  0  0  0  0
  9 25  1  0  0  0  0
 12 15  2  0  0  0  0
 13 24  1  0  0  0  0
 15  5  1  0  0  0  0
 16  3  1  0  0  0  0
 17 28  1  1  0  0  0
 17 10  1  0  0  0  0
 18 20  2  0  0  0  0
 19  6  1  1  0  0  0
 20 11  1  0  0  0  0
 20 13  1  0  0  0  0
 21 23  2  0  0  0  0
 21 26  1  0  0  0  0
 22 10  1  0  0  0  0
 23  4  1  0  0  0  0
 24 22  1  0  0  0  0
 25 14  1  6  0  0  0
 25 17  1  0  0  0  0
 26  1  2  0  0  0  0
 27  2  1  1  0  0  0
 27  9  1  0  0  0  0
 28 29  1  0  0  0  0
 29 32  1  0  0  0  0
 30 33  1  0  0  0  0
 31 33  1  0  0  0  0
 32 31  1  0  0  0  0
 34 32  1  0  0  0  0
 34 30  1  0  0  0  0
M  END
>  <MODEL>
5

>  <REMARK>
 VINA RESULT:      -6.8      2.079      3.963
  Name = 
  3 active torsions:
  status: ('A' for Active; 'I' for Inactive)
    1  A    between atoms: C_17  and  C_28
    2  A    between atoms: C_28  and  N_29
    3  A    between atoms: N_29  and  N_32
                            x       y       z     vdW  Elec       q    Type
                         _______ _______ _______ _____ _____    ______ ____

>  <TORSDO>
F 3

$$$$
=
 OpenBabel11122414373D

 34 40  0  0  1  0  0  0  0  0999 V2000
  161.8130  210.0550  150.0840 C   0  0  0  0  0  0  0  0  0  0  0  0
  161.7650  211.4120  147.9370 C   0  0  0  0  0  2  0  0  0  0  0  0
  160.6260  209.6110  156.4920 C   0  0  0  0  0  0  0  0  0  0  0  0
  161.3170  208.7680  152.1750 N   0  0  0  0  0  0  0  0  0  0  0  0
  160.1970  209.9580  154.0790 C   0  0  0  0  0  0  0  0  0  0  0  0
  158.9330  211.3410  155.8080 C   0  0  0  0  0  1  0  0  0  0  0  0
  161.1550  210.4590  157.2600 O   0  0  0  0  0  0  0  0  0  0  0  0
  160.4800  207.2830  155.6160 C   0  0  0  0  0  2  0  0  0  0  0  0
  161.0010  212.3930  149.9410 C   0  0  0  0  0  0  0  0  0  0  0  0
  158.3240  214.1150  149.7060 C   0  0  0  0  0  2  0  0  0  0  0  0
  160.1630  211.0290  153.3350 N   0  0  0  0  0  0  0  0  0  0  0  0
  160.9400  207.5560  154.2150 C   0  0  0  0  0  3  0  0  0  0  0  0
  160.4990  212.3300  151.1920 C   0  0  0  0  0  0  0  0  0  0  0  0
  161.3500  212.8490  147.6410 C   0  0  0  0  0  2  0  0  0  0  0  0
  160.8100  208.7050  153.5240 C   0  0  0  0  0  0  0  0  0  0  0  0
  161.0460  208.2520  156.5430 N   0  0  0  0  0  2  0  0  0  0  0  0
  159.0670  213.3230  148.6310 C   0  0  2  0  0  3  0  0  0  0  0  0
  161.2600  210.0090  151.4530 C   0  0  0  0  0  0  0  0  0  0  0  0
  159.6060  210.0140  155.4690 C   0  0  2  0  0  3  0  0  0  0  0  0
  160.6900  211.0970  152.0000 C   0  0  0  0  0  0  0  0  0  0  0  0
  162.3290  207.7170  150.2540 C   0  0  0  0  0  3  0  0  0  0  0  0
  158.2550  213.3690  151.0280 C   0  0  0  0  0  2  0  0  0  0  0  0
  161.8500  207.6130  151.5000 C   0  0  0  0  0  3  0  0  0  0  0  0
  159.6050  213.4090  151.7190 C   0  0  0  0  0  2  0  0  0  0  0  0
  160.5920  213.3630  148.8720 C   0  0  1  0  0  3  0  0  0  0  0  0
  162.3310  208.9810  149.5650 N   0  0  0  0  0  0  0  0  0  0  0  0
  161.9830  211.3950  149.4310 C   0  0  1  0  0  3  0  0  0  0  0  0
  158.7010  213.9280  147.2790 C   0  0  0  0  0  2  0  0  0  0  0  0
  158.0970  212.9170  146.4260 N   0  0  0  0  0  2  0  0  0  0  0  0
  160.3670  212.8370  143.8240 N   0  0  0  0  0  2  0  0  0  0  0  0
  159.2310  214.4530  145.1550 C   0  0  0  0  0  2  0  0  0  0  0  0
  158.4210  213.2490  145.1040 N   0  0  0  0  0  0  0  0  0  0  0  0
  160.4780  214.1850  144.3480 C   0  0  0  0  0  2  0  0  0  0  0  0
  159.3170  212.2140  144.6150 C   0  0  0  0  0  2  0  0  0  0  0  0
  1 18  1  0  0  0  0
  3 16  1  0  0  0  0
  3  7  2  0  0  0  0
  4 15  1  0  0  0  0
  5 19  1  0  0  0  0
  8 16  1  0  0  0  0
  9 13  2  0  0  0  0
 10 22  1  0  0  0  0
 11  5  2  0  0  0  0
 12  8  1  0  0  0  0
 13 24  1  0  0  0  0
 13 20  1  0  0  0  0
 14  2  1  0  0  0  0
 15  5  1  0  0  0  0
 15 12  2  0  0  0  0
 17 28  1  6  0  0  0
 17 25  1  0  0  0  0
 17 10  1  0  0  0  0
 18 20  2  0  0  0  0
 18  4  1  0  0  0  0
 19  6  1  1  0  0  0
 19  3  1  0  0  0  0
 20 11  1  0  0  0  0
 21 23  2  0  0  0  0
 22 24  1  0  0  0  0
 23  4  1  0  0  0  0
 25 14  1  6  0  0  0
 25  9  1  0  0  0  0
 26  1  2  0  0  0  0
 26 21  1  0  0  0  0
 27  2  1  6  0  0  0
 27  9  1  0  0  0  0
 27  1  1  0  0  0  0
 29 28  1  0  0  0  0
 30 33  1  0  0  0  0
 30 34  1  0  0  0  0
 32 31  1  0  0  0  0
 32 29  1  0  0  0  0
 33 31  1  0  0  0  0
 34 32  1  0  0  0  0
M  END
>  <MODEL>
6

>  <REMARK>
 VINA RESULT:      -6.8      5.372      8.937
  Name = 
  3 active torsions:
  status: ('A' for Active; 'I' for Inactive)
    1  A    between atoms: C_17  and  C_28
    2  A    between atoms: C_28  and  N_29
    3  A    between atoms: N_29  and  N_32
                            x       y       z     vdW  Elec       q    Type
                         _______ _______ _______ _____ _____    ______ ____

>  <TORSDO>
F 3

$$$$
=
 OpenBabel11122414373D

 34 40  0  0  1  0  0  0  0  0999 V2000
  161.6180  206.7230  147.5380 C   0  0  0  0  0  0  0  0  0  0  0  0
  161.9310  208.8740  148.8540 C   0  0  0  0  0  2  0  0  0  0  0  0
  161.4810  200.1950  147.3720 C   0  0  0  0  0  0  0  0  0  0  0  0
  160.8790  204.5330  146.5730 N   0  0  0  0  0  0  0  0  0  0  0  0
  160.8980  202.5030  148.0480 C   0  0  0  0  0  0  0  0  0  0  0  0
  160.8700  200.6280  149.7740 C   0  0  0  0  0  1  0  0  0  0  0  0
  162.4990  199.5630  147.7650 O   0  0  0  0  0  0  0  0  0  0  0  0
  159.9820  200.9480  145.5300 C   0  0  0  0  0  2  0  0  0  0  0  0
  162.1530  206.8030  149.9580 C   0  0  0  0  0  0  0  0  0  0  0  0
  160.7940  206.6190  152.8400 C   0  0  0  0  0  2  0  0  0  0  0  0
  161.3100  203.2670  149.0220 N   0  0  0  0  0  0  0  0  0  0  0  0
  160.2710  202.4170  145.6100 C   0  0  0  0  0  3  0  0  0  0  0  0
  161.9130  205.4800  150.0880 C   0  0  0  0  0  0  0  0  0  0  0  0
  162.2940  209.1420  150.3100 C   0  0  0  0  0  2  0  0  0  0  0  0
  160.6530  203.1150  146.6980 C   0  0  0  0  0  0  0  0  0  0  0  0
  161.1210  200.1710  145.9950 N   0  0  0  0  0  2  0  0  0  0  0  0
  160.8120  207.7800  151.8480 C   0  0  2  0  0  3  0  0  0  0  0  0
  161.3650  205.2770  147.7020 C   0  0  0  0  0  0  0  0  0  0  0  0
  160.6720  201.0340  148.3160 C   0  0  2  0  0  3  0  0  0  0  0  0
  161.5580  204.6760  148.8890 C   0  0  0  0  0  0  0  0  0  0  0  0
  160.8410  206.5650  145.2730 C   0  0  0  0  0  3  0  0  0  0  0  0
  160.5670  205.2800  152.1590 C   0  0  0  0  0  2  0  0  0  0  0  0
  160.5990  205.2510  145.3560 C   0  0  0  0  0  3  0  0  0  0  0  0
  161.8280  204.8410  151.4390 C   0  0  0  0  0  2  0  0  0  0  0  0
  162.1430  207.8150  151.0650 C   0  0  1  0  0  3  0  0  0  0  0  0
  161.3940  207.2880  146.3880 N   0  0  0  0  0  0  0  0  0  0  0  0
  162.3560  207.4430  148.6280 C   0  0  1  0  0  3  0  0  0  0  0  0
  160.5990  209.0650  152.6410 C   0  0  0  0  0  2  0  0  0  0  0  0
  161.0920  208.9020  153.9990 N   0  0  0  0  0  2  0  0  0  0  0  0
  160.8240  211.6080  156.1280 N   0  0  0  0  0  2  0  0  0  0  0  0
  160.7200  211.1560  153.7920 C   0  0  0  0  0  2  0  0  0  0  0  0
  161.5640  210.1530  154.4160 N   0  0  0  0  0  0  0  0  0  0  0  0
  160.2390  212.0770  154.8870 C   0  0  0  0  0  2  0  0  0  0  0  0
  161.2820  210.2590  155.8390 C   0  0  0  0  0  2  0  0  0  0  0  0
  1 18  1  0  0  0  0
  1 27  1  0  0  0  0
  2 14  1  0  0  0  0
  3  7  2  0  0  0  0
  3 19  1  0  0  0  0
  4 15  1  0  0  0  0
  4 18  1  0  0  0  0
  5 19  1  0  0  0  0
  5 11  2  0  0  0  0
  8 12  1  0  0  0  0
  8 16  1  0  0  0  0
  9 13  2  0  0  0  0
  9 25  1  0  0  0  0
 12 15  2  0  0  0  0
 13 24  1  0  0  0  0
 15  5  1  0  0  0  0
 16  3  1  0  0  0  0
 17 28  1  1  0  0  0
 17 10  1  0  0  0  0
 18 20  2  0  0  0  0
 19  6  1  1  0  0  0
 20 11  1  0  0  0  0
 20 13  1  0  0  0  0
 21 23  2  0  0  0  0
 21 26  1  0  0  0  0
 22 10  1  0  0  0  0
 23  4  1  0  0  0  0
 24 22  1  0  0  0  0
 25 14  1  6  0  0  0
 25 17  1  0  0  0  0
 26  1  2  0  0  0  0
 27  2  1  1  0  0  0
 27  9  1  0  0  0  0
 28 29  1  0  0  0  0
 29 32  1  0  0  0  0
 31 32  1  0  0  0  0
 31 33  1  0  0  0  0
 32 34  1  0  0  0  0
 33 30  1  0  0  0  0
 34 30  1  0  0  0  0
M  END
>  <MODEL>
7

>  <REMARK>
 VINA RESULT:      -6.6      1.707      3.777
  Name = 
  3 active torsions:
  status: ('A' for Active; 'I' for Inactive)
    1  A    between atoms: C_17  and  C_28
    2  A    between atoms: C_28  and  N_29
    3  A    between atoms: N_29  and  N_32
                            x       y       z     vdW  Elec       q    Type
                         _______ _______ _______ _____ _____    ______ ____

>  <TORSDO>
F 3

$$$$
=
 OpenBabel11122414373D

 34 40  0  0  1  0  0  0  0  0999 V2000
  161.8710  208.9620  151.4690 C   0  0  0  0  0  0  0  0  0  0  0  0
  161.8260  210.8860  153.1270 C   0  0  0  0  0  2  0  0  0  0  0  0
  161.5030  202.5510  150.2720 C   0  0  0  0  0  0  0  0  0  0  0  0
  161.3970  206.9940  149.9940 N   0  0  0  0  0  0  0  0  0  0  0  0
  160.8340  204.7970  151.0680 C   0  0  0  0  0  0  0  0  0  0  0  0
  160.1490  202.7240  152.3860 C   0  0  0  0  0  1  0  0  0  0  0  0
  162.3030  201.7820  150.8700 O   0  0  0  0  0  0  0  0  0  0  0  0
  160.7350  203.6720  148.1840 C   0  0  0  0  0  2  0  0  0  0  0  0
  161.5760  208.6780  153.9140 C   0  0  0  0  0  0  0  0  0  0  0  0
  159.3310  208.2490  156.1420 C   0  0  0  0  0  2  0  0  0  0  0  0
  160.9330  205.3870  152.2280 N   0  0  0  0  0  0  0  0  0  0  0  0
  161.0470  205.0860  148.5760 C   0  0  0  0  0  3  0  0  0  0  0  0
  161.2470  207.3780  153.7560 C   0  0  0  0  0  0  0  0  0  0  0  0
  161.6980  210.9290  154.6450 C   0  0  0  0  0  2  0  0  0  0  0  0
  161.0780  205.5980  149.8220 C   0  0  0  0  0  0  0  0  0  0  0  0
  161.6200  202.7400  148.8660 N   0  0  0  0  0  2  0  0  0  0  0  0
  159.7290  209.5220  155.3970 C   0  0  2  0  0  3  0  0  0  0  0  0
  161.5130  207.5360  151.3190 C   0  0  0  0  0  0  0  0  0  0  0  0
  160.4650  203.3330  151.0210 C   0  0  2  0  0  3  0  0  0  0  0  0
  161.2740  206.7720  152.3980 C   0  0  0  0  0  0  0  0  0  0  0  0
  161.8840  209.1710  149.0770 C   0  0  0  0  0  3  0  0  0  0  0  0
  159.2830  207.0370  155.2280 C   0  0  0  0  0  2  0  0  0  0  0  0
  161.5690  207.8860  148.8770 C   0  0  0  0  0  3  0  0  0  0  0  0
  160.6900  206.5800  154.8930 C   0  0  0  0  0  2  0  0  0  0  0  0
  161.2450  209.5350  155.0990 C   0  0  1  0  0  3  0  0  0  0  0  0
  162.0670  209.6890  150.4080 N   0  0  0  0  0  0  0  0  0  0  0  0
  162.2380  209.4640  152.8340 C   0  0  1  0  0  3  0  0  0  0  0  0
  159.3230  210.7090  156.2660 C   0  0  0  0  0  2  0  0  0  0  0  0
  158.0800  211.2830  155.7770 N   0  0  0  0  0  2  0  0  0  0  0  0
  157.0140  214.2940  154.4630 N   0  0  0  0  0  2  0  0  0  0  0  0
  158.2770  212.3940  153.7800 C   0  0  0  0  0  2  0  0  0  0  0  0
  158.3950  212.5300  155.2210 N   0  0  0  0  0  0  0  0  0  0  0  0
  157.3860  213.5140  153.2990 C   0  0  0  0  0  2  0  0  0  0  0  0
  157.3300  213.4440  155.5990 C   0  0  0  0  0  2  0  0  0  0  0  0
  1 27  1  0  0  0  0
  2 14  1  0  0  0  0
  3  7  2  0  0  0  0
  3 19  1  0  0  0  0
  4 18  1  0  0  0  0
  5 11  2  0  0  0  0
  8 12  1  0  0  0  0
  8 16  1  0  0  0  0
  9 25  1  0  0  0  0
 11 20  1  0  0  0  0
 12 15  2  0  0  0  0
 13  9  2  0  0  0  0
 13 24  1  0  0  0  0
 15  4  1  0  0  0  0
 15  5  1  0  0  0  0
 16  3  1  0  0  0  0
 17 10  1  0  0  0  0
 17 28  1  1  0  0  0
 18  1  1  0  0  0  0
 18 20  2  0  0  0  0
 19  5  1  0  0  0  0
 19  6  1  1  0  0  0
 20 13  1  0  0  0  0
 21 26  1  0  0  0  0
 22 10  1  0  0  0  0
 23 21  2  0  0  0  0
 23  4  1  0  0  0  0
 24 22  1  0  0  0  0
 25 14  1  6  0  0  0
 25 17  1  0  0  0  0
 26  1  2  0  0  0  0
 27  2  1  6  0  0  0
 27  9  1  0  0  0  0
 29 28  1  0  0  0  0
 30 34  1  0  0  0  0
 31 32  1  0  0  0  0
 32 34  1  0  0  0  0
 32 29  1  0  0  0  0
 33 31  1  0  0  0  0
 33 30  1  0  0  0  0
M  END
>  <MODEL>
8

>  <REMARK>
 VINA RESULT:      -6.1      2.413      5.382
  Name = 
  3 active torsions:
  status: ('A' for Active; 'I' for Inactive)
    1  A    between atoms: C_17  and  C_28
    2  A    between atoms: C_28  and  N_29
    3  A    between atoms: N_29  and  N_32
                            x       y       z     vdW  Elec       q    Type
                         _______ _______ _______ _____ _____    ______ ____

>  <TORSDO>
F 3

$$$$
