=
 OpenBabel11122412523D

 32 37  0  0  1  0  0  0  0  0999 V2000
  161.7990  209.6270  150.2950 C   0  0  0  0  0  2  0  0  0  0  0  0
  161.6540  213.6360  146.5730 C   0  0  1  0  0  3  0  0  0  0  0  0
  157.5860  212.3820  147.0690 C   0  0  0  0  0  3  0  0  0  0  0  0
  156.6860  213.3260  146.3250 C   0  0  0  0  0  2  0  0  0  0  0  0
  162.4050  213.3290  144.1680 C   0  0  1  0  0  3  0  0  0  0  0  0
  162.1570  213.6880  142.6990 C   0  0  1  0  0  3  0  0  0  0  0  0
  162.1660  211.9890  148.0160 C   0  0  1  0  0  3  0  0  0  0  0  0
  160.9820  213.9780  148.9740 C   0  0  0  0  0  2  0  0  0  0  0  0
  160.5440  212.6670  141.4490 C   0  0  0  0  0  0  0  0  0  0  0  0
  161.7110  212.1420  150.5150 C   0  0  0  0  0  2  0  0  0  0  0  0
  158.7560  212.7760  147.4370 N   0  0  0  0  0  0  0  0  0  0  0  0
  160.6760  214.3530  147.5170 C   0  0  2  0  0  3  0  0  0  0  0  0
  159.2050  214.1200  147.1350 C   0  0  1  0  0  3  0  0  0  0  0  0
  159.9230  213.7380  144.7130 C   0  0  1  0  0  3  0  0  0  0  0  0
  161.7970  212.1600  141.0490 N   0  0  0  0  0  0  0  0  0  0  0  0
  161.5810  209.6120  148.7870 C   0  0  0  0  0  2  0  0  0  0  0  0
  161.2060  212.4720  149.1220 C   0  0  2  0  0  3  0  0  0  0  0  0
  162.8350  212.7320  141.8060 N   0  0  0  0  0  0  0  0  0  0  0  0
  162.6010  210.5220  148.1130 C   0  0  0  0  0  2  0  0  0  0  0  0
  161.1140  210.8160  150.9670 C   0  0  2  0  0  3  0  0  0  0  0  0
  157.4760  214.0940  145.2540 C   0  0  0  0  0  2  0  0  0  0  0  0
  158.9300  214.4530  145.6500 C   0  0  1  0  0  3  0  0  0  0  0  0
  159.6610  214.1540  143.2600 C   0  0  0  0  0  2  0  0  0  0  0  0
  161.5970  212.2390  146.7550 O   0  0  0  0  0  0  0  0  0  0  0  0
  163.8310  213.7170  144.5300 C   0  0  0  0  0  1  0  0  0  0  0  0
  159.2410  212.1570  140.9420 C   0  0  0  0  0  1  0  0  0  0  0  0
  161.3940  214.0260  145.1130 C   0  0  1  0  0  3  0  0  0  0  0  0
  160.7100  213.5520  142.3960 C   0  0  0  0  0  0  0  0  0  0  0  0
  161.2440  210.7040  152.4120 N   0  0  0  0  0  2  0  0  0  0  0  0
  160.1320  210.8340  153.2980 C   0  0  0  0  0  0  0  0  0  0  0  0
  158.9790  211.0790  152.8530 O   0  0  0  0  0  0  0  0  0  0  0  0
  160.3370  210.6810  154.7610 C   0  0  0  0  0  1  0  0  0  0  0  0
  1 20  1  0  0  0  0
  2 24  1  6  0  0  0
  2 12  1  0  0  0  0
  3 11  2  0  0  0  0
  4  3  1  0  0  0  0
  5 25  1  1  0  0  0
  5 27  1  0  0  0  0
  6 18  1  6  0  0  0
  6  5  1  0  0  0  0
  7 19  1  1  0  0  0
  7 17  1  0  0  0  0
  9 28  2  0  0  0  0
 10 20  1  0  0  0  0
 12  8  1  1  0  0  0
 13 11  1  6  0  0  0
 13 12  1  0  0  0  0
 14 23  1  6  0  0  0
 14 27  1  0  0  0  0
 14 22  1  0  0  0  0
 15  9  1  0  0  0  0
 15 18  2  0  0  0  0
 16  1  1  0  0  0  0
 17  8  1  1  0  0  0
 17 10  1  0  0  0  0
 19 16  1  0  0  0  0
 20 29  1  1  0  0  0
 21  4  1  0  0  0  0
 22 21  1  6  0  0  0
 22 13  1  0  0  0  0
 24  7  1  0  0  0  0
 26  9  1  0  0  0  0
 27  2  1  0  0  0  0
 28  6  1  0  0  0  0
 28 23  1  0  0  0  0
 29 30  1  0  0  0  0
 30 32  1  0  0  0  0
 31 30  2  0  0  0  0
M  END
>  <MODEL>
1

>  <REMARK>
 VINA RESULT:      -3.3      0.000      0.000
  Name = 
  1 active torsions:
  status: ('A' for Active; 'I' for Inactive)
    1  A    between atoms: C_20  and  N_29
                            x       y       z     vdW  Elec       q    Type
                         _______ _______ _______ _____ _____    ______ ____

>  <TORSDO>
F 1

$$$$
=
 OpenBabel11122412523D

 32 37  0  0  1  0  0  0  0  0999 V2000
  160.9830  205.1820  149.8690 C   0  0  0  0  0  2  0  0  0  0  0  0
  162.1090  210.5330  150.0720 C   0  0  1  0  0  3  0  0  0  0  0  0
  158.8570  209.9400  152.7990 C   0  0  0  0  0  3  0  0  0  0  0  0
  158.6160  211.2110  153.5620 C   0  0  0  0  0  2  0  0  0  0  0  0
  161.4610  212.1620  148.2350 C   0  0  1  0  0  3  0  0  0  0  0  0
  160.9730  213.5740  147.8990 C   0  0  1  0  0  3  0  0  0  0  0  0
  161.9050  208.3430  149.6070 C   0  0  1  0  0  3  0  0  0  0  0  0
  162.8300  208.9190  151.8620 C   0  0  0  0  0  2  0  0  0  0  0  0
  158.7780  214.1770  148.0600 C   0  0  0  0  0  0  0  0  0  0  0  0
  162.6780  206.5090  151.1930 C   0  0  0  0  0  2  0  0  0  0  0  0
  160.0110  209.7240  152.2690 N   0  0  0  0  0  0  0  0  0  0  0  0
  162.3200  210.3390  151.5820 C   0  0  2  0  0  3  0  0  0  0  0  0
  161.0740  210.7010  152.4060 C   0  0  1  0  0  3  0  0  0  0  0  0
  160.3470  212.3030  150.5520 C   0  0  1  0  0  3  0  0  0  0  0  0
  159.0930  214.0280  146.6940 N   0  0  0  0  0  0  0  0  0  0  0  0
  160.2520  206.4000  149.3190 C   0  0  0  0  0  2  0  0  0  0  0  0
  162.0340  207.8790  151.0720 C   0  0  2  0  0  3  0  0  0  0  0  0
  160.4310  213.6270  146.5290 N   0  0  0  0  0  0  0  0  0  0  0  0
  161.2500  207.3380  148.6510 C   0  0  0  0  0  2  0  0  0  0  0  0
  161.5900  205.4440  151.2470 C   0  0  2  0  0  3  0  0  0  0  0  0
  159.2200  212.4110  152.8150 C   0  0  0  0  0  2  0  0  0  0  0  0
  160.5440  212.1140  152.0690 C   0  0  1  0  0  3  0  0  0  0  0  0
  159.8940  213.7380  150.2590 C   0  0  0  0  0  2  0  0  0  0  0  0
  161.2180  209.5690  149.5590 O   0  0  0  0  0  0  0  0  0  0  0  0
  162.7740  211.9130  147.5080 C   0  0  0  0  0  1  0  0  0  0  0  0
  157.4080  214.4530  148.5720 C   0  0  0  0  0  1  0  0  0  0  0  0
  161.6380  211.9590  149.7620 C   0  0  1  0  0  3  0  0  0  0  0  0
  159.8360  213.9280  148.7860 C   0  0  0  0  0  0  0  0  0  0  0  0
  162.1570  204.2130  151.7750 N   0  0  0  0  0  2  0  0  0  0  0  0
  161.6220  202.9250  151.4680 C   0  0  0  0  0  0  0  0  0  0  0  0
  160.6050  202.8090  150.7330 O   0  0  0  0  0  0  0  0  0  0  0  0
  162.2690  201.7090  152.0250 C   0  0  0  0  0  1  0  0  0  0  0  0
  1 20  1  0  0  0  0
  2 24  1  1  0  0  0
  2 12  1  0  0  0  0
  3  4  1  0  0  0  0
  5 25  1  6  0  0  0
  5 27  1  0  0  0  0
  6 18  1  6  0  0  0
  6  5  1  0  0  0  0
  6 28  1  0  0  0  0
  7 19  1  6  0  0  0
  7 17  1  0  0  0  0
  9 26  1  0  0  0  0
  9 28  2  0  0  0  0
 10 20  1  0  0  0  0
 11  3  2  0  0  0  0
 12  8  1  6  0  0  0
 12 13  1  0  0  0  0
 13 11  1  6  0  0  0
 14 23  1  1  0  0  0
 14 22  1  0  0  0  0
 15  9  1  0  0  0  0
 16  1  1  0  0  0  0
 17 10  1  6  0  0  0
 17  8  1  0  0  0  0
 18 15  2  0  0  0  0
 19 16  1  0  0  0  0
 20 29  1  6  0  0  0
 21  4  1  0  0  0  0
 22 13  1  0  0  0  0
 22 21  1  1  0  0  0
 24  7  1  0  0  0  0
 27  2  1  0  0  0  0
 27 14  1  0  0  0  0
 28 23  1  0  0  0  0
 30 29  1  0  0  0  0
 30 32  1  0  0  0  0
 31 30  2  0  0  0  0
M  END
>  <MODEL>
2

>  <REMARK>
 VINA RESULT:      -2.2      3.412      6.198
  Name = 
  1 active torsions:
  status: ('A' for Active; 'I' for Inactive)
    1  A    between atoms: C_20  and  N_29
                            x       y       z     vdW  Elec       q    Type
                         _______ _______ _______ _____ _____    ______ ____

>  <TORSDO>
F 1

$$$$
=
 OpenBabel11122412523D

 32 37  0  0  1  0  0  0  0  0999 V2000
  157.6530  212.8190  145.2960 C   0  0  0  0  0  2  0  0  0  0  0  0
  160.6420  213.0570  149.8740 C   0  0  1  0  0  3  0  0  0  0  0  0
  161.2750  209.1240  148.2930 C   0  0  0  0  0  3  0  0  0  0  0  0
  162.3560  208.4440  149.0820 C   0  0  0  0  0  2  0  0  0  0  0  0
  159.6340  212.9420  152.2010 C   0  0  1  0  0  3  0  0  0  0  0  0
  159.7980  212.4340  153.6370 C   0  0  1  0  0  3  0  0  0  0  0  0
  159.2150  213.3390  148.1600 C   0  0  1  0  0  3  0  0  0  0  0  0
  161.6490  213.2540  147.5760 C   0  0  0  0  0  2  0  0  0  0  0  0
  159.3230  210.2830  154.2310 C   0  0  0  0  0  0  0  0  0  0  0  0
  159.9800  213.6900  145.7590 C   0  0  0  0  0  2  0  0  0  0  0  0
  161.2130  210.4110  148.2750 N   0  0  0  0  0  0  0  0  0  0  0  0
  161.8520  212.7030  148.9940 C   0  0  2  0  0  3  0  0  0  0  0  0
  162.1790  211.2010  149.0120 C   0  0  1  0  0  3  0  0  0  0  0  0
  161.1140  211.0250  151.3290 C   0  0  1  0  0  3  0  0  0  0  0  0
  158.2850  211.1090  154.7080 N   0  0  0  0  0  0  0  0  0  0  0  0
  157.4630  212.1950  146.6730 C   0  0  0  0  0  2  0  0  0  0  0  0
  160.2360  212.9640  147.0680 C   0  0  2  0  0  3  0  0  0  0  0  0
  158.5060  212.4500  154.3470 N   0  0  0  0  0  0  0  0  0  0  0  0
  157.7400  213.2360  147.7500 C   0  0  0  0  0  2  0  0  0  0  0  0
  159.1180  212.8170  144.8570 C   0  0  2  0  0  3  0  0  0  0  0  0
  162.5310  209.1200  150.4520 C   0  0  0  0  0  2  0  0  0  0  0  0
  162.3260  210.6550  150.4510 C   0  0  1  0  0  3  0  0  0  0  0  0
  161.3370  210.5290  152.7620 C   0  0  0  0  0  2  0  0  0  0  0  0
  159.4480  212.5650  149.3100 O   0  0  0  0  0  0  0  0  0  0  0  0
  159.4610  214.4530  152.2350 C   0  0  0  0  0  1  0  0  0  0  0  0
  159.3120  208.7970  154.3240 C   0  0  0  0  0  1  0  0  0  0  0  0
  160.8400  212.5520  151.3090 C   0  0  1  0  0  3  0  0  0  0  0  0
  160.2150  211.0090  153.6120 C   0  0  0  0  0  0  0  0  0  0  0  0
  159.2190  213.3000  143.4890 N   0  0  0  0  0  2  0  0  0  0  0  0
  159.8810  212.5640  142.4590 C   0  0  0  0  0  0  0  0  0  0  0  0
  160.4320  211.4590  142.7100 O   0  0  0  0  0  0  0  0  0  0  0  0
  159.9230  213.1100  141.0780 C   0  0  0  0  0  1  0  0  0  0  0  0
  1 16  1  0  0  0  0
  2 24  1  6  0  0  0
  2 27  1  0  0  0  0
  3  4  1  0  0  0  0
  4 21  1  0  0  0  0
  5 25  1  1  0  0  0
  5  6  1  0  0  0  0
  6 28  1  6  0  0  0
  6 18  1  0  0  0  0
  7 19  1  6  0  0  0
  7 24  1  0  0  0  0
  9 26  1  0  0  0  0
  9 15  1  0  0  0  0
 11  3  2  0  0  0  0
 12  8  1  6  0  0  0
 12 13  1  0  0  0  0
 12  2  1  0  0  0  0
 13 11  1  1  0  0  0
 13 22  1  0  0  0  0
 14 23  1  1  0  0  0
 16 19  1  0  0  0  0
 17 10  1  6  0  0  0
 17  8  1  0  0  0  0
 17  7  1  0  0  0  0
 18 15  2  0  0  0  0
 20 29  1  6  0  0  0
 20  1  1  0  0  0  0
 20 10  1  0  0  0  0
 22 21  1  6  0  0  0
 22 14  1  0  0  0  0
 23 28  1  0  0  0  0
 27 14  1  0  0  0  0
 27  5  1  0  0  0  0
 28  9  2  0  0  0  0
 30 31  2  0  0  0  0
 30 29  1  0  0  0  0
 32 30  1  0  0  0  0
M  END
>  <MODEL>
3

>  <REMARK>
 VINA RESULT:      -1.2      2.116      8.550
  Name = 
  1 active torsions:
  status: ('A' for Active; 'I' for Inactive)
    1  A    between atoms: C_20  and  N_29
                            x       y       z     vdW  Elec       q    Type
                         _______ _______ _______ _____ _____    ______ ____

>  <TORSDO>
F 1

$$$$
