=
 OpenBabel11122414353D

 34 41  0  0  1  0  0  0  0  0999 V2000
  161.3700  206.3770  152.7220 C   0  0  1  0  0  3  0  0  0  0  0  0
  160.7370  204.3840  151.2150 C   0  0  0  0  0  2  0  0  0  0  0  0
  159.7870  212.4660  153.6280 C   0  0  1  0  0  3  0  0  0  0  0  0
  161.3710  208.6400  153.9480 C   0  0  0  0  0  0  0  0  0  0  0  0
  161.2260  210.8180  152.6350 C   0  0  2  0  0  3  0  0  0  0  0  0
  159.1730  212.1150  151.7690 C   0  0  0  0  0  2  0  0  0  0  0  0
  159.0780  213.1970  152.6660 O   0  0  0  0  0  0  0  0  0  0  0  0
  159.7900  210.8390  155.8770 S   0  0  0  0  0  0  0  0  0  0  0  0
  160.8870  206.4580  150.2950 C   0  0  0  0  0  0  0  0  0  0  0  0
  162.2430  206.6400  147.4540 C   0  0  0  0  0  2  0  0  0  0  0  0
  161.3750  209.9700  151.4520 N   0  0  0  0  0  0  0  0  0  0  0  0
  161.5220  210.8960  155.2310 C   0  0  0  0  0  2  0  0  0  0  0  0
  161.1520  207.7730  150.2260 C   0  0  0  0  0  0  0  0  0  0  0  0
  160.6030  204.2240  149.8050 O   0  0  0  0  0  0  0  0  0  0  0  0
  161.7490  210.1070  153.9120 C   0  0  1  0  0  3  0  0  0  0  0  0
  159.0660  212.2550  154.9430 C   0  0  0  0  0  2  0  0  0  0  0  0
  162.1610  205.4660  148.4250 C   0  0  1  0  0  3  0  0  0  0  0  0
  161.2990  207.8920  152.6760 C   0  0  1  0  0  3  0  0  0  0  0  0
  159.7720  211.2120  152.8160 C   0  0  2  0  0  3  0  0  0  0  0  0
  161.2790  208.5390  151.4920 C   0  0  0  0  0  0  0  0  0  0  0  0
  160.7160  206.5650  155.0990 C   0  0  0  0  0  3  0  0  0  0  0  0
  162.5400  207.9540  148.1670 C   0  0  0  0  0  2  0  0  0  0  0  0
  161.1230  207.9880  155.0950 C   0  0  0  0  0  3  0  0  0  0  0  0
  161.3100  208.4640  148.9060 C   0  0  0  0  0  2  0  0  0  0  0  0
  160.8310  205.4830  149.1910 C   0  0  2  0  0  3  0  0  0  0  0  0
  160.7740  205.8240  153.9870 C   0  0  0  0  0  3  0  0  0  0  0  0
  160.7680  205.8000  151.5220 N   0  0  0  0  0  0  0  0  0  0  0  0
  162.2940  204.2780  147.7020 O   0  0  0  0  0  0  0  0  0  0  0  0
  161.5600  204.4880  146.5310 C   0  0  0  0  0  2  0  0  0  0  0  0
  160.2730  201.4650  146.3010 C   0  0  0  0  0  2  0  0  0  0  0  0
  160.4840  203.3020  144.8130 C   0  0  0  0  0  2  0  0  0  0  0  0
  161.6720  203.3270  145.6630 N   0  0  0  0  0  0  0  0  0  0  0  0
  159.8330  201.9450  144.9490 C   0  0  0  0  0  2  0  0  0  0  0  0
  161.6050  202.1480  146.5240 C   0  0  0  0  0  2  0  0  0  0  0  0
  1 26  1  1  0  0  0
  2 27  1  0  0  0  0
  3 16  1  1  0  0  0
  4 23  2  0  0  0  0
  5 11  1  6  0  0  0
  5 19  1  0  0  0  0
  5 15  1  0  0  0  0
  6  7  1  0  0  0  0
  7  3  1  0  0  0  0
  9 27  1  0  0  0  0
 10 22  1  0  0  0  0
 10 17  1  0  0  0  0
 11 20  2  0  0  0  0
 12  8  1  0  0  0  0
 13  9  2  0  0  0  0
 13 20  1  0  0  0  0
 14  2  1  0  0  0  0
 15  4  1  0  0  0  0
 15 12  1  1  0  0  0
 16  8  1  0  0  0  0
 17 28  1  6  0  0  0
 17 25  1  0  0  0  0
 18 20  1  6  0  0  0
 18  1  1  0  0  0  0
 18  4  1  0  0  0  0
 19  6  1  6  0  0  0
 19  3  1  0  0  0  0
 22 24  1  0  0  0  0
 23 21  1  0  0  0  0
 24 13  1  0  0  0  0
 25 14  1  1  0  0  0
 25  9  1  0  0  0  0
 26 21  2  0  0  0  0
 27  1  1  0  0  0  0
 29 28  1  0  0  0  0
 30 34  1  0  0  0  0
 31 33  1  0  0  0  0
 31 32  1  0  0  0  0
 32 34  1  0  0  0  0
 32 29  1  0  0  0  0
 33 30  1  0  0  0  0
M  END
>  <MODEL>
1

>  <REMARK>
 VINA RESULT:      -8.2      0.000      0.000
  Name = 
  3 active torsions:
  status: ('A' for Active; 'I' for Inactive)
    1  A    between atoms: C_17  and  O_28
    2  A    between atoms: O_28  and  C_29
    3  A    between atoms: C_29  and  N_32
                            x       y       z     vdW  Elec       q    Type
                         _______ _______ _______ _____ _____    ______ ____

>  <TORSDO>
F 3

$$$$
=
 OpenBabel11122414353D

 34 41  0  0  1  0  0  0  0  0999 V2000
  161.3840  207.2510  153.4070 C   0  0  1  0  0  3  0  0  0  0  0  0
  160.9820  205.5290  151.5330 C   0  0  0  0  0  2  0  0  0  0  0  0
  159.2110  212.9000  155.3520 C   0  0  1  0  0  3  0  0  0  0  0  0
  161.1400  209.2360  155.0290 C   0  0  0  0  0  0  0  0  0  0  0  0
  160.8240  211.6000  154.1340 C   0  0  2  0  0  3  0  0  0  0  0  0
  158.6810  212.8510  153.4350 C   0  0  0  0  0  2  0  0  0  0  0  0
  158.4610  213.7330  154.5110 O   0  0  0  0  0  0  0  0  0  0  0  0
  159.3090  210.8870  157.2600 S   0  0  0  0  0  0  0  0  0  0  0  0
  160.9590  207.7440  151.0190 C   0  0  0  0  0  0  0  0  0  0  0  0
  162.3640  208.5730  148.3200 C   0  0  0  0  0  2  0  0  0  0  0  0
  161.0830  211.0050  152.8230 N   0  0  0  0  0  0  0  0  0  0  0  0
  161.0450  211.2160  156.7100 C   0  0  0  0  0  2  0  0  0  0  0  0
  161.1000  209.0660  151.2050 C   0  0  0  0  0  0  0  0  0  0  0  0
  160.9000  205.6240  150.1140 O   0  0  0  0  0  0  0  0  0  0  0  0
  161.3790  210.7110  155.2800 C   0  0  1  0  0  3  0  0  0  0  0  0
  158.4800  212.3830  156.5730 C   0  0  0  0  0  2  0  0  0  0  0  0
  162.3690  207.2350  149.0550 C   0  0  1  0  0  3  0  0  0  0  0  0
  161.1720  208.7360  153.6390 C   0  0  1  0  0  3  0  0  0  0  0  0
  159.3350  211.8240  154.3220 C   0  0  2  0  0  3  0  0  0  0  0  0
  161.1220  209.5890  152.5950 C   0  0  0  0  0  0  0  0  0  0  0  0
  160.6550  206.9330  155.7490 C   0  0  0  0  0  3  0  0  0  0  0  0
  162.5170  209.7510  149.2760 C   0  0  0  0  0  2  0  0  0  0  0  0
  160.9250  208.3610  156.0240 C   0  0  0  0  0  3  0  0  0  0  0  0
  161.2260  210.0040  150.0420 C   0  0  0  0  0  2  0  0  0  0  0  0
  161.0230  206.9910  149.7530 C   0  0  2  0  0  3  0  0  0  0  0  0
  160.8110  206.4210  154.5230 C   0  0  0  0  0  3  0  0  0  0  0  0
  160.8710  206.8590  152.0970 N   0  0  0  0  0  0  0  0  0  0  0  0
  162.6310  206.2200  148.1310 O   0  0  0  0  0  0  0  0  0  0  0  0
  161.9580  206.6100  146.9700 C   0  0  0  0  0  2  0  0  0  0  0  0
  161.1090  204.7370  144.3970 C   0  0  0  0  0  2  0  0  0  0  0  0
  161.5730  204.3110  146.6850 C   0  0  0  0  0  2  0  0  0  0  0  0
  160.9400  205.6260  146.6350 N   0  0  0  0  0  0  0  0  0  0  0  0
  161.3190  203.6130  145.3700 C   0  0  0  0  0  2  0  0  0  0  0  0
  160.5630  205.8650  145.2440 C   0  0  0  0  0  2  0  0  0  0  0  0
  1 18  1  0  0  0  0
  1 26  1  1  0  0  0
  2 27  1  0  0  0  0
  3 16  1  1  0  0  0
  4 15  1  0  0  0  0
  4 23  2  0  0  0  0
  5 11  1  6  0  0  0
  5 19  1  0  0  0  0
  5 15  1  0  0  0  0
  6  7  1  0  0  0  0
  7  3  1  0  0  0  0
  9 13  2  0  0  0  0
  9 27  1  0  0  0  0
 10 17  1  0  0  0  0
 10 22  1  0  0  0  0
 12  8  1  0  0  0  0
 13 20  1  0  0  0  0
 14  2  1  0  0  0  0
 15 12  1  1  0  0  0
 16  8  1  0  0  0  0
 17 28  1  6  0  0  0
 17 25  1  0  0  0  0
 18 20  1  6  0  0  0
 18  4  1  0  0  0  0
 19  6  1  6  0  0  0
 19  3  1  0  0  0  0
 20 11  2  0  0  0  0
 21 23  1  0  0  0  0
 22 24  1  0  0  0  0
 24 13  1  0  0  0  0
 25 14  1  1  0  0  0
 25  9  1  0  0  0  0
 26 21  2  0  0  0  0
 27  1  1  0  0  0  0
 29 28  1  0  0  0  0
 30 34  1  0  0  0  0
 30 33  1  0  0  0  0
 32 31  1  0  0  0  0
 32 29  1  0  0  0  0
 33 31  1  0  0  0  0
 34 32  1  0  0  0  0
M  END
>  <MODEL>
2

>  <REMARK>
 VINA RESULT:      -7.4      1.414      1.925
  Name = 
  3 active torsions:
  status: ('A' for Active; 'I' for Inactive)
    1  A    between atoms: C_17  and  O_28
    2  A    between atoms: O_28  and  C_29
    3  A    between atoms: C_29  and  N_32
                            x       y       z     vdW  Elec       q    Type
                         _______ _______ _______ _____ _____    ______ ____

>  <TORSDO>
F 3

$$$$
=
 OpenBabel11122414353D

 34 41  0  0  1  0  0  0  0  0999 V2000
  161.1880  209.2940  150.2200 C   0  0  1  0  0  3  0  0  0  0  0  0
  162.4770  208.3110  148.2170 C   0  0  0  0  0  2  0  0  0  0  0  0
  161.0930  208.9510  156.5670 C   0  0  1  0  0  3  0  0  0  0  0  0
  160.4740  209.9900  152.5940 C   0  0  0  0  0  0  0  0  0  0  0  0
  160.2420  208.2440  154.4340 C   0  0  2  0  0  3  0  0  0  0  0  0
  162.0040  207.2630  156.0410 C   0  0  0  0  0  2  0  0  0  0  0  0
  161.7150  207.9050  157.2610 O   0  0  0  0  0  0  0  0  0  0  0  0
  161.2070  211.4960  155.4660 S   0  0  0  0  0  0  0  0  0  0  0  0
  161.9380  206.9500  149.9570 C   0  0  0  0  0  0  0  0  0  0  0  0
  160.9490  204.0490  149.2160 C   0  0  0  0  0  2  0  0  0  0  0  0
  160.4570  207.2690  153.3650 N   0  0  0  0  0  2  0  0  0  0  0  0
  159.6100  210.7310  154.9300 C   0  0  0  0  0  2  0  0  0  0  0  0
  161.3680  206.5750  151.1140 C   0  0  0  0  0  0  0  0  0  0  0  0
  162.8240  206.9850  147.8290 O   0  0  0  0  0  0  0  0  0  0  0  0
  159.7540  209.6060  153.8700 C   0  0  1  0  0  3  0  0  0  0  0  0
  161.6710  210.3280  156.8150 C   0  0  0  0  0  2  0  0  0  0  0  0
  161.1950  205.2580  148.3170 C   0  0  1  0  0  3  0  0  0  0  0  0
  160.8880  208.9220  151.6610 C   0  0  0  0  0  0  0  0  0  0  0  0
  161.5190  208.4380  155.2300 C   0  0  2  0  0  3  0  0  0  0  0  0
  160.8970  207.6300  152.0470 C   0  0  0  0  0  0  0  0  0  0  0  0
  161.4690  211.6130  151.0330 C   0  0  0  0  0  3  0  0  0  0  0  0
  160.2500  204.4320  150.5150 C   0  0  0  0  0  2  0  0  0  0  0  0
  160.7280  211.2670  152.2670 C   0  0  0  0  0  3  0  0  0  0  0  0
  161.2120  205.1270  151.4680 C   0  0  0  0  0  2  0  0  0  0  0  0
  162.3720  206.0940  148.8380 C   0  0  2  0  0  3  0  0  0  0  0  0
  161.7370  210.6900  150.1030 C   0  0  0  0  0  3  0  0  0  0  0  0
  162.0600  208.2970  149.6050 N   0  0  0  0  0  0  0  0  0  0  0  0
  161.4520  204.8050  147.0210 O   0  0  0  0  0  0  0  0  0  0  0  0
  161.5690  203.4180  147.1420 C   0  0  0  0  0  2  0  0  0  0  0  0
  159.4670  201.6940  145.2820 C   0  0  0  0  0  2  0  0  0  0  0  0
  160.7450  203.6670  144.9570 C   0  0  0  0  0  2  0  0  0  0  0  0
  161.5420  202.8030  145.8240 N   0  0  0  0  0  0  0  0  0  0  0  0
  159.6630  202.8280  144.3190 C   0  0  0  0  0  2  0  0  0  0  0  0
  160.8120  201.5450  145.9600 C   0  0  0  0  0  2  0  0  0  0  0  0
  1 26  1  1  0  0  0
  1 18  1  0  0  0  0
  2 27  1  0  0  0  0
  3 16  1  1  0  0  0
  3  7  1  0  0  0  0
  4 15  1  0  0  0  0
  5 11  1  6  0  0  0
  5 19  1  0  0  0  0
  6  7  1  0  0  0  0
  8 16  1  0  0  0  0
  9 13  2  0  0  0  0
 10 22  1  0  0  0  0
 12  8  1  0  0  0  0
 13 24  1  0  0  0  0
 13 20  1  0  0  0  0
 14  2  1  0  0  0  0
 15  5  1  0  0  0  0
 15 12  1  1  0  0  0
 17 28  1  6  0  0  0
 17 25  1  0  0  0  0
 17 10  1  0  0  0  0
 18 20  2  0  0  0  0
 18  4  1  0  0  0  0
 19  6  1  1  0  0  0
 19  3  1  0  0  0  0
 20 11  1  0  0  0  0
 21 23  1  0  0  0  0
 22 24  1  0  0  0  0
 23  4  2  0  0  0  0
 25 14  1  6  0  0  0
 25  9  1  0  0  0  0
 26 21  2  0  0  0  0
 27  9  1  0  0  0  0
 27  1  1  0  0  0  0
 28 29  1  0  0  0  0
 30 34  1  0  0  0  0
 31 32  1  0  0  0  0
 32 34  1  0  0  0  0
 32 29  1  0  0  0  0
 33 31  1  0  0  0  0
 33 30  1  0  0  0  0
M  END
>  <MODEL>
3

>  <REMARK>
 VINA RESULT:      -5.6      1.933      3.596
  Name = 
  3 active torsions:
  status: ('A' for Active; 'I' for Inactive)
    1  A    between atoms: C_17  and  O_28
    2  A    between atoms: O_28  and  C_29
    3  A    between atoms: C_29  and  N_32
                            x       y       z     vdW  Elec       q    Type
                         _______ _______ _______ _____ _____    ______ ____

>  <TORSDO>
F 3

$$$$
=
 OpenBabel11122414353D

 34 41  0  0  1  0  0  0  0  0999 V2000
  161.5940  210.3750  151.1090 C   0  0  1  0  0  3  0  0  0  0  0  0
  160.2530  212.0380  152.5500 C   0  0  0  0  0  2  0  0  0  0  0  0
  161.2590  204.3690  149.0550 C   0  0  1  0  0  3  0  0  0  0  0  0
  162.2950  208.3390  149.6980 C   0  0  0  0  0  0  0  0  0  0  0  0
  162.0740  205.9820  150.6390 C   0  0  2  0  0  3  0  0  0  0  0  0
  160.0650  204.3650  150.6460 C   0  0  0  0  0  2  0  0  0  0  0  0
  160.4040  203.4300  149.6490 O   0  0  0  0  0  0  0  0  0  0  0  0
  161.7090  206.3130  147.1270 S   0  0  0  0  0  0  0  0  0  0  0  0
  160.4140  209.8730  153.2270 C   0  0  0  0  0  0  0  0  0  0  0  0
  160.8540  209.3950  156.3120 C   0  0  0  0  0  2  0  0  0  0  0  0
  161.7320  206.6490  151.8950 N   0  0  0  0  0  2  0  0  0  0  0  0
  163.1530  206.3340  148.2840 C   0  0  0  0  0  2  0  0  0  0  0  0
  160.8320  208.5970  153.2270 C   0  0  0  0  0  0  0  0  0  0  0  0
  159.6750  211.9660  153.8500 O   0  0  0  0  0  0  0  0  0  0  0  0
  162.8510  206.9300  149.6870 C   0  0  1  0  0  3  0  0  0  0  0  0
  160.9490  204.7050  147.6120 C   0  0  0  0  0  2  0  0  0  0  0  0
  160.9020  210.6900  155.5070 C   0  0  1  0  0  3  0  0  0  0  0  0
  161.7330  208.8710  150.9570 C   0  0  0  0  0  0  0  0  0  0  0  0
  160.8170  205.4750  149.9570 C   0  0  2  0  0  3  0  0  0  0  0  0
  161.4480  208.0520  151.9900 C   0  0  0  0  0  0  0  0  0  0  0  0
  161.7280  210.4890  148.6420 C   0  0  0  0  0  3  0  0  0  0  0  0
  161.5400  208.2430  155.5880 C   0  0  0  0  0  2  0  0  0  0  0  0
  162.3150  209.1310  148.6150 C   0  0  0  0  0  3  0  0  0  0  0  0
  160.6800  207.7310  154.4400 C   0  0  0  0  0  2  0  0  0  0  0  0
  159.8840  210.6570  154.3580 C   0  0  2  0  0  3  0  0  0  0  0  0
  161.3370  211.0530  149.7910 C   0  0  0  0  0  3  0  0  0  0  0  0
  160.5790  210.6970  152.1100 N   0  0  0  0  0  0  0  0  0  0  0  0
  160.6350  211.7600  156.3650 O   0  0  0  0  0  0  0  0  0  0  0  0
  159.3910  211.4660  156.9280 C   0  0  0  0  0  2  0  0  0  0  0  0
  158.9340  214.4530  155.6190 C   0  0  0  0  0  2  0  0  0  0  0  0
  157.4910  212.7550  156.4360 C   0  0  0  0  0  2  0  0  0  0  0  0
  158.6950  212.6990  157.2610 N   0  0  0  0  0  0  0  0  0  0  0  0
  157.4840  214.0740  155.6980 C   0  0  0  0  0  2  0  0  0  0  0  0
  159.5570  213.7980  156.8330 C   0  0  0  0  0  2  0  0  0  0  0  0
  1 26  1  6  0  0  0
  1 27  1  0  0  0  0
  2 14  1  0  0  0  0
  3 16  1  6  0  0  0
  3  7  1  0  0  0  0
  3 19  1  0  0  0  0
  4 18  1  0  0  0  0
  5 11  1  1  0  0  0
  7  6  1  0  0  0  0
  8 16  1  0  0  0  0
  8 12  1  0  0  0  0
 11 20  1  0  0  0  0
 13  9  2  0  0  0  0
 13 24  1  0  0  0  0
 14 25  1  0  0  0  0
 15 12  1  6  0  0  0
 15  4  1  0  0  0  0
 15  5  1  0  0  0  0
 17 10  1  0  0  0  0
 17 28  1  1  0  0  0
 18  1  1  0  0  0  0
 18 20  2  0  0  0  0
 19  5  1  0  0  0  0
 19  6  1  1  0  0  0
 20 13  1  0  0  0  0
 21 26  2  0  0  0  0
 22 10  1  0  0  0  0
 23 21  1  0  0  0  0
 23  4  2  0  0  0  0
 24 22  1  0  0  0  0
 25  9  1  6  0  0  0
 25 17  1  0  0  0  0
 27  2  1  0  0  0  0
 27  9  1  0  0  0  0
 28 29  1  0  0  0  0
 29 32  1  0  0  0  0
 30 33  1  0  0  0  0
 30 34  1  0  0  0  0
 31 32  1  0  0  0  0
 33 31  1  0  0  0  0
 34 32  1  0  0  0  0
M  END
>  <MODEL>
4

>  <REMARK>
 VINA RESULT:      -5.4      2.708      9.200
  Name = 
  3 active torsions:
  status: ('A' for Active; 'I' for Inactive)
    1  A    between atoms: C_17  and  O_28
    2  A    between atoms: O_28  and  C_29
    3  A    between atoms: C_29  and  N_32
                            x       y       z     vdW  Elec       q    Type
                         _______ _______ _______ _____ _____    ______ ____

>  <TORSDO>
F 3

$$$$
=
 OpenBabel11122414353D

 34 41  0  0  1  0  0  0  0  0999 V2000
  160.3990  211.8680  150.0890 C   0  0  1  0  0  3  0  0  0  0  0  0
  162.0920  211.1740  148.2750 C   0  0  0  0  0  2  0  0  0  0  0  0
  159.9110  212.1320  156.4210 C   0  0  1  0  0  3  0  0  0  0  0  0
  159.3110  212.5180  152.3300 C   0  0  0  0  0  0  0  0  0  0  0  0
  159.5060  210.9810  154.3510 C   0  0  2  0  0  3  0  0  0  0  0  0
  161.3560  210.7940  156.1390 C   0  0  0  0  0  2  0  0  0  0  0  0
  160.7790  211.4210  157.2600 O   0  0  0  0  0  0  0  0  0  0  0  0
  159.2880  214.4530  155.0340 S   0  0  0  0  0  0  0  0  0  0  0  0
  161.8820  209.8870  150.1370 C   0  0  0  0  0  0  0  0  0  0  0  0
  161.9420  206.7650  149.7010 C   0  0  0  0  0  2  0  0  0  0  0  0
  160.1090  210.0310  153.4150 N   0  0  0  0  0  2  0  0  0  0  0  0
  158.0700  213.1580  154.5220 C   0  0  0  0  0  2  0  0  0  0  0  0
  161.3730  209.4600  151.3040 C   0  0  0  0  0  0  0  0  0  0  0  0
  162.8770  210.0040  148.0610 O   0  0  0  0  0  0  0  0  0  0  0  0
  158.6530  212.0440  153.6100 C   0  0  1  0  0  3  0  0  0  0  0  0
  159.9940  213.6390  156.5300 C   0  0  0  0  0  2  0  0  0  0  0  0
  161.8570  207.8940  148.6780 C   0  0  1  0  0  3  0  0  0  0  0  0
  160.1200  211.5600  151.5490 C   0  0  0  0  0  0  0  0  0  0  0  0
  160.5850  211.6590  155.1740 C   0  0  2  0  0  3  0  0  0  0  0  0
  160.5140  210.3860  152.0850 C   0  0  0  0  0  0  0  0  0  0  0  0
  159.8530  214.2180  150.6340 C   0  0  0  0  0  3  0  0  0  0  0  0
  161.0550  207.0210  150.9130 C   0  0  0  0  0  2  0  0  0  0  0  0
  159.1660  213.7690  151.8660 C   0  0  0  0  0  3  0  0  0  0  0  0
  161.6630  208.0830  151.8200 C   0  0  0  0  0  2  0  0  0  0  0  0
  162.6570  209.1170  149.1470 C   0  0  2  0  0  3  0  0  0  0  0  0
  160.4770  213.3490  149.8320 C   0  0  0  0  0  3  0  0  0  0  0  0
  161.5920  211.1590  149.6340 N   0  0  0  0  0  0  0  0  0  0  0  0
  162.3490  207.4270  147.4560 O   0  0  0  0  0  0  0  0  0  0  0  0
  161.6540  206.2370  147.2210 C   0  0  0  0  0  2  0  0  0  0  0  0
  161.2060  203.4750  145.4840 C   0  0  0  0  0  2  0  0  0  0  0  0
  160.7910  205.7770  145.0860 C   0  0  0  0  0  2  0  0  0  0  0  0
  161.9970  205.7170  145.9070 N   0  0  0  0  0  0  0  0  0  0  0  0
  160.5400  204.4030  144.5110 C   0  0  0  0  0  2  0  0  0  0  0  0
  162.3210  204.3030  146.0840 C   0  0  0  0  0  2  0  0  0  0  0  0
  1 26  1  1  0  0  0
  1 18  1  0  0  0  0
  2 27  1  0  0  0  0
  3 16  1  1  0  0  0
  3  7  1  0  0  0  0
  4 15  1  0  0  0  0
  5 11  1  6  0  0  0
  5 19  1  0  0  0  0
  6  7  1  0  0  0  0
  8 16  1  0  0  0  0
  9 13  2  0  0  0  0
 10 22  1  0  0  0  0
 12  8  1  0  0  0  0
 13 24  1  0  0  0  0
 13 20  1  0  0  0  0
 14  2  1  0  0  0  0
 15  5  1  0  0  0  0
 15 12  1  1  0  0  0
 17 28  1  6  0  0  0
 17 25  1  0  0  0  0
 17 10  1  0  0  0  0
 18 20  2  0  0  0  0
 18  4  1  0  0  0  0
 19  6  1  1  0  0  0
 19  3  1  0  0  0  0
 20 11  1  0  0  0  0
 21 23  1  0  0  0  0
 22 24  1  0  0  0  0
 23  4  2  0  0  0  0
 25 14  1  6  0  0  0
 25  9  1  0  0  0  0
 26 21  2  0  0  0  0
 27  1  1  0  0  0  0
 27  9  1  0  0  0  0
 29 28  1  0  0  0  0
 30 34  1  0  0  0  0
 31 32  1  0  0  0  0
 32 34  1  0  0  0  0
 32 29  1  0  0  0  0
 33 31  1  0  0  0  0
 33 30  1  0  0  0  0
M  END
>  <MODEL>
5

>  <REMARK>
 VINA RESULT:      -5.3      2.364      4.368
  Name = 
  3 active torsions:
  status: ('A' for Active; 'I' for Inactive)
    1  A    between atoms: C_17  and  O_28
    2  A    between atoms: O_28  and  C_29
    3  A    between atoms: C_29  and  N_32
                            x       y       z     vdW  Elec       q    Type
                         _______ _______ _______ _____ _____    ______ ____

>  <TORSDO>
F 3

$$$$
