=
 OpenBabel11122414253D

 34 41  0  0  1  0  0  0  0  0999 V2000
  161.1920  207.3050  154.6550 C   0  0  1  0  0  3  0  0  0  0  0  0
  161.1640  205.2120  153.1640 C   0  0  0  0  0  3  0  0  0  0  0  0
  158.3350  211.9450  154.6050 C   0  0  0  0  0  0  0  0  0  0  0  0
  160.5860  209.6040  155.5780 C   0  0  0  0  0  0  0  0  0  0  0  0
  160.7960  211.6520  154.1610 C   0  0  2  0  0  3  0  0  0  0  0  0
  158.7370  211.4090  152.7060 C   0  0  0  0  0  2  0  0  0  0  0  0
  157.6100  211.2690  153.5580 O   0  0  0  0  0  0  0  0  0  0  0  0
  159.2640  212.7680  156.6180 C   0  0  0  0  0  2  0  0  0  0  0  0
  161.5630  207.2220  152.1850 C   0  0  0  0  0  0  0  0  0  0  0  0
  160.8910  207.7390  149.3520 C   0  0  0  0  0  2  0  0  0  0  0  0
  161.4070  210.7820  153.1950 O   0  0  0  0  0  0  0  0  0  0  0  0
  160.4990  211.8500  156.7000 C   0  0  0  0  0  2  0  0  0  0  0  0
  161.7410  208.5570  152.1020 C   0  0  0  0  0  0  0  0  0  0  0  0
  161.5640  204.9320  151.9250 C   0  0  0  0  0  3  0  0  0  0  0  0
  160.6990  211.0300  155.4960 N   0  0  0  0  0  0  0  0  0  0  0  0
  158.1740  212.1500  155.8710 N   0  0  0  0  0  0  0  0  0  0  0  0
  160.9340  206.3180  149.9340 C   0  0  2  0  0  3  0  0  0  0  0  0
  161.0410  208.7920  154.4480 C   0  0  0  0  0  0  0  0  0  0  0  0
  159.4460  212.2230  153.6510 C   0  0  1  0  0  3  0  0  0  0  0  0
  161.3910  209.3810  153.2900 C   0  0  0  0  0  0  0  0  0  0  0  0
  159.7120  207.6140  156.6070 C   0  0  0  0  0  3  0  0  0  0  0  0
  162.2110  208.4780  149.5440 C   0  0  0  0  0  2  0  0  0  0  0  0
  159.9770  209.0300  156.5780 N   0  0  0  0  0  0  0  0  0  0  0  0
  162.2330  209.2680  150.8570 C   0  0  0  0  0  2  0  0  0  0  0  0
  161.8620  206.1890  151.1520 C   0  0  1  0  0  3  0  0  0  0  0  0
  160.2200  206.7900  155.6810 C   0  0  0  0  0  3  0  0  0  0  0  0
  161.0940  206.6150  153.3750 N   0  0  0  0  0  0  0  0  0  0  0  0
  161.3400  205.4220  148.9430 O   0  0  0  0  0  0  0  0  0  0  0  0
  160.6990  205.8600  147.7750 C   0  0  0  0  0  2  0  0  0  0  0  0
  161.2830  203.5560  145.3100 C   0  0  0  0  0  2  0  0  0  0  0  0
  160.7060  205.8590  145.3930 C   0  0  0  0  0  2  0  0  0  0  0  0
  161.5070  205.5930  146.5840 N   0  0  0  0  0  0  0  0  0  0  0  0
  160.9340  204.7220  144.4280 C   0  0  0  0  0  2  0  0  0  0  0  0
  161.8770  204.1790  146.5560 C   0  0  0  0  0  2  0  0  0  0  0  0
  1 26  1  1  0  0  0
  2 27  1  0  0  0  0
  3 16  2  0  0  0  0
  4 23  2  0  0  0  0
  5 11  1  6  0  0  0
  5 15  1  0  0  0  0
  6  7  1  0  0  0  0
  7  3  1  0  0  0  0
  8 12  1  0  0  0  0
  9 27  1  0  0  0  0
 10 22  1  0  0  0  0
 10 17  1  0  0  0  0
 11 20  1  0  0  0  0
 13  9  2  0  0  0  0
 13 20  1  0  0  0  0
 14  2  2  0  0  0  0
 15  4  1  0  0  0  0
 15 12  1  0  0  0  0
 16  8  1  0  0  0  0
 17 28  1  6  0  0  0
 17 25  1  0  0  0  0
 18  1  1  0  0  0  0
 18  4  1  0  0  0  0
 19  6  1  6  0  0  0
 19  5  1  0  0  0  0
 19  3  1  0  0  0  0
 20 18  2  0  0  0  0
 22 24  1  0  0  0  0
 23 21  1  0  0  0  0
 24 13  1  0  0  0  0
 25 14  1  1  0  0  0
 25  9  1  0  0  0  0
 26 21  2  0  0  0  0
 27  1  1  0  0  0  0
 29 28  1  0  0  0  0
 30 34  1  0  0  0  0
 31 32  1  0  0  0  0
 32 29  1  0  0  0  0
 33 30  1  0  0  0  0
 33 31  1  0  0  0  0
 34 32  1  0  0  0  0
M  END
>  <MODEL>
1

>  <REMARK>
 VINA RESULT:      -9.7      0.000      0.000
  Name = 
  3 active torsions:
  status: ('A' for Active; 'I' for Inactive)
    1  A    between atoms: C_17  and  O_28
    2  A    between atoms: O_28  and  C_29
    3  A    between atoms: C_29  and  N_32
                            x       y       z     vdW  Elec       q    Type
                         _______ _______ _______ _____ _____    ______ ____

>  <TORSDO>
F 3

$$$$
=
 OpenBabel11122414253D

 34 41  0  0  1  0  0  0  0  0999 V2000
  161.2840  207.5820  154.7710 C   0  0  1  0  0  3  0  0  0  0  0  0
  161.4620  205.5280  153.2370 C   0  0  0  0  0  3  0  0  0  0  0  0
  158.0250  211.9500  154.7720 C   0  0  0  0  0  0  0  0  0  0  0  0
  160.4630  209.7980  155.7310 C   0  0  0  0  0  0  0  0  0  0  0  0
  160.5070  211.8870  154.3580 C   0  0  2  0  0  3  0  0  0  0  0  0
  158.4980  211.4930  152.8690 C   0  0  0  0  0  2  0  0  0  0  0  0
  157.3770  211.2340  153.7010 O   0  0  0  0  0  0  0  0  0  0  0  0
  158.8500  212.8080  156.8150 C   0  0  0  0  0  2  0  0  0  0  0  0
  161.6930  207.5850  152.3050 C   0  0  0  0  0  0  0  0  0  0  0  0
  161.0150  208.1010  149.4730 C   0  0  0  0  0  2  0  0  0  0  0  0
  161.2060  211.0950  153.3850 O   0  0  0  0  0  0  0  0  0  0  0  0
  160.1620  212.0030  156.8960 C   0  0  0  0  0  2  0  0  0  0  0  0
  161.7530  208.9320  152.2520 C   0  0  0  0  0  0  0  0  0  0  0  0
  161.9020  205.3110  151.9990 C   0  0  0  0  0  3  0  0  0  0  0  0
  160.4500  211.2290  155.6790 N   0  0  0  0  0  0  0  0  0  0  0  0
  157.8300  212.1120  156.0390 N   0  0  0  0  0  0  0  0  0  0  0  0
  161.1770  206.6770  150.0280 C   0  0  2  0  0  3  0  0  0  0  0  0
  161.0030  209.0540  154.5920 C   0  0  0  0  0  0  0  0  0  0  0  0
  159.1190  212.3460  153.8400 C   0  0  1  0  0  3  0  0  0  0  0  0
  161.3150  209.6960  153.4510 C   0  0  0  0  0  0  0  0  0  0  0  0
  159.7560  207.7160  156.7060 C   0  0  0  0  0  3  0  0  0  0  0  0
  162.2610  208.9510  149.7000 C   0  0  0  0  0  2  0  0  0  0  0  0
  159.8940  209.1510  156.7090 N   0  0  0  0  0  0  0  0  0  0  0  0
  162.1950  209.7110  151.0290 C   0  0  0  0  0  2  0  0  0  0  0  0
  162.0960  206.6060  151.2570 C   0  0  1  0  0  3  0  0  0  0  0  0
  160.3480  206.9600  155.7710 C   0  0  0  0  0  3  0  0  0  0  0  0
  161.2640  206.9130  153.4750 N   0  0  0  0  0  0  0  0  0  0  0  0
  161.6740  205.8430  149.0240 O   0  0  0  0  0  0  0  0  0  0  0  0
  160.7340  204.8090  148.9140 C   0  0  0  0  0  2  0  0  0  0  0  0
  160.0570  201.4820  149.3630 C   0  0  0  0  0  2  0  0  0  0  0  0
  161.2900  202.7790  147.7990 C   0  0  0  0  0  2  0  0  0  0  0  0
  161.3570  203.4940  149.0700 N   0  0  0  0  0  0  0  0  0  0  0  0
  160.8580  201.3640  148.0960 C   0  0  0  0  0  2  0  0  0  0  0  0
  160.6060  202.7140  150.0520 C   0  0  0  0  0  2  0  0  0  0  0  0
  1 26  1  1  0  0  0
  2 27  1  0  0  0  0
  3 16  2  0  0  0  0
  4 23  2  0  0  0  0
  5 11  1  6  0  0  0
  5 15  1  0  0  0  0
  6  7  1  0  0  0  0
  7  3  1  0  0  0  0
  8 12  1  0  0  0  0
  9 27  1  0  0  0  0
 10 22  1  0  0  0  0
 10 17  1  0  0  0  0
 11 20  1  0  0  0  0
 13  9  2  0  0  0  0
 13 20  1  0  0  0  0
 14  2  2  0  0  0  0
 15  4  1  0  0  0  0
 15 12  1  0  0  0  0
 16  8  1  0  0  0  0
 17 28  1  6  0  0  0
 17 25  1  0  0  0  0
 18  1  1  0  0  0  0
 18  4  1  0  0  0  0
 19  6  1  6  0  0  0
 19  5  1  0  0  0  0
 19  3  1  0  0  0  0
 20 18  2  0  0  0  0
 21 23  1  0  0  0  0
 22 24  1  0  0  0  0
 24 13  1  0  0  0  0
 25 14  1  1  0  0  0
 25  9  1  0  0  0  0
 26 21  2  0  0  0  0
 27  1  1  0  0  0  0
 29 28  1  0  0  0  0
 29 32  1  0  0  0  0
 30 34  1  0  0  0  0
 31 33  1  0  0  0  0
 31 32  1  0  0  0  0
 32 34  1  0  0  0  0
 33 30  1  0  0  0  0
M  END
>  <MODEL>
2

>  <REMARK>
 VINA RESULT:      -9.3      1.332      1.679
  Name = 
  3 active torsions:
  status: ('A' for Active; 'I' for Inactive)
    1  A    between atoms: C_17  and  O_28
    2  A    between atoms: O_28  and  C_29
    3  A    between atoms: C_29  and  N_32
                            x       y       z     vdW  Elec       q    Type
                         _______ _______ _______ _____ _____    ______ ____

>  <TORSDO>
F 3

$$$$
