=
 OpenBabel11122413343D

 37 43  0  0  1  0  0  0  0  0999 V2000
  161.7710  210.6360  154.4700 C   0  0  0  0  0  2  0  0  0  0  0  0
  161.1750  207.1330  150.4290 C   0  0  1  0  0  0  0  0  0  0  0  0
  161.2440  211.1690  151.2740 C   0  0  1  0  0  3  0  0  0  0  0  0
  162.4890  210.3740  155.7960 C   0  0  2  0  0  3  0  0  0  0  0  0
  158.6270  211.9600  153.8510 O   0  0  0  0  0  0  0  0  0  0  0  0
  162.0060  209.3160  149.6890 C   0  0  0  0  0  0  0  0  0  0  0  0
  159.9940  210.9570  152.1030 C   0  0  2  0  0  3  0  0  0  0  0  0
  160.3820  211.1670  157.0940 C   0  0  2  0  0  3  0  0  0  0  0  0
  161.8660  209.7880  151.1240 C   0  0  2  0  0  3  0  0  0  0  0  0
  159.6970  212.1880  152.9790 C   0  0  1  0  0  3  0  0  0  0  0  0
  162.3480  210.2870  148.5900 C   0  0  0  0  0  2  0  0  0  0  0  0
  161.5620  210.1870  157.0080 C   0  0  0  0  0  2  0  0  0  0  0  0
  161.0460  208.8440  152.0220 C   0  0  2  0  0  3  0  0  0  0  0  0
  162.3250  206.4460  151.1630 C   0  0  0  0  0  1  0  0  0  0  0  0
  160.4180  213.2860  150.0550 C   0  0  0  0  0  2  0  0  0  0  0  0
  162.1210  211.7440  149.0090 C   0  0  0  0  0  2  0  0  0  0  0  0
  160.3250  207.8480  151.3120 O   0  0  0  0  0  0  0  0  0  0  0  0
  159.3120  211.0180  155.9830 C   0  0  1  0  0  3  0  0  0  0  0  0
  159.1480  212.2700  155.1110 C   0  0  0  0  0  2  0  0  0  0  0  0
  160.9130  211.8420  149.9340 C   0  0  1  0  0  3  0  0  0  0  0  0
  160.1150  209.6560  152.8040 N   0  0  1  0  0  0  0  0  0  0  0  0
  161.6930  208.0590  149.3690 C   0  0  0  0  0  3  0  0  0  0  0  0
  159.4730  213.4770  152.1660 C   0  0  1  0  0  3  0  0  0  0  0  0
  160.4290  206.1500  149.8070 F   0  0  0  0  0  0  0  0  0  0  0  0
  159.4340  209.7090  155.1850 C   0  0  0  0  0  2  0  0  0  0  0  0
  160.8310  212.4830  157.2480 O   0  0  0  0  0  1  0  0  0  0  0  0
  160.6080  209.6640  154.1940 C   0  0  2  0  0  3  0  0  0  0  0  0
  160.5750  213.8300  151.3470 O   0  0  0  0  0  0  0  0  0  0  0  0
  157.0240  213.9660  152.4270 C   0  0  0  0  0  3  0  0  0  0  0  0
  158.0970  213.6830  151.5750 C   0  0  0  0  0  0  0  0  0  0  0  0
  157.8830  213.6240  150.1890 C   0  0  0  0  0  3  0  0  0  0  0  0
  156.3840  213.7690  148.1980 C   0  0  0  0  0  1  0  0  0  0  0  0
  155.5350  214.1120  150.5220 C   0  0  0  0  0  3  0  0  0  0  0  0
  156.6050  213.8350  149.6660 C   0  0  0  0  0  0  0  0  0  0  0  0
  155.7450  214.1780  151.9030 C   0  0  0  0  0  3  0  0  0  0  0  0
  164.1740  211.0750  157.2590 C   0  0  0  0  0  1  0  0  0  0  0  0
  163.4400  211.4400  156.0590 N   0  0  0  0  0  2  0  0  0  0  0  0
  1  4  1  0  0  0  0
  2 14  1  1  0  0  0
  2 17  1  0  0  0  0
  3  7  1  0  0  0  0
  4 37  1  0  0  0  0
  4 12  1  0  0  0  0
  5 19  1  0  0  0  0
  6  9  1  0  0  0  0
  7 21  1  0  0  0  0
  7 10  1  0  0  0  0
  8 26  1  0  0  0  0
  9  3  1  0  0  0  0
  9 13  1  0  0  0  0
 10  5  1  0  0  0  0
 11 16  1  0  0  0  0
 11  6  1  0  0  0  0
 12  8  1  0  0  0  0
 13 21  1  0  0  0  0
 15 28  1  0  0  0  0
 16 20  1  0  0  0  0
 17 13  1  0  0  0  0
 18  8  1  0  0  0  0
 19 18  1  0  0  0  0
 20 15  1  0  0  0  0
 20  3  1  0  0  0  0
 21 27  1  0  0  0  0
 22  6  2  0  0  0  0
 22  2  1  0  0  0  0
 23 10  1  0  0  0  0
 24  2  1  0  0  0  0
 25 18  1  0  0  0  0
 27  1  1  0  0  0  0
 27 25  1  0  0  0  0
 28 23  1  0  0  0  0
 30 23  1  0  0  0  0
 30 29  2  0  0  0  0
 31 30  1  0  0  0  0
 32 34  1  0  0  0  0
 33 35  2  0  0  0  0
 34 31  2  0  0  0  0
 34 33  1  0  0  0  0
 35 29  1  0  0  0  0
 37 36  1  0  0  0  0
M  END
>  <MODEL>
1

>  <REMARK>
 VINA RESULT:      -5.9      0.000      0.000
  Name = 
  2 active torsions:
  status: ('A' for Active; 'I' for Inactive)
    1  A    between atoms: C_4  and  N_37
    2  A    between atoms: C_23  and  C_30
                            x       y       z     vdW  Elec       q    Type
                         _______ _______ _______ _____ _____    ______ ____

>  <TORSDO>
F 2

$$$$
