=
 OpenBabel11122413003D

 32 37  0  0  1  0  0  0  0  0999 V2000
  161.2390  207.1470  152.5460 C   0  0  0  0  0  0  0  0  0  0  0  0
  162.1720  210.7860  149.3340 C   0  0  0  0  0  3  0  0  0  0  0  0
  162.1700  209.8700  148.2840 C   0  0  0  0  0  3  0  0  0  0  0  0
  161.0010  204.7610  151.6230 C   0  0  0  0  0  0  0  0  0  0  0  0
  161.0200  203.9400  150.5030 C   0  0  0  0  0  0  0  0  0  0  0  0
  161.0390  207.7240  154.8800 N   0  0  0  0  0  0  0  0  0  0  0  0
  161.4790  209.5020  153.3410 C   0  0  0  0  0  3  0  0  0  0  0  0
  161.2150  203.4580  148.3680 N   0  0  0  0  0  0  0  0  0  0  0  0
  161.9440  210.3500  150.6400 C   0  0  0  0  0  3  0  0  0  0  0  0
  161.4760  208.5450  152.2640 N   0  0  0  0  0  0  0  0  0  0  0  0
  161.7110  208.9900  150.9130 C   0  0  0  0  0  0  0  0  0  0  0  0
  161.4670  206.6310  150.1000 C   0  0  0  0  0  0  0  0  0  0  0  0
  160.9680  202.3180  149.0030 N   0  0  0  0  0  0  0  0  0  0  0  0
  161.2510  209.1200  154.6000 C   0  0  0  0  0  0  0  0  0  0  0  0
  160.8400  202.5770  150.3330 C   0  0  0  0  0  3  0  0  0  0  0  0
  161.9400  208.5180  148.5390 C   0  0  0  0  0  3  0  0  0  0  0  0
  161.7100  208.0670  149.8480 C   0  0  0  0  0  0  0  0  0  0  0  0
  161.4700  205.7590  149.0430 N   0  0  0  0  0  2  0  0  0  0  0  0
  161.0320  206.7680  153.8120 C   0  0  0  0  0  3  0  0  0  0  0  0
  160.7850  204.2640  152.7610 O   0  0  0  0  0  0  0  0  0  0  0  0
  161.4110  203.5730  146.9330 C   0  0  0  0  0  1  0  0  0  0  0  0
  161.2320  206.1560  151.4290 C   0  0  0  0  0  0  0  0  0  0  0  0
  161.2480  204.4440  149.2680 C   0  0  0  0  0  0  0  0  0  0  0  0
  161.1560  211.4390  155.1720 O   0  0  0  0  0  0  0  0  0  0  0  0
  161.3060  210.1400  155.7020 C   0  0  1  0  0  3  0  0  0  0  0  0
  160.0240  210.8790  155.7900 C   0  0  1  0  0  3  0  0  0  0  0  0
  159.8700  211.4800  157.1740 C   0  0  0  0  0  2  0  0  0  0  0  0
  158.6830  212.3760  157.2110 C   0  0  0  0  0  0  0  0  0  0  0  0
  158.8330  213.6240  157.1630 O   0  0  0  0  0  0  0  0  0  0  0  0
  157.4060  211.8330  157.2600 O   0  0  0  0  0  1  0  0  0  0  0  0
  159.3600  206.9470  156.4700 C   0  0  0  0  0  1  0  0  0  0  0  0
  160.8310  207.2440  156.2410 C   0  0  0  0  0  2  0  0  0  0  0  0
  1 19  2  0  0  0  0
  2  9  1  0  0  0  0
  3 16  1  0  0  0  0
  3  2  2  0  0  0  0
  4 20  2  0  0  0  0
  5  4  1  0  0  0  0
  6 32  1  0  0  0  0
  7 14  2  0  0  0  0
  8 13  1  0  0  0  0
  8 23  1  0  0  0  0
  9 11  2  0  0  0  0
 10  1  1  0  0  0  0
 10  7  1  0  0  0  0
 11 10  1  0  0  0  0
 12 22  2  0  0  0  0
 13 15  2  0  0  0  0
 14  6  1  0  0  0  0
 15  5  1  0  0  0  0
 16 17  2  0  0  0  0
 17 12  1  0  0  0  0
 17 11  1  0  0  0  0
 18 23  1  0  0  0  0
 18 12  1  0  0  0  0
 19  6  1  0  0  0  0
 21  8  1  0  0  0  0
 22  4  1  0  0  0  0
 22  1  1  0  0  0  0
 23  5  2  0  0  0  0
 24 25  1  0  0  0  0
 24 26  1  0  0  0  0
 25 14  1  6  0  0  0
 25 26  1  0  0  0  0
 26 27  1  1  0  0  0
 27 28  1  0  0  0  0
 28 30  1  0  0  0  0
 29 28  2  0  0  0  0
 32 31  1  0  0  0  0
M  END
>  <MODEL>
1

>  <REMARK>
 VINA RESULT:      -8.6      0.000      0.000
  Name = 
  4 active torsions:
  status: ('A' for Active; 'I' for Inactive)
    1  A    between atoms: N_7  and  C_19
    2  A    between atoms: C_10  and  C_17
    3  A    between atoms: C_20  and  C_29
    4  A    between atoms: C_29  and  C_30
                            x       y       z     vdW  Elec       q    Type
                         _______ _______ _______ _____ _____    ______ ____

>  <TORSDO>
F 4

$$$$
=
 OpenBabel11122413003D

 32 37  0  0  1  0  0  0  0  0999 V2000
  161.6070  207.2350  149.6470 C   0  0  0  0  0  0  0  0  0  0  0  0
  160.9150  203.7660  153.1010 C   0  0  0  0  0  3  0  0  0  0  0  0
  160.7810  202.7950  152.1090 C   0  0  0  0  0  3  0  0  0  0  0  0
  161.5650  206.5040  147.1840 C   0  0  0  0  0  0  0  0  0  0  0  0
  161.4180  205.4570  146.2850 C   0  0  0  0  0  0  0  0  0  0  0  0
  161.9590  209.5060  150.3820 N   0  0  0  0  0  0  0  0  0  0  0  0
  161.6380  207.8400  152.0700 C   0  0  0  0  0  3  0  0  0  0  0  0
  161.0880  203.3760  145.6590 N   0  0  0  0  0  0  0  0  0  0  0  0
  161.1510  205.0960  152.7470 C   0  0  0  0  0  3  0  0  0  0  0  0
  161.5010  206.8470  151.0360 N   0  0  0  0  0  0  0  0  0  0  0  0
  161.2570  205.4720  151.3960 C   0  0  0  0  0  0  0  0  0  0  0  0
  161.2280  204.8480  148.9670 C   0  0  0  0  0  0  0  0  0  0  0  0
  161.2450  204.0940  144.5530 N   0  0  0  0  0  0  0  0  0  0  0  0
  161.8780  209.1180  151.7670 C   0  0  0  0  0  0  0  0  0  0  0  0
  161.4530  205.3930  144.9020 C   0  0  0  0  0  3  0  0  0  0  0  0
  160.8840  203.1540  150.7650 C   0  0  0  0  0  3  0  0  0  0  0  0
  161.1220  204.4870  150.3960 C   0  0  0  0  0  0  0  0  0  0  0  0
  161.0950  203.8670  148.0200 N   0  0  0  0  0  2  0  0  0  0  0  0
  161.8250  208.5210  149.3490 C   0  0  0  0  0  3  0  0  0  0  0  0
  161.7760  207.6720  146.7590 O   0  0  0  0  0  0  0  0  0  0  0  0
  160.8470  201.9430  145.6810 C   0  0  0  0  0  1  0  0  0  0  0  0
  161.4690  206.2030  148.5770 C   0  0  0  0  0  0  0  0  0  0  0  0
  161.1910  204.1930  146.7110 C   0  0  0  0  0  0  0  0  0  0  0  0
  160.7040  210.7070  153.1120 O   0  0  0  0  0  0  0  0  0  0  0  0
  161.9700  210.1340  152.8700 C   0  0  1  0  0  3  0  0  0  0  0  0
  161.1330  209.7270  154.0230 C   0  0  1  0  0  3  0  0  0  0  0  0
  161.6270  210.4070  155.2840 C   0  0  0  0  0  2  0  0  0  0  0  0
  162.0720  209.3880  156.2720 C   0  0  0  0  0  0  0  0  0  0  0  0
  162.8120  209.7230  157.2330 O   0  0  0  0  0  1  0  0  0  0  0  0
  161.6410  208.0730  156.1550 O   0  0  0  0  0  0  0  0  0  0  0  0
  162.0640  211.0340  148.4840 C   0  0  0  0  0  1  0  0  0  0  0  0
  162.1730  210.8940  149.9920 C   0  0  0  0  0  2  0  0  0  0  0  0
  1 10  1  0  0  0  0
  3  2  2  0  0  0  0
  4 22  1  0  0  0  0
  5 23  2  0  0  0  0
  5  4  1  0  0  0  0
  6 14  1  0  0  0  0
  8 21  1  0  0  0  0
  8 23  1  0  0  0  0
  9  2  1  0  0  0  0
 10 11  1  0  0  0  0
 10  7  1  0  0  0  0
 11  9  2  0  0  0  0
 12 17  1  0  0  0  0
 13 15  2  0  0  0  0
 13  8  1  0  0  0  0
 14  7  2  0  0  0  0
 15  5  1  0  0  0  0
 16  3  1  0  0  0  0
 17 16  2  0  0  0  0
 17 11  1  0  0  0  0
 18 12  1  0  0  0  0
 19  1  2  0  0  0  0
 19  6  1  0  0  0  0
 20  4  2  0  0  0  0
 22 12  2  0  0  0  0
 22  1  1  0  0  0  0
 23 18  1  0  0  0  0
 24 26  1  0  0  0  0
 25 14  1  6  0  0  0
 25 24  1  0  0  0  0
 25 26  1  0  0  0  0
 26 27  1  1  0  0  0
 27 28  1  0  0  0  0
 28 29  1  0  0  0  0
 30 28  2  0  0  0  0
 31 32  1  0  0  0  0
 32  6  1  0  0  0  0
M  END
>  <MODEL>
2

>  <REMARK>
 VINA RESULT:      -8.4      2.365      4.817
  Name = 
  4 active torsions:
  status: ('A' for Active; 'I' for Inactive)
    1  A    between atoms: N_7  and  C_19
    2  A    between atoms: C_10  and  C_17
    3  A    between atoms: C_20  and  C_29
    4  A    between atoms: C_29  and  C_30
                            x       y       z     vdW  Elec       q    Type
                         _______ _______ _______ _____ _____    ______ ____

>  <TORSDO>
F 4

$$$$
=
 OpenBabel11122413003D

 32 37  0  0  1  0  0  0  0  0999 V2000
  161.6150  207.2410  149.6280 C   0  0  0  0  0  0  0  0  0  0  0  0
  160.9180  203.8470  153.1540 C   0  0  0  0  0  3  0  0  0  0  0  0
  160.7830  202.8560  152.1830 C   0  0  0  0  0  3  0  0  0  0  0  0
  161.5720  206.4590  147.1820 C   0  0  0  0  0  0  0  0  0  0  0  0
  161.4230  205.3930  146.3040 C   0  0  0  0  0  0  0  0  0  0  0  0
  161.9700  209.5270  150.3150 N   0  0  0  0  0  0  0  0  0  0  0  0
  161.6470  207.8980  152.0380 C   0  0  0  0  0  3  0  0  0  0  0  0
  161.0910  203.3000  145.7220 N   0  0  0  0  0  0  0  0  0  0  0  0
  161.1560  205.1690  152.7720 C   0  0  0  0  0  3  0  0  0  0  0  0
  161.5080  206.8830  151.0250 N   0  0  0  0  0  0  0  0  0  0  0  0
  161.2620  205.5170  151.4140 C   0  0  0  0  0  0  0  0  0  0  0  0
  161.2320  204.8410  148.9990 C   0  0  0  0  0  0  0  0  0  0  0  0
  161.2480  203.9950  144.6020 N   0  0  0  0  0  0  0  0  0  0  0  0
  161.8880  209.1690  151.7080 C   0  0  0  0  0  0  0  0  0  0  0  0
  161.4580  205.3010  144.9230 C   0  0  0  0  0  3  0  0  0  0  0  0
  160.8860  203.1860  150.8320 C   0  0  0  0  0  3  0  0  0  0  0  0
  161.1250  204.5110  150.4360 C   0  0  0  0  0  0  0  0  0  0  0  0
  161.0970  203.8410  148.0730 N   0  0  0  0  0  2  0  0  0  0  0  0
  161.8350  208.5200  149.3040 C   0  0  0  0  0  3  0  0  0  0  0  0
  161.7850  207.6170  146.7310 O   0  0  0  0  0  0  0  0  0  0  0  0
  160.8470  201.8690  145.7750 C   0  0  0  0  0  1  0  0  0  0  0  0
  161.4750  206.1880  148.5800 C   0  0  0  0  0  0  0  0  0  0  0  0
  161.1950  204.1390  146.7570 C   0  0  0  0  0  0  0  0  0  0  0  0
  160.7650  210.9130  152.8940 O   0  0  0  0  0  0  0  0  0  0  0  0
  161.9830  210.2080  152.7890 C   0  0  1  0  0  3  0  0  0  0  0  0
  161.0040  209.9270  153.8660 C   0  0  1  0  0  3  0  0  0  0  0  0
  161.4460  210.5970  155.1520 C   0  0  0  0  0  2  0  0  0  0  0  0
  160.2820  211.2460  155.8140 C   0  0  0  0  0  0  0  0  0  0  0  0
  159.2740  210.5620  156.1310 O   0  0  0  0  0  1  0  0  0  0  0  0
  160.3230  212.6000  156.1170 O   0  0  0  0  0  0  0  0  0  0  0  0
  162.0340  211.0230  148.3900 C   0  0  0  0  0  1  0  0  0  0  0  0
  162.1860  210.9060  149.8960 C   0  0  0  0  0  2  0  0  0  0  0  0
  1 10  1  0  0  0  0
  3  2  2  0  0  0  0
  4 22  1  0  0  0  0
  5 23  2  0  0  0  0
  5  4  1  0  0  0  0
  6 14  1  0  0  0  0
  8 21  1  0  0  0  0
  8 23  1  0  0  0  0
  9  2  1  0  0  0  0
 10 11  1  0  0  0  0
 10  7  1  0  0  0  0
 11  9  2  0  0  0  0
 12 17  1  0  0  0  0
 13 15  2  0  0  0  0
 13  8  1  0  0  0  0
 14  7  2  0  0  0  0
 15  5  1  0  0  0  0
 16  3  1  0  0  0  0
 17 16  2  0  0  0  0
 17 11  1  0  0  0  0
 18 12  1  0  0  0  0
 19  1  2  0  0  0  0
 19  6  1  0  0  0  0
 20  4  2  0  0  0  0
 22 12  2  0  0  0  0
 22  1  1  0  0  0  0
 23 18  1  0  0  0  0
 24 26  1  0  0  0  0
 25 14  1  6  0  0  0
 25 24  1  0  0  0  0
 25 26  1  0  0  0  0
 26 27  1  1  0  0  0
 27 28  1  0  0  0  0
 28 30  2  0  0  0  0
 28 29  1  0  0  0  0
 31 32  1  0  0  0  0
 32  6  1  0  0  0  0
M  END
>  <MODEL>
3

>  <REMARK>
 VINA RESULT:      -8.2      2.094      4.621
  Name = 
  4 active torsions:
  status: ('A' for Active; 'I' for Inactive)
    1  A    between atoms: N_7  and  C_19
    2  A    between atoms: C_10  and  C_17
    3  A    between atoms: C_20  and  C_29
    4  A    between atoms: C_29  and  C_30
                            x       y       z     vdW  Elec       q    Type
                         _______ _______ _______ _____ _____    ______ ____

>  <TORSDO>
F 4

$$$$
=
 OpenBabel11122413003D

 32 37  0  0  1  0  0  0  0  0999 V2000
  161.1540  206.6170  151.2660 C   0  0  0  0  0  0  0  0  0  0  0  0
  162.0920  210.5900  148.4780 C   0  0  0  0  0  3  0  0  0  0  0  0
  162.1710  211.3830  149.6210 C   0  0  0  0  0  3  0  0  0  0  0  0
  161.0580  206.9320  153.8140 C   0  0  0  0  0  0  0  0  0  0  0  0
  161.1610  207.8150  154.8800 C   0  0  0  0  0  0  0  0  0  0  0  0
  160.8120  204.5070  150.1470 N   0  0  0  0  0  0  0  0  0  0  0  0
  161.2770  206.4150  148.7800 C   0  0  0  0  0  3  0  0  0  0  0  0
  161.4730  209.7580  155.8590 N   0  0  0  0  0  0  0  0  0  0  0  0
  161.8240  209.2250  148.5930 C   0  0  0  0  0  3  0  0  0  0  0  0
  161.3550  207.2240  149.9690 N   0  0  0  0  0  0  0  0  0  0  0  0
  161.6310  208.6340  149.8550 C   0  0  0  0  0  0  0  0  0  0  0  0
  161.5160  208.8520  152.3510 C   0  0  0  0  0  0  0  0  0  0  0  0
  161.2440  208.8710  156.8200 N   0  0  0  0  0  0  0  0  0  0  0  0
  161.0360  205.1040  148.8550 C   0  0  0  0  0  0  0  0  0  0  0  0
  161.0450  207.6510  156.2510 C   0  0  0  0  0  3  0  0  0  0  0  0
  161.9820  210.8110  150.8800 C   0  0  0  0  0  3  0  0  0  0  0  0
  161.7120  209.4400  151.0090 C   0  0  0  0  0  0  0  0  0  0  0  0
  161.6030  209.6610  153.4530 N   0  0  0  0  0  2  0  0  0  0  0  0
  160.8910  205.3070  151.3340 C   0  0  0  0  0  3  0  0  0  0  0  0
  160.8120  205.7150  154.0280 O   0  0  0  0  0  0  0  0  0  0  0  0
  161.7300  211.1700  156.0870 C   0  0  0  0  0  1  0  0  0  0  0  0
  161.2390  207.4560  152.4980 C   0  0  0  0  0  0  0  0  0  0  0  0
  161.4250  209.1270  154.6830 C   0  0  0  0  0  0  0  0  0  0  0  0
  162.1840  204.1550  146.9860 O   0  0  0  0  0  0  0  0  0  0  0  0
  160.9170  204.3000  147.5910 C   0  0  1  0  0  3  0  0  0  0  0  0
  161.6980  203.0450  147.6990 C   0  0  1  0  0  3  0  0  0  0  0  0
  161.1660  202.0210  146.7160 C   0  0  0  0  0  2  0  0  0  0  0  0
  161.3440  200.6490  147.2620 C   0  0  0  0  0  0  0  0  0  0  0  0
  161.3950  200.4670  148.5060 O   0  0  0  0  0  1  0  0  0  0  0  0
  161.4170  199.5630  146.4000 O   0  0  0  0  0  0  0  0  0  0  0  0
  161.2410  202.5070  151.4750 C   0  0  0  0  0  1  0  0  0  0  0  0
  160.5000  203.0900  150.2860 C   0  0  0  0  0  2  0  0  0  0  0  0
  1 19  2  0  0  0  0
  1 22  1  0  0  0  0
  2  9  2  0  0  0  0
  2  3  1  0  0  0  0
  3 16  2  0  0  0  0
  4 20  2  0  0  0  0
  4  5  1  0  0  0  0
  5 15  1  0  0  0  0
  6 32  1  0  0  0  0
  6 19  1  0  0  0  0
  7 14  2  0  0  0  0
  7 10  1  0  0  0  0
  8 21  1  0  0  0  0
  8 13  1  0  0  0  0
  9 11  1  0  0  0  0
 10  1  1  0  0  0  0
 11 10  1  0  0  0  0
 11 17  2  0  0  0  0
 12 22  2  0  0  0  0
 12 18  1  0  0  0  0
 14  6  1  0  0  0  0
 15 13  2  0  0  0  0
 16 17  1  0  0  0  0
 17 12  1  0  0  0  0
 18 23  1  0  0  0  0
 22  4  1  0  0  0  0
 23  5  2  0  0  0  0
 23  8  1  0  0  0  0
 24 25  1  0  0  0  0
 24 26  1  0  0  0  0
 25 26  1  0  0  0  0
 25 14  1  1  0  0  0
 26 27  1  6  0  0  0
 27 28  1  0  0  0  0
 28 29  1  0  0  0  0
 30 28  2  0  0  0  0
 32 31  1  0  0  0  0
M  END
>  <MODEL>
4

>  <REMARK>
 VINA RESULT:      -8.1      2.674      8.176
  Name = 
  4 active torsions:
  status: ('A' for Active; 'I' for Inactive)
    1  A    between atoms: N_7  and  C_19
    2  A    between atoms: C_10  and  C_17
    3  A    between atoms: C_20  and  C_29
    4  A    between atoms: C_29  and  C_30
                            x       y       z     vdW  Elec       q    Type
                         _______ _______ _______ _____ _____    ______ ____

>  <TORSDO>
F 4

$$$$
=
 OpenBabel11122413003D

 32 37  0  0  1  0  0  0  0  0999 V2000
  161.3970  206.4710  151.2260 C   0  0  0  0  0  0  0  0  0  0  0  0
  162.1330  210.6170  148.6360 C   0  0  0  0  0  3  0  0  0  0  0  0
  161.9560  211.3780  149.7900 C   0  0  0  0  0  3  0  0  0  0  0  0
  160.9330  206.6930  153.7430 C   0  0  0  0  0  0  0  0  0  0  0  0
  160.7770  207.5480  154.8250 C   0  0  0  0  0  0  0  0  0  0  0  0
  161.4940  204.3690  150.0450 N   0  0  0  0  0  0  0  0  0  0  0  0
  161.8640  206.3630  148.7750 C   0  0  0  0  0  3  0  0  0  0  0  0
  160.6930  209.4850  155.8610 N   0  0  0  0  0  0  0  0  0  0  0  0
  162.0420  209.2250  148.6980 C   0  0  0  0  0  3  0  0  0  0  0  0
  161.6780  207.1380  149.9740 N   0  0  0  0  0  0  0  0  0  0  0  0
  161.7710  208.5760  149.9160 C   0  0  0  0  0  0  0  0  0  0  0  0
  161.3080  208.7000  152.3780 C   0  0  0  0  0  0  0  0  0  0  0  0
  160.4650  208.5460  156.7730 N   0  0  0  0  0  0  0  0  0  0  0  0
  161.7970  205.0300  148.8020 C   0  0  0  0  0  0  0  0  0  0  0  0
  160.5100  207.3280  156.1670 C   0  0  0  0  0  3  0  0  0  0  0  0
  161.6870  210.7480  151.0060 C   0  0  0  0  0  3  0  0  0  0  0  0
  161.5930  209.3500  151.0810 C   0  0  0  0  0  0  0  0  0  0  0  0
  161.1430  209.4790  153.4920 N   0  0  0  0  0  2  0  0  0  0  0  0
  161.3090  205.1360  151.2420 C   0  0  0  0  0  3  0  0  0  0  0  0
  160.8310  205.4470  153.9080 O   0  0  0  0  0  0  0  0  0  0  0  0
  160.7230  210.9110  156.1390 C   0  0  0  0  0  1  0  0  0  0  0  0
  161.2080  207.2750  152.4690 C   0  0  0  0  0  0  0  0  0  0  0  0
  160.8820  208.8890  154.6810 C   0  0  0  0  0  0  0  0  0  0  0  0
  160.8910  203.3390  147.3760 O   0  0  0  0  0  0  0  0  0  0  0  0
  161.9530  204.2560  147.5230 C   0  0  1  0  0  3  0  0  0  0  0  0
  160.8100  204.5180  146.6160 C   0  0  1  0  0  3  0  0  0  0  0  0
  161.2070  204.2100  145.1860 C   0  0  0  0  0  2  0  0  0  0  0  0
  161.1070  205.4400  144.3530 C   0  0  0  0  0  0  0  0  0  0  0  0
  161.5810  205.4530  143.1880 O   0  0  0  0  0  0  0  0  0  0  0  0
  160.4560  206.5620  144.8490 O   0  0  0  0  0  1  0  0  0  0  0  0
  161.2070  202.4880  151.5710 C   0  0  0  0  0  1  0  0  0  0  0  0
  161.3620  202.9200  150.1240 C   0  0  0  0  0  2  0  0  0  0  0  0
  1 19  2  0  0  0  0
  1 22  1  0  0  0  0
  2  9  2  0  0  0  0
  2  3  1  0  0  0  0
  3 16  2  0  0  0  0
  4 20  2  0  0  0  0
  4  5  1  0  0  0  0
  5 15  1  0  0  0  0
  6 32  1  0  0  0  0
  6 19  1  0  0  0  0
  7 14  2  0  0  0  0
  7 10  1  0  0  0  0
  8 21  1  0  0  0  0
  8 13  1  0  0  0  0
  9 11  1  0  0  0  0
 10  1  1  0  0  0  0
 11 10  1  0  0  0  0
 11 17  2  0  0  0  0
 12 22  2  0  0  0  0
 12 18  1  0  0  0  0
 14  6  1  0  0  0  0
 15 13  2  0  0  0  0
 16 17  1  0  0  0  0
 17 12  1  0  0  0  0
 18 23  1  0  0  0  0
 22  4  1  0  0  0  0
 23  5  2  0  0  0  0
 23  8  1  0  0  0  0
 24 25  1  0  0  0  0
 25 14  1  1  0  0  0
 26 27  1  6  0  0  0
 26 24  1  0  0  0  0
 26 25  1  0  0  0  0
 28 30  1  0  0  0  0
 28 27  1  0  0  0  0
 29 28  2  0  0  0  0
 32 31  1  0  0  0  0
M  END
>  <MODEL>
5

>  <REMARK>
 VINA RESULT:      -7.6      2.737      7.949
  Name = 
  4 active torsions:
  status: ('A' for Active; 'I' for Inactive)
    1  A    between atoms: N_7  and  C_19
    2  A    between atoms: C_10  and  C_17
    3  A    between atoms: C_20  and  C_29
    4  A    between atoms: C_29  and  C_30
                            x       y       z     vdW  Elec       q    Type
                         _______ _______ _______ _____ _____    ______ ____

>  <TORSDO>
F 4

$$$$
=
 OpenBabel11122413003D

 32 37  0  0  1  0  0  0  0  0999 V2000
  160.8420  210.1430  151.9080 C   0  0  0  0  0  0  0  0  0  0  0  0
  160.8490  206.2560  154.9620 C   0  0  0  0  0  3  0  0  0  0  0  0
  160.2720  207.0340  155.9650 C   0  0  0  0  0  3  0  0  0  0  0  0
  159.8950  212.3620  152.7890 C   0  0  0  0  0  0  0  0  0  0  0  0
  159.3210  213.0390  153.8570 C   0  0  0  0  0  0  0  0  0  0  0  0
  161.7310  209.8350  149.6860 N   0  0  0  0  0  0  0  0  0  0  0  0
  161.7330  207.9380  151.1450 C   0  0  0  0  0  3  0  0  0  0  0  0
  158.5240  213.2770  155.8920 N   0  0  0  0  0  0  0  0  0  0  0  0
  161.1330  206.8220  153.7180 C   0  0  0  0  0  3  0  0  0  0  0  0
  161.1370  208.7520  152.1720 N   0  0  0  0  0  0  0  0  0  0  0  0
  160.8420  208.1730  153.4590 C   0  0  0  0  0  0  0  0  0  0  0  0
  159.9400  210.3800  154.2380 C   0  0  0  0  0  0  0  0  0  0  0  0
  158.4060  214.4530  155.2880 N   0  0  0  0  0  0  0  0  0  0  0  0
  162.0040  208.4440  149.9390 C   0  0  0  0  0  0  0  0  0  0  0  0
  158.8900  214.3450  154.0200 C   0  0  0  0  0  3  0  0  0  0  0  0
  159.9780  208.3760  155.7230 C   0  0  0  0  0  3  0  0  0  0  0  0
  160.2590  208.9560  154.4760 C   0  0  0  0  0  0  0  0  0  0  0  0
  159.3700  211.1130  155.2460 N   0  0  0  0  0  2  0  0  0  0  0  0
  161.1360  210.6490  150.7050 C   0  0  0  0  0  3  0  0  0  0  0  0
  160.1090  212.9680  151.7050 O   0  0  0  0  0  0  0  0  0  0  0  0
  158.1120  213.0090  157.2590 C   0  0  0  0  0  1  0  0  0  0  0  0
  160.2210  210.9840  152.9730 C   0  0  0  0  0  0  0  0  0  0  0  0
  159.0770  212.4160  155.0330 C   0  0  0  0  0  0  0  0  0  0  0  0
  162.3360  206.2220  149.1230 O   0  0  0  0  0  0  0  0  0  0  0  0
  162.6660  207.5760  148.9060 C   0  0  1  0  0  3  0  0  0  0  0  0
  161.6490  206.8760  148.0870 C   0  0  1  0  0  3  0  0  0  0  0  0
  162.2510  206.4640  146.7580 C   0  0  0  0  0  2  0  0  0  0  0  0
  161.2600  205.6850  145.9690 C   0  0  0  0  0  0  0  0  0  0  0  0
  160.3350  206.2770  145.3560 O   0  0  0  0  0  0  0  0  0  0  0  0
  161.3780  204.3040  145.8780 O   0  0  0  0  0  1  0  0  0  0  0  0
  161.9560  211.9630  148.5150 C   0  0  0  0  0  1  0  0  0  0  0  0
  162.0490  210.4520  148.4040 C   0  0  0  0  0  2  0  0  0  0  0  0
  1 10  1  0  0  0  0
  1 22  1  0  0  0  0
  2  3  1  0  0  0  0
  4 22  1  0  0  0  0
  4  5  1  0  0  0  0
  5 15  1  0  0  0  0
  5 23  2  0  0  0  0
  6 14  1  0  0  0  0
  6 19  1  0  0  0  0
  7 10  1  0  0  0  0
  8 21  1  0  0  0  0
  9  2  2  0  0  0  0
 10 11  1  0  0  0  0
 11  9  1  0  0  0  0
 11 17  2  0  0  0  0
 12 17  1  0  0  0  0
 12 18  1  0  0  0  0
 13  8  1  0  0  0  0
 14  7  2  0  0  0  0
 15 13  2  0  0  0  0
 16  3  2  0  0  0  0
 17 16  1  0  0  0  0
 19  1  2  0  0  0  0
 20  4  2  0  0  0  0
 22 12  2  0  0  0  0
 23 18  1  0  0  0  0
 23  8  1  0  0  0  0
 25 24  1  0  0  0  0
 25 14  1  1  0  0  0
 26 27  1  6  0  0  0
 26 25  1  0  0  0  0
 26 24  1  0  0  0  0
 28 27  1  0  0  0  0
 29 28  2  0  0  0  0
 30 28  1  0  0  0  0
 32 31  1  0  0  0  0
 32  6  1  0  0  0  0
M  END
>  <MODEL>
6

>  <REMARK>
 VINA RESULT:      -6.4      3.225      9.007
  Name = 
  4 active torsions:
  status: ('A' for Active; 'I' for Inactive)
    1  A    between atoms: N_7  and  C_19
    2  A    between atoms: C_10  and  C_17
    3  A    between atoms: C_20  and  C_29
    4  A    between atoms: C_29  and  C_30
                            x       y       z     vdW  Elec       q    Type
                         _______ _______ _______ _____ _____    ______ ____

>  <TORSDO>
F 4

$$$$
=
 OpenBabel11122413003D

 32 37  0  0  1  0  0  0  0  0999 V2000
  160.6990  208.8760  152.2470 C   0  0  0  0  0  0  0  0  0  0  0  0
  160.6150  206.6520  156.6610 C   0  0  0  0  0  3  0  0  0  0  0  0
  160.1910  207.8380  157.2580 C   0  0  0  0  0  3  0  0  0  0  0  0
  160.0240  211.3530  152.1360 C   0  0  0  0  0  0  0  0  0  0  0  0
  159.6000  212.4740  152.8350 C   0  0  0  0  0  0  0  0  0  0  0  0
  161.3740  207.5680  150.3350 N   0  0  0  0  0  0  0  0  0  0  0  0
  161.3280  206.4690  152.4600 C   0  0  0  0  0  3  0  0  0  0  0  0
  158.9960  213.6310  154.6040 N   0  0  0  0  0  0  0  0  0  0  0  0
  160.8440  206.6080  155.2840 C   0  0  0  0  0  3  0  0  0  0  0  0
  160.8920  207.7000  153.0660 N   0  0  0  0  0  0  0  0  0  0  0  0
  160.6530  207.7510  154.4870 C   0  0  0  0  0  0  0  0  0  0  0  0
  160.0140  210.1680  154.2870 C   0  0  0  0  0  0  0  0  0  0  0  0
  158.9320  214.4520  153.5630 N   0  0  0  0  0  0  0  0  0  0  0  0
  161.5440  206.3890  151.1450 C   0  0  0  0  0  0  0  0  0  0  0  0
  159.3000  213.7690  152.4440 C   0  0  0  0  0  3  0  0  0  0  0  0
  159.9970  208.9790  156.4800 C   0  0  0  0  0  3  0  0  0  0  0  0
  160.2250  208.9480  155.0960 C   0  0  0  0  0  0  0  0  0  0  0  0
  159.5940  211.3150  154.9080 N   0  0  0  0  0  2  0  0  0  0  0  0
  160.9380  208.7960  150.9330 C   0  0  0  0  0  3  0  0  0  0  0  0
  160.2020  211.4210  150.8900 O   0  0  0  0  0  0  0  0  0  0  0  0
  158.6740  214.0090  155.9700 C   0  0  0  0  0  1  0  0  0  0  0  0
  160.2420  210.1510  152.8750 C   0  0  0  0  0  0  0  0  0  0  0  0
  159.3990  212.4330  154.1730 C   0  0  0  0  0  0  0  0  0  0  0  0
  161.6430  204.0110  151.3580 O   0  0  0  0  0  0  0  0  0  0  0  0
  162.0410  205.1000  150.5550 C   0  0  1  0  0  3  0  0  0  0  0  0
  160.9040  204.2260  150.1830 C   0  0  1  0  0  3  0  0  0  0  0  0
  161.3440  203.2260  149.1330 C   0  0  0  0  0  2  0  0  0  0  0  0
  160.6580  201.9230  149.3500 C   0  0  0  0  0  0  0  0  0  0  0  0
  159.6760  201.6000  148.6330 O   0  0  0  0  0  0  0  0  0  0  0  0
  161.1250  201.0470  150.3210 O   0  0  0  0  0  1  0  0  0  0  0  0
  162.2570  208.8690  148.4710 C   0  0  0  0  0  1  0  0  0  0  0  0
  161.6390  207.5510  148.9020 C   0  0  0  0  0  2  0  0  0  0  0  0
  1 22  1  0  0  0  0
  1 10  1  0  0  0  0
  2  3  1  0  0  0  0
  4  5  1  0  0  0  0
  4 22  1  0  0  0  0
  5 23  2  0  0  0  0
  6 19  1  0  0  0  0
  6 14  1  0  0  0  0
  7 10  1  0  0  0  0
  8 21  1  0  0  0  0
  9  2  2  0  0  0  0
 10 11  1  0  0  0  0
 11 17  2  0  0  0  0
 11  9  1  0  0  0  0
 12 18  1  0  0  0  0
 12 17  1  0  0  0  0
 13  8  1  0  0  0  0
 14  7  2  0  0  0  0
 15  5  1  0  0  0  0
 15 13  2  0  0  0  0
 16  3  2  0  0  0  0
 17 16  1  0  0  0  0
 19  1  2  0  0  0  0
 20  4  2  0  0  0  0
 22 12  2  0  0  0  0
 23  8  1  0  0  0  0
 23 18  1  0  0  0  0
 25 14  1  1  0  0  0
 25 24  1  0  0  0  0
 26 27  1  6  0  0  0
 26 25  1  0  0  0  0
 26 24  1  0  0  0  0
 27 28  1  0  0  0  0
 28 30  1  0  0  0  0
 29 28  2  0  0  0  0
 31 32  1  0  0  0  0
 32  6  1  0  0  0  0
M  END
>  <MODEL>
7

>  <REMARK>
 VINA RESULT:      -6.2      2.735      8.761
  Name = 
  4 active torsions:
  status: ('A' for Active; 'I' for Inactive)
    1  A    between atoms: N_7  and  C_19
    2  A    between atoms: C_10  and  C_17
    3  A    between atoms: C_20  and  C_29
    4  A    between atoms: C_29  and  C_30
                            x       y       z     vdW  Elec       q    Type
                         _______ _______ _______ _____ _____    ______ ____

>  <TORSDO>
F 4

$$$$
=
 OpenBabel11122413003D

 32 37  0  0  1  0  0  0  0  0999 V2000
  161.1750  205.8930  151.4500 C   0  0  0  0  0  0  0  0  0  0  0  0
  161.6240  208.6640  147.3810 C   0  0  0  0  0  3  0  0  0  0  0  0
  161.5650  207.5200  146.5870 C   0  0  0  0  0  3  0  0  0  0  0  0
  160.9630  203.3500  151.1540 C   0  0  0  0  0  0  0  0  0  0  0  0
  160.9130  202.2820  150.2680 C   0  0  0  0  0  0  0  0  0  0  0  0
  161.1720  207.0150  153.5860 N   0  0  0  0  0  0  0  0  0  0  0  0
  161.3790  208.3750  151.6290 C   0  0  0  0  0  3  0  0  0  0  0  0
  160.9260  201.3000  148.3010 N   0  0  0  0  0  0  0  0  0  0  0  0
  161.5430  208.5530  148.7700 C   0  0  0  0  0  3  0  0  0  0  0  0
  161.3170  207.1860  150.8190 N   0  0  0  0  0  0  0  0  0  0  0  0
  161.4010  207.2950  149.3840 C   0  0  0  0  0  0  0  0  0  0  0  0
  161.1930  204.8040  149.1880 C   0  0  0  0  0  0  0  0  0  0  0  0
  160.7950  200.3440  149.2130 N   0  0  0  0  0  0  0  0  0  0  0  0
  161.2900  208.3060  152.9590 C   0  0  0  0  0  0  0  0  0  0  0  0
  160.7820  200.9150  150.4480 C   0  0  0  0  0  3  0  0  0  0  0  0
  161.4250  206.2660  147.1810 C   0  0  0  0  0  3  0  0  0  0  0  0
  161.3420  206.1410  148.5760 C   0  0  0  0  0  0  0  0  0  0  0  0
  161.1350  203.7020  148.3760 N   0  0  0  0  0  2  0  0  0  0  0  0
  161.1090  205.8280  152.7850 C   0  0  0  0  0  3  0  0  0  0  0  0
  160.8800  203.1390  152.3940 O   0  0  0  0  0  0  0  0  0  0  0  0
  160.9780  201.0690  146.8680 C   0  0  0  0  0  1  0  0  0  0  0  0
  161.1080  204.6610  150.6090 C   0  0  0  0  0  0  0  0  0  0  0  0
  160.9990  202.4760  148.9310 C   0  0  0  0  0  0  0  0  0  0  0  0
  161.2650  210.6960  152.9430 O   0  0  0  0  0  0  0  0  0  0  0  0
  161.4020  209.5630  153.7740 C   0  0  1  0  0  3  0  0  0  0  0  0
  160.1410  210.3390  153.7070 C   0  0  1  0  0  3  0  0  0  0  0  0
  160.0430  211.2660  154.9020 C   0  0  0  0  0  2  0  0  0  0  0  0
  158.8440  212.1380  154.7740 C   0  0  0  0  0  0  0  0  0  0  0  0
  158.9730  213.3410  154.4250 O   0  0  0  0  0  0  0  0  0  0  0  0
  157.5780  211.6160  155.0030 O   0  0  0  0  0  1  0  0  0  0  0  0
  159.7520  207.2920  155.5490 C   0  0  0  0  0  1  0  0  0  0  0  0
  161.1180  206.8750  155.0360 C   0  0  0  0  0  2  0  0  0  0  0  0
  1 19  2  0  0  0  0
  2  9  1  0  0  0  0
  3 16  1  0  0  0  0
  3  2  2  0  0  0  0
  4 20  2  0  0  0  0
  5 15  1  0  0  0  0
  5  4  1  0  0  0  0
  6 32  1  0  0  0  0
  7 14  2  0  0  0  0
  8 23  1  0  0  0  0
  8 13  1  0  0  0  0
  9 11  2  0  0  0  0
 10  1  1  0  0  0  0
 10  7  1  0  0  0  0
 11 10  1  0  0  0  0
 12 22  2  0  0  0  0
 13 15  2  0  0  0  0
 14  6  1  0  0  0  0
 16 17  2  0  0  0  0
 17 12  1  0  0  0  0
 17 11  1  0  0  0  0
 18 23  1  0  0  0  0
 18 12  1  0  0  0  0
 19  6  1  0  0  0  0
 21  8  1  0  0  0  0
 22  4  1  0  0  0  0
 22  1  1  0  0  0  0
 23  5  2  0  0  0  0
 24 26  1  0  0  0  0
 24 25  1  0  0  0  0
 25 14  1  6  0  0  0
 26 25  1  0  0  0  0
 26 27  1  1  0  0  0
 28 27  1  0  0  0  0
 28 30  1  0  0  0  0
 29 28  2  0  0  0  0
 32 31  1  0  0  0  0
M  END
>  <MODEL>
8

>  <REMARK>
 VINA RESULT:      -5.8      1.566      2.107
  Name = 
  4 active torsions:
  status: ('A' for Active; 'I' for Inactive)
    1  A    between atoms: N_7  and  C_19
    2  A    between atoms: C_10  and  C_17
    3  A    between atoms: C_20  and  C_29
    4  A    between atoms: C_29  and  C_30
                            x       y       z     vdW  Elec       q    Type
                         _______ _______ _______ _____ _____    ______ ____

>  <TORSDO>
F 4

$$$$
=
 OpenBabel11122413003D

 32 37  0  0  1  0  0  0  0  0999 V2000
  161.3220  207.3770  150.6250 C   0  0  0  0  0  0  0  0  0  0  0  0
  160.8240  202.4890  151.1730 C   0  0  0  0  0  3  0  0  0  0  0  0
  160.7550  202.6440  152.5570 C   0  0  0  0  0  3  0  0  0  0  0  0
  161.3260  208.8300  152.7430 C   0  0  0  0  0  0  0  0  0  0  0  0
  161.2430  208.8650  154.1290 C   0  0  0  0  0  0  0  0  0  0  0  0
  161.5490  208.2450  148.3850 N   0  0  0  0  0  0  0  0  0  0  0  0
  161.2970  205.8770  148.6280 C   0  0  0  0  0  3  0  0  0  0  0  0
  161.0380  208.0320  156.1520 N   0  0  0  0  0  0  0  0  0  0  0  0
  160.9790  203.6080  150.3530 C   0  0  0  0  0  3  0  0  0  0  0  0
  161.2280  206.0510  150.0560 N   0  0  0  0  0  0  0  0  0  0  0  0
  161.0680  204.8980  150.9070 C   0  0  0  0  0  0  0  0  0  0  0  0
  161.0850  206.3920  152.9220 C   0  0  0  0  0  0  0  0  0  0  0  0
  161.1540  209.3480  156.2840 N   0  0  0  0  0  0  0  0  0  0  0  0
  161.4320  206.9280  147.8140 C   0  0  0  0  0  0  0  0  0  0  0  0
  161.2830  209.9020  155.0470 C   0  0  0  0  0  3  0  0  0  0  0  0
  160.8410  203.9180  153.1200 C   0  0  0  0  0  3  0  0  0  0  0  0
  160.9970  205.0500  152.3070 C   0  0  0  0  0  0  0  0  0  0  0  0
  161.0110  206.5060  154.2850 N   0  0  0  0  0  2  0  0  0  0  0  0
  161.4790  208.4230  149.8050 C   0  0  0  0  0  3  0  0  0  0  0  0
  161.4660  209.9020  152.0960 O   0  0  0  0  0  0  0  0  0  0  0  0
  160.8820  207.1050  157.2610 C   0  0  0  0  0  1  0  0  0  0  0  0
  161.2460  207.5550  152.1050 C   0  0  0  0  0  0  0  0  0  0  0  0
  161.0910  207.7320  154.8520 C   0  0  0  0  0  0  0  0  0  0  0  0
  162.7610  206.0570  146.0290 O   0  0  0  0  0  0  0  0  0  0  0  0
  161.5450  206.7050  146.3320 C   0  0  1  0  0  3  0  0  0  0  0  0
  161.6070  205.2550  146.0290 C   0  0  1  0  0  3  0  0  0  0  0  0
  161.1760  205.0100  144.5960 C   0  0  0  0  0  2  0  0  0  0  0  0
  160.3870  203.7520  144.5090 C   0  0  0  0  0  0  0  0  0  0  0  0
  160.7810  202.7180  145.1080 O   0  0  0  0  0  1  0  0  0  0  0  0
  159.1960  203.7290  143.7960 O   0  0  0  0  0  0  0  0  0  0  0  0
  161.9480  210.6500  148.4160 C   0  0  0  0  0  1  0  0  0  0  0  0
  161.7440  209.4220  147.5480 C   0  0  0  0  0  2  0  0  0  0  0  0
  1 22  1  0  0  0  0
  2  3  1  0  0  0  0
  3 16  2  0  0  0  0
  4  5  1  0  0  0  0
  5 23  2  0  0  0  0
  5 15  1  0  0  0  0
  6 19  1  0  0  0  0
  7 10  1  0  0  0  0
  8 13  1  0  0  0  0
  8 21  1  0  0  0  0
  9 11  1  0  0  0  0
  9  2  2  0  0  0  0
 10  1  1  0  0  0  0
 10 11  1  0  0  0  0
 11 17  2  0  0  0  0
 12 18  1  0  0  0  0
 14  6  1  0  0  0  0
 14  7  2  0  0  0  0
 15 13  2  0  0  0  0
 17 12  1  0  0  0  0
 17 16  1  0  0  0  0
 18 23  1  0  0  0  0
 19  1  2  0  0  0  0
 20  4  2  0  0  0  0
 22  4  1  0  0  0  0
 22 12  2  0  0  0  0
 23  8  1  0  0  0  0
 24 26  1  0  0  0  0
 24 25  1  0  0  0  0
 25 14  1  1  0  0  0
 26 27  1  6  0  0  0
 26 25  1  0  0  0  0
 28 27  1  0  0  0  0
 28 29  1  0  0  0  0
 30 28  2  0  0  0  0
 32  6  1  0  0  0  0
 32 31  1  0  0  0  0
M  END
>  <MODEL>
9

>  <REMARK>
 VINA RESULT:      -5.8      2.932      8.749
  Name = 
  4 active torsions:
  status: ('A' for Active; 'I' for Inactive)
    1  A    between atoms: N_7  and  C_19
    2  A    between atoms: C_10  and  C_17
    3  A    between atoms: C_20  and  C_29
    4  A    between atoms: C_29  and  C_30
                            x       y       z     vdW  Elec       q    Type
                         _______ _______ _______ _____ _____    ______ ____

>  <TORSDO>
F 4

$$$$
