=
 OpenBabel11122412483D

 32 37  0  0  1  0  0  0  0  0999 V2000
  161.0590  207.3700  152.9510 C   0  0  1  0  0  3  0  0  0  0  0  0
  161.9680  211.2860  149.8940 C   0  0  0  0  0  2  0  0  0  0  0  0
  161.6620  210.3630  148.7320 C   0  0  0  0  0  2  0  0  0  0  0  0
  161.1930  205.0140  152.0840 C   0  0  0  0  0  0  0  0  0  0  0  0
  161.3730  204.3000  150.9760 C   0  0  0  0  0  0  0  0  0  0  0  0
  160.2420  207.8230  155.2020 C   0  0  0  0  0  3  0  0  0  0  0  0
  160.8840  209.7050  153.7910 C   0  0  0  0  0  3  0  0  0  0  0  0
  161.3720  203.9170  148.7390 N   0  0  0  0  0  0  0  0  0  0  0  0
  161.2290  210.7840  151.1260 C   0  0  0  0  0  2  0  0  0  0  0  0
  161.1780  208.7920  152.7160 N   0  0  0  0  0  0  0  0  0  0  0  0
  161.4650  209.3130  151.4010 C   0  0  0  0  0  0  0  0  0  0  0  0
  162.0860  207.0210  150.7150 C   0  0  2  0  0  3  0  0  0  0  0  0
  160.9720  202.6960  149.3310 N   0  0  0  0  0  0  0  0  0  0  0  0
  160.4240  209.2710  154.9690 C   0  0  0  0  0  0  0  0  0  0  0  0
  160.9640  202.9640  150.7250 N   0  0  0  0  0  0  0  0  0  0  0  0
  162.2200  208.9810  149.0410 C   0  0  0  0  0  2  0  0  0  0  0  0
  161.8060  208.4680  150.4020 C   0  0  0  0  0  0  0  0  0  0  0  0
  161.8600  206.1530  149.5440 N   0  0  0  0  0  2  0  0  0  0  0  0
  160.5340  206.9290  154.2580 C   0  0  0  0  0  3  0  0  0  0  0  0
  160.7760  204.3860  153.2530 O   0  0  0  0  0  1  0  0  0  0  0  0
  161.3620  204.1480  147.3060 C   0  0  0  0  0  1  0  0  0  0  0  0
  161.4000  206.4970  151.9820 C   0  0  0  0  0  0  0  0  0  0  0  0
  161.6480  204.8870  149.7240 C   0  0  0  0  0  0  0  0  0  0  0  0
  161.4130  210.7220  156.8540 C   0  0  2  0  0  3  0  0  0  0  0  0
  160.1680  210.2670  156.0700 C   0  0  1  0  0  3  0  0  0  0  0  0
  160.8170  211.6110  155.7830 C   0  0  1  0  0  3  0  0  0  0  0  0
  160.0350  212.6640  156.4110 N   0  0  0  0  0  2  0  0  0  0  0  0
  158.9970  213.3510  155.7140 C   0  0  0  0  0  0  0  0  0  0  0  0
  158.7230  213.0620  154.5180 O   0  0  0  0  0  0  0  0  0  0  0  0
  158.2300  214.4200  156.4050 C   0  0  0  0  0  1  0  0  0  0  0  0
  162.7240  210.1880  156.3620 C   0  0  0  0  0  3  0  0  0  0  0  0
  163.8150  210.9450  156.4150 C   0  0  0  0  0  2  0  0  0  0  0  0
  1 19  1  6  0  0  0
  2  9  1  0  0  0  0
  3 16  1  0  0  0  0
  3  2  1  0  0  0  0
  4 20  1  0  0  0  0
  5  4  1  0  0  0  0
  7 14  2  0  0  0  0
  8 13  1  0  0  0  0
  8 23  1  0  0  0  0
  9 11  1  0  0  0  0
 10  1  1  0  0  0  0
 10  7  1  0  0  0  0
 11 10  1  0  0  0  0
 12 18  1  6  0  0  0
 12 22  1  0  0  0  0
 13 15  2  0  0  0  0
 14  6  1  0  0  0  0
 15  5  1  0  0  0  0
 16 17  1  0  0  0  0
 17 12  1  0  0  0  0
 17 11  2  0  0  0  0
 18 23  1  0  0  0  0
 19  6  2  0  0  0  0
 21  8  1  0  0  0  0
 22  4  2  0  0  0  0
 22  1  1  0  0  0  0
 23  5  2  0  0  0  0
 24 31  1  6  0  0  0
 25 14  1  6  0  0  0
 25 24  1  0  0  0  0
 26 25  1  0  0  0  0
 26 27  1  1  0  0  0
 26 24  1  0  0  0  0
 28 30  1  0  0  0  0
 28 27  1  0  0  0  0
 29 28  2  0  0  0  0
 31 32  2  0  0  0  0
M  END
>  <MODEL>
1

>  <REMARK>
 VINA RESULT:      -7.7      0.000      0.000
  Name = 
  3 active torsions:
  status: ('A' for Active; 'I' for Inactive)
    1  A    between atoms: C_1  and  C_16
    2  A    between atoms: C_10  and  C_17
    3  A    between atoms: C_20  and  N_29
                            x       y       z     vdW  Elec       q    Type
                         _______ _______ _______ _____ _____    ______ ____

>  <TORSDO>
F 3

$$$$
=
 OpenBabel11122412483D

 32 37  0  0  1  0  0  0  0  0999 V2000
  161.4070  207.3630  149.5140 C   0  0  1  0  0  3  0  0  0  0  0  0
  160.8690  204.0460  153.2840 C   0  0  0  0  0  2  0  0  0  0  0  0
  161.1990  202.9580  152.2820 C   0  0  0  0  0  2  0  0  0  0  0  0
  161.2130  206.6200  147.1190 C   0  0  0  0  0  0  0  0  0  0  0  0
  161.0670  205.5430  146.3520 C   0  0  0  0  0  0  0  0  0  0  0  0
  162.1100  209.6330  150.0580 C   0  0  0  0  0  3  0  0  0  0  0  0
  161.6420  208.0830  151.8820 C   0  0  0  0  0  3  0  0  0  0  0  0
  161.1820  203.3350  145.8410 N   0  0  0  0  0  0  0  0  0  0  0  0
  161.5090  205.3480  152.8210 C   0  0  0  0  0  2  0  0  0  0  0  0
  161.3700  207.0440  150.9240 N   0  0  0  0  0  0  0  0  0  0  0  0
  161.1870  205.6870  151.3800 C   0  0  0  0  0  0  0  0  0  0  0  0
  160.5000  205.0900  149.0820 C   0  0  2  0  0  3  0  0  0  0  0  0
  161.4870  204.0170  144.6400 N   0  0  0  0  0  0  0  0  0  0  0  0
  162.0110  209.3100  151.4980 C   0  0  0  0  0  0  0  0  0  0  0  0
  161.4250  205.3910  144.9870 N   0  0  0  0  0  0  0  0  0  0  0  0
  160.5580  203.3070  150.9460 C   0  0  0  0  0  2  0  0  0  0  0  0
  160.8660  204.7170  150.4950 C   0  0  0  0  0  0  0  0  0  0  0  0
  160.7530  203.9850  148.1390 N   0  0  0  0  0  2  0  0  0  0  0  0
  161.8320  208.7220  149.1250 C   0  0  0  0  0  3  0  0  0  0  0  0
  161.5300  207.8450  146.5430 O   0  0  0  0  0  1  0  0  0  0  0  0
  161.2880  201.8950  145.9890 C   0  0  0  0  0  1  0  0  0  0  0  0
  161.0830  206.4240  148.6020 C   0  0  0  0  0  0  0  0  0  0  0  0
  160.8940  204.2470  146.8780 C   0  0  0  0  0  0  0  0  0  0  0  0
  161.0110  211.1950  152.9410 C   0  0  2  0  0  3  0  0  0  0  0  0
  162.2480  210.3680  152.5430 C   0  0  1  0  0  3  0  0  0  0  0  0
  161.4990  210.0730  153.8310 C   0  0  1  0  0  3  0  0  0  0  0  0
  162.2350  210.6330  154.9530 N   0  0  0  0  0  2  0  0  0  0  0  0
  162.4780  209.8870  156.1450 C   0  0  0  0  0  0  0  0  0  0  0  0
  162.0550  208.7050  156.2630 O   0  0  0  0  0  0  0  0  0  0  0  0
  163.2360  210.5100  157.2610 C   0  0  0  0  0  1  0  0  0  0  0  0
  159.7180  210.7800  152.3060 C   0  0  0  0  0  3  0  0  0  0  0  0
  158.6060  211.4670  152.5460 C   0  0  0  0  0  2  0  0  0  0  0  0
  1 19  1  6  0  0  0
  1 10  1  0  0  0  0
  3  2  1  0  0  0  0
  4 22  2  0  0  0  0
  5 23  2  0  0  0  0
  5  4  1  0  0  0  0
  6 14  1  0  0  0  0
  8 21  1  0  0  0  0
  8 23  1  0  0  0  0
  9  2  1  0  0  0  0
 10 11  1  0  0  0  0
 10  7  1  0  0  0  0
 11  9  1  0  0  0  0
 12 18  1  6  0  0  0
 12 17  1  0  0  0  0
 13 15  2  0  0  0  0
 13  8  1  0  0  0  0
 14  7  2  0  0  0  0
 15  5  1  0  0  0  0
 16  3  1  0  0  0  0
 17 16  1  0  0  0  0
 17 11  2  0  0  0  0
 19  6  2  0  0  0  0
 20  4  1  0  0  0  0
 22 12  1  0  0  0  0
 22  1  1  0  0  0  0
 23 18  1  0  0  0  0
 24 31  1  6  0  0  0
 24 26  1  0  0  0  0
 25 14  1  6  0  0  0
 25 24  1  0  0  0  0
 25 26  1  0  0  0  0
 26 27  1  1  0  0  0
 27 28  1  0  0  0  0
 28 29  2  0  0  0  0
 28 30  1  0  0  0  0
 31 32  2  0  0  0  0
M  END
>  <MODEL>
2

>  <REMARK>
 VINA RESULT:      -7.0      2.505      4.927
  Name = 
  3 active torsions:
  status: ('A' for Active; 'I' for Inactive)
    1  A    between atoms: C_1  and  C_16
    2  A    between atoms: C_10  and  C_17
    3  A    between atoms: C_20  and  N_29
                            x       y       z     vdW  Elec       q    Type
                         _______ _______ _______ _____ _____    ______ ____

>  <TORSDO>
F 3

$$$$
=
 OpenBabel11122412483D

 32 37  0  0  1  0  0  0  0  0999 V2000
  161.3580  207.2410  149.5210 C   0  0  1  0  0  3  0  0  0  0  0  0
  160.9560  202.8220  151.9340 C   0  0  0  0  0  2  0  0  0  0  0  0
  160.5280  203.6070  153.1570 C   0  0  0  0  0  2  0  0  0  0  0  0
  161.6320  209.3820  150.8120 C   0  0  0  0  0  0  0  0  0  0  0  0
  161.6530  209.8820  152.0440 C   0  0  0  0  0  0  0  0  0  0  0  0
  161.0250  207.2780  147.1070 C   0  0  0  0  0  3  0  0  0  0  0  0
  161.0430  205.1250  148.2530 C   0  0  0  0  0  3  0  0  0  0  0  0
  161.1930  209.9290  154.2660 N   0  0  0  0  0  0  0  0  0  0  0  0
  160.6020  203.6250  150.6890 C   0  0  0  0  0  2  0  0  0  0  0  0
  161.2110  205.8020  149.5120 N   0  0  0  0  0  0  0  0  0  0  0  0
  161.1080  205.0520  150.7410 C   0  0  0  0  0  0  0  0  0  0  0  0
  161.8820  207.0680  151.9440 C   0  0  2  0  0  3  0  0  0  0  0  0
  161.1230  211.2750  153.8370 N   0  0  0  0  0  0  0  0  0  0  0  0
  160.9340  205.8020  147.1050 C   0  0  0  0  0  0  0  0  0  0  0  0
  161.3970  211.2190  152.4460 N   0  0  0  0  0  0  0  0  0  0  0  0
  161.3390  204.8940  153.2250 C   0  0  0  0  0  2  0  0  0  0  0  0
  161.3290  205.6660  151.9250 C   0  0  0  0  0  0  0  0  0  0  0  0
  161.5210  207.7820  153.1830 N   0  0  0  0  0  2  0  0  0  0  0  0
  161.2190  207.9560  148.2380 C   0  0  0  0  0  3  0  0  0  0  0  0
  161.5910  210.2380  149.7160 O   0  0  0  0  0  1  0  0  0  0  0  0
  160.8190  209.4970  155.6010 C   0  0  0  0  0  1  0  0  0  0  0  0
  161.5910  207.8870  150.6820 C   0  0  0  0  0  0  0  0  0  0  0  0
  161.5430  209.0780  153.1970 C   0  0  0  0  0  0  0  0  0  0  0  0
  162.1120  204.7760  145.0560 C   0  0  2  0  0  3  0  0  0  0  0  0
  160.7970  205.0410  145.8120 C   0  0  1  0  0  3  0  0  0  0  0  0
  161.4690  203.6800  145.8800 C   0  0  1  0  0  3  0  0  0  0  0  0
  160.7740  202.7580  144.9960 N   0  0  0  0  0  2  0  0  0  0  0  0
  160.4010  201.4460  145.4160 C   0  0  0  0  0  0  0  0  0  0  0  0
  160.6660  201.0430  146.5810 O   0  0  0  0  0  0  0  0  0  0  0  0
  159.6930  200.5450  144.4710 C   0  0  0  0  0  1  0  0  0  0  0  0
  163.3630  205.2270  145.7470 C   0  0  0  0  0  3  0  0  0  0  0  0
  164.1610  204.3380  146.3300 C   0  0  0  0  0  2  0  0  0  0  0  0
  1 19  1  1  0  0  0
  1 22  1  0  0  0  0
  2  3  1  0  0  0  0
  3 16  1  0  0  0  0
  4  5  1  0  0  0  0
  5 15  1  0  0  0  0
  5 23  2  0  0  0  0
  6 19  2  0  0  0  0
  7 10  1  0  0  0  0
  8 21  1  0  0  0  0
  9 11  1  0  0  0  0
  9  2  1  0  0  0  0
 10  1  1  0  0  0  0
 10 11  1  0  0  0  0
 11 17  2  0  0  0  0
 12 22  1  6  0  0  0
 12 18  1  0  0  0  0
 13  8  1  0  0  0  0
 14  6  1  0  0  0  0
 14  7  2  0  0  0  0
 15 13  2  0  0  0  0
 17 12  1  0  0  0  0
 17 16  1  0  0  0  0
 18 23  1  0  0  0  0
 20  4  1  0  0  0  0
 22  4  2  0  0  0  0
 23  8  1  0  0  0  0
 24 31  1  1  0  0  0
 24 25  1  0  0  0  0
 24 26  1  0  0  0  0
 25 26  1  0  0  0  0
 25 14  1  1  0  0  0
 26 27  1  6  0  0  0
 27 28  1  0  0  0  0
 28 29  2  0  0  0  0
 30 28  1  0  0  0  0
 31 32  2  0  0  0  0
M  END
>  <MODEL>
3

>  <REMARK>
 VINA RESULT:      -6.9      2.688      9.322
  Name = 
  3 active torsions:
  status: ('A' for Active; 'I' for Inactive)
    1  A    between atoms: C_1  and  C_16
    2  A    between atoms: C_10  and  C_17
    3  A    between atoms: C_20  and  N_29
                            x       y       z     vdW  Elec       q    Type
                         _______ _______ _______ _____ _____    ______ ____

>  <TORSDO>
F 3

$$$$
=
 OpenBabel11122412483D

 32 37  0  0  1  0  0  0  0  0999 V2000
  161.3070  206.7070  151.5500 C   0  0  1  0  0  3  0  0  0  0  0  0
  161.7580  210.8850  148.7490 C   0  0  0  0  0  2  0  0  0  0  0  0
  162.1240  211.6180  150.0240 C   0  0  0  0  0  2  0  0  0  0  0  0
  160.9320  206.8660  154.0310 C   0  0  0  0  0  0  0  0  0  0  0  0
  160.8580  207.7300  155.0390 C   0  0  0  0  0  0  0  0  0  0  0  0
  161.7160  204.5510  150.4890 C   0  0  0  0  0  3  0  0  0  0  0  0
  161.7230  206.5570  149.1020 C   0  0  0  0  0  3  0  0  0  0  0  0
  161.2450  209.6890  156.1180 N   0  0  0  0  0  0  0  0  0  0  0  0
  162.1280  209.4170  148.9050 C   0  0  0  0  0  2  0  0  0  0  0  0
  161.4960  207.3620  150.2740 N   0  0  0  0  0  0  0  0  0  0  0  0
  161.5810  208.8000  150.1760 C   0  0  0  0  0  0  0  0  0  0  0  0
  160.7120  208.9310  152.4860 C   0  0  2  0  0  3  0  0  0  0  0  0
  161.2910  208.6910  157.1190 N   0  0  0  0  0  0  0  0  0  0  0  0
  161.8480  205.2280  149.1810 C   0  0  0  0  0  0  0  0  0  0  0  0
  161.0620  207.4770  156.4210 N   0  0  0  0  0  0  0  0  0  0  0  0
  161.2750  211.0750  151.1650 C   0  0  0  0  0  2  0  0  0  0  0  0
  161.3050  209.5660  151.2550 C   0  0  0  0  0  0  0  0  0  0  0  0
  161.0120  209.7080  153.7030 N   0  0  0  0  0  2  0  0  0  0  0  0
  161.4670  205.2410  151.6020 C   0  0  0  0  0  3  0  0  0  0  0  0
  160.9830  205.5000  154.2910 O   0  0  0  0  0  1  0  0  0  0  0  0
  161.5880  211.0780  156.3620 C   0  0  0  0  0  1  0  0  0  0  0  0
  161.0200  207.4370  152.6460 C   0  0  0  0  0  0  0  0  0  0  0  0
  160.9530  209.1250  154.8590 C   0  0  0  0  0  0  0  0  0  0  0  0
  161.3310  203.0700  147.8720 C   0  0  2  0  0  3  0  0  0  0  0  0
  162.0480  204.4320  147.9180 C   0  0  1  0  0  3  0  0  0  0  0  0
  160.7530  204.2630  147.1410 C   0  0  1  0  0  3  0  0  0  0  0  0
  161.0560  204.1520  145.7240 N   0  0  0  0  0  2  0  0  0  0  0  0
  160.8820  205.2490  144.8260 C   0  0  0  0  0  0  0  0  0  0  0  0
  160.4560  206.3590  145.2420 O   0  0  0  0  0  0  0  0  0  0  0  0
  161.2060  205.0780  143.3860 C   0  0  0  0  0  1  0  0  0  0  0  0
  160.4560  202.7550  149.0480 C   0  0  0  0  0  3  0  0  0  0  0  0
  160.1690  201.4920  149.3460 C   0  0  0  0  0  2  0  0  0  0  0  0
  1 19  1  1  0  0  0
  1 22  1  0  0  0  0
  2  9  1  0  0  0  0
  2  3  1  0  0  0  0
  3 16  1  0  0  0  0
  4 20  1  0  0  0  0
  4  5  1  0  0  0  0
  5 15  1  0  0  0  0
  6 19  2  0  0  0  0
  7 14  2  0  0  0  0
  7 10  1  0  0  0  0
  8 21  1  0  0  0  0
  8 13  1  0  0  0  0
  9 11  1  0  0  0  0
 10  1  1  0  0  0  0
 11 10  1  0  0  0  0
 11 17  2  0  0  0  0
 12 17  1  6  0  0  0
 12 22  1  0  0  0  0
 12 18  1  0  0  0  0
 14  6  1  0  0  0  0
 15 13  2  0  0  0  0
 16 17  1  0  0  0  0
 18 23  1  0  0  0  0
 22  4  2  0  0  0  0
 23  5  2  0  0  0  0
 23  8  1  0  0  0  0
 24 25  1  0  0  0  0
 24 31  1  1  0  0  0
 25 14  1  1  0  0  0
 26 27  1  6  0  0  0
 26 24  1  0  0  0  0
 26 25  1  0  0  0  0
 28 29  2  0  0  0  0
 28 27  1  0  0  0  0
 30 28  1  0  0  0  0
 31 32  2  0  0  0  0
M  END
>  <MODEL>
4

>  <REMARK>
 VINA RESULT:      -6.7      2.376      8.046
  Name = 
  3 active torsions:
  status: ('A' for Active; 'I' for Inactive)
    1  A    between atoms: C_1  and  C_16
    2  A    between atoms: C_10  and  C_17
    3  A    between atoms: C_20  and  N_29
                            x       y       z     vdW  Elec       q    Type
                         _______ _______ _______ _____ _____    ______ ____

>  <TORSDO>
F 3

$$$$
=
 OpenBabel11122412483D

 32 37  0  0  1  0  0  0  0  0999 V2000
  160.8630  210.1000  152.3770 C   0  0  1  0  0  3  0  0  0  0  0  0
  160.9180  206.5450  155.9630 C   0  0  0  0  0  2  0  0  0  0  0  0
  159.7990  207.3090  156.6420 C   0  0  0  0  0  2  0  0  0  0  0  0
  159.8880  212.3710  152.8430 C   0  0  0  0  0  0  0  0  0  0  0  0
  159.2390  213.0780  153.7640 C   0  0  0  0  0  0  0  0  0  0  0  0
  161.5640  209.4860  150.1250 C   0  0  0  0  0  3  0  0  0  0  0  0
  161.7860  207.8390  151.9090 C   0  0  0  0  0  3  0  0  0  0  0  0
  157.9130  213.3870  155.5800 N   0  0  0  0  0  0  0  0  0  0  0  0
  160.8760  206.8400  154.4700 C   0  0  0  0  0  2  0  0  0  0  0  0
  161.1950  208.7690  152.8350 N   0  0  0  0  0  0  0  0  0  0  0  0
  160.8360  208.3230  154.1600 C   0  0  0  0  0  0  0  0  0  0  0  0
  160.3640  210.6770  154.7420 C   0  0  2  0  0  3  0  0  0  0  0  0
  157.6060  214.4530  154.7010 N   0  0  0  0  0  0  0  0  0  0  0  0
  161.9540  208.1480  150.6190 C   0  0  0  0  0  0  0  0  0  0  0  0
  158.4330  214.2290  153.5700 N   0  0  0  0  0  0  0  0  0  0  0  0
  160.0570  208.8010  156.4860 C   0  0  0  0  0  2  0  0  0  0  0  0
  160.3420  209.2050  155.0570 C   0  0  0  0  0  0  0  0  0  0  0  0
  159.3190  211.4120  155.4790 N   0  0  0  0  0  2  0  0  0  0  0  0
  161.0480  210.4020  150.9440 C   0  0  0  0  0  3  0  0  0  0  0  0
  160.0360  212.8780  151.5560 O   0  0  0  0  0  1  0  0  0  0  0  0
  157.1790  213.1270  156.8050 C   0  0  0  0  0  1  0  0  0  0  0  0
  160.3780  211.0110  153.2450 C   0  0  0  0  0  0  0  0  0  0  0  0
  158.9230  212.5650  155.0380 C   0  0  0  0  0  0  0  0  0  0  0  0
  162.0100  205.7320  149.7280 C   0  0  2  0  0  3  0  0  0  0  0  0
  162.6110  207.1490  149.7030 C   0  0  1  0  0  3  0  0  0  0  0  0
  161.6720  206.6850  148.6020 C   0  0  1  0  0  3  0  0  0  0  0  0
  162.4500  206.3350  147.4250 N   0  0  0  0  0  2  0  0  0  0  0  0
  162.2420  205.1130  146.7180 C   0  0  0  0  0  0  0  0  0  0  0  0
  161.3670  204.2900  147.0980 O   0  0  0  0  0  0  0  0  0  0  0  0
  163.0680  204.8060  145.5210 C   0  0  0  0  0  1  0  0  0  0  0  0
  160.7970  205.5540  150.5900 C   0  0  0  0  0  3  0  0  0  0  0  0
  160.4260  204.3370  150.9760 C   0  0  0  0  0  2  0  0  0  0  0  0
  1 19  1  6  0  0  0
  1 10  1  0  0  0  0
  1 22  1  0  0  0  0
  2  3  1  0  0  0  0
  4 22  2  0  0  0  0
  4  5  1  0  0  0  0
  5 23  2  0  0  0  0
  6 14  1  0  0  0  0
  6 19  2  0  0  0  0
  7 10  1  0  0  0  0
  8 21  1  0  0  0  0
  9  2  1  0  0  0  0
 10 11  1  0  0  0  0
 11  9  1  0  0  0  0
 11 17  2  0  0  0  0
 12 22  1  6  0  0  0
 12 17  1  0  0  0  0
 12 18  1  0  0  0  0
 13  8  1  0  0  0  0
 14  7  2  0  0  0  0
 15  5  1  0  0  0  0
 15 13  2  0  0  0  0
 16  3  1  0  0  0  0
 17 16  1  0  0  0  0
 20  4  1  0  0  0  0
 23 18  1  0  0  0  0
 23  8  1  0  0  0  0
 24 31  1  1  0  0  0
 25 24  1  0  0  0  0
 25 14  1  1  0  0  0
 26 27  1  6  0  0  0
 26 25  1  0  0  0  0
 26 24  1  0  0  0  0
 28 29  2  0  0  0  0
 28 27  1  0  0  0  0
 30 28  1  0  0  0  0
 31 32  2  0  0  0  0
M  END
>  <MODEL>
5

>  <REMARK>
 VINA RESULT:      -6.3      2.305      8.762
  Name = 
  3 active torsions:
  status: ('A' for Active; 'I' for Inactive)
    1  A    between atoms: C_1  and  C_16
    2  A    between atoms: C_10  and  C_17
    3  A    between atoms: C_20  and  N_29
                            x       y       z     vdW  Elec       q    Type
                         _______ _______ _______ _____ _____    ______ ____

>  <TORSDO>
F 3

$$$$
=
 OpenBabel11122412483D

 32 37  0  0  1  0  0  0  0  0999 V2000
  161.1470  209.9030  151.2830 C   0  0  1  0  0  3  0  0  0  0  0  0
  161.3110  206.1840  154.6960 C   0  0  0  0  0  2  0  0  0  0  0  0
  160.3170  206.9820  155.5140 C   0  0  0  0  0  2  0  0  0  0  0  0
  160.3730  212.2040  151.9370 C   0  0  0  0  0  0  0  0  0  0  0  0
  159.8650  212.9050  152.9470 C   0  0  0  0  0  0  0  0  0  0  0  0
  161.5850  209.3540  148.9500 C   0  0  0  0  0  3  0  0  0  0  0  0
  161.8680  207.6130  150.6330 C   0  0  0  0  0  3  0  0  0  0  0  0
  158.7440  213.2090  154.8970 N   0  0  0  0  0  0  0  0  0  0  0  0
  161.1460  206.5520  153.2280 C   0  0  0  0  0  2  0  0  0  0  0  0
  161.4330  208.5340  151.6510 N   0  0  0  0  0  0  0  0  0  0  0  0
  161.1740  208.0470  152.9860 C   0  0  0  0  0  0  0  0  0  0  0  0
  160.9170  210.3960  153.7080 C   0  0  2  0  0  3  0  0  0  0  0  0
  158.4240  214.3320  154.0980 N   0  0  0  0  0  0  0  0  0  0  0  0
  161.9310  207.9730  149.3470 C   0  0  0  0  0  0  0  0  0  0  0  0
  159.1210  214.1120  152.8820 N   0  0  0  0  0  0  0  0  0  0  0  0
  160.6570  208.4610  155.3950 C   0  0  0  0  0  2  0  0  0  0  0  0
  160.8290  208.9140  153.9630 C   0  0  0  0  0  0  0  0  0  0  0  0
  159.9990  211.1580  154.5750 N   0  0  0  0  0  2  0  0  0  0  0  0
  161.2130  210.2600  149.8530 C   0  0  0  0  0  3  0  0  0  0  0  0
  160.4300  212.7620  150.6650 O   0  0  0  0  0  1  0  0  0  0  0  0
  158.1150  212.9370  156.1770 C   0  0  0  0  0  1  0  0  0  0  0  0
  160.8090  210.7990  152.2330 C   0  0  0  0  0  0  0  0  0  0  0  0
  159.6390  212.3530  154.2240 C   0  0  0  0  0  0  0  0  0  0  0  0
  161.9160  205.5390  148.5030 C   0  0  2  0  0  3  0  0  0  0  0  0
  162.4290  206.9800  148.3290 C   0  0  1  0  0  3  0  0  0  0  0  0
  161.3050  206.4470  147.4570 C   0  0  1  0  0  3  0  0  0  0  0  0
  161.8360  206.1020  146.1490 N   0  0  0  0  0  2  0  0  0  0  0  0
  160.9840  205.8020  145.0430 C   0  0  0  0  0  0  0  0  0  0  0  0
  159.7310  205.8280  145.1710 O   0  0  0  0  0  0  0  0  0  0  0  0
  161.5820  205.4530  143.7280 C   0  0  0  0  0  1  0  0  0  0  0  0
  160.9190  205.3310  149.6030 C   0  0  0  0  0  3  0  0  0  0  0  0
  160.8320  204.1510  150.2090 C   0  0  0  0  0  2  0  0  0  0  0  0
  1 19  1  6  0  0  0
  1 10  1  0  0  0  0
  1 22  1  0  0  0  0
  2  3  1  0  0  0  0
  4 22  2  0  0  0  0
  4  5  1  0  0  0  0
  5 23  2  0  0  0  0
  6 14  1  0  0  0  0
  6 19  2  0  0  0  0
  7 10  1  0  0  0  0
  8 21  1  0  0  0  0
  9  2  1  0  0  0  0
 10 11  1  0  0  0  0
 11  9  1  0  0  0  0
 11 17  2  0  0  0  0
 12 22  1  6  0  0  0
 12 17  1  0  0  0  0
 12 18  1  0  0  0  0
 13  8  1  0  0  0  0
 14  7  2  0  0  0  0
 15  5  1  0  0  0  0
 15 13  2  0  0  0  0
 16  3  1  0  0  0  0
 17 16  1  0  0  0  0
 20  4  1  0  0  0  0
 23 18  1  0  0  0  0
 23  8  1  0  0  0  0
 24 31  1  1  0  0  0
 25 24  1  0  0  0  0
 25 14  1  1  0  0  0
 26 27  1  6  0  0  0
 26 25  1  0  0  0  0
 26 24  1  0  0  0  0
 28 29  2  0  0  0  0
 28 27  1  0  0  0  0
 30 28  1  0  0  0  0
 31 32  2  0  0  0  0
M  END
>  <MODEL>
6

>  <REMARK>
 VINA RESULT:      -6.1      2.691      8.769
  Name = 
  3 active torsions:
  status: ('A' for Active; 'I' for Inactive)
    1  A    between atoms: C_1  and  C_16
    2  A    between atoms: C_10  and  C_17
    3  A    between atoms: C_20  and  N_29
                            x       y       z     vdW  Elec       q    Type
                         _______ _______ _______ _____ _____    ______ ____

>  <TORSDO>
F 3

$$$$
=
 OpenBabel11122412483D

 32 37  0  0  1  0  0  0  0  0999 V2000
  160.9440  206.4440  151.5810 C   0  0  1  0  0  3  0  0  0  0  0  0
  161.7930  210.2830  148.4110 C   0  0  0  0  0  2  0  0  0  0  0  0
  162.4780  210.9920  149.5610 C   0  0  0  0  0  2  0  0  0  0  0  0
  160.9760  206.8110  154.0690 C   0  0  0  0  0  0  0  0  0  0  0  0
  161.2210  207.7250  155.0040 C   0  0  0  0  0  0  0  0  0  0  0  0
  160.7610  204.1970  150.6580 C   0  0  0  0  0  3  0  0  0  0  0  0
  160.9600  206.0800  149.1210 C   0  0  0  0  0  3  0  0  0  0  0  0
  162.1400  209.6170  155.8560 N   0  0  0  0  0  0  0  0  0  0  0  0
  161.8860  208.7800  148.6370 C   0  0  0  0  0  2  0  0  0  0  0  0
  161.0690  206.9770  150.2430 N   0  0  0  0  0  0  0  0  0  0  0  0
  161.4200  208.3590  150.0160 C   0  0  0  0  0  0  0  0  0  0  0  0
  160.9420  208.7900  152.4020 C   0  0  2  0  0  3  0  0  0  0  0  0
  162.1340  208.6860  156.9220 N   0  0  0  0  0  0  0  0  0  0  0  0
  160.8310  204.7600  149.2920 C   0  0  0  0  0  0  0  0  0  0  0  0
  161.5720  207.5100  156.3620 N   0  0  0  0  0  0  0  0  0  0  0  0
  161.7160  210.6980  150.8450 C   0  0  0  0  0  2  0  0  0  0  0  0
  161.4610  209.2220  151.0550 C   0  0  0  0  0  0  0  0  0  0  0  0
  161.5640  209.5530  153.5000 N   0  0  0  0  0  2  0  0  0  0  0  0
  160.8190  204.9820  151.7330 C   0  0  0  0  0  3  0  0  0  0  0  0
  160.7940  205.4800  154.4310 O   0  0  0  0  0  1  0  0  0  0  0  0
  162.7810  210.9170  155.9370 C   0  0  0  0  0  1  0  0  0  0  0  0
  160.9700  207.2760  152.6430 C   0  0  0  0  0  0  0  0  0  0  0  0
  161.5610  209.0580  154.6980 C   0  0  0  0  0  0  0  0  0  0  0  0
  161.4290  204.3430  146.8210 C   0  0  2  0  0  3  0  0  0  0  0  0
  160.6840  203.8730  148.0840 C   0  0  1  0  0  3  0  0  0  0  0  0
  162.0040  203.2370  147.6810 C   0  0  1  0  0  3  0  0  0  0  0  0
  161.7450  201.9530  147.0510 N   0  0  0  0  0  2  0  0  0  0  0  0
  161.5260  200.7680  147.8140 C   0  0  0  0  0  0  0  0  0  0  0  0
  161.5520  200.7990  149.0740 O   0  0  0  0  0  0  0  0  0  0  0  0
  161.2660  199.4810  147.1160 C   0  0  0  0  0  1  0  0  0  0  0  0
  162.2760  205.5690  146.9840 C   0  0  0  0  0  3  0  0  0  0  0  0
  162.6600  206.2610  145.9160 C   0  0  0  0  0  2  0  0  0  0  0  0
  1 19  1  1  0  0  0
  1 22  1  0  0  0  0
  2  9  1  0  0  0  0
  2  3  1  0  0  0  0
  3 16  1  0  0  0  0
  4 20  1  0  0  0  0
  4  5  1  0  0  0  0
  5 15  1  0  0  0  0
  6 19  2  0  0  0  0
  7 14  2  0  0  0  0
  7 10  1  0  0  0  0
  8 21  1  0  0  0  0
  8 13  1  0  0  0  0
  9 11  1  0  0  0  0
 10  1  1  0  0  0  0
 11 10  1  0  0  0  0
 11 17  2  0  0  0  0
 12 17  1  6  0  0  0
 12 22  1  0  0  0  0
 12 18  1  0  0  0  0
 14  6  1  0  0  0  0
 15 13  2  0  0  0  0
 16 17  1  0  0  0  0
 18 23  1  0  0  0  0
 22  4  2  0  0  0  0
 23  5  2  0  0  0  0
 23  8  1  0  0  0  0
 24 31  1  1  0  0  0
 24 26  1  0  0  0  0
 24 25  1  0  0  0  0
 25 14  1  1  0  0  0
 26 27  1  6  0  0  0
 26 25  1  0  0  0  0
 27 28  1  0  0  0  0
 28 29  2  0  0  0  0
 30 28  1  0  0  0  0
 32 31  2  0  0  0  0
M  END
>  <MODEL>
7

>  <REMARK>
 VINA RESULT:      -6.0      2.427      8.301
  Name = 
  3 active torsions:
  status: ('A' for Active; 'I' for Inactive)
    1  A    between atoms: C_1  and  C_16
    2  A    between atoms: C_10  and  C_17
    3  A    between atoms: C_20  and  N_29
                            x       y       z     vdW  Elec       q    Type
                         _______ _______ _______ _____ _____    ______ ____

>  <TORSDO>
F 3

$$$$
=
 OpenBabel11122412483D

 32 37  0  0  1  0  0  0  0  0999 V2000
  160.8760  209.3230  152.2100 C   0  0  1  0  0  3  0  0  0  0  0  0
  161.0060  212.9720  148.7200 C   0  0  0  0  0  2  0  0  0  0  0  0
  161.0660  213.9670  149.8610 C   0  0  0  0  0  2  0  0  0  0  0  0
  160.1430  209.8300  154.5610 C   0  0  0  0  0  0  0  0  0  0  0  0
  159.7870  210.8240  155.3710 C   0  0  0  0  0  0  0  0  0  0  0  0
  161.7800  207.1350  151.6330 C   0  0  0  0  0  3  0  0  0  0  0  0
  161.6440  208.8400  149.8940 C   0  0  0  0  0  3  0  0  0  0  0  0
  159.6910  212.9750  156.0870 N   0  0  0  0  0  0  0  0  0  0  0  0
  161.5910  211.6480  149.1940 C   0  0  0  0  0  2  0  0  0  0  0  0
  161.1270  209.7750  150.8590 N   0  0  0  0  0  0  0  0  0  0  0  0
  160.9840  211.1650  150.4960 C   0  0  0  0  0  0  0  0  0  0  0  0
  159.7970  211.5210  152.6330 C   0  0  2  0  0  3  0  0  0  0  0  0
  159.7640  212.1890  157.2610 N   0  0  0  0  0  0  0  0  0  0  0  0
  161.9760  207.5920  150.2400 C   0  0  0  0  0  0  0  0  0  0  0  0
  159.8390  210.8530  156.7890 N   0  0  0  0  0  0  0  0  0  0  0  0
  160.1720  213.4760  150.9910 C   0  0  0  0  0  2  0  0  0  0  0  0
  160.4390  212.0380  151.3720 C   0  0  0  0  0  0  0  0  0  0  0  0
  159.7930  212.5370  153.7020 N   0  0  0  0  0  2  0  0  0  0  0  0
  161.2690  207.9450  152.5600 C   0  0  0  0  0  3  0  0  0  0  0  0
  160.3840  208.5630  155.0830 O   0  0  0  0  0  1  0  0  0  0  0  0
  159.7620  214.4250  156.0930 C   0  0  0  0  0  1  0  0  0  0  0  0
  160.3230  210.1630  153.1090 C   0  0  0  0  0  0  0  0  0  0  0  0
  159.6730  212.1600  154.9360 C   0  0  0  0  0  0  0  0  0  0  0  0
  161.7850  205.2700  149.1410 C   0  0  2  0  0  3  0  0  0  0  0  0
  162.4780  206.6440  149.1820 C   0  0  1  0  0  3  0  0  0  0  0  0
  161.4150  206.3430  148.1390 C   0  0  1  0  0  3  0  0  0  0  0  0
  162.0590  206.0570  146.8680 N   0  0  0  0  0  2  0  0  0  0  0  0
  161.3090  205.8540  145.6700 C   0  0  0  0  0  0  0  0  0  0  0  0
  160.0510  205.9170  145.6800 O   0  0  0  0  0  0  0  0  0  0  0  0
  162.0210  205.5640  144.3980 C   0  0  0  0  0  1  0  0  0  0  0  0
  160.6430  205.0870  150.0950 C   0  0  0  0  0  3  0  0  0  0  0  0
  160.4420  203.9090  150.6760 C   0  0  0  0  0  2  0  0  0  0  0  0
  1 19  1  1  0  0  0
  1 22  1  0  0  0  0
  2  9  1  0  0  0  0
  2  3  1  0  0  0  0
  3 16  1  0  0  0  0
  4 20  1  0  0  0  0
  4  5  1  0  0  0  0
  5 15  1  0  0  0  0
  6 19  2  0  0  0  0
  7 14  2  0  0  0  0
  7 10  1  0  0  0  0
  8 21  1  0  0  0  0
  8 13  1  0  0  0  0
  9 11  1  0  0  0  0
 10  1  1  0  0  0  0
 11 10  1  0  0  0  0
 11 17  2  0  0  0  0
 12 17  1  6  0  0  0
 12 22  1  0  0  0  0
 12 18  1  0  0  0  0
 14  6  1  0  0  0  0
 15 13  2  0  0  0  0
 16 17  1  0  0  0  0
 18 23  1  0  0  0  0
 22  4  2  0  0  0  0
 23  5  2  0  0  0  0
 23  8  1  0  0  0  0
 24 25  1  0  0  0  0
 24 31  1  1  0  0  0
 25 14  1  1  0  0  0
 26 27  1  6  0  0  0
 26 24  1  0  0  0  0
 26 25  1  0  0  0  0
 28 29  2  0  0  0  0
 28 27  1  0  0  0  0
 30 28  1  0  0  0  0
 31 32  2  0  0  0  0
M  END
>  <MODEL>
8

>  <REMARK>
 VINA RESULT:      -5.6      2.348      8.112
  Name = 
  3 active torsions:
  status: ('A' for Active; 'I' for Inactive)
    1  A    between atoms: C_1  and  C_16
    2  A    between atoms: C_10  and  C_17
    3  A    between atoms: C_20  and  N_29
                            x       y       z     vdW  Elec       q    Type
                         _______ _______ _______ _____ _____    ______ ____

>  <TORSDO>
F 3

$$$$
=
 OpenBabel11122412483D

 32 37  0  0  1  0  0  0  0  0999 V2000
  160.9660  209.2720  152.0760 C   0  0  1  0  0  3  0  0  0  0  0  0
  160.8080  206.5900  156.3530 C   0  0  0  0  0  2  0  0  0  0  0  0
  159.8570  207.6390  156.8950 C   0  0  0  0  0  2  0  0  0  0  0  0
  160.3450  211.7090  152.0720 C   0  0  0  0  0  0  0  0  0  0  0  0
  159.8690  212.6840  152.8420 C   0  0  0  0  0  0  0  0  0  0  0  0
  161.4070  208.0980  149.9870 C   0  0  0  0  0  3  0  0  0  0  0  0
  161.5360  206.8520  152.0790 C   0  0  0  0  0  3  0  0  0  0  0  0
  158.7370  213.5650  154.6010 N   0  0  0  0  0  0  0  0  0  0  0  0
  160.6950  206.5650  154.8350 C   0  0  0  0  0  2  0  0  0  0  0  0
  161.1480  208.0350  152.8020 N   0  0  0  0  0  0  0  0  0  0  0  0
  160.8330  207.9380  154.2080 C   0  0  0  0  0  0  0  0  0  0  0  0
  160.7290  210.4060  154.2750 C   0  0  2  0  0  3  0  0  0  0  0  0
  158.5120  214.4530  153.5240 N   0  0  0  0  0  0  0  0  0  0  0  0
  161.6480  206.8530  150.7470 C   0  0  0  0  0  0  0  0  0  0  0  0
  159.2130  213.8750  152.4340 N   0  0  0  0  0  0  0  0  0  0  0  0
  160.3020  209.0080  156.4030 C   0  0  0  0  0  2  0  0  0  0  0  0
  160.5310  209.0530  154.9090 C   0  0  0  0  0  0  0  0  0  0  0  0
  159.8510  211.4260  154.8770 N   0  0  0  0  0  2  0  0  0  0  0  0
  161.0830  209.2330  150.6060 C   0  0  0  0  0  3  0  0  0  0  0  0
  160.4630  211.9050  150.7000 O   0  0  0  0  0  1  0  0  0  0  0  0
  158.0680  213.6820  155.8850 C   0  0  0  0  0  1  0  0  0  0  0  0
  160.6760  210.4080  152.7430 C   0  0  0  0  0  0  0  0  0  0  0  0
  159.5830  212.5060  154.2110 C   0  0  0  0  0  0  0  0  0  0  0  0
  161.7940  204.2810  150.7880 C   0  0  2  0  0  3  0  0  0  0  0  0
  162.0930  205.5960  150.0450 C   0  0  1  0  0  3  0  0  0  0  0  0
  160.9160  204.7250  149.6380 C   0  0  1  0  0  3  0  0  0  0  0  0
  161.2670  203.9720  148.4450 N   0  0  0  0  0  2  0  0  0  0  0  0
  160.8220  202.6320  148.2390 C   0  0  0  0  0  0  0  0  0  0  0  0
  160.1020  202.0540  149.0970 O   0  0  0  0  0  0  0  0  0  0  0  0
  161.2130  201.9100  147.0010 C   0  0  0  0  0  1  0  0  0  0  0  0
  161.0200  204.4150  152.0650 C   0  0  0  0  0  3  0  0  0  0  0  0
  160.4530  203.3470  152.6170 C   0  0  0  0  0  2  0  0  0  0  0  0
  1 19  1  6  0  0  0
  1 22  1  0  0  0  0
  1 10  1  0  0  0  0
  2  3  1  0  0  0  0
  4 22  2  0  0  0  0
  4  5  1  0  0  0  0
  5 23  2  0  0  0  0
  6 19  2  0  0  0  0
  6 14  1  0  0  0  0
  7 10  1  0  0  0  0
  8 21  1  0  0  0  0
  9  2  1  0  0  0  0
 10 11  1  0  0  0  0
 11  9  1  0  0  0  0
 11 17  2  0  0  0  0
 12 22  1  6  0  0  0
 12 18  1  0  0  0  0
 12 17  1  0  0  0  0
 13  8  1  0  0  0  0
 14  7  2  0  0  0  0
 15  5  1  0  0  0  0
 15 13  2  0  0  0  0
 16  3  1  0  0  0  0
 17 16  1  0  0  0  0
 20  4  1  0  0  0  0
 23  8  1  0  0  0  0
 23 18  1  0  0  0  0
 24 31  1  1  0  0  0
 25 14  1  1  0  0  0
 25 24  1  0  0  0  0
 26 27  1  6  0  0  0
 26 25  1  0  0  0  0
 26 24  1  0  0  0  0
 28 27  1  0  0  0  0
 28 29  2  0  0  0  0
 30 28  1  0  0  0  0
 31 32  2  0  0  0  0
M  END
>  <MODEL>
9

>  <REMARK>
 VINA RESULT:      -5.4      1.999      8.669
  Name = 
  3 active torsions:
  status: ('A' for Active; 'I' for Inactive)
    1  A    between atoms: C_1  and  C_16
    2  A    between atoms: C_10  and  C_17
    3  A    between atoms: C_20  and  N_29
                            x       y       z     vdW  Elec       q    Type
                         _______ _______ _______ _____ _____    ______ ____

>  <TORSDO>
F 3

$$$$
