=
 OpenBabel11122412323D

 30 35  0  0  1  0  0  0  0  0999 V2000
  161.0170  206.3010  150.4350 C   0  0  0  0  0  0  0  0  0  0  0  0
  160.8570  203.8080  150.3060 C   0  0  0  0  0  0  0  0  0  0  0  0
  160.8030  206.2120  154.6990 C   0  0  0  0  0  2  0  0  0  0  0  0
  161.0960  207.4890  151.2210 C   0  0  0  0  0  0  0  0  0  0  0  0
  160.9440  206.4320  148.9390 C   0  0  0  0  0  2  0  0  0  0  0  0
  162.3020  209.7690  148.6380 O   0  0  0  0  0  0  0  0  0  0  0  0
  160.2060  210.2780  152.0950 C   0  0  1  0  0  3  0  0  0  0  0  0
  161.8520  208.7240  149.1860 C   0  0  0  0  0  0  0  0  0  0  0  0
  160.4390  209.6960  153.4310 C   0  0  0  0  0  0  0  0  0  0  0  0
  160.8680  207.7200  154.9550 C   0  0  1  0  0  3  0  0  0  0  0  0
  161.8070  207.4990  148.4520 N   0  0  0  0  0  0  0  0  0  0  0  0
  161.3980  208.7530  150.5530 N   0  0  0  0  0  0  0  0  0  0  0  0
  160.7610  202.5790  150.9630 C   0  0  0  0  0  3  0  0  0  0  0  0
  160.3510  210.6060  154.3870 C   0  0  0  0  0  3  0  0  0  0  0  0
  159.9930  211.7160  152.4380 C   0  0  0  0  0  3  0  0  0  0  0  0
  160.9170  203.7880  148.9510 F   0  0  0  0  0  0  0  0  0  0  0  0
  160.8800  206.1060  153.2150 C   0  0  0  0  0  0  0  0  0  0  0  0
  160.7100  202.5180  152.3530 C   0  0  0  0  0  3  0  0  0  0  0  0
  160.9060  205.0170  151.0490 C   0  0  0  0  0  0  0  0  0  0  0  0
  160.9590  207.3450  152.6290 C   0  0  0  0  0  0  0  0  0  0  0  0
  162.1500  208.0500  155.7000 C   0  0  0  0  0  1  0  0  0  0  0  0
  160.8840  208.3530  153.6360 N   0  0  0  0  0  0  0  0  0  0  0  0
  160.0560  211.8840  153.7520 C   0  0  0  0  0  3  0  0  0  0  0  0
  162.7770  210.3350  151.8600 C   0  0  0  0  0  1  0  0  0  0  0  0
  160.7560  203.6910  153.1010 C   0  0  0  0  0  3  0  0  0  0  0  0
  160.8540  204.9350  152.4640 C   0  0  0  0  0  0  0  0  0  0  0  0
  161.4220  210.0650  151.2050 C   0  0  2  0  0  3  0  0  0  0  0  0
  162.4490  207.4100  147.1400 C   0  0  0  0  0  2  0  0  0  0  0  0
  161.9980  205.8910  145.6040 C   0  0  0  0  0  1  0  0  0  0  0  0
  162.7060  206.0830  146.7900 O   0  0  0  0  0  0  0  0  0  0  0  0
  1 19  2  0  0  0  0
  1  4  1  0  0  0  0
  2 13  2  0  0  0  0
  2 19  1  0  0  0  0
  3 10  1  0  0  0  0
  4 20  2  0  0  0  0
  5  1  1  0  0  0  0
  6  8  2  0  0  0  0
  7 15  1  1  0  0  0
  7  9  1  0  0  0  0
  8 12  1  0  0  0  0
  9 22  1  0  0  0  0
  9 14  2  0  0  0  0
 10 21  1  6  0  0  0
 11  5  1  0  0  0  0
 11  8  1  0  0  0  0
 12 27  1  0  0  0  0
 12  4  1  0  0  0  0
 13 18  1  0  0  0  0
 15 23  2  0  0  0  0
 16  2  1  0  0  0  0
 17  3  1  0  0  0  0
 18 25  2  0  0  0  0
 19 26  1  0  0  0  0
 20 17  1  0  0  0  0
 20 22  1  0  0  0  0
 22 10  1  0  0  0  0
 23 14  1  0  0  0  0
 26 25  1  0  0  0  0
 26 17  2  0  0  0  0
 27 24  1  1  0  0  0
 27  7  1  0  0  0  0
 28 11  1  0  0  0  0
 29 30  1  0  0  0  0
 30 28  1  0  0  0  0
M  END
>  <MODEL>
1

>  <REMARK>
 VINA RESULT:      -6.9      0.000      0.000
  Name = 
  2 active torsions:
  status: ('A' for Active; 'I' for Inactive)
    1  A    between atoms: N_11  and  C_28
    2  A    between atoms: C_28  and  O_30
                            x       y       z     vdW  Elec       q    Type
                         _______ _______ _______ _____ _____    ______ ____

>  <TORSDO>
F 2

$$$$
=
 OpenBabel11122412323D

 30 35  0  0  1  0  0  0  0  0999 V2000
  161.1900  207.9250  151.2720 C   0  0  0  0  0  0  0  0  0  0  0  0
  161.4730  210.3700  150.8300 C   0  0  0  0  0  0  0  0  0  0  0  0
  162.1930  206.9600  147.2340 C   0  0  0  0  0  2  0  0  0  0  0  0
  161.2600  206.5760  150.8120 C   0  0  0  0  0  0  0  0  0  0  0  0
  160.6800  208.1840  152.6630 C   0  0  0  0  0  2  0  0  0  0  0  0
  161.2460  204.8950  154.0520 O   0  0  0  0  0  0  0  0  0  0  0  0
  160.1390  203.7810  150.2930 C   0  0  1  0  0  3  0  0  0  0  0  0
  161.1710  205.8140  153.1880 C   0  0  0  0  0  0  0  0  0  0  0  0
  160.8390  203.9770  149.0080 C   0  0  0  0  0  0  0  0  0  0  0  0
  162.0410  205.4390  147.3270 C   0  0  1  0  0  3  0  0  0  0  0  0
  161.1560  207.1810  153.6040 N   0  0  0  0  0  0  0  0  0  0  0  0
  161.1190  205.4950  151.7840 N   0  0  0  0  0  0  0  0  0  0  0  0
  161.7970  211.3970  149.9390 C   0  0  0  0  0  3  0  0  0  0  0  0
  160.8510  202.8710  148.2810 C   0  0  0  0  0  3  0  0  0  0  0  0
  159.7620  202.3390  150.2020 C   0  0  0  0  0  3  0  0  0  0  0  0
  161.1570  210.7240  152.1010 F   0  0  0  0  0  0  0  0  0  0  0  0
  161.8710  207.4270  148.6130 C   0  0  0  0  0  0  0  0  0  0  0  0
  162.1480  211.1110  148.6220 C   0  0  0  0  0  3  0  0  0  0  0  0
  161.4980  209.0160  150.4050 C   0  0  0  0  0  0  0  0  0  0  0  0
  161.5500  206.3750  149.4340 C   0  0  0  0  0  0  0  0  0  0  0  0
  163.3930  204.7840  147.1080 C   0  0  0  0  0  1  0  0  0  0  0  0
  161.5690  205.1630  148.6840 N   0  0  0  0  0  0  0  0  0  0  0  0
  160.1550  201.8390  149.0380 C   0  0  0  0  0  3  0  0  0  0  0  0
  162.4840  203.4840  151.3320 C   0  0  0  0  0  1  0  0  0  0  0  0
  162.1780  209.7900  148.1840 C   0  0  0  0  0  3  0  0  0  0  0  0
  161.8590  208.7440  149.0600 C   0  0  0  0  0  0  0  0  0  0  0  0
  161.0760  204.0680  151.4570 C   0  0  2  0  0  3  0  0  0  0  0  0
  161.4120  207.5210  155.0040 C   0  0  0  0  0  2  0  0  0  0  0  0
  160.0930  207.1680  156.7380 C   0  0  0  0  0  1  0  0  0  0  0  0
  160.2570  207.9980  155.6300 O   0  0  0  0  0  0  0  0  0  0  0  0
  1  5  1  0  0  0  0
  2 16  1  0  0  0  0
  3 10  1  0  0  0  0
  3 17  1  0  0  0  0
  4  1  1  0  0  0  0
  4 12  1  0  0  0  0
  5 11  1  0  0  0  0
  7 15  1  1  0  0  0
  7 27  1  0  0  0  0
  8 11  1  0  0  0  0
  8  6  2  0  0  0  0
  9  7  1  0  0  0  0
 10 21  1  1  0  0  0
 10 22  1  0  0  0  0
 11 28  1  0  0  0  0
 12  8  1  0  0  0  0
 13  2  2  0  0  0  0
 14  9  2  0  0  0  0
 14 23  1  0  0  0  0
 17 26  2  0  0  0  0
 17 20  1  0  0  0  0
 18 13  1  0  0  0  0
 19  2  1  0  0  0  0
 19  1  2  0  0  0  0
 20  4  2  0  0  0  0
 22  9  1  0  0  0  0
 22 20  1  0  0  0  0
 23 15  2  0  0  0  0
 25 18  2  0  0  0  0
 25 26  1  0  0  0  0
 26 19  1  0  0  0  0
 27 24  1  6  0  0  0
 27 12  1  0  0  0  0
 28 30  1  0  0  0  0
 30 29  1  0  0  0  0
M  END
>  <MODEL>
2

>  <REMARK>
 VINA RESULT:      -6.7      2.859      7.241
  Name = 
  2 active torsions:
  status: ('A' for Active; 'I' for Inactive)
    1  A    between atoms: N_11  and  C_28
    2  A    between atoms: C_28  and  O_30
                            x       y       z     vdW  Elec       q    Type
                         _______ _______ _______ _____ _____    ______ ____

>  <TORSDO>
F 2

$$$$
=
 OpenBabel11122412323D

 30 35  0  0  1  0  0  0  0  0999 V2000
  161.7790  208.2020  151.3020 C   0  0  0  0  0  0  0  0  0  0  0  0
  161.6210  208.6740  153.7530 C   0  0  0  0  0  0  0  0  0  0  0  0
  160.8060  204.0890  151.9130 C   0  0  0  0  0  2  0  0  0  0  0  0
  161.6530  207.2860  150.2160 C   0  0  0  0  0  0  0  0  0  0  0  0
  162.2750  209.5930  151.0160 C   0  0  0  0  0  2  0  0  0  0  0  0
  161.5260  209.6990  147.4810 O   0  0  0  0  0  0  0  0  0  0  0  0
  162.6490  205.7910  147.7440 C   0  0  1  0  0  3  0  0  0  0  0  0
  161.6610  209.2260  148.6440 C   0  0  0  0  0  0  0  0  0  0  0  0
  161.9820  204.6640  148.4260 C   0  0  0  0  0  0  0  0  0  0  0  0
  160.8840  203.6250  150.4560 C   0  0  1  0  0  3  0  0  0  0  0  0
  161.7340  210.1070  149.7660 N   0  0  0  0  0  0  0  0  0  0  0  0
  161.7240  207.8010  148.8510 N   0  0  0  0  0  0  0  0  0  0  0  0
  161.3630  208.2150  155.0480 C   0  0  0  0  0  3  0  0  0  0  0  0
  161.9310  203.5860  147.6590 C   0  0  0  0  0  3  0  0  0  0  0  0
  162.9580  205.1850  146.4140 C   0  0  0  0  0  3  0  0  0  0  0  0
  161.9300  209.9870  153.6080 F   0  0  0  0  0  0  0  0  0  0  0  0
  161.1240  205.5430  151.8340 C   0  0  0  0  0  0  0  0  0  0  0  0
  161.0240  206.8840  155.2750 C   0  0  0  0  0  3  0  0  0  0  0  0
  161.5390  207.7890  152.6470 C   0  0  0  0  0  0  0  0  0  0  0  0
  161.3800  205.9280  150.5420 C   0  0  0  0  0  0  0  0  0  0  0  0
  159.5060  203.1840  149.9950 C   0  0  0  0  0  1  0  0  0  0  0  0
  161.3170  204.7900  149.6840 N   0  0  0  0  0  0  0  0  0  0  0  0
  162.5620  203.9190  146.3890 C   0  0  0  0  0  3  0  0  0  0  0  0
  160.2730  206.6520  147.2120 C   0  0  0  0  0  1  0  0  0  0  0  0
  160.9390  205.9980  154.2040 C   0  0  0  0  0  3  0  0  0  0  0  0
  161.1910  206.4370  152.8980 C   0  0  0  0  0  0  0  0  0  0  0  0
  161.7050  206.9800  147.6390 C   0  0  2  0  0  3  0  0  0  0  0  0
  161.4690  211.5360  149.5910 C   0  0  0  0  0  2  0  0  0  0  0  0
  161.8530  213.2060  148.2010 C   0  0  0  0  0  1  0  0  0  0  0  0
  162.4870  212.1550  148.8610 O   0  0  0  0  0  0  0  0  0  0  0  0
  1 19  1  0  0  0  0
  2 13  1  0  0  0  0
  4 20  1  0  0  0  0
  4  1  2  0  0  0  0
  5  1  1  0  0  0  0
  6  8  2  0  0  0  0
  7 15  1  6  0  0  0
  7  9  1  0  0  0  0
  8 12  1  0  0  0  0
  8 11  1  0  0  0  0
  9 22  1  0  0  0  0
 10 21  1  6  0  0  0
 10  3  1  0  0  0  0
 11  5  1  0  0  0  0
 12  4  1  0  0  0  0
 13 18  2  0  0  0  0
 14  9  2  0  0  0  0
 16  2  1  0  0  0  0
 17  3  1  0  0  0  0
 17 26  1  0  0  0  0
 19 26  1  0  0  0  0
 19  2  2  0  0  0  0
 20 17  2  0  0  0  0
 22 10  1  0  0  0  0
 22 20  1  0  0  0  0
 23 15  2  0  0  0  0
 23 14  1  0  0  0  0
 25 18  1  0  0  0  0
 26 25  2  0  0  0  0
 27 24  1  1  0  0  0
 27  7  1  0  0  0  0
 27 12  1  0  0  0  0
 28 11  1  0  0  0  0
 29 30  1  0  0  0  0
 30 28  1  0  0  0  0
M  END
>  <MODEL>
3

>  <REMARK>
 VINA RESULT:      -6.3      2.288      5.705
  Name = 
  2 active torsions:
  status: ('A' for Active; 'I' for Inactive)
    1  A    between atoms: N_11  and  C_28
    2  A    between atoms: C_28  and  O_30
                            x       y       z     vdW  Elec       q    Type
                         _______ _______ _______ _____ _____    ______ ____

>  <TORSDO>
F 2

$$$$
=
 OpenBabel11122412323D

 30 35  0  0  1  0  0  0  0  0999 V2000
  161.2670  211.0750  150.6390 C   0  0  0  0  0  0  0  0  0  0  0  0
  160.8450  212.4740  148.6090 C   0  0  0  0  0  0  0  0  0  0  0  0
  158.9520  213.7070  153.0790 C   0  0  0  0  0  2  0  0  0  0  0  0
  161.0480  210.8230  152.0260 C   0  0  0  0  0  0  0  0  0  0  0  0
  162.2200  210.1850  149.8890 C   0  0  0  0  0  2  0  0  0  0  0  0
  162.1680  207.3510  152.1320 O   0  0  0  0  0  0  0  0  0  0  0  0
  161.9320  210.3230  154.9080 C   0  0  1  0  0  3  0  0  0  0  0  0
  161.9420  208.5150  151.6970 C   0  0  0  0  0  0  0  0  0  0  0  0
  160.8350  211.2740  155.1790 C   0  0  0  0  0  0  0  0  0  0  0  0
  159.1290  212.9810  154.4150 C   0  0  1  0  0  3  0  0  0  0  0  0
  162.0960  208.7960  150.3040 N   0  0  0  0  0  0  0  0  0  0  0  0
  161.5140  209.5590  152.5920 N   0  0  0  0  0  0  0  0  0  0  0  0
  160.2350  213.5890  148.0290 C   0  0  0  0  0  3  0  0  0  0  0  0
  160.5780  211.3730  156.4730 C   0  0  0  0  0  3  0  0  0  0  0  0
  162.2580  209.8550  156.2880 C   0  0  0  0  0  3  0  0  0  0  0  0
  161.5740  211.6690  147.7970 F   0  0  0  0  0  0  0  0  0  0  0  0
  159.7220  212.8650  152.1200 C   0  0  0  0  0  0  0  0  0  0  0  0
  159.4570  214.4530  148.7950 C   0  0  0  0  0  3  0  0  0  0  0  0
  160.6800  212.2040  149.9930 C   0  0  0  0  0  0  0  0  0  0  0  0
  160.3060  211.7960  152.7520 C   0  0  0  0  0  0  0  0  0  0  0  0
  157.7850  212.4550  154.8850 C   0  0  0  0  0  1  0  0  0  0  0  0
  160.0360  211.8640  154.1510 N   0  0  0  0  0  0  0  0  0  0  0  0
  161.4930  210.4810  157.1730 C   0  0  0  0  0  3  0  0  0  0  0  0
  160.0810  208.6050  154.3660 C   0  0  0  0  0  1  0  0  0  0  0  0
  159.2820  214.2080  150.1550 C   0  0  0  0  0  3  0  0  0  0  0  0
  159.8830  213.0950  150.7570 C   0  0  0  0  0  0  0  0  0  0  0  0
  161.4460  209.1950  154.0090 C   0  0  2  0  0  3  0  0  0  0  0  0
  162.3310  207.7030  149.3600 C   0  0  0  0  0  2  0  0  0  0  0  0
  160.7650  206.2200  148.8890 C   0  0  0  0  0  1  0  0  0  0  0  0
  161.2190  207.4920  148.5410 O   0  0  0  0  0  0  0  0  0  0  0  0
  1  4  1  0  0  0  0
  2 19  1  0  0  0  0
  3 10  1  0  0  0  0
  4 12  1  0  0  0  0
  4 20  2  0  0  0  0
  5 11  1  0  0  0  0
  5  1  1  0  0  0  0
  7  9  1  0  0  0  0
  7 15  1  1  0  0  0
  8  6  2  0  0  0  0
  8 12  1  0  0  0  0
  9 14  2  0  0  0  0
 10 21  1  6  0  0  0
 11  8  1  0  0  0  0
 12 27  1  0  0  0  0
 13  2  2  0  0  0  0
 13 18  1  0  0  0  0
 14 23  1  0  0  0  0
 15 23  2  0  0  0  0
 16  2  1  0  0  0  0
 17 20  1  0  0  0  0
 17  3  1  0  0  0  0
 18 25  2  0  0  0  0
 19  1  2  0  0  0  0
 19 26  1  0  0  0  0
 20 22  1  0  0  0  0
 22 10  1  0  0  0  0
 22  9  1  0  0  0  0
 25 26  1  0  0  0  0
 26 17  2  0  0  0  0
 27 24  1  1  0  0  0
 27  7  1  0  0  0  0
 28 11  1  0  0  0  0
 30 29  1  0  0  0  0
 30 28  1  0  0  0  0
M  END
>  <MODEL>
4

>  <REMARK>
 VINA RESULT:      -5.7      2.818      6.011
  Name = 
  2 active torsions:
  status: ('A' for Active; 'I' for Inactive)
    1  A    between atoms: N_11  and  C_28
    2  A    between atoms: C_28  and  O_30
                            x       y       z     vdW  Elec       q    Type
                         _______ _______ _______ _____ _____    ______ ____

>  <TORSDO>
F 2

$$$$
=
 OpenBabel11122412323D

 30 35  0  0  1  0  0  0  0  0999 V2000
  161.3900  210.6990  151.2530 C   0  0  0  0  0  0  0  0  0  0  0  0
  161.8620  211.2430  148.8580 C   0  0  0  0  0  0  0  0  0  0  0  0
  159.0360  214.2330  151.7130 C   0  0  0  0  0  2  0  0  0  0  0  0
  160.7320  211.0150  152.4790 C   0  0  0  0  0  0  0  0  0  0  0  0
  162.3230  209.5200  151.2210 C   0  0  0  0  0  2  0  0  0  0  0  0
  161.0610  207.7740  154.1230 O   0  0  0  0  0  0  0  0  0  0  0  0
  160.6220  211.5910  155.4780 C   0  0  1  0  0  3  0  0  0  0  0  0
  161.2060  208.6960  153.2730 C   0  0  0  0  0  0  0  0  0  0  0  0
  159.7060  212.6530  155.0190 C   0  0  0  0  0  0  0  0  0  0  0  0
  158.6710  214.0640  153.1890 C   0  0  1  0  0  3  0  0  0  0  0  0
  161.8100  208.4090  152.0100 N   0  0  0  0  0  0  0  0  0  0  0  0
  160.7530  210.0330  153.5600 N   0  0  0  0  0  0  0  0  0  0  0  0
  161.6810  212.0930  147.7640 C   0  0  0  0  0  3  0  0  0  0  0  0
  159.1100  213.2600  156.0320 C   0  0  0  0  0  3  0  0  0  0  0  0
  160.4340  211.6640  156.9570 C   0  0  0  0  0  3  0  0  0  0  0  0
  162.6210  210.1340  148.6660 F   0  0  0  0  0  0  0  0  0  0  0  0
  159.8690  213.0320  151.4190 C   0  0  0  0  0  0  0  0  0  0  0  0
  160.9020  213.2420  147.8790 C   0  0  0  0  0  3  0  0  0  0  0  0
  161.2520  211.5360  150.1050 C   0  0  0  0  0  0  0  0  0  0  0  0
  160.0200  212.2460  152.5340 C   0  0  0  0  0  0  0  0  0  0  0  0
  157.1710  213.8620  153.3170 C   0  0  0  0  0  1  0  0  0  0  0  0
  159.3740  212.8650  153.6450 N   0  0  0  0  0  0  0  0  0  0  0  0
  159.5850  212.6370  157.2600 C   0  0  0  0  0  3  0  0  0  0  0  0
  158.7070  209.9430  154.9450 C   0  0  0  0  0  1  0  0  0  0  0  0
  160.2950  213.5500  149.0930 C   0  0  0  0  0  3  0  0  0  0  0  0
  160.4610  212.7100  150.2020 C   0  0  0  0  0  0  0  0  0  0  0  0
  160.2050  210.2460  154.9020 C   0  0  2  0  0  3  0  0  0  0  0  0
  162.0870  207.0240  151.6310 C   0  0  0  0  0  2  0  0  0  0  0  0
  161.2180  205.0300  151.2570 C   0  0  0  0  0  1  0  0  0  0  0  0
  160.9400  206.3910  151.1460 O   0  0  0  0  0  0  0  0  0  0  0  0
  1  4  1  0  0  0  0
  2 19  1  0  0  0  0
  3 10  1  0  0  0  0
  4 20  2  0  0  0  0
  4 12  1  0  0  0  0
  5  1  1  0  0  0  0
  5 11  1  0  0  0  0
  7 15  1  1  0  0  0
  8 12  1  0  0  0  0
  8  6  2  0  0  0  0
  9  7  1  0  0  0  0
  9 14  2  0  0  0  0
 10 21  1  6  0  0  0
 10 22  1  0  0  0  0
 11  8  1  0  0  0  0
 12 27  1  0  0  0  0
 13 18  1  0  0  0  0
 13  2  2  0  0  0  0
 14 23  1  0  0  0  0
 15 23  2  0  0  0  0
 16  2  1  0  0  0  0
 17  3  1  0  0  0  0
 17 20  1  0  0  0  0
 18 25  2  0  0  0  0
 19 26  1  0  0  0  0
 19  1  2  0  0  0  0
 20 22  1  0  0  0  0
 22  9  1  0  0  0  0
 25 26  1  0  0  0  0
 26 17  2  0  0  0  0
 27 24  1  6  0  0  0
 27  7  1  0  0  0  0
 28 11  1  0  0  0  0
 30 29  1  0  0  0  0
 30 28  1  0  0  0  0
M  END
>  <MODEL>
5

>  <REMARK>
 VINA RESULT:      -5.7      2.971      6.233
  Name = 
  2 active torsions:
  status: ('A' for Active; 'I' for Inactive)
    1  A    between atoms: N_11  and  C_28
    2  A    between atoms: C_28  and  O_30
                            x       y       z     vdW  Elec       q    Type
                         _______ _______ _______ _____ _____    ______ ____

>  <TORSDO>
F 2

$$$$
=
 OpenBabel11122412323D

 30 35  0  0  1  0  0  0  0  0999 V2000
  161.1240  207.6130  151.1840 C   0  0  0  0  0  0  0  0  0  0  0  0
  161.4270  205.3370  150.1900 C   0  0  0  0  0  0  0  0  0  0  0  0
  160.6570  205.9690  155.0980 C   0  0  0  0  0  2  0  0  0  0  0  0
  160.9350  208.4370  152.3330 C   0  0  0  0  0  0  0  0  0  0  0  0
  161.1240  208.2600  149.8270 C   0  0  0  0  0  2  0  0  0  0  0  0
  161.8690  211.6430  150.8590 O   0  0  0  0  0  0  0  0  0  0  0  0
  159.5000  210.5640  153.9930 C   0  0  1  0  0  3  0  0  0  0  0  0
  161.5820  210.4170  150.9550 C   0  0  0  0  0  0  0  0  0  0  0  0
  159.7480  209.5810  155.0660 C   0  0  0  0  0  0  0  0  0  0  0  0
  160.4310  207.2770  155.8610 C   0  0  1  0  0  3  0  0  0  0  0  0
  161.8070  209.5450  149.8460 N   0  0  0  0  0  0  0  0  0  0  0  0
  161.0440  209.8870  152.1820 N   0  0  0  0  0  0  0  0  0  0  0  0
  161.5140  203.9540  150.3690 C   0  0  0  0  0  3  0  0  0  0  0  0
  159.4360  210.0650  156.2580 C   0  0  0  0  0  3  0  0  0  0  0  0
  159.0070  211.7340  154.7780 C   0  0  0  0  0  3  0  0  0  0  0  0
  161.5770  205.8140  148.9290 F   0  0  0  0  0  0  0  0  0  0  0  0
  160.8460  206.4150  153.6890 C   0  0  0  0  0  0  0  0  0  0  0  0
  161.3860  203.3920  151.6360 C   0  0  0  0  0  3  0  0  0  0  0  0
  161.2080  206.1930  151.3020 C   0  0  0  0  0  0  0  0  0  0  0  0
  160.7370  207.7790  153.5780 C   0  0  0  0  0  0  0  0  0  0  0  0
  161.5820  207.5020  156.8270 C   0  0  0  0  0  1  0  0  0  0  0  0
  160.4160  208.3350  154.8510 N   0  0  0  0  0  0  0  0  0  0  0  0
  158.9550  211.4270  156.0670 C   0  0  0  0  0  3  0  0  0  0  0  0
  162.0280  211.0780  154.1120 C   0  0  0  0  0  1  0  0  0  0  0  0
  161.1700  204.2120  152.7400 C   0  0  0  0  0  3  0  0  0  0  0  0
  161.0820  205.6010  152.5850 C   0  0  0  0  0  0  0  0  0  0  0  0
  160.7880  210.8650  153.2410 C   0  0  2  0  0  3  0  0  0  0  0  0
  162.5370  210.0280  148.6730 C   0  0  0  0  0  2  0  0  0  0  0  0
  162.7410  212.0760  147.8750 C   0  0  0  0  0  1  0  0  0  0  0  0
  161.8270  211.0330  148.0120 O   0  0  0  0  0  0  0  0  0  0  0  0
  1 19  2  0  0  0  0
  1  4  1  0  0  0  0
  2 13  2  0  0  0  0
  2 19  1  0  0  0  0
  3 10  1  0  0  0  0
  4 20  2  0  0  0  0
  5 11  1  0  0  0  0
  5  1  1  0  0  0  0
  6  8  2  0  0  0  0
  7 15  1  1  0  0  0
  7  9  1  0  0  0  0
  8 12  1  0  0  0  0
  9 14  2  0  0  0  0
 10 21  1  1  0  0  0
 11  8  1  0  0  0  0
 12  4  1  0  0  0  0
 12 27  1  0  0  0  0
 13 18  1  0  0  0  0
 15 23  2  0  0  0  0
 16  2  1  0  0  0  0
 17  3  1  0  0  0  0
 18 25  2  0  0  0  0
 19 26  1  0  0  0  0
 20 17  1  0  0  0  0
 20 22  1  0  0  0  0
 22  9  1  0  0  0  0
 22 10  1  0  0  0  0
 23 14  1  0  0  0  0
 26 25  1  0  0  0  0
 26 17  2  0  0  0  0
 27  7  1  0  0  0  0
 27 24  1  1  0  0  0
 28 11  1  0  0  0  0
 29 30  1  0  0  0  0
 30 28  1  0  0  0  0
M  END
>  <MODEL>
6

>  <REMARK>
 VINA RESULT:      -5.5      1.825      2.387
  Name = 
  2 active torsions:
  status: ('A' for Active; 'I' for Inactive)
    1  A    between atoms: N_11  and  C_28
    2  A    between atoms: C_28  and  O_30
                            x       y       z     vdW  Elec       q    Type
                         _______ _______ _______ _____ _____    ______ ____

>  <TORSDO>
F 2

$$$$
=
 OpenBabel11122412323D

 30 35  0  0  1  0  0  0  0  0999 V2000
  159.7490  211.3910  153.2820 C   0  0  0  0  0  0  0  0  0  0  0  0
  159.6870  209.8480  155.2490 C   0  0  0  0  0  0  0  0  0  0  0  0
  162.1220  208.6330  151.0450 C   0  0  0  0  0  2  0  0  0  0  0  0
  160.1500  211.6550  151.9380 C   0  0  0  0  0  0  0  0  0  0  0  0
  159.0490  212.4790  154.0500 C   0  0  0  0  0  2  0  0  0  0  0  0
  157.9120  214.4530  151.2440 O   0  0  0  0  0  0  0  0  0  0  0  0
  161.5110  213.2800  149.7370 C   0  0  1  0  0  3  0  0  0  0  0  0
  158.5230  213.5480  151.8780 C   0  0  0  0  0  0  0  0  0  0  0  0
  161.9680  211.9370  149.3300 C   0  0  0  0  0  0  0  0  0  0  0  0
  162.2780  209.4630  149.7680 C   0  0  1  0  0  3  0  0  0  0  0  0
  158.1180  213.2150  153.2070 N   0  0  0  0  0  0  0  0  0  0  0  0
  159.6160  212.8380  151.2660 N   0  0  0  0  0  0  0  0  0  0  0  0
  160.0410  208.6250  155.8240 C   0  0  0  0  0  3  0  0  0  0  0  0
  162.5830  211.9600  148.1590 C   0  0  0  0  0  3  0  0  0  0  0  0
  161.9470  214.1020  148.5690 C   0  0  0  0  0  3  0  0  0  0  0  0
  158.9370  210.6950  155.9990 F   0  0  0  0  0  0  0  0  0  0  0  0
  161.2870  209.5000  151.9240 C   0  0  0  0  0  0  0  0  0  0  0  0
  160.7970  207.6970  155.1110 C   0  0  0  0  0  3  0  0  0  0  0  0
  160.0920  210.1650  153.9260 C   0  0  0  0  0  0  0  0  0  0  0  0
  160.9840  210.6890  151.3090 C   0  0  0  0  0  0  0  0  0  0  0  0
  161.5820  208.7540  148.6190 C   0  0  0  0  0  1  0  0  0  0  0  0
  161.6200  210.7420  150.0340 N   0  0  0  0  0  0  0  0  0  0  0  0
  162.5780  213.3390  147.6870 C   0  0  0  0  0  3  0  0  0  0  0  0
  159.1920  212.5750  148.8450 C   0  0  0  0  0  1  0  0  0  0  0  0
  161.2050  207.9870  153.8120 C   0  0  0  0  0  3  0  0  0  0  0  0
  160.8600  209.2070  153.2150 C   0  0  0  0  0  0  0  0  0  0  0  0
  160.0010  213.2910  149.9280 C   0  0  2  0  0  3  0  0  0  0  0  0
  156.8890  213.7840  153.7610 C   0  0  0  0  0  2  0  0  0  0  0  0
  155.6090  213.3080  155.4950 C   0  0  0  0  0  1  0  0  0  0  0  0
  156.0580  212.7890  154.2810 O   0  0  0  0  0  0  0  0  0  0  0  0
  1 19  1  0  0  0  0
  1  5  1  0  0  0  0
  2 13  1  0  0  0  0
  2 16  1  0  0  0  0
  3 17  1  0  0  0  0
  4  1  2  0  0  0  0
  6  8  2  0  0  0  0
  7 15  1  6  0  0  0
  7 27  1  0  0  0  0
  8 11  1  0  0  0  0
  9  7  1  0  0  0  0
  9 22  1  0  0  0  0
 10 21  1  6  0  0  0
 10 22  1  0  0  0  0
 10  3  1  0  0  0  0
 11 28  1  0  0  0  0
 11  5  1  0  0  0  0
 12  8  1  0  0  0  0
 12  4  1  0  0  0  0
 14  9  2  0  0  0  0
 17 26  1  0  0  0  0
 18 13  2  0  0  0  0
 19  2  2  0  0  0  0
 20 17  2  0  0  0  0
 20  4  1  0  0  0  0
 22 20  1  0  0  0  0
 23 14  1  0  0  0  0
 23 15  2  0  0  0  0
 25 18  1  0  0  0  0
 26 25  2  0  0  0  0
 26 19  1  0  0  0  0
 27 24  1  6  0  0  0
 27 12  1  0  0  0  0
 28 30  1  0  0  0  0
 30 29  1  0  0  0  0
M  END
>  <MODEL>
7

>  <REMARK>
 VINA RESULT:      -4.9      4.059      6.909
  Name = 
  2 active torsions:
  status: ('A' for Active; 'I' for Inactive)
    1  A    between atoms: N_11  and  C_28
    2  A    between atoms: C_28  and  O_30
                            x       y       z     vdW  Elec       q    Type
                         _______ _______ _______ _____ _____    ______ ____

>  <TORSDO>
F 2

$$$$
=
 OpenBabel11122412323D

 30 35  0  0  1  0  0  0  0  0999 V2000
  161.4140  209.5630  151.9030 C   0  0  0  0  0  0  0  0  0  0  0  0
  162.1540  209.5370  149.5140 C   0  0  0  0  0  0  0  0  0  0  0  0
  159.8380  213.5110  151.4940 C   0  0  0  0  0  2  0  0  0  0  0  0
  160.7560  210.2290  152.9790 C   0  0  0  0  0  0  0  0  0  0  0  0
  162.0760  208.2400  152.1740 C   0  0  0  0  0  2  0  0  0  0  0  0
  160.2770  207.3590  155.1830 O   0  0  0  0  0  0  0  0  0  0  0  0
  160.5660  211.3750  155.8050 C   0  0  1  0  0  3  0  0  0  0  0  0
  160.6720  208.0560  154.2070 C   0  0  0  0  0  0  0  0  0  0  0  0
  159.9290  212.4890  155.0760 C   0  0  0  0  0  0  0  0  0  0  0  0
  159.3440  213.7000  152.9310 C   0  0  1  0  0  3  0  0  0  0  0  0
  161.2870  207.4220  153.0840 N   0  0  0  0  0  0  0  0  0  0  0  0
  160.4940  209.4860  154.2100 N   0  0  0  0  0  0  0  0  0  0  0  0
  162.2320  210.1830  148.2770 C   0  0  0  0  0  3  0  0  0  0  0  0
  159.4070  213.3830  155.9000 C   0  0  0  0  0  3  0  0  0  0  0  0
  160.2970  211.7640  157.2220 C   0  0  0  0  0  3  0  0  0  0  0  0
  162.6720  208.2860  149.5980 F   0  0  0  0  0  0  0  0  0  0  0  0
  160.4150  212.1370  151.5020 C   0  0  0  0  0  0  0  0  0  0  0  0
  161.7090  211.4620  148.1090 C   0  0  0  0  0  3  0  0  0  0  0  0
  161.5360  210.1760  150.6200 C   0  0  0  0  0  0  0  0  0  0  0  0
  160.3190  211.5630  152.7450 C   0  0  0  0  0  0  0  0  0  0  0  0
  157.8300  213.8240  152.9310 C   0  0  0  0  0  1  0  0  0  0  0  0
  159.7440  212.4960  153.6580 N   0  0  0  0  0  0  0  0  0  0  0  0
  159.6550  212.9240  157.2610 C   0  0  0  0  0  3  0  0  0  0  0  0
  158.3860  210.0640  155.3630 C   0  0  0  0  0  1  0  0  0  0  0  0
  161.0990  212.1080  149.1810 C   0  0  0  0  0  3  0  0  0  0  0  0
  161.0070  211.4790  150.4290 C   0  0  0  0  0  0  0  0  0  0  0  0
  159.9130  210.0530  155.4280 C   0  0  2  0  0  3  0  0  0  0  0  0
  161.2890  205.9620  152.9800 C   0  0  0  0  0  2  0  0  0  0  0  0
  161.4960  204.1860  151.6870 C   0  0  0  0  0  1  0  0  0  0  0  0
  161.8140  205.5420  151.7550 O   0  0  0  0  0  0  0  0  0  0  0  0
  1  5  1  0  0  0  0
  1  4  1  0  0  0  0
  2 16  1  0  0  0  0
  2 19  1  0  0  0  0
  3 17  1  0  0  0  0
  3 10  1  0  0  0  0
  4 12  1  0  0  0  0
  5 11  1  0  0  0  0
  7 15  1  1  0  0  0
  8 12  1  0  0  0  0
  8  6  2  0  0  0  0
  9  7  1  0  0  0  0
  9 14  2  0  0  0  0
 10 21  1  6  0  0  0
 10 22  1  0  0  0  0
 11  8  1  0  0  0  0
 12 27  1  0  0  0  0
 13  2  2  0  0  0  0
 14 23  1  0  0  0  0
 15 23  2  0  0  0  0
 17 20  1  0  0  0  0
 18 13  1  0  0  0  0
 18 25  2  0  0  0  0
 19  1  2  0  0  0  0
 20  4  2  0  0  0  0
 20 22  1  0  0  0  0
 22  9  1  0  0  0  0
 25 26  1  0  0  0  0
 26 19  1  0  0  0  0
 26 17  2  0  0  0  0
 27 24  1  6  0  0  0
 27  7  1  0  0  0  0
 28 11  1  0  0  0  0
 29 30  1  0  0  0  0
 30 28  1  0  0  0  0
M  END
>  <MODEL>
8

>  <REMARK>
 VINA RESULT:      -4.8      2.677      5.807
  Name = 
  2 active torsions:
  status: ('A' for Active; 'I' for Inactive)
    1  A    between atoms: N_11  and  C_28
    2  A    between atoms: C_28  and  O_30
                            x       y       z     vdW  Elec       q    Type
                         _______ _______ _______ _____ _____    ______ ____

>  <TORSDO>
F 2

$$$$
=
 OpenBabel11122412323D

 30 35  0  0  1  0  0  0  0  0999 V2000
  160.5920  210.4700  151.6480 C   0  0  0  0  0  0  0  0  0  0  0  0
  161.9430  208.7010  150.5060 C   0  0  0  0  0  0  0  0  0  0  0  0
  160.4240  208.1820  155.2500 C   0  0  0  0  0  2  0  0  0  0  0  0
  159.9430  210.9550  152.8220 C   0  0  0  0  0  0  0  0  0  0  0  0
  160.4730  211.2680  150.3790 C   0  0  0  0  0  2  0  0  0  0  0  0
  159.5910  214.4530  151.8420 O   0  0  0  0  0  0  0  0  0  0  0  0
  157.5620  212.0270  154.4100 C   0  0  1  0  0  3  0  0  0  0  0  0
  159.8420  213.2180  151.7700 C   0  0  0  0  0  0  0  0  0  0  0  0
  158.0790  211.0730  155.4100 C   0  0  0  0  0  0  0  0  0  0  0  0
  159.5790  209.1480  156.0850 C   0  0  1  0  0  3  0  0  0  0  0  0
  160.5400  212.6990  150.6370 N   0  0  0  0  0  0  0  0  0  0  0  0
  159.4430  212.3280  152.8310 N   0  0  0  0  0  0  0  0  0  0  0  0
  162.5870  207.4620  150.5640 C   0  0  0  0  0  3  0  0  0  0  0  0
  157.4580  211.1940  156.5730 C   0  0  0  0  0  3  0  0  0  0  0  0
  156.5340  212.7580  155.2090 C   0  0  0  0  0  3  0  0  0  0  0  0
  162.0190  209.3900  149.3400 F   0  0  0  0  0  0  0  0  0  0  0  0
  160.5650  208.8830  153.9430 C   0  0  0  0  0  0  0  0  0  0  0  0
  162.5660  206.7040  151.7310 C   0  0  0  0  0  3  0  0  0  0  0  0
  161.2570  209.2070  151.6420 C   0  0  0  0  0  0  0  0  0  0  0  0
  159.9020  210.0850  153.9460 C   0  0  0  0  0  0  0  0  0  0  0  0
  160.4070  209.6640  157.2490 C   0  0  0  0  0  1  0  0  0  0  0  0
  159.2320  210.2550  155.1940 N   0  0  0  0  0  0  0  0  0  0  0  0
  156.4700  212.2550  156.4350 C   0  0  0  0  0  3  0  0  0  0  0  0
  159.6020  213.4950  155.0050 C   0  0  0  0  0  1  0  0  0  0  0  0
  161.8980  207.1800  152.8560 C   0  0  0  0  0  3  0  0  0  0  0  0
  161.2480  208.4200  152.8220 C   0  0  0  0  0  0  0  0  0  0  0  0
  158.6780  212.9380  153.9200 C   0  0  2  0  0  3  0  0  0  0  0  0
  161.1250  213.6150  149.6570 C   0  0  0  0  0  2  0  0  0  0  0  0
  162.4770  213.8920  147.9350 C   0  0  0  0  0  1  0  0  0  0  0  0
  161.7590  212.9180  148.6260 O   0  0  0  0  0  0  0  0  0  0  0  0
  1  4  1  0  0  0  0
  2 13  2  0  0  0  0
  2 19  1  0  0  0  0
  3 10  1  0  0  0  0
  4 12  1  0  0  0  0
  4 20  2  0  0  0  0
  5 11  1  0  0  0  0
  5  1  1  0  0  0  0
  7 15  1  1  0  0  0
  7  9  1  0  0  0  0
  8  6  2  0  0  0  0
  8 12  1  0  0  0  0
  9 14  2  0  0  0  0
 10 21  1  1  0  0  0
 11  8  1  0  0  0  0
 12 27  1  0  0  0  0
 13 18  1  0  0  0  0
 15 23  2  0  0  0  0
 16  2  1  0  0  0  0
 17 20  1  0  0  0  0
 17  3  1  0  0  0  0
 18 25  2  0  0  0  0
 19  1  2  0  0  0  0
 19 26  1  0  0  0  0
 20 22  1  0  0  0  0
 22  9  1  0  0  0  0
 22 10  1  0  0  0  0
 23 14  1  0  0  0  0
 26 25  1  0  0  0  0
 26 17  2  0  0  0  0
 27  7  1  0  0  0  0
 27 24  1  1  0  0  0
 28 11  1  0  0  0  0
 29 30  1  0  0  0  0
 30 28  1  0  0  0  0
M  END
>  <MODEL>
9

>  <REMARK>
 VINA RESULT:      -4.5      3.203      4.773
  Name = 
  2 active torsions:
  status: ('A' for Active; 'I' for Inactive)
    1  A    between atoms: N_11  and  C_28
    2  A    between atoms: C_28  and  O_30
                            x       y       z     vdW  Elec       q    Type
                         _______ _______ _______ _____ _____    ______ ____

>  <TORSDO>
F 2

$$$$
