=
 OpenBabel11122414243D

 34 41  0  0  1  0  0  0  0  0999 V2000
  161.2050  204.8290  151.7010 C   0  0  0  0  0  0  0  0  0  0  0  0
  160.2040  206.4260  153.3920 C   0  0  0  0  0  2  0  0  0  0  0  0
  160.9830  203.8240  145.3110 C   0  0  0  0  0  0  0  0  0  0  0  0
  161.4150  203.5030  149.6990 C   0  0  0  0  0  0  0  0  0  0  0  0
  161.8940  204.5060  147.5070 C   0  0  0  0  0  0  0  0  0  0  0  0
  162.1430  205.7940  145.3560 C   0  0  0  0  0  2  0  0  0  0  0  0
  160.8210  205.3150  144.2770 S   0  0  0  0  0  0  0  0  0  0  0  0
  160.7340  201.7490  146.4320 C   0  0  0  0  0  3  0  0  0  0  0  0
  161.7710  207.2880  151.7760 C   0  0  1  0  0  3  0  0  0  0  0  0
  162.6520  210.0530  151.2270 C   0  0  0  0  0  2  0  0  0  0  0  0
  162.3120  205.7590  148.2440 C   0  0  0  0  0  2  0  0  0  0  0  0
  161.2520  202.0610  147.6310 C   0  0  0  0  0  3  0  0  0  0  0  0
  162.0340  207.2340  150.2420 C   0  0  1  0  0  3  0  0  0  0  0  0
  160.2240  207.9450  153.5180 C   0  0  0  0  0  2  0  0  0  0  0  0
  161.5390  203.4020  148.2200 C   0  0  0  0  0  0  0  0  0  0  0  0
  160.3710  202.6970  145.4240 N   0  0  0  0  0  0  0  0  0  0  0  0
  161.7060  209.7460  152.4070 C   0  0  1  0  0  3  0  0  0  0  0  0
  161.4240  204.7580  150.3260 C   0  0  0  0  0  0  0  0  0  0  0  0
  162.1510  204.4550  146.0220 C   0  0  2  0  0  3  0  0  0  0  0  0
  161.4680  206.0130  149.4940 C   0  0  2  0  0  3  0  0  0  0  0  0
  161.0500  202.4570  151.7780 N   0  0  0  0  0  0  0  0  0  0  0  0
  162.0140  209.7550  149.9000 C   0  0  0  0  0  3  0  0  0  0  0  0
  161.2350  202.3860  150.4580 N   0  0  0  0  0  0  0  0  0  0  0  0
  161.7270  208.5110  149.4810 C   0  0  0  0  0  3  0  0  0  0  0  0
  160.9060  208.4380  152.2470 C   0  0  1  0  0  3  0  0  0  0  0  0
  161.0200  203.6510  152.4250 C   0  0  0  0  0  3  0  0  0  0  0  0
  161.1500  206.1040  152.3370 N   0  0  0  0  0  0  0  0  0  0  0  0
  162.3170  209.9070  153.6730 O   0  0  0  0  0  0  0  0  0  0  0  0
  161.7030  210.9770  154.3510 C   0  0  0  0  0  2  0  0  0  0  0  0
  159.9250  209.3800  156.6980 O   0  0  0  0  0  0  0  0  0  0  0  0
  162.2320  209.3890  156.1990 C   0  0  0  0  0  2  0  0  0  0  0  0
  161.6770  210.7400  155.8580 C   0  0  2  0  0  3  0  0  0  0  0  0
  161.1380  208.7580  157.0250 C   0  0  0  0  0  2  0  0  0  0  0  0
  160.2590  210.7070  156.3870 C   0  0  0  0  0  2  0  0  0  0  0  0
  1 27  1  0  0  0  0
  1 26  1  0  0  0  0
  2 14  1  0  0  0  0
  3 16  2  0  0  0  0
  3 19  1  0  0  0  0
  4 18  1  0  0  0  0
  4 23  2  0  0  0  0
  5 15  2  0  0  0  0
  5 11  1  0  0  0  0
  7  3  1  0  0  0  0
  7  6  1  0  0  0  0
  8 12  2  0  0  0  0
  9 25  1  0  0  0  0
  9 27  1  6  0  0  0
 10 17  1  0  0  0  0
 12 15  1  0  0  0  0
 13 24  1  6  0  0  0
 13  9  1  0  0  0  0
 15  4  1  0  0  0  0
 16  8  1  0  0  0  0
 17 28  1  1  0  0  0
 18  1  2  0  0  0  0
 19  6  1  6  0  0  0
 19  5  1  0  0  0  0
 20 11  1  6  0  0  0
 20 13  1  0  0  0  0
 20 18  1  0  0  0  0
 21 26  2  0  0  0  0
 22 10  1  0  0  0  0
 23 21  1  0  0  0  0
 24 22  2  0  0  0  0
 25 17  1  0  0  0  0
 25 14  1  1  0  0  0
 27  2  1  0  0  0  0
 28 29  1  0  0  0  0
 30 33  1  0  0  0  0
 31 33  1  0  0  0  0
 32 29  1  6  0  0  0
 32 31  1  0  0  0  0
 32 34  1  0  0  0  0
 34 30  1  0  0  0  0
M  END
>  <MODEL>
1

>  <REMARK>
 VINA RESULT:      -8.8      0.000      0.000
  Name = 
  3 active torsions:
  status: ('A' for Active; 'I' for Inactive)
    1  A    between atoms: C_17  and  O_28
    2  A    between atoms: O_28  and  C_29
    3  A    between atoms: C_29  and  C_32
                            x       y       z     vdW  Elec       q    Type
                         _______ _______ _______ _____ _____    ______ ____

>  <TORSDO>
F 3

$$$$
=
 OpenBabel11122414243D

 34 41  0  0  1  0  0  0  0  0999 V2000
  161.7710  208.4810  149.3240 C   0  0  0  0  0  0  0  0  0  0  0  0
  160.9230  207.3470  147.2240 C   0  0  0  0  0  2  0  0  0  0  0  0
  159.9960  209.0760  155.5200 C   0  0  0  0  0  0  0  0  0  0  0  0
  161.7290  209.5560  151.4820 C   0  0  0  0  0  0  0  0  0  0  0  0
  161.2930  208.3130  153.5560 C   0  0  0  0  0  0  0  0  0  0  0  0
  160.5850  206.8660  155.4930 C   0  0  0  0  0  2  0  0  0  0  0  0
  159.1760  207.6250  156.2540 S   0  0  0  0  0  0  0  0  0  0  0  0
  160.6100  211.2070  154.6800 C   0  0  0  0  0  3  0  0  0  0  0  0
  161.6940  205.9720  149.0470 C   0  0  1  0  0  3  0  0  0  0  0  0
  161.6540  203.0410  149.4030 C   0  0  0  0  0  2  0  0  0  0  0  0
  161.5730  207.0460  152.7800 C   0  0  0  0  0  2  0  0  0  0  0  0
  161.3530  210.8420  153.6220 C   0  0  0  0  0  3  0  0  0  0  0  0
  161.5130  205.8470  150.5880 C   0  0  1  0  0  3  0  0  0  0  0  0
  160.5950  205.8970  146.8920 C   0  0  0  0  0  2  0  0  0  0  0  0
  161.4470  209.5180  152.9410 C   0  0  0  0  0  0  0  0  0  0  0  0
  159.7480  210.3340  155.4160 N   0  0  0  0  0  0  0  0  0  0  0  0
  161.1940  203.6810  148.0760 C   0  0  1  0  0  3  0  0  0  0  0  0
  161.5990  208.3940  150.7050 C   0  0  0  0  0  0  0  0  0  0  0  0
  161.1200  208.1900  155.0490 C   0  0  2  0  0  3  0  0  0  0  0  0
  161.0850  207.1250  151.3330 C   0  0  2  0  0  3  0  0  0  0  0  0
  162.2480  210.7990  149.5490 N   0  0  0  0  0  0  0  0  0  0  0  0
  160.7610  203.4170  150.5510 C   0  0  0  0  0  3  0  0  0  0  0  0
  162.0610  210.7260  150.8690 N   0  0  0  0  0  0  0  0  0  0  0  0
  160.6900  204.6610  151.0560 C   0  0  0  0  0  3  0  0  0  0  0  0
  160.7380  205.1470  148.2110 C   0  0  1  0  0  3  0  0  0  0  0  0
  162.1040  209.7080  148.7520 C   0  0  0  0  0  3  0  0  0  0  0  0
  161.5790  207.3180  148.5200 N   0  0  0  0  0  0  0  0  0  0  0  0
  162.0790  203.4390  147.0000 O   0  0  0  0  0  0  0  0  0  0  0  0
  161.3460  202.9600  145.8970 C   0  0  0  0  0  2  0  0  0  0  0  0
  160.3900  199.9960  144.6610 O   0  0  0  0  0  0  0  0  0  0  0  0
  161.3960  200.6020  146.7080 C   0  0  0  0  0  2  0  0  0  0  0  0
  160.5160  201.7350  146.2690 C   0  0  2  0  0  3  0  0  0  0  0  0
  160.9680  199.4600  145.8200 C   0  0  0  0  0  2  0  0  0  0  0  0
  159.7720  201.1880  145.0700 C   0  0  0  0  0  2  0  0  0  0  0  0
  1 18  1  0  0  0  0
  2 27  1  0  0  0  0
  3  7  1  0  0  0  0
  4 15  1  0  0  0  0
  5 19  1  0  0  0  0
  6  7  1  0  0  0  0
  8 16  1  0  0  0  0
  9 27  1  6  0  0  0
  9 13  1  0  0  0  0
 10 22  1  0  0  0  0
 11  5  1  0  0  0  0
 12  8  2  0  0  0  0
 13 24  1  6  0  0  0
 13 20  1  0  0  0  0
 14  2  1  0  0  0  0
 15  5  2  0  0  0  0
 15 12  1  0  0  0  0
 16  3  2  0  0  0  0
 17 28  1  6  0  0  0
 17 25  1  0  0  0  0
 17 10  1  0  0  0  0
 18 20  1  0  0  0  0
 18  4  2  0  0  0  0
 19  6  1  6  0  0  0
 19  3  1  0  0  0  0
 20 11  1  1  0  0  0
 21 23  2  0  0  0  0
 22 24  2  0  0  0  0
 23  4  1  0  0  0  0
 25 14  1  6  0  0  0
 25  9  1  0  0  0  0
 26  1  2  0  0  0  0
 26 21  1  0  0  0  0
 27  1  1  0  0  0  0
 29 28  1  0  0  0  0
 30 34  1  0  0  0  0
 30 33  1  0  0  0  0
 32 29  1  6  0  0  0
 32 31  1  0  0  0  0
 33 31  1  0  0  0  0
 34 32  1  0  0  0  0
M  END
>  <MODEL>
2

>  <REMARK>
 VINA RESULT:      -8.3      4.095      9.182
  Name = 
  3 active torsions:
  status: ('A' for Active; 'I' for Inactive)
    1  A    between atoms: C_17  and  O_28
    2  A    between atoms: O_28  and  C_29
    3  A    between atoms: C_29  and  C_32
                            x       y       z     vdW  Elec       q    Type
                         _______ _______ _______ _____ _____    ______ ____

>  <TORSDO>
F 3

$$$$
=
 OpenBabel11122414243D

 34 41  0  0  1  0  0  0  0  0999 V2000
  161.7560  208.4290  150.1780 C   0  0  0  0  0  0  0  0  0  0  0  0
  160.7750  207.2770  148.1480 C   0  0  0  0  0  2  0  0  0  0  0  0
  160.3560  209.1270  156.4590 C   0  0  0  0  0  0  0  0  0  0  0  0
  161.8530  209.5340  152.3190 C   0  0  0  0  0  0  0  0  0  0  0  0
  161.5260  208.3240  154.4340 C   0  0  0  0  0  0  0  0  0  0  0  0
  160.9190  206.9110  156.4290 C   0  0  0  0  0  2  0  0  0  0  0  0
  159.5640  207.6970  157.2610 S   0  0  0  0  0  0  0  0  0  0  0  0
  160.9410  211.2400  155.5540 C   0  0  0  0  0  3  0  0  0  0  0  0
  161.6380  205.9180  149.9420 C   0  0  1  0  0  3  0  0  0  0  0  0
  161.5880  202.9920  150.3420 C   0  0  0  0  0  2  0  0  0  0  0  0
  161.7470  207.0430  153.6600 C   0  0  0  0  0  2  0  0  0  0  0  0
  161.6160  210.8530  154.4600 C   0  0  0  0  0  3  0  0  0  0  0  0
  161.5460  205.8150  151.4930 C   0  0  1  0  0  3  0  0  0  0  0  0
  160.4130  205.8260  147.8570 C   0  0  0  0  0  2  0  0  0  0  0  0
  161.6570  209.5190  153.7940 C   0  0  0  0  0  0  0  0  0  0  0  0
  160.1140  210.3870  156.3520 N   0  0  0  0  0  0  0  0  0  0  0  0
  161.0570  203.6190  149.0350 C   0  0  1  0  0  3  0  0  0  0  0  0
  161.6650  208.3630  151.5680 C   0  0  0  0  0  0  0  0  0  0  0  0
  161.4410  208.2230  155.9360 C   0  0  2  0  0  3  0  0  0  0  0  0
  161.1760  207.1080  152.2430 C   0  0  2  0  0  3  0  0  0  0  0  0
  162.2700  210.7440  150.3420 N   0  0  0  0  0  0  0  0  0  0  0  0
  160.7680  203.3940  151.5350 C   0  0  0  0  0  3  0  0  0  0  0  0
  162.1600  210.6920  151.6710 N   0  0  0  0  0  0  0  0  0  0  0  0
  160.7390  204.6450  152.0250 C   0  0  0  0  0  3  0  0  0  0  0  0
  160.6250  205.0930  149.1750 C   0  0  1  0  0  3  0  0  0  0  0  0
  162.0680  209.6450  149.5710 C   0  0  0  0  0  3  0  0  0  0  0  0
  161.5050  207.2580  149.4040 N   0  0  0  0  0  0  0  0  0  0  0  0
  161.8750  203.3530  147.9120 O   0  0  0  0  0  0  0  0  0  0  0  0
  161.0940  202.7610  146.9000 C   0  0  0  0  0  2  0  0  0  0  0  0
  160.5380  205.2060  144.6790 O   0  0  0  0  0  0  0  0  0  0  0  0
  162.5270  204.3440  145.6130 C   0  0  0  0  0  2  0  0  0  0  0  0
  161.5360  203.2230  145.5150 C   0  0  2  0  0  3  0  0  0  0  0  0
  161.9210  205.4260  144.7530 C   0  0  0  0  0  2  0  0  0  0  0  0
  160.3790  203.8130  144.7360 C   0  0  0  0  0  2  0  0  0  0  0  0
  1 18  1  0  0  0  0
  2 27  1  0  0  0  0
  3  7  1  0  0  0  0
  4 15  1  0  0  0  0
  5 19  1  0  0  0  0
  6  7  1  0  0  0  0
  8 16  1  0  0  0  0
  9 27  1  1  0  0  0
  9 13  1  0  0  0  0
 10 22  1  0  0  0  0
 11  5  1  0  0  0  0
 12  8  2  0  0  0  0
 13 24  1  6  0  0  0
 13 20  1  0  0  0  0
 14  2  1  0  0  0  0
 15  5  2  0  0  0  0
 15 12  1  0  0  0  0
 16  3  2  0  0  0  0
 17 28  1  6  0  0  0
 17 25  1  0  0  0  0
 17 10  1  0  0  0  0
 18 20  1  0  0  0  0
 18  4  2  0  0  0  0
 19  6  1  6  0  0  0
 19  3  1  0  0  0  0
 20 11  1  1  0  0  0
 21 23  2  0  0  0  0
 22 24  2  0  0  0  0
 23  4  1  0  0  0  0
 25 14  1  6  0  0  0
 25  9  1  0  0  0  0
 26  1  2  0  0  0  0
 26 21  1  0  0  0  0
 27  1  1  0  0  0  0
 29 28  1  0  0  0  0
 30 34  1  0  0  0  0
 30 33  1  0  0  0  0
 32 31  1  0  0  0  0
 32 29  1  1  0  0  0
 33 31  1  0  0  0  0
 34 32  1  0  0  0  0
M  END
>  <MODEL>
3

>  <REMARK>
 VINA RESULT:      -8.0      3.850      9.007
  Name = 
  3 active torsions:
  status: ('A' for Active; 'I' for Inactive)
    1  A    between atoms: C_17  and  O_28
    2  A    between atoms: O_28  and  C_29
    3  A    between atoms: C_29  and  C_32
                            x       y       z     vdW  Elec       q    Type
                         _______ _______ _______ _____ _____    ______ ____

>  <TORSDO>
F 3

$$$$
=
 OpenBabel11122414243D

 34 41  0  0  1  0  0  0  0  0999 V2000
  161.7930  209.4920  150.9790 C   0  0  0  0  0  0  0  0  0  0  0  0
  162.7850  210.6460  153.0030 C   0  0  0  0  0  2  0  0  0  0  0  0
  161.6410  203.5460  148.4240 C   0  0  0  0  0  0  0  0  0  0  0  0
  161.5440  207.9000  149.1850 C   0  0  0  0  0  0  0  0  0  0  0  0
  160.8370  205.5800  149.5800 C   0  0  0  0  0  0  0  0  0  0  0  0
  160.3390  203.2100  150.2740 C   0  0  0  0  0  2  0  0  0  0  0  0
  161.6150  202.1700  149.6160 S   0  0  0  0  0  0  0  0  0  0  0  0
  162.1260  205.1150  146.7130 C   0  0  0  0  0  3  0  0  0  0  0  0
  161.0470  209.0110  153.3430 C   0  0  1  0  0  3  0  0  0  0  0  0
  159.9190  207.8820  155.8280 C   0  0  0  0  0  2  0  0  0  0  0  0
  160.3770  206.0220  150.9520 C   0  0  0  0  0  2  0  0  0  0  0  0
  161.6710  206.2410  147.2840 C   0  0  0  0  0  3  0  0  0  0  0  0
  160.6810  207.5660  152.8930 C   0  0  1  0  0  3  0  0  0  0  0  0
  162.6570  210.3980  154.5010 C   0  0  0  0  0  2  0  0  0  0  0  0
  161.3250  206.5070  148.7110 C   0  0  0  0  0  0  0  0  0  0  0  0
  162.3430  203.8780  147.3980 N   0  0  0  0  0  0  0  0  0  0  0  0
  160.9670  209.0150  155.8800 C   0  0  1  0  0  3  0  0  0  0  0  0
  161.4840  208.2000  150.5550 C   0  0  0  0  0  0  0  0  0  0  0  0
  160.4810  204.1810  149.1450 C   0  0  2  0  0  3  0  0  0  0  0  0
  161.2850  207.0930  151.5580 C   0  0  2  0  0  3  0  0  0  0  0  0
  162.1350  210.1320  148.7150 N   0  0  0  0  0  0  0  0  0  0  0  0
  160.4840  206.6180  155.2450 C   0  0  0  0  0  3  0  0  0  0  0  0
  161.8630  208.8900  148.3060 N   0  0  0  0  0  0  0  0  0  0  0  0
  160.8360  206.4920  153.9540 C   0  0  0  0  0  3  0  0  0  0  0  0
  161.8520  209.1100  154.6220 C   0  0  1  0  0  3  0  0  0  0  0  0
  162.1180  210.4620  150.0320 C   0  0  0  0  0  3  0  0  0  0  0  0
  161.7950  209.7890  152.3740 N   0  0  0  0  0  0  0  0  0  0  0  0
  160.4360  210.2510  156.3170 O   0  0  0  0  0  0  0  0  0  0  0  0
  159.0360  210.2330  156.1690 C   0  0  0  0  0  2  0  0  0  0  0  0
  159.9650  212.4490  153.8350 O   0  0  0  0  0  0  0  0  0  0  0  0
  157.9990  211.1700  154.1040 C   0  0  0  0  0  2  0  0  0  0  0  0
  158.5350  211.4920  155.4670 C   0  0  2  0  0  3  0  0  0  0  0  0
  158.7660  212.1010  153.1960 C   0  0  0  0  0  2  0  0  0  0  0  0
  159.6650  212.4640  155.2060 C   0  0  0  0  0  2  0  0  0  0  0  0
  1 27  1  0  0  0  0
  2 14  1  0  0  0  0
  3 19  1  0  0  0  0
  3  7  1  0  0  0  0
  4 18  2  0  0  0  0
  5 11  1  0  0  0  0
  7  6  1  0  0  0  0
  8 12  2  0  0  0  0
  8 16  1  0  0  0  0
  9 27  1  6  0  0  0
  9 25  1  0  0  0  0
 10 17  1  0  0  0  0
 12 15  1  0  0  0  0
 13  9  1  0  0  0  0
 13 24  1  1  0  0  0
 15  4  1  0  0  0  0
 15  5  2  0  0  0  0
 16  3  2  0  0  0  0
 17 28  1  6  0  0  0
 18  1  1  0  0  0  0
 18 20  1  0  0  0  0
 19  5  1  0  0  0  0
 19  6  1  1  0  0  0
 20 11  1  6  0  0  0
 20 13  1  0  0  0  0
 21 26  1  0  0  0  0
 22 10  1  0  0  0  0
 23 21  2  0  0  0  0
 23  4  1  0  0  0  0
 24 22  2  0  0  0  0
 25 14  1  6  0  0  0
 25 17  1  0  0  0  0
 26  1  2  0  0  0  0
 27  2  1  0  0  0  0
 29 28  1  0  0  0  0
 30 34  1  0  0  0  0
 31 32  1  0  0  0  0
 32 29  1  6  0  0  0
 33 30  1  0  0  0  0
 33 31  1  0  0  0  0
 34 32  1  0  0  0  0
M  END
>  <MODEL>
4

>  <REMARK>
 VINA RESULT:      -7.8      2.393      4.507
  Name = 
  3 active torsions:
  status: ('A' for Active; 'I' for Inactive)
    1  A    between atoms: C_17  and  O_28
    2  A    between atoms: O_28  and  C_29
    3  A    between atoms: C_29  and  C_32
                            x       y       z     vdW  Elec       q    Type
                         _______ _______ _______ _____ _____    ______ ____

>  <TORSDO>
F 3

$$$$
=
 OpenBabel11122414243D

 34 41  0  0  1  0  0  0  0  0999 V2000
  161.7590  209.0990  150.7920 C   0  0  0  0  0  0  0  0  0  0  0  0
  162.7750  210.4300  152.6920 C   0  0  0  0  0  2  0  0  0  0  0  0
  161.5290  202.9400  148.8170 C   0  0  0  0  0  0  0  0  0  0  0  0
  161.4840  207.3470  149.1590 C   0  0  0  0  0  0  0  0  0  0  0  0
  160.7540  205.0830  149.7770 C   0  0  0  0  0  0  0  0  0  0  0  0
  160.2330  202.7960  150.6960 C   0  0  0  0  0  2  0  0  0  0  0  0
  161.4950  201.6830  150.1350 S   0  0  0  0  0  0  0  0  0  0  0  0
  162.0220  204.3320  146.9620 C   0  0  0  0  0  3  0  0  0  0  0  0
  161.0210  208.8550  153.1940 C   0  0  1  0  0  3  0  0  0  0  0  0
  159.8950  207.9810  155.7810 C   0  0  0  0  0  2  0  0  0  0  0  0
  160.3060  205.6590  151.1030 C   0  0  0  0  0  2  0  0  0  0  0  0
  161.5820  205.5130  147.4250 C   0  0  0  0  0  3  0  0  0  0  0  0
  160.6380  207.3780  152.8860 C   0  0  1  0  0  3  0  0  0  0  0  0
  162.6530  210.3280  154.2070 C   0  0  0  0  0  2  0  0  0  0  0  0
  161.2470  205.9180  148.8210 C   0  0  0  0  0  0  0  0  0  0  0  0
  162.2290  203.1630  147.7610 N   0  0  0  0  0  0  0  0  0  0  0  0
  160.9550  209.1020  155.7200 C   0  0  1  0  0  3  0  0  0  0  0  0
  161.4340  207.7770  150.4940 C   0  0  0  0  0  0  0  0  0  0  0  0
  160.3800  203.6530  149.4790 C   0  0  2  0  0  3  0  0  0  0  0  0
  161.2290  206.7730  151.5990 C   0  0  2  0  0  3  0  0  0  0  0  0
  162.0950  209.5160  148.4760 N   0  0  0  0  0  0  0  0  0  0  0  0
  160.4430  206.6610  155.3180 C   0  0  0  0  0  3  0  0  0  0  0  0
  161.8080  208.2450  148.1880 N   0  0  0  0  0  0  0  0  0  0  0  0
  160.7860  206.4090  154.0440 C   0  0  0  0  0  3  0  0  0  0  0  0
  161.8350  209.0670  154.4540 C   0  0  1  0  0  3  0  0  0  0  0  0
  162.0900  209.9720  149.7550 C   0  0  0  0  0  3  0  0  0  0  0  0
  161.7720  209.5280  152.1520 N   0  0  0  0  0  0  0  0  0  0  0  0
  160.4400  210.3800  156.0390 O   0  0  0  0  0  0  0  0  0  0  0  0
  159.0360  210.3090  156.1100 C   0  0  0  0  0  2  0  0  0  0  0  0
  156.0650  211.7440  155.5250 O   0  0  0  0  0  0  0  0  0  0  0  0
  157.6950  212.1130  157.1910 C   0  0  0  0  0  2  0  0  0  0  0  0
  158.4000  211.6860  155.9380 C   0  0  2  0  0  3  0  0  0  0  0  0
  156.3020  212.4450  156.7160 C   0  0  0  0  0  2  0  0  0  0  0  0
  157.3120  211.6640  154.8860 C   0  0  0  0  0  2  0  0  0  0  0  0
  1 27  1  0  0  0  0
  2 14  1  0  0  0  0
  3 19  1  0  0  0  0
  3  7  1  0  0  0  0
  4 18  2  0  0  0  0
  5 11  1  0  0  0  0
  7  6  1  0  0  0  0
  8 12  2  0  0  0  0
  8 16  1  0  0  0  0
  9 27  1  6  0  0  0
  9 25  1  0  0  0  0
 12 15  1  0  0  0  0
 13  9  1  0  0  0  0
 13 24  1  1  0  0  0
 15  4  1  0  0  0  0
 15  5  2  0  0  0  0
 16  3  2  0  0  0  0
 17 10  1  0  0  0  0
 17 28  1  6  0  0  0
 18  1  1  0  0  0  0
 18 20  1  0  0  0  0
 19  5  1  0  0  0  0
 19  6  1  1  0  0  0
 20 11  1  6  0  0  0
 20 13  1  0  0  0  0
 21 26  1  0  0  0  0
 22 10  1  0  0  0  0
 23 21  2  0  0  0  0
 23  4  1  0  0  0  0
 24 22  2  0  0  0  0
 25 14  1  6  0  0  0
 25 17  1  0  0  0  0
 26  1  2  0  0  0  0
 27  2  1  0  0  0  0
 28 29  1  0  0  0  0
 30 33  1  0  0  0  0
 32 29  1  1  0  0  0
 32 31  1  0  0  0  0
 33 31  1  0  0  0  0
 34 30  1  0  0  0  0
 34 32  1  0  0  0  0
M  END
>  <MODEL>
5

>  <REMARK>
 VINA RESULT:      -7.0      2.545      4.483
  Name = 
  3 active torsions:
  status: ('A' for Active; 'I' for Inactive)
    1  A    between atoms: C_17  and  O_28
    2  A    between atoms: O_28  and  C_29
    3  A    between atoms: C_29  and  C_32
                            x       y       z     vdW  Elec       q    Type
                         _______ _______ _______ _____ _____    ______ ____

>  <TORSDO>
F 3

$$$$
