=
 OpenBabel11122414323D

 34 40  0  0  1  0  0  0  0  0999 V2000
  161.3390  207.8450  154.6700 C   0  0  1  0  0  3  0  0  0  0  0  0
  161.1900  205.4580  153.9620 N   0  0  0  0  0  2  0  0  0  0  0  0
  158.0120  213.3760  153.3110 C   0  0  2  0  0  3  0  0  0  0  0  0
  160.3290  210.1520  155.1820 C   0  0  1  0  0  3  0  0  0  0  0  0
  159.4860  211.4520  153.2200 C   0  0  1  0  0  3  0  0  0  0  0  0
  158.6220  213.0050  151.3080 C   0  0  0  0  0  2  0  0  0  0  0  0
  157.4860  213.7910  151.9560 C   0  0  0  0  0  2  0  0  0  0  0  0
  159.3550  213.9080  155.3790 C   0  0  0  0  0  2  0  0  0  0  0  0
  161.4290  207.1370  152.3360 C   0  0  2  0  0  3  0  0  0  0  0  0
  160.3390  210.7360  152.3580 O   0  0  0  0  0  0  0  0  0  0  0  0
  159.2530  212.3890  155.6290 C   0  0  0  0  0  2  0  0  0  0  0  0
  160.8640  208.4210  151.7160 C   0  0  1  0  0  3  0  0  0  0  0  0
  161.2370  204.8000  152.6510 C   0  0  0  0  0  2  0  0  0  0  0  0
  160.1150  211.5680  154.6420 C   0  0  1  0  0  3  0  0  0  0  0  0
  158.3740  214.4530  154.3170 C   0  0  0  0  0  2  0  0  0  0  0  0
  161.0960  209.3020  154.1620 C   0  0  2  0  0  3  0  0  0  0  0  0
  159.2660  212.8480  152.6720 C   0  0  1  0  0  3  0  0  0  0  0  0
  160.3510  209.4000  152.8060 C   0  0  1  0  0  3  0  0  0  0  0  0
  161.2570  208.6820  157.0460 C   0  0  0  0  0  2  0  0  0  0  0  0
  161.0500  210.1180  156.5290 C   0  0  0  0  0  2  0  0  0  0  0  0
  161.1840  205.8730  151.5670 C   0  0  0  0  0  2  0  0  0  0  0  0
  160.7710  207.6010  156.0710 C   0  0  0  0  0  2  0  0  0  0  0  0
  160.8120  206.8280  153.6650 C   0  0  2  0  0  3  0  0  0  0  0  0
  161.9330  209.0720  150.8380 C   0  0  0  0  0  2  0  0  0  0  0  0
  161.5670  208.0460  148.6350 C   0  0  0  0  0  3  0  0  0  0  0  0
  162.3370  208.1740  149.7130 C   0  0  0  0  0  3  0  0  0  0  0  0
  161.9820  207.1420  147.5280 C   0  0  0  0  0  2  0  0  0  0  0  0
  161.0180  205.9730  147.4440 C   0  0  0  0  0  2  0  0  0  0  0  0
  161.7260  204.7360  146.9130 C   0  0  0  0  0  2  0  0  0  0  0  0
  160.7160  201.2600  148.5610 C   0  0  0  0  0  3  0  0  0  0  0  0
  161.1080  203.5210  149.0760 C   0  0  0  0  0  3  0  0  0  0  0  0
  161.3650  203.5330  147.7160 C   0  0  0  0  0  0  0  0  0  0  0  0
  160.7510  202.2470  149.5440 C   0  0  0  0  0  3  0  0  0  0  0  0
  161.1350  201.9920  147.1040 S   0  0  0  0  0  0  0  0  0  0  0  0
  1 22  1  1  0  0  0
  3  7  1  6  0  0  0
  3 15  1  0  0  0  0
  4 20  1  1  0  0  0
  5 10  1  6  0  0  0
  5 14  1  0  0  0  0
  6  7  1  0  0  0  0
  6 17  1  0  0  0  0
  8 11  1  0  0  0  0
  9 21  1  6  0  0  0
  9 23  1  0  0  0  0
 10 18  1  0  0  0  0
 12 24  1  1  0  0  0
 12  9  1  0  0  0  0
 12 18  1  0  0  0  0
 13  2  1  0  0  0  0
 14  4  1  0  0  0  0
 14 11  1  1  0  0  0
 15  8  1  0  0  0  0
 16  1  1  0  0  0  0
 16  4  1  0  0  0  0
 17  5  1  0  0  0  0
 17  3  1  0  0  0  0
 18 16  1  0  0  0  0
 20 19  1  0  0  0  0
 21 13  1  0  0  0  0
 22 19  1  0  0  0  0
 23  2  1  0  0  0  0
 23  1  1  0  0  0  0
 25 26  2  0  0  0  0
 26 24  1  0  0  0  0
 27 25  1  0  0  0  0
 28 27  1  0  0  0  0
 29 28  1  0  0  0  0
 29 32  1  0  0  0  0
 30 33  2  0  0  0  0
 31 33  1  0  0  0  0
 32 31  2  0  0  0  0
 34 32  1  0  0  0  0
 34 30  1  0  0  0  0
M  END
>  <MODEL>
1

>  <REMARK>
 VINA RESULT:      -9.2      0.000      0.000
  Name = 
  6 active torsions:
  status: ('A' for Active; 'I' for Inactive)
    1  A    between atoms: C_10  and  C_17
    2  A    between atoms: C_13  and  C_24
    3  A    between atoms: C_17  and  C_28
    4  A    between atoms: C_22  and  C_24
    5  A    between atoms: C_28  and  C_29
    6  A    between atoms: C_29  and  C_32
                            x       y       z     vdW  Elec       q    Type
                         _______ _______ _______ _____ _____    ______ ____

>  <TORSDO>
F 6

$$$$
=
 OpenBabel11122414323D

 34 40  0  0  1  0  0  0  0  0999 V2000
  161.4450  205.0560  149.9520 C   0  0  1  0  0  3  0  0  0  0  0  0
  160.7620  204.4430  147.6320 N   0  0  0  0  0  2  0  0  0  0  0  0
  159.7380  209.7270  154.2840 C   0  0  2  0  0  3  0  0  0  0  0  0
  161.0050  206.0290  152.2890 C   0  0  1  0  0  3  0  0  0  0  0  0
  160.6840  208.5050  152.4160 C   0  0  1  0  0  3  0  0  0  0  0  0
  160.4010  211.0740  152.7790 C   0  0  0  0  0  2  0  0  0  0  0  0
  159.4480  211.1760  153.9680 C   0  0  0  0  0  2  0  0  0  0  0  0
  160.9920  208.0040  155.6350 C   0  0  0  0  0  2  0  0  0  0  0  0
  161.5510  206.6120  148.0740 C   0  0  2  0  0  3  0  0  0  0  0  0
  161.3990  208.6750  151.2150 O   0  0  0  0  0  0  0  0  0  0  0  0
  160.4910  207.0330  154.5450 C   0  0  0  0  0  2  0  0  0  0  0  0
  161.3790  207.9060  148.8790 C   0  0  1  0  0  3  0  0  0  0  0  0
  160.7520  205.1840  146.3660 C   0  0  0  0  0  2  0  0  0  0  0  0
  161.2000  207.2520  153.1880 C   0  0  1  0  0  3  0  0  0  0  0  0
  160.2710  209.3720  155.6600 C   0  0  0  0  0  2  0  0  0  0  0  0
  161.6180  206.2790  150.9060 C   0  0  2  0  0  3  0  0  0  0  0  0
  160.8680  209.7260  153.2940 C   0  0  1  0  0  3  0  0  0  0  0  0
  161.0380  207.6110  150.3650 C   0  0  1  0  0  3  0  0  0  0  0  0
  161.3750  203.5290  151.9560 C   0  0  0  0  0  2  0  0  0  0  0  0
  161.5790  204.7420  152.8830 C   0  0  0  0  0  2  0  0  0  0  0  0
  161.0620  206.6500  146.6580 C   0  0  0  0  0  2  0  0  0  0  0  0
  160.7180  203.8830  150.6150 C   0  0  0  0  0  2  0  0  0  0  0  0
  160.7660  205.4750  148.6540 C   0  0  2  0  0  3  0  0  0  0  0  0
  162.6470  208.7510  148.7540 C   0  0  0  0  0  2  0  0  0  0  0  0
  162.0630  211.1030  149.1650 C   0  0  0  0  0  3  0  0  0  0  0  0
  162.3360  210.1380  148.2890 C   0  0  0  0  0  3  0  0  0  0  0  0
  161.7480  212.4750  148.6830 C   0  0  0  0  0  2  0  0  0  0  0  0
  162.8480  212.9480  147.7510 C   0  0  0  0  0  2  0  0  0  0  0  0
  162.3210  214.0070  146.7970 C   0  0  0  0  0  2  0  0  0  0  0  0
  162.0910  212.6430  143.0690 C   0  0  0  0  0  3  0  0  0  0  0  0
  160.8290  212.9090  145.0350 C   0  0  0  0  0  3  0  0  0  0  0  0
  162.0440  213.4230  145.4540 C   0  0  0  0  0  0  0  0  0  0  0  0
  160.8620  212.4700  143.7030 C   0  0  0  0  0  3  0  0  0  0  0  0
  163.1350  213.3480  144.1850 S   0  0  0  0  0  0  0  0  0  0  0  0
  1 22  1  1  0  0  0
  1 16  1  0  0  0  0
  2 23  1  0  0  0  0
  3  7  1  1  0  0  0
  3 15  1  0  0  0  0
  4 20  1  1  0  0  0
  4 14  1  0  0  0  0
  5 10  1  6  0  0  0
  5 14  1  0  0  0  0
  5 17  1  0  0  0  0
  6 17  1  0  0  0  0
  6  7  1  0  0  0  0
  8 15  1  0  0  0  0
  9 21  1  6  0  0  0
  9 23  1  0  0  0  0
  9 12  1  0  0  0  0
 11  8  1  0  0  0  0
 12 24  1  1  0  0  0
 12 18  1  0  0  0  0
 13 21  1  0  0  0  0
 13  2  1  0  0  0  0
 14 11  1  1  0  0  0
 16  4  1  0  0  0  0
 17  3  1  0  0  0  0
 18 16  1  0  0  0  0
 18 10  1  0  0  0  0
 19 20  1  0  0  0  0
 22 19  1  0  0  0  0
 23  1  1  0  0  0  0
 26 24  1  0  0  0  0
 26 25  2  0  0  0  0
 27 25  1  0  0  0  0
 28 27  1  0  0  0  0
 29 28  1  0  0  0  0
 30 33  2  0  0  0  0
 30 34  1  0  0  0  0
 31 32  2  0  0  0  0
 32 29  1  0  0  0  0
 33 31  1  0  0  0  0
 34 32  1  0  0  0  0
M  END
>  <MODEL>
2

>  <REMARK>
 VINA RESULT:      -9.0      3.736      6.453
  Name = 
  6 active torsions:
  status: ('A' for Active; 'I' for Inactive)
    1  A    between atoms: C_10  and  C_17
    2  A    between atoms: C_13  and  C_24
    3  A    between atoms: C_17  and  C_28
    4  A    between atoms: C_22  and  C_24
    5  A    between atoms: C_28  and  C_29
    6  A    between atoms: C_29  and  C_32
                            x       y       z     vdW  Elec       q    Type
                         _______ _______ _______ _____ _____    ______ ____

>  <TORSDO>
F 6

$$$$
=
 OpenBabel11122414323D

 34 40  0  0  1  0  0  0  0  0999 V2000
  161.5020  205.0040  149.8670 C   0  0  1  0  0  3  0  0  0  0  0  0
  160.8100  204.3800  147.5530 N   0  0  0  0  0  2  0  0  0  0  0  0
  159.7120  209.6100  154.2350 C   0  0  2  0  0  3  0  0  0  0  0  0
  161.0630  205.9570  152.2130 C   0  0  1  0  0  3  0  0  0  0  0  0
  160.6710  208.4220  152.3510 C   0  0  1  0  0  3  0  0  0  0  0  0
  160.3190  210.9810  152.7270 C   0  0  0  0  0  2  0  0  0  0  0  0
  159.3770  211.0510  153.9270 C   0  0  0  0  0  2  0  0  0  0  0  0
  161.0310  207.9200  155.5650 C   0  0  0  0  0  2  0  0  0  0  0  0
  161.5410  206.5690  147.9930 C   0  0  2  0  0  3  0  0  0  0  0  0
  161.3670  208.6170  151.1430 O   0  0  0  0  0  0  0  0  0  0  0  0
  160.5460  206.9390  154.4770 C   0  0  0  0  0  2  0  0  0  0  0  0
  161.3420  207.8550  148.8050 C   0  0  1  0  0  3  0  0  0  0  0  0
  160.7640  205.1230  146.2890 C   0  0  0  0  0  2  0  0  0  0  0  0
  161.2330  207.1820  153.1130 C   0  0  1  0  0  3  0  0  0  0  0  0
  160.2720  209.2660  155.6030 C   0  0  0  0  0  2  0  0  0  0  0  0
  161.6510  206.2290  150.8230 C   0  0  2  0  0  3  0  0  0  0  0  0
  160.8300  209.6450  153.2320 C   0  0  1  0  0  3  0  0  0  0  0  0
  161.0270  207.5460  150.2930 C   0  0  1  0  0  3  0  0  0  0  0  0
  161.5000  203.4700  151.8660 C   0  0  0  0  0  2  0  0  0  0  0  0
  161.6800  204.6850  152.7950 C   0  0  0  0  0  2  0  0  0  0  0  0
  161.0350  206.5970  146.5830 C   0  0  0  0  0  2  0  0  0  0  0  0
  160.8170  203.8080  150.5340 C   0  0  0  0  0  2  0  0  0  0  0  0
  160.7970  205.4080  148.5780 C   0  0  2  0  0  3  0  0  0  0  0  0
  162.5830  208.7360  148.6680 C   0  0  0  0  0  2  0  0  0  0  0  0
  162.2320  211.1130  149.1860 C   0  0  0  0  0  3  0  0  0  0  0  0
  162.2210  210.1350  148.2830 C   0  0  0  0  0  3  0  0  0  0  0  0
  161.8600  212.4970  148.7860 C   0  0  0  0  0  2  0  0  0  0  0  0
  161.8130  212.5900  147.2720 C   0  0  0  0  0  2  0  0  0  0  0  0
  160.8890  213.7150  146.8360 C   0  0  0  0  0  2  0  0  0  0  0  0
  157.1860  212.4220  146.1760 C   0  0  0  0  0  3  0  0  0  0  0  0
  158.5740  213.3220  147.8470 C   0  0  0  0  0  3  0  0  0  0  0  0
  159.4720  213.2530  146.7960 C   0  0  0  0  0  0  0  0  0  0  0  0
  157.2990  212.8520  147.4960 C   0  0  0  0  0  3  0  0  0  0  0  0
  158.6900  212.6360  145.4500 S   0  0  0  0  0  0  0  0  0  0  0  0
  1 22  1  1  0  0  0
  1 16  1  0  0  0  0
  2 23  1  0  0  0  0
  3  7  1  1  0  0  0
  3 15  1  0  0  0  0
  4 20  1  1  0  0  0
  4 14  1  0  0  0  0
  5 10  1  6  0  0  0
  5 14  1  0  0  0  0
  5 17  1  0  0  0  0
  6 17  1  0  0  0  0
  6  7  1  0  0  0  0
  8 15  1  0  0  0  0
  9 21  1  6  0  0  0
  9 23  1  0  0  0  0
  9 12  1  0  0  0  0
 11  8  1  0  0  0  0
 12 24  1  1  0  0  0
 12 18  1  0  0  0  0
 13 21  1  0  0  0  0
 13  2  1  0  0  0  0
 14 11  1  1  0  0  0
 16  4  1  0  0  0  0
 17  3  1  0  0  0  0
 18 16  1  0  0  0  0
 18 10  1  0  0  0  0
 19 20  1  0  0  0  0
 22 19  1  0  0  0  0
 23  1  1  0  0  0  0
 26 24  1  0  0  0  0
 26 25  2  0  0  0  0
 27 25  1  0  0  0  0
 28 27  1  0  0  0  0
 29 28  1  0  0  0  0
 30 33  2  0  0  0  0
 32 29  1  0  0  0  0
 32 31  2  0  0  0  0
 33 31  1  0  0  0  0
 34 30  1  0  0  0  0
 34 32  1  0  0  0  0
M  END
>  <MODEL>
3

>  <REMARK>
 VINA RESULT:      -8.8      3.213      6.348
  Name = 
  6 active torsions:
  status: ('A' for Active; 'I' for Inactive)
    1  A    between atoms: C_10  and  C_17
    2  A    between atoms: C_13  and  C_24
    3  A    between atoms: C_17  and  C_28
    4  A    between atoms: C_22  and  C_24
    5  A    between atoms: C_28  and  C_29
    6  A    between atoms: C_29  and  C_32
                            x       y       z     vdW  Elec       q    Type
                         _______ _______ _______ _____ _____    ______ ____

>  <TORSDO>
F 6

$$$$
=
 OpenBabel11122414323D

 34 40  0  0  1  0  0  0  0  0999 V2000
  161.2350  207.4740  154.2360 C   0  0  1  0  0  3  0  0  0  0  0  0
  161.2310  205.2070  153.1950 N   0  0  0  0  0  2  0  0  0  0  0  0
  158.0310  213.1420  153.1870 C   0  0  2  0  0  3  0  0  0  0  0  0
  160.1210  209.6890  154.9090 C   0  0  1  0  0  3  0  0  0  0  0  0
  159.5380  211.2480  153.0440 C   0  0  1  0  0  3  0  0  0  0  0  0
  158.9220  213.0500  151.2590 C   0  0  0  0  0  2  0  0  0  0  0  0
  157.6920  213.7410  151.8420 C   0  0  0  0  0  2  0  0  0  0  0  0
  159.0610  213.3830  155.4780 C   0  0  0  0  0  2  0  0  0  0  0  0
  161.6650  207.0930  151.8630 C   0  0  2  0  0  3  0  0  0  0  0  0
  160.5160  210.6560  152.2220 O   0  0  0  0  0  0  0  0  0  0  0  0
  158.9530  211.8440  155.5010 C   0  0  0  0  0  2  0  0  0  0  0  0
  161.1680  208.4510  151.3510 C   0  0  1  0  0  3  0  0  0  0  0  0
  161.4730  204.7350  151.8270 C   0  0  0  0  0  2  0  0  0  0  0  0
  159.9600  211.1660  154.5430 C   0  0  1  0  0  3  0  0  0  0  0  0
  158.2280  214.0710  154.3710 C   0  0  0  0  0  2  0  0  0  0  0  0
  161.0390  208.9860  153.9020 C   0  0  2  0  0  3  0  0  0  0  0  0
  159.3710  212.7060  152.6660 C   0  0  1  0  0  3  0  0  0  0  0  0
  160.4900  209.2710  152.4810 C   0  0  1  0  0  3  0  0  0  0  0  0
  160.8060  207.9760  156.6680 C   0  0  0  0  0  2  0  0  0  0  0  0
  160.6470  209.4700  156.3280 C   0  0  0  0  0  2  0  0  0  0  0  0
  161.5520  205.9470  150.9030 C   0  0  0  0  0  2  0  0  0  0  0  0
  160.4820  207.0400  155.4960 C   0  0  0  0  0  2  0  0  0  0  0  0
  160.8730  206.6050  153.0370 C   0  0  2  0  0  3  0  0  0  0  0  0
  162.3370  209.2150  150.7300 C   0  0  0  0  0  2  0  0  0  0  0  0
  162.0070  211.1110  149.2000 C   0  0  0  0  0  3  0  0  0  0  0  0
  161.9670  209.7950  149.4020 C   0  0  0  0  0  3  0  0  0  0  0  0
  161.6270  211.6700  147.8750 C   0  0  0  0  0  2  0  0  0  0  0  0
  160.8380  212.9500  148.0750 C   0  0  0  0  0  2  0  0  0  0  0  0
  159.8910  213.1800  146.9080 C   0  0  0  0  0  2  0  0  0  0  0  0
  162.1720  213.1740  143.6510 C   0  0  0  0  0  3  0  0  0  0  0  0
  160.1190  212.3910  144.4870 C   0  0  0  0  0  3  0  0  0  0  0  0
  160.6060  213.0410  145.6080 C   0  0  0  0  0  0  0  0  0  0  0  0
  161.0000  212.4640  143.3980 C   0  0  0  0  0  3  0  0  0  0  0  0
  162.0980  213.7100  145.2440 S   0  0  0  0  0  0  0  0  0  0  0  0
  1 22  1  1  0  0  0
  3  7  1  6  0  0  0
  3 15  1  0  0  0  0
  4 20  1  1  0  0  0
  5 10  1  6  0  0  0
  5 14  1  0  0  0  0
  6  7  1  0  0  0  0
  6 17  1  0  0  0  0
  8 11  1  0  0  0  0
  9 21  1  6  0  0  0
  9 23  1  0  0  0  0
 10 18  1  0  0  0  0
 12 24  1  1  0  0  0
 12  9  1  0  0  0  0
 12 18  1  0  0  0  0
 13  2  1  0  0  0  0
 14  4  1  0  0  0  0
 14 11  1  1  0  0  0
 15  8  1  0  0  0  0
 16  1  1  0  0  0  0
 16  4  1  0  0  0  0
 17  5  1  0  0  0  0
 17  3  1  0  0  0  0
 18 16  1  0  0  0  0
 20 19  1  0  0  0  0
 21 13  1  0  0  0  0
 22 19  1  0  0  0  0
 23  2  1  0  0  0  0
 23  1  1  0  0  0  0
 25 26  2  0  0  0  0
 26 24  1  0  0  0  0
 27 28  1  0  0  0  0
 27 25  1  0  0  0  0
 29 28  1  0  0  0  0
 30 34  1  0  0  0  0
 31 32  2  0  0  0  0
 32 29  1  0  0  0  0
 33 30  2  0  0  0  0
 33 31  1  0  0  0  0
 34 32  1  0  0  0  0
M  END
>  <MODEL>
4

>  <REMARK>
 VINA RESULT:      -7.8      3.342      4.891
  Name = 
  6 active torsions:
  status: ('A' for Active; 'I' for Inactive)
    1  A    between atoms: C_10  and  C_17
    2  A    between atoms: C_13  and  C_24
    3  A    between atoms: C_17  and  C_28
    4  A    between atoms: C_22  and  C_24
    5  A    between atoms: C_28  and  C_29
    6  A    between atoms: C_29  and  C_32
                            x       y       z     vdW  Elec       q    Type
                         _______ _______ _______ _____ _____    ______ ____

>  <TORSDO>
F 6

$$$$
=
 OpenBabel11122414323D

 34 40  0  0  1  0  0  0  0  0999 V2000
  160.9870  207.7720  154.8130 C   0  0  1  0  0  3  0  0  0  0  0  0
  161.2810  205.6030  153.6150 N   0  0  0  0  0  2  0  0  0  0  0  0
  157.1450  213.0800  154.0620 C   0  0  2  0  0  3  0  0  0  0  0  0
  159.5970  209.7830  155.6040 C   0  0  1  0  0  3  0  0  0  0  0  0
  158.8730  211.3940  153.8350 C   0  0  1  0  0  3  0  0  0  0  0  0
  158.0850  213.2360  152.1610 C   0  0  0  0  0  2  0  0  0  0  0  0
  156.7670  213.7310  152.7510 C   0  0  0  0  0  2  0  0  0  0  0  0
  158.0840  213.2720  156.3960 C   0  0  0  0  0  2  0  0  0  0  0  0
  161.5150  207.6200  152.4340 C   0  0  2  0  0  3  0  0  0  0  0  0
  159.9340  210.9850  153.0050 O   0  0  0  0  0  0  0  0  0  0  0  0
  158.1620  211.7340  156.3080 C   0  0  0  0  0  2  0  0  0  0  0  0
  160.8690  208.9430  152.0020 C   0  0  1  0  0  3  0  0  0  0  0  0
  161.6110  205.2650  152.2260 C   0  0  0  0  0  2  0  0  0  0  0  0
  159.2660  211.2530  155.3370 C   0  0  1  0  0  3  0  0  0  0  0  0
  157.2000  213.9350  155.3140 C   0  0  0  0  0  2  0  0  0  0  0  0
  160.6170  209.2700  154.5800 C   0  0  2  0  0  3  0  0  0  0  0  0
  158.5400  212.8460  153.5550 C   0  0  1  0  0  3  0  0  0  0  0  0
  160.0700  209.5910  153.1650 C   0  0  1  0  0  3  0  0  0  0  0  0
  160.4430  208.0380  157.2590 C   0  0  0  0  0  2  0  0  0  0  0  0
  160.1120  209.5240  157.0200 C   0  0  0  0  0  2  0  0  0  0  0  0
  161.5650  206.5430  151.3920 C   0  0  0  0  0  2  0  0  0  0  0  0
  160.2620  207.1600  156.0140 C   0  0  0  0  0  2  0  0  0  0  0  0
  160.7610  206.9570  153.5450 C   0  0  2  0  0  3  0  0  0  0  0  0
  161.9510  209.8850  151.4750 C   0  0  0  0  0  2  0  0  0  0  0  0
  161.6710  208.7930  149.2900 C   0  0  0  0  0  3  0  0  0  0  0  0
  162.4650  209.4360  150.1440 C   0  0  0  0  0  3  0  0  0  0  0  0
  162.2020  208.3470  147.9740 C   0  0  0  0  0  2  0  0  0  0  0  0
  162.5470  206.8710  148.0420 C   0  0  0  0  0  2  0  0  0  0  0  0
  161.2820  206.0280  148.0460 C   0  0  0  0  0  2  0  0  0  0  0  0
  160.7060  204.3430  144.4890 C   0  0  0  0  0  3  0  0  0  0  0  0
  161.5180  203.8980  146.6510 C   0  0  0  0  0  3  0  0  0  0  0  0
  161.1710  205.2310  146.7900 C   0  0  0  0  0  0  0  0  0  0  0  0
  161.2610  203.4080  145.3610 C   0  0  0  0  0  3  0  0  0  0  0  0
  160.5400  205.7850  145.3420 S   0  0  0  0  0  0  0  0  0  0  0  0
  1 22  1  1  0  0  0
  3  7  1  6  0  0  0
  3 15  1  0  0  0  0
  4 20  1  1  0  0  0
  5 10  1  6  0  0  0
  5 14  1  0  0  0  0
  6  7  1  0  0  0  0
  6 17  1  0  0  0  0
  9 21  1  6  0  0  0
  9 23  1  0  0  0  0
 10 18  1  0  0  0  0
 11  8  1  0  0  0  0
 12 24  1  1  0  0  0
 12  9  1  0  0  0  0
 12 18  1  0  0  0  0
 13  2  1  0  0  0  0
 14  4  1  0  0  0  0
 14 11  1  1  0  0  0
 15  8  1  0  0  0  0
 16  1  1  0  0  0  0
 16  4  1  0  0  0  0
 17  5  1  0  0  0  0
 17  3  1  0  0  0  0
 18 16  1  0  0  0  0
 20 19  1  0  0  0  0
 21 13  1  0  0  0  0
 22 19  1  0  0  0  0
 23  2  1  0  0  0  0
 23  1  1  0  0  0  0
 25 26  2  0  0  0  0
 26 24  1  0  0  0  0
 27 28  1  0  0  0  0
 27 25  1  0  0  0  0
 28 29  1  0  0  0  0
 30 34  1  0  0  0  0
 30 33  2  0  0  0  0
 31 32  2  0  0  0  0
 32 29  1  0  0  0  0
 33 31  1  0  0  0  0
 34 32  1  0  0  0  0
M  END
>  <MODEL>
5

>  <REMARK>
 VINA RESULT:      -7.8      1.464      1.776
  Name = 
  6 active torsions:
  status: ('A' for Active; 'I' for Inactive)
    1  A    between atoms: C_10  and  C_17
    2  A    between atoms: C_13  and  C_24
    3  A    between atoms: C_17  and  C_28
    4  A    between atoms: C_22  and  C_24
    5  A    between atoms: C_28  and  C_29
    6  A    between atoms: C_29  and  C_32
                            x       y       z     vdW  Elec       q    Type
                         _______ _______ _______ _____ _____    ______ ____

>  <TORSDO>
F 6

$$$$
=
 OpenBabel11122414323D

 34 40  0  0  1  0  0  0  0  0999 V2000
  160.0000  209.8080  156.1550 C   0  0  1  0  0  3  0  0  0  0  0  0
  160.2860  212.0340  157.2460 N   0  0  0  0  0  2  0  0  0  0  0  0
  162.3830  206.8730  150.7510 C   0  0  2  0  0  3  0  0  0  0  0  0
  160.8210  207.8270  154.7400 C   0  0  1  0  0  3  0  0  0  0  0  0
  161.1430  208.2670  152.3000 C   0  0  1  0  0  3  0  0  0  0  0  0
  161.4660  208.4900  149.7190 C   0  0  0  0  0  2  0  0  0  0  0  0
  162.6050  207.5240  149.4050 C   0  0  0  0  0  2  0  0  0  0  0  0
  161.3860  205.0080  152.1270 C   0  0  0  0  0  2  0  0  0  0  0  0
  159.5690  211.9210  155.0110 C   0  0  2  0  0  3  0  0  0  0  0  0
  160.2340  209.3410  152.3570 O   0  0  0  0  0  0  0  0  0  0  0  0
  161.7020  205.9430  153.3130 C   0  0  0  0  0  2  0  0  0  0  0  0
  159.8650  211.4390  153.5850 C   0  0  1  0  0  3  0  0  0  0  0  0
  160.0770  213.4090  156.7790 C   0  0  0  0  0  2  0  0  0  0  0  0
  160.7730  207.1790  153.3540 C   0  0  1  0  0  3  0  0  0  0  0  0
  162.0910  205.3840  150.8040 C   0  0  0  0  0  2  0  0  0  0  0  0
  159.9830  209.1100  154.7590 C   0  0  2  0  0  3  0  0  0  0  0  0
  161.1020  207.6390  150.9210 C   0  0  1  0  0  3  0  0  0  0  0  0
  160.4540  210.0020  153.5820 C   0  0  1  0  0  3  0  0  0  0  0  0
  160.4170  207.5740  157.2440 C   0  0  0  0  0  2  0  0  0  0  0  0
  160.3650  206.8950  155.8620 C   0  0  0  0  0  2  0  0  0  0  0  0
  159.8120  213.3760  155.2760 C   0  0  0  0  0  2  0  0  0  0  0  0
  160.8370  209.0490  157.1890 C   0  0  0  0  0  2  0  0  0  0  0  0
  160.4470  211.2590  156.0280 C   0  0  2  0  0  3  0  0  0  0  0  0
  158.5880  211.5220  152.7480 C   0  0  0  0  0  2  0  0  0  0  0  0
  157.8310  213.0770  151.0020 C   0  0  0  0  0  3  0  0  0  0  0  0
  158.3840  212.8980  152.1990 C   0  0  0  0  0  3  0  0  0  0  0  0
  157.6430  214.4530  150.4690 C   0  0  0  0  0  2  0  0  0  0  0  0
  157.1380  214.3760  149.0400 C   0  0  0  0  0  2  0  0  0  0  0  0
  157.3100  212.9700  148.4890 C   0  0  0  0  0  2  0  0  0  0  0  0
  159.5870  212.7050  145.2400 C   0  0  0  0  0  3  0  0  0  0  0  0
  159.6750  213.1800  147.5410 C   0  0  0  0  0  3  0  0  0  0  0  0
  158.3180  212.9480  147.3910 C   0  0  0  0  0  0  0  0  0  0  0  0
  160.3790  213.0480  146.3340 C   0  0  0  0  0  3  0  0  0  0  0  0
  158.0030  212.5680  145.7910 S   0  0  0  0  0  0  0  0  0  0  0  0
  1 22  1  1  0  0  0
  3  7  1  6  0  0  0
  3 15  1  0  0  0  0
  3 17  1  0  0  0  0
  4 16  1  0  0  0  0
  4 20  1  1  0  0  0
  5 10  1  6  0  0  0
  5 14  1  0  0  0  0
  6 17  1  0  0  0  0
  7  6  1  0  0  0  0
  8 11  1  0  0  0  0
  9 21  1  6  0  0  0
  9 23  1  0  0  0  0
 10 18  1  0  0  0  0
 12 24  1  6  0  0  0
 12  9  1  0  0  0  0
 13  2  1  0  0  0  0
 14 11  1  1  0  0  0
 14  4  1  0  0  0  0
 15  8  1  0  0  0  0
 16  1  1  0  0  0  0
 17  5  1  0  0  0  0
 18 12  1  0  0  0  0
 18 16  1  0  0  0  0
 20 19  1  0  0  0  0
 21 13  1  0  0  0  0
 22 19  1  0  0  0  0
 23  1  1  0  0  0  0
 23  2  1  0  0  0  0
 25 26  2  0  0  0  0
 26 24  1  0  0  0  0
 27 25  1  0  0  0  0
 28 27  1  0  0  0  0
 29 28  1  0  0  0  0
 30 34  1  0  0  0  0
 30 33  2  0  0  0  0
 32 31  2  0  0  0  0
 32 29  1  0  0  0  0
 33 31  1  0  0  0  0
 34 32  1  0  0  0  0
M  END
>  <MODEL>
6

>  <REMARK>
 VINA RESULT:      -7.3      3.078      7.235
  Name = 
  6 active torsions:
  status: ('A' for Active; 'I' for Inactive)
    1  A    between atoms: C_10  and  C_17
    2  A    between atoms: C_13  and  C_24
    3  A    between atoms: C_17  and  C_28
    4  A    between atoms: C_22  and  C_24
    5  A    between atoms: C_28  and  C_29
    6  A    between atoms: C_29  and  C_32
                            x       y       z     vdW  Elec       q    Type
                         _______ _______ _______ _____ _____    ______ ____

>  <TORSDO>
F 6

$$$$
=
 OpenBabel11122414323D

 34 40  0  0  1  0  0  0  0  0999 V2000
  161.0980  207.6930  154.5550 C   0  0  1  0  0  3  0  0  0  0  0  0
  161.3610  205.6650  153.1270 N   0  0  0  0  0  2  0  0  0  0  0  0
  157.2180  213.0260  154.4920 C   0  0  2  0  0  3  0  0  0  0  0  0
  159.7280  209.6010  155.5980 C   0  0  1  0  0  3  0  0  0  0  0  0
  158.9430  211.3850  154.0330 C   0  0  1  0  0  3  0  0  0  0  0  0
  158.0960  213.3880  152.5890 C   0  0  0  0  0  2  0  0  0  0  0  0
  156.7970  213.8100  153.2700 C   0  0  0  0  0  2  0  0  0  0  0  0
  158.2310  212.9780  156.8020 C   0  0  0  0  0  2  0  0  0  0  0  0
  161.5500  207.7970  152.1580 C   0  0  2  0  0  3  0  0  0  0  0  0
  159.9790  211.0730  153.1310 O   0  0  0  0  0  0  0  0  0  0  0  0
  158.3110  211.4580  156.5490 C   0  0  0  0  0  2  0  0  0  0  0  0
  160.8870  209.1540  151.8900 C   0  0  1  0  0  3  0  0  0  0  0  0
  161.6460  205.4780  151.7000 C   0  0  0  0  0  2  0  0  0  0  0  0
  159.3850  211.0890  155.4990 C   0  0  1  0  0  3  0  0  0  0  0  0
  157.3110  213.7450  155.8250 C   0  0  0  0  0  2  0  0  0  0  0  0
  160.7160  209.2060  154.4940 C   0  0  2  0  0  3  0  0  0  0  0  0
  158.5970  212.8560  153.9180 C   0  0  1  0  0  3  0  0  0  0  0  0
  160.1240  209.6710  153.1390 C   0  0  1  0  0  3  0  0  0  0  0  0
  160.6320  207.6970  157.0320 C   0  0  0  0  0  2  0  0  0  0  0  0
  160.2890  209.1970  156.9620 C   0  0  0  0  0  2  0  0  0  0  0  0
  161.5700  206.8370  151.0080 C   0  0  0  0  0  2  0  0  0  0  0  0
  160.4140  206.9530  155.7070 C   0  0  0  0  0  2  0  0  0  0  0  0
  160.8340  207.0150  153.2160 C   0  0  2  0  0  3  0  0  0  0  0  0
  161.9490  210.1540  151.4300 C   0  0  0  0  0  2  0  0  0  0  0  0
  161.9570  211.5020  149.3750 C   0  0  0  0  0  3  0  0  0  0  0  0
  161.9560  210.2980  149.9420 C   0  0  0  0  0  3  0  0  0  0  0  0
  161.9570  211.6260  147.8930 C   0  0  0  0  0  2  0  0  0  0  0  0
  160.9310  212.6620  147.4730 C   0  0  0  0  0  2  0  0  0  0  0  0
  160.2110  213.2230  148.6890 C   0  0  0  0  0  2  0  0  0  0  0  0
  156.7070  214.4530  147.2670 C   0  0  0  0  0  3  0  0  0  0  0  0
  157.7540  213.6800  149.2260 C   0  0  0  0  0  3  0  0  0  0  0  0
  158.8180  213.6250  148.3420 C   0  0  0  0  0  0  0  0  0  0  0  0
  156.5750  214.1380  148.6180 C   0  0  0  0  0  3  0  0  0  0  0  0
  158.3060  214.1540  146.8380 S   0  0  0  0  0  0  0  0  0  0  0  0
  1 22  1  1  0  0  0
  2 23  1  0  0  0  0
  3  7  1  6  0  0  0
  3 15  1  0  0  0  0
  4 20  1  1  0  0  0
  5 10  1  6  0  0  0
  5 14  1  0  0  0  0
  6  7  1  0  0  0  0
  6 17  1  0  0  0  0
  9 21  1  6  0  0  0
  9 23  1  0  0  0  0
 10 18  1  0  0  0  0
 11  8  1  0  0  0  0
 12 24  1  1  0  0  0
 12  9  1  0  0  0  0
 12 18  1  0  0  0  0
 13  2  1  0  0  0  0
 14  4  1  0  0  0  0
 14 11  1  1  0  0  0
 15  8  1  0  0  0  0
 16  1  1  0  0  0  0
 16  4  1  0  0  0  0
 17  5  1  0  0  0  0
 17  3  1  0  0  0  0
 18 16  1  0  0  0  0
 20 19  1  0  0  0  0
 21 13  1  0  0  0  0
 22 19  1  0  0  0  0
 23  1  1  0  0  0  0
 25 26  2  0  0  0  0
 26 24  1  0  0  0  0
 27 25  1  0  0  0  0
 28 27  1  0  0  0  0
 28 29  1  0  0  0  0
 30 33  2  0  0  0  0
 32 29  1  0  0  0  0
 32 31  2  0  0  0  0
 33 31  1  0  0  0  0
 34 30  1  0  0  0  0
 34 32  1  0  0  0  0
M  END
>  <MODEL>
7

>  <REMARK>
 VINA RESULT:      -7.2      3.052      5.214
  Name = 
  6 active torsions:
  status: ('A' for Active; 'I' for Inactive)
    1  A    between atoms: C_10  and  C_17
    2  A    between atoms: C_13  and  C_24
    3  A    between atoms: C_17  and  C_28
    4  A    between atoms: C_22  and  C_24
    5  A    between atoms: C_28  and  C_29
    6  A    between atoms: C_29  and  C_32
                            x       y       z     vdW  Elec       q    Type
                         _______ _______ _______ _____ _____    ______ ____

>  <TORSDO>
F 6

$$$$
=
 OpenBabel11122414323D

 34 40  0  0  1  0  0  0  0  0999 V2000
  161.5000  204.6490  149.0030 C   0  0  1  0  0  3  0  0  0  0  0  0
  160.6560  204.3210  146.6790 N   0  0  0  0  0  2  0  0  0  0  0  0
  160.0870  208.7200  153.9960 C   0  0  2  0  0  3  0  0  0  0  0  0
  161.2260  205.3180  151.4690 C   0  0  1  0  0  3  0  0  0  0  0  0
  160.9020  207.7540  151.9270 C   0  0  1  0  0  3  0  0  0  0  0  0
  160.6340  210.2540  152.6290 C   0  0  0  0  0  2  0  0  0  0  0  0
  159.7680  210.1930  153.8850 C   0  0  0  0  0  2  0  0  0  0  0  0
  161.4430  206.8600  155.0280 C   0  0  0  0  0  2  0  0  0  0  0  0
  161.4640  206.4290  147.3320 C   0  0  2  0  0  3  0  0  0  0  0  0
  161.5280  208.0820  150.7090 O   0  0  0  0  0  0  0  0  0  0  0  0
  160.8700  206.0260  153.8630 C   0  0  0  0  0  2  0  0  0  0  0  0
  161.3440  207.6100  148.3030 C   0  0  1  0  0  3  0  0  0  0  0  0
  160.5510  205.2130  145.5190 C   0  0  0  0  0  2  0  0  0  0  0  0
  161.4790  206.4220  152.4980 C   0  0  1  0  0  3  0  0  0  0  0  0
  160.7200  208.2040  155.2750 C   0  0  0  0  0  2  0  0  0  0  0  0
  161.7360  205.7460  150.0880 C   0  0  2  0  0  3  0  0  0  0  0  0
  161.1430  208.8590  152.9360 C   0  0  1  0  0  3  0  0  0  0  0  0
  161.1120  207.1280  149.7600 C   0  0  1  0  0  3  0  0  0  0  0  0
  161.5820  202.8840  150.8000 C   0  0  0  0  0  2  0  0  0  0  0  0
  161.8460  203.9750  151.8550 C   0  0  0  0  0  2  0  0  0  0  0  0
  160.8740  206.6360  145.9700 C   0  0  0  0  0  2  0  0  0  0  0  0
  160.8290  203.3930  149.5640 C   0  0  0  0  0  2  0  0  0  0  0  0
  160.7290  205.2180  147.8190 C   0  0  2  0  0  3  0  0  0  0  0  0
  162.5960  208.4810  148.1950 C   0  0  0  0  0  2  0  0  0  0  0  0
  162.0120  210.8620  148.0120 C   0  0  0  0  0  3  0  0  0  0  0  0
  162.3700  209.8370  148.7830 C   0  0  0  0  0  3  0  0  0  0  0  0
  161.7990  212.2060  148.6140 C   0  0  0  0  0  2  0  0  0  0  0  0
  160.7170  212.9380  147.8440 C   0  0  0  0  0  2  0  0  0  0  0  0
  160.3590  214.2430  148.5370 C   0  0  0  0  0  2  0  0  0  0  0  0
  157.7810  213.6150  151.4990 C   0  0  0  0  0  3  0  0  0  0  0  0
  157.9010  213.9490  149.1740 C   0  0  0  0  0  3  0  0  0  0  0  0
  159.2420  214.0420  149.5040 C   0  0  0  0  0  0  0  0  0  0  0  0
  157.0880  213.7150  150.2940 C   0  0  0  0  0  3  0  0  0  0  0  0
  159.4150  213.8200  151.1540 S   0  0  0  0  0  0  0  0  0  0  0  0
  1 22  1  1  0  0  0
  1 16  1  0  0  0  0
  2 23  1  0  0  0  0
  3  7  1  1  0  0  0
  3 15  1  0  0  0  0
  4 20  1  1  0  0  0
  4 14  1  0  0  0  0
  5 10  1  6  0  0  0
  5 14  1  0  0  0  0
  5 17  1  0  0  0  0
  6 17  1  0  0  0  0
  6  7  1  0  0  0  0
  8 15  1  0  0  0  0
  9 21  1  6  0  0  0
  9 23  1  0  0  0  0
  9 12  1  0  0  0  0
 11  8  1  0  0  0  0
 12 24  1  1  0  0  0
 12 18  1  0  0  0  0
 13 21  1  0  0  0  0
 13  2  1  0  0  0  0
 14 11  1  1  0  0  0
 16  4  1  0  0  0  0
 17  3  1  0  0  0  0
 18 16  1  0  0  0  0
 18 10  1  0  0  0  0
 19 20  1  0  0  0  0
 22 19  1  0  0  0  0
 23  1  1  0  0  0  0
 24 26  1  0  0  0  0
 25 27  1  0  0  0  0
 25 26  2  0  0  0  0
 28 29  1  0  0  0  0
 28 27  1  0  0  0  0
 29 32  1  0  0  0  0
 31 32  2  0  0  0  0
 31 33  1  0  0  0  0
 32 34  1  0  0  0  0
 33 30  2  0  0  0  0
 34 30  1  0  0  0  0
M  END
>  <MODEL>
8

>  <REMARK>
 VINA RESULT:      -7.1      3.086      7.116
  Name = 
  6 active torsions:
  status: ('A' for Active; 'I' for Inactive)
    1  A    between atoms: C_10  and  C_17
    2  A    between atoms: C_13  and  C_24
    3  A    between atoms: C_17  and  C_28
    4  A    between atoms: C_22  and  C_24
    5  A    between atoms: C_28  and  C_29
    6  A    between atoms: C_29  and  C_32
                            x       y       z     vdW  Elec       q    Type
                         _______ _______ _______ _____ _____    ______ ____

>  <TORSDO>
F 6

$$$$
=
 OpenBabel11122414323D

 34 40  0  0  1  0  0  0  0  0999 V2000
  160.1780  212.9500  150.1360 C   0  0  1  0  0  3  0  0  0  0  0  0
  161.7720  213.6080  148.3330 N   0  0  0  0  0  2  0  0  0  0  0  0
  160.7160  210.4160  156.2020 C   0  0  2  0  0  3  0  0  0  0  0  0
  159.5130  212.6070  152.5950 C   0  0  1  0  0  3  0  0  0  0  0  0
  160.6500  210.7350  153.7990 C   0  0  1  0  0  3  0  0  0  0  0  0
  161.6590  208.7870  155.2140 C   0  0  0  0  0  2  0  0  0  0  0  0
  161.6810  209.3380  156.6370 C   0  0  0  0  0  2  0  0  0  0  0  0
  158.3550  211.2960  156.0640 C   0  0  0  0  0  2  0  0  0  0  0  0
  161.8160  211.4150  149.1770 C   0  0  2  0  0  3  0  0  0  0  0  0
  160.9110  210.0860  152.5770 O   0  0  0  0  0  0  0  0  0  0  0  0
  158.9600  212.2710  155.0320 C   0  0  0  0  0  2  0  0  0  0  0  0
  161.9820  210.5100  150.4040 C   0  0  1  0  0  3  0  0  0  0  0  0
  162.8110  212.8740  147.6030 C   0  0  0  0  0  2  0  0  0  0  0  0
  159.3360  211.5700  153.7060 C   0  0  1  0  0  3  0  0  0  0  0  0
  159.3940  210.5540  156.9350 C   0  0  0  0  0  2  0  0  0  0  0  0
  159.9850  211.9300  151.3020 C   0  0  2  0  0  3  0  0  0  0  0  0
  160.4920  209.7030  154.8980 C   0  0  1  0  0  3  0  0  0  0  0  0
  161.2400  211.0860  151.6400 C   0  0  1  0  0  3  0  0  0  0  0  0
  158.4520  214.4530  151.1930 C   0  0  0  0  0  2  0  0  0  0  0  0
  158.2490  213.4220  152.3190 C   0  0  0  0  0  2  0  0  0  0  0  0
  163.0040  211.5140  148.2680 C   0  0  0  0  0  2  0  0  0  0  0  0
  159.8400  214.3880  150.5420 C   0  0  0  0  0  2  0  0  0  0  0  0
  161.5820  212.8460  149.5550 C   0  0  2  0  0  3  0  0  0  0  0  0
  161.4920  209.1020  150.0640 C   0  0  0  0  0  2  0  0  0  0  0  0
  161.4250  207.0090  151.3500 C   0  0  0  0  0  3  0  0  0  0  0  0
  162.1150  208.0760  150.9560 C   0  0  0  0  0  3  0  0  0  0  0  0
  162.0590  206.0020  152.2430 C   0  0  0  0  0  2  0  0  0  0  0  0
  161.6100  204.6120  151.8360 C   0  0  0  0  0  2  0  0  0  0  0  0
  160.8980  204.6530  150.4930 C   0  0  0  0  0  2  0  0  0  0  0  0
  161.0740  201.4040  148.2050 C   0  0  0  0  0  3  0  0  0  0  0  0
  160.8130  202.0980  150.4370 C   0  0  0  0  0  3  0  0  0  0  0  0
  160.9640  203.3260  149.8160 C   0  0  0  0  0  0  0  0  0  0  0  0
  160.8800  201.0270  149.5330 C   0  0  0  0  0  3  0  0  0  0  0  0
  161.1600  203.0850  148.1710 S   0  0  0  0  0  0  0  0  0  0  0  0
  1 22  1  1  0  0  0
  1 16  1  0  0  0  0
  2 23  1  0  0  0  0
  3  7  1  1  0  0  0
  3 15  1  0  0  0  0
  4 20  1  6  0  0  0
  4 14  1  0  0  0  0
  5 10  1  6  0  0  0
  5 17  1  0  0  0  0
  6  7  1  0  0  0  0
  8 15  1  0  0  0  0
  9 21  1  6  0  0  0
  9 23  1  0  0  0  0
  9 12  1  0  0  0  0
 11  8  1  0  0  0  0
 12 24  1  6  0  0  0
 12 18  1  0  0  0  0
 13 21  1  0  0  0  0
 13  2  1  0  0  0  0
 14  5  1  0  0  0  0
 14 11  1  1  0  0  0
 16 18  1  0  0  0  0
 16  4  1  0  0  0  0
 17  6  1  0  0  0  0
 17  3  1  0  0  0  0
 18 10  1  0  0  0  0
 19 20  1  0  0  0  0
 22 19  1  0  0  0  0
 23  1  1  0  0  0  0
 24 26  1  0  0  0  0
 25 27  1  0  0  0  0
 26 25  2  0  0  0  0
 28 27  1  0  0  0  0
 29 28  1  0  0  0  0
 30 33  2  0  0  0  0
 32 31  2  0  0  0  0
 32 29  1  0  0  0  0
 33 31  1  0  0  0  0
 34 30  1  0  0  0  0
 34 32  1  0  0  0  0
M  END
>  <MODEL>
9

>  <REMARK>
 VINA RESULT:      -6.8      2.442      5.029
  Name = 
  6 active torsions:
  status: ('A' for Active; 'I' for Inactive)
    1  A    between atoms: C_10  and  C_17
    2  A    between atoms: C_13  and  C_24
    3  A    between atoms: C_17  and  C_28
    4  A    between atoms: C_22  and  C_24
    5  A    between atoms: C_28  and  C_29
    6  A    between atoms: C_29  and  C_32
                            x       y       z     vdW  Elec       q    Type
                         _______ _______ _______ _____ _____    ______ ____

>  <TORSDO>
F 6

$$$$
