=
 OpenBabel11122413553D

 37 42  0  0  1  0  0  0  0  0999 V2000
  161.9300  208.1660  153.0460 C   0  0  1  0  0  3  0  0  0  0  0  0
  163.0330  206.9810  150.0620 C   0  0  0  0  0  2  0  0  0  0  0  0
  161.2290  210.2880  154.3420 C   0  0  2  0  0  3  0  0  0  0  0  0
  161.4920  208.2170  151.6470 N   0  0  2  0  0  0  0  0  0  0  0  0
  162.2590  209.6180  153.4120 C   0  0  2  0  0  3  0  0  0  0  0  0
  161.7300  206.9690  150.8720 C   0  0  2  0  0  3  0  0  0  0  0  0
  161.0440  209.4770  155.6280 C   0  0  0  0  0  2  0  0  0  0  0  0
  162.3050  210.3220  152.0800 C   0  0  0  0  0  2  0  0  0  0  0  0
  160.8490  206.1030  153.8860 N   0  0  0  0  0  2  0  0  0  0  0  0
  161.0760  207.9600  155.4120 C   0  0  0  0  0  2  0  0  0  0  0  0
  161.6070  207.8380  148.2590 O   0  0  0  0  0  0  0  0  0  0  0  0
  162.9370  207.6920  148.6940 C   0  0  1  0  0  3  0  0  0  0  0  0
  160.8390  207.5560  153.9570 C   0  0  1  0  0  3  0  0  0  0  0  0
  162.2290  209.2740  151.0670 N   0  0  2  0  0  0  0  0  0  0  0  0
  161.5200  205.6400  151.6160 C   0  0  1  0  0  3  0  0  0  0  0  0
  162.2680  209.0380  148.6040 C   0  0  2  0  0  3  0  0  0  0  0  0
  161.5550  209.6600  149.8170 C   0  0  2  0  0  3  0  0  0  0  0  0
  160.3520  205.6940  152.5850 C   0  0  0  0  0  2  0  0  0  0  0  0
  161.0520  204.8270  149.2120 C   0  0  0  0  0  2  0  0  0  0  0  0
  161.3430  204.4950  150.6570 C   0  0  0  0  0  0  0  0  0  0  0  0
  161.3030  203.2250  151.1120 C   0  0  0  0  0  3  0  0  0  0  0  0
  160.4170  201.0510  150.8490 F   0  0  0  0  0  0  0  0  0  0  0  0
  160.4120  202.4300  148.9080 C   0  0  0  0  0  2  0  0  0  0  0  0
  161.1240  202.0430  150.1990 C   0  0  1  0  0  3  0  0  0  0  0  0
  161.1400  203.6140  148.2850 C   0  0  0  0  0  2  0  0  0  0  0  0
  161.4490  211.1780  149.5980 C   0  0  0  0  0  2  0  0  0  0  0  0
  161.5380  211.5810  148.1230 C   0  0  1  0  0  3  0  0  0  0  0  0
  159.7950  213.3170  148.5590 C   0  0  0  0  0  1  0  0  0  0  0  0
  160.2450  212.2130  147.6210 C   0  0  0  0  0  2  0  0  0  0  0  0
  162.7310  212.5000  147.8820 C   0  0  0  0  0  2  0  0  0  0  0  0
  162.7950  212.9510  146.4310 C   0  0  0  0  0  2  0  0  0  0  0  0
  162.5890  214.4490  146.3270 C   0  0  0  0  0  1  0  0  0  0  0  0
  159.9310  210.4540  153.6800 N   0  0  0  0  0  2  0  0  0  0  0  0
  159.3780  211.7880  153.9300 C   0  0  0  0  0  0  0  0  0  0  0  0
  157.9530  211.6970  154.4550 C   0  0  0  0  0  1  0  0  0  0  0  0
  160.1730  212.4840  154.8440 O   0  0  0  0  0  1  0  0  0  0  0  0
  159.3530  212.5550  152.6260 C   0  0  0  0  0  1  0  0  0  0  0  0
  1  5  1  0  0  0  0
  1 13  1  0  0  0  0
  2  6  1  0  0  0  0
  3  7  1  0  0  0  0
  4  1  1  0  0  0  0
  5  3  1  0  0  0  0
  6 15  1  0  0  0  0
  6  4  1  0  0  0  0
  8  5  1  0  0  0  0
  9 13  1  0  0  0  0
 10  7  1  0  0  0  0
 11 16  1  0  0  0  0
 11 12  1  0  0  0  0
 12  2  1  0  0  0  0
 13 10  1  0  0  0  0
 14  4  1  0  0  0  0
 14  8  1  0  0  0  0
 15 18  1  0  0  0  0
 16 12  1  0  0  0  0
 16 17  1  0  0  0  0
 17 14  1  0  0  0  0
 18  9  1  0  0  0  0
 19 20  1  0  0  0  0
 20 21  2  0  0  0  0
 20 15  1  0  0  0  0
 23 24  1  0  0  0  0
 24 22  1  0  0  0  0
 24 21  1  0  0  0  0
 25 23  1  0  0  0  0
 25 19  1  0  0  0  0
 26 17  1  0  0  0  0
 27 26  1  0  0  0  0
 29 27  1  0  0  0  0
 29 28  1  0  0  0  0
 30 27  1  0  0  0  0
 31 30  1  0  0  0  0
 32 31  1  0  0  0  0
 33 34  1  0  0  0  0
 33  3  1  0  0  0  0
 34 35  1  0  0  0  0
 34 36  1  0  0  0  0
 37 34  1  0  0  0  0
M  END
>  <MODEL>
1

>  <REMARK>
 VINA RESULT:      -6.3      0.000      0.000
  Name = 
  8 active torsions:
  status: ('A' for Active; 'I' for Inactive)
    1  A    between atoms: C_1  and  C_4
    2  A    between atoms: C_1  and  C_27
    3  A    between atoms: C_2  and  N_22
    4  A    between atoms: C_4  and  C_12
    5  A    between atoms: C_4  and  C_37
    6  A    between atoms: C_6  and  N_22
    7  A    between atoms: C_8  and  C_12
    8  A    between atoms: C_23  and  C_30
                            x       y       z     vdW  Elec       q    Type
                         _______ _______ _______ _____ _____    ______ ____

>  <TORSDO>
F 8

$$$$
=
 OpenBabel11122413553D

 37 42  0  0  1  0  0  0  0  0999 V2000
  161.9550  208.1640  153.0210 C   0  0  1  0  0  3  0  0  0  0  0  0
  162.9390  206.9890  149.9920 C   0  0  0  0  0  2  0  0  0  0  0  0
  161.3550  210.2880  154.3650 C   0  0  2  0  0  3  0  0  0  0  0  0
  161.4810  208.2480  151.6360 N   0  0  2  0  0  0  0  0  0  0  0  0
  162.3380  209.6000  153.3980 C   0  0  2  0  0  3  0  0  0  0  0  0
  161.6590  207.0050  150.8380 C   0  0  2  0  0  3  0  0  0  0  0  0
  161.1800  209.4650  155.6440 C   0  0  0  0  0  2  0  0  0  0  0  0
  162.3690  210.3220  152.0750 C   0  0  0  0  0  2  0  0  0  0  0  0
  160.8350  206.1230  153.8640 N   0  0  0  0  0  2  0  0  0  0  0  0
  161.1600  207.9500  155.4080 C   0  0  0  0  0  2  0  0  0  0  0  0
  161.4910  207.9140  148.2410 O   0  0  0  0  0  0  0  0  0  0  0  0
  162.8280  207.7220  148.6380 C   0  0  1  0  0  3  0  0  0  0  0  0
  160.8710  207.5750  153.9550 C   0  0  1  0  0  3  0  0  0  0  0  0
  162.2330  209.2910  151.0500 N   0  0  2  0  0  0  0  0  0  0  0  0
  161.4290  205.6720  151.5700 C   0  0  1  0  0  3  0  0  0  0  0  0
  162.1980  209.0890  148.5840 C   0  0  2  0  0  3  0  0  0  0  0  0
  161.5370  209.7140  149.8250 C   0  0  2  0  0  3  0  0  0  0  0  0
  160.2900  205.7480  152.5710 C   0  0  0  0  0  2  0  0  0  0  0  0
  161.1710  203.1390  151.1500 C   0  0  0  0  0  2  0  0  0  0  0  0
  161.1910  204.5470  150.6010 C   0  0  0  0  0  0  0  0  0  0  0  0
  161.1460  204.7880  149.2740 C   0  0  0  0  0  3  0  0  0  0  0  0
  161.5990  203.9910  147.0970 F   0  0  0  0  0  0  0  0  0  0  0  0
  161.3430  202.3370  148.7890 C   0  0  0  0  0  2  0  0  0  0  0  0
  160.9150  203.7000  148.2610 C   0  0  1  0  0  3  0  0  0  0  0  0
  160.6770  202.1040  150.1390 C   0  0  0  0  0  2  0  0  0  0  0  0
  161.4720  211.2380  149.6290 C   0  0  0  0  0  2  0  0  0  0  0  0
  161.5330  211.6590  148.1570 C   0  0  1  0  0  3  0  0  0  0  0  0
  159.7680  213.3840  148.5440 C   0  0  0  0  0  1  0  0  0  0  0  0
  160.2060  212.2270  147.6670 C   0  0  0  0  0  2  0  0  0  0  0  0
  162.6750  212.6410  147.9200 C   0  0  0  0  0  2  0  0  0  0  0  0
  162.8110  212.9840  146.4450 C   0  0  0  0  0  2  0  0  0  0  0  0
  162.4450  214.4340  146.1960 C   0  0  0  0  0  1  0  0  0  0  0  0
  160.0450  210.5020  153.7410 N   0  0  0  0  0  2  0  0  0  0  0  0
  159.5210  211.8330  154.0600 C   0  0  0  0  0  0  0  0  0  0  0  0
  158.1020  211.7450  154.6010 C   0  0  0  0  0  1  0  0  0  0  0  0
  160.3420  212.4730  154.9910 O   0  0  0  0  0  1  0  0  0  0  0  0
  159.4920  212.6590  152.7920 C   0  0  0  0  0  1  0  0  0  0  0  0
  1  5  1  0  0  0  0
  1 13  1  0  0  0  0
  2  6  1  0  0  0  0
  3  7  1  0  0  0  0
  4  1  1  0  0  0  0
  5  3  1  0  0  0  0
  6 15  1  0  0  0  0
  6  4  1  0  0  0  0
  8  5  1  0  0  0  0
  9 13  1  0  0  0  0
 10  7  1  0  0  0  0
 11 16  1  0  0  0  0
 11 12  1  0  0  0  0
 12  2  1  0  0  0  0
 13 10  1  0  0  0  0
 14  4  1  0  0  0  0
 14  8  1  0  0  0  0
 15 18  1  0  0  0  0
 16 12  1  0  0  0  0
 16 17  1  0  0  0  0
 17 14  1  0  0  0  0
 18  9  1  0  0  0  0
 20 19  1  0  0  0  0
 20 15  1  0  0  0  0
 21 20  2  0  0  0  0
 22 24  1  0  0  0  0
 23 25  1  0  0  0  0
 24 23  1  0  0  0  0
 24 21  1  0  0  0  0
 25 19  1  0  0  0  0
 26 17  1  0  0  0  0
 27 26  1  0  0  0  0
 29 27  1  0  0  0  0
 29 28  1  0  0  0  0
 30 27  1  0  0  0  0
 31 30  1  0  0  0  0
 32 31  1  0  0  0  0
 33 34  1  0  0  0  0
 33  3  1  0  0  0  0
 34 35  1  0  0  0  0
 34 36  1  0  0  0  0
 37 34  1  0  0  0  0
M  END
>  <MODEL>
2

>  <REMARK>
 VINA RESULT:      -6.3      0.835      1.167
  Name = 
  8 active torsions:
  status: ('A' for Active; 'I' for Inactive)
    1  A    between atoms: C_1  and  C_4
    2  A    between atoms: C_1  and  C_27
    3  A    between atoms: C_2  and  N_22
    4  A    between atoms: C_4  and  C_12
    5  A    between atoms: C_4  and  C_37
    6  A    between atoms: C_6  and  N_22
    7  A    between atoms: C_8  and  C_12
    8  A    between atoms: C_23  and  C_30
                            x       y       z     vdW  Elec       q    Type
                         _______ _______ _______ _____ _____    ______ ____

>  <TORSDO>
F 8

$$$$
=
 OpenBabel11122413553D

 37 42  0  0  1  0  0  0  0  0999 V2000
  161.5610  208.3900  154.4610 C   0  0  1  0  0  3  0  0  0  0  0  0
  162.6470  207.8650  151.2880 C   0  0  0  0  0  2  0  0  0  0  0  0
  160.7740  210.1780  156.1520 C   0  0  2  0  0  3  0  0  0  0  0  0
  161.0820  208.6780  153.1060 N   0  0  2  0  0  0  0  0  0  0  0  0
  161.8140  209.7630  155.0940 C   0  0  2  0  0  3  0  0  0  0  0  0
  161.3700  207.6190  152.1020 C   0  0  2  0  0  3  0  0  0  0  0  0
  160.6720  209.1270  157.2610 C   0  0  0  0  0  2  0  0  0  0  0  0
  161.7820  210.7100  153.9210 C   0  0  0  0  0  2  0  0  0  0  0  0
  160.6250  206.1410  154.9080 N   0  0  0  0  0  2  0  0  0  0  0  0
  160.7860  207.6840  156.7580 C   0  0  0  0  0  2  0  0  0  0  0  0
  161.1240  208.9600  149.7060 O   0  0  0  0  0  0  0  0  0  0  0  0
  162.4730  208.8170  150.0840 C   0  0  1  0  0  3  0  0  0  0  0  0
  160.5320  207.5510  155.2560 C   0  0  1  0  0  3  0  0  0  0  0  0
  161.7390  209.8710  152.7280 N   0  0  2  0  0  0  0  0  0  0  0  0
  161.2590  206.1610  152.5800 C   0  0  1  0  0  3  0  0  0  0  0  0
  161.7250  210.1110  150.2640 C   0  0  2  0  0  3  0  0  0  0  0  0
  161.0100  210.4450  151.5850 C   0  0  2  0  0  3  0  0  0  0  0  0
  160.1170  205.9580  153.5600 C   0  0  0  0  0  2  0  0  0  0  0  0
  161.3260  203.7390  151.6950 C   0  0  0  0  0  2  0  0  0  0  0  0
  161.1220  205.2110  151.4230 C   0  0  0  0  0  0  0  0  0  0  0  0
  160.9680  205.6840  150.1690 C   0  0  0  0  0  3  0  0  0  0  0  0
  161.3990  205.3760  147.8660 F   0  0  0  0  0  0  0  0  0  0  0  0
  161.4710  203.4190  149.2200 C   0  0  0  0  0  2  0  0  0  0  0  0
  160.8300  204.7790  148.9740 C   0  0  1  0  0  3  0  0  0  0  0  0
  160.9210  202.8470  150.5200 C   0  0  0  0  0  2  0  0  0  0  0  0
  160.8100  211.9680  151.6630 C   0  0  0  0  0  2  0  0  0  0  0  0
  159.7870  212.4930  150.6520 C   0  0  1  0  0  3  0  0  0  0  0  0
  157.5890  213.6320  150.3230 C   0  0  0  0  0  1  0  0  0  0  0  0
  158.4910  212.9330  151.3210 C   0  0  0  0  0  2  0  0  0  0  0  0
  160.3830  213.6180  149.8120 C   0  0  0  0  0  2  0  0  0  0  0  0
  160.7540  213.1300  148.4200 C   0  0  0  0  0  2  0  0  0  0  0  0
  162.2600  213.1050  148.2450 C   0  0  0  0  0  1  0  0  0  0  0  0
  159.4500  210.3860  155.5540 N   0  0  0  0  0  2  0  0  0  0  0  0
  158.9380  211.7240  155.8610 C   0  0  0  0  0  0  0  0  0  0  0  0
  158.0900  211.7070  157.1240 C   0  0  0  0  0  1  0  0  0  0  0  0
  159.9910  212.6300  156.0130 O   0  0  0  0  0  1  0  0  0  0  0  0
  158.0660  212.1840  154.7130 C   0  0  0  0  0  1  0  0  0  0  0  0
  1  5  1  0  0  0  0
  1 13  1  0  0  0  0
  2  6  1  0  0  0  0
  3  7  1  0  0  0  0
  4  1  1  0  0  0  0
  5  3  1  0  0  0  0
  6 15  1  0  0  0  0
  6  4  1  0  0  0  0
  8  5  1  0  0  0  0
  9 13  1  0  0  0  0
 10  7  1  0  0  0  0
 11 12  1  0  0  0  0
 11 16  1  0  0  0  0
 12 16  1  0  0  0  0
 12  2  1  0  0  0  0
 13 10  1  0  0  0  0
 14  4  1  0  0  0  0
 14  8  1  0  0  0  0
 15 18  1  0  0  0  0
 16 17  1  0  0  0  0
 17 26  1  0  0  0  0
 17 14  1  0  0  0  0
 18  9  1  0  0  0  0
 20 19  1  0  0  0  0
 20 15  1  0  0  0  0
 21 20  2  0  0  0  0
 22 24  1  0  0  0  0
 23 25  1  0  0  0  0
 24 23  1  0  0  0  0
 24 21  1  0  0  0  0
 25 19  1  0  0  0  0
 27 29  1  0  0  0  0
 27 26  1  0  0  0  0
 28 29  1  0  0  0  0
 30 27  1  0  0  0  0
 31 30  1  0  0  0  0
 32 31  1  0  0  0  0
 33 34  1  0  0  0  0
 33  3  1  0  0  0  0
 34 36  1  0  0  0  0
 34 35  1  0  0  0  0
 37 34  1  0  0  0  0
M  END
>  <MODEL>
3

>  <REMARK>
 VINA RESULT:      -5.3      1.640      2.307
  Name = 
  8 active torsions:
  status: ('A' for Active; 'I' for Inactive)
    1  A    between atoms: C_1  and  C_4
    2  A    between atoms: C_1  and  C_27
    3  A    between atoms: C_2  and  N_22
    4  A    between atoms: C_4  and  C_12
    5  A    between atoms: C_4  and  C_37
    6  A    between atoms: C_6  and  N_22
    7  A    between atoms: C_8  and  C_12
    8  A    between atoms: C_23  and  C_30
                            x       y       z     vdW  Elec       q    Type
                         _______ _______ _______ _____ _____    ______ ____

>  <TORSDO>
F 8

$$$$
=
 OpenBabel11122413553D

 37 42  0  0  1  0  0  0  0  0999 V2000
  161.5990  212.2280  149.9050 C   0  0  1  0  0  3  0  0  0  0  0  0
  162.0100  209.9650  152.4010 C   0  0  0  0  0  2  0  0  0  0  0  0
  161.7360  212.5990  147.3520 C   0  0  2  0  0  3  0  0  0  0  0  0
  161.0910  210.8920  150.2310 N   0  0  2  0  0  0  0  0  0  0  0  0
  162.4120  212.0410  148.6190 C   0  0  2  0  0  3  0  0  0  0  0  0
  160.8450  210.6530  151.6780 C   0  0  2  0  0  3  0  0  0  0  0  0
  161.3990  214.0840  147.5190 C   0  0  0  0  0  2  0  0  0  0  0  0
  162.5790  210.5470  148.5140 C   0  0  0  0  0  2  0  0  0  0  0  0
  159.9730  213.7230  151.0250 N   0  0  0  0  0  2  0  0  0  0  0  0
  160.9160  214.4530  148.9260 C   0  0  0  0  0  2  0  0  0  0  0  0
  160.8040  207.9020  151.8480 O   0  0  0  0  0  0  0  0  0  0  0  0
  162.0440  208.4280  152.2560 C   0  0  1  0  0  3  0  0  0  0  0  0
  160.4440  213.2450  149.7350 C   0  0  1  0  0  3  0  0  0  0  0  0
  162.0840  209.9970  149.7720 N   0  0  2  0  0  0  0  0  0  0  0  0
  160.2720  211.8280  152.4880 C   0  0  1  0  0  3  0  0  0  0  0  0
  161.8470  207.8060  150.8990 C   0  0  2  0  0  3  0  0  0  0  0  0
  161.4750  208.6610  149.6750 C   0  0  2  0  0  3  0  0  0  0  0  0
  159.2670  212.6450  151.6950 C   0  0  0  0  0  2  0  0  0  0  0  0
  158.2020  211.6960  154.0230 C   0  0  0  0  0  2  0  0  0  0  0  0
  159.6540  211.3600  153.7770 C   0  0  0  0  0  0  0  0  0  0  0  0
  160.4190  210.7900  154.7310 C   0  0  0  0  0  3  0  0  0  0  0  0
  160.7930  210.4630  157.0410 F   0  0  0  0  0  0  0  0  0  0  0  0
  158.5730  211.0430  156.4070 C   0  0  0  0  0  2  0  0  0  0  0  0
  159.8550  210.3060  156.0400 C   0  0  1  0  0  3  0  0  0  0  0  0
  157.6100  210.9660  155.2290 C   0  0  0  0  0  2  0  0  0  0  0  0
  161.8550  207.8840  148.4030 C   0  0  0  0  0  2  0  0  0  0  0  0
  160.9740  206.6550  148.1620 C   0  0  1  0  0  3  0  0  0  0  0  0
  161.5300  205.7540  145.9000 C   0  0  0  0  0  1  0  0  0  0  0  0
  160.5230  206.5460  146.7100 C   0  0  0  0  0  2  0  0  0  0  0  0
  161.6820  205.3830  148.6160 C   0  0  0  0  0  2  0  0  0  0  0  0
  160.8080  204.5720  149.5600 C   0  0  0  0  0  2  0  0  0  0  0  0
  160.8090  203.1080  149.1650 C   0  0  0  0  0  1  0  0  0  0  0  0
  160.5150  211.8570  147.0200 N   0  0  0  0  0  2  0  0  0  0  0  0
  159.9030  212.3710  145.7920 C   0  0  0  0  0  0  0  0  0  0  0  0
  160.6840  213.5570  145.2480 C   0  0  0  0  0  1  0  0  0  0  0  0
  159.8330  211.3670  144.8220 O   0  0  0  0  0  1  0  0  0  0  0  0
  158.4980  212.8360  146.1080 C   0  0  0  0  0  1  0  0  0  0  0  0
  1  4  1  0  0  0  0
  3  7  1  0  0  0  0
  3  5  1  0  0  0  0
  4  6  1  0  0  0  0
  5  1  1  0  0  0  0
  6  2  1  0  0  0  0
  6 15  1  0  0  0  0
  7 10  1  0  0  0  0
  8  5  1  0  0  0  0
  8 14  1  0  0  0  0
  9 18  1  0  0  0  0
 10 13  1  0  0  0  0
 11 12  1  0  0  0  0
 12  2  1  0  0  0  0
 13  1  1  0  0  0  0
 13  9  1  0  0  0  0
 14  4  1  0  0  0  0
 15 20  1  0  0  0  0
 16 11  1  0  0  0  0
 16 12  1  0  0  0  0
 17 14  1  0  0  0  0
 17 16  1  0  0  0  0
 18 15  1  0  0  0  0
 19 25  1  0  0  0  0
 20 19  1  0  0  0  0
 20 21  2  0  0  0  0
 21 24  1  0  0  0  0
 24 23  1  0  0  0  0
 24 22  1  0  0  0  0
 25 23  1  0  0  0  0
 26 17  1  0  0  0  0
 27 26  1  0  0  0  0
 27 30  1  0  0  0  0
 28 29  1  0  0  0  0
 29 27  1  0  0  0  0
 30 31  1  0  0  0  0
 32 31  1  0  0  0  0
 33  3  1  0  0  0  0
 34 37  1  0  0  0  0
 34 33  1  0  0  0  0
 35 34  1  0  0  0  0
 36 34  1  0  0  0  0
M  END
>  <MODEL>
4

>  <REMARK>
 VINA RESULT:      -5.1      2.807      7.419
  Name = 
  8 active torsions:
  status: ('A' for Active; 'I' for Inactive)
    1  A    between atoms: C_1  and  C_4
    2  A    between atoms: C_1  and  C_27
    3  A    between atoms: C_2  and  N_22
    4  A    between atoms: C_4  and  C_12
    5  A    between atoms: C_4  and  C_37
    6  A    between atoms: C_6  and  N_22
    7  A    between atoms: C_8  and  C_12
    8  A    between atoms: C_23  and  C_30
                            x       y       z     vdW  Elec       q    Type
                         _______ _______ _______ _____ _____    ______ ____

>  <TORSDO>
F 8

$$$$
=
 OpenBabel11122413553D

 37 42  0  0  1  0  0  0  0  0999 V2000
  161.1580  210.7220  152.4680 C   0  0  1  0  0  3  0  0  0  0  0  0
  160.2610  210.1450  155.6910 C   0  0  0  0  0  2  0  0  0  0  0  0
  162.3350  209.7230  150.3960 C   0  0  2  0  0  3  0  0  0  0  0  0
  160.3970  209.7050  153.2000 N   0  0  2  0  0  0  0  0  0  0  0  0
  162.3810  209.9810  151.9150 C   0  0  2  0  0  3  0  0  0  0  0  0
  159.5720  210.2280  154.3220 C   0  0  2  0  0  3  0  0  0  0  0  0
  162.1520  211.0330  149.6240 C   0  0  0  0  0  2  0  0  0  0  0  0
  162.3840  208.6780  152.6720 C   0  0  0  0  0  2  0  0  0  0  0  0
  159.4270  212.3980  151.8970 N   0  0  0  0  0  2  0  0  0  0  0  0
  161.2050  212.0260  150.3070 C   0  0  0  0  0  2  0  0  0  0  0  0
  159.1180  207.9800  155.8520 O   0  0  0  0  0  0  0  0  0  0  0  0
  160.1530  208.7700  156.3860 C   0  0  1  0  0  3  0  0  0  0  0  0
  160.3030  211.3720  151.3530 C   0  0  1  0  0  3  0  0  0  0  0  0
  161.3670  208.8130  153.7110 N   0  0  2  0  0  0  0  0  0  0  0  0
  158.8820  211.5850  154.1020 C   0  0  1  0  0  3  0  0  0  0  0  0
  160.4290  207.5170  155.5990 C   0  0  2  0  0  3  0  0  0  0  0  0
  160.6820  207.5650  154.0820 C   0  0  2  0  0  3  0  0  0  0  0  0
  158.3840  211.7580  152.6780 C   0  0  0  0  0  2  0  0  0  0  0  0
  157.9970  212.7080  156.2500 C   0  0  0  0  0  2  0  0  0  0  0  0
  157.7520  211.7920  155.0730 C   0  0  0  0  0  0  0  0  0  0  0  0
  156.6200  211.0660  154.9650 C   0  0  0  0  0  3  0  0  0  0  0  0
  154.8220  210.0170  156.0830 F   0  0  0  0  0  0  0  0  0  0  0  0
  155.9070  211.7800  157.2600 C   0  0  0  0  0  2  0  0  0  0  0  0
  155.4610  211.2290  155.9110 C   0  0  1  0  0  3  0  0  0  0  0  0
  156.7230  213.0440  157.0260 C   0  0  0  0  0  2  0  0  0  0  0  0
  161.4300  206.2860  153.6700 C   0  0  0  0  0  2  0  0  0  0  0  0
  160.8360  205.6150  152.4270 C   0  0  1  0  0  3  0  0  0  0  0  0
  163.1980  205.8060  151.6390 C   0  0  0  0  0  1  0  0  0  0  0  0
  161.7450  205.7510  151.2110 C   0  0  0  0  0  2  0  0  0  0  0  0
  160.5020  204.1540  152.7060 C   0  0  0  0  0  2  0  0  0  0  0  0
  160.6050  203.3140  151.4430 C   0  0  0  0  0  2  0  0  0  0  0  0
  161.5670  202.1590  151.6450 C   0  0  0  0  0  1  0  0  0  0  0  0
  161.2600  208.7920  150.0390 N   0  0  0  0  0  2  0  0  0  0  0  0
  161.5360  208.1340  148.7590 C   0  0  0  0  0  0  0  0  0  0  0  0
  160.7750  206.8220  148.6450 C   0  0  0  0  0  1  0  0  0  0  0  0
  161.1930  208.9710  147.6940 O   0  0  0  0  0  1  0  0  0  0  0  0
  163.0160  207.8300  148.6790 C   0  0  0  0  0  1  0  0  0  0  0  0
  1  4  1  0  0  0  0
  2 12  1  0  0  0  0
  3  5  1  0  0  0  0
  4 14  1  0  0  0  0
  4  6  1  0  0  0  0
  5  1  1  0  0  0  0
  5  8  1  0  0  0  0
  6  2  1  0  0  0  0
  7 10  1  0  0  0  0
  7  3  1  0  0  0  0
  8 14  1  0  0  0  0
  9 18  1  0  0  0  0
 10 13  1  0  0  0  0
 11 12  1  0  0  0  0
 13  9  1  0  0  0  0
 13  1  1  0  0  0  0
 14 17  1  0  0  0  0
 15  6  1  0  0  0  0
 15 20  1  0  0  0  0
 16 11  1  0  0  0  0
 16 12  1  0  0  0  0
 17 16  1  0  0  0  0
 18 15  1  0  0  0  0
 19 25  1  0  0  0  0
 20 19  1  0  0  0  0
 21 20  2  0  0  0  0
 21 24  1  0  0  0  0
 24 22  1  0  0  0  0
 24 23  1  0  0  0  0
 25 23  1  0  0  0  0
 26 17  1  0  0  0  0
 27 30  1  0  0  0  0
 27 26  1  0  0  0  0
 29 28  1  0  0  0  0
 29 27  1  0  0  0  0
 31 32  1  0  0  0  0
 31 30  1  0  0  0  0
 33  3  1  0  0  0  0
 34 33  1  0  0  0  0
 35 34  1  0  0  0  0
 36 34  1  0  0  0  0
 37 34  1  0  0  0  0
M  END
>  <MODEL>
5

>  <REMARK>
 VINA RESULT:      -3.6      2.756      8.052
  Name = 
  8 active torsions:
  status: ('A' for Active; 'I' for Inactive)
    1  A    between atoms: C_1  and  C_4
    2  A    between atoms: C_1  and  C_27
    3  A    between atoms: C_2  and  N_22
    4  A    between atoms: C_4  and  C_12
    5  A    between atoms: C_4  and  C_37
    6  A    between atoms: C_6  and  N_22
    7  A    between atoms: C_8  and  C_12
    8  A    between atoms: C_23  and  C_30
                            x       y       z     vdW  Elec       q    Type
                         _______ _______ _______ _____ _____    ______ ____

>  <TORSDO>
F 8

$$$$
