=
 OpenBabel11122413023D

 32 36  0  0  1  0  0  0  0  0999 V2000
  159.7550  210.7950  154.7490 C   0  0  1  0  0  3  0  0  0  0  0  0
  160.9070  212.4510  150.2420 C   0  0  0  0  0  3  0  0  0  0  0  0
  159.6710  213.0950  150.1760 C   0  0  0  0  0  3  0  0  0  0  0  0
  157.8670  211.8560  156.0970 C   0  0  2  0  0  3  0  0  0  0  0  0
  156.4510  212.3650  155.7790 C   0  0  2  0  0  3  0  0  0  0  0  0
  161.1730  208.9600  155.6600 C   0  0  2  0  0  3  0  0  0  0  0  0
  161.9120  210.1540  153.6170 O   0  0  0  0  0  0  0  0  0  0  0  0
  155.0390  213.4440  154.1960 N   0  0  0  0  0  0  0  0  0  0  0  0
  161.3000  211.8100  151.4180 C   0  0  0  0  0  3  0  0  0  0  0  0
  160.9240  211.1650  153.8230 C   0  0  1  0  0  3  0  0  0  0  0  0
  160.4570  211.8000  152.5380 C   0  0  0  0  0  0  0  0  0  0  0  0
  158.2520  212.4430  153.6520 C   0  0  2  0  0  3  0  0  0  0  0  0
  154.8560  212.0120  154.0000 C   0  0  0  0  0  2  0  0  0  0  0  0
  161.5590  208.8910  154.1640 C   0  0  2  0  0  3  0  0  0  0  0  0
  155.6200  211.2960  155.1010 C   0  0  0  0  0  2  0  0  0  0  0  0
  158.8320  213.1120  151.2910 C   0  0  0  0  0  3  0  0  0  0  0  0
  159.2240  212.4970  152.4910 C   0  0  0  0  0  0  0  0  0  0  0  0
  157.5330  213.7620  153.8890 C   0  0  0  0  0  2  0  0  0  0  0  0
  160.3580  210.2110  156.0120 C   0  0  0  0  0  2  0  0  0  0  0  0
  158.3320  212.4690  157.2610 O   0  0  0  0  0  1  0  0  0  0  0  0
  154.9640  214.1100  152.8990 C   0  0  0  0  0  1  0  0  0  0  0  0
  158.9060  212.0390  154.9760 C   0  0  2  0  0  3  0  0  0  0  0  0
  156.3390  213.5940  154.8660 C   0  0  2  0  0  3  0  0  0  0  0  0
  160.8180  208.3830  151.8320 C   0  0  0  0  0  1  0  0  0  0  0  0
  160.5050  208.1800  153.3040 C   0  0  1  0  0  3  0  0  0  0  0  0
  160.4810  206.8120  153.5880 O   0  0  0  0  0  0  0  0  0  0  0  0
  161.6540  206.3060  153.0200 C   0  0  0  0  0  2  0  0  0  0  0  0
  161.3500  205.0780  152.2350 C   0  0  0  0  0  0  0  0  0  0  0  0
  160.8840  204.0600  152.8100 O   0  0  0  0  0  1  0  0  0  0  0  0
  161.5610  205.0630  150.8630 O   0  0  0  0  0  0  0  0  0  0  0  0
  162.7740  210.2620  157.0570 C   0  0  0  0  0  1  0  0  0  0  0  0
  162.4230  208.8890  156.5180 C   0  0  0  0  0  2  0  0  0  0  0  0
  1 22  1  0  0  0  0
  1 19  1  1  0  0  0
  2  9  1  0  0  0  0
  3  2  2  0  0  0  0
  3 16  1  0  0  0  0
  4 20  1  1  0  0  0
  5 15  1  6  0  0  0
  5  4  1  0  0  0  0
  6 19  1  0  0  0  0
  6 32  1  1  0  0  0
  7 10  1  0  0  0  0
  7 14  1  0  0  0  0
  8 23  1  0  0  0  0
  9 11  2  0  0  0  0
 10 11  1  6  0  0  0
 10  1  1  0  0  0  0
 12 18  1  1  0  0  0
 12 22  1  0  0  0  0
 13  8  1  0  0  0  0
 13 15  1  0  0  0  0
 14 25  1  6  0  0  0
 14  6  1  0  0  0  0
 16 17  2  0  0  0  0
 17 11  1  0  0  0  0
 17 12  1  0  0  0  0
 18 23  1  0  0  0  0
 21  8  1  0  0  0  0
 22  4  1  0  0  0  0
 23  5  1  0  0  0  0
 24 25  1  0  0  0  0
 25 26  1  0  0  0  0
 27 26  1  0  0  0  0
 28 29  1  0  0  0  0
 28 27  1  0  0  0  0
 30 28  2  0  0  0  0
 32 31  1  0  0  0  0
M  END
>  <MODEL>
1

>  <REMARK>
 VINA RESULT:      -3.7      0.000      0.000
  Name = 
  5 active torsions:
  status: ('A' for Active; 'I' for Inactive)
    1  A    between atoms: C_7  and  C_19
    2  A    between atoms: C_10  and  C_17
    3  A    between atoms: C_10  and  O_20
    4  A    between atoms: O_20  and  C_29
    5  A    between atoms: C_29  and  C_30
                            x       y       z     vdW  Elec       q    Type
                         _______ _______ _______ _____ _____    ______ ____

>  <TORSDO>
F 5

$$$$
=
 OpenBabel11122413023D

 32 36  0  0  1  0  0  0  0  0999 V2000
  161.0070  210.0050  151.4630 C   0  0  1  0  0  3  0  0  0  0  0  0
  160.9840  208.9600  156.2900 C   0  0  0  0  0  3  0  0  0  0  0  0
  161.0480  207.6000  155.9830 C   0  0  0  0  0  3  0  0  0  0  0  0
  161.7570  208.2730  149.7460 C   0  0  2  0  0  3  0  0  0  0  0  0
  161.5380  206.7630  149.5520 C   0  0  2  0  0  3  0  0  0  0  0  0
  160.3550  212.3210  150.8200 C   0  0  2  0  0  3  0  0  0  0  0  0
  160.7960  211.8120  153.2060 O   0  0  0  0  0  0  0  0  0  0  0  0
  161.2860  204.6420  150.6040 N   0  0  0  0  0  0  0  0  0  0  0  0
  161.0680  209.9110  155.2720 C   0  0  0  0  0  3  0  0  0  0  0  0
  161.3670  210.5500  152.8540 C   0  0  1  0  0  3  0  0  0  0  0  0
  161.2080  209.5110  153.9350 C   0  0  0  0  0  0  0  0  0  0  0  0
  161.3960  207.6590  152.1890 C   0  0  2  0  0  3  0  0  0  0  0  0
  159.9390  205.1390  150.3530 C   0  0  0  0  0  2  0  0  0  0  0  0
  159.8300  212.2800  152.2740 C   0  0  2  0  0  3  0  0  0  0  0  0
  160.0640  206.4160  149.5390 C   0  0  0  0  0  2  0  0  0  0  0  0
  161.2090  207.1890  154.6590 C   0  0  0  0  0  3  0  0  0  0  0  0
  161.3240  208.1330  153.6260 C   0  0  0  0  0  0  0  0  0  0  0  0
  162.3360  206.4790  151.9970 C   0  0  0  0  0  2  0  0  0  0  0  0
  161.2500  211.1250  150.4710 C   0  0  0  0  0  2  0  0  0  0  0  0
  162.9120  208.6670  149.0720 O   0  0  0  0  0  1  0  0  0  0  0  0
  161.2910  203.9120  151.8670 C   0  0  0  0  0  1  0  0  0  0  0  0
  161.8330  208.7510  151.2080 C   0  0  2  0  0  3  0  0  0  0  0  0
  162.1570  205.8270  150.6000 C   0  0  2  0  0  3  0  0  0  0  0  0
  158.1500  211.3640  153.8810 C   0  0  0  0  0  1  0  0  0  0  0  0
  158.5020  211.5240  152.4120 C   0  0  1  0  0  3  0  0  0  0  0  0
  157.4740  212.2150  151.7620 O   0  0  0  0  0  0  0  0  0  0  0  0
  157.4270  213.4630  152.3900 C   0  0  0  0  0  2  0  0  0  0  0  0
  156.0660  214.0510  152.2500 C   0  0  0  0  0  0  0  0  0  0  0  0
  155.6390  214.3920  151.1160 O   0  0  0  0  0  0  0  0  0  0  0  0
  155.2590  214.2050  153.3690 O   0  0  0  0  0  1  0  0  0  0  0  0
  161.0660  213.9850  149.1060 C   0  0  0  0  0  1  0  0  0  0  0  0
  161.1000  213.6220  150.5780 C   0  0  0  0  0  2  0  0  0  0  0  0
  1 19  1  6  0  0  0
  1 10  1  0  0  0  0
  3  2  1  0  0  0  0
  4 20  1  6  0  0  0
  4 22  1  0  0  0  0
  5 15  1  1  0  0  0
  5  4  1  0  0  0  0
  5 23  1  0  0  0  0
  6 32  1  1  0  0  0
  6 14  1  0  0  0  0
  8 21  1  0  0  0  0
  9  2  2  0  0  0  0
 10  7  1  1  0  0  0
 10 11  1  0  0  0  0
 11  9  1  0  0  0  0
 12 18  1  1  0  0  0
 12 17  1  0  0  0  0
 13  8  1  0  0  0  0
 14 25  1  6  0  0  0
 14  7  1  0  0  0  0
 15 13  1  0  0  0  0
 16  3  2  0  0  0  0
 17 11  2  0  0  0  0
 17 16  1  0  0  0  0
 19  6  1  0  0  0  0
 22  1  1  0  0  0  0
 22 12  1  0  0  0  0
 23  8  1  0  0  0  0
 23 18  1  0  0  0  0
 25 24  1  0  0  0  0
 26 27  1  0  0  0  0
 26 25  1  0  0  0  0
 28 27  1  0  0  0  0
 28 30  1  0  0  0  0
 29 28  2  0  0  0  0
 31 32  1  0  0  0  0
M  END
>  <MODEL>
2

>  <REMARK>
 VINA RESULT:      -3.6      3.164      7.800
  Name = 
  5 active torsions:
  status: ('A' for Active; 'I' for Inactive)
    1  A    between atoms: C_7  and  C_19
    2  A    between atoms: C_10  and  C_17
    3  A    between atoms: C_10  and  O_20
    4  A    between atoms: O_20  and  C_29
    5  A    between atoms: C_29  and  C_30
                            x       y       z     vdW  Elec       q    Type
                         _______ _______ _______ _____ _____    ______ ____

>  <TORSDO>
F 5

$$$$
=
 OpenBabel11122413023D

 32 36  0  0  1  0  0  0  0  0999 V2000
  160.3710  210.1570  152.6960 C   0  0  1  0  0  3  0  0  0  0  0  0
  160.4120  208.2680  157.2590 C   0  0  0  0  0  3  0  0  0  0  0  0
  160.7070  207.0130  156.7230 C   0  0  0  0  0  3  0  0  0  0  0  0
  161.4340  208.9040  150.7440 C   0  0  2  0  0  3  0  0  0  0  0  0
  161.4730  207.4380  150.2790 C   0  0  2  0  0  3  0  0  0  0  0  0
  159.3600  212.4180  152.4340 C   0  0  2  0  0  3  0  0  0  0  0  0
  159.8250  211.5620  154.7140 O   0  0  0  0  0  0  0  0  0  0  0  0
  161.5510  205.1500  150.9300 N   0  0  0  0  0  0  0  0  0  0  0  0
  160.3600  209.3880  156.4280 C   0  0  0  0  0  3  0  0  0  0  0  0
  160.6040  210.4910  154.1770 C   0  0  1  0  0  3  0  0  0  0  0  0
  160.5940  209.2630  155.0510 C   0  0  0  0  0  0  0  0  0  0  0  0
  161.1250  207.8100  153.0200 C   0  0  2  0  0  3  0  0  0  0  0  0
  160.1470  205.4650  150.7010 C   0  0  0  0  0  2  0  0  0  0  0  0
  158.8170  212.0320  153.8300 C   0  0  2  0  0  3  0  0  0  0  0  0
  160.0770  206.8710  150.1290 C   0  0  0  0  0  2  0  0  0  0  0  0
  160.9630  206.8780  155.3580 C   0  0  0  0  0  3  0  0  0  0  0  0
  160.9430  207.9990  154.5130 C   0  0  0  0  0  0  0  0  0  0  0  0
  162.2520  206.8480  152.6750 C   0  0  0  0  0  2  0  0  0  0  0  0
  160.4480  211.4620  151.9290 C   0  0  0  0  0  2  0  0  0  0  0  0
  162.5240  209.5910  150.2100 O   0  0  0  0  0  1  0  0  0  0  0  0
  161.6470  204.2140  152.0450 C   0  0  0  0  0  1  0  0  0  0  0  0
  161.3980  209.1160  152.2690 C   0  0  2  0  0  3  0  0  0  0  0  0
  162.2140  206.4390  151.1780 C   0  0  2  0  0  3  0  0  0  0  0  0
  157.3160  210.5360  155.1540 C   0  0  0  0  0  1  0  0  0  0  0  0
  157.6280  211.0640  153.7640 C   0  0  1  0  0  3  0  0  0  0  0  0
  156.4990  211.7060  153.2480 O   0  0  0  0  0  0  0  0  0  0  0  0
  155.9090  212.3350  154.3490 C   0  0  0  0  0  2  0  0  0  0  0  0
  155.5400  213.7340  153.9970 C   0  0  0  0  0  0  0  0  0  0  0  0
  154.6800  214.3510  154.6770 O   0  0  0  0  0  1  0  0  0  0  0  0
  156.1620  214.3670  152.9280 O   0  0  0  0  0  0  0  0  0  0  0  0
  159.8300  214.4530  151.0740 C   0  0  0  0  0  1  0  0  0  0  0  0
  159.8850  213.8430  152.4610 C   0  0  0  0  0  2  0  0  0  0  0  0
  1 19  1  6  0  0  0
  1 10  1  0  0  0  0
  3  2  1  0  0  0  0
  4 20  1  1  0  0  0
  4 22  1  0  0  0  0
  5 15  1  1  0  0  0
  5  4  1  0  0  0  0
  5 23  1  0  0  0  0
  6 32  1  1  0  0  0
  6 14  1  0  0  0  0
  8 23  1  0  0  0  0
  8 21  1  0  0  0  0
  9  2  2  0  0  0  0
 10  7  1  1  0  0  0
 10 11  1  0  0  0  0
 11  9  1  0  0  0  0
 12 18  1  1  0  0  0
 12 17  1  0  0  0  0
 13  8  1  0  0  0  0
 14 25  1  6  0  0  0
 14  7  1  0  0  0  0
 15 13  1  0  0  0  0
 16  3  2  0  0  0  0
 17 11  2  0  0  0  0
 17 16  1  0  0  0  0
 19  6  1  0  0  0  0
 22  1  1  0  0  0  0
 22 12  1  0  0  0  0
 23 18  1  0  0  0  0
 25 24  1  0  0  0  0
 26 25  1  0  0  0  0
 26 27  1  0  0  0  0
 28 27  1  0  0  0  0
 28 29  1  0  0  0  0
 30 28  2  0  0  0  0
 31 32  1  0  0  0  0
M  END
>  <MODEL>
3

>  <REMARK>
 VINA RESULT:      -3.6      2.912      7.580
  Name = 
  5 active torsions:
  status: ('A' for Active; 'I' for Inactive)
    1  A    between atoms: C_7  and  C_19
    2  A    between atoms: C_10  and  C_17
    3  A    between atoms: C_10  and  O_20
    4  A    between atoms: O_20  and  C_29
    5  A    between atoms: C_29  and  C_30
                            x       y       z     vdW  Elec       q    Type
                         _______ _______ _______ _____ _____    ______ ____

>  <TORSDO>
F 5

$$$$
=
 OpenBabel11122413023D

 32 36  0  0  1  0  0  0  0  0999 V2000
  161.1400  209.0320  152.0740 C   0  0  1  0  0  3  0  0  0  0  0  0
  162.3900  211.8680  148.2290 C   0  0  0  0  0  3  0  0  0  0  0  0
  161.5230  212.8580  148.6930 C   0  0  0  0  0  3  0  0  0  0  0  0
  159.9960  210.0280  154.1250 C   0  0  2  0  0  3  0  0  0  0  0  0
  158.8830  211.0640  154.3600 C   0  0  2  0  0  3  0  0  0  0  0  0
  161.7770  206.6280  151.9400 C   0  0  2  0  0  3  0  0  0  0  0  0
  162.7210  208.2180  150.2900 O   0  0  0  0  0  0  0  0  0  0  0  0
  157.8750  213.0930  153.6310 N   0  0  0  0  0  0  0  0  0  0  0  0
  162.6080  210.7180  148.9890 C   0  0  0  0  0  3  0  0  0  0  0  0
  162.2550  209.3280  151.0590 C   0  0  1  0  0  3  0  0  0  0  0  0
  161.9550  210.5420  150.2170 C   0  0  0  0  0  0  0  0  0  0  0  0
  160.3300  211.3820  151.9970 C   0  0  2  0  0  3  0  0  0  0  0  0
  157.1080  212.0120  153.0260 C   0  0  0  0  0  2  0  0  0  0  0  0
  161.9440  207.0400  150.4590 C   0  0  2  0  0  3  0  0  0  0  0  0
  157.6250  210.7030  153.5990 C   0  0  0  0  0  2  0  0  0  0  0  0
  160.8830  212.7050  149.9240 C   0  0  0  0  0  3  0  0  0  0  0  0
  161.1140  211.5680  150.7140 C   0  0  0  0  0  0  0  0  0  0  0  0
  160.2380  212.6510  152.8290 C   0  0  0  0  0  2  0  0  0  0  0  0
  161.5810  207.8250  152.8780 C   0  0  0  0  0  2  0  0  0  0  0  0
  160.7880  209.9270  155.2690 O   0  0  0  0  0  1  0  0  0  0  0  0
  157.9430  214.2060  152.6890 C   0  0  0  0  0  1  0  0  0  0  0  0
  160.8970  210.2860  152.9040 C   0  0  2  0  0  3  0  0  0  0  0  0
  159.1870  212.5160  153.9630 C   0  0  2  0  0  3  0  0  0  0  0  0
  160.8360  207.7120  148.3220 C   0  0  0  0  0  1  0  0  0  0  0  0
  160.6090  207.1330  149.7080 C   0  0  1  0  0  3  0  0  0  0  0  0
  160.0220  205.8690  149.5910 O   0  0  0  0  0  0  0  0  0  0  0  0
  160.8300  205.1810  148.6810 C   0  0  0  0  0  2  0  0  0  0  0  0
  160.8310  203.7260  149.0010 C   0  0  0  0  0  0  0  0  0  0  0  0
  160.4250  203.3260  150.1240 O   0  0  0  0  0  1  0  0  0  0  0  0
  161.2600  202.8080  148.0520 O   0  0  0  0  0  0  0  0  0  0  0  0
  162.7790  204.3470  152.0110 C   0  0  0  0  0  1  0  0  0  0  0  0
  162.9720  205.8040  152.3840 C   0  0  0  0  0  2  0  0  0  0  0  0
  1 19  1  1  0  0  0
  1 22  1  0  0  0  0
  2  3  2  0  0  0  0
  2  9  1  0  0  0  0
  3 16  1  0  0  0  0
  4  5  1  0  0  0  0
  4 20  1  1  0  0  0
  5 15  1  6  0  0  0
  6 32  1  1  0  0  0
  6 19  1  0  0  0  0
  7 14  1  0  0  0  0
  7 10  1  0  0  0  0
  8 23  1  0  0  0  0
  9 11  2  0  0  0  0
 10 11  1  6  0  0  0
 10  1  1  0  0  0  0
 11 17  1  0  0  0  0
 12 18  1  1  0  0  0
 12 22  1  0  0  0  0
 13 15  1  0  0  0  0
 13  8  1  0  0  0  0
 14 25  1  1  0  0  0
 14  6  1  0  0  0  0
 16 17  2  0  0  0  0
 17 12  1  0  0  0  0
 18 23  1  0  0  0  0
 21  8  1  0  0  0  0
 22  4  1  0  0  0  0
 23  5  1  0  0  0  0
 24 25  1  0  0  0  0
 26 25  1  0  0  0  0
 27 28  1  0  0  0  0
 27 26  1  0  0  0  0
 28 29  1  0  0  0  0
 30 28  2  0  0  0  0
 31 32  1  0  0  0  0
M  END
>  <MODEL>
4

>  <REMARK>
 VINA RESULT:      -3.1      2.211      3.671
  Name = 
  5 active torsions:
  status: ('A' for Active; 'I' for Inactive)
    1  A    between atoms: C_7  and  C_19
    2  A    between atoms: C_10  and  C_17
    3  A    between atoms: C_10  and  O_20
    4  A    between atoms: O_20  and  C_29
    5  A    between atoms: C_29  and  C_30
                            x       y       z     vdW  Elec       q    Type
                         _______ _______ _______ _____ _____    ______ ____

>  <TORSDO>
F 5

$$$$
=
 OpenBabel11122413023D

 32 36  0  0  1  0  0  0  0  0999 V2000
  161.0970  211.1450  149.2220 C   0  0  1  0  0  3  0  0  0  0  0  0
  159.6770  212.2210  153.8280 C   0  0  0  0  0  3  0  0  0  0  0  0
  159.8040  210.8730  154.1690 C   0  0  0  0  0  3  0  0  0  0  0  0
  162.2800  208.9480  148.6900 C   0  0  2  0  0  3  0  0  0  0  0  0
  162.1030  207.4810  149.1180 C   0  0  2  0  0  3  0  0  0  0  0  0
  160.6930  212.8920  147.4930 C   0  0  2  0  0  3  0  0  0  0  0  0
  160.4240  213.4790  149.8860 O   0  0  0  0  0  0  0  0  0  0  0  0
  161.5270  205.9820  150.8750 N   0  0  0  0  0  0  0  0  0  0  0  0
  160.0630  212.6610  152.5610 C   0  0  0  0  0  3  0  0  0  0  0  0
  161.0520  212.2580  150.2800 C   0  0  1  0  0  3  0  0  0  0  0  0
  160.5740  211.7560  151.6190 C   0  0  0  0  0  0  0  0  0  0  0  0
  161.2260  209.3760  150.9650 C   0  0  2  0  0  3  0  0  0  0  0  0
  160.3160  206.1760  150.0870 C   0  0  0  0  0  2  0  0  0  0  0  0
  159.7730  213.4060  148.6250 C   0  0  2  0  0  3  0  0  0  0  0  0
  160.6890  207.0000  148.8660 C   0  0  0  0  0  2  0  0  0  0  0  0
  160.3320  209.9660  153.2470 C   0  0  0  0  0  3  0  0  0  0  0  0
  160.7520  210.3970  151.9800 C   0  0  0  0  0  0  0  0  0  0  0  0
  162.1630  208.3370  151.5590 C   0  0  0  0  0  2  0  0  0  0  0  0
  161.6320  211.7670  147.9470 C   0  0  0  0  0  2  0  0  0  0  0  0
  163.5860  209.1480  148.2440 O   0  0  0  0  0  1  0  0  0  0  0  0
  161.1580  205.8530  152.2810 C   0  0  0  0  0  1  0  0  0  0  0  0
  161.9420  209.9990  149.7630 C   0  0  2  0  0  3  0  0  0  0  0  0
  162.3810  207.1450  150.5900 C   0  0  2  0  0  3  0  0  0  0  0  0
  157.4030  213.4900  149.4130 C   0  0  0  0  0  1  0  0  0  0  0  0
  158.4500  212.6350  148.7190 C   0  0  1  0  0  3  0  0  0  0  0  0
  157.9920  212.2870  147.4440 O   0  0  0  0  0  0  0  0  0  0  0  0
  157.4360  213.4620  146.9290 C   0  0  0  0  0  2  0  0  0  0  0  0
  157.6970  213.5490  145.4650 C   0  0  0  0  0  0  0  0  0  0  0  0
  157.1540  214.4530  144.7800 O   0  0  0  0  0  0  0  0  0  0  0  0
  158.5580  212.6430  144.8600 O   0  0  0  0  0  1  0  0  0  0  0  0
  162.0840  213.6630  145.5740 C   0  0  0  0  0  1  0  0  0  0  0  0
  161.4960  214.0450  146.9190 C   0  0  0  0  0  2  0  0  0  0  0  0
  1 19  1  6  0  0  0
  1 22  1  0  0  0  0
  1 10  1  0  0  0  0
  2  3  1  0  0  0  0
  4 20  1  1  0  0  0
  4  5  1  0  0  0  0
  4 22  1  0  0  0  0
  5 15  1  1  0  0  0
  5 23  1  0  0  0  0
  6 32  1  1  0  0  0
  6 19  1  0  0  0  0
  6 14  1  0  0  0  0
  8 21  1  0  0  0  0
  9  2  2  0  0  0  0
 10  7  1  6  0  0  0
 10 11  1  0  0  0  0
 11 17  2  0  0  0  0
 11  9  1  0  0  0  0
 12 18  1  1  0  0  0
 12 17  1  0  0  0  0
 13  8  1  0  0  0  0
 14 25  1  1  0  0  0
 14  7  1  0  0  0  0
 15 13  1  0  0  0  0
 16  3  2  0  0  0  0
 17 16  1  0  0  0  0
 22 12  1  0  0  0  0
 23  8  1  0  0  0  0
 23 18  1  0  0  0  0
 25 24  1  0  0  0  0
 26 25  1  0  0  0  0
 27 26  1  0  0  0  0
 28 27  1  0  0  0  0
 29 28  2  0  0  0  0
 30 28  1  0  0  0  0
 31 32  1  0  0  0  0
M  END
>  <MODEL>
5

>  <REMARK>
 VINA RESULT:      -2.8      4.362      8.279
  Name = 
  5 active torsions:
  status: ('A' for Active; 'I' for Inactive)
    1  A    between atoms: C_7  and  C_19
    2  A    between atoms: C_10  and  C_17
    3  A    between atoms: C_10  and  O_20
    4  A    between atoms: O_20  and  C_29
    5  A    between atoms: C_29  and  C_30
                            x       y       z     vdW  Elec       q    Type
                         _______ _______ _______ _____ _____    ______ ____

>  <TORSDO>
F 5

$$$$
=
 OpenBabel11122413023D

 32 36  0  0  1  0  0  0  0  0999 V2000
  160.5940  212.2830  149.9930 C   0  0  1  0  0  3  0  0  0  0  0  0
  157.3920  214.0840  153.2940 C   0  0  0  0  0  3  0  0  0  0  0  0
  157.6230  212.9720  154.1060 C   0  0  0  0  0  3  0  0  0  0  0  0
  162.2620  210.4630  150.6370 C   0  0  2  0  0  3  0  0  0  0  0  0
  162.2040  209.1760  151.4790 C   0  0  2  0  0  3  0  0  0  0  0  0
  160.5570  213.3130  147.7260 C   0  0  2  0  0  3  0  0  0  0  0  0
  159.3160  214.4110  149.5690 O   0  0  0  0  0  0  0  0  0  0  0  0
  161.2940  208.0980  153.3960 N   0  0  0  0  0  0  0  0  0  0  0  0
  158.1370  214.2640  152.1270 C   0  0  0  0  0  3  0  0  0  0  0  0
  159.9590  213.5740  150.5320 C   0  0  1  0  0  3  0  0  0  0  0  0
  159.1150  213.3300  151.7560 C   0  0  0  0  0  0  0  0  0  0  0  0
  160.3780  211.1560  152.2000 C   0  0  2  0  0  3  0  0  0  0  0  0
  160.4500  207.7170  152.2700 C   0  0  0  0  0  2  0  0  0  0  0  0
  159.2060  213.8200  148.2820 C   0  0  2  0  0  3  0  0  0  0  0  0
  161.0970  208.2580  151.0060 C   0  0  0  0  0  2  0  0  0  0  0  0
  158.6080  212.0460  153.7590 C   0  0  0  0  0  3  0  0  0  0  0  0
  159.3860  212.2280  152.6050 C   0  0  0  0  0  0  0  0  0  0  0  0
  161.1960  210.6290  153.3680 C   0  0  0  0  0  2  0  0  0  0  0  0
  161.4440  212.6700  148.8000 C   0  0  0  0  0  2  0  0  0  0  0  0
  163.5820  210.9070  150.5560 O   0  0  0  0  0  1  0  0  0  0  0  0
  160.4570  208.2460  154.5820 C   0  0  0  0  0  1  0  0  0  0  0  0
  161.3660  211.6170  151.1250 C   0  0  2  0  0  3  0  0  0  0  0  0
  161.9690  209.3390  152.9870 C   0  0  2  0  0  3  0  0  0  0  0  0
  156.8850  213.2430  149.0080 C   0  0  0  0  0  1  0  0  0  0  0  0
  158.1030  212.7530  148.2440 C   0  0  1  0  0  3  0  0  0  0  0  0
  157.7390  212.4700  146.9240 O   0  0  0  0  0  0  0  0  0  0  0  0
  157.3730  213.7040  146.3790 C   0  0  0  0  0  2  0  0  0  0  0  0
  157.8930  213.8200  144.9890 C   0  0  0  0  0  0  0  0  0  0  0  0
  159.0230  213.3500  144.6960 O   0  0  0  0  0  1  0  0  0  0  0  0
  157.1220  214.4310  144.0090 O   0  0  0  0  0  0  0  0  0  0  0  0
  162.7940  214.2860  147.2140 C   0  0  0  0  0  1  0  0  0  0  0  0
  161.2960  214.4530  147.0490 C   0  0  0  0  0  2  0  0  0  0  0  0
  1 19  1  6  0  0  0
  1 10  1  0  0  0  0
  1 22  1  0  0  0  0
  2  3  1  0  0  0  0
  4 20  1  1  0  0  0
  4 22  1  0  0  0  0
  4  5  1  0  0  0  0
  5 15  1  6  0  0  0
  5 23  1  0  0  0  0
  6 32  1  1  0  0  0
  6 14  1  0  0  0  0
  6 19  1  0  0  0  0
  8 21  1  0  0  0  0
  9  2  2  0  0  0  0
 10  7  1  6  0  0  0
 10 11  1  0  0  0  0
 11  9  1  0  0  0  0
 11 17  2  0  0  0  0
 12 17  1  0  0  0  0
 12 18  1  1  0  0  0
 13  8  1  0  0  0  0
 14 25  1  1  0  0  0
 14  7  1  0  0  0  0
 15 13  1  0  0  0  0
 16  3  2  0  0  0  0
 17 16  1  0  0  0  0
 22 12  1  0  0  0  0
 23 18  1  0  0  0  0
 23  8  1  0  0  0  0
 25 24  1  0  0  0  0
 26 25  1  0  0  0  0
 27 26  1  0  0  0  0
 28 27  1  0  0  0  0
 29 28  1  0  0  0  0
 30 28  2  0  0  0  0
 32 31  1  0  0  0  0
M  END
>  <MODEL>
6

>  <REMARK>
 VINA RESULT:      -2.4      4.141      7.681
  Name = 
  5 active torsions:
  status: ('A' for Active; 'I' for Inactive)
    1  A    between atoms: C_7  and  C_19
    2  A    between atoms: C_10  and  C_17
    3  A    between atoms: C_10  and  O_20
    4  A    between atoms: O_20  and  C_29
    5  A    between atoms: C_29  and  C_30
                            x       y       z     vdW  Elec       q    Type
                         _______ _______ _______ _____ _____    ______ ____

>  <TORSDO>
F 5

$$$$
=
 OpenBabel11122413023D

 32 36  0  0  1  0  0  0  0  0999 V2000
  160.3800  211.7120  150.5860 C   0  0  1  0  0  3  0  0  0  0  0  0
  163.8210  212.1460  147.0710 C   0  0  0  0  0  3  0  0  0  0  0  0
  162.8780  212.7550  146.2400 C   0  0  0  0  0  3  0  0  0  0  0  0
  158.2330  213.0890  150.5020 C   0  0  2  0  0  3  0  0  0  0  0  0
  157.2430  213.5010  149.4000 C   0  0  2  0  0  3  0  0  0  0  0  0
  160.9010  210.1720  152.4730 C   0  0  2  0  0  3  0  0  0  0  0  0
  162.7060  210.7970  150.8940 O   0  0  0  0  0  0  0  0  0  0  0  0
  156.9580  214.1380  147.1240 N   0  0  0  0  0  0  0  0  0  0  0  0
  163.4900  211.8300  148.3890 C   0  0  0  0  0  3  0  0  0  0  0  0
  161.8910  211.8290  150.3340 C   0  0  1  0  0  3  0  0  0  0  0  0
  162.2110  212.1120  148.8890 C   0  0  0  0  0  0  0  0  0  0  0  0
  159.8530  213.0240  148.5410 C   0  0  2  0  0  3  0  0  0  0  0  0
  156.7070  212.7030  147.1840 C   0  0  0  0  0  2  0  0  0  0  0  0
  161.9630  209.7180  151.4450 C   0  0  2  0  0  3  0  0  0  0  0  0
  156.7220  212.2940  148.6470 C   0  0  0  0  0  2  0  0  0  0  0  0
  161.6080  213.0600  146.7320 C   0  0  0  0  0  3  0  0  0  0  0  0
  161.2690  212.7750  148.0640 C   0  0  0  0  0  0  0  0  0  0  0  0
  159.2940  214.3610  148.0780 C   0  0  0  0  0  2  0  0  0  0  0  0
  160.1940  211.4730  152.0710 C   0  0  0  0  0  2  0  0  0  0  0  0
  158.1390  213.9800  151.5710 O   0  0  0  0  0  1  0  0  0  0  0  0
  157.6250  214.4460  145.8630 C   0  0  0  0  0  1  0  0  0  0  0  0
  159.7050  212.9740  150.0640 C   0  0  2  0  0  3  0  0  0  0  0  0
  157.7630  214.4530  148.3140 C   0  0  2  0  0  3  0  0  0  0  0  0
  162.4870  208.4190  149.3750 C   0  0  0  0  0  1  0  0  0  0  0  0
  161.3890  208.8120  150.3480 C   0  0  1  0  0  3  0  0  0  0  0  0
  160.8310  207.6580  150.9070 O   0  0  0  0  0  0  0  0  0  0  0  0
  161.8300  206.6870  150.7970 C   0  0  0  0  0  2  0  0  0  0  0  0
  161.2740  205.3450  151.1300 C   0  0  0  0  0  0  0  0  0  0  0  0
  160.8770  204.5810  150.2130 O   0  0  0  0  0  0  0  0  0  0  0  0
  161.2140  204.9300  152.4530 O   0  0  0  0  0  1  0  0  0  0  0  0
  160.7600  209.5400  154.8800 C   0  0  0  0  0  1  0  0  0  0  0  0
  161.5400  210.3230  153.8420 C   0  0  0  0  0  2  0  0  0  0  0  0
  1 19  1  1  0  0  0
  2  9  1  0  0  0  0
  3 16  1  0  0  0  0
  3  2  2  0  0  0  0
  4 20  1  1  0  0  0
  5 15  1  6  0  0  0
  5  4  1  0  0  0  0
  6 32  1  1  0  0  0
  7 14  1  0  0  0  0
  8 13  1  0  0  0  0
  8 23  1  0  0  0  0
  9 11  2  0  0  0  0
 10 11  1  6  0  0  0
 10  1  1  0  0  0  0
 10  7  1  0  0  0  0
 12 18  1  1  0  0  0
 12 22  1  0  0  0  0
 13 15  1  0  0  0  0
 14 25  1  6  0  0  0
 14  6  1  0  0  0  0
 16 17  2  0  0  0  0
 17 12  1  0  0  0  0
 17 11  1  0  0  0  0
 18 23  1  0  0  0  0
 19  6  1  0  0  0  0
 21  8  1  0  0  0  0
 22  4  1  0  0  0  0
 22  1  1  0  0  0  0
 23  5  1  0  0  0  0
 24 25  1  0  0  0  0
 25 26  1  0  0  0  0
 27 26  1  0  0  0  0
 27 28  1  0  0  0  0
 28 30  1  0  0  0  0
 29 28  2  0  0  0  0
 32 31  1  0  0  0  0
M  END
>  <MODEL>
7

>  <REMARK>
 VINA RESULT:      -2.0      3.132      4.744
  Name = 
  5 active torsions:
  status: ('A' for Active; 'I' for Inactive)
    1  A    between atoms: C_7  and  C_19
    2  A    between atoms: C_10  and  C_17
    3  A    between atoms: C_10  and  O_20
    4  A    between atoms: O_20  and  C_29
    5  A    between atoms: C_29  and  C_30
                            x       y       z     vdW  Elec       q    Type
                         _______ _______ _______ _____ _____    ______ ____

>  <TORSDO>
F 5

$$$$
=
 OpenBabel11122413023D

 32 36  0  0  1  0  0  0  0  0999 V2000
  160.0240  211.6200  154.8750 C   0  0  1  0  0  3  0  0  0  0  0  0
  160.2250  212.4000  150.0030 C   0  0  0  0  0  3  0  0  0  0  0  0
  158.9490  212.9630  150.0530 C   0  0  0  0  0  3  0  0  0  0  0  0
  158.3240  212.8410  156.3340 C   0  0  2  0  0  3  0  0  0  0  0  0
  156.8380  213.2130  156.2000 C   0  0  2  0  0  3  0  0  0  0  0  0
  161.7240  210.0670  155.8270 C   0  0  2  0  0  3  0  0  0  0  0  0
  161.9920  210.8650  153.4960 O   0  0  0  0  0  0  0  0  0  0  0  0
  155.0860  213.8930  154.7390 N   0  0  0  0  0  0  0  0  0  0  0  0
  160.8690  212.0230  151.1820 C   0  0  0  0  0  3  0  0  0  0  0  0
  160.9770  211.8510  153.6920 C   0  0  1  0  0  3  0  0  0  0  0  0
  160.2410  212.1980  152.4230 C   0  0  0  0  0  0  0  0  0  0  0  0
  158.2230  212.9490  153.7940 C   0  0  2  0  0  3  0  0  0  0  0  0
  154.9880  212.4430  154.8510 C   0  0  0  0  0  2  0  0  0  0  0  0
  161.8440  209.7210  154.3250 C   0  0  2  0  0  3  0  0  0  0  0  0
  155.9900  211.9940  155.9020 C   0  0  0  0  0  2  0  0  0  0  0  0
  158.3210  213.1630  151.2840 C   0  0  0  0  0  3  0  0  0  0  0  0
  158.9670  212.8160  152.4810 C   0  0  0  0  0  0  0  0  0  0  0  0
  157.4530  214.2560  153.9130 C   0  0  0  0  0  2  0  0  0  0  0  0
  160.8860  211.3250  156.0870 C   0  0  0  0  0  2  0  0  0  0  0  0
  158.9360  213.6920  157.2540 O   0  0  0  0  0  1  0  0  0  0  0  0
  154.7300  214.2850  153.3790 C   0  0  0  0  0  1  0  0  0  0  0  0
  159.1310  212.8450  155.0220 C   0  0  2  0  0  3  0  0  0  0  0  0
  156.4680  214.2310  155.1120 C   0  0  2  0  0  3  0  0  0  0  0  0
  160.7900  208.6710  152.3160 C   0  0  0  0  0  1  0  0  0  0  0  0
  160.7150  208.8070  153.8270 C   0  0  1  0  0  3  0  0  0  0  0  0
  160.8140  207.5410  154.4120 O   0  0  0  0  0  0  0  0  0  0  0  0
  159.6370  207.3930  155.1510 C   0  0  0  0  0  2  0  0  0  0  0  0
  159.9360  207.4850  156.6070 C   0  0  0  0  0  0  0  0  0  0  0  0
  159.5940  208.5050  157.2600 O   0  0  0  0  0  1  0  0  0  0  0  0
  160.5760  206.4340  157.2510 O   0  0  0  0  0  0  0  0  0  0  0  0
  163.1860  211.4970  157.2510 C   0  0  0  0  0  1  0  0  0  0  0  0
  163.1080  210.2240  156.4320 C   0  0  0  0  0  2  0  0  0  0  0  0
  1 22  1  0  0  0  0
  1 19  1  1  0  0  0
  2  3  2  0  0  0  0
  2  9  1  0  0  0  0
  3 16  1  0  0  0  0
  4 20  1  1  0  0  0
  5 15  1  6  0  0  0
  5  4  1  0  0  0  0
  6 19  1  0  0  0  0
  6 32  1  6  0  0  0
  7 10  1  0  0  0  0
  7 14  1  0  0  0  0
  8 13  1  0  0  0  0
  8 23  1  0  0  0  0
  9 11  2  0  0  0  0
 10 11  1  6  0  0  0
 10  1  1  0  0  0  0
 11 17  1  0  0  0  0
 12 18  1  6  0  0  0
 12 22  1  0  0  0  0
 13 15  1  0  0  0  0
 14 25  1  6  0  0  0
 14  6  1  0  0  0  0
 16 17  2  0  0  0  0
 17 12  1  0  0  0  0
 18 23  1  0  0  0  0
 21  8  1  0  0  0  0
 22  4  1  0  0  0  0
 23  5  1  0  0  0  0
 24 25  1  0  0  0  0
 25 26  1  0  0  0  0
 26 27  1  0  0  0  0
 27 28  1  0  0  0  0
 28 30  2  0  0  0  0
 28 29  1  0  0  0  0
 32 31  1  0  0  0  0
M  END
>  <MODEL>
8

>  <REMARK>
 VINA RESULT:      -1.6      1.531      2.125
  Name = 
  5 active torsions:
  status: ('A' for Active; 'I' for Inactive)
    1  A    between atoms: C_7  and  C_19
    2  A    between atoms: C_10  and  C_17
    3  A    between atoms: C_10  and  O_20
    4  A    between atoms: O_20  and  C_29
    5  A    between atoms: C_29  and  C_30
                            x       y       z     vdW  Elec       q    Type
                         _______ _______ _______ _____ _____    ______ ____

>  <TORSDO>
F 5

$$$$
