=
 OpenBabel11122412413D

 30 35  0  0  1  0  0  0  0  0999 V2000
  161.5990  208.3820  151.1270 C   0  0  0  0  0  0  0  0  0  0  0  0
  162.2520  209.1350  148.8200 C   0  0  0  0  0  0  0  0  0  0  0  0
  160.3580  212.2810  152.1210 N   0  0  0  0  0  2  0  0  0  0  0  0
  161.0710  208.7100  152.4080 C   0  0  0  0  0  0  0  0  0  0  0  0
  162.1140  206.9870  150.8930 C   0  0  0  0  0  2  0  0  0  0  0  0
  160.7850  205.2790  153.9020 O   0  0  0  0  0  1  0  0  0  0  0  0
  161.8780  209.1910  155.2200 C   0  0  1  0  0  3  0  0  0  0  0  0
  161.4250  206.2720  153.1530 C   0  0  1  0  0  3  0  0  0  0  0  0
  161.2570  210.5700  154.9880 C   0  0  2  0  0  3  0  0  0  0  0  0
  159.9550  212.0390  153.4640 C   0  0  0  0  0  0  0  0  0  0  0  0
  161.3310  205.9390  151.6690 C   0  0  2  0  0  3  0  0  0  0  0  0
  160.7700  207.6250  153.4420 C   0  0  1  0  0  3  0  0  0  0  0  0
  162.3520  210.1670  147.8820 C   0  0  0  0  0  3  0  0  0  0  0  0
  160.7590  211.0410  156.2710 N   0  0  0  0  0  2  0  0  0  0  0  0
  162.2660  209.2020  156.6800 C   0  0  0  0  0  2  0  0  0  0  0  0
  162.6720  207.8700  148.4260 O   0  0  0  0  0  1  0  0  0  0  0  0
  160.8010  211.0080  151.6760 C   0  0  0  0  0  0  0  0  0  0  0  0
  161.9440  211.4600  148.1970 C   0  0  0  0  0  3  0  0  0  0  0  0
  161.7310  209.3910  150.1180 C   0  0  0  0  0  0  0  0  0  0  0  0
  160.6810  210.0350  152.6400 C   0  0  0  0  0  0  0  0  0  0  0  0
  159.4590  212.9380  154.1910 O   0  0  0  0  0  0  0  0  0  0  0  0
  160.1640  210.6230  153.9140 C   0  0  1  0  0  3  0  0  0  0  0  0
  161.6630  210.4700  157.2610 C   0  0  0  0  0  2  0  0  0  0  0  0
  159.6060  208.0520  155.6420 C   0  0  0  0  0  1  0  0  0  0  0  0
  161.4260  211.7370  149.4590 C   0  0  0  0  0  3  0  0  0  0  0  0
  161.3140  210.7220  150.4140 C   0  0  0  0  0  0  0  0  0  0  0  0
  160.9520  207.9950  154.9270 C   0  0  2  0  0  3  0  0  0  0  0  0
  161.9240  204.5660  151.3920 C   0  0  0  0  0  2  0  0  0  0  0  0
  161.1250  203.9050  149.1450 C   0  0  0  0  0  1  0  0  0  0  0  0
  160.9310  203.7050  150.6330 C   0  0  0  0  0  2  0  0  0  0  0  0
  1  4  1  0  0  0  0
  2 19  1  0  0  0  0
  3 10  1  0  0  0  0
  4 20  2  0  0  0  0
  5  1  1  0  0  0  0
  5 11  1  0  0  0  0
  7 15  1  1  0  0  0
  8 12  1  0  0  0  0
  8  6  1  1  0  0  0
  9  7  1  0  0  0  0
  9 14  1  1  0  0  0
 10 22  1  0  0  0  0
 10 21  2  0  0  0  0
 11 28  1  1  0  0  0
 11  8  1  0  0  0  0
 12  4  1  6  0  0  0
 12 27  1  0  0  0  0
 13 18  1  0  0  0  0
 13  2  2  0  0  0  0
 14 23  1  0  0  0  0
 15 23  1  0  0  0  0
 16  2  1  0  0  0  0
 17  3  1  0  0  0  0
 17 20  1  0  0  0  0
 18 25  2  0  0  0  0
 19 26  1  0  0  0  0
 19  1  2  0  0  0  0
 22 20  1  6  0  0  0
 22  9  1  0  0  0  0
 25 26  1  0  0  0  0
 26 17  2  0  0  0  0
 27  7  1  0  0  0  0
 27 24  1  6  0  0  0
 29 30  1  0  0  0  0
 30 28  1  0  0  0  0
M  END
>  <MODEL>
1

>  <REMARK>
 VINA RESULT:      -7.3      0.000      0.000
  Name = 
  2 active torsions:
  status: ('A' for Active; 'I' for Inactive)
    1  A    between atoms: C_11  and  C_28
    2  A    between atoms: C_28  and  C_30
                            x       y       z     vdW  Elec       q    Type
                         _______ _______ _______ _____ _____    ______ ____

>  <TORSDO>
F 2

$$$$
=
 OpenBabel11122412413D

 30 35  0  0  1  0  0  0  0  0999 V2000
  161.3050  205.8870  150.1760 C   0  0  0  0  0  0  0  0  0  0  0  0
  160.8220  203.4280  149.9730 C   0  0  0  0  0  0  0  0  0  0  0  0
  161.3060  205.6090  154.3780 N   0  0  0  0  0  2  0  0  0  0  0  0
  161.5320  207.0150  151.0140 C   0  0  0  0  0  0  0  0  0  0  0  0
  161.2200  206.0970  148.6880 C   0  0  0  0  0  2  0  0  0  0  0  0
  162.4970  209.5670  148.4370 O   0  0  0  0  0  1  0  0  0  0  0  0
  160.2230  209.4640  152.0500 C   0  0  1  0  0  3  0  0  0  0  0  0
  161.7330  208.5000  148.9210 C   0  0  1  0  0  3  0  0  0  0  0  0
  160.4830  208.8260  153.4160 C   0  0  2  0  0  3  0  0  0  0  0  0
  161.5570  206.9770  154.6800 C   0  0  0  0  0  0  0  0  0  0  0  0
  162.1290  207.2160  148.2050 C   0  0  2  0  0  3  0  0  0  0  0  0
  161.9550  208.3630  150.4300 C   0  0  1  0  0  3  0  0  0  0  0  0
  160.5900  202.1990  150.5990 C   0  0  0  0  0  3  0  0  0  0  0  0
  160.6430  209.9080  154.3750 N   0  0  0  0  0  2  0  0  0  0  0  0
  159.6350  210.8170  152.3800 C   0  0  0  0  0  2  0  0  0  0  0  0
  160.8160  203.4510  148.5840 O   0  0  0  0  0  1  0  0  0  0  0  0
  161.2870  205.5840  152.9580 C   0  0  0  0  0  0  0  0  0  0  0  0
  160.5900  202.0930  151.9870 C   0  0  0  0  0  3  0  0  0  0  0  0
  161.0590  204.5970  150.7500 C   0  0  0  0  0  0  0  0  0  0  0  0
  161.5180  206.8190  152.4010 C   0  0  0  0  0  0  0  0  0  0  0  0
  161.6840  207.3930  155.8610 O   0  0  0  0  0  0  0  0  0  0  0  0
  161.6680  207.8550  153.4690 C   0  0  1  0  0  3  0  0  0  0  0  0
  159.7880  210.9800  153.8830 C   0  0  0  0  0  2  0  0  0  0  0  0
  162.6280  210.3590  151.8220 C   0  0  0  0  0  1  0  0  0  0  0  0
  160.8240  203.2200  152.7700 C   0  0  0  0  0  3  0  0  0  0  0  0
  161.0600  204.4600  152.1690 C   0  0  0  0  0  0  0  0  0  0  0  0
  161.4660  209.6320  151.1550 C   0  0  2  0  0  3  0  0  0  0  0  0
  161.9700  207.3730  146.6990 C   0  0  0  0  0  2  0  0  0  0  0  0
  160.3970  206.1470  145.2360 C   0  0  0  0  0  1  0  0  0  0  0  0
  161.6630  206.0330  146.0570 C   0  0  0  0  0  2  0  0  0  0  0  0
  1 19  2  0  0  0  0
  1  4  1  0  0  0  0
  2 13  2  0  0  0  0
  2 19  1  0  0  0  0
  3 10  1  0  0  0  0
  4 20  2  0  0  0  0
  5  1  1  0  0  0  0
  7 15  1  1  0  0  0
  7  9  1  0  0  0  0
  8  6  1  6  0  0  0
  8 12  1  0  0  0  0
  9 22  1  0  0  0  0
  9 14  1  1  0  0  0
 10 21  2  0  0  0  0
 11 28  1  6  0  0  0
 11  5  1  0  0  0  0
 11  8  1  0  0  0  0
 12  4  1  1  0  0  0
 12 27  1  0  0  0  0
 13 18  1  0  0  0  0
 15 23  1  0  0  0  0
 16  2  1  0  0  0  0
 17  3  1  0  0  0  0
 18 25  2  0  0  0  0
 19 26  1  0  0  0  0
 20 17  1  0  0  0  0
 22 20  1  6  0  0  0
 22 10  1  0  0  0  0
 23 14  1  0  0  0  0
 26 25  1  0  0  0  0
 26 17  2  0  0  0  0
 27 24  1  1  0  0  0
 27  7  1  0  0  0  0
 29 30  1  0  0  0  0
 30 28  1  0  0  0  0
M  END
>  <MODEL>
2

>  <REMARK>
 VINA RESULT:      -7.1      2.285      5.376
  Name = 
  2 active torsions:
  status: ('A' for Active; 'I' for Inactive)
    1  A    between atoms: C_11  and  C_28
    2  A    between atoms: C_28  and  C_30
                            x       y       z     vdW  Elec       q    Type
                         _______ _______ _______ _____ _____    ______ ____

>  <TORSDO>
F 2

$$$$
=
 OpenBabel11122412413D

 30 35  0  0  1  0  0  0  0  0999 V2000
  161.3980  209.5350  151.1140 C   0  0  0  0  0  0  0  0  0  0  0  0
  161.9610  210.3630  148.8090 C   0  0  0  0  0  0  0  0  0  0  0  0
  159.7760  213.2830  152.1380 N   0  0  0  0  0  2  0  0  0  0  0  0
  160.8470  209.8010  152.4000 C   0  0  0  0  0  0  0  0  0  0  0  0
  162.0500  208.2000  150.8690 C   0  0  0  0  0  2  0  0  0  0  0  0
  160.9150  206.3500  153.8730 O   0  0  0  0  0  1  0  0  0  0  0  0
  161.6150  210.3440  155.2110 C   0  0  1  0  0  3  0  0  0  0  0  0
  161.4480  207.4060  153.1280 C   0  0  1  0  0  3  0  0  0  0  0  0
  160.8560  211.6540  154.9900 C   0  0  2  0  0  3  0  0  0  0  0  0
  159.4060  212.9930  153.4820 C   0  0  0  0  0  0  0  0  0  0  0  0
  161.3810  207.0740  151.6420 C   0  0  2  0  0  3  0  0  0  0  0  0
  160.6620  208.6850  153.4280 C   0  0  1  0  0  3  0  0  0  0  0  0
  161.9520  211.4060  147.8770 C   0  0  0  0  0  3  0  0  0  0  0  0
  160.3200  212.0650  156.2780 N   0  0  0  0  0  2  0  0  0  0  0  0
  162.0070  210.3850  156.6700 C   0  0  0  0  0  2  0  0  0  0  0  0
  162.5040  209.1490  148.4050 O   0  0  0  0  0  1  0  0  0  0  0  0
  160.3430  212.0630  151.6830 C   0  0  0  0  0  0  0  0  0  0  0  0
  161.4170  212.6490  148.2020 C   0  0  0  0  0  3  0  0  0  0  0  0
  161.4230  210.5580  150.1110 C   0  0  0  0  0  0  0  0  0  0  0  0
  160.3260  211.0780  152.6420 C   0  0  0  0  0  0  0  0  0  0  0  0
  158.8250  213.8340  154.2160 O   0  0  0  0  0  0  0  0  0  0  0  0
  159.7590  211.6030  153.9220 C   0  0  1  0  0  3  0  0  0  0  0  0
  161.2820  211.5830  157.2610 C   0  0  0  0  0  2  0  0  0  0  0  0
  159.4710  208.9790  155.6350 C   0  0  0  0  0  1  0  0  0  0  0  0
  160.8800  212.8650  149.4680 C   0  0  0  0  0  3  0  0  0  0  0  0
  160.8760  211.8380  150.4170 C   0  0  0  0  0  0  0  0  0  0  0  0
  160.8120  209.0620  154.9150 C   0  0  2  0  0  3  0  0  0  0  0  0
  162.1080  205.7690  151.3540 C   0  0  0  0  0  2  0  0  0  0  0  0
  160.8730  203.6330  151.5390 C   0  0  0  0  0  1  0  0  0  0  0  0
  161.1890  204.8020  150.6310 C   0  0  0  0  0  2  0  0  0  0  0  0
  1  4  1  0  0  0  0
  2 19  1  0  0  0  0
  3 10  1  0  0  0  0
  4 20  2  0  0  0  0
  5  1  1  0  0  0  0
  5 11  1  0  0  0  0
  7 15  1  1  0  0  0
  8 12  1  0  0  0  0
  8  6  1  1  0  0  0
  9  7  1  0  0  0  0
  9 14  1  1  0  0  0
 10 22  1  0  0  0  0
 10 21  2  0  0  0  0
 11 28  1  1  0  0  0
 11  8  1  0  0  0  0
 12  4  1  6  0  0  0
 12 27  1  0  0  0  0
 13 18  1  0  0  0  0
 13  2  2  0  0  0  0
 14 23  1  0  0  0  0
 15 23  1  0  0  0  0
 16  2  1  0  0  0  0
 17  3  1  0  0  0  0
 17 20  1  0  0  0  0
 18 25  2  0  0  0  0
 19 26  1  0  0  0  0
 19  1  2  0  0  0  0
 22 20  1  6  0  0  0
 22  9  1  0  0  0  0
 25 26  1  0  0  0  0
 26 17  2  0  0  0  0
 27  7  1  0  0  0  0
 27 24  1  6  0  0  0
 30 28  1  0  0  0  0
 30 29  1  0  0  0  0
M  END
>  <MODEL>
3

>  <REMARK>
 VINA RESULT:      -6.9      1.007      1.224
  Name = 
  2 active torsions:
  status: ('A' for Active; 'I' for Inactive)
    1  A    between atoms: C_11  and  C_28
    2  A    between atoms: C_28  and  C_30
                            x       y       z     vdW  Elec       q    Type
                         _______ _______ _______ _____ _____    ______ ____

>  <TORSDO>
F 2

$$$$
=
 OpenBabel11122412413D

 30 35  0  0  1  0  0  0  0  0999 V2000
  160.0660  209.9130  153.2740 C   0  0  0  0  0  0  0  0  0  0  0  0
  158.8400  212.0010  153.9500 C   0  0  0  0  0  0  0  0  0  0  0  0
  161.4860  211.7970  149.7860 N   0  0  0  0  0  2  0  0  0  0  0  0
  160.8990  209.2450  152.3320 C   0  0  0  0  0  0  0  0  0  0  0  0
  159.5210  209.1320  154.4390 C   0  0  0  0  0  2  0  0  0  0  0  0
  161.5860  206.0640  154.2010 O   0  0  0  0  0  1  0  0  0  0  0  0
  160.8310  207.2270  150.1620 C   0  0  1  0  0  3  0  0  0  0  0  0
  160.7680  207.1110  153.7650 C   0  0  1  0  0  3  0  0  0  0  0  0
  161.3620  208.3750  149.3030 C   0  0  2  0  0  3  0  0  0  0  0  0
  162.2190  210.7060  149.2400 C   0  0  0  0  0  0  0  0  0  0  0  0
  160.4840  208.0600  154.9230 C   0  0  2  0  0  3  0  0  0  0  0  0
  161.4630  207.8540  152.6210 C   0  0  1  0  0  3  0  0  0  0  0  0
  158.4960  213.3280  153.6750 C   0  0  0  0  0  3  0  0  0  0  0  0
  162.1660  207.7870  148.2430 N   0  0  0  0  0  2  0  0  0  0  0  0
  160.8280  206.0380  149.2290 C   0  0  0  0  0  2  0  0  0  0  0  0
  158.3450  211.4400  155.1220 O   0  0  0  0  0  1  0  0  0  0  0  0
  160.9540  211.2660  150.9900 C   0  0  0  0  0  0  0  0  0  0  0  0
  158.9600  213.9630  152.5270 C   0  0  0  0  0  3  0  0  0  0  0  0
  159.6730  211.2740  153.0540 C   0  0  0  0  0  0  0  0  0  0  0  0
  161.3240  209.9590  151.2050 C   0  0  0  0  0  0  0  0  0  0  0  0
  162.8770  210.8050  148.1720 O   0  0  0  0  0  0  0  0  0  0  0  0
  162.1440  209.4530  150.0610 C   0  0  1  0  0  3  0  0  0  0  0  0
  161.5480  206.4960  147.9720 C   0  0  0  0  0  2  0  0  0  0  0  0
  163.1450  206.6760  151.1520 C   0  0  0  0  0  1  0  0  0  0  0  0
  159.7800  213.2760  151.6370 C   0  0  0  0  0  3  0  0  0  0  0  0
  160.1400  211.9480  151.8890 C   0  0  0  0  0  0  0  0  0  0  0  0
  161.6630  206.9090  151.4200 C   0  0  2  0  0  3  0  0  0  0  0  0
  159.8520  207.3080  156.0860 C   0  0  0  0  0  2  0  0  0  0  0  0
  161.7150  208.4600  157.2350 C   0  0  0  0  0  1  0  0  0  0  0  0
  160.8110  207.2460  157.2590 C   0  0  0  0  0  2  0  0  0  0  0  0
  1  5  1  0  0  0  0
  2 16  1  0  0  0  0
  3 17  1  0  0  0  0
  4  1  2  0  0  0  0
  5 11  1  0  0  0  0
  7 15  1  6  0  0  0
  7 27  1  0  0  0  0
  8  6  1  1  0  0  0
  8 11  1  0  0  0  0
  9 14  1  6  0  0  0
  9 22  1  0  0  0  0
  9  7  1  0  0  0  0
 10  3  1  0  0  0  0
 11 28  1  1  0  0  0
 12  4  1  6  0  0  0
 12  8  1  0  0  0  0
 13  2  1  0  0  0  0
 17 20  2  0  0  0  0
 17 26  1  0  0  0  0
 18 13  2  0  0  0  0
 19  1  1  0  0  0  0
 19  2  2  0  0  0  0
 20  4  1  0  0  0  0
 21 10  2  0  0  0  0
 22 10  1  6  0  0  0
 22 20  1  0  0  0  0
 23 14  1  0  0  0  0
 23 15  1  0  0  0  0
 25 26  2  0  0  0  0
 25 18  1  0  0  0  0
 26 19  1  0  0  0  0
 27 24  1  6  0  0  0
 27 12  1  0  0  0  0
 28 30  1  0  0  0  0
 29 30  1  0  0  0  0
M  END
>  <MODEL>
4

>  <REMARK>
 VINA RESULT:      -6.2      1.948      5.617
  Name = 
  2 active torsions:
  status: ('A' for Active; 'I' for Inactive)
    1  A    between atoms: C_11  and  C_28
    2  A    between atoms: C_28  and  C_30
                            x       y       z     vdW  Elec       q    Type
                         _______ _______ _______ _____ _____    ______ ____

>  <TORSDO>
F 2

$$$$
=
 OpenBabel11122412413D

 30 35  0  0  1  0  0  0  0  0999 V2000
  160.9260  210.2540  151.5660 C   0  0  0  0  0  0  0  0  0  0  0  0
  161.9660  208.1930  150.5720 C   0  0  0  0  0  0  0  0  0  0  0  0
  160.6030  208.3640  155.3150 N   0  0  0  0  0  2  0  0  0  0  0  0
  160.3660  210.9050  152.7020 C   0  0  0  0  0  0  0  0  0  0  0  0
  160.9060  210.9670  150.2410 C   0  0  0  0  0  2  0  0  0  0  0  0
  159.9830  214.3830  151.3440 O   0  0  0  0  0  1  0  0  0  0  0  0
  157.7810  211.7470  153.8820 C   0  0  1  0  0  3  0  0  0  0  0  0
  159.9190  212.9890  151.2570 C   0  0  1  0  0  3  0  0  0  0  0  0
  158.2010  210.8360  155.0370 C   0  0  2  0  0  3  0  0  0  0  0  0
  159.9870  209.4270  156.0350 C   0  0  0  0  0  0  0  0  0  0  0  0
  161.0590  212.4730  150.3880 C   0  0  2  0  0  3  0  0  0  0  0  0
  160.0040  212.3900  152.6640 C   0  0  1  0  0  3  0  0  0  0  0  0
  162.4100  206.8770  150.7390 C   0  0  0  0  0  3  0  0  0  0  0  0
  157.6010  211.3710  156.2490 N   0  0  0  0  0  2  0  0  0  0  0  0
  156.4910  212.3750  154.3570 C   0  0  0  0  0  2  0  0  0  0  0  0
  162.1080  208.7600  149.3110 O   0  0  0  0  0  1  0  0  0  0  0  0
  160.7650  208.9010  154.0110 C   0  0  0  0  0  0  0  0  0  0  0  0
  162.3110  206.2420  151.9740 C   0  0  0  0  0  3  0  0  0  0  0  0
  161.4000  208.9050  151.6650 C   0  0  0  0  0  0  0  0  0  0  0  0
  160.3080  210.1940  153.9060 C   0  0  0  0  0  0  0  0  0  0  0  0
  159.7160  209.3410  157.2610 O   0  0  0  0  0  0  0  0  0  0  0  0
  159.7130  210.6440  155.2020 C   0  0  1  0  0  3  0  0  0  0  0  0
  156.3490  211.9780  155.8170 C   0  0  0  0  0  2  0  0  0  0  0  0
  159.2460  213.7120  154.6770 C   0  0  0  0  0  1  0  0  0  0  0  0
  161.7660  206.9180  153.0610 C   0  0  0  0  0  3  0  0  0  0  0  0
  161.3150  208.2340  152.9200 C   0  0  0  0  0  0  0  0  0  0  0  0
  158.7970  212.8440  153.5070 C   0  0  2  0  0  3  0  0  0  0  0  0
  161.0120  213.1170  149.0100 C   0  0  0  0  0  2  0  0  0  0  0  0
  163.1580  212.6290  147.8790 C   0  0  0  0  0  1  0  0  0  0  0  0
  161.7020  212.2310  147.9890 C   0  0  0  0  0  2  0  0  0  0  0  0
  1 19  2  0  0  0  0
  1  4  1  0  0  0  0
  2 13  2  0  0  0  0
  2 19  1  0  0  0  0
  3 10  1  0  0  0  0
  4 20  2  0  0  0  0
  5 11  1  0  0  0  0
  5  1  1  0  0  0  0
  7 15  1  1  0  0  0
  7  9  1  0  0  0  0
  8  6  1  1  0  0  0
  8 12  1  0  0  0  0
  9 22  1  0  0  0  0
  9 14  1  1  0  0  0
 10 21  2  0  0  0  0
 11 28  1  6  0  0  0
 11  8  1  0  0  0  0
 12  4  1  6  0  0  0
 12 27  1  0  0  0  0
 13 18  1  0  0  0  0
 15 23  1  0  0  0  0
 16  2  1  0  0  0  0
 17  3  1  0  0  0  0
 18 25  2  0  0  0  0
 19 26  1  0  0  0  0
 20 17  1  0  0  0  0
 22 20  1  6  0  0  0
 22 10  1  0  0  0  0
 23 14  1  0  0  0  0
 26 25  1  0  0  0  0
 26 17  2  0  0  0  0
 27  7  1  0  0  0  0
 27 24  1  1  0  0  0
 29 30  1  0  0  0  0
 30 28  1  0  0  0  0
M  END
>  <MODEL>
5

>  <REMARK>
 VINA RESULT:      -6.0      2.163      5.356
  Name = 
  2 active torsions:
  status: ('A' for Active; 'I' for Inactive)
    1  A    between atoms: C_11  and  C_28
    2  A    between atoms: C_28  and  C_30
                            x       y       z     vdW  Elec       q    Type
                         _______ _______ _______ _____ _____    ______ ____

>  <TORSDO>
F 2

$$$$
=
 OpenBabel11122412413D

 30 35  0  0  1  0  0  0  0  0999 V2000
  160.7120  209.9830  152.5800 C   0  0  0  0  0  0  0  0  0  0  0  0
  160.0750  212.3710  152.1230 C   0  0  0  0  0  0  0  0  0  0  0  0
  162.1630  209.5470  148.6510 N   0  0  0  0  0  2  0  0  0  0  0  0
  161.2690  208.7620  152.1040 C   0  0  0  0  0  0  0  0  0  0  0  0
  160.1240  210.0180  153.9650 C   0  0  0  0  0  2  0  0  0  0  0  0
  161.3930  206.8040  155.3040 O   0  0  0  0  0  1  0  0  0  0  0  0
  160.5160  206.0430  151.1950 C   0  0  1  0  0  3  0  0  0  0  0  0
  160.7970  207.6820  154.3940 C   0  0  1  0  0  3  0  0  0  0  0  0
  161.2060  206.4660  149.8970 C   0  0  2  0  0  3  0  0  0  0  0  0
  162.5660  208.1840  148.7250 C   0  0  0  0  0  0  0  0  0  0  0  0
  160.8590  209.1060  154.9340 C   0  0  2  0  0  3  0  0  0  0  0  0
  161.5240  207.5870  153.0490 C   0  0  1  0  0  3  0  0  0  0  0  0
  160.0190  213.4430  151.2270 C   0  0  0  0  0  3  0  0  0  0  0  0
  161.7400  205.2630  149.2780 N   0  0  0  0  0  2  0  0  0  0  0  0
  160.1440  204.5970  150.9600 C   0  0  0  0  0  2  0  0  0  0  0  0
  159.5870  212.5830  153.4060 O   0  0  0  0  0  1  0  0  0  0  0  0
  161.6500  209.8080  149.9490 C   0  0  0  0  0  0  0  0  0  0  0  0
  160.4970  213.3130  149.9260 C   0  0  0  0  0  3  0  0  0  0  0  0
  160.6220  211.1220  151.7150 C   0  0  0  0  0  0  0  0  0  0  0  0
  161.7290  208.7180  150.7830 C   0  0  0  0  0  0  0  0  0  0  0  0
  163.1160  207.5910  147.7600 O   0  0  0  0  0  0  0  0  0  0  0  0
  162.2890  207.5400  150.0510 C   0  0  1  0  0  3  0  0  0  0  0  0
  160.8180  204.2010  149.6570 C   0  0  0  0  0  2  0  0  0  0  0  0
  162.7310  205.4720  152.3820 C   0  0  0  0  0  1  0  0  0  0  0  0
  161.0410  212.1040  149.5040 C   0  0  0  0  0  3  0  0  0  0  0  0
  161.1100  211.0160  150.3800 C   0  0  0  0  0  0  0  0  0  0  0  0
  161.3770  206.1680  152.4670 C   0  0  2  0  0  3  0  0  0  0  0  0
  160.1930  209.1870  156.3000 C   0  0  0  0  0  2  0  0  0  0  0  0
  162.4950  209.8890  156.8760 C   0  0  0  0  0  1  0  0  0  0  0  0
  161.0340  210.0220  157.2480 C   0  0  0  0  0  2  0  0  0  0  0  0
  1  5  1  0  0  0  0
  2 16  1  0  0  0  0
  3 10  1  0  0  0  0
  3 17  1  0  0  0  0
  4  1  1  0  0  0  0
  5 11  1  0  0  0  0
  7 15  1  6  0  0  0
  7 27  1  0  0  0  0
  8 11  1  0  0  0  0
  8  6  1  1  0  0  0
  9 14  1  1  0  0  0
  9 22  1  0  0  0  0
  9  7  1  0  0  0  0
 11 28  1  1  0  0  0
 12  4  1  6  0  0  0
 12  8  1  0  0  0  0
 13  2  2  0  0  0  0
 14 23  1  0  0  0  0
 17 26  2  0  0  0  0
 17 20  1  0  0  0  0
 18 13  1  0  0  0  0
 19  2  1  0  0  0  0
 19  1  2  0  0  0  0
 20  4  2  0  0  0  0
 21 10  2  0  0  0  0
 22 10  1  6  0  0  0
 22 20  1  0  0  0  0
 23 15  1  0  0  0  0
 25 18  2  0  0  0  0
 25 26  1  0  0  0  0
 26 19  1  0  0  0  0
 27 24  1  6  0  0  0
 27 12  1  0  0  0  0
 28 30  1  0  0  0  0
 29 30  1  0  0  0  0
M  END
>  <MODEL>
6

>  <REMARK>
 VINA RESULT:      -6.0      1.977      5.631
  Name = 
  2 active torsions:
  status: ('A' for Active; 'I' for Inactive)
    1  A    between atoms: C_11  and  C_28
    2  A    between atoms: C_28  and  C_30
                            x       y       z     vdW  Elec       q    Type
                         _______ _______ _______ _____ _____    ______ ____

>  <TORSDO>
F 2

$$$$
=
 OpenBabel11122412413D

 30 35  0  0  1  0  0  0  0  0999 V2000
  160.8350  209.2700  153.2810 C   0  0  0  0  0  0  0  0  0  0  0  0
  160.8890  207.3910  154.9490 C   0  0  0  0  0  0  0  0  0  0  0  0
  159.4470  211.9370  156.2290 N   0  0  0  0  0  2  0  0  0  0  0  0
  160.5600  210.6390  153.0010 C   0  0  0  0  0  0  0  0  0  0  0  0
  161.2280  208.3650  152.1440 C   0  0  0  0  0  2  0  0  0  0  0  0
  161.8850  210.8750  149.4980 O   0  0  0  0  0  1  0  0  0  0  0  0
  158.5670  212.4100  151.7060 C   0  0  1  0  0  3  0  0  0  0  0  0
  161.2010  210.2420  150.5400 C   0  0  1  0  0  3  0  0  0  0  0  0
  158.4530  213.0260  153.1020 C   0  0  2  0  0  3  0  0  0  0  0  0
  159.3360  213.1040  155.4230 C   0  0  0  0  0  0  0  0  0  0  0  0
  162.0370  209.0870  151.0780 C   0  0  2  0  0  3  0  0  0  0  0  0
  160.9140  211.2580  151.6490 C   0  0  1  0  0  3  0  0  0  0  0  0
  160.6760  206.9460  156.2580 C   0  0  0  0  0  3  0  0  0  0  0  0
  158.0830  214.4220  152.9300 N   0  0  0  0  0  2  0  0  0  0  0  0
  157.6750  213.2760  150.8460 C   0  0  0  0  0  2  0  0  0  0  0  0
  161.3540  206.4620  154.0260 O   0  0  0  0  0  1  0  0  0  0  0  0
  159.9200  210.9530  155.3210 C   0  0  0  0  0  0  0  0  0  0  0  0
  160.2200  207.8180  157.2420 C   0  0  0  0  0  3  0  0  0  0  0  0
  160.6380  208.7470  154.6000 C   0  0  0  0  0  0  0  0  0  0  0  0
  160.1070  211.4470  154.0510 C   0  0  0  0  0  0  0  0  0  0  0  0
  158.9760  214.2150  155.8920 O   0  0  0  0  0  0  0  0  0  0  0  0
  159.6980  212.8840  153.9840 C   0  0  1  0  0  3  0  0  0  0  0  0
  157.2740  214.4530  151.7190 C   0  0  0  0  0  2  0  0  0  0  0  0
  160.7090  213.7180  151.1230 C   0  0  0  0  0  1  0  0  0  0  0  0
  159.9710  209.1510  156.9290 C   0  0  0  0  0  3  0  0  0  0  0  0
  160.1760  209.6210  155.6280 C   0  0  0  0  0  0  0  0  0  0  0  0
  159.9920  212.3730  151.1190 C   0  0  2  0  0  3  0  0  0  0  0  0
  162.3770  208.1090  149.9620 C   0  0  0  0  0  2  0  0  0  0  0  0
  160.7910  206.5480  148.8820 C   0  0  0  0  0  1  0  0  0  0  0  0
  161.5970  206.8200  150.1340 C   0  0  0  0  0  2  0  0  0  0  0  0
  1 19  1  0  0  0  0
  2 13  1  0  0  0  0
  4  1  2  0  0  0  0
  4 20  1  0  0  0  0
  5  1  1  0  0  0  0
  7 15  1  6  0  0  0
  7  9  1  0  0  0  0
  8  6  1  6  0  0  0
  8 11  1  0  0  0  0
  8 12  1  0  0  0  0
  9 14  1  6  0  0  0
  9 22  1  0  0  0  0
 10 21  2  0  0  0  0
 10  3  1  0  0  0  0
 11 28  1  6  0  0  0
 11  5  1  0  0  0  0
 12  4  1  1  0  0  0
 13 18  2  0  0  0  0
 15 23  1  0  0  0  0
 16  2  1  0  0  0  0
 17 26  1  0  0  0  0
 17  3  1  0  0  0  0
 19  2  2  0  0  0  0
 19 26  1  0  0  0  0
 20 17  2  0  0  0  0
 22 20  1  1  0  0  0
 22 10  1  0  0  0  0
 23 14  1  0  0  0  0
 25 18  1  0  0  0  0
 26 25  2  0  0  0  0
 27 24  1  1  0  0  0
 27 12  1  0  0  0  0
 27  7  1  0  0  0  0
 28 30  1  0  0  0  0
 29 30  1  0  0  0  0
M  END
>  <MODEL>
7

>  <REMARK>
 VINA RESULT:      -5.6      1.929      5.422
  Name = 
  2 active torsions:
  status: ('A' for Active; 'I' for Inactive)
    1  A    between atoms: C_11  and  C_28
    2  A    between atoms: C_28  and  C_30
                            x       y       z     vdW  Elec       q    Type
                         _______ _______ _______ _____ _____    ______ ____

>  <TORSDO>
F 2

$$$$
=
 OpenBabel11122412413D

 30 35  0  0  1  0  0  0  0  0999 V2000
  161.3680  207.3700  150.8460 C   0  0  0  0  0  0  0  0  0  0  0  0
  161.1880  205.1270  149.7280 C   0  0  0  0  0  0  0  0  0  0  0  0
  160.8300  205.6030  154.6300 N   0  0  0  0  0  2  0  0  0  0  0  0
  161.3540  208.1330  152.0490 C   0  0  0  0  0  0  0  0  0  0  0  0
  161.4620  208.0960  149.5310 C   0  0  0  0  0  2  0  0  0  0  0  0
  162.3750  211.4880  150.7120 O   0  0  0  0  0  1  0  0  0  0  0  0
  159.6570  209.9730  153.6370 C   0  0  1  0  0  3  0  0  0  0  0  0
  161.6740  210.2790  150.6640 C   0  0  1  0  0  3  0  0  0  0  0  0
  159.7980  208.9020  154.7200 C   0  0  2  0  0  3  0  0  0  0  0  0
  160.8860  206.7820  155.4240 C   0  0  0  0  0  0  0  0  0  0  0  0
  162.3010  209.3610  149.6230 C   0  0  2  0  0  3  0  0  0  0  0  0
  161.7030  209.6220  152.0460 C   0  0  1  0  0  3  0  0  0  0  0  0
  161.0090  203.7440  149.8420 C   0  0  0  0  0  3  0  0  0  0  0  0
  159.7080  209.5740  156.0060 N   0  0  0  0  0  2  0  0  0  0  0  0
  158.8860  211.0830  154.3130 C   0  0  0  0  0  2  0  0  0  0  0  0
  161.3670  205.6460  148.4510 O   0  0  0  0  0  1  0  0  0  0  0  0
  161.0060  206.0880  153.3080 C   0  0  0  0  0  0  0  0  0  0  0  0
  160.8320  203.1470  151.0870 C   0  0  0  0  0  3  0  0  0  0  0  0
  161.1890  205.9490  150.8890 C   0  0  0  0  0  0  0  0  0  0  0  0
  161.1740  207.4520  153.2590 C   0  0  0  0  0  0  0  0  0  0  0  0
  160.8060  206.7530  156.6800 O   0  0  0  0  0  0  0  0  0  0  0  0
  161.0630  208.0410  154.6290 C   0  0  1  0  0  3  0  0  0  0  0  0
  158.8150  210.7030  155.7820 C   0  0  0  0  0  2  0  0  0  0  0  0
  161.9590  211.0180  154.1340 C   0  0  0  0  0  1  0  0  0  0  0  0
  160.8340  203.9280  152.2390 C   0  0  0  0  0  3  0  0  0  0  0  0
  161.0110  205.3130  152.1520 C   0  0  0  0  0  0  0  0  0  0  0  0
  160.9840  210.5170  153.0740 C   0  0  2  0  0  3  0  0  0  0  0  0
  162.3310  210.0400  148.2610 C   0  0  0  0  0  2  0  0  0  0  0  0
  161.8660  212.3510  147.5100 C   0  0  0  0  0  1  0  0  0  0  0  0
  161.2810  211.1330  148.1930 C   0  0  0  0  0  2  0  0  0  0  0  0
  1 19  2  0  0  0  0
  1  4  1  0  0  0  0
  2 13  2  0  0  0  0
  2 19  1  0  0  0  0
  3 10  1  0  0  0  0
  4 20  2  0  0  0  0
  5 11  1  0  0  0  0
  5  1  1  0  0  0  0
  7 15  1  1  0  0  0
  7  9  1  0  0  0  0
  8  6  1  1  0  0  0
  8 12  1  0  0  0  0
  9 14  1  1  0  0  0
 10 21  2  0  0  0  0
 11 28  1  6  0  0  0
 11  8  1  0  0  0  0
 12  4  1  6  0  0  0
 12 27  1  0  0  0  0
 13 18  1  0  0  0  0
 15 23  1  0  0  0  0
 16  2  1  0  0  0  0
 17  3  1  0  0  0  0
 18 25  2  0  0  0  0
 19 26  1  0  0  0  0
 20 17  1  0  0  0  0
 22 20  1  6  0  0  0
 22  9  1  0  0  0  0
 22 10  1  0  0  0  0
 23 14  1  0  0  0  0
 26 25  1  0  0  0  0
 26 17  2  0  0  0  0
 27  7  1  0  0  0  0
 27 24  1  1  0  0  0
 29 30  1  0  0  0  0
 30 28  1  0  0  0  0
M  END
>  <MODEL>
8

>  <REMARK>
 VINA RESULT:      -5.5      1.871      5.126
  Name = 
  2 active torsions:
  status: ('A' for Active; 'I' for Inactive)
    1  A    between atoms: C_11  and  C_28
    2  A    between atoms: C_28  and  C_30
                            x       y       z     vdW  Elec       q    Type
                         _______ _______ _______ _____ _____    ______ ____

>  <TORSDO>
F 2

$$$$
=
 OpenBabel11122412413D

 30 35  0  0  1  0  0  0  0  0999 V2000
  161.3590  208.2320  151.4500 C   0  0  0  0  0  0  0  0  0  0  0  0
  161.2890  210.6740  150.8590 C   0  0  0  0  0  0  0  0  0  0  0  0
  162.6190  207.2550  147.5530 N   0  0  0  0  0  2  0  0  0  0  0  0
  161.6100  206.8900  151.0440 C   0  0  0  0  0  0  0  0  0  0  0  0
  160.8120  208.4790  152.8300 C   0  0  0  0  0  2  0  0  0  0  0  0
  161.3160  205.1360  154.3490 O   0  0  0  0  0  1  0  0  0  0  0  0
  160.2350  204.3750  150.2880 C   0  0  1  0  0  3  0  0  0  0  0  0
  160.9290  206.0770  153.3900 C   0  0  1  0  0  3  0  0  0  0  0  0
  160.9880  204.5550  148.9690 C   0  0  2  0  0  3  0  0  0  0  0  0
  162.6950  205.8410  147.7030 C   0  0  0  0  0  0  0  0  0  0  0  0
  161.3270  207.4750  153.8490 C   0  0  2  0  0  3  0  0  0  0  0  0
  161.5970  205.7420  152.0540 C   0  0  1  0  0  3  0  0  0  0  0  0
  161.4720  211.6790  149.9040 C   0  0  0  0  0  3  0  0  0  0  0  0
  161.2200  203.2280  148.4200 N   0  0  0  0  0  2  0  0  0  0  0  0
  159.5340  203.0450  150.1360 C   0  0  0  0  0  2  0  0  0  0  0  0
  160.8790  211.0630  152.1280 O   0  0  0  0  0  1  0  0  0  0  0  0
  162.1970  207.6990  148.8330 C   0  0  0  0  0  0  0  0  0  0  0  0
  161.8900  211.3700  148.6130 C   0  0  0  0  0  3  0  0  0  0  0  0
  161.5250  209.3110  150.5230 C   0  0  0  0  0  0  0  0  0  0  0  0
  162.0310  206.6680  149.7270 C   0  0  0  0  0  0  0  0  0  0  0  0
  163.0800  205.0850  146.7740 O   0  0  0  0  0  0  0  0  0  0  0  0
  162.2920  205.3540  149.0640 C   0  0  1  0  0  3  0  0  0  0  0  0
  160.0810  202.4320  148.8570 C   0  0  0  0  0  2  0  0  0  0  0  0
  162.2710  203.3710  151.5070 C   0  0  0  0  0  1  0  0  0  0  0  0
  162.1340  210.0450  148.2590 C   0  0  0  0  0  3  0  0  0  0  0  0
  161.9580  209.0220  149.1960 C   0  0  0  0  0  0  0  0  0  0  0  0
  161.1170  204.3660  151.5530 C   0  0  2  0  0  3  0  0  0  0  0  0
  160.7150  207.7840  155.2080 C   0  0  0  0  0  2  0  0  0  0  0  0
  161.9240  209.7220  156.1590 C   0  0  0  0  0  1  0  0  0  0  0  0
  160.6680  209.2830  155.4380 C   0  0  0  0  0  2  0  0  0  0  0  0
  1  5  1  0  0  0  0
  2 16  1  0  0  0  0
  3 10  1  0  0  0  0
  3 17  1  0  0  0  0
  4  1  1  0  0  0  0
  5 11  1  0  0  0  0
  7 15  1  6  0  0  0
  7 27  1  0  0  0  0
  8 11  1  0  0  0  0
  8  6  1  1  0  0  0
  9 14  1  1  0  0  0
  9 22  1  0  0  0  0
  9  7  1  0  0  0  0
 11 28  1  1  0  0  0
 12  4  1  6  0  0  0
 12  8  1  0  0  0  0
 13  2  2  0  0  0  0
 14 23  1  0  0  0  0
 17 26  2  0  0  0  0
 17 20  1  0  0  0  0
 18 13  1  0  0  0  0
 19  2  1  0  0  0  0
 19  1  2  0  0  0  0
 20  4  2  0  0  0  0
 21 10  2  0  0  0  0
 22 10  1  6  0  0  0
 22 20  1  0  0  0  0
 23 15  1  0  0  0  0
 25 18  2  0  0  0  0
 25 26  1  0  0  0  0
 26 19  1  0  0  0  0
 27 24  1  6  0  0  0
 27 12  1  0  0  0  0
 28 30  1  0  0  0  0
 30 29  1  0  0  0  0
M  END
>  <MODEL>
9

>  <REMARK>
 VINA RESULT:      -5.5      2.576      6.176
  Name = 
  2 active torsions:
  status: ('A' for Active; 'I' for Inactive)
    1  A    between atoms: C_11  and  C_28
    2  A    between atoms: C_28  and  C_30
                            x       y       z     vdW  Elec       q    Type
                         _______ _______ _______ _____ _____    ______ ____

>  <TORSDO>
F 2

$$$$
