=
 OpenBabel11122413203D

 31 35  0  0  1  0  0  0  0  0999 V2000
  161.0700  205.3980  145.6900 C   0  0  0  0  0  0  0  0  0  0  0  0
  161.0970  204.4270  149.3800 C   0  0  0  0  0  0  0  0  0  0  0  0
  161.0970  203.0090  149.4580 C   0  0  0  0  0  0  0  0  0  0  0  0
  161.2550  200.8020  148.4630 C   0  0  0  0  0  0  0  0  0  0  0  0
  161.2230  205.1990  148.1010 C   0  0  0  0  0  0  0  0  0  0  0  0
  161.4100  206.7110  145.7750 N   0  0  0  0  0  0  0  0  0  0  0  0
  161.2580  202.1920  148.3290 C   0  0  0  0  0  3  0  0  0  0  0  0
  160.9430  206.6700  150.5630 C   0  0  1  0  0  3  0  0  0  0  0  0
  160.8070  204.7830  144.3630 C   0  0  0  0  0  1  0  0  0  0  0  0
  160.8090  203.1560  151.8620 C   0  0  0  0  0  3  0  0  0  0  0  0
  161.4510  199.7900  147.0480 Cl  0  0  0  0  0  0  0  0  0  0  0  0
  161.8490  207.2260  149.4640 C   0  0  0  0  0  2  0  0  0  0  0  0
  160.9890  205.1600  150.5890 C   0  0  0  0  0  0  0  0  0  0  0  0
  160.9690  204.6240  146.8470 C   0  0  0  0  0  3  0  0  0  0  0  0
  161.1000  200.2350  149.6880 N   0  0  0  0  0  0  0  0  0  0  0  0
  161.5480  206.5690  148.1550 C   0  0  0  0  0  0  0  0  0  0  0  0
  161.6520  207.3050  146.9730 C   0  0  0  0  0  3  0  0  0  0  0  0
  160.8270  204.5090  151.7740 N   0  0  0  0  0  0  0  0  0  0  0  0
  160.9490  202.3830  150.7150 C   0  0  0  0  0  0  0  0  0  0  0  0
  160.9490  200.9900  150.8070 C   0  0  0  0  0  3  0  0  0  0  0  0
  160.0710  209.1560  151.6360 O   0  0  0  0  0  0  0  0  0  0  0  0
  160.8820  208.4880  152.3320 C   0  0  0  0  0  0  0  0  0  0  0  0
  161.3460  207.2210  151.8520 N   0  0  0  0  0  2  0  0  0  0  0  0
  162.3180  210.0700  156.0650 C   0  0  0  0  0  0  0  0  0  0  0  0
  162.0400  210.2200  153.6710 C   0  0  0  0  0  3  0  0  0  0  0  0
  160.4500  206.9940  154.9570 C   0  0  0  0  0  1  0  0  0  0  0  0
  162.7920  210.6010  157.2570 O   0  0  0  0  0  1  0  0  0  0  0  0
  162.5170  210.7560  154.8680 C   0  0  0  0  0  3  0  0  0  0  0  0
  161.1610  208.3020  154.8700 C   0  0  0  0  0  0  0  0  0  0  0  0
  161.3590  208.9920  153.6460 C   0  0  0  0  0  0  0  0  0  0  0  0
  161.6430  208.8490  156.0640 C   0  0  0  0  0  3  0  0  0  0  0  0
  1  6  2  0  0  0  0
  1 14  1  0  0  0  0
  2  3  2  0  0  0  0
  2 13  1  0  0  0  0
  3 19  1  0  0  0  0
  4 15  1  0  0  0  0
  5 16  1  0  0  0  0
  5  2  1  0  0  0  0
  6 17  1  0  0  0  0
  7  4  2  0  0  0  0
  7  3  1  0  0  0  0
  8 13  1  0  0  0  0
  8 23  1  1  0  0  0
  9  1  1  0  0  0  0
 11  4  1  0  0  0  0
 12  8  1  0  0  0  0
 13 18  2  0  0  0  0
 14  5  2  0  0  0  0
 15 20  2  0  0  0  0
 16 12  1  0  0  0  0
 17 16  2  0  0  0  0
 18 10  1  0  0  0  0
 19 20  1  0  0  0  0
 19 10  2  0  0  0  0
 21 22  2  0  0  0  0
 22 30  1  0  0  0  0
 23 22  1  0  0  0  0
 24 27  1  0  0  0  0
 25 28  1  0  0  0  0
 28 24  2  0  0  0  0
 29 26  1  0  0  0  0
 29 31  2  0  0  0  0
 30 25  2  0  0  0  0
 30 29  1  0  0  0  0
 31 24  1  0  0  0  0
M  END
>  <MODEL>
1

>  <REMARK>
 VINA RESULT:      -8.6      0.000      0.000
  Name = 
  2 active torsions:
  status: ('A' for Active; 'I' for Inactive)
    1  A    between atoms: C_5  and  C_30
    2  A    between atoms: C_10  and  N_16
                            x       y       z     vdW  Elec       q    Type
                         _______ _______ _______ _____ _____    ______ ____

>  <TORSDO>
F 2

$$$$
=
 OpenBabel11122413203D

 31 35  0  0  1  0  0  0  0  0999 V2000
  161.1790  208.2020  154.2210 C   0  0  0  0  0  0  0  0  0  0  0  0
  161.4860  207.5590  150.4730 C   0  0  0  0  0  0  0  0  0  0  0  0
  161.3330  206.1630  150.2570 C   0  0  0  0  0  0  0  0  0  0  0  0
  160.8050  203.9170  151.0060 C   0  0  0  0  0  0  0  0  0  0  0  0
  161.2960  208.2290  151.8000 C   0  0  0  0  0  0  0  0  0  0  0  0
  161.0040  209.5510  154.2290 N   0  0  0  0  0  0  0  0  0  0  0  0
  160.9450  205.2800  151.2750 C   0  0  0  0  0  3  0  0  0  0  0  0
  162.0360  209.8560  149.5410 C   0  0  1  0  0  3  0  0  0  0  0  0
  161.2080  207.4500  155.5020 C   0  0  0  0  0  1  0  0  0  0  0  0
  161.9230  206.4760  147.9250 C   0  0  0  0  0  3  0  0  0  0  0  0
  160.3250  202.8220  152.2850 Cl  0  0  0  0  0  0  0  0  0  0  0  0
  161.0740  210.4260  150.5830 C   0  0  0  0  0  2  0  0  0  0  0  0
  161.8210  208.3710  149.3610 C   0  0  0  0  0  0  0  0  0  0  0  0
  161.3300  207.5230  153.0120 C   0  0  0  0  0  3  0  0  0  0  0  0
  161.0400  203.4400  149.7560 N   0  0  0  0  0  0  0  0  0  0  0  0
  161.1380  209.6280  151.8460 C   0  0  0  0  0  0  0  0  0  0  0  0
  160.9770  210.2690  153.0760 C   0  0  0  0  0  3  0  0  0  0  0  0
  162.0490  207.8080  148.1430 N   0  0  0  0  0  0  0  0  0  0  0  0
  161.5580  205.6330  148.9680 C   0  0  0  0  0  0  0  0  0  0  0  0
  161.4100  204.2630  148.7400 C   0  0  0  0  0  3  0  0  0  0  0  0
  161.9400  212.6820  149.2280 O   0  0  0  0  0  0  0  0  0  0  0  0
  161.8030  211.9890  148.1850 C   0  0  0  0  0  0  0  0  0  0  0  0
  161.8570  210.5610  148.2760 N   0  0  0  0  0  2  0  0  0  0  0  0
  161.3430  213.8500  144.3350 C   0  0  0  0  0  0  0  0  0  0  0  0
  162.7270  212.9490  146.0970 C   0  0  0  0  0  3  0  0  0  0  0  0
  159.0430  212.6390  147.0590 C   0  0  0  0  0  1  0  0  0  0  0  0
  161.2210  214.4520  143.0900 O   0  0  0  0  0  1  0  0  0  0  0  0
  162.6060  213.5530  144.8450 C   0  0  0  0  0  3  0  0  0  0  0  0
  160.3110  212.9360  146.3330 C   0  0  0  0  0  0  0  0  0  0  0  0
  161.5930  212.6310  146.8620 C   0  0  0  0  0  0  0  0  0  0  0  0
  160.2020  213.5420  145.0770 C   0  0  0  0  0  3  0  0  0  0  0  0
  1  6  1  0  0  0  0
  1  9  1  0  0  0  0
  2  5  1  0  0  0  0
  3  2  1  0  0  0  0
  3  7  1  0  0  0  0
  4  7  2  0  0  0  0
  4 11  1  0  0  0  0
  5 16  2  0  0  0  0
  5 14  1  0  0  0  0
  8 23  1  6  0  0  0
  8 12  1  0  0  0  0
 10 18  2  0  0  0  0
 10 19  1  0  0  0  0
 12 16  1  0  0  0  0
 13  8  1  0  0  0  0
 13  2  2  0  0  0  0
 14  1  2  0  0  0  0
 15  4  1  0  0  0  0
 16 17  1  0  0  0  0
 17  6  2  0  0  0  0
 18 13  1  0  0  0  0
 19  3  2  0  0  0  0
 20 19  1  0  0  0  0
 20 15  2  0  0  0  0
 22 23  1  0  0  0  0
 22 21  2  0  0  0  0
 24 28  2  0  0  0  0
 24 31  1  0  0  0  0
 25 30  2  0  0  0  0
 27 24  1  0  0  0  0
 28 25  1  0  0  0  0
 29 30  1  0  0  0  0
 29 26  1  0  0  0  0
 30 22  1  0  0  0  0
 31 29  2  0  0  0  0
M  END
>  <MODEL>
2

>  <REMARK>
 VINA RESULT:      -8.2      4.126      7.342
  Name = 
  2 active torsions:
  status: ('A' for Active; 'I' for Inactive)
    1  A    between atoms: C_5  and  C_30
    2  A    between atoms: C_10  and  N_16
                            x       y       z     vdW  Elec       q    Type
                         _______ _______ _______ _____ _____    ______ ____

>  <TORSDO>
F 2

$$$$
=
 OpenBabel11122413203D

 31 35  0  0  1  0  0  0  0  0999 V2000
  161.2670  201.4050  149.4440 C   0  0  0  0  0  0  0  0  0  0  0  0
  161.1310  205.2030  149.0970 C   0  0  0  0  0  0  0  0  0  0  0  0
  160.9930  205.5090  147.7180 C   0  0  0  0  0  0  0  0  0  0  0  0
  160.6240  204.8840  145.4020 C   0  0  0  0  0  0  0  0  0  0  0  0
  161.0860  203.8130  149.6580 C   0  0  0  0  0  0  0  0  0  0  0  0
  161.0550  201.2690  150.7800 N   0  0  0  0  0  0  0  0  0  0  0  0
  160.7570  204.5260  146.7460 C   0  0  0  0  0  3  0  0  0  0  0  0
  161.4990  206.0080  151.4780 C   0  0  1  0  0  3  0  0  0  0  0  0
  161.4730  200.2010  148.5980 C   0  0  0  0  0  1  0  0  0  0  0  0
  161.2850  207.8630  148.2280 C   0  0  0  0  0  3  0  0  0  0  0  0
  160.3350  203.6480  144.1970 Cl  0  0  0  0  0  0  0  0  0  0  0  0
  160.6550  204.8160  151.9310 C   0  0  0  0  0  2  0  0  0  0  0  0
  161.3060  206.2780  150.0040 C   0  0  0  0  0  0  0  0  0  0  0  0
  161.2880  202.6740  148.8640 C   0  0  0  0  0  3  0  0  0  0  0  0
  160.7180  206.1870  145.0310 N   0  0  0  0  0  0  0  0  0  0  0  0
  160.8950  203.6370  151.0430 C   0  0  0  0  0  0  0  0  0  0  0  0
  160.8680  202.3490  151.5820 C   0  0  0  0  0  3  0  0  0  0  0  0
  161.3990  207.5560  149.5430 N   0  0  0  0  0  0  0  0  0  0  0  0
  161.0740  206.8540  147.2950 C   0  0  0  0  0  0  0  0  0  0  0  0
  160.9380  207.1710  145.9420 C   0  0  0  0  0  3  0  0  0  0  0  0
  161.9880  206.3250  154.2620 O   0  0  0  0  0  0  0  0  0  0  0  0
  161.4080  207.2770  153.6740 C   0  0  0  0  0  0  0  0  0  0  0  0
  161.1470  207.1820  152.2690 N   0  0  0  0  0  2  0  0  0  0  0  0
  160.2910  210.8920  155.7180 C   0  0  0  0  0  0  0  0  0  0  0  0
  161.4360  209.7400  153.9310 C   0  0  0  0  0  3  0  0  0  0  0  0
  159.6600  207.2080  156.1730 C   0  0  0  0  0  1  0  0  0  0  0  0
  159.9440  212.0730  156.3600 O   0  0  0  0  0  1  0  0  0  0  0  0
  161.0890  210.9280  154.5760 C   0  0  0  0  0  3  0  0  0  0  0  0
  160.1830  208.4710  155.5780 C   0  0  0  0  0  0  0  0  0  0  0  0
  160.9960  208.4970  154.4140 C   0  0  0  0  0  0  0  0  0  0  0  0
  159.8400  209.6680  156.2150 C   0  0  0  0  0  3  0  0  0  0  0  0
  1  6  1  0  0  0  0
  2  5  1  0  0  0  0
  2 13  1  0  0  0  0
  3  2  2  0  0  0  0
  4  7  2  0  0  0  0
  5 16  2  0  0  0  0
  6 17  2  0  0  0  0
  7  3  1  0  0  0  0
  8 12  1  0  0  0  0
  8 23  1  1  0  0  0
  9  1  1  0  0  0  0
 10 18  1  0  0  0  0
 11  4  1  0  0  0  0
 13  8  1  0  0  0  0
 14  1  2  0  0  0  0
 14  5  1  0  0  0  0
 15  4  1  0  0  0  0
 15 20  2  0  0  0  0
 16 17  1  0  0  0  0
 16 12  1  0  0  0  0
 18 13  2  0  0  0  0
 19  3  1  0  0  0  0
 19 10  2  0  0  0  0
 20 19  1  0  0  0  0
 22 21  2  0  0  0  0
 22 30  1  0  0  0  0
 23 22  1  0  0  0  0
 24 31  1  0  0  0  0
 24 27  1  0  0  0  0
 25 30  2  0  0  0  0
 25 28  1  0  0  0  0
 28 24  2  0  0  0  0
 29 26  1  0  0  0  0
 29 31  2  0  0  0  0
 30 29  1  0  0  0  0
M  END
>  <MODEL>
3

>  <REMARK>
 VINA RESULT:      -7.9      1.754      4.160
  Name = 
  2 active torsions:
  status: ('A' for Active; 'I' for Inactive)
    1  A    between atoms: C_5  and  C_30
    2  A    between atoms: C_10  and  N_16
                            x       y       z     vdW  Elec       q    Type
                         _______ _______ _______ _____ _____    ______ ____

>  <TORSDO>
F 2

$$$$
