=
 OpenBabel11122414093D

 28 32  0  0  1  0  0  0  0  0999 V2000
  161.1580  208.5940  155.3530 C   0  0  0  0  0  0  0  0  0  0  0  0
  158.2720  210.8980  154.4040 O   0  0  0  0  0  0  0  0  0  0  0  0
  161.4180  208.6960  149.0160 O   0  0  0  0  0  0  0  0  0  0  0  0
  162.8870  210.3640  156.6700 C   0  0  0  0  0  3  0  0  0  0  0  0
  162.3310  210.7030  150.0320 C   0  0  2  0  0  3  0  0  0  0  0  0
  160.3000  207.5850  154.6590 C   0  0  0  0  0  2  0  0  0  0  0  0
  159.1230  213.1320  154.9680 O   0  0  0  0  0  0  0  0  0  0  0  0
  158.9830  212.1110  153.8740 S   0  0  0  0  0  0  0  0  0  0  0  0
  158.5020  212.5770  151.2280 C   0  0  0  0  0  0  0  0  0  0  0  0
  160.6190  211.6790  153.2760 C   0  0  2  0  0  3  0  0  0  0  0  0
  162.2240  206.0050  151.9730 O   0  0  0  0  0  0  0  0  0  0  0  0
  161.9570  209.8920  152.3130 C   0  0  2  0  0  3  0  0  0  0  0  0
  159.6530  211.6720  150.9430 C   0  0  0  0  0  2  0  0  0  0  0  0
  158.0750  212.7880  152.5700 N   0  0  0  0  0  2  0  0  0  0  0  0
  161.3780  206.7610  152.5180 C   0  0  0  0  0  0  0  0  0  0  0  0
  161.4770  209.8320  154.7580 C   0  0  0  0  0  0  0  0  0  0  0  0
  161.6940  209.3670  150.0450 C   0  0  0  0  0  0  0  0  0  0  0  0
  157.8010  213.0460  150.2520 N   0  0  0  0  0  2  0  0  0  0  0  0
  160.6320  207.7480  151.6820 C   0  0  0  0  0  2  0  0  0  0  0  0
  162.3570  210.7030  155.4230 C   0  0  0  0  0  3  0  0  0  0  0  0
  161.6980  208.2600  156.6010 C   0  0  0  0  0  3  0  0  0  0  0  0
  162.5540  209.1450  157.2610 C   0  0  0  0  0  3  0  0  0  0  0  0
  161.1400  206.6500  153.9230 N   0  0  0  0  0  2  0  0  0  0  0  0
  162.1210  211.1800  151.4880 C   0  0  2  0  0  3  0  0  0  0  0  0
  161.4740  208.8950  151.3630 N   0  0  0  0  0  0  0  0  0  0  0  0
  160.8730  212.0310  151.8120 C   0  0  2  0  0  3  0  0  0  0  0  0
  161.8040  211.6340  148.9480 C   0  0  0  0  0  1  0  0  0  0  0  0
  160.9310  210.1940  153.4030 C   0  0  1  0  0  3  0  0  0  0  0  0
  1 21  1  0  0  0  0
  3 17  2  0  0  0  0
  4 22  1  0  0  0  0
  5 27  1  6  0  0  0
  5 17  1  0  0  0  0
  5 24  1  0  0  0  0
  6  1  1  0  0  0  0
  8  2  2  0  0  0  0
  8  7  2  0  0  0  0
  9 14  1  0  0  0  0
 10 28  1  0  0  0  0
 10  8  1  6  0  0  0
 11 15  2  0  0  0  0
 12 25  1  6  0  0  0
 12 28  1  0  0  0  0
 13  9  1  0  0  0  0
 13 26  1  0  0  0  0
 14  8  1  0  0  0  0
 15 23  1  0  0  0  0
 16  1  2  0  0  0  0
 16 20  1  0  0  0  0
 17 25  1  0  0  0  0
 18  9  2  0  0  0  0
 19 15  1  0  0  0  0
 20  4  2  0  0  0  0
 21 22  2  0  0  0  0
 23  6  1  0  0  0  0
 24 26  1  0  0  0  0
 24 12  1  0  0  0  0
 25 19  1  0  0  0  0
 26 10  1  0  0  0  0
 28 16  1  0  0  0  0
M  END
>  <MODEL>
1

>  <REMARK>
 VINA RESULT:      -3.3      0.000      0.000
  Name = 
  0 active torsions:
  status: ('A' for Active; 'I' for Inactive)
                            x       y       z     vdW  Elec       q    Type
                         _______ _______ _______ _____ _____    ______ ____

>  <TORSDO>
F 0

$$$$
=
 OpenBabel11122414093D

 28 32  0  0  1  0  0  0  0  0999 V2000
  157.7910  213.8160  152.6140 C   0  0  0  0  0  0  0  0  0  0  0  0
  160.0130  213.6430  155.7070 O   0  0  0  0  0  0  0  0  0  0  0  0
  162.3840  209.8050  150.8660 O   0  0  0  0  0  0  0  0  0  0  0  0
  155.4290  212.6290  153.5450 C   0  0  0  0  0  3  0  0  0  0  0  0
  160.7360  208.7780  152.3240 C   0  0  2  0  0  3  0  0  0  0  0  0
  159.0130  214.4530  152.0330 C   0  0  0  0  0  2  0  0  0  0  0  0
  158.7120  212.2550  157.2610 O   0  0  0  0  0  0  0  0  0  0  0  0
  159.7770  212.2440  156.2010 S   0  0  0  0  0  0  0  0  0  0  0  0
  162.0100  210.6760  156.1170 C   0  0  0  0  0  0  0  0  0  0  0  0
  159.2440  211.1770  154.8600 C   0  0  2  0  0  3  0  0  0  0  0  0
  160.0390  212.6020  149.0460 O   0  0  0  0  0  0  0  0  0  0  0  0
  159.3770  210.8130  152.4600 C   0  0  2  0  0  3  0  0  0  0  0  0
  161.6210  210.3390  154.7160 C   0  0  0  0  0  2  0  0  0  0  0  0
  161.2410  211.6120  156.8650 N   0  0  0  0  0  2  0  0  0  0  0  0
  160.0580  213.0000  150.2390 C   0  0  0  0  0  0  0  0  0  0  0  0
  157.8510  212.5910  153.3080 C   0  0  0  0  0  0  0  0  0  0  0  0
  161.3320  209.8930  151.5530 C   0  0  0  0  0  0  0  0  0  0  0  0
  163.1240  210.2360  156.5940 N   0  0  0  0  0  2  0  0  0  0  0  0
  161.0190  212.3850  151.2010 C   0  0  0  0  0  2  0  0  0  0  0  0
  156.6580  212.0000  153.7570 C   0  0  0  0  0  3  0  0  0  0  0  0
  156.5540  214.4380  152.4020 C   0  0  0  0  0  3  0  0  0  0  0  0
  155.3780  213.8500  152.8720 C   0  0  0  0  0  3  0  0  0  0  0  0
  159.1680  214.0420  150.6450 N   0  0  0  0  0  2  0  0  0  0  0  0
  159.7030  209.5110  153.2120 C   0  0  2  0  0  3  0  0  0  0  0  0
  160.5510  211.0720  151.6310 N   0  0  0  0  0  0  0  0  0  0  0  0
  160.1330  209.9570  154.6270 C   0  0  2  0  0  3  0  0  0  0  0  0
  161.7530  207.9180  153.0630 C   0  0  0  0  0  1  0  0  0  0  0  0
  159.1690  211.8930  153.5180 C   0  0  1  0  0  3  0  0  0  0  0  0
  1 16  1  0  0  0  0
  2  8  2  0  0  0  0
  3 17  2  0  0  0  0
  4 20  1  0  0  0  0
  5 27  1  1  0  0  0
  5 24  1  0  0  0  0
  6  1  1  0  0  0  0
  8 14  1  0  0  0  0
  8  7  2  0  0  0  0
  9 18  2  0  0  0  0
  9 14  1  0  0  0  0
 10  8  1  1  0  0  0
 11 15  2  0  0  0  0
 12 25  1  6  0  0  0
 12 24  1  0  0  0  0
 12 28  1  0  0  0  0
 13  9  1  0  0  0  0
 15 23  1  0  0  0  0
 15 19  1  0  0  0  0
 16 28  1  0  0  0  0
 16 20  2  0  0  0  0
 17 25  1  0  0  0  0
 17  5  1  0  0  0  0
 19 25  1  0  0  0  0
 21  1  2  0  0  0  0
 21 22  1  0  0  0  0
 22  4  2  0  0  0  0
 23  6  1  0  0  0  0
 24 26  1  0  0  0  0
 26 13  1  0  0  0  0
 26 10  1  0  0  0  0
 28 10  1  0  0  0  0
M  END
>  <MODEL>
2

>  <REMARK>
 VINA RESULT:      -2.9      2.547      5.639
  Name = 
  0 active torsions:
  status: ('A' for Active; 'I' for Inactive)
                            x       y       z     vdW  Elec       q    Type
                         _______ _______ _______ _____ _____    ______ ____

>  <TORSDO>
F 0

$$$$
=
 OpenBabel11122414093D

 28 32  0  0  1  0  0  0  0  0999 V2000
  161.5000  209.5890  156.0030 C   0  0  0  0  0  0  0  0  0  0  0  0
  163.2680  210.1950  152.6800 O   0  0  0  0  0  0  0  0  0  0  0  0
  158.2730  214.4530  153.5190 O   0  0  0  0  0  0  0  0  0  0  0  0
  160.3810  207.0510  155.5950 C   0  0  0  0  0  3  0  0  0  0  0  0
  157.6930  212.3210  152.5120 C   0  0  2  0  0  3  0  0  0  0  0  0
  162.0530  210.9450  156.3010 C   0  0  0  0  0  2  0  0  0  0  0  0
  162.4990  208.3280  151.2810 O   0  0  0  0  0  0  0  0  0  0  0  0
  162.2390  209.7540  151.6770 S   0  0  0  0  0  0  0  0  0  0  0  0
  161.3510  211.7790  150.0770 C   0  0  0  0  0  0  0  0  0  0  0  0
  160.5870  209.8690  152.3680 C   0  0  2  0  0  3  0  0  0  0  0  0
  159.3170  213.1850  157.2520 O   0  0  0  0  0  0  0  0  0  0  0  0
  159.2010  211.0570  153.9730 C   0  0  2  0  0  3  0  0  0  0  0  0
  160.3310  212.0550  151.1310 C   0  0  0  0  0  2  0  0  0  0  0  0
  162.3280  210.7630  150.2780 N   0  0  0  0  0  2  0  0  0  0  0  0
  160.2120  212.6720  156.5320 C   0  0  0  0  0  0  0  0  0  0  0  0
  160.7790  209.3250  154.8200 C   0  0  0  0  0  0  0  0  0  0  0  0
  158.4300  213.2050  153.4430 C   0  0  0  0  0  0  0  0  0  0  0  0
  161.4410  212.5600  149.0550 N   0  0  0  0  0  2  0  0  0  0  0  0
  160.3400  213.0990  155.1070 C   0  0  0  0  0  2  0  0  0  0  0  0
  160.2110  208.0520  154.6360 C   0  0  0  0  0  3  0  0  0  0  0  0
  161.6610  208.5810  156.9610 C   0  0  0  0  0  3  0  0  0  0  0  0
  161.1090  207.3150  156.7550 C   0  0  0  0  0  3  0  0  0  0  0  0
  161.0960  211.7020  157.0970 N   0  0  0  0  0  2  0  0  0  0  0  0
  158.5000  211.0040  152.6050 C   0  0  2  0  0  3  0  0  0  0  0  0
  159.3050  212.4790  154.2880 N   0  0  0  0  0  0  0  0  0  0  0  0
  159.6300  210.7600  151.5800 C   0  0  2  0  0  3  0  0  0  0  0  0
  157.5200  212.8950  151.1120 C   0  0  0  0  0  1  0  0  0  0  0  0
  160.5690  210.4050  153.7930 C   0  0  1  0  0  3  0  0  0  0  0  0
  1  6  1  0  0  0  0
  1 21  1  0  0  0  0
  4 22  1  0  0  0  0
  5 27  1  6  0  0  0
  5 24  1  0  0  0  0
  5 17  1  0  0  0  0
  6 23  1  0  0  0  0
  7  8  2  0  0  0  0
  8  2  2  0  0  0  0
  9 14  1  0  0  0  0
  9 13  1  0  0  0  0
 10  8  1  6  0  0  0
 10 28  1  0  0  0  0
 12 25  1  6  0  0  0
 13 26  1  0  0  0  0
 14  8  1  0  0  0  0
 15 23  1  0  0  0  0
 15 11  2  0  0  0  0
 16  1  2  0  0  0  0
 17  3  2  0  0  0  0
 17 25  1  0  0  0  0
 18  9  2  0  0  0  0
 19 15  1  0  0  0  0
 20 16  1  0  0  0  0
 20  4  2  0  0  0  0
 22 21  2  0  0  0  0
 24 12  1  0  0  0  0
 25 19  1  0  0  0  0
 26 10  1  0  0  0  0
 26 24  1  0  0  0  0
 28 12  1  0  0  0  0
 28 16  1  0  0  0  0
M  END
>  <MODEL>
3

>  <REMARK>
 VINA RESULT:      -0.9      2.343      4.773
  Name = 
  0 active torsions:
  status: ('A' for Active; 'I' for Inactive)
                            x       y       z     vdW  Elec       q    Type
                         _______ _______ _______ _____ _____    ______ ____

>  <TORSDO>
F 0

$$$$
