=
 OpenBabel11122413073D

 31 35  0  0  1  0  0  0  0  0999 V2000
  161.1950  206.9500  147.3050 C   0  0  0  0  0  0  0  0  0  0  0  0
  160.9780  205.8580  150.9080 C   0  0  2  0  0  3  0  0  0  0  0  0
  161.0080  204.3400  150.7930 C   0  0  0  0  0  0  0  0  0  0  0  0
  160.6870  202.2880  149.5220 C   0  0  0  0  0  0  0  0  0  0  0  0
  161.3700  206.6470  149.6650 C   0  0  0  0  0  0  0  0  0  0  0  0
  161.8750  208.1650  147.3800 C   0  0  0  0  0  3  0  0  0  0  0  0
  160.7140  203.6830  149.5880 C   0  0  0  0  0  3  0  0  0  0  0  0
  161.7600  207.8340  152.2910 C   0  0  2  0  0  3  0  0  0  0  0  0
  160.7270  206.4420  145.9900 C   0  0  0  0  0  1  0  0  0  0  0  0
  161.4640  204.1760  153.1900 O   0  0  0  0  0  0  0  0  0  0  0  0
  160.3920  201.6120  148.2320 C   0  0  0  0  0  1  0  0  0  0  0  0
  162.4930  208.4480  151.1010 C   0  0  0  0  0  2  0  0  0  0  0  0
  161.7870  206.3140  152.1330 C   0  0  1  0  0  3  0  0  0  0  0  0
  160.9490  206.2370  148.4350 N   0  0  0  0  0  0  0  0  0  0  0  0
  160.9320  201.5300  150.6680 C   0  0  0  0  0  3  0  0  0  0  0  0
  162.0200  207.9010  149.7790 C   0  0  0  0  0  0  0  0  0  0  0  0
  162.2860  208.6380  148.6240 C   0  0  0  0  0  3  0  0  0  0  0  0
  161.3210  205.5810  153.3800 C   0  0  0  0  0  2  0  0  0  0  0  0
  161.2160  203.5620  151.9550 C   0  0  0  0  0  0  0  0  0  0  0  0
  161.1940  202.1670  151.8820 C   0  0  0  0  0  3  0  0  0  0  0  0
  160.3920  208.3480  152.3430 N   0  0  0  0  0  2  0  0  0  0  0  0
  160.4530  208.3120  154.6680 O   0  0  0  0  0  1  0  0  0  0  0  0
  160.2420  209.1370  153.5580 C   0  0  1  0  0  3  0  0  0  0  0  0
  159.9600  212.4650  155.1760 C   0  0  1  0  0  3  0  0  0  0  0  0
  161.8270  210.5490  154.9710 C   0  0  0  0  0  2  0  0  0  0  0  0
  160.3540  211.4000  151.7480 O   0  0  0  0  0  1  0  0  0  0  0  0
  158.7750  213.1080  155.8650 C   0  0  0  0  0  1  0  0  0  0  0  0
  160.5220  211.0370  156.1580 S   0  0  0  0  0  0  0  0  0  0  0  0
  160.7230  211.5760  153.0380 N   0  0  0  0  0  0  0  0  0  0  0  0
  161.2520  210.3070  153.5720 C   0  0  2  0  0  3  0  0  0  0  0  0
  159.5450  212.0100  153.7850 C   0  0  0  0  0  2  0  0  0  0  0  0
  1  6  2  0  0  0  0
  1 14  1  0  0  0  0
  2  5  1  6  0  0  0
  2 13  1  0  0  0  0
  3  2  1  0  0  0  0
  3 19  1  0  0  0  0
  4  7  1  0  0  0  0
  4 15  2  0  0  0  0
  5 16  1  0  0  0  0
  6 17  1  0  0  0  0
  7  3  2  0  0  0  0
  8 21  1  6  0  0  0
  9  1  1  0  0  0  0
 10 18  1  0  0  0  0
 11  4  1  0  0  0  0
 12  8  1  0  0  0  0
 13  8  1  0  0  0  0
 13 18  1  1  0  0  0
 14  5  2  0  0  0  0
 15 20  1  0  0  0  0
 16 12  1  0  0  0  0
 17 16  2  0  0  0  0
 19 10  1  0  0  0  0
 20 19  2  0  0  0  0
 21 23  1  0  0  0  0
 23 22  1  1  0  0  0
 24 27  1  1  0  0  0
 24 28  1  0  0  0  0
 25 28  1  0  0  0  0
 26 29  1  0  0  0  0
 29 30  1  0  0  0  0
 29 31  1  0  0  0  0
 30 23  1  1  0  0  0
 30 25  1  0  0  0  0
 31 24  1  0  0  0  0
M  END
>  <MODEL>
1

>  <REMARK>
 VINA RESULT:      -8.4      0.000      0.000
  Name = 
  3 active torsions:
  status: ('A' for Active; 'I' for Inactive)
    1  A    between atoms: C_5  and  N_16
    2  A    between atoms: C_5  and  C_30
    3  A    between atoms: C_10  and  N_16
                            x       y       z     vdW  Elec       q    Type
                         _______ _______ _______ _____ _____    ______ ____

>  <TORSDO>
F 3

$$$$
=
 OpenBabel11122413073D

 31 35  0  0  1  0  0  0  0  0999 V2000
  161.4500  208.0780  148.1060 C   0  0  0  0  0  0  0  0  0  0  0  0
  160.8740  206.9500  151.6590 C   0  0  2  0  0  3  0  0  0  0  0  0
  160.9850  205.4360  151.5440 C   0  0  0  0  0  0  0  0  0  0  0  0
  160.8990  203.3820  150.2400 C   0  0  0  0  0  0  0  0  0  0  0  0
  161.3700  207.7650  150.4700 C   0  0  0  0  0  0  0  0  0  0  0  0
  162.0630  209.3200  148.2620 C   0  0  0  0  0  3  0  0  0  0  0  0
  160.8580  204.7760  150.3120 C   0  0  0  0  0  3  0  0  0  0  0  0
  161.4070  208.9480  153.1260 C   0  0  2  0  0  3  0  0  0  0  0  0
  161.1560  207.5600  146.7460 C   0  0  0  0  0  1  0  0  0  0  0  0
  161.1720  205.2740  153.9780 O   0  0  0  0  0  0  0  0  0  0  0  0
  160.7820  202.7030  148.9240 C   0  0  0  0  0  1  0  0  0  0  0  0
  162.2430  209.6020  152.0290 C   0  0  0  0  0  2  0  0  0  0  0  0
  161.5200  207.4330  152.9690 C   0  0  1  0  0  3  0  0  0  0  0  0
  161.1090  207.3470  149.2000 N   0  0  0  0  0  0  0  0  0  0  0  0
  161.0460  202.6270  151.4040 C   0  0  0  0  0  3  0  0  0  0  0  0
  161.9470  209.0450  150.6610 C   0  0  0  0  0  0  0  0  0  0  0  0
  162.3100  209.8010  149.5450 C   0  0  0  0  0  3  0  0  0  0  0  0
  160.9470  206.6710  154.1530 C   0  0  0  0  0  2  0  0  0  0  0  0
  161.0930  204.6600  152.7210 C   0  0  0  0  0  0  0  0  0  0  0  0
  161.1410  203.2650  152.6420 C   0  0  0  0  0  3  0  0  0  0  0  0
  160.0220  209.4020  153.0250 N   0  0  0  0  0  2  0  0  0  0  0  0
  160.5090  209.6830  155.2810 O   0  0  0  0  0  1  0  0  0  0  0  0
  159.6830  210.1250  154.2430 C   0  0  1  0  0  3  0  0  0  0  0  0
  157.5190  212.9200  155.3750 C   0  0  1  0  0  3  0  0  0  0  0  0
  160.1460  212.3720  155.3560 C   0  0  0  0  0  2  0  0  0  0  0  0
  158.5800  211.7660  152.1210 O   0  0  0  0  0  1  0  0  0  0  0  0
  156.1520  212.8840  156.0220 C   0  0  0  0  0  1  0  0  0  0  0  0
  158.7460  212.2150  156.5230 S   0  0  0  0  0  0  0  0  0  0  0  0
  158.7350  212.3060  153.3530 N   0  0  0  0  0  0  0  0  0  0  0  0
  159.8620  211.6460  154.0370 C   0  0  2  0  0  3  0  0  0  0  0  0
  157.4870  212.1120  154.0860 C   0  0  0  0  0  2  0  0  0  0  0  0
  1  6  2  0  0  0  0
  1 14  1  0  0  0  0
  2  5  1  6  0  0  0
  2 13  1  0  0  0  0
  3  2  1  0  0  0  0
  3 19  1  0  0  0  0
  4  7  1  0  0  0  0
  4 15  2  0  0  0  0
  5 16  1  0  0  0  0
  6 17  1  0  0  0  0
  7  3  2  0  0  0  0
  8 21  1  6  0  0  0
  9  1  1  0  0  0  0
 10 18  1  0  0  0  0
 11  4  1  0  0  0  0
 12  8  1  0  0  0  0
 13  8  1  0  0  0  0
 13 18  1  1  0  0  0
 14  5  2  0  0  0  0
 15 20  1  0  0  0  0
 16 12  1  0  0  0  0
 17 16  2  0  0  0  0
 19 10  1  0  0  0  0
 20 19  2  0  0  0  0
 21 23  1  0  0  0  0
 23 22  1  1  0  0  0
 24 27  1  1  0  0  0
 24 28  1  0  0  0  0
 25 28  1  0  0  0  0
 26 29  1  0  0  0  0
 29 30  1  0  0  0  0
 29 31  1  0  0  0  0
 30 23  1  1  0  0  0
 30 25  1  0  0  0  0
 31 24  1  0  0  0  0
M  END
>  <MODEL>
2

>  <REMARK>
 VINA RESULT:      -7.4      1.321      1.653
  Name = 
  3 active torsions:
  status: ('A' for Active; 'I' for Inactive)
    1  A    between atoms: C_5  and  N_16
    2  A    between atoms: C_5  and  C_30
    3  A    between atoms: C_10  and  N_16
                            x       y       z     vdW  Elec       q    Type
                         _______ _______ _______ _____ _____    ______ ____

>  <TORSDO>
F 3

$$$$
=
 OpenBabel11122413073D

 31 35  0  0  1  0  0  0  0  0999 V2000
  160.5490  207.2950  154.4750 C   0  0  0  0  0  0  0  0  0  0  0  0
  160.9130  208.8050  151.0380 C   0  0  2  0  0  3  0  0  0  0  0  0
  160.7940  210.2960  151.3210 C   0  0  0  0  0  0  0  0  0  0  0  0
  160.0690  212.1530  152.7190 C   0  0  0  0  0  0  0  0  0  0  0  0
  161.1330  207.8960  152.2410 C   0  0  0  0  0  0  0  0  0  0  0  0
  161.3310  206.1440  154.4020 C   0  0  0  0  0  3  0  0  0  0  0  0
  160.2260  210.7810  152.5090 C   0  0  0  0  0  3  0  0  0  0  0  0
  162.1020  207.0660  149.6280 C   0  0  2  0  0  3  0  0  0  0  0  0
  159.8040  207.6090  155.7200 C   0  0  0  0  0  1  0  0  0  0  0  0
  161.6710  210.7810  149.0890 O   0  0  0  0  0  0  0  0  0  0  0  0
  159.4840  212.6470  153.9920 C   0  0  0  0  0  1  0  0  0  0  0  0
  162.6510  206.3570  150.8640 C   0  0  0  0  0  2  0  0  0  0  0  0
  161.9720  208.5530  149.9520 C   0  0  1  0  0  3  0  0  0  0  0  0
  160.4580  208.1250  153.4020 N   0  0  0  0  0  0  0  0  0  0  0  0
  160.4580  213.0590  151.7320 C   0  0  0  0  0  3  0  0  0  0  0  0
  161.8970  206.7080  152.1200 C   0  0  0  0  0  0  0  0  0  0  0  0
  162.0050  205.8540  153.2180 C   0  0  0  0  0  3  0  0  0  0  0  0
  161.6850  209.4030  148.7250 C   0  0  0  0  0  2  0  0  0  0  0  0
  161.1470  211.2220  150.3120 C   0  0  0  0  0  0  0  0  0  0  0  0
  160.9940  212.5940  150.5300 C   0  0  0  0  0  3  0  0  0  0  0  0
  160.8170  206.4780  149.2550 N   0  0  0  0  0  2  0  0  0  0  0  0
  161.1740  206.9020  146.9970 O   0  0  0  0  0  1  0  0  0  0  0  0
  160.9470  205.8860  147.9310 C   0  0  1  0  0  3  0  0  0  0  0  0
  161.2680  202.7240  146.0130 C   0  0  1  0  0  3  0  0  0  0  0  0
  162.8180  204.8500  146.5420 C   0  0  0  0  0  2  0  0  0  0  0  0
  161.2540  203.4940  149.5420 O   0  0  0  0  0  1  0  0  0  0  0  0
  160.2420  201.9950  145.1730 C   0  0  0  0  0  1  0  0  0  0  0  0
  161.6870  204.3060  145.2110 S   0  0  0  0  0  0  0  0  0  0  0  0
  161.7360  203.4980  148.2780 N   0  0  0  0  0  0  0  0  0  0  0  0
  162.1130  204.8730  147.9030 C   0  0  2  0  0  3  0  0  0  0  0  0
  160.6920  202.9800  147.3980 C   0  0  0  0  0  2  0  0  0  0  0  0
  1  9  1  0  0  0  0
  2  3  1  1  0  0  0
  2  5  1  0  0  0  0
  3  7  1  0  0  0  0
  4 11  1  0  0  0  0
  5 14  1  0  0  0  0
  6  1  1  0  0  0  0
  7  4  2  0  0  0  0
  8 21  1  1  0  0  0
  8 13  1  0  0  0  0
  8 12  1  0  0  0  0
 10 19  1  0  0  0  0
 12 16  1  0  0  0  0
 13 18  1  6  0  0  0
 13  2  1  0  0  0  0
 14  1  2  0  0  0  0
 15  4  1  0  0  0  0
 16  5  2  0  0  0  0
 16 17  1  0  0  0  0
 17  6  2  0  0  0  0
 18 10  1  0  0  0  0
 19 20  1  0  0  0  0
 19  3  2  0  0  0  0
 20 15  2  0  0  0  0
 23 22  1  6  0  0  0
 23 21  1  0  0  0  0
 24 27  1  6  0  0  0
 24 31  1  0  0  0  0
 25 30  1  0  0  0  0
 28 24  1  0  0  0  0
 28 25  1  0  0  0  0
 29 26  1  0  0  0  0
 30 23  1  6  0  0  0
 30 29  1  0  0  0  0
 31 29  1  0  0  0  0
M  END
>  <MODEL>
3

>  <REMARK>
 VINA RESULT:      -6.0      3.295      8.462
  Name = 
  3 active torsions:
  status: ('A' for Active; 'I' for Inactive)
    1  A    between atoms: C_5  and  N_16
    2  A    between atoms: C_5  and  C_30
    3  A    between atoms: C_10  and  N_16
                            x       y       z     vdW  Elec       q    Type
                         _______ _______ _______ _____ _____    ______ ____

>  <TORSDO>
F 3

$$$$
=
 OpenBabel11122413073D

 31 35  0  0  1  0  0  0  0  0999 V2000
  161.5900  210.5010  148.4530 C   0  0  0  0  0  0  0  0  0  0  0  0
  161.1780  207.1460  150.1260 C   0  0  2  0  0  3  0  0  0  0  0  0
  161.2370  206.1830  148.9490 C   0  0  0  0  0  0  0  0  0  0  0  0
  161.0180  205.7000  146.5730 C   0  0  0  0  0  0  0  0  0  0  0  0
  161.6320  208.5770  149.8630 C   0  0  0  0  0  0  0  0  0  0  0  0
  162.2470  211.2600  149.4190 C   0  0  0  0  0  3  0  0  0  0  0  0
  161.0220  206.6120  147.6300 C   0  0  0  0  0  3  0  0  0  0  0  0
  161.8520  207.4810  152.5480 C   0  0  2  0  0  3  0  0  0  0  0  0
  161.2050  211.1170  147.1580 C   0  0  0  0  0  1  0  0  0  0  0  0
  161.5550  204.3190  150.5010 O   0  0  0  0  0  0  0  0  0  0  0  0
  160.8080  206.1770  145.1820 C   0  0  0  0  0  1  0  0  0  0  0  0
  162.6440  208.7420  152.2120 C   0  0  0  0  0  2  0  0  0  0  0  0
  161.9090  206.5480  151.3400 C   0  0  1  0  0  3  0  0  0  0  0  0
  161.2880  209.1990  148.7010 N   0  0  0  0  0  0  0  0  0  0  0  0
  161.2070  204.3400  146.8230 C   0  0  0  0  0  3  0  0  0  0  0  0
  162.2560  209.3370  150.8830 C   0  0  0  0  0  0  0  0  0  0  0  0
  162.5790  210.6720  150.6370 C   0  0  0  0  0  3  0  0  0  0  0  0
  161.3810  205.1550  151.6420 C   0  0  0  0  0  2  0  0  0  0  0  0
  161.3880  204.7980  149.1950 C   0  0  0  0  0  0  0  0  0  0  0  0
  161.3890  203.8910  148.1320 C   0  0  0  0  0  3  0  0  0  0  0  0
  160.4770  207.8410  152.8880 N   0  0  0  0  0  2  0  0  0  0  0  0
  161.1620  207.4500  155.0760 O   0  0  0  0  0  1  0  0  0  0  0  0
  160.4550  208.3370  154.2570 C   0  0  1  0  0  3  0  0  0  0  0  0
  159.4530  211.2560  156.3190 C   0  0  1  0  0  3  0  0  0  0  0  0
  161.7430  210.0040  155.6940 C   0  0  0  0  0  2  0  0  0  0  0  0
  159.6980  210.7020  152.7590 O   0  0  0  0  0  1  0  0  0  0  0  0
  158.2320  211.4500  157.1920 C   0  0  0  0  0  1  0  0  0  0  0  0
  160.5130  209.9650  157.0490 S   0  0  0  0  0  0  0  0  0  0  0  0
  160.1610  210.8480  154.0220 N   0  0  0  0  0  0  0  0  0  0  0  0
  161.0880  209.7440  154.3340 C   0  0  2  0  0  3  0  0  0  0  0  0
  159.0120  210.8410  154.9240 C   0  0  0  0  0  2  0  0  0  0  0  0
  1 14  2  0  0  0  0
  1  6  1  0  0  0  0
  2  3  1  6  0  0  0
  2 13  1  0  0  0  0
  3 19  1  0  0  0  0
  4 15  2  0  0  0  0
  4  7  1  0  0  0  0
  5  2  1  0  0  0  0
  5 16  2  0  0  0  0
  6 17  2  0  0  0  0
  7  3  2  0  0  0  0
  8 21  1  6  0  0  0
  9  1  1  0  0  0  0
 10 18  1  0  0  0  0
 11  4  1  0  0  0  0
 12  8  1  0  0  0  0
 13 18  1  1  0  0  0
 13  8  1  0  0  0  0
 14  5  1  0  0  0  0
 15 20  1  0  0  0  0
 16 12  1  0  0  0  0
 17 16  1  0  0  0  0
 19 10  1  0  0  0  0
 20 19  2  0  0  0  0
 21 23  1  0  0  0  0
 23 22  1  1  0  0  0
 24 28  1  0  0  0  0
 24 27  1  1  0  0  0
 25 28  1  0  0  0  0
 26 29  1  0  0  0  0
 29 30  1  0  0  0  0
 29 31  1  0  0  0  0
 30 23  1  1  0  0  0
 30 25  1  0  0  0  0
 31 24  1  0  0  0  0
M  END
>  <MODEL>
4

>  <REMARK>
 VINA RESULT:      -5.4      1.693      2.732
  Name = 
  3 active torsions:
  status: ('A' for Active; 'I' for Inactive)
    1  A    between atoms: C_5  and  N_16
    2  A    between atoms: C_5  and  C_30
    3  A    between atoms: C_10  and  N_16
                            x       y       z     vdW  Elec       q    Type
                         _______ _______ _______ _____ _____    ______ ____

>  <TORSDO>
F 3

$$$$
