=
 OpenBabel11122413043D

 32 37  0  0  1  0  0  0  0  0999 V2000
  159.4150  209.9910  155.6270 C   0  0  0  0  0  2  0  0  0  0  0  0
  160.7740  206.9030  152.6670 C   0  0  2  0  0  3  0  0  0  0  0  0
  162.3740  210.4600  149.6280 C   0  0  0  0  0  3  0  0  0  0  0  0
  161.8830  209.7410  148.5380 C   0  0  0  0  0  3  0  0  0  0  0  0
  160.8950  204.5100  151.7060 C   0  0  0  0  0  0  0  0  0  0  0  0
  161.3570  203.7230  150.5370 C   0  0  1  0  0  3  0  0  0  0  0  0
  161.0570  207.3360  155.1460 C   0  0  1  0  0  3  0  0  0  0  0  0
  161.5030  209.0530  153.4490 O   0  0  0  0  0  0  0  0  0  0  0  0
  160.8460  203.1120  148.4170 C   0  0  2  0  0  3  0  0  0  0  0  0
  161.9690  209.7110  155.7230 C   0  0  0  0  0  2  0  0  0  0  0  0
  162.3280  209.9030  150.9060 C   0  0  0  0  0  3  0  0  0  0  0  0
  161.7850  208.0500  152.5030 C   0  0  2  0  0  3  0  0  0  0  0  0
  161.7850  208.6260  151.1130 C   0  0  0  0  0  0  0  0  0  0  0  0
  160.7300  206.5040  150.1710 C   0  0  1  0  0  3  0  0  0  0  0  0
  160.9190  201.9350  149.2530 N   0  0  0  0  0  2  0  0  0  0  0  0
  159.1450  208.6360  154.9630 C   0  0  0  0  0  2  0  0  0  0  0  0
  161.9120  208.5630  154.7050 C   0  0  1  0  0  3  0  0  0  0  0  0
  161.1620  202.2560  150.4710 C   0  0  0  0  0  2  0  0  0  0  0  0
  159.7650  207.5940  155.6760 O   0  0  0  0  0  0  0  0  0  0  0  0
  160.6750  209.9780  156.5020 C   0  0  1  0  0  3  0  0  0  0  0  0
  161.3640  208.4590  148.7260 C   0  0  0  0  0  3  0  0  0  0  0  0
  161.3360  207.8750  150.0030 C   0  0  0  0  0  0  0  0  0  0  0  0
  161.2070  205.5280  149.0640 C   0  0  0  0  0  2  0  0  0  0  0  0
  161.0160  206.2740  154.0450 C   0  0  0  0  0  2  0  0  0  0  0  0
  160.5120  203.9440  152.7650 O   0  0  0  0  0  0  0  0  0  0  0  0
  162.1320  203.2370  147.5980 C   0  0  0  0  0  1  0  0  0  0  0  0
  160.8980  205.9540  151.5450 N   0  0  0  0  0  0  0  0  0  0  0  0
  160.6600  204.2120  149.3700 N   0  0  2  0  0  0  0  0  0  0  0  0
  160.8100  211.2890  157.2610 C   0  0  0  0  0  2  0  0  0  0  0  0
  160.1130  212.4020  156.5460 C   0  0  0  0  0  0  0  0  0  0  0  0
  159.0480  213.1770  157.2410 C   0  0  0  0  0  1  0  0  0  0  0  0
  160.3980  212.6650  155.3890 O   0  0  0  0  0  0  0  0  0  0  0  0
  1 20  1  0  0  0  0
  2 24  1  1  0  0  0
  3 11  1  0  0  0  0
  4 21  1  0  0  0  0
  4  3  2  0  0  0  0
  5 25  2  0  0  0  0
  6 18  1  1  0  0  0
  6  5  1  0  0  0  0
  7 24  1  6  0  0  0
  7 19  1  0  0  0  0
  8 17  1  0  0  0  0
  9 26  1  1  0  0  0
  9 15  1  0  0  0  0
  9 28  1  0  0  0  0
 10 20  1  0  0  0  0
 11 13  2  0  0  0  0
 12 13  1  6  0  0  0
 12  2  1  0  0  0  0
 12  8  1  0  0  0  0
 14 23  1  6  0  0  0
 14 27  1  0  0  0  0
 15 18  1  0  0  0  0
 16  1  1  0  0  0  0
 16 19  1  0  0  0  0
 17  7  1  0  0  0  0
 17 10  1  1  0  0  0
 20 29  1  6  0  0  0
 21 22  2  0  0  0  0
 22 14  1  0  0  0  0
 22 13  1  0  0  0  0
 27  5  1  0  0  0  0
 27  2  1  0  0  0  0
 28 23  1  6  0  0  0
 28  6  1  0  0  0  0
 30 31  1  0  0  0  0
 30 29  1  0  0  0  0
 32 30  2  0  0  0  0
M  END
>  <MODEL>
1

>  <REMARK>
 VINA RESULT:      -6.4      0.000      0.000
  Name = 
  2 active torsions:
  status: ('A' for Active; 'I' for Inactive)
    1  A    between atoms: C_20  and  C_29
    2  A    between atoms: C_29  and  C_30
                            x       y       z     vdW  Elec       q    Type
                         _______ _______ _______ _____ _____    ______ ____

>  <TORSDO>
F 2

$$$$
=
 OpenBabel11122413043D

 32 37  0  0  1  0  0  0  0  0999 V2000
  160.2000  205.9560  146.1510 C   0  0  0  0  0  2  0  0  0  0  0  0
  161.3320  207.3600  150.2610 C   0  0  2  0  0  3  0  0  0  0  0  0
  161.2410  202.7040  151.9230 C   0  0  0  0  0  3  0  0  0  0  0  0
  160.6390  203.1430  153.1010 C   0  0  0  0  0  3  0  0  0  0  0  0
  161.6990  209.1600  152.0750 C   0  0  0  0  0  0  0  0  0  0  0  0
  161.9830  209.3490  153.5190 C   0  0  1  0  0  3  0  0  0  0  0  0
  162.1800  207.6900  147.8980 C   0  0  1  0  0  3  0  0  0  0  0  0
  161.7680  205.4660  148.8510 O   0  0  0  0  0  0  0  0  0  0  0  0
  161.0580  209.3630  155.5860 C   0  0  2  0  0  3  0  0  0  0  0  0
  162.6820  205.4730  146.6180 C   0  0  0  0  0  2  0  0  0  0  0  0
  161.6660  203.6320  150.9710 C   0  0  0  0  0  3  0  0  0  0  0  0
  161.9890  205.9750  150.1440 C   0  0  2  0  0  3  0  0  0  0  0  0
  161.4880  205.0080  151.1810 C   0  0  0  0  0  0  0  0  0  0  0  0
  160.6970  206.9230  152.6680 C   0  0  1  0  0  3  0  0  0  0  0  0
  161.6060  210.6680  155.2950 N   0  0  0  0  0  2  0  0  0  0  0  0
  160.0580  207.0370  147.2280 C   0  0  0  0  0  2  0  0  0  0  0  0
  162.5990  206.1900  147.9730 C   0  0  1  0  0  3  0  0  0  0  0  0
  162.0970  210.7020  154.1090 C   0  0  0  0  0  2  0  0  0  0  0  0
  161.0570  208.0180  147.0920 O   0  0  0  0  0  0  0  0  0  0  0  0
  161.6240  205.8730  145.5830 C   0  0  1  0  0  3  0  0  0  0  0  0
  160.4790  204.5100  153.3350 C   0  0  0  0  0  3  0  0  0  0  0  0
  160.9260  205.4560  152.3970 C   0  0  0  0  0  0  0  0  0  0  0  0
  161.0530  207.2970  154.1310 C   0  0  0  0  0  2  0  0  0  0  0  0
  162.0700  208.2980  149.2970 C   0  0  0  0  0  2  0  0  0  0  0  0
  161.7500  210.1250  151.2670 O   0  0  0  0  0  0  0  0  0  0  0  0
  162.0150  208.6000  156.5040 C   0  0  0  0  0  1  0  0  0  0  0  0
  161.3480  207.8110  151.6650 N   0  0  0  0  0  0  0  0  0  0  0  0
  160.9070  208.7410  154.2650 N   0  0  2  0  0  0  0  0  0  0  0  0
  161.6740  204.9020  144.4140 C   0  0  0  0  0  2  0  0  0  0  0  0
  160.7370  203.7570  144.6210 C   0  0  0  0  0  0  0  0  0  0  0  0
  161.0960  202.6680  145.5710 C   0  0  0  0  0  1  0  0  0  0  0  0
  159.6870  203.7000  144.0010 O   0  0  0  0  0  0  0  0  0  0  0  0
  1 16  1  0  0  0  0
  2 24  1  6  0  0  0
  2 27  1  0  0  0  0
  3  4  1  0  0  0  0
  4 21  2  0  0  0  0
  5  6  1  0  0  0  0
  6 18  1  6  0  0  0
  6 28  1  0  0  0  0
  7 17  1  0  0  0  0
  7 24  1  1  0  0  0
  9 26  1  1  0  0  0
 11 13  1  0  0  0  0
 11  3  2  0  0  0  0
 12  8  1  6  0  0  0
 12  2  1  0  0  0  0
 12 13  1  0  0  0  0
 13 22  2  0  0  0  0
 14 23  1  1  0  0  0
 15  9  1  0  0  0  0
 17 10  1  6  0  0  0
 17  8  1  0  0  0  0
 18 15  1  0  0  0  0
 19 16  1  0  0  0  0
 19  7  1  0  0  0  0
 20 29  1  6  0  0  0
 20  1  1  0  0  0  0
 20 10  1  0  0  0  0
 22 14  1  0  0  0  0
 22 21  1  0  0  0  0
 25  5  2  0  0  0  0
 27  5  1  0  0  0  0
 27 14  1  0  0  0  0
 28 23  1  1  0  0  0
 28  9  1  0  0  0  0
 29 30  1  0  0  0  0
 30 31  1  0  0  0  0
 32 30  2  0  0  0  0
M  END
>  <MODEL>
2

>  <REMARK>
 VINA RESULT:      -4.7      3.030      8.612
  Name = 
  2 active torsions:
  status: ('A' for Active; 'I' for Inactive)
    1  A    between atoms: C_20  and  C_29
    2  A    between atoms: C_29  and  C_30
                            x       y       z     vdW  Elec       q    Type
                         _______ _______ _______ _____ _____    ______ ____

>  <TORSDO>
F 2

$$$$
=
 OpenBabel11122413043D

 32 37  0  0  1  0  0  0  0  0999 V2000
  162.8640  209.9410  153.4820 C   0  0  0  0  0  2  0  0  0  0  0  0
  161.6390  207.4110  149.9820 C   0  0  2  0  0  3  0  0  0  0  0  0
  160.8260  203.5710  152.9900 C   0  0  0  0  0  3  0  0  0  0  0  0
  161.3930  202.7180  152.0430 C   0  0  0  0  0  3  0  0  0  0  0  0
  161.4240  206.8900  147.4640 C   0  0  0  0  0  0  0  0  0  0  0  0
  161.0550  205.8240  146.5000 C   0  0  1  0  0  3  0  0  0  0  0  0
  161.0570  209.6970  150.9030 C   0  0  1  0  0  3  0  0  0  0  0  0
  161.0180  207.6710  152.2880 O   0  0  0  0  0  0  0  0  0  0  0  0
  161.7940  203.9540  145.4590 C   0  0  2  0  0  3  0  0  0  0  0  0
  160.3070  209.6890  153.4010 C   0  0  0  0  0  2  0  0  0  0  0  0
  160.6410  204.9200  152.6870 C   0  0  0  0  0  3  0  0  0  0  0  0
  160.7760  206.8890  151.1430 C   0  0  2  0  0  3  0  0  0  0  0  0
  161.0240  205.4350  151.4400 C   0  0  0  0  0  0  0  0  0  0  0  0
  161.9910  205.0650  149.1090 C   0  0  1  0  0  3  0  0  0  0  0  0
  161.4930  204.9670  144.4730 N   0  0  0  0  0  2  0  0  0  0  0  0
  163.0920  209.5810  152.0100 C   0  0  0  0  0  2  0  0  0  0  0  0
  160.3930  208.9160  152.0780 C   0  0  1  0  0  3  0  0  0  0  0  0
  161.1150  206.0550  145.0380 C   0  0  0  0  0  2  0  0  0  0  0  0
  162.2820  210.3660  151.1690 O   0  0  0  0  0  0  0  0  0  0  0  0
  161.4990  210.5980  153.7240 C   0  0  1  0  0  3  0  0  0  0  0  0
  161.7550  203.2110  150.7880 C   0  0  0  0  0  3  0  0  0  0  0  0
  161.5480  204.5620  150.4610 C   0  0  0  0  0  0  0  0  0  0  0  0
  161.5810  204.0920  147.9730 C   0  0  0  0  0  2  0  0  0  0  0  0
  161.1480  208.8260  149.6490 C   0  0  0  0  0  2  0  0  0  0  0  0
  161.5990  208.0800  147.0870 O   0  0  0  0  0  0  0  0  0  0  0  0
  160.6520  202.9370  145.5120 C   0  0  0  0  0  1  0  0  0  0  0  0
  161.5810  206.4730  148.8460 N   0  0  0  0  0  0  0  0  0  0  0  0
  161.9500  204.7110  146.7060 N   0  0  2  0  0  0  0  0  0  0  0  0
  161.3870  211.0780  155.1630 C   0  0  0  0  0  2  0  0  0  0  0  0
  162.2720  210.2840  156.0680 C   0  0  0  0  0  0  0  0  0  0  0  0
  161.7940  208.9860  156.6200 C   0  0  0  0  0  1  0  0  0  0  0  0
  163.3770  210.7030  156.3730 O   0  0  0  0  0  0  0  0  0  0  0  0
  1 20  1  0  0  0  0
  2 24  1  6  0  0  0
  2 12  1  0  0  0  0
  4  3  2  0  0  0  0
  5 27  1  0  0  0  0
  6 18  1  6  0  0  0
  6 28  1  0  0  0  0
  6  5  1  0  0  0  0
  7 24  1  6  0  0  0
  7 19  1  0  0  0  0
  7 17  1  0  0  0  0
  9 26  1  1  0  0  0
  9 28  1  0  0  0  0
 10 20  1  0  0  0  0
 11  3  1  0  0  0  0
 12 13  1  1  0  0  0
 12  8  1  0  0  0  0
 13 11  2  0  0  0  0
 14 23  1  6  0  0  0
 14 22  1  0  0  0  0
 15 18  1  0  0  0  0
 15  9  1  0  0  0  0
 16  1  1  0  0  0  0
 17  8  1  0  0  0  0
 17 10  1  1  0  0  0
 19 16  1  0  0  0  0
 20 29  1  1  0  0  0
 21  4  1  0  0  0  0
 22 21  2  0  0  0  0
 22 13  1  0  0  0  0
 25  5  2  0  0  0  0
 27 14  1  0  0  0  0
 27  2  1  0  0  0  0
 28 23  1  1  0  0  0
 29 30  1  0  0  0  0
 30 32  2  0  0  0  0
 30 31  1  0  0  0  0
M  END
>  <MODEL>
3

>  <REMARK>
 VINA RESULT:      -4.5      2.391      4.482
  Name = 
  2 active torsions:
  status: ('A' for Active; 'I' for Inactive)
    1  A    between atoms: C_20  and  C_29
    2  A    between atoms: C_29  and  C_30
                            x       y       z     vdW  Elec       q    Type
                         _______ _______ _______ _____ _____    ______ ____

>  <TORSDO>
F 2

$$$$
=
 OpenBabel11122413043D

 32 37  0  0  1  0  0  0  0  0999 V2000
  159.4570  209.0720  155.3300 C   0  0  0  0  0  2  0  0  0  0  0  0
  160.9140  206.7650  151.7660 C   0  0  2  0  0  3  0  0  0  0  0  0
  162.5410  210.9400  149.6760 C   0  0  0  0  0  3  0  0  0  0  0  0
  162.0820  210.4920  148.4380 C   0  0  0  0  0  3  0  0  0  0  0  0
  161.0820  204.6620  150.2790 C   0  0  0  0  0  0  0  0  0  0  0  0
  161.5780  204.1710  148.9700 C   0  0  1  0  0  3  0  0  0  0  0  0
  161.1390  206.6110  154.2840 C   0  0  1  0  0  3  0  0  0  0  0  0
  161.6030  208.6780  153.0440 O   0  0  0  0  0  0  0  0  0  0  0  0
  161.1200  204.0660  146.7550 C   0  0  2  0  0  3  0  0  0  0  0  0
  162.0110  208.7920  155.4190 C   0  0  0  0  0  2  0  0  0  0  0  0
  162.4730  210.1010  150.7890 C   0  0  0  0  0  3  0  0  0  0  0  0
  161.9160  207.9240  151.8970 C   0  0  2  0  0  3  0  0  0  0  0  0
  161.9400  208.8080  150.6800 C   0  0  0  0  0  0  0  0  0  0  0  0
  160.9290  206.9570  149.2460 C   0  0  1  0  0  3  0  0  0  0  0  0
  161.1870  202.7280  147.2960 N   0  0  0  0  0  2  0  0  0  0  0  0
  159.2170  207.9080  154.3640 C   0  0  0  0  0  2  0  0  0  0  0  0
  161.9900  207.9120  154.1610 C   0  0  1  0  0  3  0  0  0  0  0  0
  161.4000  202.7580  148.5610 C   0  0  0  0  0  2  0  0  0  0  0  0
  159.8320  206.7310  154.8290 O   0  0  0  0  0  0  0  0  0  0  0  0
  160.6990  208.8630  156.2080 C   0  0  1  0  0  3  0  0  0  0  0  0
  161.5730  209.1980  148.3100 C   0  0  0  0  0  3  0  0  0  0  0  0
  161.5240  208.3330  149.4160 C   0  0  0  0  0  0  0  0  0  0  0  0
  161.4400  206.2680  147.9540 C   0  0  0  0  0  2  0  0  0  0  0  0
  161.1330  205.8340  152.9660 C   0  0  0  0  0  2  0  0  0  0  0  0
  160.6830  203.8630  151.1680 O   0  0  0  0  0  0  0  0  0  0  0  0
  162.4220  204.3860  146.0180 C   0  0  0  0  0  1  0  0  0  0  0  0
  161.0730  206.1030  150.4580 N   0  0  0  0  0  0  0  0  0  0  0  0
  160.9020  204.9140  147.9330 N   0  0  2  0  0  0  0  0  0  0  0  0
  160.8020  209.9630  157.2540 C   0  0  0  0  0  2  0  0  0  0  0  0
  161.5990  211.1200  156.7440 C   0  0  0  0  0  0  0  0  0  0  0  0
  162.9770  211.3550  157.2600 C   0  0  0  0  0  1  0  0  0  0  0  0
  161.1200  211.8840  155.9220 O   0  0  0  0  0  0  0  0  0  0  0  0
  1 20  1  0  0  0  0
  2 12  1  0  0  0  0
  2 24  1  1  0  0  0
  3 11  1  0  0  0  0
  4  3  2  0  0  0  0
  5 27  1  0  0  0  0
  5 25  2  0  0  0  0
  6 18  1  6  0  0  0
  6  5  1  0  0  0  0
  7 24  1  6  0  0  0
  7 19  1  0  0  0  0
  8 17  1  0  0  0  0
  9 26  1  1  0  0  0
  9 15  1  0  0  0  0
  9 28  1  0  0  0  0
 10 20  1  0  0  0  0
 12 13  1  6  0  0  0
 12  8  1  0  0  0  0
 13 11  2  0  0  0  0
 14 23  1  6  0  0  0
 14 22  1  0  0  0  0
 14 27  1  0  0  0  0
 15 18  1  0  0  0  0
 16 19  1  0  0  0  0
 16  1  1  0  0  0  0
 17  7  1  0  0  0  0
 17 10  1  1  0  0  0
 20 29  1  1  0  0  0
 21  4  1  0  0  0  0
 21 22  2  0  0  0  0
 22 13  1  0  0  0  0
 27  2  1  0  0  0  0
 28 23  1  6  0  0  0
 28  6  1  0  0  0  0
 30 29  1  0  0  0  0
 30 31  1  0  0  0  0
 32 30  2  0  0  0  0
M  END
>  <MODEL>
4

>  <REMARK>
 VINA RESULT:      -4.5      1.255      1.470
  Name = 
  2 active torsions:
  status: ('A' for Active; 'I' for Inactive)
    1  A    between atoms: C_20  and  C_29
    2  A    between atoms: C_29  and  C_30
                            x       y       z     vdW  Elec       q    Type
                         _______ _______ _______ _____ _____    ______ ____

>  <TORSDO>
F 2

$$$$
=
 OpenBabel11122413043D

 32 37  0  0  1  0  0  0  0  0999 V2000
  162.4850  202.0790  150.2580 C   0  0  0  0  0  2  0  0  0  0  0  0
  161.2540  205.8930  152.2790 C   0  0  2  0  0  3  0  0  0  0  0  0
  161.7080  208.3500  148.0120 C   0  0  0  0  0  3  0  0  0  0  0  0
  162.2770  209.4230  148.6980 C   0  0  0  0  0  3  0  0  0  0  0  0
  160.7520  207.3660  154.3390 C   0  0  0  0  0  0  0  0  0  0  0  0
  160.4560  208.7580  154.7590 C   0  0  1  0  0  3  0  0  0  0  0  0
  160.3790  203.5220  152.1190 C   0  0  1  0  0  3  0  0  0  0  0  0
  160.9640  204.8470  150.1370 O   0  0  0  0  0  0  0  0  0  0  0  0
  161.3800  210.7750  155.2100 C   0  0  2  0  0  3  0  0  0  0  0  0
  160.0490  202.6630  149.6780 C   0  0  0  0  0  2  0  0  0  0  0  0
  161.2120  207.2560  148.7210 C   0  0  0  0  0  3  0  0  0  0  0  0
  160.7060  206.0330  150.8490 C   0  0  2  0  0  3  0  0  0  0  0  0
  161.2830  207.2170  150.1220 C   0  0  0  0  0  0  0  0  0  0  0  0
  161.9250  208.3300  152.3250 C   0  0  1  0  0  3  0  0  0  0  0  0
  160.7320  210.2670  156.3970 N   0  0  0  0  0  2  0  0  0  0  0  0
  162.5450  202.9460  151.5210 C   0  0  0  0  0  2  0  0  0  0  0  0
  160.0790  203.8680  150.6290 C   0  0  1  0  0  3  0  0  0  0  0  0
  160.2380  209.1020  156.1830 C   0  0  0  0  0  2  0  0  0  0  0  0
  161.4720  202.6540  152.3830 O   0  0  0  0  0  0  0  0  0  0  0  0
  161.0710  201.5570  149.9680 C   0  0  1  0  0  3  0  0  0  0  0  0
  162.3310  209.4090  150.0930 C   0  0  0  0  0  3  0  0  0  0  0  0
  161.8100  208.3260  150.8210 C   0  0  0  0  0  0  0  0  0  0  0  0
  161.5430  209.7090  152.9250 C   0  0  0  0  0  2  0  0  0  0  0  0
  160.4440  204.7900  152.9730 C   0  0  0  0  0  2  0  0  0  0  0  0
  160.6250  206.4010  155.1390 O   0  0  0  0  0  0  0  0  0  0  0  0
  160.4880  211.8290  154.5510 C   0  0  0  0  0  1  0  0  0  0  0  0
  161.2060  207.1950  152.9700 N   0  0  0  0  0  0  0  0  0  0  0  0
  161.5770  209.5840  154.3760 N   0  0  2  0  0  0  0  0  0  0  0  0
  161.0940  200.5790  148.8040 C   0  0  0  0  0  2  0  0  0  0  0  0
  161.0600  201.2970  147.4930 C   0  0  0  0  0  0  0  0  0  0  0  0
  160.8310  200.5320  146.2360 C   0  0  0  0  0  1  0  0  0  0  0  0
  161.2370  202.5030  147.4470 O   0  0  0  0  0  0  0  0  0  0  0  0
  1 16  1  0  0  0  0
  2 27  1  0  0  0  0
  2 24  1  1  0  0  0
  3  4  2  0  0  0  0
  3 11  1  0  0  0  0
  4 21  1  0  0  0  0
  5  6  1  0  0  0  0
  5 25  2  0  0  0  0
  6 18  1  1  0  0  0
  7 19  1  0  0  0  0
  7 24  1  1  0  0  0
  8 17  1  0  0  0  0
  8 12  1  0  0  0  0
  9 26  1  6  0  0  0
  9 15  1  0  0  0  0
 10 20  1  0  0  0  0
 11 13  2  0  0  0  0
 12 13  1  6  0  0  0
 12  2  1  0  0  0  0
 13 22  1  0  0  0  0
 14 23  1  1  0  0  0
 14 27  1  0  0  0  0
 16 19  1  0  0  0  0
 17 10  1  6  0  0  0
 17  7  1  0  0  0  0
 18 15  1  0  0  0  0
 20 29  1  6  0  0  0
 20  1  1  0  0  0  0
 21 22  2  0  0  0  0
 22 14  1  0  0  0  0
 27  5  1  0  0  0  0
 28 23  1  6  0  0  0
 28  6  1  0  0  0  0
 28  9  1  0  0  0  0
 30 29  1  0  0  0  0
 31 30  1  0  0  0  0
 32 30  2  0  0  0  0
M  END
>  <MODEL>
5

>  <REMARK>
 VINA RESULT:      -4.4      2.331      7.868
  Name = 
  2 active torsions:
  status: ('A' for Active; 'I' for Inactive)
    1  A    between atoms: C_20  and  C_29
    2  A    between atoms: C_29  and  C_30
                            x       y       z     vdW  Elec       q    Type
                         _______ _______ _______ _____ _____    ______ ____

>  <TORSDO>
F 2

$$$$
=
 OpenBabel11122413043D

 32 37  0  0  1  0  0  0  0  0999 V2000
  162.6350  204.7600  146.8330 C   0  0  0  0  0  2  0  0  0  0  0  0
  161.5290  207.1620  150.4600 C   0  0  2  0  0  3  0  0  0  0  0  0
  162.0240  211.3550  147.8860 C   0  0  0  0  0  3  0  0  0  0  0  0
  162.6280  211.9540  148.9910 C   0  0  0  0  0  3  0  0  0  0  0  0
  161.0840  207.4760  152.9830 C   0  0  0  0  0  0  0  0  0  0  0  0
  160.8310  208.5020  154.0240 C   0  0  1  0  0  3  0  0  0  0  0  0
  160.5850  205.1790  149.2000 C   0  0  1  0  0  3  0  0  0  0  0  0
  161.1950  207.2790  148.0850 O   0  0  0  0  0  0  0  0  0  0  0  0
  161.8160  210.0340  155.3700 C   0  0  2  0  0  3  0  0  0  0  0  0
  160.2140  205.6030  146.6530 C   0  0  0  0  0  2  0  0  0  0  0  0
  161.5010  210.0660  147.9930 C   0  0  0  0  0  3  0  0  0  0  0  0
  160.9750  207.9830  149.2830 C   0  0  2  0  0  3  0  0  0  0  0  0
  161.5810  209.3580  149.2020 C   0  0  0  0  0  0  0  0  0  0  0  0
  162.2700  209.2620  151.6550 C   0  0  1  0  0  3  0  0  0  0  0  0
  161.1620  209.0330  156.1800 N   0  0  0  0  0  2  0  0  0  0  0  0
  162.7290  204.9130  148.3550 C   0  0  0  0  0  2  0  0  0  0  0  0
  160.2840  206.2040  148.0640 C   0  0  1  0  0  3  0  0  0  0  0  0
  160.6330  208.1250  155.4430 C   0  0  0  0  0  2  0  0  0  0  0  0
  161.6550  204.2660  148.9930 O   0  0  0  0  0  0  0  0  0  0  0  0
  161.2060  204.4720  146.3560 C   0  0  1  0  0  3  0  0  0  0  0  0
  162.6910  211.2710  150.2060 C   0  0  0  0  0  3  0  0  0  0  0  0
  162.1450  209.9840  150.3360 C   0  0  0  0  0  0  0  0  0  0  0  0
  161.9320  210.1920  152.8500 C   0  0  0  0  0  2  0  0  0  0  0  0
  160.6920  205.8800  150.5550 C   0  0  0  0  0  2  0  0  0  0  0  0
  160.9350  206.2490  153.2240 O   0  0  0  0  0  0  0  0  0  0  0  0
  160.9490  211.2940  155.3150 C   0  0  0  0  0  1  0  0  0  0  0  0
  161.5230  207.9740  151.6910 N   0  0  0  0  0  0  0  0  0  0  0  0
  161.9730  209.3850  154.0630 N   0  0  2  0  0  0  0  0  0  0  0  0
  161.1920  204.1720  144.8660 C   0  0  0  0  0  2  0  0  0  0  0  0
  160.0880  203.2280  144.5140 C   0  0  0  0  0  0  0  0  0  0  0  0
  160.0920  201.8450  145.0670 C   0  0  0  0  0  1  0  0  0  0  0  0
  159.1940  203.5780  143.7610 O   0  0  0  0  0  0  0  0  0  0  0  0
  1 16  1  0  0  0  0
  2 24  1  1  0  0  0
  2 27  1  0  0  0  0
  3 11  2  0  0  0  0
  3  4  1  0  0  0  0
  4 21  2  0  0  0  0
  5 25  2  0  0  0  0
  5  6  1  0  0  0  0
  6 28  1  0  0  0  0
  6 18  1  1  0  0  0
  7 24  1  1  0  0  0
  9 26  1  6  0  0  0
  9 15  1  0  0  0  0
 11 13  1  0  0  0  0
 12  8  1  6  0  0  0
 12  2  1  0  0  0  0
 13 12  1  0  0  0  0
 13 22  2  0  0  0  0
 14 27  1  0  0  0  0
 14 23  1  1  0  0  0
 16 19  1  0  0  0  0
 17 10  1  6  0  0  0
 17  8  1  0  0  0  0
 17  7  1  0  0  0  0
 18 15  1  0  0  0  0
 19  7  1  0  0  0  0
 20 29  1  6  0  0  0
 20 10  1  0  0  0  0
 20  1  1  0  0  0  0
 21 22  1  0  0  0  0
 22 14  1  0  0  0  0
 27  5  1  0  0  0  0
 28 23  1  6  0  0  0
 28  9  1  0  0  0  0
 30 29  1  0  0  0  0
 30 31  1  0  0  0  0
 32 30  2  0  0  0  0
M  END
>  <MODEL>
6

>  <REMARK>
 VINA RESULT:      -4.3      2.896      8.179
  Name = 
  2 active torsions:
  status: ('A' for Active; 'I' for Inactive)
    1  A    between atoms: C_20  and  C_29
    2  A    between atoms: C_29  and  C_30
                            x       y       z     vdW  Elec       q    Type
                         _______ _______ _______ _____ _____    ______ ____

>  <TORSDO>
F 2

$$$$
