=
 OpenBabel11122412573D

 32 37  0  0  1  0  0  0  0  0999 V2000
  160.0770  208.4580  156.9330 C   0  0  0  0  0  2  0  0  0  0  0  0
  161.5320  206.0860  151.9830 C   0  0  0  0  0  0  0  0  0  0  0  0
  161.9830  209.4760  148.4940 C   0  0  0  0  0  3  0  0  0  0  0  0
  161.8270  208.4330  147.5180 N   0  0  0  0  0  0  0  0  0  0  0  0
  161.3020  203.6360  151.5550 C   0  0  0  0  0  0  0  0  0  0  0  0
  160.9090  202.7270  150.4340 C   0  0  0  0  0  0  0  0  0  0  0  0
  160.9240  206.9230  154.2520 C   0  0  0  0  0  0  0  0  0  0  0  0
  161.8790  208.5400  152.6200 C   0  0  0  0  0  2  0  0  0  0  0  0
  160.5320  202.0610  148.3830 N   0  0  0  0  0  0  0  0  0  0  0  0
  160.5650  209.3810  154.6330 C   0  0  0  0  0  2  0  0  0  0  0  0
  161.9490  209.2090  149.8000 C   0  0  0  0  0  3  0  0  0  0  0  0
  161.7020  207.4960  151.5500 C   0  0  0  0  0  0  0  0  0  0  0  0
  161.7490  207.8170  150.2450 C   0  0  0  0  0  0  0  0  0  0  0  0
  161.3810  205.4300  149.6260 C   0  0  2  0  0  3  0  0  0  0  0  0
  160.3850  201.0330  149.2470 C   0  0  0  0  0  3  0  0  0  0  0  0
  159.3330  207.3830  156.1430 C   0  0  0  0  0  2  0  0  0  0  0  0
  161.0780  208.2120  153.8510 C   0  0  0  0  0  0  0  0  0  0  0  0
  160.6170  201.4130  150.5300 N   0  0  0  0  0  0  0  0  0  0  0  0
  160.2330  206.5480  155.4170 O   0  0  0  0  0  0  0  0  0  0  0  0
  161.0350  209.2920  156.0820 C   0  0  1  0  0  3  0  0  0  0  0  0
  161.6460  207.1890  147.8530 C   0  0  0  0  0  3  0  0  0  0  0  0
  161.5950  206.7990  149.2370 N   0  0  0  0  0  0  0  0  0  0  0  0
  161.1220  204.4900  148.7010 C   0  0  0  0  0  3  0  0  0  0  0  0
  161.5610  205.8110  153.4630 C   0  0  0  0  0  2  0  0  0  0  0  0
  162.5320  203.2210  152.0690 O   0  0  0  0  0  1  0  0  0  0  0  0
  160.3570  202.0140  146.9420 C   0  0  0  0  0  1  0  0  0  0  0  0
  161.4030  205.0850  151.0870 C   0  0  0  0  0  0  0  0  0  0  0  0
  160.8640  203.1170  149.1330 C   0  0  0  0  0  0  0  0  0  0  0  0
  161.1500  210.6250  156.6550 N   0  0  0  0  0  2  0  0  0  0  0  0
  160.0840  211.5750  156.6100 C   0  0  0  0  0  0  0  0  0  0  0  0
  158.9950  211.2950  156.0400 O   0  0  0  0  0  0  0  0  0  0  0  0
  160.2640  212.9120  157.2360 C   0  0  0  0  0  1  0  0  0  0  0  0
  2 24  1  0  0  0  0
  3 11  2  0  0  0  0
  4 21  2  0  0  0  0
  4  3  1  0  0  0  0
  5 25  1  0  0  0  0
  6 18  1  0  0  0  0
  6  5  2  0  0  0  0
  7 19  1  0  0  0  0
  8 17  1  0  0  0  0
  9 28  1  0  0  0  0
  9 15  1  0  0  0  0
 10 20  1  0  0  0  0
 11 13  1  0  0  0  0
 12  2  1  0  0  0  0
 12  8  1  0  0  0  0
 13 12  2  0  0  0  0
 14 23  1  1  0  0  0
 14 27  1  0  0  0  0
 15 18  2  0  0  0  0
 16  1  1  0  0  0  0
 17  7  2  0  0  0  0
 17 10  1  0  0  0  0
 19 16  1  0  0  0  0
 20 29  1  1  0  0  0
 20  1  1  0  0  0  0
 21 22  1  0  0  0  0
 22 14  1  0  0  0  0
 22 13  1  0  0  0  0
 23 28  2  0  0  0  0
 24  7  1  0  0  0  0
 26  9  1  0  0  0  0
 27  5  1  0  0  0  0
 27  2  2  0  0  0  0
 28  6  1  0  0  0  0
 30 29  1  0  0  0  0
 30 32  1  0  0  0  0
 31 30  2  0  0  0  0
M  END
>  <MODEL>
1

>  <REMARK>
 VINA RESULT:      -8.9      0.000      0.000
  Name = 
  1 active torsions:
  status: ('A' for Active; 'I' for Inactive)
    1  A    between atoms: C_20  and  N_29
                            x       y       z     vdW  Elec       q    Type
                         _______ _______ _______ _____ _____    ______ ____

>  <TORSDO>
F 1

$$$$
=
 OpenBabel11122412573D

 32 37  0  0  1  0  0  0  0  0999 V2000
  161.1390  201.2000  150.1830 C   0  0  0  0  0  2  0  0  0  0  0  0
  160.8950  206.5150  152.1680 C   0  0  0  0  0  0  0  0  0  0  0  0
  161.9550  209.7370  148.6510 C   0  0  0  0  0  3  0  0  0  0  0  0
  162.2480  210.6990  149.6780 N   0  0  0  0  0  0  0  0  0  0  0  0
  160.9060  207.0310  154.6110 C   0  0  0  0  0  0  0  0  0  0  0  0
  161.4830  208.0540  155.5370 C   0  0  0  0  0  0  0  0  0  0  0  0
  160.9170  204.1140  151.4960 C   0  0  0  0  0  0  0  0  0  0  0  0
  160.7130  205.8320  149.7080 C   0  0  0  0  0  2  0  0  0  0  0  0
  162.3520  209.9540  156.1940 N   0  0  0  0  0  0  0  0  0  0  0  0
  161.4790  203.4720  149.1320 C   0  0  0  0  0  2  0  0  0  0  0  0
  161.5660  208.4980  148.9570 C   0  0  0  0  0  3  0  0  0  0  0  0
  161.0530  206.8780  150.7360 C   0  0  0  0  0  0  0  0  0  0  0  0
  161.4360  208.1150  150.3760 C   0  0  0  0  0  0  0  0  0  0  0  0
  161.6420  208.7700  152.7720 C   0  0  2  0  0  3  0  0  0  0  0  0
  162.0970  209.1590  157.2560 C   0  0  0  0  0  3  0  0  0  0  0  0
  161.9290  201.8190  151.3350 C   0  0  0  0  0  2  0  0  0  0  0  0
  161.0650  204.4490  150.1880 C   0  0  0  0  0  0  0  0  0  0  0  0
  161.5530  207.9730  156.8820 N   0  0  0  0  0  0  0  0  0  0  0  0
  161.1780  202.8290  152.0040 O   0  0  0  0  0  0  0  0  0  0  0  0
  160.5960  202.2280  149.1900 C   0  0  1  0  0  3  0  0  0  0  0  0
  162.1510  210.4150  150.9440 C   0  0  0  0  0  3  0  0  0  0  0  0
  161.7400  209.1060  151.3760 N   0  0  0  0  0  0  0  0  0  0  0  0
  162.0310  209.6460  153.7140 C   0  0  0  0  0  3  0  0  0  0  0  0
  160.3950  205.1280  152.4770 C   0  0  0  0  0  2  0  0  0  0  0  0
  159.5340  206.9220  154.8500 O   0  0  0  0  0  1  0  0  0  0  0  0
  162.9350  211.2830  156.2270 C   0  0  0  0  0  1  0  0  0  0  0  0
  161.1450  207.4050  153.1510 C   0  0  0  0  0  0  0  0  0  0  0  0
  161.9610  209.2570  155.1220 C   0  0  0  0  0  0  0  0  0  0  0  0
  160.5010  201.6190  147.8720 N   0  0  0  0  0  2  0  0  0  0  0  0
  160.8170  202.3280  146.6730 C   0  0  0  0  0  0  0  0  0  0  0  0
  161.1740  203.5360  146.7140 O   0  0  0  0  0  0  0  0  0  0  0  0
  160.7180  201.6350  145.3610 C   0  0  0  0  0  1  0  0  0  0  0  0
  1 16  1  0  0  0  0
  2 24  1  0  0  0  0
  2 27  2  0  0  0  0
  3 11  2  0  0  0  0
  3  4  1  0  0  0  0
  4 21  2  0  0  0  0
  5 25  1  0  0  0  0
  5  6  2  0  0  0  0
  6 18  1  0  0  0  0
  7 19  1  0  0  0  0
  7 24  1  0  0  0  0
  8 17  1  0  0  0  0
  8 12  1  0  0  0  0
  9 26  1  0  0  0  0
  9 15  1  0  0  0  0
 10 20  1  0  0  0  0
 10 17  1  0  0  0  0
 11 13  1  0  0  0  0
 12  2  1  0  0  0  0
 13 12  2  0  0  0  0
 13 22  1  0  0  0  0
 14 27  1  0  0  0  0
 14 23  1  6  0  0  0
 16 19  1  0  0  0  0
 17  7  2  0  0  0  0
 18 15  2  0  0  0  0
 20 29  1  6  0  0  0
 20  1  1  0  0  0  0
 21 22  1  0  0  0  0
 22 14  1  0  0  0  0
 23 28  2  0  0  0  0
 27  5  1  0  0  0  0
 28  6  1  0  0  0  0
 28  9  1  0  0  0  0
 30 31  2  0  0  0  0
 30 29  1  0  0  0  0
 32 30  1  0  0  0  0
M  END
>  <MODEL>
2

>  <REMARK>
 VINA RESULT:      -8.6      1.804      7.921
  Name = 
  1 active torsions:
  status: ('A' for Active; 'I' for Inactive)
    1  A    between atoms: C_20  and  N_29
                            x       y       z     vdW  Elec       q    Type
                         _______ _______ _______ _____ _____    ______ ____

>  <TORSDO>
F 1

$$$$
=
 OpenBabel11122412573D

 32 37  0  0  1  0  0  0  0  0999 V2000
  161.3130  204.6580  146.3560 C   0  0  0  0  0  2  0  0  0  0  0  0
  161.5080  208.7990  150.2370 C   0  0  0  0  0  0  0  0  0  0  0  0
  160.7680  207.0150  154.7250 C   0  0  0  0  0  3  0  0  0  0  0  0
  160.4180  208.3420  155.1500 N   0  0  0  0  0  0  0  0  0  0  0  0
  161.3280  211.2140  149.6260 C   0  0  1  0  0  3  0  0  0  0  0  0
  160.7030  212.4610  150.1640 C   0  0  0  0  0  0  0  0  0  0  0  0
  161.4920  207.1340  148.3800 C   0  0  0  0  0  0  0  0  0  0  0  0
  161.8570  206.3060  150.6970 C   0  0  0  0  0  2  0  0  0  0  0  0
  159.8240  213.8390  151.6210 N   0  0  0  0  0  0  0  0  0  0  0  0
  161.0930  204.7020  148.8720 C   0  0  0  0  0  2  0  0  0  0  0  0
  161.1100  206.7640  153.4600 C   0  0  0  0  0  3  0  0  0  0  0  0
  161.4620  207.6690  151.2000 C   0  0  0  0  0  0  0  0  0  0  0  0
  161.1290  207.8710  152.4870 C   0  0  0  0  0  0  0  0  0  0  0  0
  160.7610  210.2940  152.0300 C   0  0  0  0  0  0  0  0  0  0  0  0
  159.9850  214.4530  150.4280 C   0  0  0  0  0  3  0  0  0  0  0  0
  160.4530  205.9170  146.4420 C   0  0  0  0  0  2  0  0  0  0  0  0
  161.4460  206.1030  149.2640 C   0  0  0  0  0  0  0  0  0  0  0  0
  160.5340  213.6250  149.5030 N   0  0  0  0  0  0  0  0  0  0  0  0
  161.1710  207.0060  147.0170 O   0  0  0  0  0  0  0  0  0  0  0  0
  161.9460  204.2550  147.6880 C   0  0  1  0  0  3  0  0  0  0  0  0
  160.4170  209.3560  154.3340 C   0  0  0  0  0  3  0  0  0  0  0  0
  160.7720  209.1870  152.9500 N   0  0  0  0  0  0  0  0  0  0  0  0
  160.3200  211.5020  152.4200 C   0  0  0  0  0  3  0  0  0  0  0  0
  161.9590  208.4910  148.8330 C   0  0  0  0  0  2  0  0  0  0  0  0
  162.6760  211.4590  149.3560 O   0  0  0  0  0  1  0  0  0  0  0  0
  159.2640  214.4230  152.8270 C   0  0  0  0  0  1  0  0  0  0  0  0
  161.2040  210.0580  150.6150 C   0  0  0  0  0  0  0  0  0  0  0  0
  160.2790  212.5940  151.4490 C   0  0  0  0  0  0  0  0  0  0  0  0
  162.1260  202.8120  147.7170 N   0  0  0  0  0  2  0  0  0  0  0  0
  161.1470  201.9250  148.2610 C   0  0  0  0  0  0  0  0  0  0  0  0
  160.0830  202.3730  148.7660 O   0  0  0  0  0  0  0  0  0  0  0  0
  161.3890  200.4590  148.2370 C   0  0  0  0  0  1  0  0  0  0  0  0
  1 16  1  0  0  0  0
  1 20  1  0  0  0  0
  2 27  2  0  0  0  0
  2 12  1  0  0  0  0
  3  4  1  0  0  0  0
  5 25  1  1  0  0  0
  5  6  1  0  0  0  0
  5 27  1  0  0  0  0
  6 28  2  0  0  0  0
  7 24  1  0  0  0  0
  7 17  2  0  0  0  0
  8 12  1  0  0  0  0
  9 26  1  0  0  0  0
 10 17  1  0  0  0  0
 11  3  2  0  0  0  0
 12 13  2  0  0  0  0
 13 22  1  0  0  0  0
 13 11  1  0  0  0  0
 14 23  2  0  0  0  0
 14 22  1  0  0  0  0
 15  9  1  0  0  0  0
 16 19  1  0  0  0  0
 17  8  1  0  0  0  0
 18  6  1  0  0  0  0
 18 15  2  0  0  0  0
 19  7  1  0  0  0  0
 20 29  1  6  0  0  0
 20 10  1  0  0  0  0
 21  4  2  0  0  0  0
 22 21  1  0  0  0  0
 24  2  1  0  0  0  0
 27 14  1  0  0  0  0
 28  9  1  0  0  0  0
 28 23  1  0  0  0  0
 29 30  1  0  0  0  0
 30 31  2  0  0  0  0
 32 30  1  0  0  0  0
M  END
>  <MODEL>
3

>  <REMARK>
 VINA RESULT:      -7.6      3.274      8.929
  Name = 
  1 active torsions:
  status: ('A' for Active; 'I' for Inactive)
    1  A    between atoms: C_20  and  N_29
                            x       y       z     vdW  Elec       q    Type
                         _______ _______ _______ _____ _____    ______ ____

>  <TORSDO>
F 1

$$$$
=
 OpenBabel11122412573D

 32 37  0  0  1  0  0  0  0  0999 V2000
  160.9110  214.1530  147.1380 C   0  0  0  0  0  2  0  0  0  0  0  0
  161.7440  209.9420  150.8570 C   0  0  0  0  0  0  0  0  0  0  0  0
  161.0390  205.5920  148.7470 C   0  0  0  0  0  3  0  0  0  0  0  0
  160.8570  205.0320  150.0580 N   0  0  0  0  0  0  0  0  0  0  0  0
  161.7960  210.3270  153.3240 C   0  0  0  0  0  0  0  0  0  0  0  0
  161.3370  209.6460  154.5730 C   0  0  0  0  0  0  0  0  0  0  0  0
  161.4560  211.9330  149.3830 C   0  0  0  0  0  0  0  0  0  0  0  0
  161.8440  209.7230  148.3090 C   0  0  0  0  0  2  0  0  0  0  0  0
  160.6850  208.0240  155.8920 N   0  0  0  0  0  0  0  0  0  0  0  0
  160.8220  211.6340  146.9700 C   0  0  0  0  0  2  0  0  0  0  0  0
  161.2890  206.8910  148.5810 C   0  0  0  0  0  3  0  0  0  0  0  0
  161.6240  209.0810  149.6520 C   0  0  0  0  0  0  0  0  0  0  0  0
  161.3790  207.7640  149.7670 C   0  0  0  0  0  0  0  0  0  0  0  0
  161.2520  207.9840  152.2460 C   0  0  2  0  0  3  0  0  0  0  0  0
  160.8530  209.1660  156.5950 C   0  0  0  0  0  3  0  0  0  0  0  0
  160.1970  213.9060  148.4660 C   0  0  0  0  0  2  0  0  0  0  0  0
  161.3430  211.1420  148.2840 C   0  0  0  0  0  0  0  0  0  0  0  0
  161.2620  210.1920  155.8050 N   0  0  0  0  0  0  0  0  0  0  0  0
  161.0560  213.2810  149.4170 O   0  0  0  0  0  0  0  0  0  0  0  0
  161.5620  212.9010  146.5500 C   0  0  1  0  0  3  0  0  0  0  0  0
  160.9240  205.7540  151.1380 C   0  0  0  0  0  3  0  0  0  0  0  0
  161.1890  207.1670  151.0630 N   0  0  0  0  0  0  0  0  0  0  0  0
  160.9650  207.4640  153.4520 C   0  0  0  0  0  3  0  0  0  0  0  0
  162.0890  211.3910  150.6370 C   0  0  0  0  0  2  0  0  0  0  0  0
  163.1480  210.6540  153.4520 O   0  0  0  0  0  1  0  0  0  0  0  0
  160.2520  206.7410  156.4150 C   0  0  0  0  0  1  0  0  0  0  0  0
  161.5970  209.4380  152.0990 C   0  0  0  0  0  0  0  0  0  0  0  0
  160.9940  208.3320  154.6280 C   0  0  0  0  0  0  0  0  0  0  0  0
  161.5870  213.0090  145.0990 N   0  0  0  0  0  2  0  0  0  0  0  0
  162.8040  213.1040  144.3560 C   0  0  0  0  0  0  0  0  0  0  0  0
  163.9170  213.1210  144.9440 O   0  0  0  0  0  0  0  0  0  0  0  0
  162.7540  213.1890  142.8730 C   0  0  0  0  0  1  0  0  0  0  0  0
  1 16  1  0  0  0  0
  2 27  2  0  0  0  0
  3  4  1  0  0  0  0
  4 21  2  0  0  0  0
  5 25  1  0  0  0  0
  5  6  2  0  0  0  0
  6 28  1  0  0  0  0
  6 18  1  0  0  0  0
  7 19  1  0  0  0  0
  7 24  1  0  0  0  0
  8 12  1  0  0  0  0
  9 26  1  0  0  0  0
  9 15  1  0  0  0  0
 10 17  1  0  0  0  0
 11  3  2  0  0  0  0
 11 13  1  0  0  0  0
 12 13  2  0  0  0  0
 12  2  1  0  0  0  0
 13 22  1  0  0  0  0
 14 23  1  6  0  0  0
 16 19  1  0  0  0  0
 17  8  1  0  0  0  0
 17  7  2  0  0  0  0
 18 15  2  0  0  0  0
 20 29  1  6  0  0  0
 20 10  1  0  0  0  0
 20  1  1  0  0  0  0
 22 21  1  0  0  0  0
 22 14  1  0  0  0  0
 23 28  2  0  0  0  0
 24  2  1  0  0  0  0
 27 14  1  0  0  0  0
 27  5  1  0  0  0  0
 28  9  1  0  0  0  0
 30 31  2  0  0  0  0
 30 29  1  0  0  0  0
 32 30  1  0  0  0  0
M  END
>  <MODEL>
4

>  <REMARK>
 VINA RESULT:      -6.7      3.745      8.095
  Name = 
  1 active torsions:
  status: ('A' for Active; 'I' for Inactive)
    1  A    between atoms: C_20  and  N_29
                            x       y       z     vdW  Elec       q    Type
                         _______ _______ _______ _____ _____    ______ ____

>  <TORSDO>
F 1

$$$$
=
 OpenBabel11122412573D

 32 37  0  0  1  0  0  0  0  0999 V2000
  161.0740  204.2030  145.7170 C   0  0  0  0  0  2  0  0  0  0  0  0
  161.7020  208.5130  149.3610 C   0  0  0  0  0  0  0  0  0  0  0  0
  160.8820  207.0460  153.9490 C   0  0  0  0  0  3  0  0  0  0  0  0
  160.6600  208.4200  154.3040 N   0  0  0  0  0  0  0  0  0  0  0  0
  161.7270  210.8970  148.6200 C   0  0  1  0  0  3  0  0  0  0  0  0
  161.2240  212.2230  149.0960 C   0  0  0  0  0  0  0  0  0  0  0  0
  161.5060  206.7590  147.5990 C   0  0  0  0  0  0  0  0  0  0  0  0
  161.8360  206.0270  149.9530 C   0  0  0  0  0  2  0  0  0  0  0  0
  160.4960  213.7510  150.4850 N   0  0  0  0  0  0  0  0  0  0  0  0
  160.9010  204.4020  148.2290 C   0  0  0  0  0  2  0  0  0  0  0  0
  161.1790  206.6980  152.6960 C   0  0  0  0  0  3  0  0  0  0  0  0
  161.5720  207.4450  150.3850 C   0  0  0  0  0  0  0  0  0  0  0  0
  161.2800  207.7450  151.6630 C   0  0  0  0  0  0  0  0  0  0  0  0
  161.1210  210.1630  151.0780 C   0  0  0  0  0  0  0  0  0  0  0  0
  160.6910  214.2830  149.2590 C   0  0  0  0  0  3  0  0  0  0  0  0
  160.3300  205.5370  145.7440 C   0  0  0  0  0  2  0  0  0  0  0  0
  161.3840  205.7850  148.5380 C   0  0  0  0  0  0  0  0  0  0  0  0
  161.1480  213.3600  148.3730 N   0  0  0  0  0  0  0  0  0  0  0  0
  161.1520  206.5870  146.2490 O   0  0  0  0  0  0  0  0  0  0  0  0
  161.6910  203.8170  147.0610 C   0  0  1  0  0  3  0  0  0  0  0  0
  160.7340  209.3850  153.4340 C   0  0  0  0  0  3  0  0  0  0  0  0
  161.0490  209.1100  152.0570 N   0  0  0  0  0  0  0  0  0  0  0  0
  160.7960  211.4250  151.4060 C   0  0  0  0  0  3  0  0  0  0  0  0
  162.0990  208.0910  147.9710 C   0  0  0  0  0  2  0  0  0  0  0  0
  163.0870  211.0060  148.3210 O   0  0  0  0  0  1  0  0  0  0  0  0
  160.0110  214.4460  151.6640 C   0  0  0  0  0  1  0  0  0  0  0  0
  161.5170  209.8120  149.6720 C   0  0  0  0  0  0  0  0  0  0  0  0
  160.8360  212.4620  150.3760 C   0  0  0  0  0  0  0  0  0  0  0  0
  161.7430  202.3670  147.1670 N   0  0  0  0  0  2  0  0  0  0  0  0
  161.0490  201.5040  146.2640 C   0  0  0  0  0  0  0  0  0  0  0  0
  160.3350  201.9790  145.3420 O   0  0  0  0  0  0  0  0  0  0  0  0
  161.1660  200.0310  146.4200 C   0  0  0  0  0  1  0  0  0  0  0  0
  1 16  1  0  0  0  0
  1 20  1  0  0  0  0
  2 27  2  0  0  0  0
  2 12  1  0  0  0  0
  3  4  1  0  0  0  0
  5 25  1  1  0  0  0
  5  6  1  0  0  0  0
  5 27  1  0  0  0  0
  6 28  2  0  0  0  0
  7 24  1  0  0  0  0
  7 17  2  0  0  0  0
  8 12  1  0  0  0  0
  9 26  1  0  0  0  0
 10 17  1  0  0  0  0
 11  3  2  0  0  0  0
 12 13  2  0  0  0  0
 13 22  1  0  0  0  0
 13 11  1  0  0  0  0
 14 23  2  0  0  0  0
 14 22  1  0  0  0  0
 15  9  1  0  0  0  0
 16 19  1  0  0  0  0
 17  8  1  0  0  0  0
 18  6  1  0  0  0  0
 18 15  2  0  0  0  0
 19  7  1  0  0  0  0
 20 29  1  1  0  0  0
 20 10  1  0  0  0  0
 21  4  2  0  0  0  0
 22 21  1  0  0  0  0
 24  2  1  0  0  0  0
 27 14  1  0  0  0  0
 28  9  1  0  0  0  0
 28 23  1  0  0  0  0
 30 32  1  0  0  0  0
 30 29  1  0  0  0  0
 31 30  2  0  0  0  0
M  END
>  <MODEL>
5

>  <REMARK>
 VINA RESULT:      -6.1      3.497      9.240
  Name = 
  1 active torsions:
  status: ('A' for Active; 'I' for Inactive)
    1  A    between atoms: C_20  and  N_29
                            x       y       z     vdW  Elec       q    Type
                         _______ _______ _______ _____ _____    ______ ____

>  <TORSDO>
F 1

$$$$
