=
 OpenBabel11122413053D

 32 36  0  0  1  0  0  0  0  0999 V2000
  160.6980  209.8730  152.5050 C   0  0  1  0  0  3  0  0  0  0  0  0
  160.4450  208.6790  157.2610 C   0  0  0  0  0  3  0  0  0  0  0  0
  160.4120  207.3290  156.9070 C   0  0  0  0  0  3  0  0  0  0  0  0
  161.2710  208.1240  150.7190 C   0  0  2  0  0  3  0  0  0  0  0  0
  162.0180  206.8050  150.4730 C   0  0  2  0  0  3  0  0  0  0  0  0
  159.9920  211.9200  151.8770 C   0  0  2  0  0  3  0  0  0  0  0  0
  160.6780  211.6370  154.2550 O   0  0  0  0  0  0  0  0  0  0  0  0
  160.9940  204.7670  151.0140 C   0  0  0  0  0  0  0  0  0  0  0  0
  160.6550  209.6530  156.2830 C   0  0  0  0  0  3  0  0  0  0  0  0
  161.1190  210.3290  153.9010 C   0  0  1  0  0  3  0  0  0  0  0  0
  160.8230  209.2840  154.9410 C   0  0  0  0  0  0  0  0  0  0  0  0
  160.9410  207.4850  153.1320 C   0  0  2  0  0  3  0  0  0  0  0  0
  160.8070  204.8430  149.5540 C   0  0  0  0  0  3  0  0  0  0  0  0
  159.6670  212.1340  153.3860 C   0  0  2  0  0  3  0  0  0  0  0  0
  161.5130  206.1490  149.1750 C   0  0  0  0  0  3  0  0  0  0  0  0
  160.5990  206.9490  155.5760 C   0  0  0  0  0  3  0  0  0  0  0  0
  160.8390  207.9140  154.5850 C   0  0  0  0  0  0  0  0  0  0  0  0
  161.7720  206.2210  152.9410 C   0  0  0  0  0  2  0  0  0  0  0  0
  160.9710  210.9290  151.6310 O   0  0  0  0  0  0  0  0  0  0  0  0
  161.7630  209.0880  149.8360 O   0  0  0  0  0  1  0  0  0  0  0  0
  160.5340  203.8410  151.7330 O   0  0  0  0  0  0  0  0  0  0  0  0
  161.4530  208.5870  152.1780 C   0  0  2  0  0  3  0  0  0  0  0  0
  161.7270  205.8550  151.5330 N   0  0  0  0  0  0  0  0  0  0  0  0
  158.0390  211.7720  155.2460 C   0  0  0  0  0  1  0  0  0  0  0  0
  158.2950  211.5660  153.7640 C   0  0  1  0  0  3  0  0  0  0  0  0
  157.2840  212.1920  153.0290 O   0  0  0  0  0  0  0  0  0  0  0  0
  156.9750  213.3480  153.7510 C   0  0  0  0  0  2  0  0  0  0  0  0
  155.8140  214.0410  153.1280 C   0  0  0  0  0  0  0  0  0  0  0  0
  155.8860  214.4470  151.9380 O   0  0  0  0  0  0  0  0  0  0  0  0
  154.6400  214.2120  153.8480 O   0  0  0  0  0  1  0  0  0  0  0  0
  159.4000  214.1690  151.3540 O   0  0  0  0  0  1  0  0  0  0  0  0
  160.4330  213.2360  151.2660 C   0  0  0  0  0  2  0  0  0  0  0  0
  1 19  1  6  0  0  0
  1 10  1  0  0  0  0
  3  2  1  0  0  0  0
  4 20  1  6  0  0  0
  4 22  1  0  0  0  0
  5 15  1  6  0  0  0
  5  4  1  0  0  0  0
  5 23  1  0  0  0  0
  6 32  1  1  0  0  0
  6 14  1  0  0  0  0
  8 23  1  0  0  0  0
  8 21  2  0  0  0  0
  9  2  2  0  0  0  0
 10  7  1  1  0  0  0
 10 11  1  0  0  0  0
 11  9  1  0  0  0  0
 12 18  1  1  0  0  0
 12 17  1  0  0  0  0
 13  8  1  0  0  0  0
 14 25  1  1  0  0  0
 14  7  1  0  0  0  0
 15 13  2  0  0  0  0
 16  3  2  0  0  0  0
 17 11  2  0  0  0  0
 17 16  1  0  0  0  0
 19  6  1  0  0  0  0
 22  1  1  0  0  0  0
 22 12  1  0  0  0  0
 23 18  1  0  0  0  0
 25 24  1  0  0  0  0
 26 27  1  0  0  0  0
 26 25  1  0  0  0  0
 28 27  1  0  0  0  0
 28 30  1  0  0  0  0
 29 28  2  0  0  0  0
 32 31  1  0  0  0  0
M  END
>  <MODEL>
1

>  <REMARK>
 VINA RESULT:      -7.4      0.000      0.000
  Name = 
  5 active torsions:
  status: ('A' for Active; 'I' for Inactive)
    1  A    between atoms: C_7  and  C_19
    2  A    between atoms: C_10  and  C_17
    3  A    between atoms: C_10  and  O_20
    4  A    between atoms: O_20  and  C_29
    5  A    between atoms: C_29  and  C_30
                            x       y       z     vdW  Elec       q    Type
                         _______ _______ _______ _____ _____    ______ ____

>  <TORSDO>
F 5

$$$$
=
 OpenBabel11122413053D

 32 36  0  0  1  0  0  0  0  0999 V2000
  160.8880  209.3340  152.1450 C   0  0  1  0  0  3  0  0  0  0  0  0
  162.2420  212.0150  148.2610 C   0  0  0  0  0  3  0  0  0  0  0  0
  161.2770  212.9650  148.5960 C   0  0  0  0  0  3  0  0  0  0  0  0
  159.4330  210.3270  154.0090 C   0  0  2  0  0  3  0  0  0  0  0  0
  159.0590  211.6330  154.7250 C   0  0  2  0  0  3  0  0  0  0  0  0
  161.3030  207.1180  152.1120 C   0  0  2  0  0  3  0  0  0  0  0  0
  162.7060  208.5570  150.6410 O   0  0  0  0  0  0  0  0  0  0  0  0
  157.4480  213.0550  153.7890 C   0  0  0  0  0  0  0  0  0  0  0  0
  162.4900  210.9390  149.1150 C   0  0  0  0  0  3  0  0  0  0  0  0
  162.0830  209.6800  151.2590 C   0  0  1  0  0  3  0  0  0  0  0  0
  161.7660  210.8000  150.3080 C   0  0  0  0  0  0  0  0  0  0  0  0
  159.9650  211.6260  151.9200 C   0  0  2  0  0  3  0  0  0  0  0  0
  156.6860  212.3530  154.8390 C   0  0  0  0  0  3  0  0  0  0  0  0
  161.9100  207.3790  150.7020 C   0  0  2  0  0  3  0  0  0  0  0  0
  157.7390  211.4520  155.4940 C   0  0  0  0  0  3  0  0  0  0  0  0
  160.5640  212.8480  149.7920 C   0  0  0  0  0  3  0  0  0  0  0  0
  160.8210  211.7880  150.6750 C   0  0  0  0  0  0  0  0  0  0  0  0
  159.7060  212.9450  152.6390 C   0  0  0  0  0  2  0  0  0  0  0  0
  161.2740  208.2580  152.9490 O   0  0  0  0  0  0  0  0  0  0  0  0
  159.9090  209.4170  154.9570 O   0  0  0  0  0  1  0  0  0  0  0  0
  156.9390  213.8840  152.9900 O   0  0  0  0  0  0  0  0  0  0  0  0
  160.5020  210.5860  152.9290 C   0  0  2  0  0  3  0  0  0  0  0  0
  158.8090  212.6850  153.7560 N   0  0  0  0  0  0  0  0  0  0  0  0
  161.4670  207.7230  148.2670 C   0  0  0  0  0  1  0  0  0  0  0  0
  160.8370  207.3900  149.6080 C   0  0  1  0  0  3  0  0  0  0  0  0
  160.2070  206.1440  149.5250 O   0  0  0  0  0  0  0  0  0  0  0  0
  160.8310  205.4940  148.4570 C   0  0  0  0  0  2  0  0  0  0  0  0
  161.2060  204.1090  148.8550 C   0  0  0  0  0  0  0  0  0  0  0  0
  161.1670  203.7680  150.0660 O   0  0  0  0  0  1  0  0  0  0  0  0
  161.5690  203.1830  147.8860 O   0  0  0  0  0  0  0  0  0  0  0  0
  161.2060  204.9680  153.1360 O   0  0  0  0  0  1  0  0  0  0  0  0
  162.0750  206.0040  152.7940 C   0  0  0  0  0  2  0  0  0  0  0  0
  1 22  1  0  0  0  0
  1 19  1  1  0  0  0
  2  3  2  0  0  0  0
  2  9  1  0  0  0  0
  3 16  1  0  0  0  0
  4  5  1  0  0  0  0
  4 20  1  1  0  0  0
  5 15  1  6  0  0  0
  6 32  1  1  0  0  0
  6 19  1  0  0  0  0
  7 14  1  0  0  0  0
  7 10  1  0  0  0  0
  8 13  1  0  0  0  0
  9 11  2  0  0  0  0
 10 11  1  6  0  0  0
 10  1  1  0  0  0  0
 11 17  1  0  0  0  0
 12 18  1  1  0  0  0
 12 22  1  0  0  0  0
 13 15  2  0  0  0  0
 14 25  1  6  0  0  0
 14  6  1  0  0  0  0
 16 17  2  0  0  0  0
 17 12  1  0  0  0  0
 18 23  1  0  0  0  0
 21  8  2  0  0  0  0
 22  4  1  0  0  0  0
 23  8  1  0  0  0  0
 23  5  1  0  0  0  0
 24 25  1  0  0  0  0
 26 25  1  0  0  0  0
 27 28  1  0  0  0  0
 27 26  1  0  0  0  0
 28 29  1  0  0  0  0
 30 28  2  0  0  0  0
 32 31  1  0  0  0  0
M  END
>  <MODEL>
2

>  <REMARK>
 VINA RESULT:      -6.8      2.405      7.959
  Name = 
  5 active torsions:
  status: ('A' for Active; 'I' for Inactive)
    1  A    between atoms: C_7  and  C_19
    2  A    between atoms: C_10  and  C_17
    3  A    between atoms: C_10  and  O_20
    4  A    between atoms: O_20  and  C_29
    5  A    between atoms: C_29  and  C_30
                            x       y       z     vdW  Elec       q    Type
                         _______ _______ _______ _____ _____    ______ ____

>  <TORSDO>
F 5

$$$$
=
 OpenBabel11122413053D

 32 36  0  0  1  0  0  0  0  0999 V2000
  161.1910  208.5520  152.1580 C   0  0  1  0  0  3  0  0  0  0  0  0
  162.0630  211.6740  148.4700 C   0  0  0  0  0  3  0  0  0  0  0  0
  161.1660  212.5780  149.0400 C   0  0  0  0  0  3  0  0  0  0  0  0
  160.0120  209.3180  154.3030 C   0  0  2  0  0  3  0  0  0  0  0  0
  159.7580  210.5310  155.2100 C   0  0  2  0  0  3  0  0  0  0  0  0
  161.5600  206.3550  151.8100 C   0  0  2  0  0  3  0  0  0  0  0  0
  162.7800  207.9570  150.3430 O   0  0  0  0  0  0  0  0  0  0  0  0
  158.0610  212.0550  154.6720 C   0  0  0  0  0  0  0  0  0  0  0  0
  162.4030  210.5040  149.1510 C   0  0  0  0  0  3  0  0  0  0  0  0
  162.2630  209.0000  151.1660 C   0  0  1  0  0  3  0  0  0  0  0  0
  161.8410  210.2250  150.4040 C   0  0  0  0  0  0  0  0  0  0  0  0
  160.2840  210.8550  152.3280 C   0  0  2  0  0  3  0  0  0  0  0  0
  157.4340  211.2340  155.7240 C   0  0  0  0  0  3  0  0  0  0  0  0
  161.9800  206.7820  150.3710 C   0  0  2  0  0  3  0  0  0  0  0  0
  158.5480  210.2600  156.1220 C   0  0  0  0  0  3  0  0  0  0  0  0
  160.6170  212.3210  150.2980 C   0  0  0  0  0  3  0  0  0  0  0  0
  160.9700  211.1630  151.0080 C   0  0  0  0  0  0  0  0  0  0  0  0
  160.1440  212.0800  153.2250 C   0  0  0  0  0  2  0  0  0  0  0  0
  161.6620  207.3880  152.7710 O   0  0  0  0  0  0  0  0  0  0  0  0
  160.5930  208.3020  155.0660 O   0  0  0  0  0  1  0  0  0  0  0  0
  157.4650  212.9730  154.0500 O   0  0  0  0  0  0  0  0  0  0  0  0
  160.9320  209.7020  153.1280 C   0  0  2  0  0  3  0  0  0  0  0  0
  159.3990  211.6910  154.4140 N   0  0  0  0  0  0  0  0  0  0  0  0
  161.2070  207.5190  148.1130 C   0  0  0  0  0  1  0  0  0  0  0  0
  160.7710  206.9220  149.4390 C   0  0  1  0  0  3  0  0  0  0  0  0
  160.1770  205.6770  149.2130 O   0  0  0  0  0  0  0  0  0  0  0  0
  160.8070  205.1800  148.0680 C   0  0  0  0  0  2  0  0  0  0  0  0
  161.0330  203.7150  148.2100 C   0  0  0  0  0  0  0  0  0  0  0  0
  160.5560  203.0950  149.1960 O   0  0  0  0  0  1  0  0  0  0  0  0
  161.7440  203.0250  147.2360 O   0  0  0  0  0  0  0  0  0  0  0  0
  161.6700  203.9900  152.0780 O   0  0  0  0  0  1  0  0  0  0  0  0
  162.3970  205.1680  152.2470 C   0  0  0  0  0  2  0  0  0  0  0  0
  1 19  1  1  0  0  0
  1 22  1  0  0  0  0
  2  3  2  0  0  0  0
  2  9  1  0  0  0  0
  3 16  1  0  0  0  0
  4 20  1  1  0  0  0
  4  5  1  0  0  0  0
  5 15  1  1  0  0  0
  6 32  1  1  0  0  0
  6 19  1  0  0  0  0
  7 14  1  0  0  0  0
  8 13  1  0  0  0  0
  9 11  2  0  0  0  0
 10  7  1  6  0  0  0
 10  1  1  0  0  0  0
 11 17  1  0  0  0  0
 11 10  1  0  0  0  0
 12 22  1  0  0  0  0
 12 18  1  1  0  0  0
 13 15  2  0  0  0  0
 14 25  1  6  0  0  0
 14  6  1  0  0  0  0
 16 17  2  0  0  0  0
 17 12  1  0  0  0  0
 18 23  1  0  0  0  0
 21  8  2  0  0  0  0
 22  4  1  0  0  0  0
 23  8  1  0  0  0  0
 23  5  1  0  0  0  0
 24 25  1  0  0  0  0
 26 25  1  0  0  0  0
 27 28  1  0  0  0  0
 27 26  1  0  0  0  0
 28 29  1  0  0  0  0
 30 28  2  0  0  0  0
 31 32  1  0  0  0  0
M  END
>  <MODEL>
3

>  <REMARK>
 VINA RESULT:      -6.0      2.362      7.937
  Name = 
  5 active torsions:
  status: ('A' for Active; 'I' for Inactive)
    1  A    between atoms: C_7  and  C_19
    2  A    between atoms: C_10  and  C_17
    3  A    between atoms: C_10  and  O_20
    4  A    between atoms: O_20  and  C_29
    5  A    between atoms: C_29  and  C_30
                            x       y       z     vdW  Elec       q    Type
                         _______ _______ _______ _____ _____    ______ ____

>  <TORSDO>
F 5

$$$$
