=
 OpenBabel11122412303D

 30 35  0  0  1  0  0  0  0  0999 V2000
  161.3770  206.1800  149.9490 C   0  0  1  0  0  3  0  0  0  0  0  0
  161.3590  203.6180  149.7150 C   0  0  0  0  0  0  0  0  0  0  0  0
  161.0130  205.7370  154.0740 N   0  0  0  0  0  2  0  0  0  0  0  0
  161.6260  207.3050  150.9800 C   0  0  1  0  0  3  0  0  0  0  0  0
  162.3730  206.2730  148.9520 O   0  0  0  0  0  0  0  0  0  0  0  0
  162.3190  209.7540  148.4380 O   0  0  0  0  0  0  0  0  0  0  0  0
  160.4400  210.1750  152.1550 C   0  0  1  0  0  3  0  0  0  0  0  0
  161.9850  208.6890  148.9370 C   0  0  0  0  0  0  0  0  0  0  0  0
  160.3680  209.2960  153.4210 C   0  0  2  0  0  3  0  0  0  0  0  0
  161.0720  207.0860  154.5010 C   0  0  0  0  0  0  0  0  0  0  0  0
  162.1310  207.4130  148.1410 C   0  0  2  0  0  3  0  0  0  0  0  0
  161.3140  208.6410  150.2880 C   0  0  2  0  0  3  0  0  0  0  0  0
  161.2610  202.3420  150.2800 C   0  0  0  0  0  3  0  0  0  0  0  0
  160.7950  210.1970  154.5610 C   0  0  0  0  0  2  0  0  0  0  0  0
  160.5040  211.6180  152.6310 C   0  0  0  0  0  2  0  0  0  0  0  0
  161.5020  203.7010  148.2330 C   0  0  0  0  0  1  0  0  0  0  0  0
  160.9120  205.7680  152.7870 C   0  0  1  0  0  3  0  0  0  0  0  0
  161.0770  202.1850  151.6510 C   0  0  0  0  0  3  0  0  0  0  0  0
  161.2980  204.7690  150.5400 C   0  0  0  0  0  0  0  0  0  0  0  0
  160.7580  207.1320  152.2130 C   0  0  1  0  0  3  0  0  0  0  0  0
  161.1240  207.4160  155.7150 O   0  0  0  0  0  0  0  0  0  0  0  0
  161.2160  208.0280  153.3560 C   0  0  1  0  0  3  0  0  0  0  0  0
  160.3690  211.5850  154.1410 C   0  0  0  0  0  2  0  0  0  0  0  0
  162.9810  209.9560  151.7350 C   0  0  0  0  0  1  0  0  0  0  0  0
  160.9660  203.3050  152.4710 C   0  0  0  0  0  3  0  0  0  0  0  0
  161.0500  204.5900  151.9240 C   0  0  0  0  0  0  0  0  0  0  0  0
  161.5740  209.8950  151.1440 C   0  0  2  0  0  3  0  0  0  0  0  0
  160.9510  207.2100  147.1970 C   0  0  0  0  0  2  0  0  0  0  0  0
  160.1660  206.2340  145.3830 C   0  0  0  0  0  1  0  0  0  0  0  0
  161.2950  206.3000  146.1980 O   0  0  0  0  0  0  0  0  0  0  0  0
  1  5  1  6  0  0  0
  1 19  1  0  0  0  0
  1  4  1  0  0  0  0
  2 13  2  0  0  0  0
  2 19  1  0  0  0  0
  3 10  1  0  0  0  0
  4 20  1  0  0  0  0
  6  8  2  0  0  0  0
  7 15  1  0  0  0  0
  7  9  1  0  0  0  0
  8 12  1  0  0  0  0
  9 14  1  0  0  0  0
 10 21  2  0  0  0  0
 11  8  1  0  0  0  0
 11  5  1  0  0  0  0
 12  4  1  0  0  0  0
 12 27  1  0  0  0  0
 13 18  1  0  0  0  0
 15 23  1  0  0  0  0
 16  2  1  0  0  0  0
 17  3  1  0  0  0  0
 18 25  2  0  0  0  0
 19 26  2  0  0  0  0
 20 17  1  0  0  0  0
 20 22  1  0  0  0  0
 22  9  1  0  0  0  0
 22 10  1  0  0  0  0
 23 14  1  0  0  0  0
 26 25  1  0  0  0  0
 26 17  1  0  0  0  0
 27 24  1  0  0  0  0
 27  7  1  0  0  0  0
 28 11  1  0  0  0  0
 29 30  1  0  0  0  0
 30 28  1  0  0  0  0
M  END
>  <MODEL>
1

>  <REMARK>
 VINA RESULT:      -9.3      0.000      0.000
  Name = 
  2 active torsions:
  status: ('A' for Active; 'I' for Inactive)
    1  A    between atoms: C_11  and  C_28
    2  A    between atoms: C_28  and  O_30
                            x       y       z     vdW  Elec       q    Type
                         _______ _______ _______ _____ _____    ______ ____

>  <TORSDO>
F 2

$$$$
=
 OpenBabel11122412303D

 30 35  0  0  1  0  0  0  0  0999 V2000
  161.1230  204.9300  148.6700 C   0  0  1  0  0  3  0  0  0  0  0  0
  161.0420  202.4210  148.1040 C   0  0  0  0  0  0  0  0  0  0  0  0
  161.1690  203.9440  152.7160 N   0  0  0  0  0  2  0  0  0  0  0  0
  161.4920  205.9070  149.8100 C   0  0  1  0  0  3  0  0  0  0  0  0
  162.0150  205.1530  147.5980 O   0  0  0  0  0  0  0  0  0  0  0  0
  161.9640  208.6710  147.5550 O   0  0  0  0  0  0  0  0  0  0  0  0
  160.4750  208.5990  151.4680 C   0  0  1  0  0  3  0  0  0  0  0  0
  161.6660  207.5500  147.9410 C   0  0  0  0  0  0  0  0  0  0  0  0
  160.5170  207.5590  152.6070 C   0  0  2  0  0  3  0  0  0  0  0  0
  161.2910  205.2240  153.3100 C   0  0  0  0  0  0  0  0  0  0  0  0
  161.7110  206.3910  146.9730 C   0  0  2  0  0  3  0  0  0  0  0  0
  161.1330  207.3240  149.3350 C   0  0  2  0  0  3  0  0  0  0  0  0
  160.9820  201.0820  148.5020 C   0  0  0  0  0  3  0  0  0  0  0  0
  161.0700  208.3010  153.8060 C   0  0  0  0  0  2  0  0  0  0  0  0
  160.6100  209.9660  152.1210 C   0  0  0  0  0  2  0  0  0  0  0  0
  161.0360  202.7000  146.6390 C   0  0  0  0  0  1  0  0  0  0  0  0
  160.9400  204.1460  151.4610 C   0  0  1  0  0  3  0  0  0  0  0  0
  160.9330  200.7450  149.8520 C   0  0  0  0  0  3  0  0  0  0  0  0
  161.0820  203.4530  149.0750 C   0  0  0  0  0  0  0  0  0  0  0  0
  160.7500  205.5750  151.0910 C   0  0  1  0  0  3  0  0  0  0  0  0
  161.4700  205.3900  154.5440 O   0  0  0  0  0  0  0  0  0  0  0  0
  161.3350  206.3090  152.2890 C   0  0  1  0  0  3  0  0  0  0  0  0
  160.6260  209.7330  153.6190 C   0  0  0  0  0  2  0  0  0  0  0  0
  162.9570  208.4320  150.7660 C   0  0  0  0  0  1  0  0  0  0  0  0
  160.9230  201.7460  150.8200 C   0  0  0  0  0  3  0  0  0  0  0  0
  160.9720  203.0930  150.4410 C   0  0  0  0  0  0  0  0  0  0  0  0
  161.4970  208.4530  150.3180 C   0  0  2  0  0  3  0  0  0  0  0  0
  160.4390  206.3170  146.1360 C   0  0  0  0  0  2  0  0  0  0  0  0
  161.1770  205.3200  144.3130 C   0  0  0  0  0  1  0  0  0  0  0  0
  160.7400  206.5530  144.7950 O   0  0  0  0  0  0  0  0  0  0  0  0
  1  5  1  6  0  0  0
  1 19  1  0  0  0  0
  1  4  1  0  0  0  0
  2 13  2  0  0  0  0
  2 19  1  0  0  0  0
  3 10  1  0  0  0  0
  4 20  1  0  0  0  0
  6  8  2  0  0  0  0
  7 15  1  0  0  0  0
  7  9  1  0  0  0  0
  8 12  1  0  0  0  0
  9 14  1  0  0  0  0
 10 21  2  0  0  0  0
 11  5  1  0  0  0  0
 11  8  1  0  0  0  0
 12  4  1  0  0  0  0
 12 27  1  0  0  0  0
 13 18  1  0  0  0  0
 15 23  1  0  0  0  0
 16  2  1  0  0  0  0
 17  3  1  0  0  0  0
 18 25  2  0  0  0  0
 19 26  2  0  0  0  0
 20 17  1  0  0  0  0
 20 22  1  0  0  0  0
 22  9  1  0  0  0  0
 22 10  1  0  0  0  0
 23 14  1  0  0  0  0
 26 25  1  0  0  0  0
 26 17  1  0  0  0  0
 27 24  1  0  0  0  0
 27  7  1  0  0  0  0
 28 11  1  0  0  0  0
 29 30  1  0  0  0  0
 30 28  1  0  0  0  0
M  END
>  <MODEL>
2

>  <REMARK>
 VINA RESULT:      -8.7      1.314      1.916
  Name = 
  2 active torsions:
  status: ('A' for Active; 'I' for Inactive)
    1  A    between atoms: C_11  and  C_28
    2  A    between atoms: C_28  and  O_30
                            x       y       z     vdW  Elec       q    Type
                         _______ _______ _______ _____ _____    ______ ____

>  <TORSDO>
F 2

$$$$
=
 OpenBabel11122412303D

 30 35  0  0  1  0  0  0  0  0999 V2000
  161.3230  207.6840  151.5140 C   0  0  1  0  0  3  0  0  0  0  0  0
  161.7310  210.1760  151.0220 C   0  0  0  0  0  0  0  0  0  0  0  0
  162.0840  206.8400  147.5080 N   0  0  0  0  0  2  0  0  0  0  0  0
  161.6040  206.2720  150.9500 C   0  0  1  0  0  3  0  0  0  0  0  0
  162.0050  207.8060  152.7450 O   0  0  0  0  0  0  0  0  0  0  0  0
  161.1690  204.6900  154.1520 O   0  0  0  0  0  0  0  0  0  0  0  0
  160.2270  203.3180  150.3110 C   0  0  1  0  0  3  0  0  0  0  0  0
  161.1770  205.5720  153.3060 C   0  0  0  0  0  0  0  0  0  0  0  0
  160.6390  203.7560  148.8900 C   0  0  2  0  0  3  0  0  0  0  0  0
  161.9920  205.4260  147.5020 C   0  0  0  0  0  0  0  0  0  0  0  0
  161.3580  207.0110  153.7290 C   0  0  2  0  0  3  0  0  0  0  0  0
  160.8840  205.2620  151.8580 C   0  0  2  0  0  3  0  0  0  0  0  0
  162.0180  211.2110  150.1280 C   0  0  0  0  0  3  0  0  0  0  0  0
  161.1570  202.5020  148.2180 C   0  0  0  0  0  2  0  0  0  0  0  0
  160.1350  201.8000  150.2890 C   0  0  0  0  0  2  0  0  0  0  0  0
  161.4830  210.5500  152.4440 C   0  0  0  0  0  1  0  0  0  0  0  0
  161.6630  207.2260  148.6660 C   0  0  1  0  0  3  0  0  0  0  0  0
  162.2130  210.9470  148.7740 C   0  0  0  0  0  3  0  0  0  0  0  0
  161.6610  208.8360  150.5640 C   0  0  0  0  0  0  0  0  0  0  0  0
  161.1180  206.1370  149.5190 C   0  0  1  0  0  3  0  0  0  0  0  0
  162.2800  204.7270  146.4970 O   0  0  0  0  0  0  0  0  0  0  0  0
  161.6680  204.8840  148.8520 C   0  0  1  0  0  3  0  0  0  0  0  0
  160.3870  201.3700  148.8570 C   0  0  0  0  0  2  0  0  0  0  0  0
  162.5790  203.3910  151.3820 C   0  0  0  0  0  1  0  0  0  0  0  0
  162.1010  209.6430  148.2970 C   0  0  0  0  0  3  0  0  0  0  0  0
  161.8020  208.5950  149.1740 C   0  0  0  0  0  0  0  0  0  0  0  0
  161.1070  203.7820  151.4940 C   0  0  2  0  0  3  0  0  0  0  0  0
  160.0420  207.6240  154.1920 C   0  0  0  0  0  2  0  0  0  0  0  0
  159.9970  207.2930  156.3710 C   0  0  0  0  0  1  0  0  0  0  0  0
  160.2250  208.2770  155.4100 O   0  0  0  0  0  0  0  0  0  0  0  0
  1 19  1  6  0  0  0
  1  5  1  0  0  0  0
  2 16  1  0  0  0  0
  3 17  1  0  0  0  0
  4  1  1  0  0  0  0
  4 12  1  0  0  0  0
  5 11  1  0  0  0  0
  7 27  1  0  0  0  0
  8 11  1  0  0  0  0
  8  6  2  0  0  0  0
  9  7  1  0  0  0  0
 10  3  1  0  0  0  0
 10 22  1  0  0  0  0
 11 28  1  0  0  0  0
 12  8  1  0  0  0  0
 13  2  2  0  0  0  0
 14 23  1  0  0  0  0
 14  9  1  0  0  0  0
 15  7  1  0  0  0  0
 17 26  1  0  0  0  0
 17 20  1  0  0  0  0
 18 13  1  0  0  0  0
 19  2  1  0  0  0  0
 20  4  1  0  0  0  0
 21 10  2  0  0  0  0
 22  9  1  0  0  0  0
 22 20  1  0  0  0  0
 23 15  1  0  0  0  0
 24 27  1  0  0  0  0
 25 18  2  0  0  0  0
 25 26  1  0  0  0  0
 26 19  2  0  0  0  0
 27 12  1  0  0  0  0
 28 30  1  0  0  0  0
 30 29  1  0  0  0  0
M  END
>  <MODEL>
3

>  <REMARK>
 VINA RESULT:      -7.8      2.060      7.214
  Name = 
  2 active torsions:
  status: ('A' for Active; 'I' for Inactive)
    1  A    between atoms: C_11  and  C_28
    2  A    between atoms: C_28  and  O_30
                            x       y       z     vdW  Elec       q    Type
                         _______ _______ _______ _____ _____    ______ ____

>  <TORSDO>
F 2

$$$$
=
 OpenBabel11122412303D

 30 35  0  0  1  0  0  0  0  0999 V2000
  161.2370  208.5440  151.4740 C   0  0  1  0  0  3  0  0  0  0  0  0
  161.5250  211.0190  150.8340 C   0  0  0  0  0  0  0  0  0  0  0  0
  162.1320  207.4950  147.5450 N   0  0  0  0  0  2  0  0  0  0  0  0
  161.6030  207.1170  151.0060 C   0  0  1  0  0  3  0  0  0  0  0  0
  161.8830  208.7780  152.7080 O   0  0  0  0  0  0  0  0  0  0  0  0
  161.1800  205.7150  154.2930 O   0  0  0  0  0  0  0  0  0  0  0  0
  160.3970  204.0600  150.5280 C   0  0  1  0  0  3  0  0  0  0  0  0
  161.1610  206.5420  153.3930 C   0  0  0  0  0  0  0  0  0  0  0  0
  160.8180  204.4300  149.0900 C   0  0  2  0  0  3  0  0  0  0  0  0
  162.1130  206.0810  147.6270 C   0  0  0  0  0  0  0  0  0  0  0  0
  161.2570  208.0120  153.7270 C   0  0  2  0  0  3  0  0  0  0  0  0
  160.9170  206.1280  151.9620 C   0  0  2  0  0  3  0  0  0  0  0  0
  161.7790  212.0110  149.8820 C   0  0  0  0  0  3  0  0  0  0  0  0
  161.4160  203.1660  148.5090 C   0  0  0  0  0  2  0  0  0  0  0  0
  160.3850  202.5410  150.5990 C   0  0  0  0  0  2  0  0  0  0  0  0
  161.2270  211.4670  152.2250 C   0  0  0  0  0  1  0  0  0  0  0  0
  161.6650  207.9300  148.6680 C   0  0  1  0  0  3  0  0  0  0  0  0
  162.0180  211.6740  148.5520 C   0  0  0  0  0  3  0  0  0  0  0  0
  161.5360  209.6520  150.4600 C   0  0  0  0  0  0  0  0  0  0  0  0
  161.1580  206.8670  149.5770 C   0  0  1  0  0  3  0  0  0  0  0  0
  162.4600  205.3380  146.6730 O   0  0  0  0  0  0  0  0  0  0  0  0
  161.7870  205.6070  149.0010 C   0  0  1  0  0  3  0  0  0  0  0  0
  160.6910  202.0360  149.2030 C   0  0  0  0  0  2  0  0  0  0  0  0
  162.7170  204.3240  151.6370 C   0  0  0  0  0  1  0  0  0  0  0  0
  161.9840  210.3390  148.1560 C   0  0  0  0  0  3  0  0  0  0  0  0
  161.7210  209.3320  149.0910 C   0  0  0  0  0  0  0  0  0  0  0  0
  161.2250  204.6430  151.6960 C   0  0  2  0  0  3  0  0  0  0  0  0
  159.9000  208.5810  154.1250 C   0  0  0  0  0  2  0  0  0  0  0  0
  159.1180  210.3890  155.1170 C   0  0  0  0  0  1  0  0  0  0  0  0
  160.0280  209.3460  155.2850 O   0  0  0  0  0  0  0  0  0  0  0  0
  1 19  1  6  0  0  0
  1  5  1  0  0  0  0
  2 16  1  0  0  0  0
  3 10  1  0  0  0  0
  3 17  1  0  0  0  0
  4  1  1  0  0  0  0
  4 12  1  0  0  0  0
  5 11  1  0  0  0  0
  7 15  1  0  0  0  0
  7 27  1  0  0  0  0
  8 11  1  0  0  0  0
  8  6  2  0  0  0  0
  9  7  1  0  0  0  0
 10 22  1  0  0  0  0
 11 28  1  0  0  0  0
 12  8  1  0  0  0  0
 13  2  2  0  0  0  0
 14  9  1  0  0  0  0
 14 23  1  0  0  0  0
 17 26  1  0  0  0  0
 17 20  1  0  0  0  0
 18 13  1  0  0  0  0
 19  2  1  0  0  0  0
 20  4  1  0  0  0  0
 21 10  2  0  0  0  0
 22  9  1  0  0  0  0
 22 20  1  0  0  0  0
 23 15  1  0  0  0  0
 24 27  1  0  0  0  0
 25 18  2  0  0  0  0
 25 26  1  0  0  0  0
 26 19  2  0  0  0  0
 27 12  1  0  0  0  0
 28 30  1  0  0  0  0
 29 30  1  0  0  0  0
M  END
>  <MODEL>
4

>  <REMARK>
 VINA RESULT:      -6.7      2.016      7.131
  Name = 
  2 active torsions:
  status: ('A' for Active; 'I' for Inactive)
    1  A    between atoms: C_11  and  C_28
    2  A    between atoms: C_28  and  O_30
                            x       y       z     vdW  Elec       q    Type
                         _______ _______ _______ _____ _____    ______ ____

>  <TORSDO>
F 2

$$$$
