=
 OpenBabel11122414033D

 28 32  0  0  1  0  0  0  0  0999 V2000
  158.1520  212.9490  151.2760 C   0  0  0  0  0  0  0  0  0  0  0  0
  159.9420  209.5210  151.8980 O   0  0  0  0  0  0  0  0  0  0  0  0
  157.4860  212.2460  157.2430 C   0  0  0  0  0  1  0  0  0  0  0  0
  160.4030  214.4110  150.4680 C   0  0  0  0  0  3  0  0  0  0  0  0
  159.6110  213.0960  156.7700 C   0  0  1  0  0  3  0  0  0  0  0  0
  156.9050  212.2460  151.7060 C   0  0  0  0  0  2  0  0  0  0  0  0
  162.3640  209.7890  152.2330 O   0  0  0  0  0  0  0  0  0  0  0  0
  161.0170  209.8520  152.8940 S   0  0  0  0  0  0  0  0  0  0  0  0
  160.6060  209.1640  155.5130 C   0  0  0  0  0  0  0  0  0  0  0  0
  160.7740  211.4800  153.5620 C   0  0  2  0  0  3  0  0  0  0  0  0
  155.2530  214.4530  154.0230 O   0  0  0  0  0  0  0  0  0  0  0  0
  159.2090  212.9410  154.5080 C   0  0  2  0  0  3  0  0  0  0  0  0
  160.5780  210.4200  155.8510 N   0  0  0  0  0  0  0  0  0  0  0  0
  160.9670  208.7390  154.2020 N   0  0  0  0  0  2  0  0  0  0  0  0
  155.9590  213.4880  153.6270 C   0  0  0  0  0  0  0  0  0  0  0  0
  159.3350  212.8910  152.0420 C   0  0  0  0  0  0  0  0  0  0  0  0
  158.1760  213.3640  156.6040 N   0  0  0  0  0  0  0  0  0  0  0  0
  160.2160  208.1850  156.4680 N   0  0  0  0  0  1  0  0  0  0  0  0
  156.7070  212.6730  154.6320 C   0  0  0  0  0  2  0  0  0  0  0  0
  160.4500  213.6420  151.6310 C   0  0  0  0  0  3  0  0  0  0  0  0
  158.1130  213.7240  150.1120 C   0  0  0  0  0  3  0  0  0  0  0  0
  159.2350  214.4480  149.7040 C   0  0  0  0  0  3  0  0  0  0  0  0
  155.9960  213.1880  152.2640 O   0  0  0  0  0  0  0  0  0  0  0  0
  160.1180  212.7310  155.4200 C   0  0  2  0  0  3  0  0  0  0  0  0
  157.9490  213.4240  155.1340 C   0  0  2  0  0  3  0  0  0  0  0  0
  161.0170  211.5910  155.0750 C   0  0  2  0  0  3  0  0  0  0  0  0
  160.3100  214.3500  157.2600 C   0  0  0  0  0  1  0  0  0  0  0  0
  159.3870  212.0750  153.3090 C   0  0  1  0  0  3  0  0  0  0  0  0
  1  6  1  0  0  0  0
  1 16  1  0  0  0  0
  2  8  2  0  0  0  0
  4 20  1  0  0  0  0
  5 27  1  6  0  0  0
  6 23  1  0  0  0  0
  7  8  2  0  0  0  0
  8 14  1  0  0  0  0
  9 13  2  0  0  0  0
  9 18  1  0  0  0  0
 10  8  1  1  0  0  0
 10 26  1  0  0  0  0
 12 25  1  0  0  0  0
 12 24  1  0  0  0  0
 14  9  1  0  0  0  0
 15 11  2  0  0  0  0
 15 19  1  0  0  0  0
 16 28  1  0  0  0  0
 17  5  1  0  0  0  0
 17  3  1  0  0  0  0
 19 25  1  0  0  0  0
 20 16  2  0  0  0  0
 21  1  2  0  0  0  0
 22 21  1  0  0  0  0
 22  4  2  0  0  0  0
 23 15  1  0  0  0  0
 24  5  1  0  0  0  0
 25 17  1  0  0  0  0
 26 24  1  0  0  0  0
 26 13  1  0  0  0  0
 28 10  1  0  0  0  0
 28 12  1  0  0  0  0
M  END
>  <MODEL>
1

>  <REMARK>
 VINA RESULT:      -0.7      0.000      0.000
  Name = 
  0 active torsions:
  status: ('A' for Active; 'I' for Inactive)
                            x       y       z     vdW  Elec       q    Type
                         _______ _______ _______ _____ _____    ______ ____

>  <TORSDO>
F 0

$$$$
=
 OpenBabel11122414033D

 28 32  0  0  1  0  0  0  0  0999 V2000
  158.2510  213.8070  152.1890 C   0  0  0  0  0  0  0  0  0  0  0  0
  159.9170  213.8640  155.7320 O   0  0  0  0  0  0  0  0  0  0  0  0
  162.9540  210.0870  151.4260 C   0  0  0  0  0  1  0  0  0  0  0  0
  155.8380  212.5830  152.9220 C   0  0  0  0  0  3  0  0  0  0  0  0
  161.1870  208.9450  152.4440 C   0  0  1  0  0  3  0  0  0  0  0  0
  159.5110  214.4530  151.7100 C   0  0  0  0  0  2  0  0  0  0  0  0
  158.9050  212.2200  157.2570 O   0  0  0  0  0  0  0  0  0  0  0  0
  159.9070  212.4230  156.1570 S   0  0  0  0  0  0  0  0  0  0  0  0
  162.2520  211.0150  155.9950 C   0  0  0  0  0  0  0  0  0  0  0  0
  159.4910  211.3690  154.7900 C   0  0  2  0  0  3  0  0  0  0  0  0
  160.4760  212.6890  148.7230 O   0  0  0  0  0  0  0  0  0  0  0  0
  159.9460  210.8820  152.5460 C   0  0  2  0  0  3  0  0  0  0  0  0
  161.7400  210.2470  155.0790 N   0  0  0  0  0  0  0  0  0  0  0  0
  161.4690  211.9660  156.7110 N   0  0  0  0  0  2  0  0  0  0  0  0
  160.4740  213.0170  149.9380 C   0  0  0  0  0  0  0  0  0  0  0  0
  158.2720  212.6440  152.9850 C   0  0  0  0  0  0  0  0  0  0  0  0
  161.5530  209.7130  151.2470 N   0  0  0  0  0  0  0  0  0  0  0  0
  163.6470  210.9390  156.2580 N   0  0  0  0  0  1  0  0  0  0  0  0
  161.3000  212.2320  150.9060 C   0  0  0  0  0  2  0  0  0  0  0  0
  157.0540  212.0330  153.3320 C   0  0  0  0  0  3  0  0  0  0  0  0
  157.0270  214.3500  151.7810 C   0  0  0  0  0  3  0  0  0  0  0  0
  155.8250  213.7460  152.1500 C   0  0  0  0  0  3  0  0  0  0  0  0
  159.7250  214.1250  150.3430 O   0  0  0  0  0  0  0  0  0  0  0  0
  160.2770  209.8210  153.2300 C   0  0  2  0  0  3  0  0  0  0  0  0
  160.6360  210.8850  151.2280 C   0  0  2  0  0  3  0  0  0  0  0  0
  160.3280  210.0840  154.6980 C   0  0  2  0  0  3  0  0  0  0  0  0
  160.4560  207.6800  152.0350 C   0  0  0  0  0  1  0  0  0  0  0  0
  159.5820  212.0360  153.4160 C   0  0  1  0  0  3  0  0  0  0  0  0
  1 16  1  0  0  0  0
  2  8  2  0  0  0  0
  4 20  1  0  0  0  0
  5 27  1  6  0  0  0
  5 24  1  0  0  0  0
  6  1  1  0  0  0  0
  8 14  1  0  0  0  0
  8  7  2  0  0  0  0
  9 18  1  0  0  0  0
  9 14  1  0  0  0  0
 10  8  1  1  0  0  0
 11 15  2  0  0  0  0
 12 24  1  0  0  0  0
 12 28  1  0  0  0  0
 13  9  2  0  0  0  0
 15 23  1  0  0  0  0
 15 19  1  0  0  0  0
 16 20  2  0  0  0  0
 16 28  1  0  0  0  0
 17  3  1  0  0  0  0
 17  5  1  0  0  0  0
 19 25  1  0  0  0  0
 21 22  1  0  0  0  0
 21  1  2  0  0  0  0
 22  4  2  0  0  0  0
 23  6  1  0  0  0  0
 24 26  1  0  0  0  0
 25 17  1  0  0  0  0
 25 12  1  0  0  0  0
 26 10  1  0  0  0  0
 26 13  1  0  0  0  0
 28 10  1  0  0  0  0
M  END
>  <MODEL>
2

>  <REMARK>
 VINA RESULT:      -0.6      2.724      4.856
  Name = 
  0 active torsions:
  status: ('A' for Active; 'I' for Inactive)
                            x       y       z     vdW  Elec       q    Type
                         _______ _______ _______ _____ _____    ______ ____

>  <TORSDO>
F 0

$$$$
=
 OpenBabel11122414033D

 28 32  0  0  1  0  0  0  0  0999 V2000
  160.9120  212.5140  148.4960 C   0  0  0  0  0  0  0  0  0  0  0  0
  160.9100  208.6620  147.7900 O   0  0  0  0  0  0  0  0  0  0  0  0
  159.5530  210.2400  153.9300 C   0  0  0  0  0  1  0  0  0  0  0  0
  163.6340  212.9860  148.0210 C   0  0  0  0  0  3  0  0  0  0  0  0
  161.8610  210.1480  153.5780 C   0  0  1  0  0  3  0  0  0  0  0  0
  159.4530  212.3480  148.7780 C   0  0  0  0  0  2  0  0  0  0  0  0
  163.1600  207.6850  147.9790 O   0  0  0  0  0  0  0  0  0  0  0  0
  161.9410  208.1210  148.7400 S   0  0  0  0  0  0  0  0  0  0  0  0
  161.0670  206.8610  151.0100 C   0  0  0  0  0  0  0  0  0  0  0  0
  162.4080  209.3570  149.9270 C   0  0  2  0  0  3  0  0  0  0  0  0
  158.8060  214.1450  151.8300 O   0  0  0  0  0  0  0  0  0  0  0  0
  161.6040  210.9550  151.4370 C   0  0  2  0  0  3  0  0  0  0  0  0
  161.5830  207.8020  151.7450 N   0  0  0  0  0  0  0  0  0  0  0  0
  161.2950  206.7850  149.6060 N   0  0  0  0  0  2  0  0  0  0  0  0
  159.0270  213.1610  151.0770 C   0  0  0  0  0  0  0  0  0  0  0  0
  161.8800  211.6800  149.0920 C   0  0  0  0  0  0  0  0  0  0  0  0
  160.7190  211.0700  153.6370 N   0  0  0  0  0  0  0  0  0  0  0  0
  160.2070  205.9060  151.6180 N   0  0  0  0  0  1  0  0  0  0  0  0
  159.2500  211.8140  151.6850 C   0  0  0  0  0  2  0  0  0  0  0  0
  163.2410  211.9390  148.8560 C   0  0  0  0  0  3  0  0  0  0  0  0
  161.3140  213.5630  147.6620 C   0  0  0  0  0  3  0  0  0  0  0  0
  162.6690  213.7960  147.4190 C   0  0  0  0  0  3  0  0  0  0  0  0
  159.0270  213.3500  149.6930 O   0  0  0  0  0  0  0  0  0  0  0  0
  162.2490  210.0680  152.1440 C   0  0  2  0  0  3  0  0  0  0  0  0
  160.6550  211.7120  152.2970 C   0  0  2  0  0  3  0  0  0  0  0  0
  162.5600  208.8350  151.3640 C   0  0  2  0  0  3  0  0  0  0  0  0
  163.0120  210.7100  154.3920 C   0  0  0  0  0  1  0  0  0  0  0  0
  161.4620  210.5570  150.0080 C   0  0  1  0  0  3  0  0  0  0  0  0
  1  6  1  0  0  0  0
  1 16  1  0  0  0  0
  2  8  2  0  0  0  0
  4 20  1  0  0  0  0
  5 17  1  0  0  0  0
  5 27  1  1  0  0  0
  6 23  1  0  0  0  0
  7  8  2  0  0  0  0
  8 14  1  0  0  0  0
  9 18  1  0  0  0  0
  9 13  2  0  0  0  0
 10  8  1  6  0  0  0
 10 28  1  0  0  0  0
 10 26  1  0  0  0  0
 12 24  1  0  0  0  0
 12 25  1  0  0  0  0
 14  9  1  0  0  0  0
 15 19  1  0  0  0  0
 15 11  2  0  0  0  0
 16 28  1  0  0  0  0
 17  3  1  0  0  0  0
 19 25  1  0  0  0  0
 20 16  2  0  0  0  0
 21  1  2  0  0  0  0
 22 21  1  0  0  0  0
 22  4  2  0  0  0  0
 23 15  1  0  0  0  0
 24  5  1  0  0  0  0
 25 17  1  0  0  0  0
 26 13  1  0  0  0  0
 26 24  1  0  0  0  0
 28 12  1  0  0  0  0
M  END
>  <MODEL>
3

>  <REMARK>
 VINA RESULT:       0.3      3.411      4.488
  Name = 
  0 active torsions:
  status: ('A' for Active; 'I' for Inactive)
                            x       y       z     vdW  Elec       q    Type
                         _______ _______ _______ _____ _____    ______ ____

>  <TORSDO>
F 0

$$$$
=
 OpenBabel11122414033D

 28 32  0  0  1  0  0  0  0  0999 V2000
  160.8710  208.9440  154.2240 C   0  0  0  0  0  0  0  0  0  0  0  0
  157.9300  211.4180  153.4710 O   0  0  0  0  0  0  0  0  0  0  0  0
  161.2060  209.5040  148.2140 C   0  0  0  0  0  1  0  0  0  0  0  0
  162.4780  210.7020  155.7010 C   0  0  0  0  0  3  0  0  0  0  0  0
  162.2620  211.3140  149.2470 C   0  0  1  0  0  3  0  0  0  0  0  0
  160.0810  207.9460  153.4400 C   0  0  0  0  0  2  0  0  0  0  0  0
  158.6180  213.7690  153.6960 O   0  0  0  0  0  0  0  0  0  0  0  0
  158.6000  212.5750  152.7850 S   0  0  0  0  0  0  0  0  0  0  0  0
  158.3600  212.7760  150.0640 C   0  0  0  0  0  0  0  0  0  0  0  0
  160.2680  212.1590  152.3400 C   0  0  2  0  0  3  0  0  0  0  0  0
  162.4090  206.3600  151.1960 O   0  0  0  0  0  0  0  0  0  0  0  0
  161.6270  210.5480  151.3230 C   0  0  2  0  0  3  0  0  0  0  0  0
  159.6380  212.5780  149.9260 N   0  0  0  0  0  0  0  0  0  0  0  0
  157.7560  212.9670  151.3400 N   0  0  0  0  0  2  0  0  0  0  0  0
  161.5040  207.1480  151.5770 C   0  0  0  0  0  0  0  0  0  0  0  0
  161.1360  210.2350  153.7240 C   0  0  0  0  0  0  0  0  0  0  0  0
  162.2750  209.8490  149.1480 N   0  0  0  0  0  0  0  0  0  0  0  0
  157.5300  212.7530  148.9100 N   0  0  0  0  0  1  0  0  0  0  0  0
  161.0140  208.2030  150.6390 C   0  0  0  0  0  2  0  0  0  0  0  0
  161.9560  211.1000  154.4690 C   0  0  0  0  0  3  0  0  0  0  0  0
  161.4000  208.5530  155.4600 C   0  0  0  0  0  3  0  0  0  0  0  0
  162.1950  209.4290  156.1990 C   0  0  0  0  0  3  0  0  0  0  0  0
  160.9630  206.9940  152.8560 O   0  0  0  0  0  0  0  0  0  0  0  0
  161.7310  211.6290  150.6010 C   0  0  2  0  0  3  0  0  0  0  0  0
  162.0240  209.3540  150.5290 C   0  0  2  0  0  3  0  0  0  0  0  0
  160.6950  212.6460  150.9470 C   0  0  2  0  0  3  0  0  0  0  0  0
  163.6770  211.8470  149.1130 C   0  0  0  0  0  1  0  0  0  0  0  0
  160.5890  210.6640  152.3850 C   0  0  1  0  0  3  0  0  0  0  0  0
  1 21  1  0  0  0  0
  3 17  1  0  0  0  0
  4 22  1  0  0  0  0
  5 27  1  1  0  0  0
  5 24  1  0  0  0  0
  6  1  1  0  0  0  0
  8  2  2  0  0  0  0
  8  7  2  0  0  0  0
  9 14  1  0  0  0  0
 10 28  1  0  0  0  0
 10  8  1  6  0  0  0
 11 15  2  0  0  0  0
 12 28  1  0  0  0  0
 13  9  2  0  0  0  0
 13 26  1  0  0  0  0
 14  8  1  0  0  0  0
 15 23  1  0  0  0  0
 16  1  2  0  0  0  0
 16 20  1  0  0  0  0
 17  5  1  0  0  0  0
 17 25  1  0  0  0  0
 18  9  1  0  0  0  0
 19 15  1  0  0  0  0
 20  4  2  0  0  0  0
 21 22  2  0  0  0  0
 23  6  1  0  0  0  0
 24 26  1  0  0  0  0
 24 12  1  0  0  0  0
 25 19  1  0  0  0  0
 25 12  1  0  0  0  0
 26 10  1  0  0  0  0
 28 16  1  0  0  0  0
M  END
>  <MODEL>
4

>  <REMARK>
 VINA RESULT:       0.6      3.561      6.894
  Name = 
  0 active torsions:
  status: ('A' for Active; 'I' for Inactive)
                            x       y       z     vdW  Elec       q    Type
                         _______ _______ _______ _____ _____    ______ ____

>  <TORSDO>
F 0

$$$$
=
 OpenBabel11122414033D

 28 32  0  0  1  0  0  0  0  0999 V2000
  160.9990  208.6250  155.4310 C   0  0  0  0  0  0  0  0  0  0  0  0
  158.1730  211.2650  154.8190 O   0  0  0  0  0  0  0  0  0  0  0  0
  160.8360  208.9160  149.3960 C   0  0  0  0  0  1  0  0  0  0  0  0
  162.8440  210.3250  156.6820 C   0  0  0  0  0  3  0  0  0  0  0  0
  162.0970  210.6890  150.2490 C   0  0  1  0  0  3  0  0  0  0  0  0
  160.0790  207.6530  154.7650 C   0  0  0  0  0  2  0  0  0  0  0  0
  159.0320  213.5700  154.8760 O   0  0  0  0  0  0  0  0  0  0  0  0
  158.8550  212.3450  154.0260 S   0  0  0  0  0  0  0  0  0  0  0  0
  158.3880  212.4520  151.3290 C   0  0  0  0  0  0  0  0  0  0  0  0
  160.4460  211.7950  153.4590 C   0  0  2  0  0  3  0  0  0  0  0  0
  162.0890  205.8190  152.4050 O   0  0  0  0  0  0  0  0  0  0  0  0
  161.6000  210.0530  152.4050 C   0  0  2  0  0  3  0  0  0  0  0  0
  159.6330  212.1590  151.0900 N   0  0  0  0  0  0  0  0  0  0  0  0
  157.9140  212.7360  152.6420 N   0  0  0  0  0  2  0  0  0  0  0  0
  161.2760  206.6830  152.8260 C   0  0  0  0  0  0  0  0  0  0  0  0
  161.3040  209.8730  154.8500 C   0  0  0  0  0  0  0  0  0  0  0  0
  162.0050  209.2240  150.2170 N   0  0  0  0  0  0  0  0  0  0  0  0
  157.4590  212.4390  150.2520 N   0  0  0  0  0  1  0  0  0  0  0  0
  160.7750  207.7310  151.8850 C   0  0  0  0  0  2  0  0  0  0  0  0
  162.2420  210.7080  155.4820 C   0  0  0  0  0  3  0  0  0  0  0  0
  161.6090  208.2480  156.6340 C   0  0  0  0  0  3  0  0  0  0  0  0
  162.5230  209.0960  157.2610 C   0  0  0  0  0  3  0  0  0  0  0  0
  160.8410  206.6190  154.1520 O   0  0  0  0  0  0  0  0  0  0  0  0
  161.7110  211.0950  151.6270 C   0  0  2  0  0  3  0  0  0  0  0  0
  161.8450  208.8040  151.6360 C   0  0  2  0  0  3  0  0  0  0  0  0
  160.7790  212.1950  152.0130 C   0  0  2  0  0  3  0  0  0  0  0  0
  163.5260  211.1160  149.9690 C   0  0  0  0  0  1  0  0  0  0  0  0
  160.6700  210.2840  153.5460 C   0  0  1  0  0  3  0  0  0  0  0  0
  1 21  1  0  0  0  0
  3 17  1  0  0  0  0
  4 22  1  0  0  0  0
  5 27  1  1  0  0  0
  5 24  1  0  0  0  0
  6  1  1  0  0  0  0
  8  2  2  0  0  0  0
  8  7  2  0  0  0  0
  9 14  1  0  0  0  0
 10 28  1  0  0  0  0
 10  8  1  6  0  0  0
 11 15  2  0  0  0  0
 12 28  1  0  0  0  0
 13  9  2  0  0  0  0
 13 26  1  0  0  0  0
 14  8  1  0  0  0  0
 15 23  1  0  0  0  0
 16  1  2  0  0  0  0
 16 20  1  0  0  0  0
 17  5  1  0  0  0  0
 17 25  1  0  0  0  0
 18  9  1  0  0  0  0
 19 15  1  0  0  0  0
 20  4  2  0  0  0  0
 21 22  2  0  0  0  0
 23  6  1  0  0  0  0
 24 26  1  0  0  0  0
 24 12  1  0  0  0  0
 25 19  1  0  0  0  0
 25 12  1  0  0  0  0
 26 10  1  0  0  0  0
 28 16  1  0  0  0  0
M  END
>  <MODEL>
5

>  <REMARK>
 VINA RESULT:       0.8      3.305      6.789
  Name = 
  0 active torsions:
  status: ('A' for Active; 'I' for Inactive)
                            x       y       z     vdW  Elec       q    Type
                         _______ _______ _______ _____ _____    ______ ____

>  <TORSDO>
F 0

$$$$
=
 OpenBabel11122414033D

 28 32  0  0  1  0  0  0  0  0999 V2000
  158.5480  212.1990  152.0360 C   0  0  0  0  0  0  0  0  0  0  0  0
  159.8280  208.6990  150.8340 O   0  0  0  0  0  0  0  0  0  0  0  0
  160.0120  209.5340  157.2610 C   0  0  0  0  0  1  0  0  0  0  0  0
  160.5570  213.7630  150.8630 C   0  0  0  0  0  3  0  0  0  0  0  0
  161.9260  210.4130  156.2460 C   0  0  1  0  0  3  0  0  0  0  0  0
  157.4450  211.4410  152.7030 C   0  0  0  0  0  2  0  0  0  0  0  0
  162.2120  208.7450  150.2260 O   0  0  0  0  0  0  0  0  0  0  0  0
  161.2340  208.6310  151.3610 S   0  0  0  0  0  0  0  0  0  0  0  0
  161.7040  207.1080  153.5890 C   0  0  0  0  0  0  0  0  0  0  0  0
  161.5340  209.9420  152.5210 C   0  0  2  0  0  3  0  0  0  0  0  0
  157.1630  212.7890  156.0300 O   0  0  0  0  0  0  0  0  0  0  0  0
  160.7000  211.0520  154.4050 C   0  0  2  0  0  3  0  0  0  0  0  0
  162.0160  208.1740  154.2660 N   0  0  0  0  0  0  0  0  0  0  0  0
  161.4790  207.1410  152.1830 N   0  0  0  0  0  2  0  0  0  0  0  0
  157.4980  211.9900  155.1160 C   0  0  0  0  0  0  0  0  0  0  0  0
  159.9000  211.8400  152.2050 C   0  0  0  0  0  0  0  0  0  0  0  0
  160.5990  210.7760  156.7610 N   0  0  0  0  0  0  0  0  0  0  0  0
  161.5320  205.8780  154.2820 N   0  0  0  0  0  1  0  0  0  0  0  0
  158.4130  210.8540  155.4420 C   0  0  0  0  0  2  0  0  0  0  0  0
  160.8970  212.6420  151.6230 C   0  0  0  0  0  3  0  0  0  0  0  0
  158.2160  213.3260  151.2750 C   0  0  0  0  0  3  0  0  0  0  0  0
  159.2140  214.1020  150.6850 C   0  0  0  0  0  3  0  0  0  0  0  0
  156.9800  212.1700  153.8320 O   0  0  0  0  0  0  0  0  0  0  0  0
  161.8310  210.5100  154.7650 C   0  0  2  0  0  3  0  0  0  0  0  0
  159.8610  211.3410  155.5990 C   0  0  2  0  0  3  0  0  0  0  0  0
  162.3320  209.5220  153.7650 C   0  0  2  0  0  3  0  0  0  0  0  0
  162.9590  211.3970  156.7610 C   0  0  0  0  0  1  0  0  0  0  0  0
  160.2750  210.6400  153.0380 C   0  0  1  0  0  3  0  0  0  0  0  0
  1 16  1  0  0  0  0
  1  6  1  0  0  0  0
  2  8  2  0  0  0  0
  4 20  1  0  0  0  0
  5 17  1  0  0  0  0
  5 27  1  1  0  0  0
  6 23  1  0  0  0  0
  7  8  2  0  0  0  0
  8 14  1  0  0  0  0
  9 13  2  0  0  0  0
  9 18  1  0  0  0  0
 10  8  1  1  0  0  0
 10 28  1  0  0  0  0
 10 26  1  0  0  0  0
 12 24  1  0  0  0  0
 12 25  1  0  0  0  0
 14  9  1  0  0  0  0
 15 19  1  0  0  0  0
 15 11  2  0  0  0  0
 16 28  1  0  0  0  0
 17  3  1  0  0  0  0
 19 25  1  0  0  0  0
 20 16  2  0  0  0  0
 21  1  2  0  0  0  0
 22  4  2  0  0  0  0
 22 21  1  0  0  0  0
 23 15  1  0  0  0  0
 24  5  1  0  0  0  0
 25 17  1  0  0  0  0
 26 13  1  0  0  0  0
 26 24  1  0  0  0  0
 28 12  1  0  0  0  0
M  END
>  <MODEL>
6

>  <REMARK>
 VINA RESULT:       2.0      1.861      2.522
  Name = 
  0 active torsions:
  status: ('A' for Active; 'I' for Inactive)
                            x       y       z     vdW  Elec       q    Type
                         _______ _______ _______ _____ _____    ______ ____

>  <TORSDO>
F 0

$$$$
=
 OpenBabel11122414033D

 28 32  0  0  1  0  0  0  0  0999 V2000
  159.5130  213.8870  149.5520 C   0  0  0  0  0  0  0  0  0  0  0  0
  159.2600  214.4530  153.4190 O   0  0  0  0  0  0  0  0  0  0  0  0
  163.3770  209.7550  151.6830 C   0  0  0  0  0  1  0  0  0  0  0  0
  156.8900  212.9940  149.1260 C   0  0  0  0  0  3  0  0  0  0  0  0
  161.1880  208.9460  151.8120 C   0  0  1  0  0  3  0  0  0  0  0  0
  160.9300  214.3430  149.6930 C   0  0  0  0  0  2  0  0  0  0  0  0
  157.4040  213.1860  154.4200 O   0  0  0  0  0  0  0  0  0  0  0  0
  158.8290  213.1150  153.9510 S   0  0  0  0  0  0  0  0  0  0  0  0
  160.7180  211.5330  155.1470 C   0  0  0  0  0  0  0  0  0  0  0  0
  158.9650  211.8670  152.6940 C   0  0  2  0  0  3  0  0  0  0  0  0
  162.9300  212.0090  147.8170 O   0  0  0  0  0  0  0  0  0  0  0  0
  160.3620  210.9560  151.0520 C   0  0  2  0  0  3  0  0  0  0  0  0
  160.5990  210.6530  154.1960 N   0  0  0  0  0  0  0  0  0  0  0  0
  159.8420  212.6510  155.2590 N   0  0  0  0  0  2  0  0  0  0  0  0
  162.3940  212.5470  148.8210 C   0  0  0  0  0  0  0  0  0  0  0  0
  158.9720  212.8860  150.3850 C   0  0  0  0  0  0  0  0  0  0  0  0
  162.1960  209.4590  150.8750 N   0  0  0  0  0  0  0  0  0  0  0  0
  161.7860  211.4020  156.0770 N   0  0  0  0  0  1  0  0  0  0  0  0
  162.5240  211.8880  150.1570 C   0  0  0  0  0  2  0  0  0  0  0  0
  157.6610  212.4380  150.1490 C   0  0  0  0  0  3  0  0  0  0  0  0
  158.7340  214.4370  148.5280 C   0  0  0  0  0  3  0  0  0  0  0  0
  157.4260  213.9990  148.3180 C   0  0  0  0  0  3  0  0  0  0  0  0
  161.7220  213.7610  148.6640 O   0  0  0  0  0  0  0  0  0  0  0  0
  160.1580  210.0130  151.9300 C   0  0  2  0  0  3  0  0  0  0  0  0
  161.5910  210.6730  150.2630 C   0  0  2  0  0  3  0  0  0  0  0  0
  159.5370  210.5290  153.1850 C   0  0  2  0  0  3  0  0  0  0  0  0
  160.5610  207.6860  151.2470 C   0  0  0  0  0  1  0  0  0  0  0  0
  159.8050  212.2700  151.4800 C   0  0  1  0  0  3  0  0  0  0  0  0
  1  6  1  0  0  0  0
  1 16  1  0  0  0  0
  2  8  2  0  0  0  0
  4 20  1  0  0  0  0
  5 27  1  6  0  0  0
  5 24  1  0  0  0  0
  8  7  2  0  0  0  0
  8 14  1  0  0  0  0
  9 14  1  0  0  0  0
  9 18  1  0  0  0  0
 10 26  1  0  0  0  0
 10  8  1  1  0  0  0
 11 15  2  0  0  0  0
 12 28  1  0  0  0  0
 12 24  1  0  0  0  0
 13  9  2  0  0  0  0
 15 19  1  0  0  0  0
 16 28  1  0  0  0  0
 17  3  1  0  0  0  0
 17  5  1  0  0  0  0
 19 25  1  0  0  0  0
 20 16  2  0  0  0  0
 21  1  2  0  0  0  0
 22 21  1  0  0  0  0
 22  4  2  0  0  0  0
 23 15  1  0  0  0  0
 23  6  1  0  0  0  0
 24 26  1  0  0  0  0
 25 17  1  0  0  0  0
 25 12  1  0  0  0  0
 26 13  1  0  0  0  0
 28 10  1  0  0  0  0
M  END
>  <MODEL>
7

>  <REMARK>
 VINA RESULT:       2.1      2.778      5.411
  Name = 
  0 active torsions:
  status: ('A' for Active; 'I' for Inactive)
                            x       y       z     vdW  Elec       q    Type
                         _______ _______ _______ _____ _____    ______ ____

>  <TORSDO>
F 0

$$$$
