=
 OpenBabel11122412453D

 30 35  0  0  1  0  0  0  0  0999 V2000
  160.7500  205.7400  149.8870 C   0  0  0  0  0  0  0  0  0  0  0  0
  160.9400  203.3130  149.6360 C   0  0  0  0  0  0  0  0  0  0  0  0
  161.0720  205.4120  154.0870 N   0  0  0  0  0  0  0  0  0  0  0  0
  160.7240  207.0220  150.7070 C   0  0  2  0  0  3  0  0  0  0  0  0
  160.5450  205.9660  148.4180 C   0  0  0  0  0  2  0  0  0  0  0  0
  162.4160  209.1160  148.2140 O   0  0  0  0  0  0  0  0  0  0  0  0
  160.7000  209.7000  151.8810 C   0  0  1  0  0  3  0  0  0  0  0  0
  161.8840  208.1010  148.7440 C   0  0  0  0  0  0  0  0  0  0  0  0
  160.7890  208.9510  153.1260 N   0  0  0  0  0  0  0  0  0  0  0  0
  160.9880  206.6710  154.3990 C   0  0  0  0  0  0  0  0  0  0  0  0
  161.4200  207.0230  147.9080 N   0  0  0  0  0  0  0  0  0  0  0  0
  161.8510  207.9700  150.2510 C   0  0  1  0  0  3  0  0  0  0  0  0
  161.0910  202.0540  150.2220 C   0  0  0  0  0  3  0  0  0  0  0  0
  160.8600  209.8420  154.2220 C   0  0  0  0  0  3  0  0  0  0  0  0
  160.7560  211.1670  152.3200 C   0  0  0  0  0  2  0  0  0  0  0  0
  160.8500  203.3550  148.2830 F   0  0  0  0  0  0  0  0  0  0  0  0
  160.9730  205.3850  152.6640 C   0  0  0  0  0  0  0  0  0  0  0  0
  161.2030  201.9180  151.6030 C   0  0  0  0  0  3  0  0  0  0  0  0
  160.8980  204.4870  150.4390 C   0  0  0  0  0  0  0  0  0  0  0  0
  160.8280  206.7130  152.1610 C   0  0  0  0  0  0  0  0  0  0  0  0
  161.0520  207.1510  155.8060 C   0  0  0  0  0  1  0  0  0  0  0  0
  160.8290  207.5190  153.2040 C   0  0  0  0  0  0  0  0  0  0  0  0
  160.8410  211.0960  153.8130 C   0  0  0  0  0  3  0  0  0  0  0  0
  162.8120  210.0450  150.8540 O   0  0  0  0  0  0  0  0  0  0  0  0
  161.1650  203.0460  152.4160 C   0  0  0  0  0  3  0  0  0  0  0  0
  161.0150  204.3210  151.8590 C   0  0  0  0  0  0  0  0  0  0  0  0
  161.8380  209.3140  150.9590 C   0  0  0  0  0  0  0  0  0  0  0  0
  161.6850  207.0510  146.4760 C   0  0  0  0  0  2  0  0  0  0  0  0
  162.9280  204.9460  145.9770 C   0  0  0  0  0  1  0  0  0  0  0  0
  161.5890  205.6520  145.8850 C   0  0  0  0  0  2  0  0  0  0  0  0
  1 19  2  0  0  0  0
  2 13  2  0  0  0  0
  2 19  1  0  0  0  0
  3 10  2  0  0  0  0
  4  1  1  6  0  0  0
  4 20  1  0  0  0  0
  5  1  1  0  0  0  0
  6  8  2  0  0  0  0
  7 15  1  1  0  0  0
  7  9  1  0  0  0  0
  9 22  1  0  0  0  0
  9 14  1  0  0  0  0
 10 21  1  0  0  0  0
 11  5  1  0  0  0  0
 11  8  1  0  0  0  0
 12  8  1  6  0  0  0
 12  4  1  0  0  0  0
 12 27  1  0  0  0  0
 13 18  1  0  0  0  0
 15 23  1  0  0  0  0
 16  2  1  0  0  0  0
 17  3  1  0  0  0  0
 18 25  2  0  0  0  0
 19 26  1  0  0  0  0
 20 17  1  0  0  0  0
 20 22  2  0  0  0  0
 22 10  1  0  0  0  0
 23 14  2  0  0  0  0
 24 27  2  0  0  0  0
 26 25  1  0  0  0  0
 26 17  2  0  0  0  0
 27  7  1  0  0  0  0
 28 11  1  0  0  0  0
 30 29  1  0  0  0  0
 30 28  1  0  0  0  0
M  END
>  <MODEL>
1

>  <REMARK>
 VINA RESULT:      -9.7      0.000      0.000
  Name = 
  2 active torsions:
  status: ('A' for Active; 'I' for Inactive)
    1  A    between atoms: N_11  and  C_28
    2  A    between atoms: C_28  and  C_30
                            x       y       z     vdW  Elec       q    Type
                         _______ _______ _______ _____ _____    ______ ____

>  <TORSDO>
F 2

$$$$
=
 OpenBabel11122412453D

 30 35  0  0  1  0  0  0  0  0999 V2000
  160.9760  207.8620  151.0970 C   0  0  0  0  0  0  0  0  0  0  0  0
  161.6130  210.2040  150.7840 C   0  0  0  0  0  0  0  0  0  0  0  0
  162.1830  206.9240  147.1570 N   0  0  0  0  0  0  0  0  0  0  0  0
  160.8460  206.4180  150.6350 C   0  0  2  0  0  3  0  0  0  0  0  0
  160.4420  208.0980  152.4790 C   0  0  0  0  0  2  0  0  0  0  0  0
  161.5370  204.8990  153.9030 O   0  0  0  0  0  0  0  0  0  0  0  0
  160.4960  203.5500  150.1840 C   0  0  1  0  0  3  0  0  0  0  0  0
  161.3440  205.7860  153.0260 C   0  0  0  0  0  0  0  0  0  0  0  0
  160.9830  203.8890  148.8560 N   0  0  0  0  0  0  0  0  0  0  0  0
  161.9010  205.6550  147.1530 C   0  0  0  0  0  0  0  0  0  0  0  0
  160.9590  207.1150  153.4310 N   0  0  0  0  0  0  0  0  0  0  0  0
  161.6370  205.4850  151.5730 C   0  0  1  0  0  3  0  0  0  0  0  0
  162.1370  211.2060  149.9630 C   0  0  0  0  0  3  0  0  0  0  0  0
  161.0830  202.7220  148.0640 C   0  0  0  0  0  3  0  0  0  0  0  0
  160.3310  202.0270  150.1460 C   0  0  0  0  0  2  0  0  0  0  0  0
  161.2510  210.5640  152.0400 F   0  0  0  0  0  0  0  0  0  0  0  0
  161.8120  207.3710  148.4600 C   0  0  0  0  0  0  0  0  0  0  0  0
  162.5460  210.9230  148.6640 C   0  0  0  0  0  3  0  0  0  0  0  0
  161.4880  208.8690  150.3090 C   0  0  0  0  0  0  0  0  0  0  0  0
  161.2970  206.2790  149.2220 C   0  0  0  0  0  0  0  0  0  0  0  0
  162.1410  204.7890  145.9670 C   0  0  0  0  0  1  0  0  0  0  0  0
  161.3360  205.2170  148.4420 C   0  0  0  0  0  0  0  0  0  0  0  0
  160.7220  201.6540  148.7490 C   0  0  0  0  0  3  0  0  0  0  0  0
  162.2440  203.2060  151.7530 O   0  0  0  0  0  0  0  0  0  0  0  0
  162.4340  209.6290  148.1680 C   0  0  0  0  0  3  0  0  0  0  0  0
  161.9150  208.6030  148.9650 C   0  0  0  0  0  0  0  0  0  0  0  0
  161.4840  204.0110  151.2350 C   0  0  0  0  0  0  0  0  0  0  0  0
  160.9240  207.4590  154.8470 C   0  0  0  0  0  2  0  0  0  0  0  0
  161.6540  209.6990  155.6660 C   0  0  0  0  0  1  0  0  0  0  0  0
  160.5200  208.9140  155.0350 C   0  0  0  0  0  2  0  0  0  0  0  0
  1  5  1  0  0  0  0
  2 16  1  0  0  0  0
  3 17  1  0  0  0  0
  4 20  1  6  0  0  0
  4  1  1  0  0  0  0
  4 12  1  0  0  0  0
  5 11  1  0  0  0  0
  7 15  1  6  0  0  0
  7 27  1  0  0  0  0
  8 11  1  0  0  0  0
  8  6  2  0  0  0  0
  9  7  1  0  0  0  0
 10  3  2  0  0  0  0
 10 22  1  0  0  0  0
 11 28  1  0  0  0  0
 12 27  1  6  0  0  0
 12  8  1  0  0  0  0
 13  2  2  0  0  0  0
 14 23  2  0  0  0  0
 14  9  1  0  0  0  0
 17 26  2  0  0  0  0
 17 20  1  0  0  0  0
 18 13  1  0  0  0  0
 19  2  1  0  0  0  0
 19  1  2  0  0  0  0
 21 10  1  0  0  0  0
 22  9  1  0  0  0  0
 22 20  2  0  0  0  0
 23 15  1  0  0  0  0
 25 18  2  0  0  0  0
 25 26  1  0  0  0  0
 26 19  1  0  0  0  0
 27 24  2  0  0  0  0
 28 30  1  0  0  0  0
 30 29  1  0  0  0  0
M  END
>  <MODEL>
2

>  <REMARK>
 VINA RESULT:      -8.8      2.623      7.187
  Name = 
  2 active torsions:
  status: ('A' for Active; 'I' for Inactive)
    1  A    between atoms: N_11  and  C_28
    2  A    between atoms: C_28  and  C_30
                            x       y       z     vdW  Elec       q    Type
                         _______ _______ _______ _____ _____    ______ ____

>  <TORSDO>
F 2

$$$$
=
 OpenBabel11122412453D

 30 35  0  0  1  0  0  0  0  0999 V2000
  161.9800  208.2200  151.3500 C   0  0  0  0  0  0  0  0  0  0  0  0
  161.4810  208.9140  153.6430 C   0  0  0  0  0  0  0  0  0  0  0  0
  160.7370  204.2700  152.1900 N   0  0  0  0  0  0  0  0  0  0  0  0
  162.0280  207.2020  150.2200 C   0  0  0  0  0  0  0  0  0  0  0  0
  162.5210  209.5660  150.9650 C   0  0  0  0  0  2  0  0  0  0  0  0
  161.2360  209.5660  147.5280 O   0  0  0  0  0  0  0  0  0  0  0  0
  162.2110  205.6020  147.7800 C   0  0  1  0  0  3  0  0  0  0  0  0
  161.4840  209.1290  148.6870 C   0  0  0  0  0  0  0  0  0  0  0  0
  161.7500  204.5410  148.6640 N   0  0  0  0  0  0  0  0  0  0  0  0
  160.9440  203.7370  151.0220 C   0  0  0  0  0  0  0  0  0  0  0  0
  161.9440  210.0380  149.7060 N   0  0  0  0  0  0  0  0  0  0  0  0
  161.1800  207.6870  149.0280 C   0  0  1  0  0  3  0  0  0  0  0  0
  161.0210  208.5900  154.9220 C   0  0  0  0  0  3  0  0  0  0  0  0
  161.5860  203.3410  147.9350 C   0  0  0  0  0  3  0  0  0  0  0  0
  162.2870  204.9350  146.4020 C   0  0  0  0  0  2  0  0  0  0  0  0
  161.8590  210.2000  153.4330 F   0  0  0  0  0  0  0  0  0  0  0  0
  161.1270  205.6340  152.0380 C   0  0  1  0  0  3  0  0  0  0  0  0
  160.6010  207.2980  155.2230 C   0  0  0  0  0  3  0  0  0  0  0  0
  161.5310  207.9280  152.6190 C   0  0  0  0  0  0  0  0  0  0  0  0
  161.5750  205.8660  150.7030 C   0  0  0  0  0  0  0  0  0  0  0  0
  160.6590  202.3050  150.7370 C   0  0  0  0  0  1  0  0  0  0  0  0
  161.4770  204.7190  150.0610 C   0  0  0  0  0  0  0  0  0  0  0  0
  161.8810  203.5170  146.6610 C   0  0  0  0  0  3  0  0  0  0  0  0
  160.4400  206.9250  146.9160 O   0  0  0  0  0  0  0  0  0  0  0  0
  160.6390  206.3110  154.2450 C   0  0  0  0  0  3  0  0  0  0  0  0
  161.0940  206.6030  152.9550 C   0  0  0  0  0  0  0  0  0  0  0  0
  161.2480  206.7690  147.8200 C   0  0  0  0  0  0  0  0  0  0  0  0
  161.9930  211.4690  149.4330 C   0  0  0  0  0  2  0  0  0  0  0  0
  162.6150  212.9040  147.4890 C   0  0  0  0  0  1  0  0  0  0  0  0
  163.0680  211.7810  148.4030 C   0  0  0  0  0  2  0  0  0  0  0  0
  1 19  1  0  0  0  0
  2 13  1  0  0  0  0
  4 20  1  0  0  0  0
  4  1  2  0  0  0  0
  5  1  1  0  0  0  0
  6  8  2  0  0  0  0
  7 15  1  6  0  0  0
  7 27  1  0  0  0  0
  7  9  1  0  0  0  0
  8 12  1  0  0  0  0
  8 11  1  0  0  0  0
  9 22  1  0  0  0  0
 10  3  2  0  0  0  0
 11  5  1  0  0  0  0
 12 27  1  6  0  0  0
 12  4  1  0  0  0  0
 13 18  2  0  0  0  0
 14  9  1  0  0  0  0
 15 23  1  0  0  0  0
 16  2  1  0  0  0  0
 17 20  1  6  0  0  0
 17  3  1  0  0  0  0
 17 26  1  0  0  0  0
 19 26  1  0  0  0  0
 19  2  2  0  0  0  0
 21 10  1  0  0  0  0
 22 20  2  0  0  0  0
 22 10  1  0  0  0  0
 23 14  2  0  0  0  0
 24 27  2  0  0  0  0
 25 18  1  0  0  0  0
 26 25  2  0  0  0  0
 28 11  1  0  0  0  0
 29 30  1  0  0  0  0
 30 28  1  0  0  0  0
M  END
>  <MODEL>
3

>  <REMARK>
 VINA RESULT:      -8.0      2.479      5.623
  Name = 
  2 active torsions:
  status: ('A' for Active; 'I' for Inactive)
    1  A    between atoms: N_11  and  C_28
    2  A    between atoms: C_28  and  C_30
                            x       y       z     vdW  Elec       q    Type
                         _______ _______ _______ _____ _____    ______ ____

>  <TORSDO>
F 2

$$$$
