=
 OpenBabel11122412443D

 30 35  0  0  1  0  0  0  0  0999 V2000
  160.7550  205.8230  149.9470 C   0  0  0  0  0  0  0  0  0  0  0  0
  160.9380  203.3940  149.7050 C   0  0  0  0  0  0  0  0  0  0  0  0
  161.0880  205.5050  154.1490 N   0  0  0  0  0  0  0  0  0  0  0  0
  160.7310  207.1050  150.7650 C   0  0  2  0  0  3  0  0  0  0  0  0
  160.5420  206.0430  148.4790 C   0  0  0  0  0  2  0  0  0  0  0  0
  162.3890  209.2070  148.2620 O   0  0  0  0  0  0  0  0  0  0  0  0
  160.6990  209.7740  151.9310 C   0  0  1  0  0  3  0  0  0  0  0  0
  161.8690  208.1880  148.7950 C   0  0  0  0  0  0  0  0  0  0  0  0
  160.7910  209.0480  153.1880 N   0  0  0  0  0  0  0  0  0  0  0  0
  161.0050  206.7650  154.4580 C   0  0  0  0  0  0  0  0  0  0  0  0
  161.4040  207.1070  147.9620 N   0  0  0  0  0  0  0  0  0  0  0  0
  161.8530  208.0510  150.3010 C   0  0  1  0  0  3  0  0  0  0  0  0
  161.0880  202.1360  150.2940 C   0  0  0  0  0  3  0  0  0  0  0  0
  160.7380  209.9140  154.3470 C   0  0  0  0  0  2  0  0  0  0  0  0
  160.7160  211.2490  152.3040 C   0  0  0  0  0  2  0  0  0  0  0  0
  160.8430  203.4310  148.3520 F   0  0  0  0  0  0  0  0  0  0  0  0
  160.9890  205.4760  152.7250 C   0  0  0  0  0  0  0  0  0  0  0  0
  161.2040  202.0050  151.6740 C   0  0  0  0  0  3  0  0  0  0  0  0
  160.9020  204.5710  150.5030 C   0  0  0  0  0  0  0  0  0  0  0  0
  160.8460  206.8030  152.2210 C   0  0  0  0  0  0  0  0  0  0  0  0
  161.0740  207.2430  155.8660 C   0  0  0  0  0  1  0  0  0  0  0  0
  160.8470  207.6150  153.2620 C   0  0  0  0  0  0  0  0  0  0  0  0
  160.4840  211.3110  153.8090 C   0  0  0  0  0  2  0  0  0  0  0  0
  162.8190  210.1190  150.9190 O   0  0  0  0  0  0  0  0  0  0  0  0
  161.1720  203.1350  152.4840 C   0  0  0  0  0  3  0  0  0  0  0  0
  161.0250  204.4090  151.9240 C   0  0  0  0  0  0  0  0  0  0  0  0
  161.8410  209.3920  151.0140 C   0  0  0  0  0  0  0  0  0  0  0  0
  161.6530  207.1400  146.5260 C   0  0  0  0  0  2  0  0  0  0  0  0
  162.8410  205.0220  145.9550 C   0  0  0  0  0  1  0  0  0  0  0  0
  161.5110  205.7490  145.9270 C   0  0  0  0  0  2  0  0  0  0  0  0
  1 19  2  0  0  0  0
  2 13  2  0  0  0  0
  2 19  1  0  0  0  0
  3 10  2  0  0  0  0
  4  1  1  6  0  0  0
  4 20  1  0  0  0  0
  5  1  1  0  0  0  0
  6  8  2  0  0  0  0
  7 15  1  1  0  0  0
  7  9  1  0  0  0  0
  9 22  1  0  0  0  0
  9 14  1  0  0  0  0
 10 21  1  0  0  0  0
 11  5  1  0  0  0  0
 11  8  1  0  0  0  0
 12  8  1  6  0  0  0
 12  4  1  0  0  0  0
 12 27  1  0  0  0  0
 13 18  1  0  0  0  0
 15 23  1  0  0  0  0
 16  2  1  0  0  0  0
 17  3  1  0  0  0  0
 18 25  2  0  0  0  0
 19 26  1  0  0  0  0
 20 17  1  0  0  0  0
 20 22  2  0  0  0  0
 22 10  1  0  0  0  0
 23 14  1  0  0  0  0
 24 27  2  0  0  0  0
 26 25  1  0  0  0  0
 26 17  2  0  0  0  0
 27  7  1  0  0  0  0
 28 11  1  0  0  0  0
 30 29  1  0  0  0  0
 30 28  1  0  0  0  0
M  END
>  <MODEL>
1

>  <REMARK>
 VINA RESULT:      -9.7      0.000      0.000
  Name = 
  2 active torsions:
  status: ('A' for Active; 'I' for Inactive)
    1  A    between atoms: N_11  and  C_28
    2  A    between atoms: C_28  and  C_30
                            x       y       z     vdW  Elec       q    Type
                         _______ _______ _______ _____ _____    ______ ____

>  <TORSDO>
F 2

$$$$
=
 OpenBabel11122412443D

 30 35  0  0  1  0  0  0  0  0999 V2000
  160.9910  207.9420  151.0920 C   0  0  0  0  0  0  0  0  0  0  0  0
  161.5980  210.2900  150.7540 C   0  0  0  0  0  0  0  0  0  0  0  0
  162.2310  206.9780  147.1680 N   0  0  0  0  0  0  0  0  0  0  0  0
  160.8810  206.4930  150.6430 C   0  0  2  0  0  3  0  0  0  0  0  0
  160.4440  208.1880  152.4660 C   0  0  0  0  0  2  0  0  0  0  0  0
  161.5430  205.0060  153.9260 O   0  0  0  0  0  0  0  0  0  0  0  0
  160.5600  203.6310  150.2150 C   0  0  1  0  0  3  0  0  0  0  0  0
  161.3560  205.8870  153.0420 C   0  0  0  0  0  0  0  0  0  0  0  0
  161.0480  203.9400  148.8810 N   0  0  0  0  0  0  0  0  0  0  0  0
  161.9640  205.7060  147.1730 C   0  0  0  0  0  0  0  0  0  0  0  0
  160.9540  207.2150  153.4330 N   0  0  0  0  0  0  0  0  0  0  0  0
  161.6740  205.5810  151.5960 C   0  0  1  0  0  3  0  0  0  0  0  0
  162.1110  211.2900  149.9250 C   0  0  0  0  0  3  0  0  0  0  0  0
  161.0620  202.7910  148.0010 C   0  0  0  0  0  2  0  0  0  0  0  0
  160.3600  202.1220  150.2400 C   0  0  0  0  0  2  0  0  0  0  0  0
  161.2240  210.6600  152.0050 F   0  0  0  0  0  0  0  0  0  0  0  0
  161.8510  207.4330  148.4670 C   0  0  0  0  0  0  0  0  0  0  0  0
  162.5300  210.9980  148.6310 C   0  0  0  0  0  3  0  0  0  0  0  0
  161.4940  208.9480  150.2940 C   0  0  0  0  0  0  0  0  0  0  0  0
  161.3480  206.3410  149.2350 C   0  0  0  0  0  0  0  0  0  0  0  0
  162.2240  204.8350  145.9950 C   0  0  0  0  0  1  0  0  0  0  0  0
  161.4010  205.2700  148.4660 C   0  0  0  0  0  0  0  0  0  0  0  0
  160.4320  201.6580  148.7910 C   0  0  0  0  0  2  0  0  0  0  0  0
  162.3170  203.3140  151.7800 O   0  0  0  0  0  0  0  0  0  0  0  0
  162.4410  209.6970  148.1500 C   0  0  0  0  0  3  0  0  0  0  0  0
  161.9330  208.6710  148.9560 C   0  0  0  0  0  0  0  0  0  0  0  0
  161.5420  204.1060  151.2630 C   0  0  0  0  0  0  0  0  0  0  0  0
  160.8930  207.5680  154.8460 C   0  0  0  0  0  2  0  0  0  0  0  0
  161.6740  209.7960  155.6520 C   0  0  0  0  0  1  0  0  0  0  0  0
  160.5270  209.0340  155.0150 C   0  0  0  0  0  2  0  0  0  0  0  0
  1  5  1  0  0  0  0
  2 16  1  0  0  0  0
  3 10  2  0  0  0  0
  3 17  1  0  0  0  0
  4 20  1  6  0  0  0
  4  1  1  0  0  0  0
  4 12  1  0  0  0  0
  5 11  1  0  0  0  0
  7 15  1  6  0  0  0
  7 27  1  0  0  0  0
  8 11  1  0  0  0  0
  8  6  2  0  0  0  0
  9  7  1  0  0  0  0
 10 22  1  0  0  0  0
 11 28  1  0  0  0  0
 12 27  1  6  0  0  0
 12  8  1  0  0  0  0
 13  2  2  0  0  0  0
 14 23  1  0  0  0  0
 14  9  1  0  0  0  0
 17 26  2  0  0  0  0
 17 20  1  0  0  0  0
 18 13  1  0  0  0  0
 19  2  1  0  0  0  0
 19  1  2  0  0  0  0
 21 10  1  0  0  0  0
 22  9  1  0  0  0  0
 22 20  2  0  0  0  0
 23 15  1  0  0  0  0
 25 18  2  0  0  0  0
 25 26  1  0  0  0  0
 26 19  1  0  0  0  0
 27 24  2  0  0  0  0
 28 30  1  0  0  0  0
 30 29  1  0  0  0  0
M  END
>  <MODEL>
2

>  <REMARK>
 VINA RESULT:      -8.8      2.622      7.198
  Name = 
  2 active torsions:
  status: ('A' for Active; 'I' for Inactive)
    1  A    between atoms: N_11  and  C_28
    2  A    between atoms: C_28  and  C_30
                            x       y       z     vdW  Elec       q    Type
                         _______ _______ _______ _____ _____    ______ ____

>  <TORSDO>
F 2

$$$$
=
 OpenBabel11122412443D

 30 35  0  0  1  0  0  0  0  0999 V2000
  161.9760  208.1620  151.2790 C   0  0  0  0  0  0  0  0  0  0  0  0
  161.4920  208.7720  153.6000 C   0  0  0  0  0  0  0  0  0  0  0  0
  160.7180  204.1890  151.9810 N   0  0  0  0  0  0  0  0  0  0  0  0
  162.0150  207.1840  150.1150 C   0  0  0  0  0  0  0  0  0  0  0  0
  162.5250  209.5170  150.9440 C   0  0  0  0  0  2  0  0  0  0  0  0
  161.2540  209.6380  147.5030 O   0  0  0  0  0  0  0  0  0  0  0  0
  162.1940  205.6720  147.6330 C   0  0  1  0  0  3  0  0  0  0  0  0
  161.4930  209.1640  148.6480 C   0  0  0  0  0  0  0  0  0  0  0  0
  161.7320  204.5700  148.4610 N   0  0  0  0  0  0  0  0  0  0  0  0
  160.9190  203.6960  150.7950 C   0  0  0  0  0  0  0  0  0  0  0  0
  161.9580  210.0360  149.6970 N   0  0  0  0  0  0  0  0  0  0  0  0
  161.1700  207.7170  148.9460 C   0  0  1  0  0  3  0  0  0  0  0  0
  161.0360  208.4040  154.8680 C   0  0  0  0  0  3  0  0  0  0  0  0
  161.6660  203.3130  147.7470 C   0  0  0  0  0  2  0  0  0  0  0  0
  162.3170  205.1060  146.2250 C   0  0  0  0  0  2  0  0  0  0  0  0
  161.8750  210.0630  153.4360 F   0  0  0  0  0  0  0  0  0  0  0  0
  161.1110  205.5570  151.8750 C   0  0  1  0  0  3  0  0  0  0  0  0
  160.6130  207.1040  155.1240 C   0  0  0  0  0  3  0  0  0  0  0  0
  161.5310  207.8250  152.5390 C   0  0  0  0  0  0  0  0  0  0  0  0
  161.5520  205.8340  150.5470 C   0  0  0  0  0  0  0  0  0  0  0  0
  160.6250  202.2750  150.4660 C   0  0  0  0  0  1  0  0  0  0  0  0
  161.4500  204.7090  149.8630 C   0  0  0  0  0  0  0  0  0  0  0  0
  162.2310  203.5910  146.3660 C   0  0  0  0  0  2  0  0  0  0  0  0
  160.4110  207.0130  146.8200 O   0  0  0  0  0  0  0  0  0  0  0  0
  160.6400  206.1530  154.1100 C   0  0  0  0  0  3  0  0  0  0  0  0
  161.0880  206.4910  152.8280 C   0  0  0  0  0  0  0  0  0  0  0  0
  161.2290  206.8350  147.7110 C   0  0  0  0  0  0  0  0  0  0  0  0
  162.0270  211.4730  149.4690 C   0  0  0  0  0  2  0  0  0  0  0  0
  162.6000  212.9530  147.5440 C   0  0  0  0  0  1  0  0  0  0  0  0
  163.0660  211.7970  148.4060 C   0  0  0  0  0  2  0  0  0  0  0  0
  1 19  1  0  0  0  0
  2 13  1  0  0  0  0
  4 20  1  0  0  0  0
  4  1  2  0  0  0  0
  5  1  1  0  0  0  0
  6  8  2  0  0  0  0
  7 15  1  6  0  0  0
  7 27  1  0  0  0  0
  7  9  1  0  0  0  0
  8 12  1  0  0  0  0
  8 11  1  0  0  0  0
  9 22  1  0  0  0  0
 10  3  2  0  0  0  0
 11  5  1  0  0  0  0
 12 27  1  6  0  0  0
 12  4  1  0  0  0  0
 13 18  2  0  0  0  0
 14  9  1  0  0  0  0
 15 23  1  0  0  0  0
 16  2  1  0  0  0  0
 17 20  1  6  0  0  0
 17  3  1  0  0  0  0
 17 26  1  0  0  0  0
 19 26  1  0  0  0  0
 19  2  2  0  0  0  0
 21 10  1  0  0  0  0
 22 20  2  0  0  0  0
 22 10  1  0  0  0  0
 23 14  1  0  0  0  0
 24 27  2  0  0  0  0
 25 18  1  0  0  0  0
 26 25  2  0  0  0  0
 28 11  1  0  0  0  0
 29 30  1  0  0  0  0
 30 28  1  0  0  0  0
M  END
>  <MODEL>
3

>  <REMARK>
 VINA RESULT:      -7.6      2.462      5.650
  Name = 
  2 active torsions:
  status: ('A' for Active; 'I' for Inactive)
    1  A    between atoms: N_11  and  C_28
    2  A    between atoms: C_28  and  C_30
                            x       y       z     vdW  Elec       q    Type
                         _______ _______ _______ _____ _____    ______ ____

>  <TORSDO>
F 2

$$$$
