=
 OpenBabel11122412483D

 32 37  0  0  1  0  0  0  0  0999 V2000
  161.1370  210.7160  153.6140 O   0  0  0  0  0  0  0  0  0  0  0  0
  161.5750  206.2500  150.1310 C   0  0  0  0  0  0  0  0  0  0  0  0
  161.1380  201.7090  151.9960 C   0  0  0  0  0  3  0  0  0  0  0  0
  160.9450  201.1830  150.7180 C   0  0  0  0  0  3  0  0  0  0  0  0
  161.5550  206.6420  147.6070 C   0  0  2  0  0  3  0  0  0  0  0  0
  161.3270  205.9560  146.2870 C   0  0  0  0  0  0  0  0  0  0  0  0
  161.6040  208.1830  151.5350 C   0  0  0  0  0  0  0  0  0  0  0  0
  161.2760  205.9980  152.5140 C   0  0  0  0  0  3  0  0  0  0  0  0
  160.8980  204.3770  144.6990 C   0  0  2  0  0  3  0  0  0  0  0  0
  161.2190  207.9350  153.9780 N   0  0  0  0  0  2  0  0  0  0  0  0
  161.2810  203.0870  152.1690 C   0  0  0  0  0  3  0  0  0  0  0  0
  161.3750  205.4150  151.2450 C   0  0  0  0  0  0  0  0  0  0  0  0
  161.2420  203.9520  151.0650 C   0  0  0  0  0  0  0  0  0  0  0  0
  160.9280  204.3570  148.5890 C   0  0  2  0  0  3  0  0  0  0  0  0
  160.9200  205.6850  144.0230 N   0  0  0  0  0  0  0  0  0  0  0  0
  160.7490  210.4200  152.2970 C   0  0  0  0  0  2  0  0  0  0  0  0
  161.3810  207.3800  152.6730 C   0  0  0  0  0  0  0  0  0  0  0  0
  161.1810  206.6120  145.0470 N   0  0  0  0  0  0  0  0  0  0  0  0
  161.8730  209.6560  151.6210 C   0  0  0  0  0  2  0  0  0  0  0  0
  159.9840  208.6240  154.3210 C   0  0  0  0  0  2  0  0  0  0  0  0
  160.9010  202.0340  149.6120 C   0  0  0  0  0  3  0  0  0  0  0  0
  161.0710  203.4200  149.7680 C   0  0  0  0  0  0  0  0  0  0  0  0
  161.2610  203.6810  147.2530 C   0  0  0  0  0  2  0  0  0  0  0  0
  161.7090  207.5930  150.3150 N   0  0  0  0  0  0  0  0  0  0  0  0
  162.7560  207.5660  147.4830 C   0  0  0  0  0  1  0  0  0  0  0  0
  159.2660  203.6080  144.4800 S   0  0  0  0  0  1  0  0  0  0  0  0
  161.7830  205.6360  148.7620 C   0  0  2  0  0  3  0  0  0  0  0  0
  161.1350  204.6710  146.1400 C   0  0  0  0  0  0  0  0  0  0  0  0
  160.2300  210.1230  154.5230 C   0  0  2  0  0  3  0  0  0  0  0  0
  158.9560  210.8980  154.6440 C   0  0  0  0  0  0  0  0  0  0  0  0
  158.8000  212.1070  153.9750 O   0  0  0  0  0  0  0  0  0  0  0  0
  158.0290  210.4660  155.3760 O   0  0  0  0  0  1  0  0  0  0  0  0
  1 29  1  0  0  0  0
  2 24  2  0  0  0  0
  2 12  1  0  0  0  0
  3 11  1  0  0  0  0
  4  3  2  0  0  0  0
  5 25  1  6  0  0  0
  5 27  1  0  0  0  0
  6  5  1  0  0  0  0
  7 19  1  0  0  0  0
  7 17  2  0  0  0  0
  8 17  1  0  0  0  0
  9 26  1  1  0  0  0
  9 28  1  0  0  0  0
 10 20  1  0  0  0  0
 12  8  2  0  0  0  0
 13 12  1  0  0  0  0
 13 11  2  0  0  0  0
 14 23  1  6  0  0  0
 14 27  1  0  0  0  0
 14 22  1  0  0  0  0
 15  9  1  0  0  0  0
 15 18  2  0  0  0  0
 16  1  1  0  0  0  0
 17 10  1  0  0  0  0
 18  6  1  0  0  0  0
 19 16  1  0  0  0  0
 20 29  1  0  0  0  0
 21 22  2  0  0  0  0
 21  4  1  0  0  0  0
 22 13  1  0  0  0  0
 24  7  1  0  0  0  0
 27  2  1  1  0  0  0
 28  6  2  0  0  0  0
 28 23  1  0  0  0  0
 29 30  1  6  0  0  0
 30 32  1  0  0  0  0
 31 30  2  0  0  0  0
M  END
>  <MODEL>
1

>  <REMARK>
 VINA RESULT:      -8.0      0.000      0.000
  Name = 
  1 active torsions:
  status: ('A' for Active; 'I' for Inactive)
    1  A    between atoms: C_29  and  C_30
                            x       y       z     vdW  Elec       q    Type
                         _______ _______ _______ _____ _____    ______ ____

>  <TORSDO>
F 1

$$$$
=
 OpenBabel11122412483D

 32 37  0  0  1  0  0  0  0  0999 V2000
  161.0190  213.3050  148.0650 O   0  0  0  0  0  0  0  0  0  0  0  0
  161.6110  207.9770  149.9460 C   0  0  0  0  0  0  0  0  0  0  0  0
  161.1860  207.0840  154.7740 C   0  0  0  0  0  3  0  0  0  0  0  0
  161.0350  205.7190  154.5270 C   0  0  0  0  0  3  0  0  0  0  0  0
  161.6530  206.0650  148.2530 C   0  0  2  0  0  3  0  0  0  0  0  0
  161.4700  204.5770  148.1180 C   0  0  0  0  0  0  0  0  0  0  0  0
  161.5760  210.2030  149.0770 C   0  0  0  0  0  0  0  0  0  0  0  0
  161.2520  209.8380  151.4440 C   0  0  0  0  0  3  0  0  0  0  0  0
  161.1050  202.3760  148.5900 C   0  0  2  0  0  3  0  0  0  0  0  0
  161.1290  212.1130  150.6020 N   0  0  0  0  0  2  0  0  0  0  0  0
  161.3050  207.9780  153.7080 C   0  0  0  0  0  3  0  0  0  0  0  0
  161.3920  208.4590  151.2500 C   0  0  0  0  0  0  0  0  0  0  0  0
  161.2840  207.5140  152.3830 C   0  0  0  0  0  0  0  0  0  0  0  0
  161.0310  205.6390  150.7050 C   0  0  2  0  0  3  0  0  0  0  0  0
  161.1260  202.5130  147.1230 N   0  0  0  0  0  0  0  0  0  0  0  0
  160.6700  212.0250  147.6020 C   0  0  0  0  0  2  0  0  0  0  0  0
  161.3330  210.7200  150.3660 C   0  0  0  0  0  0  0  0  0  0  0  0
  161.3480  203.8830  146.8970 N   0  0  0  0  0  0  0  0  0  0  0  0
  161.8210  211.0780  147.8830 C   0  0  0  0  0  2  0  0  0  0  0  0
  159.8760  212.7370  150.2040 C   0  0  0  0  0  2  0  0  0  0  0  0
  161.0090  205.2470  153.2130 C   0  0  0  0  0  3  0  0  0  0  0  0
  161.1550  206.1300  152.1320 C   0  0  0  0  0  0  0  0  0  0  0  0
  161.4090  204.1600  150.5550 C   0  0  0  0  0  2  0  0  0  0  0  0
  161.7210  208.8610  148.9150 N   0  0  0  0  0  0  0  0  0  0  0  0
  162.8440  206.4950  147.4120 C   0  0  0  0  0  1  0  0  0  0  0  0
  159.4900  201.7280  149.1140 S   0  0  0  0  0  1  0  0  0  0  0  0
  161.8640  206.5010  149.7240 C   0  0  2  0  0  3  0  0  0  0  0  0
  161.2990  203.7540  149.1200 C   0  0  0  0  0  0  0  0  0  0  0  0
  160.0960  213.7230  149.0520 C   0  0  2  0  0  3  0  0  0  0  0  0
  158.8090  214.2040  148.4610 C   0  0  0  0  0  0  0  0  0  0  0  0
  158.6950  214.4110  147.0910 O   0  0  0  0  0  0  0  0  0  0  0  0
  157.8300  214.4500  149.2120 O   0  0  0  0  0  1  0  0  0  0  0  0
  1 29  1  0  0  0  0
  2 12  1  0  0  0  0
  4  3  1  0  0  0  0
  5 25  1  6  0  0  0
  5 27  1  0  0  0  0
  6  5  1  0  0  0  0
  6 28  2  0  0  0  0
  7 17  2  0  0  0  0
  9 26  1  6  0  0  0
  9 28  1  0  0  0  0
 11  3  2  0  0  0  0
 12  8  2  0  0  0  0
 12 13  1  0  0  0  0
 13 11  1  0  0  0  0
 14 23  1  1  0  0  0
 14 22  1  0  0  0  0
 15  9  1  0  0  0  0
 16 19  1  0  0  0  0
 16  1  1  0  0  0  0
 17 10  1  0  0  0  0
 17  8  1  0  0  0  0
 18 15  2  0  0  0  0
 18  6  1  0  0  0  0
 19  7  1  0  0  0  0
 20 10  1  0  0  0  0
 21  4  2  0  0  0  0
 22 13  2  0  0  0  0
 22 21  1  0  0  0  0
 24  7  1  0  0  0  0
 24  2  2  0  0  0  0
 27  2  1  6  0  0  0
 27 14  1  0  0  0  0
 28 23  1  0  0  0  0
 29 30  1  6  0  0  0
 29 20  1  0  0  0  0
 30 32  1  0  0  0  0
 31 30  2  0  0  0  0
M  END
>  <MODEL>
2

>  <REMARK>
 VINA RESULT:      -7.5      3.213      4.532
  Name = 
  1 active torsions:
  status: ('A' for Active; 'I' for Inactive)
    1  A    between atoms: C_29  and  C_30
                            x       y       z     vdW  Elec       q    Type
                         _______ _______ _______ _____ _____    ______ ____

>  <TORSDO>
F 1

$$$$
=
 OpenBabel11122412483D

 32 37  0  0  1  0  0  0  0  0999 V2000
  161.9910  205.2190  152.9640 O   0  0  0  0  0  0  0  0  0  0  0  0
  160.1700  210.5990  152.8750 C   0  0  0  0  0  0  0  0  0  0  0  0
  161.3010  213.4440  149.0130 C   0  0  0  0  0  3  0  0  0  0  0  0
  160.3230  214.3680  149.3840 C   0  0  0  0  0  3  0  0  0  0  0  0
  158.4400  211.3490  154.5990 C   0  0  2  0  0  3  0  0  0  0  0  0
  157.4140  212.4120  154.8860 C   0  0  0  0  0  0  0  0  0  0  0  0
  161.0500  208.3890  153.1030 C   0  0  0  0  0  0  0  0  0  0  0  0
  161.5630  209.6840  151.1270 C   0  0  0  0  0  3  0  0  0  0  0  0
  156.1000  214.2680  154.7300 C   0  0  2  0  0  3  0  0  0  0  0  0
  162.4190  207.4150  151.2710 N   0  0  0  0  0  2  0  0  0  0  0  0
  161.4630  212.2670  149.7450 C   0  0  0  0  0  3  0  0  0  0  0  0
  160.8080  210.7490  151.6300 C   0  0  0  0  0  0  0  0  0  0  0  0
  160.6530  212.0040  150.8620 C   0  0  0  0  0  0  0  0  0  0  0  0
  158.7380  212.6230  152.3930 C   0  0  2  0  0  3  0  0  0  0  0  0
  155.6030  213.4730  155.8650 N   0  0  0  0  0  0  0  0  0  0  0  0
  160.8310  205.9000  153.3710 C   0  0  0  0  0  2  0  0  0  0  0  0
  161.6860  208.4960  151.8480 C   0  0  0  0  0  0  0  0  0  0  0  0
  156.4440  212.3470  155.9070 N   0  0  0  0  0  0  0  0  0  0  0  0
  161.2410  207.2120  154.0130 C   0  0  0  0  0  2  0  0  0  0  0  0
  161.7070  206.2700  150.7240 C   0  0  0  0  0  2  0  0  0  0  0  0
  159.5090  214.1160  150.4900 C   0  0  0  0  0  3  0  0  0  0  0  0
  159.6780  212.9490  151.2530 C   0  0  0  0  0  0  0  0  0  0  0  0
  158.1160  213.8770  153.0220 C   0  0  0  0  0  2  0  0  0  0  0  0
  160.3330  209.4420  153.5770 N   0  0  0  0  0  0  0  0  0  0  0  0
  159.2030  211.0390  155.8770 C   0  0  0  0  0  1  0  0  0  0  0  0
  154.7800  214.4480  153.4930 S   0  0  0  0  0  1  0  0  0  0  0  0
  159.4300  211.7710  153.4850 C   0  0  2  0  0  3  0  0  0  0  0  0
  157.2300  213.4840  154.1600 C   0  0  0  0  0  0  0  0  0  0  0  0
  161.9590  205.0140  151.5650 C   0  0  2  0  0  3  0  0  0  0  0  0
  161.0640  203.8800  151.1750 C   0  0  0  0  0  0  0  0  0  0  0  0
  160.9240  202.7740  152.0070 O   0  0  0  0  0  1  0  0  0  0  0  0
  160.4540  203.9150  150.0760 O   0  0  0  0  0  0  0  0  0  0  0  0
  1 16  1  0  0  0  0
  2 24  1  0  0  0  0
  3  4  2  0  0  0  0
  3 11  1  0  0  0  0
  4 21  1  0  0  0  0
  5  6  1  0  0  0  0
  5 25  1  1  0  0  0
  6 18  1  0  0  0  0
  7 24  2  0  0  0  0
  7 19  1  0  0  0  0
  8 12  1  0  0  0  0
  8 17  2  0  0  0  0
  9 26  1  6  0  0  0
  9 15  1  0  0  0  0
 10 17  1  0  0  0  0
 11 13  2  0  0  0  0
 12  2  2  0  0  0  0
 13 22  1  0  0  0  0
 13 12  1  0  0  0  0
 14 23  1  1  0  0  0
 14 27  1  0  0  0  0
 15 18  2  0  0  0  0
 16 19  1  0  0  0  0
 17  7  1  0  0  0  0
 20 10  1  0  0  0  0
 20 29  1  0  0  0  0
 21 22  2  0  0  0  0
 22 14  1  0  0  0  0
 23 28  1  0  0  0  0
 27  2  1  6  0  0  0
 27  5  1  0  0  0  0
 28  9  1  0  0  0  0
 28  6  2  0  0  0  0
 29 30  1  1  0  0  0
 29  1  1  0  0  0  0
 30 31  1  0  0  0  0
 32 30  2  0  0  0  0
M  END
>  <MODEL>
3

>  <REMARK>
 VINA RESULT:      -7.3      4.486      9.344
  Name = 
  1 active torsions:
  status: ('A' for Active; 'I' for Inactive)
    1  A    between atoms: C_29  and  C_30
                            x       y       z     vdW  Elec       q    Type
                         _______ _______ _______ _____ _____    ______ ____

>  <TORSDO>
F 1

$$$$
=
 OpenBabel11122412483D

 32 37  0  0  1  0  0  0  0  0999 V2000
  161.7000  212.8390  148.9370 O   0  0  0  0  0  0  0  0  0  0  0  0
  161.7630  207.1640  149.1840 C   0  0  0  0  0  0  0  0  0  0  0  0
  161.1120  204.9510  153.5390 C   0  0  0  0  0  3  0  0  0  0  0  0
  160.8490  203.7370  152.9040 C   0  0  0  0  0  3  0  0  0  0  0  0
  161.6910  205.8300  147.0070 C   0  0  2  0  0  3  0  0  0  0  0  0
  161.3820  204.4690  146.4420 C   0  0  0  0  0  0  0  0  0  0  0  0
  161.9510  209.5390  149.0020 C   0  0  0  0  0  0  0  0  0  0  0  0
  161.5230  208.5350  151.1580 C   0  0  0  0  0  3  0  0  0  0  0  0
  160.8110  202.2700  146.2500 C   0  0  2  0  0  3  0  0  0  0  0  0
  161.6260  210.9570  151.0160 N   0  0  0  0  0  2  0  0  0  0  0  0
  161.3420  206.1010  152.7810 C   0  0  0  0  0  3  0  0  0  0  0  0
  161.5480  207.2650  150.5700 C   0  0  0  0  0  0  0  0  0  0  0  0
  161.3210  206.0460  151.3780 C   0  0  0  0  0  0  0  0  0  0  0  0
  160.9580  204.7710  149.2250 C   0  0  2  0  0  3  0  0  0  0  0  0
  160.8900  202.8240  144.8870 N   0  0  0  0  0  0  0  0  0  0  0  0
  161.2550  211.7870  148.1190 C   0  0  0  0  0  2  0  0  0  0  0  0
  161.7150  209.6800  150.3850 C   0  0  0  0  0  0  0  0  0  0  0  0
  161.2380  204.1740  145.0710 N   0  0  0  0  0  0  0  0  0  0  0  0
  162.3100  210.6960  148.1170 C   0  0  0  0  0  2  0  0  0  0  0  0
  160.4460  211.7840  150.8120 C   0  0  0  0  0  2  0  0  0  0  0  0
  160.8230  203.6710  151.5090 C   0  0  0  0  0  3  0  0  0  0  0  0
  161.0800  204.8130  150.7330 C   0  0  0  0  0  0  0  0  0  0  0  0
  161.2090  203.3710  148.6510 C   0  0  0  0  0  2  0  0  0  0  0  0
  161.9830  208.2950  148.4560 N   0  0  0  0  0  0  0  0  0  0  0  0
  162.9400  206.3730  146.3330 C   0  0  0  0  0  1  0  0  0  0  0  0
  159.1290  201.6510  146.5540 S   0  0  0  0  0  1  0  0  0  0  0  0
  161.8930  205.7980  148.5420 C   0  0  2  0  0  3  0  0  0  0  0  0
  161.1080  203.4100  147.1600 C   0  0  0  0  0  0  0  0  0  0  0  0
  160.7870  213.0370  149.9990 C   0  0  2  0  0  3  0  0  0  0  0  0
  159.5660  213.7870  149.5690 C   0  0  0  0  0  0  0  0  0  0  0  0
  158.4010  213.7310  150.3250 O   0  0  0  0  0  1  0  0  0  0  0  0
  159.5860  214.4510  148.5010 O   0  0  0  0  0  0  0  0  0  0  0  0
  1 29  1  0  0  0  0
  2 12  1  0  0  0  0
  4  3  1  0  0  0  0
  5 25  1  6  0  0  0
  5 27  1  0  0  0  0
  6  5  1  0  0  0  0
  6 28  2  0  0  0  0
  7 17  2  0  0  0  0
  9 26  1  1  0  0  0
  9 28  1  0  0  0  0
 11  3  2  0  0  0  0
 12  8  2  0  0  0  0
 12 13  1  0  0  0  0
 13 11  1  0  0  0  0
 14 23  1  6  0  0  0
 14 22  1  0  0  0  0
 15 18  2  0  0  0  0
 15  9  1  0  0  0  0
 16  1  1  0  0  0  0
 17 10  1  0  0  0  0
 17  8  1  0  0  0  0
 18  6  1  0  0  0  0
 19 16  1  0  0  0  0
 19  7  1  0  0  0  0
 20 10  1  0  0  0  0
 21  4  2  0  0  0  0
 22 13  2  0  0  0  0
 22 21  1  0  0  0  0
 24  7  1  0  0  0  0
 24  2  2  0  0  0  0
 27  2  1  1  0  0  0
 27 14  1  0  0  0  0
 28 23  1  0  0  0  0
 29 30  1  6  0  0  0
 29 20  1  0  0  0  0
 30 31  1  0  0  0  0
 32 30  2  0  0  0  0
M  END
>  <MODEL>
4

>  <REMARK>
 VINA RESULT:      -6.6      2.529      3.407
  Name = 
  1 active torsions:
  status: ('A' for Active; 'I' for Inactive)
    1  A    between atoms: C_29  and  C_30
                            x       y       z     vdW  Elec       q    Type
                         _______ _______ _______ _____ _____    ______ ____

>  <TORSDO>
F 1

$$$$
=
 OpenBabel11122412483D

 32 37  0  0  1  0  0  0  0  0999 V2000
  162.2290  204.5640  151.7760 O   0  0  0  0  0  0  0  0  0  0  0  0
  160.7060  209.9680  152.6460 C   0  0  0  0  0  0  0  0  0  0  0  0
  161.3260  213.2420  149.0150 C   0  0  0  0  0  3  0  0  0  0  0  0
  160.4740  214.1420  149.6560 C   0  0  0  0  0  3  0  0  0  0  0  0
  159.3320  210.5480  154.7190 C   0  0  2  0  0  3  0  0  0  0  0  0
  158.4260  211.5990  155.3040 C   0  0  0  0  0  0  0  0  0  0  0  0
  161.4940  207.7200  152.4530 C   0  0  0  0  0  0  0  0  0  0  0  0
  161.7370  209.2370  150.5870 C   0  0  0  0  0  3  0  0  0  0  0  0
  157.2050  213.5000  155.5990 C   0  0  2  0  0  3  0  0  0  0  0  0
  162.4840  206.9430  150.3100 N   0  0  0  0  0  2  0  0  0  0  0  0
  161.5450  211.9770  149.5620 C   0  0  0  0  0  3  0  0  0  0  0  0
  161.1350  210.2540  151.3370 C   0  0  0  0  0  0  0  0  0  0  0  0
  160.9200  211.6010  150.7620 C   0  0  0  0  0  0  0  0  0  0  0  0
  159.3240  212.0810  152.6630 C   0  0  2  0  0  3  0  0  0  0  0  0
  156.8630  212.5840  156.7010 N   0  0  0  0  0  0  0  0  0  0  0  0
  161.1910  205.2250  152.4550 C   0  0  0  0  0  2  0  0  0  0  0  0
  161.9160  207.9640  151.1290 C   0  0  0  0  0  0  0  0  0  0  0  0
  157.6380  211.4350  156.4620 N   0  0  0  0  0  0  0  0  0  0  0  0
  161.7710  206.4320  153.1690 C   0  0  0  0  0  2  0  0  0  0  0  0
  161.6310  205.9000  149.7600 C   0  0  0  0  0  2  0  0  0  0  0  0
  159.8440  213.7780  150.8480 C   0  0  0  0  0  3  0  0  0  0  0  0
  160.0760  212.5190  151.4250 C   0  0  0  0  0  0  0  0  0  0  0  0
  158.8830  213.2640  153.5350 C   0  0  0  0  0  2  0  0  0  0  0  0
  160.9230  208.7270  153.1650 N   0  0  0  0  0  0  0  0  0  0  0  0
  160.2800  210.0550  155.8000 C   0  0  0  0  0  1  0  0  0  0  0  0
  155.7080  213.8780  154.6390 S   0  0  0  0  0  1  0  0  0  0  0  0
  160.1420  211.0760  153.5100 C   0  0  2  0  0  3  0  0  0  0  0  0
  158.1810  212.7590  154.7540 C   0  0  0  0  0  0  0  0  0  0  0  0
  161.9520  204.5400  150.3890 C   0  0  2  0  0  3  0  0  0  0  0  0
  160.9460  203.4930  150.0270 C   0  0  0  0  0  0  0  0  0  0  0  0
  160.5980  203.2780  148.6990 O   0  0  0  0  0  0  0  0  0  0  0  0
  160.3910  202.8210  150.9340 O   0  0  0  0  0  1  0  0  0  0  0  0
  1 16  1  0  0  0  0
  2 24  1  0  0  0  0
  3 11  2  0  0  0  0
  3  4  1  0  0  0  0
  4 21  2  0  0  0  0
  5  6  1  0  0  0  0
  5 25  1  1  0  0  0
  6 18  1  0  0  0  0
  7 24  2  0  0  0  0
  7 19  1  0  0  0  0
  8 17  2  0  0  0  0
  8 12  1  0  0  0  0
  9 26  1  6  0  0  0
  9 15  1  0  0  0  0
 10 17  1  0  0  0  0
 11 13  1  0  0  0  0
 12  2  2  0  0  0  0
 13 12  1  0  0  0  0
 13 22  2  0  0  0  0
 14 27  1  0  0  0  0
 14 23  1  1  0  0  0
 16 19  1  0  0  0  0
 17  7  1  0  0  0  0
 18 15  2  0  0  0  0
 20 10  1  0  0  0  0
 20 29  1  0  0  0  0
 21 22  1  0  0  0  0
 22 14  1  0  0  0  0
 23 28  1  0  0  0  0
 27  2  1  6  0  0  0
 27  5  1  0  0  0  0
 28  6  2  0  0  0  0
 28  9  1  0  0  0  0
 29 30  1  1  0  0  0
 29  1  1  0  0  0  0
 30 32  1  0  0  0  0
 31 30  2  0  0  0  0
M  END
>  <MODEL>
5

>  <REMARK>
 VINA RESULT:      -6.6      4.353      9.237
  Name = 
  1 active torsions:
  status: ('A' for Active; 'I' for Inactive)
    1  A    between atoms: C_29  and  C_30
                            x       y       z     vdW  Elec       q    Type
                         _______ _______ _______ _____ _____    ______ ____

>  <TORSDO>
F 1

$$$$
=
 OpenBabel11122412483D

 32 37  0  0  1  0  0  0  0  0999 V2000
  161.5290  202.7840  146.1050 O   0  0  0  0  0  0  0  0  0  0  0  0
  161.8290  207.0150  149.8840 C   0  0  0  0  0  0  0  0  0  0  0  0
  162.3010  211.6440  148.2600 C   0  0  0  0  0  3  0  0  0  0  0  0
  161.9340  212.1400  149.5110 C   0  0  0  0  0  3  0  0  0  0  0  0
  161.2830  206.5290  152.3320 C   0  0  2  0  0  3  0  0  0  0  0  0
  160.8920  207.1870  153.6280 C   0  0  0  0  0  0  0  0  0  0  0  0
  161.8920  205.1510  148.3900 C   0  0  0  0  0  0  0  0  0  0  0  0
  162.0200  207.3970  147.5070 C   0  0  0  0  0  3  0  0  0  0  0  0
  160.3620  208.7450  155.2060 C   0  0  2  0  0  3  0  0  0  0  0  0
  162.0100  205.5420  145.9390 N   0  0  0  0  0  2  0  0  0  0  0  0
  162.3080  210.2670  148.0290 C   0  0  0  0  0  3  0  0  0  0  0  0
  161.9450  207.9110  148.8060 C   0  0  0  0  0  0  0  0  0  0  0  0
  161.9560  209.3710  149.0510 C   0  0  0  0  0  0  0  0  0  0  0  0
  161.1320  208.9130  151.3970 C   0  0  2  0  0  3  0  0  0  0  0  0
  160.0980  207.4190  155.7910 N   0  0  0  0  0  0  0  0  0  0  0  0
  160.9360  203.0750  147.3450 C   0  0  0  0  0  2  0  0  0  0  0  0
  161.9870  206.0210  147.2830 C   0  0  0  0  0  0  0  0  0  0  0  0
  160.4360  206.5070  154.7760 N   0  0  0  0  0  0  0  0  0  0  0  0
  161.9930  203.6600  148.2620 C   0  0  0  0  0  2  0  0  0  0  0  0
  160.7900  205.0330  145.3320 C   0  0  0  0  0  2  0  0  0  0  0  0
  161.5790  211.2590  150.5340 C   0  0  0  0  0  3  0  0  0  0  0  0
  161.6080  209.8700  150.3260 C   0  0  0  0  0  0  0  0  0  0  0  0
  161.2840  209.4880  152.8120 C   0  0  0  0  0  2  0  0  0  0  0  0
  161.8330  205.6740  149.6430 N   0  0  0  0  0  0  0  0  0  0  0  0
  162.3190  205.4530  152.6160 C   0  0  0  0  0  1  0  0  0  0  0  0
  158.8220  209.7080  155.1700 S   0  0  0  0  0  1  0  0  0  0  0  0
  161.8450  207.5420  151.3040 C   0  0  2  0  0  3  0  0  0  0  0  0
  160.8310  208.4790  153.8180 C   0  0  0  0  0  0  0  0  0  0  0  0
  160.8880  203.5240  145.0840 C   0  0  2  0  0  3  0  0  0  0  0  0
  159.5770  202.9260  144.6840 C   0  0  0  0  0  0  0  0  0  0  0  0
  159.3270  201.5730  144.8860 O   0  0  0  0  0  1  0  0  0  0  0  0
  158.7030  203.6470  144.1360 O   0  0  0  0  0  0  0  0  0  0  0  0
  1 16  1  0  0  0  0
  3  4  1  0  0  0  0
  4 21  2  0  0  0  0
  5 25  1  1  0  0  0
  5  6  1  0  0  0  0
  6 28  2  0  0  0  0
  6 18  1  0  0  0  0
  7 24  2  0  0  0  0
  8 12  1  0  0  0  0
  9 26  1  6  0  0  0
  9 15  1  0  0  0  0
 10 17  1  0  0  0  0
 11  3  2  0  0  0  0
 11 13  1  0  0  0  0
 12 13  1  0  0  0  0
 12  2  2  0  0  0  0
 13 22  2  0  0  0  0
 14 23  1  1  0  0  0
 16 19  1  0  0  0  0
 17  8  2  0  0  0  0
 17  7  1  0  0  0  0
 18 15  2  0  0  0  0
 19  7  1  0  0  0  0
 20 10  1  0  0  0  0
 22 21  1  0  0  0  0
 22 14  1  0  0  0  0
 23 28  1  0  0  0  0
 24  2  1  0  0  0  0
 27  2  1  6  0  0  0
 27 14  1  0  0  0  0
 27  5  1  0  0  0  0
 28  9  1  0  0  0  0
 29 30  1  1  0  0  0
 29 20  1  0  0  0  0
 29  1  1  0  0  0  0
 30 31  1  0  0  0  0
 32 30  2  0  0  0  0
M  END
>  <MODEL>
6

>  <REMARK>
 VINA RESULT:      -6.5      4.592      8.737
  Name = 
  1 active torsions:
  status: ('A' for Active; 'I' for Inactive)
    1  A    between atoms: C_29  and  C_30
                            x       y       z     vdW  Elec       q    Type
                         _______ _______ _______ _____ _____    ______ ____

>  <TORSDO>
F 1

$$$$
=
 OpenBabel11122412483D

 32 37  0  0  1  0  0  0  0  0999 V2000
  161.9540  204.4720  150.8220 O   0  0  0  0  0  0  0  0  0  0  0  0
  160.9080  210.0150  151.4960 C   0  0  0  0  0  0  0  0  0  0  0  0
  162.3810  213.1690  148.0080 C   0  0  0  0  0  3  0  0  0  0  0  0
  161.5480  214.1600  148.5260 C   0  0  0  0  0  3  0  0  0  0  0  0
  159.3230  210.7580  153.3570 C   0  0  2  0  0  3  0  0  0  0  0  0
  158.4610  211.9050  153.8130 C   0  0  0  0  0  0  0  0  0  0  0  0
  161.4710  207.6940  151.4050 C   0  0  0  0  0  0  0  0  0  0  0  0
  162.1360  209.1590  149.6010 C   0  0  0  0  0  3  0  0  0  0  0  0
  157.4190  213.9290  153.9420 C   0  0  2  0  0  3  0  0  0  0  0  0
  162.6650  206.7950  149.4200 N   0  0  0  0  0  2  0  0  0  0  0  0
  162.3840  211.8930  148.5730 C   0  0  0  0  0  3  0  0  0  0  0  0
  161.5460  210.2410  150.2630 C   0  0  0  0  0  0  0  0  0  0  0  0
  161.5590  211.5970  149.6710 C   0  0  0  0  0  0  0  0  0  0  0  0
  159.7700  212.2640  151.3290 C   0  0  2  0  0  3  0  0  0  0  0  0
  156.8300  213.0640  154.9780 N   0  0  0  0  0  0  0  0  0  0  0  0
  160.9070  205.2460  151.3510 C   0  0  0  0  0  2  0  0  0  0  0  0
  162.0990  207.8790  150.1560 C   0  0  0  0  0  0  0  0  0  0  0  0
  157.5040  211.8380  154.8460 N   0  0  0  0  0  0  0  0  0  0  0  0
  161.5050  206.3910  152.1470 C   0  0  0  0  0  2  0  0  0  0  0  0
  161.7930  205.8430  148.7490 C   0  0  0  0  0  2  0  0  0  0  0  0
  160.7200  213.8780  149.6150 C   0  0  0  0  0  3  0  0  0  0  0  0
  160.7330  212.6060  150.2120 C   0  0  0  0  0  0  0  0  0  0  0  0
  159.3380  213.4950  152.1350 C   0  0  0  0  0  2  0  0  0  0  0  0
  160.9150  208.7630  152.0350 N   0  0  0  0  0  0  0  0  0  0  0  0
  160.0510  210.1780  154.5590 C   0  0  0  0  0  1  0  0  0  0  0  0
  156.1230  214.4530  152.7810 S   0  0  0  0  0  1  0  0  0  0  0  0
  160.3490  211.1860  152.2780 C   0  0  2  0  0  3  0  0  0  0  0  0
  158.4210  213.0790  153.2400 C   0  0  0  0  0  0  0  0  0  0  0  0
  161.8750  204.4630  149.4100 C   0  0  2  0  0  3  0  0  0  0  0  0
  160.8240  203.5260  148.9040 C   0  0  0  0  0  0  0  0  0  0  0  0
  160.1320  202.7010  149.7830 O   0  0  0  0  0  1  0  0  0  0  0  0
  160.5850  203.4640  147.6700 O   0  0  0  0  0  0  0  0  0  0  0  0
  1 16  1  0  0  0  0
  2 24  1  0  0  0  0
  3  4  2  0  0  0  0
  3 11  1  0  0  0  0
  4 21  1  0  0  0  0
  5  6  1  0  0  0  0
  5 25  1  1  0  0  0
  6 18  1  0  0  0  0
  7 24  2  0  0  0  0
  7 19  1  0  0  0  0
  8 17  2  0  0  0  0
  8 12  1  0  0  0  0
  9 26  1  6  0  0  0
  9 15  1  0  0  0  0
 10 17  1  0  0  0  0
 11 13  2  0  0  0  0
 12  2  2  0  0  0  0
 13 22  1  0  0  0  0
 13 12  1  0  0  0  0
 14 23  1  1  0  0  0
 14 27  1  0  0  0  0
 16 19  1  0  0  0  0
 17  7  1  0  0  0  0
 18 15  2  0  0  0  0
 20 29  1  0  0  0  0
 20 10  1  0  0  0  0
 21 22  2  0  0  0  0
 22 14  1  0  0  0  0
 23 28  1  0  0  0  0
 27  2  1  6  0  0  0
 27  5  1  0  0  0  0
 28  6  2  0  0  0  0
 28  9  1  0  0  0  0
 29 30  1  1  0  0  0
 29  1  1  0  0  0  0
 30 31  1  0  0  0  0
 32 30  2  0  0  0  0
M  END
>  <MODEL>
7

>  <REMARK>
 VINA RESULT:      -6.0      4.520      9.014
  Name = 
  1 active torsions:
  status: ('A' for Active; 'I' for Inactive)
    1  A    between atoms: C_29  and  C_30
                            x       y       z     vdW  Elec       q    Type
                         _______ _______ _______ _____ _____    ______ ____

>  <TORSDO>
F 1

$$$$
=
 OpenBabel11122412483D

 32 37  0  0  1  0  0  0  0  0999 V2000
  161.0090  212.5690  151.5580 O   0  0  0  0  0  0  0  0  0  0  0  0
  161.5980  207.1790  149.8630 C   0  0  0  0  0  0  0  0  0  0  0  0
  160.7950  203.5510  153.1000 C   0  0  0  0  0  3  0  0  0  0  0  0
  160.7050  202.6210  152.0640 C   0  0  0  0  0  3  0  0  0  0  0  0
  161.8390  206.6860  147.3680 C   0  0  2  0  0  3  0  0  0  0  0  0
  161.7120  205.5900  146.3430 C   0  0  0  0  0  0  0  0  0  0  0  0
  161.5700  209.4750  150.5230 C   0  0  0  0  0  0  0  0  0  0  0  0
  161.0590  207.7580  152.1450 C   0  0  0  0  0  3  0  0  0  0  0  0
  161.3740  203.5670  145.3490 C   0  0  2  0  0  3  0  0  0  0  0  0
  160.9400  210.0790  152.8490 N   0  0  0  0  0  2  0  0  0  0  0  0
  160.9770  204.9040  152.8100 C   0  0  0  0  0  3  0  0  0  0  0  0
  161.2560  206.7770  151.1670 C   0  0  0  0  0  0  0  0  0  0  0  0
  161.0810  205.3410  151.4800 C   0  0  0  0  0  0  0  0  0  0  0  0
  161.0260  204.8770  148.9950 C   0  0  2  0  0  3  0  0  0  0  0  0
  161.5150  204.5650  144.2750 N   0  0  0  0  0  0  0  0  0  0  0  0
  160.7390  211.8430  150.3860 C   0  0  0  0  0  2  0  0  0  0  0  0
  161.2050  209.1100  151.8350 C   0  0  0  0  0  0  0  0  0  0  0  0
  161.7140  205.7840  144.9460 N   0  0  0  0  0  0  0  0  0  0  0  0
  161.8900  210.8870  150.1310 C   0  0  0  0  0  2  0  0  0  0  0  0
  159.7070  210.8510  152.8070 C   0  0  0  0  0  2  0  0  0  0  0  0
  160.8040  203.0430  150.7370 C   0  0  0  0  0  3  0  0  0  0  0  0
  161.0150  204.3980  150.4300 C   0  0  0  0  0  0  0  0  0  0  0  0
  161.4580  203.7830  148.0100 C   0  0  0  0  0  2  0  0  0  0  0  0
  161.7690  208.5030  149.5930 N   0  0  0  0  0  0  0  0  0  0  0  0
  163.0840  207.5040  147.0650 C   0  0  0  0  0  1  0  0  0  0  0  0
  159.7400  202.7790  145.2330 S   0  0  0  0  0  1  0  0  0  0  0  0
  161.9120  206.1330  148.8130 C   0  0  2  0  0  3  0  0  0  0  0  0
  161.4820  204.3340  146.6210 C   0  0  0  0  0  0  0  0  0  0  0  0
  159.9940  212.3270  152.5130 C   0  0  2  0  0  3  0  0  0  0  0  0
  158.7480  213.1040  152.2290 C   0  0  0  0  0  0  0  0  0  0  0  0
  158.8180  214.4490  151.8830 O   0  0  0  0  0  0  0  0  0  0  0  0
  157.6260  212.5430  152.3290 O   0  0  0  0  0  1  0  0  0  0  0  0
  1 29  1  0  0  0  0
  2 12  1  0  0  0  0
  4  3  2  0  0  0  0
  5 25  1  6  0  0  0
  5 27  1  0  0  0  0
  6 28  2  0  0  0  0
  6  5  1  0  0  0  0
  7 17  2  0  0  0  0
  9 26  1  6  0  0  0
  9 28  1  0  0  0  0
 11  3  1  0  0  0  0
 12 13  1  0  0  0  0
 12  8  2  0  0  0  0
 13 11  2  0  0  0  0
 14 23  1  6  0  0  0
 14 22  1  0  0  0  0
 15 18  2  0  0  0  0
 15  9  1  0  0  0  0
 16  1  1  0  0  0  0
 17  8  1  0  0  0  0
 17 10  1  0  0  0  0
 18  6  1  0  0  0  0
 19 16  1  0  0  0  0
 19  7  1  0  0  0  0
 20 10  1  0  0  0  0
 21  4  1  0  0  0  0
 22 21  2  0  0  0  0
 22 13  1  0  0  0  0
 24  2  2  0  0  0  0
 24  7  1  0  0  0  0
 27 14  1  0  0  0  0
 27  2  1  1  0  0  0
 28 23  1  0  0  0  0
 29 30  1  6  0  0  0
 29 20  1  0  0  0  0
 30 32  1  0  0  0  0
 31 30  2  0  0  0  0
M  END
>  <MODEL>
8

>  <REMARK>
 VINA RESULT:      -6.0      1.512      1.886
  Name = 
  1 active torsions:
  status: ('A' for Active; 'I' for Inactive)
    1  A    between atoms: C_29  and  C_30
                            x       y       z     vdW  Elec       q    Type
                         _______ _______ _______ _____ _____    ______ ____

>  <TORSDO>
F 1

$$$$
=
 OpenBabel11122412483D

 32 37  0  0  1  0  0  0  0  0999 V2000
  160.5530  214.4490  146.6670 O   0  0  0  0  0  0  0  0  0  0  0  0
  159.8660  212.9540  141.2300 C   0  0  0  0  0  0  0  0  0  0  0  0
  163.8230  211.6940  138.5770 C   0  0  0  0  0  3  0  0  0  0  0  0
  163.0090  211.1130  137.6040 C   0  0  0  0  0  3  0  0  0  0  0  0
  157.5050  212.5320  140.3520 C   0  0  2  0  0  3  0  0  0  0  0  0
  156.7380  211.8650  139.2400 C   0  0  0  0  0  0  0  0  0  0  0  0
  160.0670  213.7860  143.4610 C   0  0  0  0  0  0  0  0  0  0  0  0
  162.0460  213.0860  142.2620 C   0  0  0  0  0  3  0  0  0  0  0  0
  156.2120  210.7150  137.3440 C   0  0  2  0  0  3  0  0  0  0  0  0
  162.2980  213.8490  144.5540 N   0  0  0  0  0  2  0  0  0  0  0  0
  163.2550  212.2350  139.7310 C   0  0  0  0  0  3  0  0  0  0  0  0
  161.2580  212.7650  141.1510 C   0  0  0  0  0  0  0  0  0  0  0  0
  161.8640  212.2090  139.9200 C   0  0  0  0  0  0  0  0  0  0  0  0
  159.5480  211.5230  139.1730 C   0  0  2  0  0  3  0  0  0  0  0  0
  154.9560  210.9510  138.0770 N   0  0  0  0  0  0  0  0  0  0  0  0
  159.5930  213.7380  145.9280 C   0  0  0  0  0  2  0  0  0  0  0  0
  161.4630  213.5890  143.4260 C   0  0  0  0  0  0  0  0  0  0  0  0
  155.3440  211.6540  139.2310 N   0  0  0  0  0  0  0  0  0  0  0  0
  159.3700  214.4530  144.6090 C   0  0  0  0  0  2  0  0  0  0  0  0
  162.2800  212.9420  145.6910 C   0  0  0  0  0  2  0  0  0  0  0  0
  161.6250  211.0770  137.7830 C   0  0  0  0  0  3  0  0  0  0  0  0
  161.0360  211.6430  138.9260 C   0  0  0  0  0  0  0  0  0  0  0  0
  158.7430  211.3840  137.8750 C   0  0  0  0  0  2  0  0  0  0  0  0
  159.3240  213.4790  142.3640 N   0  0  0  0  0  0  0  0  0  0  0  0
  156.8790  213.8860  140.6410 C   0  0  0  0  0  1  0  0  0  0  0  0
  156.4790  208.9260  137.1620 S   0  0  0  0  0  1  0  0  0  0  0  0
  159.0050  212.7080  140.0080 C   0  0  2  0  0  3  0  0  0  0  0  0
  157.2830  211.3080  138.1910 C   0  0  0  0  0  0  0  0  0  0  0  0
  161.6690  213.6190  146.9230 C   0  0  2  0  0  3  0  0  0  0  0  0
  161.4170  212.6530  148.0370 C   0  0  0  0  0  0  0  0  0  0  0  0
  160.7450  213.0580  149.1850 O   0  0  0  0  0  1  0  0  0  0  0  0
  161.8390  211.4710  147.9460 O   0  0  0  0  0  0  0  0  0  0  0  0
  1 29  1  0  0  0  0
  2 24  1  0  0  0  0
  3 11  1  0  0  0  0
  4 21  1  0  0  0  0
  4  3  2  0  0  0  0
  5 25  1  6  0  0  0
  6  5  1  0  0  0  0
  7 19  1  0  0  0  0
  8 17  2  0  0  0  0
  9 26  1  1  0  0  0
  9 15  1  0  0  0  0
  9 28  1  0  0  0  0
 10 20  1  0  0  0  0
 11 13  2  0  0  0  0
 12  2  2  0  0  0  0
 12  8  1  0  0  0  0
 13 12  1  0  0  0  0
 14 23  1  6  0  0  0
 14 27  1  0  0  0  0
 15 18  2  0  0  0  0
 16  1  1  0  0  0  0
 17  7  1  0  0  0  0
 17 10  1  0  0  0  0
 18  6  1  0  0  0  0
 19 16  1  0  0  0  0
 20 29  1  0  0  0  0
 21 22  2  0  0  0  0
 22 14  1  0  0  0  0
 22 13  1  0  0  0  0
 23 28  1  0  0  0  0
 24  7  2  0  0  0  0
 27  5  1  0  0  0  0
 27  2  1  1  0  0  0
 28  6  2  0  0  0  0
 29 30  1  1  0  0  0
 30 31  1  0  0  0  0
 32 30  2  0  0  0  0
M  END
>  <MODEL>
9

>  <REMARK>
 VINA RESULT:      -5.5      8.631     11.306
  Name = 
  1 active torsions:
  status: ('A' for Active; 'I' for Inactive)
    1  A    between atoms: C_29  and  C_30
                            x       y       z     vdW  Elec       q    Type
                         _______ _______ _______ _____ _____    ______ ____

>  <TORSDO>
F 1

$$$$
