=
 OpenBabel11122412413D

 30 35  0  0  1  0  0  0  0  0999 V2000
  161.2140  210.7130  150.9140 C   0  0  0  0  0  0  0  0  0  0  0  0
  161.5660  212.2130  148.9390 C   0  0  0  0  0  0  0  0  0  0  0  0
  158.8720  213.9850  153.1120 S   0  0  0  0  0  0  0  0  0  0  0  0
  160.6150  210.5210  152.1790 C   0  0  0  0  0  0  0  0  0  0  0  0
  162.1510  209.6540  150.3940 C   0  0  0  0  0  2  0  0  0  0  0  0
  161.0810  206.8880  152.5230 O   0  0  0  0  0  0  0  0  0  0  0  0
  161.6540  210.6560  154.8840 C   0  0  1  0  0  3  0  0  0  0  0  0
  161.1920  208.0660  152.0900 C   0  0  0  0  0  0  0  0  0  0  0  0
  160.5300  211.5860  155.1210 N   0  0  2  0  0  0  0  0  0  0  0  0
  158.4690  212.6940  154.3500 C   0  0  1  0  0  3  0  0  0  0  0  0
  161.7440  208.3100  150.7890 N   0  0  0  0  0  0  0  0  0  0  0  0
  160.6800  209.2060  152.9150 C   0  0  1  0  0  3  0  0  0  0  0  0
  161.3620  213.4550  148.3290 C   0  0  0  0  0  3  0  0  0  0  0  0
  160.0850  211.3020  156.4780 C   0  0  0  0  0  2  0  0  0  0  0  0
  162.3520  210.5000  156.2210 C   0  0  0  0  0  2  0  0  0  0  0  0
  162.2900  211.2600  148.2330 O   0  0  0  0  0  1  0  0  0  0  0  0
  159.7510  212.7720  152.1450 C   0  0  0  0  0  0  0  0  0  0  0  0
  160.6340  214.4530  148.9700 C   0  0  0  0  0  3  0  0  0  0  0  0
  161.0330  211.9540  150.2300 C   0  0  0  0  0  0  0  0  0  0  0  0
  159.9080  211.5630  152.7750 C   0  0  0  0  0  0  0  0  0  0  0  0
  157.0300  212.2510  154.1660 C   0  0  0  0  0  1  0  0  0  0  0  0
  159.4040  211.4900  154.1760 C   0  0  1  0  0  3  0  0  0  0  0  0
  161.3130  210.8750  157.2600 C   0  0  0  0  0  2  0  0  0  0  0  0
  160.4460  208.5610  155.2130 O   0  0  0  0  0  1  0  0  0  0  0  0
  160.0970  214.2200  150.2330 C   0  0  0  0  0  3  0  0  0  0  0  0
  160.2810  212.9870  150.8670 C   0  0  0  0  0  0  0  0  0  0  0  0
  161.2800  209.2520  154.3300 C   0  0  2  0  0  3  0  0  0  0  0  0
  162.0860  207.1950  149.9140 C   0  0  0  0  0  2  0  0  0  0  0  0
  160.7370  205.2070  149.2450 C   0  0  0  0  0  1  0  0  0  0  0  0
  160.8610  206.7160  149.1520 C   0  0  0  0  0  2  0  0  0  0  0  0
  1  4  1  0  0  0  0
  2 19  1  0  0  0  0
  3 10  1  0  0  0  0
  4 20  2  0  0  0  0
  4 12  1  0  0  0  0
  5 11  1  0  0  0  0
  5  1  1  0  0  0  0
  7  9  1  0  0  0  0
  7 15  1  1  0  0  0
  8  6  2  0  0  0  0
  9 14  1  1  0  0  0
 10 21  1  6  0  0  0
 11  8  1  0  0  0  0
 12  8  1  6  0  0  0
 12 27  1  0  0  0  0
 13  2  2  0  0  0  0
 13 18  1  0  0  0  0
 14 23  1  0  0  0  0
 15 23  1  0  0  0  0
 16  2  1  0  0  0  0
 17 20  1  0  0  0  0
 17  3  1  0  0  0  0
 18 25  2  0  0  0  0
 19 26  1  0  0  0  0
 19  1  2  0  0  0  0
 22 20  1  6  0  0  0
 22 10  1  0  0  0  0
 22  9  1  0  0  0  0
 25 26  1  0  0  0  0
 26 17  2  0  0  0  0
 27  7  1  0  0  0  0
 27 24  1  1  0  0  0
 28 11  1  0  0  0  0
 30 29  1  0  0  0  0
 30 28  1  0  0  0  0
M  END
>  <MODEL>
1

>  <REMARK>
 VINA RESULT:      -7.1      0.000      0.000
  Name = 
  2 active torsions:
  status: ('A' for Active; 'I' for Inactive)
    1  A    between atoms: N_11  and  C_28
    2  A    between atoms: C_28  and  C_30
                            x       y       z     vdW  Elec       q    Type
                         _______ _______ _______ _____ _____    ______ ____

>  <TORSDO>
F 2

$$$$
=
 OpenBabel11122412413D

 30 35  0  0  1  0  0  0  0  0999 V2000
  161.5030  209.5920  151.1200 C   0  0  0  0  0  0  0  0  0  0  0  0
  162.0230  210.5430  148.8620 C   0  0  0  0  0  0  0  0  0  0  0  0
  159.6080  213.5460  152.4620 S   0  0  0  0  0  0  0  0  0  0  0  0
  160.8960  209.7710  152.3830 C   0  0  0  0  0  0  0  0  0  0  0  0
  162.2960  208.3340  150.8760 C   0  0  0  0  0  2  0  0  0  0  0  0
  160.9060  206.2850  153.5590 O   0  0  0  0  0  0  0  0  0  0  0  0
  161.9670  210.3940  155.0060 C   0  0  1  0  0  3  0  0  0  0  0  0
  161.1610  207.3090  152.8700 C   0  0  0  0  0  0  0  0  0  0  0  0
  160.9710  211.4850  155.0010 N   0  0  2  0  0  0  0  0  0  0  0  0
  159.0580  212.6340  153.9540 C   0  0  1  0  0  3  0  0  0  0  0  0
  161.7270  207.1780  151.5590 N   0  0  0  0  0  0  0  0  0  0  0  0
  160.8030  208.6630  153.4020 C   0  0  1  0  0  3  0  0  0  0  0  0
  161.9710  211.6260  147.9800 C   0  0  0  0  0  3  0  0  0  0  0  0
  160.5060  211.5780  156.3770 C   0  0  0  0  0  2  0  0  0  0  0  0
  162.6520  210.4640  156.3570 C   0  0  0  0  0  2  0  0  0  0  0  0
  162.6150  209.3710  148.4080 O   0  0  0  0  0  1  0  0  0  0  0  0
  160.3200  212.0430  151.8170 C   0  0  0  0  0  0  0  0  0  0  0  0
  161.3790  212.8270  148.3600 C   0  0  0  0  0  3  0  0  0  0  0  0
  161.4730  210.6550  150.1670 C   0  0  0  0  0  0  0  0  0  0  0  0
  160.3310  211.0020  152.7100 C   0  0  0  0  0  0  0  0  0  0  0  0
  157.5740  212.3420  153.8480 C   0  0  0  0  0  1  0  0  0  0  0  0
  159.8340  211.3160  154.0800 C   0  0  1  0  0  3  0  0  0  0  0  0
  161.6770  211.1940  157.2610 C   0  0  0  0  0  2  0  0  0  0  0  0
  160.5090  208.5970  155.7810 O   0  0  0  0  0  1  0  0  0  0  0  0
  160.8280  212.9590  149.6310 C   0  0  0  0  0  3  0  0  0  0  0  0
  160.8620  211.8920  150.5350 C   0  0  0  0  0  0  0  0  0  0  0  0
  161.4160  208.9580  154.7810 C   0  0  2  0  0  3  0  0  0  0  0  0
  161.9190  205.8580  150.9710 C   0  0  0  0  0  2  0  0  0  0  0  0
  161.0860  204.2770  149.2310 C   0  0  0  0  0  1  0  0  0  0  0  0
  160.7540  205.5020  150.0620 C   0  0  0  0  0  2  0  0  0  0  0  0
  1  4  1  0  0  0  0
  2 19  1  0  0  0  0
  3 10  1  0  0  0  0
  4 20  2  0  0  0  0
  5  1  1  0  0  0  0
  5 11  1  0  0  0  0
  7 15  1  1  0  0  0
  8 12  1  0  0  0  0
  8  6  2  0  0  0  0
  9  7  1  0  0  0  0
  9 14  1  1  0  0  0
 10 21  1  6  0  0  0
 10 22  1  0  0  0  0
 11  8  1  0  0  0  0
 12  4  1  6  0  0  0
 12 27  1  0  0  0  0
 13 18  1  0  0  0  0
 13  2  2  0  0  0  0
 14 23  1  0  0  0  0
 15 23  1  0  0  0  0
 16  2  1  0  0  0  0
 17  3  1  0  0  0  0
 17 20  1  0  0  0  0
 18 25  2  0  0  0  0
 19 26  1  0  0  0  0
 19  1  2  0  0  0  0
 22 20  1  6  0  0  0
 22  9  1  0  0  0  0
 25 26  1  0  0  0  0
 26 17  2  0  0  0  0
 27  7  1  0  0  0  0
 27 24  1  1  0  0  0
 28 11  1  0  0  0  0
 29 30  1  0  0  0  0
 30 28  1  0  0  0  0
M  END
>  <MODEL>
2

>  <REMARK>
 VINA RESULT:      -7.0      0.997      1.168
  Name = 
  2 active torsions:
  status: ('A' for Active; 'I' for Inactive)
    1  A    between atoms: N_11  and  C_28
    2  A    between atoms: C_28  and  C_30
                            x       y       z     vdW  Elec       q    Type
                         _______ _______ _______ _____ _____    ______ ____

>  <TORSDO>
F 2

$$$$
=
 OpenBabel11122412413D

 30 35  0  0  1  0  0  0  0  0999 V2000
  160.7290  210.3640  151.7750 C   0  0  0  0  0  0  0  0  0  0  0  0
  161.7430  208.3000  150.7840 C   0  0  0  0  0  0  0  0  0  0  0  0
  160.5300  208.4040  155.9150 S   0  0  0  0  0  0  0  0  0  0  0  0
  160.2730  211.0380  152.9300 C   0  0  0  0  0  0  0  0  0  0  0  0
  160.5320  211.0240  150.4340 C   0  0  0  0  0  2  0  0  0  0  0  0
  160.0270  214.4530  151.5830 O   0  0  0  0  0  0  0  0  0  0  0  0
  157.6210  211.5370  153.9940 C   0  0  1  0  0  3  0  0  0  0  0  0
  160.1500  213.2000  151.6330 C   0  0  0  0  0  0  0  0  0  0  0  0
  158.1600  210.9480  155.2370 N   0  0  2  0  0  0  0  0  0  0  0  0
  160.0540  210.0600  156.5410 C   0  0  1  0  0  3  0  0  0  0  0  0
  160.6600  212.4750  150.5050 N   0  0  0  0  0  0  0  0  0  0  0  0
  159.8250  212.4780  152.9050 C   0  0  1  0  0  3  0  0  0  0  0  0
  162.2060  206.9920  150.9590 C   0  0  0  0  0  3  0  0  0  0  0  0
  157.5400  211.7060  156.3140 C   0  0  0  0  0  2  0  0  0  0  0  0
  156.2010  211.9580  154.3160 C   0  0  0  0  0  2  0  0  0  0  0  0
  161.8180  208.8440  149.5070 O   0  0  0  0  0  1  0  0  0  0  0  0
  160.7030  209.0830  154.2750 C   0  0  0  0  0  0  0  0  0  0  0  0
  162.1760  206.3880  152.2130 C   0  0  0  0  0  3  0  0  0  0  0  0
  161.2290  209.0310  151.8880 C   0  0  0  0  0  0  0  0  0  0  0  0
  160.2560  210.3750  154.1550 C   0  0  0  0  0  0  0  0  0  0  0  0
  161.2330  210.6860  157.2600 C   0  0  0  0  0  1  0  0  0  0  0  0
  159.6260  210.9600  155.3730 C   0  0  1  0  0  3  0  0  0  0  0  0
  156.1630  212.1140  155.8240 C   0  0  0  0  0  2  0  0  0  0  0  0
  158.4240  213.8200  154.3150 O   0  0  0  0  0  1  0  0  0  0  0  0
  161.6820  207.0870  153.3110 C   0  0  0  0  0  3  0  0  0  0  0  0
  161.2150  208.3970  153.1670 C   0  0  0  0  0  0  0  0  0  0  0  0
  158.4000  212.7520  153.4140 C   0  0  2  0  0  3  0  0  0  0  0  0
  161.1360  213.1900  149.3270 C   0  0  0  0  0  2  0  0  0  0  0  0
  163.0410  212.5450  147.8520 C   0  0  0  0  0  1  0  0  0  0  0  0
  161.6200  212.2130  148.2670 C   0  0  0  0  0  2  0  0  0  0  0  0
  1 19  2  0  0  0  0
  1  4  1  0  0  0  0
  2 13  2  0  0  0  0
  2 19  1  0  0  0  0
  3 10  1  0  0  0  0
  4 20  2  0  0  0  0
  5 11  1  0  0  0  0
  5  1  1  0  0  0  0
  6  8  2  0  0  0  0
  7 15  1  1  0  0  0
  7  9  1  0  0  0  0
  9 22  1  0  0  0  0
  9 14  1  1  0  0  0
 10 21  1  6  0  0  0
 11  8  1  0  0  0  0
 12  8  1  6  0  0  0
 12  4  1  0  0  0  0
 12 27  1  0  0  0  0
 13 18  1  0  0  0  0
 15 23  1  0  0  0  0
 16  2  1  0  0  0  0
 17  3  1  0  0  0  0
 18 25  2  0  0  0  0
 19 26  1  0  0  0  0
 20 17  1  0  0  0  0
 22 20  1  6  0  0  0
 22 10  1  0  0  0  0
 23 14  1  0  0  0  0
 26 25  1  0  0  0  0
 26 17  2  0  0  0  0
 27  7  1  0  0  0  0
 27 24  1  1  0  0  0
 28 11  1  0  0  0  0
 29 30  1  0  0  0  0
 30 28  1  0  0  0  0
M  END
>  <MODEL>
3

>  <REMARK>
 VINA RESULT:      -5.2      2.376      5.088
  Name = 
  2 active torsions:
  status: ('A' for Active; 'I' for Inactive)
    1  A    between atoms: N_11  and  C_28
    2  A    between atoms: C_28  and  C_30
                            x       y       z     vdW  Elec       q    Type
                         _______ _______ _______ _____ _____    ______ ____

>  <TORSDO>
F 2

$$$$
=
 OpenBabel11122412413D

 30 35  0  0  1  0  0  0  0  0999 V2000
  161.1520  208.3090  151.4080 C   0  0  0  0  0  0  0  0  0  0  0  0
  161.3940  205.9110  150.7280 C   0  0  0  0  0  0  0  0  0  0  0  0
  160.6270  207.1160  155.8040 S   0  0  0  0  0  0  0  0  0  0  0  0
  161.0110  209.2470  152.4540 C   0  0  0  0  0  0  0  0  0  0  0  0
  161.0820  208.8020  149.9860 C   0  0  0  0  0  2  0  0  0  0  0  0
  161.7620  212.3360  150.6010 O   0  0  0  0  0  0  0  0  0  0  0  0
  158.7290  210.7170  153.4800 C   0  0  1  0  0  3  0  0  0  0  0  0
  161.4870  211.1300  150.8420 C   0  0  0  0  0  0  0  0  0  0  0  0
  159.1390  210.1660  154.7880 N   0  0  2  0  0  0  0  0  0  0  0  0
  160.7400  208.9080  156.1760 C   0  0  1  0  0  3  0  0  0  0  0  0
  161.6650  210.1300  149.8300 N   0  0  0  0  0  0  0  0  0  0  0  0
  161.0380  210.7370  152.2160 C   0  0  1  0  0  3  0  0  0  0  0  0
  161.4330  204.5620  151.0940 C   0  0  0  0  0  3  0  0  0  0  0  0
  158.8630  211.2260  155.7470 C   0  0  0  0  0  2  0  0  0  0  0  0
  157.5390  211.6130  153.7610 C   0  0  0  0  0  2  0  0  0  0  0  0
  161.5500  206.2170  149.3820 O   0  0  0  0  0  1  0  0  0  0  0  0
  160.8930  207.4670  154.0760 C   0  0  0  0  0  0  0  0  0  0  0  0
  161.2980  204.1810  152.4260 C   0  0  0  0  0  3  0  0  0  0  0  0
  161.2120  206.9150  151.7160 C   0  0  0  0  0  0  0  0  0  0  0  0
  160.8680  208.8040  153.7670 C   0  0  0  0  0  0  0  0  0  0  0  0
  162.1020  209.2160  156.7670 C   0  0  0  0  0  1  0  0  0  0  0  0
  160.5400  209.7250  154.8920 C   0  0  1  0  0  3  0  0  0  0  0  0
  157.6550  211.9820  155.2270 C   0  0  0  0  0  2  0  0  0  0  0  0
  160.2300  212.6410  153.4300 O   0  0  0  0  0  1  0  0  0  0  0  0
  161.1260  205.1480  153.4130 C   0  0  0  0  0  3  0  0  0  0  0  0
  161.0860  206.5050  153.0770 C   0  0  0  0  0  0  0  0  0  0  0  0
  159.8100  211.5230  152.7050 C   0  0  2  0  0  3  0  0  0  0  0  0
  162.2610  210.4820  148.5460 C   0  0  0  0  0  2  0  0  0  0  0  0
  162.2510  212.6210  147.2650 C   0  0  0  0  0  1  0  0  0  0  0  0
  161.3960  211.4950  147.8130 C   0  0  0  0  0  2  0  0  0  0  0  0
  1 19  2  0  0  0  0
  1  4  1  0  0  0  0
  2 13  2  0  0  0  0
  2 19  1  0  0  0  0
  3 10  1  0  0  0  0
  4 20  2  0  0  0  0
  5  1  1  0  0  0  0
  6  8  2  0  0  0  0
  7 15  1  1  0  0  0
  7  9  1  0  0  0  0
  9 22  1  0  0  0  0
  9 14  1  1  0  0  0
 10 21  1  6  0  0  0
 11  5  1  0  0  0  0
 11  8  1  0  0  0  0
 12  8  1  6  0  0  0
 12  4  1  0  0  0  0
 12 27  1  0  0  0  0
 13 18  1  0  0  0  0
 15 23  1  0  0  0  0
 16  2  1  0  0  0  0
 17  3  1  0  0  0  0
 18 25  2  0  0  0  0
 19 26  1  0  0  0  0
 20 17  1  0  0  0  0
 22 20  1  6  0  0  0
 22 10  1  0  0  0  0
 23 14  1  0  0  0  0
 26 25  1  0  0  0  0
 26 17  2  0  0  0  0
 27 24  1  1  0  0  0
 27  7  1  0  0  0  0
 28 11  1  0  0  0  0
 29 30  1  0  0  0  0
 30 28  1  0  0  0  0
M  END
>  <MODEL>
4

>  <REMARK>
 VINA RESULT:      -5.1      2.349      5.384
  Name = 
  2 active torsions:
  status: ('A' for Active; 'I' for Inactive)
    1  A    between atoms: N_11  and  C_28
    2  A    between atoms: C_28  and  C_30
                            x       y       z     vdW  Elec       q    Type
                         _______ _______ _______ _____ _____    ______ ____

>  <TORSDO>
F 2

$$$$
=
 OpenBabel11122412413D

 30 35  0  0  1  0  0  0  0  0999 V2000
  158.6960  210.9790  139.2600 C   0  0  0  0  0  0  0  0  0  0  0  0
  158.8140  209.0310  137.6900 C   0  0  0  0  0  0  0  0  0  0  0  0
  163.2500  210.9620  139.7880 S   0  0  0  0  0  0  0  0  0  0  0  0
  159.3890  211.9310  140.0400 C   0  0  0  0  0  0  0  0  0  0  0  0
  157.1910  210.9380  139.3450 C   0  0  0  0  0  2  0  0  0  0  0  0
  156.6340  214.2710  140.7290 O   0  0  0  0  0  0  0  0  0  0  0  0
  159.9270  212.1240  142.8840 C   0  0  1  0  0  3  0  0  0  0  0  0
  157.2520  213.2340  140.3660 C   0  0  0  0  0  0  0  0  0  0  0  0
  161.3370  212.2730  142.4650 N   0  0  2  0  0  0  0  0  0  0  0  0
  163.0280  212.5410  140.6930 C   0  0  1  0  0  3  0  0  0  0  0  0
  156.6100  212.2630  139.5290 N   0  0  0  0  0  0  0  0  0  0  0  0
  158.6860  213.0560  140.7580 C   0  0  1  0  0  3  0  0  0  0  0  0
  159.5910  208.0880  137.0110 C   0  0  0  0  0  3  0  0  0  0  0  0
  161.9110  213.2240  143.4070 C   0  0  0  0  0  2  0  0  0  0  0  0
  159.9270  212.2560  144.3940 C   0  0  0  0  0  2  0  0  0  0  0  0
  157.4380  208.9870  137.5020 O   0  0  0  0  0  1  0  0  0  0  0  0
  161.4970  210.9090  139.4690 C   0  0  0  0  0  0  0  0  0  0  0  0
  160.9770  208.0810  137.1400 C   0  0  0  0  0  3  0  0  0  0  0  0
  159.4310  209.9970  138.5290 C   0  0  0  0  0  0  0  0  0  0  0  0
  160.7770  211.8650  140.1390 C   0  0  0  0  0  0  0  0  0  0  0  0
  163.4670  213.6940  139.8110 C   0  0  0  0  0  1  0  0  0  0  0  0
  161.5540  212.7220  141.0800 C   0  0  1  0  0  3  0  0  0  0  0  0
  161.1960  213.0150  144.7290 C   0  0  0  0  0  2  0  0  0  0  0  0
  159.2400  214.4520  142.6290 O   0  0  0  0  0  1  0  0  0  0  0  0
  161.6050  209.0220  137.9510 C   0  0  0  0  0  3  0  0  0  0  0  0
  160.8540  209.9800  138.6410 C   0  0  0  0  0  0  0  0  0  0  0  0
  158.9180  213.1380  142.2770 C   0  0  2  0  0  3  0  0  0  0  0  0
  155.2720  212.5140  139.0060 C   0  0  0  0  0  2  0  0  0  0  0  0
  153.4150  211.1870  140.0130 C   0  0  0  0  0  1  0  0  0  0  0  0
  154.4760  211.2200  138.9290 C   0  0  0  0  0  2  0  0  0  0  0  0
  1  5  1  0  0  0  0
  1  4  1  0  0  0  0
  2 19  1  0  0  0  0
  3 10  1  0  0  0  0
  4 20  2  0  0  0  0
  5 11  1  0  0  0  0
  7 15  1  1  0  0  0
  8  6  2  0  0  0  0
  8 12  1  0  0  0  0
  9  7  1  0  0  0  0
  9 14  1  1  0  0  0
 10 21  1  6  0  0  0
 10 22  1  0  0  0  0
 11  8  1  0  0  0  0
 12  4  1  1  0  0  0
 12 27  1  0  0  0  0
 13 18  1  0  0  0  0
 13  2  2  0  0  0  0
 14 23  1  0  0  0  0
 15 23  1  0  0  0  0
 16  2  1  0  0  0  0
 17  3  1  0  0  0  0
 17 20  1  0  0  0  0
 18 25  2  0  0  0  0
 19 26  1  0  0  0  0
 19  1  2  0  0  0  0
 22 20  1  6  0  0  0
 22  9  1  0  0  0  0
 25 26  1  0  0  0  0
 26 17  2  0  0  0  0
 27 24  1  6  0  0  0
 27  7  1  0  0  0  0
 28 11  1  0  0  0  0
 30 28  1  0  0  0  0
 30 29  1  0  0  0  0
M  END
>  <MODEL>
5

>  <REMARK>
 VINA RESULT:      -5.0      9.724     13.092
  Name = 
  2 active torsions:
  status: ('A' for Active; 'I' for Inactive)
    1  A    between atoms: N_11  and  C_28
    2  A    between atoms: C_28  and  C_30
                            x       y       z     vdW  Elec       q    Type
                         _______ _______ _______ _____ _____    ______ ____

>  <TORSDO>
F 2

$$$$
=
 OpenBabel11122412413D

 30 35  0  0  1  0  0  0  0  0999 V2000
  161.2170  207.8020  151.3410 C   0  0  0  0  0  0  0  0  0  0  0  0
  161.0830  205.3110  151.5620 C   0  0  0  0  0  0  0  0  0  0  0  0
  160.7600  208.3330  155.8720 S   0  0  0  0  0  0  0  0  0  0  0  0
  161.2650  209.0590  151.9820 C   0  0  0  0  0  0  0  0  0  0  0  0
  161.1440  207.7660  149.8360 C   0  0  0  0  0  2  0  0  0  0  0  0
  162.3460  211.1440  149.1500 O   0  0  0  0  0  0  0  0  0  0  0  0
  159.2700  211.1220  152.4120 C   0  0  1  0  0  3  0  0  0  0  0  0
  161.9160  210.1570  149.8050 C   0  0  0  0  0  0  0  0  0  0  0  0
  159.6650  211.0130  153.8320 N   0  0  2  0  0  0  0  0  0  0  0  0
  161.1440  210.1020  155.5800 C   0  0  1  0  0  3  0  0  0  0  0  0
  161.8990  208.8500  149.2170 N   0  0  0  0  0  0  0  0  0  0  0  0
  161.4890  210.3470  151.2280 C   0  0  1  0  0  3  0  0  0  0  0  0
  160.9510  204.1890  152.3860 C   0  0  0  0  0  3  0  0  0  0  0  0
  159.5920  212.3720  154.3490 C   0  0  0  0  0  2  0  0  0  0  0  0
  158.2340  212.2270  152.3530 C   0  0  0  0  0  2  0  0  0  0  0  0
  161.2100  205.0950  150.1950 O   0  0  0  0  0  1  0  0  0  0  0  0
  160.9830  208.0070  154.1330 C   0  0  0  0  0  0  0  0  0  0  0  0
  160.8340  204.3280  153.7660 C   0  0  0  0  0  3  0  0  0  0  0  0
  161.0970  206.6150  152.1260 C   0  0  0  0  0  0  0  0  0  0  0  0
  161.1300  209.1350  153.3670 C   0  0  0  0  0  0  0  0  0  0  0  0
  162.5650  210.3890  156.0240 C   0  0  0  0  0  1  0  0  0  0  0  0
  160.9940  210.4320  154.0890 C   0  0  1  0  0  3  0  0  0  0  0  0
  158.4780  213.0680  153.5910 C   0  0  0  0  0  2  0  0  0  0  0  0
  161.0220  212.6550  151.6810 O   0  0  0  0  0  1  0  0  0  0  0  0
  160.8510  205.5950  154.3420 C   0  0  0  0  0  3  0  0  0  0  0  0
  160.9860  206.7360  153.5440 C   0  0  0  0  0  0  0  0  0  0  0  0
  160.4110  211.4300  151.4020 C   0  0  2  0  0  3  0  0  0  0  0  0
  162.4710  208.6310  147.8940 C   0  0  0  0  0  2  0  0  0  0  0  0
  161.6240  206.5830  146.7500 C   0  0  0  0  0  1  0  0  0  0  0  0
  162.7050  207.1490  147.6500 C   0  0  0  0  0  2  0  0  0  0  0  0
  1  4  2  0  0  0  0
  1 19  1  0  0  0  0
  2 19  2  0  0  0  0
  2 13  1  0  0  0  0
  4 20  1  0  0  0  0
  5  1  1  0  0  0  0
  6  8  2  0  0  0  0
  7 15  1  1  0  0  0
  7  9  1  0  0  0  0
  9 22  1  0  0  0  0
  9 14  1  6  0  0  0
 10  3  1  0  0  0  0
 10 21  1  6  0  0  0
 11  8  1  0  0  0  0
 11  5  1  0  0  0  0
 12  8  1  6  0  0  0
 12 27  1  0  0  0  0
 12  4  1  0  0  0  0
 13 18  2  0  0  0  0
 15 23  1  0  0  0  0
 16  2  1  0  0  0  0
 17  3  1  0  0  0  0
 18 25  1  0  0  0  0
 19 26  1  0  0  0  0
 20 17  2  0  0  0  0
 22 20  1  6  0  0  0
 22 10  1  0  0  0  0
 23 14  1  0  0  0  0
 26 17  1  0  0  0  0
 26 25  2  0  0  0  0
 27 24  1  1  0  0  0
 27  7  1  0  0  0  0
 28 11  1  0  0  0  0
 29 30  1  0  0  0  0
 30 28  1  0  0  0  0
M  END
>  <MODEL>
6

>  <REMARK>
 VINA RESULT:      -4.5      2.338      5.303
  Name = 
  2 active torsions:
  status: ('A' for Active; 'I' for Inactive)
    1  A    between atoms: N_11  and  C_28
    2  A    between atoms: C_28  and  C_30
                            x       y       z     vdW  Elec       q    Type
                         _______ _______ _______ _____ _____    ______ ____

>  <TORSDO>
F 2

$$$$
=
 OpenBabel11122412413D

 30 35  0  0  1  0  0  0  0  0999 V2000
  161.1660  210.2270  151.1580 C   0  0  0  0  0  0  0  0  0  0  0  0
  161.9650  207.8750  150.8380 C   0  0  0  0  0  0  0  0  0  0  0  0
  160.1230  209.3860  155.5430 S   0  0  0  0  0  0  0  0  0  0  0  0
  160.6740  211.2140  152.0400 C   0  0  0  0  0  0  0  0  0  0  0  0
  161.2520  210.5540  149.6890 C   0  0  0  0  0  2  0  0  0  0  0  0
  161.1420  214.1950  149.9360 O   0  0  0  0  0  0  0  0  0  0  0  0
  158.0160  212.2760  152.5130 C   0  0  1  0  0  3  0  0  0  0  0  0
  161.0600  212.9880  150.2870 C   0  0  0  0  0  0  0  0  0  0  0  0
  158.2890  211.9510  153.9290 N   0  0  2  0  0  0  0  0  0  0  0  0
  159.8330  211.1910  155.6920 C   0  0  1  0  0  3  0  0  0  0  0  0
  161.5940  211.9520  149.4510 N   0  0  0  0  0  0  0  0  0  0  0  0
  160.4630  212.6460  151.6170 C   0  0  1  0  0  3  0  0  0  0  0  0
  162.1910  206.6050  151.3780 C   0  0  0  0  0  3  0  0  0  0  0  0
  157.6590  213.0200  154.6900 C   0  0  0  0  0  2  0  0  0  0  0  0
  156.6490  212.9310  152.4940 C   0  0  0  0  0  2  0  0  0  0  0  0
  162.2910  208.0740  149.5020 O   0  0  0  0  0  1  0  0  0  0  0  0
  160.6130  209.6140  153.8440 C   0  0  0  0  0  0  0  0  0  0  0  0
  161.9030  206.3360  152.7130 C   0  0  0  0  0  3  0  0  0  0  0  0
  161.4320  208.9120  151.6490 C   0  0  0  0  0  0  0  0  0  0  0  0
  160.3930  210.8800  153.3630 C   0  0  0  0  0  0  0  0  0  0  0  0
  160.9910  211.8270  156.4350 C   0  0  0  0  0  1  0  0  0  0  0  0
  159.7090  211.8190  154.2970 C   0  0  1  0  0  3  0  0  0  0  0  0
  156.4390  213.4580  153.9010 C   0  0  0  0  0  2  0  0  0  0  0  0
  159.1160  214.4530  152.4390 O   0  0  0  0  0  1  0  0  0  0  0  0
  161.3860  207.3380  153.5290 C   0  0  0  0  0  3  0  0  0  0  0  0
  161.1520  208.6200  153.0180 C   0  0  0  0  0  0  0  0  0  0  0  0
  159.0440  213.2070  151.8110 C   0  0  2  0  0  3  0  0  0  0  0  0
  162.3260  212.2910  148.2370 C   0  0  0  0  0  2  0  0  0  0  0  0
  161.9610  213.3710  146.0190 C   0  0  0  0  0  1  0  0  0  0  0  0
  161.3740  212.4380  147.0600 C   0  0  0  0  0  2  0  0  0  0  0  0
  1 19  2  0  0  0  0
  1  4  1  0  0  0  0
  2 13  2  0  0  0  0
  2 19  1  0  0  0  0
  3 10  1  0  0  0  0
  4 20  2  0  0  0  0
  5  1  1  0  0  0  0
  6  8  2  0  0  0  0
  7 15  1  1  0  0  0
  7  9  1  0  0  0  0
  9 22  1  0  0  0  0
  9 14  1  1  0  0  0
 10 21  1  6  0  0  0
 11  5  1  0  0  0  0
 11  8  1  0  0  0  0
 12  8  1  6  0  0  0
 12 27  1  0  0  0  0
 12  4  1  0  0  0  0
 13 18  1  0  0  0  0
 15 23  1  0  0  0  0
 16  2  1  0  0  0  0
 17  3  1  0  0  0  0
 18 25  2  0  0  0  0
 19 26  1  0  0  0  0
 20 17  1  0  0  0  0
 22 20  1  6  0  0  0
 22 10  1  0  0  0  0
 23 14  1  0  0  0  0
 26 25  1  0  0  0  0
 26 17  2  0  0  0  0
 27 24  1  1  0  0  0
 27  7  1  0  0  0  0
 28 11  1  0  0  0  0
 29 30  1  0  0  0  0
 30 28  1  0  0  0  0
M  END
>  <MODEL>
7

>  <REMARK>
 VINA RESULT:      -4.1      2.279      5.190
  Name = 
  2 active torsions:
  status: ('A' for Active; 'I' for Inactive)
    1  A    between atoms: N_11  and  C_28
    2  A    between atoms: C_28  and  C_30
                            x       y       z     vdW  Elec       q    Type
                         _______ _______ _______ _____ _____    ______ ____

>  <TORSDO>
F 2

$$$$
