=
 OpenBabel11122412353D

 30 36  0  0  1  0  0  0  0  0999 V2000
  160.4130  210.5560  153.1840 C   0  0  0  0  0  0  0  0  0  0  0  0
  158.9290  212.4240  153.9640 C   0  0  0  0  0  0  0  0  0  0  0  0
  161.0990  212.1570  149.3040 C   0  0  0  0  0  2  0  0  0  0  0  0
  161.2020  209.8490  152.1120 C   0  0  0  0  0  0  0  0  0  0  0  0
  160.1740  209.8680  154.5040 C   0  0  0  0  0  2  0  0  0  0  0  0
  160.2440  207.2070  153.4470 O   0  0  0  0  0  1  0  0  0  0  0  0
  161.2190  207.5370  150.1760 C   0  0  1  0  0  3  0  0  0  0  0  0
  161.4510  207.8650  153.7160 C   0  0  2  0  0  3  0  0  0  0  0  0
  161.4560  208.6590  149.1630 C   0  0  2  0  0  3  0  0  0  0  0  0
  162.0080  211.0700  148.7150 C   0  0  1  0  0  3  0  0  0  0  0  0
  161.2790  208.8750  154.8490 C   0  0  2  0  0  3  0  0  0  0  0  0
  161.9720  208.5760  152.4640 C   0  0  1  0  0  3  0  0  0  0  0  0
  158.7200  213.8900  153.6910 C   0  0  0  0  0  3  0  0  0  0  0  0
  162.3050  208.0410  148.0740 C   0  0  0  0  0  2  0  0  0  0  0  0
  161.3480  206.2360  149.3950 C   0  0  0  0  0  2  0  0  0  0  0  0
  157.3390  211.6170  153.9620 Cl  0  0  0  0  0  0  0  0  0  0  0  0
  160.7340  211.6860  150.6240 N   0  0  0  0  0  0  0  0  0  0  0  0
  159.0190  214.4530  152.5180 C   0  0  0  0  0  3  0  0  0  0  0  0
  159.8390  211.7600  152.9490 C   0  0  0  0  0  0  0  0  0  0  0  0
  161.3240  210.4360  150.9010 C   0  0  0  0  0  0  0  0  0  0  0  0
  163.3300  211.6220  148.4830 N   0  0  0  0  0  1  0  0  0  0  0  0
  162.1020  209.9270  149.7380 C   0  0  1  0  0  3  0  0  0  0  0  0
  161.8680  206.5930  148.0120 C   0  0  0  0  0  2  0  0  0  0  0  0
  163.1810  206.8850  151.3550 O   0  0  0  0  0  0  0  0  0  0  0  0
  159.6520  213.6780  151.4380 C   0  0  0  0  0  3  0  0  0  0  0  0
  160.0410  212.4160  151.6360 C   0  0  1  0  0  3  0  0  0  0  0  0
  162.1860  207.5950  151.3390 C   0  0  0  0  0  0  0  0  0  0  0  0
  160.9620  208.1720  156.1590 C   0  0  0  0  0  3  0  0  0  0  0  0
  161.8900  208.6830  157.2440 C   0  0  0  0  0  2  0  0  0  0  0  0
  160.4650  209.1860  157.1700 C   0  0  0  0  0  2  0  0  0  0  0  0
  1  5  1  0  0  0  0
  3 17  1  0  0  0  0
  4 12  1  0  0  0  0
  4  1  1  0  0  0  0
  5 11  1  0  0  0  0
  7 15  1  6  0  0  0
  7 27  1  0  0  0  0
  8  6  1  6  0  0  0
  8 11  1  0  0  0  0
  9 14  1  6  0  0  0
  9 22  1  0  0  0  0
  9  7  1  0  0  0  0
 10 21  1  1  0  0  0
 10  3  1  0  0  0  0
 10 22  1  0  0  0  0
 11 28  1  1  0  0  0
 12 27  1  6  0  0  0
 12  8  1  0  0  0  0
 13  2  2  0  0  0  0
 16  2  1  0  0  0  0
 17 20  1  0  0  0  0
 17 26  1  0  0  0  0
 18 13  1  0  0  0  0
 19  1  2  0  0  0  0
 19  2  1  0  0  0  0
 20  4  2  0  0  0  0
 22 20  1  1  0  0  0
 23 14  1  0  0  0  0
 23 15  1  0  0  0  0
 25 18  2  0  0  0  0
 26 25  1  1  0  0  0
 26 19  1  0  0  0  0
 27 24  2  0  0  0  0
 28 30  1  0  0  0  0
 28 29  1  0  0  0  0
 30 29  1  0  0  0  0
M  END
>  <MODEL>
1

>  <REMARK>
 VINA RESULT:      -5.7      0.000      0.000
  Name = 
  1 active torsions:
  status: ('A' for Active; 'I' for Inactive)
    1  A    between atoms: C_11  and  C_28
                            x       y       z     vdW  Elec       q    Type
                         _______ _______ _______ _____ _____    ______ ____

>  <TORSDO>
F 1

$$$$
=
 OpenBabel11122412353D

 30 36  0  0  1  0  0  0  0  0999 V2000
  161.2260  210.9530  149.9450 C   0  0  0  0  0  0  0  0  0  0  0  0
  161.7430  212.3130  147.8990 C   0  0  1  0  0  3  0  0  0  0  0  0
  159.2550  214.0820  152.0430 C   0  0  0  0  0  2  0  0  0  0  0  0
  160.7110  210.8220  151.3550 C   0  0  0  0  0  0  0  0  0  0  0  0
  161.9700  209.8010  149.3180 C   0  0  0  0  0  2  0  0  0  0  0  0
  163.0100  208.7690  151.7790 O   0  0  0  0  0  1  0  0  0  0  0  0
  161.4910  210.5880  154.2580 C   0  0  1  0  0  3  0  0  0  0  0  0
  161.6960  208.4570  151.4110 C   0  0  2  0  0  3  0  0  0  0  0  0
  160.5910  211.8190  154.3830 C   0  0  2  0  0  3  0  0  0  0  0  0
  158.8930  213.3550  153.3450 C   0  0  1  0  0  3  0  0  0  0  0  0
  161.5420  208.4540  149.8900 C   0  0  2  0  0  3  0  0  0  0  0  0
  160.7080  209.4500  152.0280 C   0  0  1  0  0  3  0  0  0  0  0  0
  161.1820  213.4990  147.1590 C   0  0  0  0  0  3  0  0  0  0  0  0
  159.9790  211.7270  155.7630 C   0  0  0  0  0  2  0  0  0  0  0  0
  161.8760  210.2060  155.6820 C   0  0  0  0  0  2  0  0  0  0  0  0
  163.5020  212.5420  148.0800 Cl  0  0  0  0  0  0  0  0  0  0  0  0
  160.0050  213.1250  151.2570 N   0  0  0  0  0  0  0  0  0  0  0  0
  160.4680  214.4520  147.7630 C   0  0  0  0  0  3  0  0  0  0  0  0
  161.1110  212.1190  149.2640 C   0  0  0  0  0  0  0  0  0  0  0  0
  160.1330  211.8970  151.9370 C   0  0  0  0  0  0  0  0  0  0  0  0
  157.4500  213.2380  153.4470 N   0  0  0  0  0  1  0  0  0  0  0  0
  159.5190  211.9530  153.2920 C   0  0  1  0  0  3  0  0  0  0  0  0
  161.0370  211.0620  156.6170 C   0  0  0  0  0  2  0  0  0  0  0  0
  160.2920  208.5340  154.1580 O   0  0  0  0  0  0  0  0  0  0  0  0
  160.1190  214.3560  149.1900 C   0  0  0  0  0  3  0  0  0  0  0  0
  160.4160  213.2630  149.8980 C   0  0  0  0  0  0  0  0  0  0  0  0
  160.8120  209.4470  153.5320 C   0  0  0  0  0  0  0  0  0  0  0  0
  162.3600  207.3350  149.2650 C   0  0  0  0  0  3  0  0  0  0  0  0
  161.4310  206.2330  148.7950 C   0  0  0  0  0  2  0  0  0  0  0  0
  162.0080  207.2120  147.7960 C   0  0  0  0  0  2  0  0  0  0  0  0
  1  4  1  0  0  0  0
  2 16  1  1  0  0  0
  2 19  1  0  0  0  0
  3 10  1  0  0  0  0
  4 20  2  0  0  0  0
  5 11  1  0  0  0  0
  5  1  1  0  0  0  0
  7  9  1  0  0  0  0
  7 15  1  1  0  0  0
  8  6  1  6  0  0  0
  8 12  1  0  0  0  0
  9 14  1  1  0  0  0
 10 21  1  6  0  0  0
 11 28  1  6  0  0  0
 11  8  1  0  0  0  0
 12  4  1  6  0  0  0
 12 27  1  0  0  0  0
 13 18  2  0  0  0  0
 13  2  1  0  0  0  0
 14 23  1  0  0  0  0
 15 23  1  0  0  0  0
 17 20  1  0  0  0  0
 17  3  1  0  0  0  0
 18 25  1  0  0  0  0
 19 26  1  0  0  0  0
 19  1  2  0  0  0  0
 22 20  1  6  0  0  0
 22 10  1  0  0  0  0
 22  9  1  0  0  0  0
 25 26  2  0  0  0  0
 26 17  1  0  0  0  0
 27 24  2  0  0  0  0
 27  7  1  0  0  0  0
 29 28  1  0  0  0  0
 30 29  1  0  0  0  0
 30 28  1  0  0  0  0
M  END
>  <MODEL>
2

>  <REMARK>
 VINA RESULT:      -5.2      2.271      5.753
  Name = 
  1 active torsions:
  status: ('A' for Active; 'I' for Inactive)
    1  A    between atoms: C_11  and  C_28
                            x       y       z     vdW  Elec       q    Type
                         _______ _______ _______ _____ _____    ______ ____

>  <TORSDO>
F 1

$$$$
=
 OpenBabel11122412353D

 30 36  0  0  1  0  0  0  0  0999 V2000
  161.0090  210.0530  151.6400 C   0  0  0  0  0  0  0  0  0  0  0  0
  161.9120  207.9400  150.6280 C   0  0  1  0  0  3  0  0  0  0  0  0
  160.2860  208.4000  155.4900 C   0  0  0  0  0  2  0  0  0  0  0  0
  160.3570  210.8090  152.7680 C   0  0  0  0  0  0  0  0  0  0  0  0
  161.1580  210.7140  150.2930 C   0  0  0  0  0  2  0  0  0  0  0  0
  158.8570  212.3980  150.5540 O   0  0  0  0  0  1  0  0  0  0  0  0
  157.7760  211.9920  153.7830 C   0  0  1  0  0  3  0  0  0  0  0  0
  160.0560  212.7850  151.1640 C   0  0  2  0  0  3  0  0  0  0  0  0
  158.0810  211.0960  154.9850 C   0  0  2  0  0  3  0  0  0  0  0  0
  159.7100  209.6260  156.2120 C   0  0  1  0  0  3  0  0  0  0  0  0
  161.2580  212.2320  150.4000 C   0  0  2  0  0  3  0  0  0  0  0  0
  160.1050  212.3090  152.6180 C   0  0  1  0  0  3  0  0  0  0  0  0
  162.6230  206.6880  151.0720 C   0  0  0  0  0  3  0  0  0  0  0  0
  157.5100  211.8240  156.1810 C   0  0  0  0  0  2  0  0  0  0  0  0
  156.5540  212.8130  154.1740 C   0  0  0  0  0  2  0  0  0  0  0  0
  160.5630  207.4730  149.5590 Cl  0  0  0  0  0  0  0  0  0  0  0  0
  160.5130  208.8230  154.1250 N   0  0  0  0  0  0  0  0  0  0  0  0
  162.5030  206.1930  152.3070 C   0  0  0  0  0  3  0  0  0  0  0  0
  161.3820  208.7590  151.7900 C   0  0  0  0  0  0  0  0  0  0  0  0
  160.1420  210.1710  153.9400 C   0  0  0  0  0  0  0  0  0  0  0  0
  160.6230  210.0410  157.2610 N   0  0  0  0  0  1  0  0  0  0  0  0
  159.5650  210.7560  155.1810 C   0  0  1  0  0  3  0  0  0  0  0  0
  156.2960  212.5560  155.6500 C   0  0  0  0  0  2  0  0  0  0  0  0
  158.9980  214.0350  153.7800 O   0  0  0  0  0  0  0  0  0  0  0  0
  161.7220  206.8930  153.3390 C   0  0  0  0  0  3  0  0  0  0  0  0
  161.1970  208.0990  153.1030 C   0  0  0  0  0  0  0  0  0  0  0  0
  158.9480  212.8720  153.4060 C   0  0  0  0  0  0  0  0  0  0  0  0
  161.3510  212.8490  149.0140 C   0  0  0  0  0  3  0  0  0  0  0  0
  162.7430  212.6280  148.4540 C   0  0  0  0  0  2  0  0  0  0  0  0
  161.5940  211.7590  147.9890 C   0  0  0  0  0  2  0  0  0  0  0  0
  1 19  2  0  0  0  0
  1  4  1  0  0  0  0
  2 16  1  6  0  0  0
  2 13  1  0  0  0  0
  2 19  1  0  0  0  0
  3 10  1  0  0  0  0
  4 20  2  0  0  0  0
  5 11  1  0  0  0  0
  5  1  1  0  0  0  0
  7 15  1  1  0  0  0
  7  9  1  0  0  0  0
  8  6  1  6  0  0  0
  8 12  1  0  0  0  0
  9 22  1  0  0  0  0
  9 14  1  1  0  0  0
 10 21  1  1  0  0  0
 11 28  1  6  0  0  0
 11  8  1  0  0  0  0
 12  4  1  6  0  0  0
 12 27  1  0  0  0  0
 13 18  2  0  0  0  0
 15 23  1  0  0  0  0
 17  3  1  0  0  0  0
 18 25  1  0  0  0  0
 19 26  1  0  0  0  0
 20 17  1  0  0  0  0
 22 20  1  6  0  0  0
 22 10  1  0  0  0  0
 23 14  1  0  0  0  0
 26 25  2  0  0  0  0
 26 17  1  0  0  0  0
 27 24  2  0  0  0  0
 27  7  1  0  0  0  0
 29 28  1  0  0  0  0
 30 29  1  0  0  0  0
 30 28  1  0  0  0  0
M  END
>  <MODEL>
3

>  <REMARK>
 VINA RESULT:      -5.0      2.885      7.150
  Name = 
  1 active torsions:
  status: ('A' for Active; 'I' for Inactive)
    1  A    between atoms: C_11  and  C_28
                            x       y       z     vdW  Elec       q    Type
                         _______ _______ _______ _____ _____    ______ ____

>  <TORSDO>
F 1

$$$$
=
 OpenBabel11122412353D

 30 36  0  0  1  0  0  0  0  0999 V2000
  161.3520  209.9990  150.9120 C   0  0  0  0  0  0  0  0  0  0  0  0
  162.1120  207.6710  150.3580 C   0  0  1  0  0  3  0  0  0  0  0  0
  160.0790  209.0960  154.8680 C   0  0  0  0  0  2  0  0  0  0  0  0
  160.6790  210.9920  151.8240 C   0  0  0  0  0  0  0  0  0  0  0  0
  161.7030  210.4060  149.5030 C   0  0  0  0  0  2  0  0  0  0  0  0
  159.5850  212.3140  149.2290 O   0  0  0  0  0  1  0  0  0  0  0  0
  158.1570  212.5620  152.3370 C   0  0  1  0  0  3  0  0  0  0  0  0
  160.7540  212.6870  149.9030 C   0  0  2  0  0  3  0  0  0  0  0  0
  158.2430  211.8580  153.6930 C   0  0  2  0  0  3  0  0  0  0  0  0
  159.5740  210.4740  155.3160 C   0  0  1  0  0  3  0  0  0  0  0  0
  161.9570  211.9040  149.3790 C   0  0  2  0  0  3  0  0  0  0  0  0
  160.6090  212.4620  151.4100 C   0  0  1  0  0  3  0  0  0  0  0  0
  162.6350  206.4530  151.0730 C   0  0  0  0  0  3  0  0  0  0  0  0
  157.6410  212.8280  154.6850 C   0  0  0  0  0  2  0  0  0  0  0  0
  156.9990  213.5460  152.4510 C   0  0  0  0  0  2  0  0  0  0  0  0
  160.8310  207.1560  149.2290 Cl  0  0  0  0  0  0  0  0  0  0  0  0
  160.4840  209.2590  153.4870 N   0  0  0  0  0  0  0  0  0  0  0  0
  162.3410  206.1870  152.3490 C   0  0  0  0  0  3  0  0  0  0  0  0
  161.5640  208.7200  151.3070 C   0  0  0  0  0  0  0  0  0  0  0  0
  160.2830  210.5840  153.0500 C   0  0  0  0  0  0  0  0  0  0  0  0
  160.4200  210.9740  156.3820 N   0  0  0  0  0  1  0  0  0  0  0  0
  159.6550  211.4210  154.1080 C   0  0  1  0  0  3  0  0  0  0  0  0
  156.5720  213.5670  153.9090 C   0  0  0  0  0  2  0  0  0  0  0  0
  159.5900  214.4530  152.1500 O   0  0  0  0  0  0  0  0  0  0  0  0
  161.5450  207.1210  153.1610 C   0  0  0  0  0  3  0  0  0  0  0  0
  161.1800  208.3120  152.6780 C   0  0  0  0  0  0  0  0  0  0  0  0
  159.4490  213.2530  151.9610 C   0  0  0  0  0  0  0  0  0  0  0  0
  162.2520  212.2670  147.9320 C   0  0  0  0  0  3  0  0  0  0  0  0
  163.0680  213.5440  147.8880 C   0  0  0  0  0  2  0  0  0  0  0  0
  163.7470  212.2060  147.6900 C   0  0  0  0  0  2  0  0  0  0  0  0
  1 19  2  0  0  0  0
  1  4  1  0  0  0  0
  2 16  1  6  0  0  0
  2 13  1  0  0  0  0
  2 19  1  0  0  0  0
  3 10  1  0  0  0  0
  4 20  2  0  0  0  0
  5  1  1  0  0  0  0
  7 15  1  1  0  0  0
  7  9  1  0  0  0  0
  8  6  1  6  0  0  0
  8 12  1  0  0  0  0
  9 22  1  0  0  0  0
  9 14  1  1  0  0  0
 10 21  1  1  0  0  0
 11 28  1  6  0  0  0
 11  5  1  0  0  0  0
 11  8  1  0  0  0  0
 12  4  1  6  0  0  0
 12 27  1  0  0  0  0
 13 18  2  0  0  0  0
 15 23  1  0  0  0  0
 17  3  1  0  0  0  0
 18 25  1  0  0  0  0
 19 26  1  0  0  0  0
 20 17  1  0  0  0  0
 22 20  1  6  0  0  0
 22 10  1  0  0  0  0
 23 14  1  0  0  0  0
 26 25  2  0  0  0  0
 26 17  1  0  0  0  0
 27 24  2  0  0  0  0
 27  7  1  0  0  0  0
 29 28  1  0  0  0  0
 30 29  1  0  0  0  0
 30 28  1  0  0  0  0
M  END
>  <MODEL>
4

>  <REMARK>
 VINA RESULT:      -4.7      2.905      7.088
  Name = 
  1 active torsions:
  status: ('A' for Active; 'I' for Inactive)
    1  A    between atoms: C_11  and  C_28
                            x       y       z     vdW  Elec       q    Type
                         _______ _______ _______ _____ _____    ______ ____

>  <TORSDO>
F 1

$$$$
=
 OpenBabel11122412353D

 30 36  0  0  1  0  0  0  0  0999 V2000
  160.9620  209.3650  152.8610 C   0  0  0  0  0  0  0  0  0  0  0  0
  160.0920  211.7170  152.9660 C   0  0  0  0  0  0  0  0  0  0  0  0
  161.5890  209.3360  148.6550 C   0  0  0  0  0  2  0  0  0  0  0  0
  161.4220  208.1550  152.0900 C   0  0  0  0  0  0  0  0  0  0  0  0
  160.7070  209.2470  154.3420 C   0  0  0  0  0  2  0  0  0  0  0  0
  159.9880  206.4760  154.2810 O   0  0  0  0  0  1  0  0  0  0  0  0
  160.6410  205.4220  151.0840 C   0  0  1  0  0  3  0  0  0  0  0  0
  161.3430  206.8280  154.2810 C   0  0  2  0  0  3  0  0  0  0  0  0
  161.0370  206.0330  149.7390 C   0  0  2  0  0  3  0  0  0  0  0  0
  162.1240  207.9100  148.4660 C   0  0  1  0  0  3  0  0  0  0  0  0
  161.5590  208.1630  154.9920 C   0  0  2  0  0  3  0  0  0  0  0  0
  161.8820  206.9120  152.8510 C   0  0  1  0  0  3  0  0  0  0  0  0
  160.2280  213.0080  152.2010 C   0  0  0  0  0  3  0  0  0  0  0  0
  161.5760  204.8820  148.9190 C   0  0  0  0  0  2  0  0  0  0  0  0
  160.3510  203.9530  150.8050 C   0  0  0  0  0  2  0  0  0  0  0  0
  158.3600  211.4250  153.2730 Cl  0  0  0  0  0  0  0  0  0  0  0  0
  161.2670  209.4480  150.0620 N   0  0  0  0  0  0  0  0  0  0  0  0
  160.5260  213.0450  150.8990 C   0  0  0  0  0  3  0  0  0  0  0  0
  160.6860  210.5320  152.2300 C   0  0  0  0  0  0  0  0  0  0  0  0
  161.5520  208.2500  150.7480 C   0  0  0  0  0  0  0  0  0  0  0  0
  163.5070  207.9680  148.0320 N   0  0  0  0  0  1  0  0  0  0  0  0
  162.0410  207.1920  149.8220 C   0  0  1  0  0  3  0  0  0  0  0  0
  160.7850  203.6740  149.3750 C   0  0  0  0  0  2  0  0  0  0  0  0
  162.4960  204.6860  152.3810 O   0  0  0  0  0  0  0  0  0  0  0  0
  160.8190  211.8140  150.1470 C   0  0  0  0  0  3  0  0  0  0  0  0
  160.8980  210.6330  150.7670 C   0  0  1  0  0  3  0  0  0  0  0  0
  161.7150  205.5940  152.1360 C   0  0  0  0  0  0  0  0  0  0  0  0
  161.2240  208.0500  156.4710 C   0  0  0  0  0  3  0  0  0  0  0  0
  162.0910  209.0100  157.2610 C   0  0  0  0  0  2  0  0  0  0  0  0
  160.6510  209.3640  156.9620 C   0  0  0  0  0  2  0  0  0  0  0  0
  1  5  1  0  0  0  0
  2 16  1  0  0  0  0
  3 17  1  0  0  0  0
  4  1  1  0  0  0  0
  5 11  1  0  0  0  0
  7 15  1  6  0  0  0
  7 27  1  0  0  0  0
  8  6  1  6  0  0  0
  8 11  1  0  0  0  0
  9 14  1  6  0  0  0
  9 22  1  0  0  0  0
  9  7  1  0  0  0  0
 10 21  1  1  0  0  0
 10  3  1  0  0  0  0
 10 22  1  0  0  0  0
 11 28  1  1  0  0  0
 12  4  1  6  0  0  0
 12  8  1  0  0  0  0
 13  2  2  0  0  0  0
 14 23  1  0  0  0  0
 17 20  1  0  0  0  0
 17 26  1  0  0  0  0
 18 13  1  0  0  0  0
 19  1  2  0  0  0  0
 19  2  1  0  0  0  0
 20  4  2  0  0  0  0
 22 20  1  1  0  0  0
 23 15  1  0  0  0  0
 25 18  2  0  0  0  0
 26 25  1  1  0  0  0
 26 19  1  0  0  0  0
 27 24  2  0  0  0  0
 27 12  1  0  0  0  0
 28 30  1  0  0  0  0
 28 29  1  0  0  0  0
 30 29  1  0  0  0  0
M  END
>  <MODEL>
5

>  <REMARK>
 VINA RESULT:      -4.3      1.504      2.221
  Name = 
  1 active torsions:
  status: ('A' for Active; 'I' for Inactive)
    1  A    between atoms: C_11  and  C_28
                            x       y       z     vdW  Elec       q    Type
                         _______ _______ _______ _____ _____    ______ ____

>  <TORSDO>
F 1

$$$$
=
 OpenBabel11122412353D

 30 36  0  0  1  0  0  0  0  0999 V2000
  160.9320  211.0250  150.6700 C   0  0  0  0  0  0  0  0  0  0  0  0
  161.6170  211.8470  148.3990 C   0  0  1  0  0  3  0  0  0  0  0  0
  158.3570  214.2950  151.5420 C   0  0  0  0  0  2  0  0  0  0  0  0
  160.2220  211.2060  151.9880 C   0  0  0  0  0  0  0  0  0  0  0  0
  161.8750  209.8630  150.4900 C   0  0  0  0  0  2  0  0  0  0  0  0
  162.6240  209.6820  153.2480 O   0  0  0  0  0  1  0  0  0  0  0  0
  160.5670  211.8670  154.9090 C   0  0  1  0  0  3  0  0  0  0  0  0
  161.4200  209.1030  152.8300 C   0  0  2  0  0  3  0  0  0  0  0  0
  159.5390  212.9490  154.5710 C   0  0  2  0  0  3  0  0  0  0  0  0
  157.8740  213.9000  152.9440 C   0  0  1  0  0  3  0  0  0  0  0  0
  161.5020  208.6720  151.3670 C   0  0  2  0  0  3  0  0  0  0  0  0
  160.2540  210.0770  153.0170 C   0  0  1  0  0  3  0  0  0  0  0  0
  161.0590  212.7010  147.2910 C   0  0  0  0  0  3  0  0  0  0  0  0
  158.7350  213.1450  155.8360 C   0  0  0  0  0  2  0  0  0  0  0  0
  160.7650  211.9380  156.4180 C   0  0  0  0  0  2  0  0  0  0  0  0
  163.2950  212.3590  148.7160 Cl  0  0  0  0  0  0  0  0  0  0  0  0
  159.3110  213.2760  151.1560 N   0  0  0  0  0  0  0  0  0  0  0  0
  160.1690  213.6730  147.5100 C   0  0  0  0  0  3  0  0  0  0  0  0
  160.8060  211.9390  149.6780 C   0  0  0  0  0  0  0  0  0  0  0  0
  159.4560  212.3050  152.1670 C   0  0  0  0  0  0  0  0  0  0  0  0
  156.4520  213.6140  152.9020 N   0  0  0  0  0  1  0  0  0  0  0  0
  158.6390  212.6360  153.3670 C   0  0  1  0  0  3  0  0  0  0  0  0
  159.7110  212.8860  156.9640 C   0  0  0  0  0  2  0  0  0  0  0  0
  159.6100  209.7150  155.2550 O   0  0  0  0  0  0  0  0  0  0  0  0
  159.6170  213.9140  148.8530 C   0  0  0  0  0  3  0  0  0  0  0  0
  159.9090  213.1020  149.8720 C   0  0  0  0  0  0  0  0  0  0  0  0
  160.1260  210.4910  154.4620 C   0  0  0  0  0  0  0  0  0  0  0  0
  162.5140  207.5520  151.1870 C   0  0  0  0  0  3  0  0  0  0  0  0
  161.8240  206.2140  151.3630 C   0  0  0  0  0  2  0  0  0  0  0  0
  162.1420  206.7240  149.9740 C   0  0  0  0  0  2  0  0  0  0  0  0
  1  4  1  0  0  0  0
  2 16  1  1  0  0  0
  2 19  1  0  0  0  0
  3 10  1  0  0  0  0
  4 20  2  0  0  0  0
  5  1  1  0  0  0  0
  5 11  1  0  0  0  0
  7 15  1  1  0  0  0
  8 12  1  0  0  0  0
  8  6  1  6  0  0  0
  9  7  1  0  0  0  0
  9 14  1  1  0  0  0
 10 21  1  6  0  0  0
 10 22  1  0  0  0  0
 11 28  1  1  0  0  0
 11  8  1  0  0  0  0
 12  4  1  6  0  0  0
 12 27  1  0  0  0  0
 13 18  2  0  0  0  0
 13  2  1  0  0  0  0
 14 23  1  0  0  0  0
 15 23  1  0  0  0  0
 17  3  1  0  0  0  0
 17 20  1  0  0  0  0
 18 25  1  0  0  0  0
 19 26  1  0  0  0  0
 19  1  2  0  0  0  0
 22 20  1  6  0  0  0
 22  9  1  0  0  0  0
 25 26  2  0  0  0  0
 26 17  1  0  0  0  0
 27  7  1  0  0  0  0
 27 24  2  0  0  0  0
 28 29  1  0  0  0  0
 30 28  1  0  0  0  0
 30 29  1  0  0  0  0
M  END
>  <MODEL>
6

>  <REMARK>
 VINA RESULT:      -4.3      2.447      5.836
  Name = 
  1 active torsions:
  status: ('A' for Active; 'I' for Inactive)
    1  A    between atoms: C_11  and  C_28
                            x       y       z     vdW  Elec       q    Type
                         _______ _______ _______ _____ _____    ______ ____

>  <TORSDO>
F 1

$$$$
=
 OpenBabel11122412353D

 30 36  0  0  1  0  0  0  0  0999 V2000
  161.6070  207.6320  151.6070 C   0  0  0  0  0  0  0  0  0  0  0  0
  161.3490  210.1230  151.4380 C   0  0  0  0  0  0  0  0  0  0  0  0
  162.1050  206.9750  147.4350 C   0  0  0  0  0  2  0  0  0  0  0  0
  161.7350  206.2660  150.9820 C   0  0  0  0  0  0  0  0  0  0  0  0
  161.3670  207.7480  153.0910 C   0  0  0  0  0  2  0  0  0  0  0  0
  159.9830  205.2540  153.3460 O   0  0  0  0  0  1  0  0  0  0  0  0
  160.2780  203.7180  150.2940 C   0  0  1  0  0  3  0  0  0  0  0  0
  161.3830  205.2560  153.3110 C   0  0  2  0  0  3  0  0  0  0  0  0
  160.7790  204.0570  148.8880 C   0  0  2  0  0  3  0  0  0  0  0  0
  162.2660  205.4490  147.4140 C   0  0  1  0  0  3  0  0  0  0  0  0
  161.9400  206.5660  153.8650 C   0  0  2  0  0  3  0  0  0  0  0  0
  161.8920  205.0420  151.8830 C   0  0  1  0  0  3  0  0  0  0  0  0
  161.7820  211.2450  150.5300 C   0  0  0  0  0  3  0  0  0  0  0  0
  160.9970  202.7230  148.2090 C   0  0  0  0  0  2  0  0  0  0  0  0
  159.6260  202.3460  150.1840 C   0  0  0  0  0  2  0  0  0  0  0  0
  159.6060  210.3070  151.7690 Cl  0  0  0  0  0  0  0  0  0  0  0  0
  161.8550  207.3220  148.8190 N   0  0  0  0  0  0  0  0  0  0  0  0
  162.0480  211.0600  149.2350 C   0  0  0  0  0  3  0  0  0  0  0  0
  161.6140  208.7520  150.8450 C   0  0  0  0  0  0  0  0  0  0  0  0
  161.8510  206.1750  149.6390 C   0  0  0  0  0  0  0  0  0  0  0  0
  163.6100  205.1130  146.9820 N   0  0  0  0  0  1  0  0  0  0  0  0
  162.0410  204.9310  148.8430 C   0  0  1  0  0  3  0  0  0  0  0  0
  159.9430  201.8090  148.7970 C   0  0  0  0  0  2  0  0  0  0  0  0
  161.9240  202.6950  151.6750 O   0  0  0  0  0  0  0  0  0  0  0  0
  162.0080  209.7180  148.6300 C   0  0  0  0  0  3  0  0  0  0  0  0
  161.8080  208.6320  149.3820 C   0  0  1  0  0  3  0  0  0  0  0  0
  161.3860  203.7350  151.3230 C   0  0  0  0  0  0  0  0  0  0  0  0
  161.6230  206.7060  155.3460 C   0  0  0  0  0  3  0  0  0  0  0  0
  161.6730  208.1700  155.7370 C   0  0  0  0  0  2  0  0  0  0  0  0
  160.3390  207.4920  155.5160 C   0  0  0  0  0  2  0  0  0  0  0  0
  1  5  1  0  0  0  0
  2 16  1  0  0  0  0
  3 17  1  0  0  0  0
  4  1  1  0  0  0  0
  5 11  1  0  0  0  0
  7 15  1  6  0  0  0
  7 27  1  0  0  0  0
  8  6  1  6  0  0  0
  8 11  1  0  0  0  0
  9 14  1  1  0  0  0
  9  7  1  0  0  0  0
 10 21  1  1  0  0  0
 10  3  1  0  0  0  0
 10 22  1  0  0  0  0
 11 28  1  1  0  0  0
 12  4  1  6  0  0  0
 12  8  1  0  0  0  0
 13  2  2  0  0  0  0
 14 23  1  0  0  0  0
 17 26  1  0  0  0  0
 17 20  1  0  0  0  0
 18 13  1  0  0  0  0
 19  2  1  0  0  0  0
 19  1  2  0  0  0  0
 20  4  2  0  0  0  0
 22  9  1  0  0  0  0
 22 20  1  1  0  0  0
 23 15  1  0  0  0  0
 25 18  2  0  0  0  0
 26 25  1  1  0  0  0
 26 19  1  0  0  0  0
 27 24  2  0  0  0  0
 27 12  1  0  0  0  0
 28 30  1  0  0  0  0
 28 29  1  0  0  0  0
 30 29  1  0  0  0  0
M  END
>  <MODEL>
7

>  <REMARK>
 VINA RESULT:      -4.2      2.661      4.315
  Name = 
  1 active torsions:
  status: ('A' for Active; 'I' for Inactive)
    1  A    between atoms: C_11  and  C_28
                            x       y       z     vdW  Elec       q    Type
                         _______ _______ _______ _____ _____    ______ ____

>  <TORSDO>
F 1

$$$$
=
 OpenBabel11122412353D

 30 36  0  0  1  0  0  0  0  0999 V2000
  159.5060  211.3040  153.6100 C   0  0  0  0  0  0  0  0  0  0  0  0
  159.9330  210.3250  155.8810 C   0  0  0  0  0  0  0  0  0  0  0  0
  162.2610  208.8040  151.5500 C   0  0  0  0  0  2  0  0  0  0  0  0
  159.8180  211.4310  152.1410 C   0  0  0  0  0  0  0  0  0  0  0  0
  158.5620  212.2870  154.2550 C   0  0  0  0  0  2  0  0  0  0  0  0
  159.1590  214.4530  152.4800 O   0  0  0  0  0  1  0  0  0  0  0  0
  161.1660  213.1210  150.0390 C   0  0  1  0  0  3  0  0  0  0  0  0
  158.2580  213.4640  152.0670 C   0  0  2  0  0  3  0  0  0  0  0  0
  161.9010  211.8090  149.7550 C   0  0  2  0  0  3  0  0  0  0  0  0
  162.0910  209.3290  150.1180 C   0  0  1  0  0  3  0  0  0  0  0  0
  157.5430  212.8450  153.2670 C   0  0  2  0  0  3  0  0  0  0  0  0
  158.9780  212.3690  151.2750 C   0  0  1  0  0  3  0  0  0  0  0  0
  160.3820  209.0190  156.4830 C   0  0  0  0  0  3  0  0  0  0  0  0
  162.1960  211.8300  148.2710 C   0  0  0  0  0  2  0  0  0  0  0  0
  161.6090  214.0910  148.9510 C   0  0  0  0  0  2  0  0  0  0  0  0
  160.8490  211.6460  156.6540 Cl  0  0  0  0  0  0  0  0  0  0  0  0
  161.4100  209.6370  152.3740 N   0  0  0  0  0  0  0  0  0  0  0  0
  161.1650  208.1570  155.8280 C   0  0  0  0  0  3  0  0  0  0  0  0
  160.1290  210.3790  154.3790 C   0  0  0  0  0  0  0  0  0  0  0  0
  160.7400  210.6050  151.5990 C   0  0  0  0  0  0  0  0  0  0  0  0
  161.5060  208.2900  149.2900 N   0  0  0  0  0  1  0  0  0  0  0  0
  161.1450  210.5390  150.1680 C   0  0  1  0  0  3  0  0  0  0  0  0
  162.4070  213.2900  147.9350 C   0  0  0  0  0  2  0  0  0  0  0  0
  158.9900  213.2230  149.0790 O   0  0  0  0  0  0  0  0  0  0  0  0
  161.5730  208.4020  154.4350 C   0  0  0  0  0  3  0  0  0  0  0  0
  161.0880  209.4410  153.7500 C   0  0  1  0  0  3  0  0  0  0  0  0
  159.6630  212.9480  150.0620 C   0  0  0  0  0  0  0  0  0  0  0  0
  156.6540  213.8690  153.9550 C   0  0  0  0  0  3  0  0  0  0  0  0
  155.2170  213.3840  153.9360 C   0  0  0  0  0  2  0  0  0  0  0  0
  156.0420  213.2530  155.1980 C   0  0  0  0  0  2  0  0  0  0  0  0
  1  5  1  0  0  0  0
  1 19  2  0  0  0  0
  2 13  2  0  0  0  0
  2 16  1  0  0  0  0
  3 17  1  0  0  0  0
  4  1  1  0  0  0  0
  7 15  1  6  0  0  0
  7 27  1  0  0  0  0
  8  6  1  1  0  0  0
  8 11  1  0  0  0  0
  9 14  1  6  0  0  0
  9  7  1  0  0  0  0
  9 22  1  0  0  0  0
 10 21  1  6  0  0  0
 10 22  1  0  0  0  0
 10  3  1  0  0  0  0
 11 28  1  1  0  0  0
 11  5  1  0  0  0  0
 12 27  1  6  0  0  0
 12  8  1  0  0  0  0
 12  4  1  0  0  0  0
 17 26  1  0  0  0  0
 18 13  1  0  0  0  0
 19  2  1  0  0  0  0
 20  4  2  0  0  0  0
 20 17  1  0  0  0  0
 22 20  1  1  0  0  0
 23 14  1  0  0  0  0
 23 15  1  0  0  0  0
 24 27  2  0  0  0  0
 25 18  2  0  0  0  0
 26 19  1  0  0  0  0
 26 25  1  6  0  0  0
 28 30  1  0  0  0  0
 29 28  1  0  0  0  0
 29 30  1  0  0  0  0
M  END
>  <MODEL>
8

>  <REMARK>
 VINA RESULT:      -3.7      2.683      5.264
  Name = 
  1 active torsions:
  status: ('A' for Active; 'I' for Inactive)
    1  A    between atoms: C_11  and  C_28
                            x       y       z     vdW  Elec       q    Type
                         _______ _______ _______ _____ _____    ______ ____

>  <TORSDO>
F 1

$$$$
