=
 OpenBabel11122412323D

 30 35  0  0  1  0  0  0  0  0999 V2000
  161.3400  210.9020  150.8930 C   0  0  0  0  0  0  0  0  0  0  0  0
  161.8080  212.1220  148.7560 C   0  0  0  0  0  0  0  0  0  0  0  0
  158.6870  214.3330  152.3850 S   0  0  0  0  0  0  0  0  0  0  0  0
  160.6540  210.8550  152.1320 C   0  0  0  0  0  0  0  0  0  0  0  0
  162.3050  209.7900  150.5740 C   0  0  0  0  0  2  0  0  0  0  0  0
  160.7660  207.2490  152.6920 O   0  0  0  0  0  0  0  0  0  0  0  0
  161.1610  211.1070  155.0170 C   0  0  1  0  0  3  0  0  0  0  0  0
  161.0860  208.3820  152.2410 C   0  0  0  0  0  0  0  0  0  0  0  0
  159.6720  211.3480  155.0060 C   0  0  1  0  0  3  0  0  0  0  0  0
  158.4550  213.3380  153.9090 C   0  0  1  0  0  3  0  0  0  0  0  0
  161.7840  208.4970  150.9940 N   0  0  0  0  0  0  0  0  0  0  0  0
  160.7080  209.6180  153.0080 C   0  0  1  0  0  3  0  0  0  0  0  0
  161.6000  213.2460  147.9530 C   0  0  0  0  0  3  0  0  0  0  0  0
  159.4220  212.0730  156.3130 C   0  0  0  0  0  2  0  0  0  0  0  0
  161.5690  211.1340  156.4770 C   0  0  0  0  0  2  0  0  0  0  0  0
  162.6380  211.1230  148.2630 O   0  0  0  0  0  1  0  0  0  0  0  0
  159.7020  213.0340  151.6880 C   0  0  0  0  0  0  0  0  0  0  0  0
  160.7730  214.2820  148.3760 C   0  0  0  0  0  3  0  0  0  0  0  0
  161.1750  212.0210  150.0250 C   0  0  0  0  0  0  0  0  0  0  0  0
  159.8770  211.9620  152.5290 C   0  0  0  0  0  0  0  0  0  0  0  0
  156.9940  212.9460  154.0320 C   0  0  0  0  0  1  0  0  0  0  0  0
  159.2860  212.1360  153.8220 N   0  0  0  0  0  0  0  0  0  0  0  0
  160.4510  211.6550  157.2580 N   0  0  0  0  0  2  0  0  0  0  0  0
  161.3490  208.7040  155.1300 O   0  0  0  0  0  1  0  0  0  0  0  0
  160.1410  214.2040  149.6140 C   0  0  0  0  0  3  0  0  0  0  0  0
  160.3280  213.0900  150.4400 C   0  0  0  0  0  0  0  0  0  0  0  0
  161.5400  209.8050  154.2880 C   0  0  2  0  0  3  0  0  0  0  0  0
  162.1770  207.3170  150.2380 C   0  0  0  0  0  2  0  0  0  0  0  0
  160.7400  205.4780  149.4160 C   0  0  0  0  0  1  0  0  0  0  0  0
  161.0870  206.9430  149.2520 C   0  0  0  0  0  2  0  0  0  0  0  0
  1  4  1  0  0  0  0
  2 19  1  0  0  0  0
  3 10  1  0  0  0  0
  4 20  2  0  0  0  0
  5  1  1  0  0  0  0
  5 11  1  0  0  0  0
  7 15  1  1  0  0  0
  8  6  2  0  0  0  0
  8 12  1  0  0  0  0
  9  7  1  0  0  0  0
  9 14  1  1  0  0  0
 10 21  1  6  0  0  0
 11  8  1  0  0  0  0
 12  4  1  6  0  0  0
 12 27  1  0  0  0  0
 13 18  1  0  0  0  0
 13  2  2  0  0  0  0
 14 23  1  0  0  0  0
 15 23  1  0  0  0  0
 16  2  1  0  0  0  0
 17  3  1  0  0  0  0
 17 20  1  0  0  0  0
 18 25  2  0  0  0  0
 19 26  1  0  0  0  0
 19  1  2  0  0  0  0
 20 22  1  0  0  0  0
 22 10  1  0  0  0  0
 22  9  1  0  0  0  0
 25 26  1  0  0  0  0
 26 17  2  0  0  0  0
 27  7  1  0  0  0  0
 27 24  1  1  0  0  0
 28 11  1  0  0  0  0
 30 29  1  0  0  0  0
 30 28  1  0  0  0  0
M  END
>  <MODEL>
1

>  <REMARK>
 VINA RESULT:      -7.0      0.000      0.000
  Name = 
  2 active torsions:
  status: ('A' for Active; 'I' for Inactive)
    1  A    between atoms: N_11  and  C_28
    2  A    between atoms: C_28  and  C_30
                            x       y       z     vdW  Elec       q    Type
                         _______ _______ _______ _____ _____    ______ ____

>  <TORSDO>
F 2

$$$$
=
 OpenBabel11122412323D

 30 35  0  0  1  0  0  0  0  0999 V2000
  161.3160  210.5160  150.8530 C   0  0  0  0  0  0  0  0  0  0  0  0
  161.7260  212.1950  149.0390 C   0  0  0  0  0  0  0  0  0  0  0  0
  158.7280  213.5080  153.1720 S   0  0  0  0  0  0  0  0  0  0  0  0
  160.6670  210.1850  152.0690 C   0  0  0  0  0  0  0  0  0  0  0  0
  162.2640  209.5080  150.2580 C   0  0  0  0  0  2  0  0  0  0  0  0
  160.7760  206.5460  151.7830 O   0  0  0  0  0  0  0  0  0  0  0  0
  161.2630  209.7690  154.9170 C   0  0  1  0  0  3  0  0  0  0  0  0
  161.0890  207.7540  151.5950 C   0  0  0  0  0  0  0  0  0  0  0  0
  159.7750  210.0030  155.0080 C   0  0  1  0  0  3  0  0  0  0  0  0
  158.5370  212.1900  154.4340 C   0  0  1  0  0  3  0  0  0  0  0  0
  161.7490  208.1520  150.3860 N   0  0  0  0  0  0  0  0  0  0  0  0
  160.7410  208.7800  152.6360 C   0  0  1  0  0  3  0  0  0  0  0  0
  161.5000  213.4720  148.5220 C   0  0  0  0  0  3  0  0  0  0  0  0
  159.5690  210.4090  156.4530 C   0  0  0  0  0  2  0  0  0  0  0  0
  161.7150  209.4610  156.3310 C   0  0  0  0  0  2  0  0  0  0  0  0
  162.5350  211.3370  148.3050 O   0  0  0  0  0  1  0  0  0  0  0  0
  159.7140  212.4060  152.1660 C   0  0  0  0  0  0  0  0  0  0  0  0
  160.6920  214.3820  149.1970 C   0  0  0  0  0  3  0  0  0  0  0  0
  161.1310  211.8040  150.2710 C   0  0  0  0  0  0  0  0  0  0  0  0
  159.9090  211.1700  152.7320 C   0  0  0  0  0  0  0  0  0  0  0  0
  157.0780  211.7790  154.5090 C   0  0  0  0  0  1  0  0  0  0  0  0
  159.3580  211.0420  154.0480 N   0  0  0  0  0  0  0  0  0  0  0  0
  160.6240  209.7870  157.2450 N   0  0  0  0  0  2  0  0  0  0  0  0
  161.4400  207.4050  154.4700 O   0  0  0  0  0  1  0  0  0  0  0  0
  160.0970  214.0210  150.4020 C   0  0  0  0  0  3  0  0  0  0  0  0
  160.3030  212.7480  150.9450 C   0  0  0  0  0  0  0  0  0  0  0  0
  161.6120  208.6700  153.8990 C   0  0  2  0  0  3  0  0  0  0  0  0
  162.1130  207.1780  149.3680 C   0  0  0  0  0  2  0  0  0  0  0  0
  161.2560  205.1930  148.1650 C   0  0  0  0  0  1  0  0  0  0  0  0
  161.2180  205.9570  149.4710 C   0  0  0  0  0  2  0  0  0  0  0  0
  1  4  1  0  0  0  0
  2 19  1  0  0  0  0
  3 10  1  0  0  0  0
  4 12  1  0  0  0  0
  4 20  2  0  0  0  0
  5 11  1  0  0  0  0
  5  1  1  0  0  0  0
  7  9  1  0  0  0  0
  7 15  1  1  0  0  0
  8  6  2  0  0  0  0
  9 14  1  1  0  0  0
 10 21  1  6  0  0  0
 11  8  1  0  0  0  0
 12  8  1  6  0  0  0
 12 27  1  0  0  0  0
 13  2  2  0  0  0  0
 13 18  1  0  0  0  0
 14 23  1  0  0  0  0
 15 23  1  0  0  0  0
 16  2  1  0  0  0  0
 17 20  1  0  0  0  0
 17  3  1  0  0  0  0
 18 25  2  0  0  0  0
 19  1  2  0  0  0  0
 19 26  1  0  0  0  0
 20 22  1  0  0  0  0
 22 10  1  0  0  0  0
 22  9  1  0  0  0  0
 25 26  1  0  0  0  0
 26 17  2  0  0  0  0
 27 24  1  1  0  0  0
 27  7  1  0  0  0  0
 28 30  1  0  0  0  0
 28 11  1  0  0  0  0
 29 30  1  0  0  0  0
M  END
>  <MODEL>
2

>  <REMARK>
 VINA RESULT:      -5.8      1.017      1.061
  Name = 
  2 active torsions:
  status: ('A' for Active; 'I' for Inactive)
    1  A    between atoms: N_11  and  C_28
    2  A    between atoms: C_28  and  C_30
                            x       y       z     vdW  Elec       q    Type
                         _______ _______ _______ _____ _____    ______ ____

>  <TORSDO>
F 2

$$$$
=
 OpenBabel11122412323D

 30 35  0  0  1  0  0  0  0  0999 V2000
  161.0320  207.5040  151.4600 C   0  0  0  0  0  0  0  0  0  0  0  0
  160.8970  205.0270  151.1090 C   0  0  0  0  0  0  0  0  0  0  0  0
  160.9240  206.9640  156.0120 S   0  0  0  0  0  0  0  0  0  0  0  0
  161.1240  208.5930  152.3610 C   0  0  0  0  0  0  0  0  0  0  0  0
  160.9220  207.8090  149.9880 C   0  0  0  0  0  2  0  0  0  0  0  0
  162.5430  211.0760  150.0900 O   0  0  0  0  0  0  0  0  0  0  0  0
  159.5000  210.8020  153.4240 C   0  0  1  0  0  3  0  0  0  0  0  0
  161.9210  210.0480  150.4730 C   0  0  0  0  0  0  0  0  0  0  0  0
  160.5680  210.7460  154.4880 C   0  0  1  0  0  3  0  0  0  0  0  0
  161.0000  208.7950  156.1160 C   0  0  1  0  0  3  0  0  0  0  0  0
  161.7910  208.9130  149.6060 N   0  0  0  0  0  0  0  0  0  0  0  0
  161.3370  210.0080  151.8570 C   0  0  1  0  0  3  0  0  0  0  0  0
  160.8310  203.7460  151.6600 C   0  0  0  0  0  3  0  0  0  0  0  0
  159.9200  211.4310  155.6740 C   0  0  0  0  0  2  0  0  0  0  0  0
  158.6070  211.9670  153.8010 C   0  0  0  0  0  2  0  0  0  0  0  0
  160.9050  205.1330  149.7240 O   0  0  0  0  0  1  0  0  0  0  0  0
  161.0070  207.0590  154.2280 C   0  0  0  0  0  0  0  0  0  0  0  0
  160.8300  203.5620  153.0400 C   0  0  0  0  0  3  0  0  0  0  0  0
  160.9610  206.1690  151.9550 C   0  0  0  0  0  0  0  0  0  0  0  0
  161.0590  208.3450  153.7470 C   0  0  0  0  0  0  0  0  0  0  0  0
  162.2960  209.2030  156.7920 C   0  0  0  0  0  1  0  0  0  0  0  0
  160.9500  209.3490  154.7620 N   0  0  0  0  0  0  0  0  0  0  0  0
  158.9440  212.3850  155.1590 N   0  0  0  0  0  2  0  0  0  0  0  0
  160.4560  212.2340  151.7340 O   0  0  0  0  0  1  0  0  0  0  0  0
  160.8940  204.6640  153.8870 C   0  0  0  0  0  3  0  0  0  0  0  0
  160.9620  205.9600  153.3640 C   0  0  0  0  0  0  0  0  0  0  0  0
  160.1000  210.9100  152.0110 C   0  0  2  0  0  3  0  0  0  0  0  0
  162.3320  208.9290  148.2550 C   0  0  0  0  0  2  0  0  0  0  0  0
  161.6100  206.9530  146.9530 C   0  0  0  0  0  1  0  0  0  0  0  0
  162.7060  207.5230  147.8280 C   0  0  0  0  0  2  0  0  0  0  0  0
  1 19  2  0  0  0  0
  1  4  1  0  0  0  0
  2 13  2  0  0  0  0
  2 19  1  0  0  0  0
  3 10  1  0  0  0  0
  4 20  2  0  0  0  0
  5  1  1  0  0  0  0
  6  8  2  0  0  0  0
  7 15  1  1  0  0  0
  7  9  1  0  0  0  0
  9 22  1  0  0  0  0
  9 14  1  1  0  0  0
 10 21  1  6  0  0  0
 11  5  1  0  0  0  0
 11  8  1  0  0  0  0
 12  8  1  6  0  0  0
 12 27  1  0  0  0  0
 12  4  1  0  0  0  0
 13 18  1  0  0  0  0
 15 23  1  0  0  0  0
 16  2  1  0  0  0  0
 17  3  1  0  0  0  0
 18 25  2  0  0  0  0
 19 26  1  0  0  0  0
 20 17  1  0  0  0  0
 20 22  1  0  0  0  0
 22 10  1  0  0  0  0
 23 14  1  0  0  0  0
 26 25  1  0  0  0  0
 26 17  2  0  0  0  0
 27 24  1  1  0  0  0
 27  7  1  0  0  0  0
 28 11  1  0  0  0  0
 29 30  1  0  0  0  0
 30 28  1  0  0  0  0
M  END
>  <MODEL>
3

>  <REMARK>
 VINA RESULT:      -5.4      2.772      5.527
  Name = 
  2 active torsions:
  status: ('A' for Active; 'I' for Inactive)
    1  A    between atoms: N_11  and  C_28
    2  A    between atoms: C_28  and  C_30
                            x       y       z     vdW  Elec       q    Type
                         _______ _______ _______ _____ _____    ______ ____

>  <TORSDO>
F 2

$$$$
=
 OpenBabel11122412323D

 30 35  0  0  1  0  0  0  0  0999 V2000
  161.5850  208.3830  151.8490 C   0  0  0  0  0  0  0  0  0  0  0  0
  162.3010  208.3990  149.4490 C   0  0  0  0  0  0  0  0  0  0  0  0
  160.2300  212.7550  151.5770 S   0  0  0  0  0  0  0  0  0  0  0  0
  160.9840  209.0670  152.9360 C   0  0  0  0  0  0  0  0  0  0  0  0
  162.1320  207.0010  152.0960 C   0  0  0  0  0  2  0  0  0  0  0  0
  159.9830  206.1740  154.9270 O   0  0  0  0  0  0  0  0  0  0  0  0
  161.6950  210.3200  155.4980 C   0  0  1  0  0  3  0  0  0  0  0  0
  160.6210  206.8600  154.0820 C   0  0  0  0  0  0  0  0  0  0  0  0
  160.3590  210.9800  155.2620 C   0  0  1  0  0  3  0  0  0  0  0  0
  159.7760  212.6060  153.3490 C   0  0  1  0  0  3  0  0  0  0  0  0
  161.2530  206.2270  152.9610 N   0  0  0  0  0  0  0  0  0  0  0  0
  160.6920  208.3520  154.2420 C   0  0  1  0  0  3  0  0  0  0  0  0
  162.4160  209.0930  148.2430 C   0  0  0  0  0  3  0  0  0  0  0  0
  160.4200  212.2190  156.1320 C   0  0  0  0  0  2  0  0  0  0  0  0
  162.1670  210.8220  156.8490 C   0  0  0  0  0  2  0  0  0  0  0  0
  162.7470  207.0840  149.4790 O   0  0  0  0  0  1  0  0  0  0  0  0
  160.7460  211.0430  151.5610 C   0  0  0  0  0  0  0  0  0  0  0  0
  161.9810  210.4110  148.1330 C   0  0  0  0  0  3  0  0  0  0  0  0
  161.7350  209.0330  150.5900 C   0  0  0  0  0  0  0  0  0  0  0  0
  160.6180  210.4180  152.7780 C   0  0  0  0  0  0  0  0  0  0  0  0
  158.2750  212.7710  153.4950 C   0  0  0  0  0  1  0  0  0  0  0  0
  160.1800  211.2840  153.8310 N   0  0  0  0  0  0  0  0  0  0  0  0
  161.3130  211.9360  157.2510 N   0  0  0  0  0  2  0  0  0  0  0  0
  161.1220  208.2510  156.5980 O   0  0  0  0  0  1  0  0  0  0  0  0
  161.4220  211.0510  149.2360 C   0  0  0  0  0  3  0  0  0  0  0  0
  161.2910  210.3810  150.4570 C   0  0  0  0  0  0  0  0  0  0  0  0
  161.6060  208.7870  155.4000 C   0  0  2  0  0  3  0  0  0  0  0  0
  161.2140  204.7820  152.7890 C   0  0  0  0  0  2  0  0  0  0  0  0
  161.1090  202.9530  151.1270 C   0  0  0  0  0  1  0  0  0  0  0  0
  160.9070  204.4370  151.3440 C   0  0  0  0  0  2  0  0  0  0  0  0
  1  5  1  0  0  0  0
  1  4  1  0  0  0  0
  2 16  1  0  0  0  0
  2 19  1  0  0  0  0
  3 10  1  0  0  0  0
  5 11  1  0  0  0  0
  7 15  1  1  0  0  0
  8 12  1  0  0  0  0
  8  6  2  0  0  0  0
  9  7  1  0  0  0  0
  9 14  1  1  0  0  0
 10 21  1  6  0  0  0
 10 22  1  0  0  0  0
 11  8  1  0  0  0  0
 12  4  1  6  0  0  0
 12 27  1  0  0  0  0
 13  2  2  0  0  0  0
 14 23  1  0  0  0  0
 15 23  1  0  0  0  0
 17  3  1  0  0  0  0
 17 20  1  0  0  0  0
 18 13  1  0  0  0  0
 18 25  2  0  0  0  0
 19  1  2  0  0  0  0
 20  4  2  0  0  0  0
 20 22  1  0  0  0  0
 22  9  1  0  0  0  0
 25 26  1  0  0  0  0
 26 19  1  0  0  0  0
 26 17  2  0  0  0  0
 27  7  1  0  0  0  0
 27 24  1  1  0  0  0
 28 11  1  0  0  0  0
 29 30  1  0  0  0  0
 30 28  1  0  0  0  0
M  END
>  <MODEL>
4

>  <REMARK>
 VINA RESULT:      -5.3      1.887      2.618
  Name = 
  2 active torsions:
  status: ('A' for Active; 'I' for Inactive)
    1  A    between atoms: N_11  and  C_28
    2  A    between atoms: C_28  and  C_30
                            x       y       z     vdW  Elec       q    Type
                         _______ _______ _______ _____ _____    ______ ____

>  <TORSDO>
F 2

$$$$
=
 OpenBabel11122412323D

 30 35  0  0  1  0  0  0  0  0999 V2000
  160.9750  210.3570  152.5570 C   0  0  0  0  0  0  0  0  0  0  0  0
  162.0300  210.2060  150.2900 C   0  0  0  0  0  0  0  0  0  0  0  0
  158.9070  214.2950  151.4390 S   0  0  0  0  0  0  0  0  0  0  0  0
  160.1040  211.0410  153.4410 C   0  0  0  0  0  0  0  0  0  0  0  0
  161.7200  209.1580  153.0820 C   0  0  0  0  0  2  0  0  0  0  0  0
  159.3550  208.2900  155.7220 O   0  0  0  0  0  0  0  0  0  0  0  0
  160.1820  212.7340  155.8430 C   0  0  1  0  0  3  0  0  0  0  0  0
  159.9780  208.9750  154.8650 C   0  0  0  0  0  0  0  0  0  0  0  0
  158.7990  213.0750  155.3450 C   0  0  1  0  0  3  0  0  0  0  0  0
  158.2260  214.2880  153.1430 C   0  0  1  0  0  3  0  0  0  0  0  0
  160.8760  208.3420  153.9430 N   0  0  0  0  0  0  0  0  0  0  0  0
  159.7530  210.4590  154.7970 C   0  0  1  0  0  3  0  0  0  0  0  0
  162.1980  210.7460  149.0130 C   0  0  0  0  0  3  0  0  0  0  0  0
  158.5030  214.4040  156.0110 C   0  0  0  0  0  2  0  0  0  0  0  0
  160.3460  213.4920  157.1460 C   0  0  0  0  0  2  0  0  0  0  0  0
  162.6970  209.0220  150.5810 O   0  0  0  0  0  1  0  0  0  0  0  0
  159.7210  212.7330  151.7550 C   0  0  0  0  0  0  0  0  0  0  0  0
  161.5530  211.9240  148.6460 C   0  0  0  0  0  3  0  0  0  0  0  0
  161.1940  210.8550  151.2390 C   0  0  0  0  0  0  0  0  0  0  0  0
  159.5270  212.2590  153.0300 C   0  0  0  0  0  0  0  0  0  0  0  0
  156.7150  214.1650  153.0770 C   0  0  0  0  0  1  0  0  0  0  0  0
  158.7850  213.1480  153.8730 N   0  0  0  0  0  0  0  0  0  0  0  0
  159.2530  214.4530  157.2610 N   0  0  0  0  0  2  0  0  0  0  0  0
  159.8340  210.7520  157.1740 O   0  0  0  0  0  1  0  0  0  0  0  0
  160.7280  212.5750  149.5580 C   0  0  0  0  0  3  0  0  0  0  0  0
  160.5380  212.0570  150.8440 C   0  0  0  0  0  0  0  0  0  0  0  0
  160.3880  211.2150  155.9760 C   0  0  2  0  0  3  0  0  0  0  0  0
  161.1260  206.9090  153.9960 C   0  0  0  0  0  2  0  0  0  0  0  0
  161.2610  204.8240  152.6710 C   0  0  0  0  0  1  0  0  0  0  0  0
  161.1500  206.3320  152.5930 C   0  0  0  0  0  2  0  0  0  0  0  0
  1  5  1  0  0  0  0
  1  4  1  0  0  0  0
  2 16  1  0  0  0  0
  2 19  1  0  0  0  0
  3 17  1  0  0  0  0
  3 10  1  0  0  0  0
  5 11  1  0  0  0  0
  7 27  1  0  0  0  0
  7 15  1  1  0  0  0
  8  6  2  0  0  0  0
  9  7  1  0  0  0  0
  9 14  1  1  0  0  0
 10 21  1  6  0  0  0
 10 22  1  0  0  0  0
 11 28  1  0  0  0  0
 11  8  1  0  0  0  0
 12  4  1  6  0  0  0
 12  8  1  0  0  0  0
 12 27  1  0  0  0  0
 13  2  2  0  0  0  0
 14 23  1  0  0  0  0
 15 23  1  0  0  0  0
 17 20  1  0  0  0  0
 18 13  1  0  0  0  0
 18 25  2  0  0  0  0
 19  1  2  0  0  0  0
 20  4  2  0  0  0  0
 20 22  1  0  0  0  0
 22  9  1  0  0  0  0
 25 26  1  0  0  0  0
 26 19  1  0  0  0  0
 26 17  2  0  0  0  0
 27 24  1  1  0  0  0
 30 29  1  0  0  0  0
 30 28  1  0  0  0  0
M  END
>  <MODEL>
5

>  <REMARK>
 VINA RESULT:      -4.6      1.859      2.432
  Name = 
  2 active torsions:
  status: ('A' for Active; 'I' for Inactive)
    1  A    between atoms: N_11  and  C_28
    2  A    between atoms: C_28  and  C_30
                            x       y       z     vdW  Elec       q    Type
                         _______ _______ _______ _____ _____    ______ ____

>  <TORSDO>
F 2

$$$$
=
 OpenBabel11122412323D

 30 35  0  0  1  0  0  0  0  0999 V2000
  158.9080  213.0210  153.0270 C   0  0  0  0  0  0  0  0  0  0  0  0
  158.9230  213.0010  155.5320 C   0  0  0  0  0  0  0  0  0  0  0  0
  162.3090  209.9490  152.8840 S   0  0  0  0  0  0  0  0  0  0  0  0
  159.4190  212.5020  151.8120 C   0  0  0  0  0  0  0  0  0  0  0  0
  157.9000  214.1380  152.9530 C   0  0  0  0  0  2  0  0  0  0  0  0
  156.6270  213.3650  149.6220 O   0  0  0  0  0  0  0  0  0  0  0  0
  161.1470  213.2770  149.5640 C   0  0  1  0  0  3  0  0  0  0  0  0
  157.4050  213.4090  150.6150 C   0  0  0  0  0  0  0  0  0  0  0  0
  161.1860  211.7780  149.4000 C   0  0  1  0  0  3  0  0  0  0  0  0
  162.2030  210.0860  151.0580 C   0  0  1  0  0  3  0  0  0  0  0  0
  156.9480  213.9260  151.8720 N   0  0  0  0  0  0  0  0  0  0  0  0
  158.8090  212.8920  150.4790 C   0  0  1  0  0  3  0  0  0  0  0  0
  159.4570  212.4930  156.7180 C   0  0  0  0  0  3  0  0  0  0  0  0
  162.4400  211.5450  148.5820 C   0  0  0  0  0  2  0  0  0  0  0  0
  161.9530  213.8360  148.4070 C   0  0  0  0  0  2  0  0  0  0  0  0
  157.9090  213.9450  155.6350 O   0  0  0  0  0  1  0  0  0  0  0  0
  160.9560  211.1070  153.0530 C   0  0  0  0  0  0  0  0  0  0  0  0
  160.4680  211.5360  156.6940 C   0  0  0  0  0  3  0  0  0  0  0  0
  159.4090  212.5480  154.2750 C   0  0  0  0  0  0  0  0  0  0  0  0
  160.4820  211.5790  151.8540 C   0  0  0  0  0  0  0  0  0  0  0  0
  161.7710  208.7510  150.4810 C   0  0  0  0  0  1  0  0  0  0  0  0
  161.2200  211.1160  150.7160 N   0  0  0  0  0  0  0  0  0  0  0  0
  162.6720  212.7350  147.7720 N   0  0  0  0  0  2  0  0  0  0  0  0
  159.1680  213.9320  148.3490 O   0  0  0  0  0  1  0  0  0  0  0  0
  160.9570  211.0760  155.4750 C   0  0  0  0  0  3  0  0  0  0  0  0
  160.4410  211.5650  154.2700 C   0  0  0  0  0  0  0  0  0  0  0  0
  159.7070  213.8120  149.6350 C   0  0  2  0  0  3  0  0  0  0  0  0
  155.5990  214.4490  152.0280 C   0  0  0  0  0  2  0  0  0  0  0  0
  154.5750  214.4490  154.2800 C   0  0  0  0  0  1  0  0  0  0  0  0
  154.8330  213.6190  153.0410 C   0  0  0  0  0  2  0  0  0  0  0  0
  1 19  1  0  0  0  0
  2 16  1  0  0  0  0
  2 13  1  0  0  0  0
  3 17  1  0  0  0  0
  4 20  1  0  0  0  0
  4  1  2  0  0  0  0
  5  1  1  0  0  0  0
  6  8  2  0  0  0  0
  7 15  1  6  0  0  0
  7 27  1  0  0  0  0
  8 11  1  0  0  0  0
  9 14  1  6  0  0  0
  9  7  1  0  0  0  0
  9 22  1  0  0  0  0
 10 21  1  6  0  0  0
 10  3  1  0  0  0  0
 11 28  1  0  0  0  0
 11  5  1  0  0  0  0
 12  8  1  1  0  0  0
 12  4  1  0  0  0  0
 17 26  1  0  0  0  0
 18 13  2  0  0  0  0
 19  2  2  0  0  0  0
 20 17  2  0  0  0  0
 22 10  1  0  0  0  0
 22 20  1  0  0  0  0
 23 15  1  0  0  0  0
 23 14  1  0  0  0  0
 25 18  1  0  0  0  0
 26 19  1  0  0  0  0
 26 25  2  0  0  0  0
 27 24  1  6  0  0  0
 27 12  1  0  0  0  0
 28 30  1  0  0  0  0
 30 29  1  0  0  0  0
M  END
>  <MODEL>
6

>  <REMARK>
 VINA RESULT:      -4.5      2.964      7.138
  Name = 
  2 active torsions:
  status: ('A' for Active; 'I' for Inactive)
    1  A    between atoms: N_11  and  C_28
    2  A    between atoms: C_28  and  C_30
                            x       y       z     vdW  Elec       q    Type
                         _______ _______ _______ _____ _____    ______ ____

>  <TORSDO>
F 2

$$$$
=
 OpenBabel11122412323D

 30 35  0  0  1  0  0  0  0  0999 V2000
  160.7150  210.3540  151.5320 C   0  0  0  0  0  0  0  0  0  0  0  0
  161.8250  208.3210  150.5800 C   0  0  0  0  0  0  0  0  0  0  0  0
  160.5420  208.4320  155.6920 S   0  0  0  0  0  0  0  0  0  0  0  0
  160.1980  211.0290  152.6660 C   0  0  0  0  0  0  0  0  0  0  0  0
  160.5810  211.0210  150.1880 C   0  0  0  0  0  2  0  0  0  0  0  0
  160.3990  214.4530  151.4120 O   0  0  0  0  0  0  0  0  0  0  0  0
  157.6320  211.8370  153.8500 C   0  0  1  0  0  3  0  0  0  0  0  0
  160.3280  213.1940  151.3960 C   0  0  0  0  0  0  0  0  0  0  0  0
  158.5090  211.9300  155.0750 C   0  0  1  0  0  3  0  0  0  0  0  0
  159.7110  209.9720  156.2440 C   0  0  1  0  0  3  0  0  0  0  0  0
  160.8300  212.4530  150.2760 N   0  0  0  0  0  0  0  0  0  0  0  0
  159.7340  212.4710  152.5720 C   0  0  1  0  0  3  0  0  0  0  0  0
  162.3500  207.0420  150.7820 C   0  0  0  0  0  3  0  0  0  0  0  0
  157.5230  211.8490  156.2220 C   0  0  0  0  0  2  0  0  0  0  0  0
  156.2600  212.3040  154.2950 C   0  0  0  0  0  2  0  0  0  0  0  0
  161.8860  208.8450  149.2950 O   0  0  0  0  0  1  0  0  0  0  0  0
  160.7010  209.1050  154.0420 C   0  0  0  0  0  0  0  0  0  0  0  0
  162.3340  206.4560  152.0440 C   0  0  0  0  0  3  0  0  0  0  0  0
  161.2640  209.0460  151.6670 C   0  0  0  0  0  0  0  0  0  0  0  0
  160.1580  210.3590  153.9050 C   0  0  0  0  0  0  0  0  0  0  0  0
  160.5900  210.6770  157.2590 C   0  0  0  0  0  1  0  0  0  0  0  0
  159.5000  210.8390  155.0830 N   0  0  0  0  0  0  0  0  0  0  0  0
  156.2480  212.3810  155.7530 N   0  0  0  0  0  2  0  0  0  0  0  0
  157.8950  213.9920  152.7970 O   0  0  0  0  0  1  0  0  0  0  0  0
  161.7910  207.1470  153.1230 C   0  0  0  0  0  3  0  0  0  0  0  0
  161.2610  208.4300  152.9530 C   0  0  0  0  0  0  0  0  0  0  0  0
  158.2080  212.6340  152.6670 C   0  0  2  0  0  3  0  0  0  0  0  0
  161.3950  213.1270  149.1160 C   0  0  0  0  0  2  0  0  0  0  0  0
  163.3640  212.2830  147.8780 C   0  0  0  0  0  1  0  0  0  0  0  0
  161.8780  212.1050  148.1040 C   0  0  0  0  0  2  0  0  0  0  0  0
  1 19  2  0  0  0  0
  1  4  1  0  0  0  0
  2 13  2  0  0  0  0
  2 19  1  0  0  0  0
  3 10  1  0  0  0  0
  4 20  2  0  0  0  0
  5 11  1  0  0  0  0
  5  1  1  0  0  0  0
  7 15  1  1  0  0  0
  7  9  1  0  0  0  0
  8  6  2  0  0  0  0
  9 22  1  0  0  0  0
  9 14  1  1  0  0  0
 10 21  1  1  0  0  0
 11  8  1  0  0  0  0
 12  8  1  6  0  0  0
 12  4  1  0  0  0  0
 12 27  1  0  0  0  0
 13 18  1  0  0  0  0
 15 23  1  0  0  0  0
 16  2  1  0  0  0  0
 17  3  1  0  0  0  0
 18 25  2  0  0  0  0
 19 26  1  0  0  0  0
 20 17  1  0  0  0  0
 20 22  1  0  0  0  0
 22 10  1  0  0  0  0
 23 14  1  0  0  0  0
 26 25  1  0  0  0  0
 26 17  2  0  0  0  0
 27 24  1  1  0  0  0
 27  7  1  0  0  0  0
 28 11  1  0  0  0  0
 29 30  1  0  0  0  0
 30 28  1  0  0  0  0
M  END
>  <MODEL>
7

>  <REMARK>
 VINA RESULT:      -4.4      2.548      5.007
  Name = 
  2 active torsions:
  status: ('A' for Active; 'I' for Inactive)
    1  A    between atoms: N_11  and  C_28
    2  A    between atoms: C_28  and  C_30
                            x       y       z     vdW  Elec       q    Type
                         _______ _______ _______ _____ _____    ______ ____

>  <TORSDO>
F 2

$$$$
=
 OpenBabel11122412323D

 30 35  0  0  1  0  0  0  0  0999 V2000
  160.0670  211.8820  139.5220 C   0  0  0  0  0  0  0  0  0  0  0  0
  162.1410  210.9260  138.4940 C   0  0  0  0  0  0  0  0  0  0  0  0
  157.4490  208.8300  137.3180 S   0  0  0  0  0  0  0  0  0  0  0  0
  158.6610  211.8170  139.6910 C   0  0  0  0  0  0  0  0  0  0  0  0
  160.8070  213.0210  140.1730 C   0  0  0  0  0  2  0  0  0  0  0  0
  158.3930  213.6520  142.8360 O   0  0  0  0  0  0  0  0  0  0  0  0
  156.2130  213.2380  138.8970 C   0  0  1  0  0  3  0  0  0  0  0  0
  158.8720  213.2610  141.7360 C   0  0  0  0  0  0  0  0  0  0  0  0
  155.6120  211.9110  139.2890 C   0  0  1  0  0  3  0  0  0  0  0  0
  156.0170  209.6480  138.1230 C   0  0  1  0  0  3  0  0  0  0  0  0
  160.2850  213.3040  141.5040 N   0  0  0  0  0  0  0  0  0  0  0  0
  157.9500  212.7230  140.6780 C   0  0  1  0  0  3  0  0  0  0  0  0
  162.7300  209.9710  137.6630 C   0  0  0  0  0  3  0  0  0  0  0  0
  154.2780  211.9030  138.5710 C   0  0  0  0  0  2  0  0  0  0  0  0
  155.0410  214.1240  138.5230 C   0  0  0  0  0  2  0  0  0  0  0  0
  162.9800  211.8390  139.1200 O   0  0  0  0  0  1  0  0  0  0  0  0
  158.5640  209.9430  138.1650 C   0  0  0  0  0  0  0  0  0  0  0  0
  161.9540  209.0160  137.0110 C   0  0  0  0  0  3  0  0  0  0  0  0
  160.7320  210.9390  138.6860 C   0  0  0  0  0  0  0  0  0  0  0  0
  157.9260  210.8650  138.9580 C   0  0  0  0  0  0  0  0  0  0  0  0
  155.3400  208.6640  139.0580 C   0  0  0  0  0  1  0  0  0  0  0  0
  156.4970  210.8040  138.8810 N   0  0  0  0  0  0  0  0  0  0  0  0
  153.8490  213.2880  138.4120 N   0  0  0  0  0  2  0  0  0  0  0  0
  156.3180  214.4530  140.9780 O   0  0  0  0  0  1  0  0  0  0  0  0
  160.5730  209.0080  137.1860 C   0  0  0  0  0  3  0  0  0  0  0  0
  159.9540  209.9510  138.0140 C   0  0  0  0  0  0  0  0  0  0  0  0
  157.1030  213.8190  140.0090 C   0  0  2  0  0  3  0  0  0  0  0  0
  161.2000  213.8350  142.5040 C   0  0  0  0  0  2  0  0  0  0  0  0
  163.0350  213.2940  144.0720 C   0  0  0  0  0  1  0  0  0  0  0  0
  162.0710  212.7220  143.0550 C   0  0  0  0  0  2  0  0  0  0  0  0
  1  4  1  0  0  0  0
  1  5  1  0  0  0  0
  2 19  1  0  0  0  0
  2 16  1  0  0  0  0
  3 10  1  0  0  0  0
  3 17  1  0  0  0  0
  5 11  1  0  0  0  0
  7 15  1  1  0  0  0
  7  9  1  0  0  0  0
  7 27  1  0  0  0  0
  8  6  2  0  0  0  0
  9 14  1  6  0  0  0
 10 22  1  0  0  0  0
 10 21  1  1  0  0  0
 11  8  1  0  0  0  0
 11 28  1  0  0  0  0
 12  4  1  6  0  0  0
 12  8  1  0  0  0  0
 13  2  2  0  0  0  0
 17 20  1  0  0  0  0
 18 25  2  0  0  0  0
 18 13  1  0  0  0  0
 19  1  2  0  0  0  0
 20  4  2  0  0  0  0
 22 20  1  0  0  0  0
 22  9  1  0  0  0  0
 23 15  1  0  0  0  0
 23 14  1  0  0  0  0
 25 26  1  0  0  0  0
 26 17  2  0  0  0  0
 26 19  1  0  0  0  0
 27 12  1  0  0  0  0
 27 24  1  1  0  0  0
 28 30  1  0  0  0  0
 30 29  1  0  0  0  0
M  END
>  <MODEL>
8

>  <REMARK>
 VINA RESULT:      -4.1     10.340     13.845
  Name = 
  2 active torsions:
  status: ('A' for Active; 'I' for Inactive)
    1  A    between atoms: N_11  and  C_28
    2  A    between atoms: C_28  and  C_30
                            x       y       z     vdW  Elec       q    Type
                         _______ _______ _______ _____ _____    ______ ____

>  <TORSDO>
F 2

$$$$
=
 OpenBabel11122412323D

 30 35  0  0  1  0  0  0  0  0999 V2000
  158.9720  211.8190  153.6480 C   0  0  0  0  0  0  0  0  0  0  0  0
  156.7530  212.7320  154.3680 C   0  0  0  0  0  0  0  0  0  0  0  0
  158.7530  214.1320  149.6950 S   0  0  0  0  0  0  0  0  0  0  0  0
  160.0130  211.7910  152.6870 C   0  0  0  0  0  0  0  0  0  0  0  0
  159.0800  210.9010  154.8380 C   0  0  0  0  0  2  0  0  0  0  0  0
  162.7170  210.5980  154.8330 O   0  0  0  0  0  0  0  0  0  0  0  0
  161.1540  210.0310  150.6280 C   0  0  1  0  0  3  0  0  0  0  0  0
  161.5430  210.8050  154.4200 C   0  0  0  0  0  0  0  0  0  0  0  0
  161.7190  211.3510  150.1650 C   0  0  1  0  0  3  0  0  0  0  0  0
  160.3700  213.3660  149.2890 C   0  0  1  0  0  3  0  0  0  0  0  0
  160.4450  210.8420  155.3420 N   0  0  0  0  0  0  0  0  0  0  0  0
  161.3030  211.0390  152.9560 C   0  0  1  0  0  3  0  0  0  0  0  0
  155.6560  213.5530  154.0970 C   0  0  0  0  0  3  0  0  0  0  0  0
  162.0550  211.0990  148.7090 C   0  0  0  0  0  2  0  0  0  0  0  0
  161.7250  208.9890  149.6860 C   0  0  0  0  0  2  0  0  0  0  0  0
  156.7570  212.0390  155.5710 O   0  0  0  0  0  1  0  0  0  0  0  0
  158.7590  213.3110  151.2840 C   0  0  0  0  0  0  0  0  0  0  0  0
  155.5880  214.2870  152.9160 C   0  0  0  0  0  3  0  0  0  0  0  0
  157.8220  212.6330  153.4340 C   0  0  0  0  0  0  0  0  0  0  0  0
  159.8580  212.5110  151.4860 C   0  0  0  0  0  0  0  0  0  0  0  0
  161.4240  214.4520  149.1790 C   0  0  0  0  0  1  0  0  0  0  0  0
  160.7310  212.4290  150.3540 N   0  0  0  0  0  0  0  0  0  0  0  0
  162.3450  209.6770  148.5580 N   0  0  0  0  0  2  0  0  0  0  0  0
  162.7580  209.2660  152.2600 O   0  0  0  0  0  1  0  0  0  0  0  0
  156.6230  214.2070  151.9900 C   0  0  0  0  0  3  0  0  0  0  0  0
  157.7360  213.3960  152.2330 C   0  0  0  0  0  0  0  0  0  0  0  0
  161.4590  209.7620  152.1120 C   0  0  2  0  0  3  0  0  0  0  0  0
  160.6450  210.6020  156.7640 C   0  0  0  0  0  2  0  0  0  0  0  0
  161.2150  208.1970  156.8590 C   0  0  0  0  0  1  0  0  0  0  0  0
  160.1370  209.2220  157.1360 C   0  0  0  0  0  2  0  0  0  0  0  0
  1  5  1  0  0  0  0
  2 16  1  0  0  0  0
  3 17  1  0  0  0  0
  4  1  2  0  0  0  0
  5 11  1  0  0  0  0
  7 15  1  6  0  0  0
  7 27  1  0  0  0  0
  8  6  2  0  0  0  0
  8 11  1  0  0  0  0
  9 14  1  6  0  0  0
  9 22  1  0  0  0  0
  9  7  1  0  0  0  0
 10 21  1  1  0  0  0
 10  3  1  0  0  0  0
 10 22  1  0  0  0  0
 11 28  1  0  0  0  0
 12  4  1  1  0  0  0
 12  8  1  0  0  0  0
 13  2  1  0  0  0  0
 17 20  2  0  0  0  0
 17 26  1  0  0  0  0
 18 13  2  0  0  0  0
 19  1  1  0  0  0  0
 19  2  2  0  0  0  0
 20  4  1  0  0  0  0
 22 20  1  0  0  0  0
 23 14  1  0  0  0  0
 23 15  1  0  0  0  0
 25 26  2  0  0  0  0
 25 18  1  0  0  0  0
 26 19  1  0  0  0  0
 27 24  1  6  0  0  0
 27 12  1  0  0  0  0
 28 30  1  0  0  0  0
 29 30  1  0  0  0  0
M  END
>  <MODEL>
9

>  <REMARK>
 VINA RESULT:      -4.0      2.061      5.678
  Name = 
  2 active torsions:
  status: ('A' for Active; 'I' for Inactive)
    1  A    between atoms: N_11  and  C_28
    2  A    between atoms: C_28  and  C_30
                            x       y       z     vdW  Elec       q    Type
                         _______ _______ _______ _____ _____    ______ ____

>  <TORSDO>
F 2

$$$$
