=
 OpenBabel11122414093D

 28 32  0  0  1  0  0  0  0  0999 V2000
  161.0710  208.7280  155.4080 C   0  0  0  0  0  0  0  0  0  0  0  0
  158.2560  210.8410  154.2260 O   0  0  0  0  0  0  0  0  0  0  0  0
  161.3440  208.4550  149.1210 O   0  0  0  0  0  0  0  0  0  0  0  0
  162.9940  210.3990  156.5760 C   0  0  0  0  0  3  0  0  0  0  0  0
  161.8750  210.5830  149.9750 N   0  0  0  0  0  0  0  0  0  0  0  0
  160.0890  207.7800  154.7900 C   0  0  0  0  0  2  0  0  0  0  0  0
  159.1640  212.9710  155.0490 O   0  0  0  0  0  0  0  0  0  0  0  0
  159.0070  212.0870  153.8450 S   0  0  0  0  0  0  0  0  0  0  0  0
  158.5190  212.7840  151.2560 C   0  0  0  0  0  0  0  0  0  0  0  0
  160.6350  211.6810  153.2100 C   0  0  2  0  0  3  0  0  0  0  0  0
  162.4310  205.8090  152.6300 O   0  0  0  0  0  1  0  0  0  0  0  0
  162.0180  209.9170  152.2690 C   0  0  2  0  0  3  0  0  0  0  0  0
  159.5940  211.8160  150.8850 C   0  0  0  0  0  2  0  0  0  0  0  0
  158.1350  212.9330  152.6190 N   0  0  0  0  0  2  0  0  0  0  0  0
  161.7440  206.9400  153.0660 C   0  0  1  0  0  3  0  0  0  0  0  0
  161.5120  209.8770  154.7180 C   0  0  0  0  0  0  0  0  0  0  0  0
  161.6120  209.2040  150.0970 C   0  0  0  0  0  0  0  0  0  0  0  0
  157.8430  213.3760  150.3310 N   0  0  0  0  0  2  0  0  0  0  0  0
  160.9840  207.5520  151.9000 C   0  0  0  0  0  2  0  0  0  0  0  0
  162.4860  210.6990  155.3110 C   0  0  0  0  0  3  0  0  0  0  0  0
  161.5880  208.4350  156.6750 C   0  0  0  0  0  3  0  0  0  0  0  0
  162.5420  209.2690  157.2590 C   0  0  0  0  0  3  0  0  0  0  0  0
  160.7890  206.5590  154.1900 C   0  0  0  0  0  2  0  0  0  0  0  0
  162.0320  211.1390  151.3170 C   0  0  2  0  0  3  0  0  0  0  0  0
  161.6550  208.7630  151.4380 N   0  0  0  0  0  0  0  0  0  0  0  0
  160.8560  212.0380  151.7390 C   0  0  2  0  0  3  0  0  0  0  0  0
  162.0390  211.3150  148.7310 C   0  0  0  0  0  1  0  0  0  0  0  0
  160.9770  210.2050  153.3470 C   0  0  1  0  0  3  0  0  0  0  0  0
  1 21  1  0  0  0  0
  3 17  2  0  0  0  0
  4 22  1  0  0  0  0
  5 17  1  0  0  0  0
  6  1  1  0  0  0  0
  8  2  2  0  0  0  0
  8  7  2  0  0  0  0
  9 14  1  0  0  0  0
 10 28  1  0  0  0  0
 10  8  1  6  0  0  0
 12 25  1  6  0  0  0
 12 28  1  0  0  0  0
 13  9  1  0  0  0  0
 14  8  1  0  0  0  0
 15 11  1  6  0  0  0
 15 23  1  0  0  0  0
 16 20  1  0  0  0  0
 16  1  2  0  0  0  0
 17 25  1  0  0  0  0
 18  9  2  0  0  0  0
 19 15  1  0  0  0  0
 20  4  2  0  0  0  0
 21 22  2  0  0  0  0
 23  6  1  0  0  0  0
 24  5  1  6  0  0  0
 24 26  1  0  0  0  0
 24 12  1  0  0  0  0
 25 19  1  0  0  0  0
 26 13  1  6  0  0  0
 26 10  1  0  0  0  0
 27  5  1  0  0  0  0
 28 16  1  1  0  0  0
M  END
>  <MODEL>
1

>  <REMARK>
 VINA RESULT:      -4.3      0.000      0.000
  Name = 
  0 active torsions:
  status: ('A' for Active; 'I' for Inactive)
                            x       y       z     vdW  Elec       q    Type
                         _______ _______ _______ _____ _____    ______ ____

>  <TORSDO>
F 0

$$$$
