=
 OpenBabel11122413153D

 31 35  0  0  1  0  0  0  0  0999 V2000
  161.0250  207.0320  147.1800 C   0  0  0  0  0  0  0  0  0  0  0  0
  160.8690  204.8860  150.2700 N   0  0  0  0  0  0  0  0  0  0  0  0
  160.9140  203.4940  149.8740 C   0  0  0  0  0  0  0  0  0  0  0  0
  160.7700  201.7340  148.2000 C   0  0  0  0  0  0  0  0  0  0  0  0
  161.1730  205.9640  149.3570 C   0  0  0  0  0  0  0  0  0  0  0  0
  161.7650  208.1170  147.6550 C   0  0  0  0  0  3  0  0  0  0  0  0
  160.7140  203.0880  148.5450 C   0  0  0  0  0  3  0  0  0  0  0  0
  162.1430  205.9580  152.0890 C   0  0  2  0  0  3  0  0  0  0  0  0
  160.5940  207.0180  145.8960 F   0  0  0  0  0  0  0  0  0  0  0  0
  161.4270  202.9600  152.2480 C   0  0  0  0  0  2  0  0  0  0  0  0
  160.5740  201.3540  146.9150 F   0  0  0  0  0  0  0  0  0  0  0  0
  162.3490  207.0970  151.1940 N   0  0  0  0  0  2  0  0  0  0  0  0
  160.8450  205.2410  151.7050 C   0  0  2  0  0  3  0  0  0  0  0  0
  160.7260  205.9620  148.0270 C   0  0  0  0  0  3  0  0  0  0  0  0
  161.0340  200.7740  149.1810 C   0  0  0  0  0  3  0  0  0  0  0  0
  161.9160  207.0640  149.8300 C   0  0  0  0  0  0  0  0  0  0  0  0
  162.2070  208.1350  148.9810 C   0  0  0  0  0  3  0  0  0  0  0  0
  160.5600  204.0890  152.5750 N   0  0  0  0  0  2  0  0  0  0  0  0
  161.1660  202.5200  150.8500 C   0  0  0  0  0  0  0  0  0  0  0  0
  161.2360  201.1670  150.5060 C   0  0  0  0  0  3  0  0  0  0  0  0
  160.7650  208.2930  152.9650 O   0  0  0  0  0  0  0  0  0  0  0  0
  161.3530  207.6000  153.8390 C   0  0  0  0  0  0  0  0  0  0  0  0
  162.0700  206.4230  153.4660 N   0  0  0  0  0  2  0  0  0  0  0  0
  159.1890  209.7890  155.8850 C   0  0  1  0  0  3  0  0  0  0  0  0
  160.0770  207.4570  155.9910 C   0  0  0  0  0  2  0  0  0  0  0  0
  162.6280  210.1370  154.8470 C   0  0  0  0  0  1  0  0  0  0  0  0
  158.0170  210.5990  155.6080 N   0  0  0  0  0  1  0  0  0  0  0  0
  158.8430  208.3120  155.6900 C   0  0  0  0  0  2  0  0  0  0  0  0
  161.3950  209.5310  155.4960 C   0  0  2  0  0  3  0  0  0  0  0  0
  161.3220  208.0060  155.2860 C   0  0  2  0  0  3  0  0  0  0  0  0
  160.2310  210.1600  155.0150 O   0  0  0  0  0  0  0  0  0  0  0  0
  1  6  2  0  0  0  0
  1 14  1  0  0  0  0
  2 13  1  0  0  0  0
  3  2  1  0  0  0  0
  3 19  1  0  0  0  0
  4  7  1  0  0  0  0
  4 15  2  0  0  0  0
  5 16  1  0  0  0  0
  5  2  1  0  0  0  0
  6 17  1  0  0  0  0
  7  3  2  0  0  0  0
  8 23  1  1  0  0  0
  9  1  1  0  0  0  0
 10 18  1  0  0  0  0
 11  4  1  0  0  0  0
 12  8  1  0  0  0  0
 13  8  1  0  0  0  0
 13 18  1  1  0  0  0
 14  5  2  0  0  0  0
 15 20  1  0  0  0  0
 16 12  1  0  0  0  0
 17 16  2  0  0  0  0
 19 10  1  0  0  0  0
 20 19  2  0  0  0  0
 21 22  2  0  0  0  0
 23 22  1  0  0  0  0
 24 27  1  6  0  0  0
 28 24  1  0  0  0  0
 28 25  1  0  0  0  0
 29 26  1  6  0  0  0
 30 22  1  6  0  0  0
 30 29  1  0  0  0  0
 30 25  1  0  0  0  0
 31 29  1  0  0  0  0
 31 24  1  0  0  0  0
M  END
>  <MODEL>
1

>  <REMARK>
 VINA RESULT:      -8.6      0.000      0.000
  Name = 
  2 active torsions:
  status: ('A' for Active; 'I' for Inactive)
    1  A    between atoms: C_5  and  C_30
    2  A    between atoms: C_10  and  N_16
                            x       y       z     vdW  Elec       q    Type
                         _______ _______ _______ _____ _____    ______ ____

>  <TORSDO>
F 2

$$$$
=
 OpenBabel11122413153D

 31 35  0  0  1  0  0  0  0  0999 V2000
  161.2590  202.2160  150.7680 C   0  0  0  0  0  0  0  0  0  0  0  0
  161.7180  205.4820  148.9510 N   0  0  0  0  0  0  0  0  0  0  0  0
  161.3910  205.2880  147.5540 C   0  0  0  0  0  0  0  0  0  0  0  0
  160.9350  203.8640  145.6350 C   0  0  0  0  0  0  0  0  0  0  0  0
  161.3980  204.5060  149.9670 C   0  0  0  0  0  0  0  0  0  0  0  0
  160.7980  202.6720  152.0060 C   0  0  0  0  0  3  0  0  0  0  0  0
  161.2570  204.0110  146.9870 C   0  0  0  0  0  3  0  0  0  0  0  0
  161.0080  207.3450  150.4020 C   0  0  2  0  0  3  0  0  0  0  0  0
  161.4160  200.8890  150.5520 F   0  0  0  0  0  0  0  0  0  0  0  0
  161.2930  207.7660  147.3570 C   0  0  0  0  0  2  0  0  0  0  0  0
  160.8100  202.6260  145.0990 F   0  0  0  0  0  0  0  0  0  0  0  0
  160.7950  206.3610  151.4630 N   0  0  0  0  0  2  0  0  0  0  0  0
  162.0820  206.8290  149.4400 C   0  0  2  0  0  3  0  0  0  0  0  0
  161.5620  203.1290  149.7550 C   0  0  0  0  0  3  0  0  0  0  0  0
  160.7350  204.9940  144.8380 C   0  0  0  0  0  3  0  0  0  0  0  0
  160.9350  204.9570  151.2190 C   0  0  0  0  0  0  0  0  0  0  0  0
  160.6400  204.0410  152.2330 C   0  0  0  0  0  3  0  0  0  0  0  0
  162.3640  207.7770  148.3500 N   0  0  0  0  0  2  0  0  0  0  0  0
  161.2000  206.4140  146.7410 C   0  0  0  0  0  0  0  0  0  0  0  0
  160.8640  206.2700  145.3910 C   0  0  0  0  0  3  0  0  0  0  0  0
  160.3550  208.2420  153.0260 O   0  0  0  0  0  0  0  0  0  0  0  0
  161.0690  208.9980  152.3120 C   0  0  0  0  0  0  0  0  0  0  0  0
  161.4240  208.6120  150.9840 N   0  0  0  0  0  2  0  0  0  0  0  0
  160.5530  210.8950  155.4420 C   0  0  1  0  0  3  0  0  0  0  0  0
  162.4780  210.1370  154.0430 C   0  0  0  0  0  2  0  0  0  0  0  0
  159.4550  211.5290  152.0640 C   0  0  0  0  0  1  0  0  0  0  0  0
  159.8080  210.6510  156.6630 N   0  0  0  0  0  1  0  0  0  0  0  0
  161.6860  209.8740  155.3260 C   0  0  0  0  0  2  0  0  0  0  0  0
  160.4000  211.2770  153.2250 C   0  0  2  0  0  3  0  0  0  0  0  0
  161.5460  210.3210  152.8390 C   0  0  2  0  0  3  0  0  0  0  0  0
  159.6900  210.7860  154.3360 O   0  0  0  0  0  0  0  0  0  0  0  0
  1  6  1  0  0  0  0
  2 13  1  0  0  0  0
  2  5  1  0  0  0  0
  3  2  1  0  0  0  0
  4  7  2  0  0  0  0
  5 16  2  0  0  0  0
  6 17  2  0  0  0  0
  7  3  1  0  0  0  0
  8 23  1  1  0  0  0
  8 12  1  0  0  0  0
  9  1  1  0  0  0  0
 10 18  1  0  0  0  0
 11  4  1  0  0  0  0
 13 18  1  6  0  0  0
 13  8  1  0  0  0  0
 14  5  1  0  0  0  0
 14  1  2  0  0  0  0
 15 20  2  0  0  0  0
 15  4  1  0  0  0  0
 16 12  1  0  0  0  0
 16 17  1  0  0  0  0
 19 10  1  0  0  0  0
 19  3  2  0  0  0  0
 20 19  1  0  0  0  0
 22 21  2  0  0  0  0
 23 22  1  0  0  0  0
 24 27  1  1  0  0  0
 25 28  1  0  0  0  0
 28 24  1  0  0  0  0
 29 26  1  6  0  0  0
 29 31  1  0  0  0  0
 30 22  1  1  0  0  0
 30 29  1  0  0  0  0
 30 25  1  0  0  0  0
 31 24  1  0  0  0  0
M  END
>  <MODEL>
2

>  <REMARK>
 VINA RESULT:      -8.3      1.938      4.181
  Name = 
  2 active torsions:
  status: ('A' for Active; 'I' for Inactive)
    1  A    between atoms: C_5  and  C_30
    2  A    between atoms: C_10  and  N_16
                            x       y       z     vdW  Elec       q    Type
                         _______ _______ _______ _____ _____    ______ ____

>  <TORSDO>
F 2

$$$$
=
 OpenBabel11122413153D

 31 35  0  0  1  0  0  0  0  0999 V2000
  161.1250  201.8270  150.5380 C   0  0  0  0  0  0  0  0  0  0  0  0
  161.7450  205.0270  148.6550 N   0  0  0  0  0  0  0  0  0  0  0  0
  161.3820  204.8300  147.2680 C   0  0  0  0  0  0  0  0  0  0  0  0
  160.8090  203.4030  145.3820 C   0  0  0  0  0  0  0  0  0  0  0  0
  161.3850  204.0900  149.6930 C   0  0  0  0  0  0  0  0  0  0  0  0
  160.7130  202.3290  151.7750 C   0  0  0  0  0  3  0  0  0  0  0  0
  161.1630  203.5540  146.7260 C   0  0  0  0  0  3  0  0  0  0  0  0
  161.1720  206.9540  150.0830 C   0  0  2  0  0  3  0  0  0  0  0  0
  161.1990  200.4880  150.3430 F   0  0  0  0  0  0  0  0  0  0  0  0
  161.4290  207.3050  147.0280 C   0  0  0  0  0  2  0  0  0  0  0  0
  160.6020  202.1660  144.8710 F   0  0  0  0  0  0  0  0  0  0  0  0
  160.9200  206.0030  151.1660 N   0  0  0  0  0  2  0  0  0  0  0  0
  162.1970  206.3580  149.1140 C   0  0  2  0  0  3  0  0  0  0  0  0
  161.4640  202.7020  149.5040 C   0  0  0  0  0  3  0  0  0  0  0  0
  160.6640  204.5290  144.5680 C   0  0  0  0  0  3  0  0  0  0  0  0
  160.9710  204.5890  150.9450 C   0  0  0  0  0  0  0  0  0  0  0  0
  160.6400  203.7100  151.9790 C   0  0  0  0  0  3  0  0  0  0  0  0
  162.5160  207.2690  148.0030 N   0  0  0  0  0  2  0  0  0  0  0  0
  161.2440  205.9510  146.4370 C   0  0  0  0  0  0  0  0  0  0  0  0
  160.8770  205.8050  145.0960 C   0  0  0  0  0  3  0  0  0  0  0  0
  160.4810  208.0170  152.6350 O   0  0  0  0  0  0  0  0  0  0  0  0
  161.2920  208.6760  151.9280 C   0  0  0  0  0  0  0  0  0  0  0  0
  161.6730  208.2040  150.6360 N   0  0  0  0  0  2  0  0  0  0  0  0
  159.8580  211.7980  153.2920 C   0  0  1  0  0  3  0  0  0  0  0  0
  161.6190  210.1470  153.9310 C   0  0  0  0  0  2  0  0  0  0  0  0
  161.5580  211.1160  150.1820 C   0  0  0  0  0  1  0  0  0  0  0  0
  158.5090  212.2570  153.5660 N   0  0  0  0  0  1  0  0  0  0  0  0
  160.1930  210.6250  154.2140 C   0  0  0  0  0  2  0  0  0  0  0  0
  161.3200  211.2080  151.6800 C   0  0  2  0  0  3  0  0  0  0  0  0
  161.8610  209.9740  152.4270 C   0  0  2  0  0  3  0  0  0  0  0  0
  159.9520  211.3960  151.9470 O   0  0  0  0  0  0  0  0  0  0  0  0
  1  6  1  0  0  0  0
  2 13  1  0  0  0  0
  2  5  1  0  0  0  0
  3  2  1  0  0  0  0
  4  7  2  0  0  0  0
  5 16  2  0  0  0  0
  6 17  2  0  0  0  0
  7  3  1  0  0  0  0
  8 23  1  1  0  0  0
  8 12  1  0  0  0  0
  9  1  1  0  0  0  0
 10 18  1  0  0  0  0
 11  4  1  0  0  0  0
 13 18  1  6  0  0  0
 13  8  1  0  0  0  0
 14  5  1  0  0  0  0
 14  1  2  0  0  0  0
 15 20  2  0  0  0  0
 15  4  1  0  0  0  0
 16 12  1  0  0  0  0
 16 17  1  0  0  0  0
 19 10  1  0  0  0  0
 19  3  2  0  0  0  0
 20 19  1  0  0  0  0
 22 21  2  0  0  0  0
 23 22  1  0  0  0  0
 24 27  1  1  0  0  0
 24 28  1  0  0  0  0
 25 28  1  0  0  0  0
 29 26  1  6  0  0  0
 29 31  1  0  0  0  0
 29 30  1  0  0  0  0
 30 22  1  6  0  0  0
 30 25  1  0  0  0  0
 31 24  1  0  0  0  0
M  END
>  <MODEL>
3

>  <REMARK>
 VINA RESULT:      -8.2      2.204      4.328
  Name = 
  2 active torsions:
  status: ('A' for Active; 'I' for Inactive)
    1  A    between atoms: C_5  and  C_30
    2  A    between atoms: C_10  and  N_16
                            x       y       z     vdW  Elec       q    Type
                         _______ _______ _______ _____ _____    ______ ____

>  <TORSDO>
F 2

$$$$
=
 OpenBabel11122413153D

 31 35  0  0  1  0  0  0  0  0999 V2000
  160.7890  207.6390  155.8950 C   0  0  0  0  0  0  0  0  0  0  0  0
  161.5490  207.6940  152.2080 N   0  0  0  0  0  0  0  0  0  0  0  0
  161.3150  206.3730  151.6640 C   0  0  0  0  0  0  0  0  0  0  0  0
  160.9280  203.9840  151.9210 C   0  0  0  0  0  0  0  0  0  0  0  0
  161.1040  208.0810  153.5270 C   0  0  0  0  0  0  0  0  0  0  0  0
  160.2620  208.9210  156.0700 C   0  0  0  0  0  3  0  0  0  0  0  0
  161.1570  205.2440  152.4830 C   0  0  0  0  0  3  0  0  0  0  0  0
  160.8310  209.8480  151.2460 C   0  0  2  0  0  3  0  0  0  0  0  0
  160.8920  206.8000  156.9540 F   0  0  0  0  0  0  0  0  0  0  0  0
  161.3610  207.4240  149.4100 C   0  0  0  0  0  2  0  0  0  0  0  0
  160.7780  202.9020  152.7210 F   0  0  0  0  0  0  0  0  0  0  0  0
  160.4910  210.2750  152.6030 N   0  0  0  0  0  2  0  0  0  0  0  0
  161.9450  208.7990  151.3090 C   0  0  2  0  0  3  0  0  0  0  0  0
  161.2120  207.2220  154.6310 C   0  0  0  0  0  3  0  0  0  0  0  0
  160.8470  203.8440  150.5330 C   0  0  0  0  0  3  0  0  0  0  0  0
  160.5750  209.3740  153.7130 C   0  0  0  0  0  0  0  0  0  0  0  0
  160.1590  209.7900  154.9800 C   0  0  0  0  0  3  0  0  0  0  0  0
  162.3550  208.3320  149.9750 N   0  0  0  0  0  2  0  0  0  0  0  0
  161.2430  206.2160  150.2730 C   0  0  0  0  0  0  0  0  0  0  0  0
  161.0000  204.9610  149.7080 C   0  0  0  0  0  3  0  0  0  0  0  0
  159.4760  212.3500  151.1010 O   0  0  0  0  0  0  0  0  0  0  0  0
  160.5460  212.2270  150.4440 C   0  0  0  0  0  0  0  0  0  0  0  0
  161.2690  210.9960  150.4660 N   0  0  0  0  0  2  0  0  0  0  0  0
  159.7880  213.5800  147.0900 C   0  0  1  0  0  3  0  0  0  0  0  0
  160.0040  214.4490  149.4200 C   0  0  0  0  0  2  0  0  0  0  0  0
  162.7000  211.8770  148.3680 C   0  0  0  0  0  1  0  0  0  0  0  0
  158.8500  213.2220  146.0410 N   0  0  0  0  0  1  0  0  0  0  0  0
  159.0150  214.0630  148.3180 C   0  0  0  0  0  2  0  0  0  0  0  0
  161.6120  212.9290  148.2430 C   0  0  2  0  0  3  0  0  0  0  0  0
  161.0710  213.3670  149.6180 C   0  0  2  0  0  3  0  0  0  0  0  0
  160.5710  212.4600  147.4210 O   0  0  0  0  0  0  0  0  0  0  0  0
  1  6  1  0  0  0  0
  1  9  1  0  0  0  0
  2  5  1  0  0  0  0
  3  2  1  0  0  0  0
  3  7  1  0  0  0  0
  4  7  2  0  0  0  0
  4 11  1  0  0  0  0
  5 16  2  0  0  0  0
  5 14  1  0  0  0  0
  8 23  1  6  0  0  0
  8 13  1  0  0  0  0
  8 12  1  0  0  0  0
 10 18  1  0  0  0  0
 10 19  1  0  0  0  0
 12 16  1  0  0  0  0
 13 18  1  6  0  0  0
 13  2  1  0  0  0  0
 14  1  2  0  0  0  0
 15  4  1  0  0  0  0
 16 17  1  0  0  0  0
 17  6  2  0  0  0  0
 19  3  2  0  0  0  0
 20 19  1  0  0  0  0
 20 15  2  0  0  0  0
 22 23  1  0  0  0  0
 22 21  2  0  0  0  0
 24 27  1  6  0  0  0
 24 31  1  0  0  0  0
 24 28  1  0  0  0  0
 25 30  1  0  0  0  0
 28 25  1  0  0  0  0
 29 26  1  1  0  0  0
 29 30  1  0  0  0  0
 30 22  1  6  0  0  0
 31 29  1  0  0  0  0
M  END
>  <MODEL>
4

>  <REMARK>
 VINA RESULT:      -7.8      4.336      6.568
  Name = 
  2 active torsions:
  status: ('A' for Active; 'I' for Inactive)
    1  A    between atoms: C_5  and  C_30
    2  A    between atoms: C_10  and  N_16
                            x       y       z     vdW  Elec       q    Type
                         _______ _______ _______ _____ _____    ______ ____

>  <TORSDO>
F 2

$$$$
=
 OpenBabel11122413153D

 31 35  0  0  1  0  0  0  0  0999 V2000
  161.1520  200.9490  148.8180 C   0  0  0  0  0  0  0  0  0  0  0  0
  161.6740  204.6760  148.9070 N   0  0  0  0  0  0  0  0  0  0  0  0
  161.2710  205.2340  147.6330 C   0  0  0  0  0  0  0  0  0  0  0  0
  160.6570  205.0080  145.2900 C   0  0  0  0  0  0  0  0  0  0  0  0
  161.3580  203.3220  149.2970 C   0  0  0  0  0  0  0  0  0  0  0  0
  160.7730  200.7090  150.1410 C   0  0  0  0  0  3  0  0  0  0  0  0
  161.0510  204.4330  146.5020 C   0  0  0  0  0  3  0  0  0  0  0  0
  161.1230  205.5380  151.1510 C   0  0  2  0  0  3  0  0  0  0  0  0
  161.2360  199.9200  147.9420 F   0  0  0  0  0  0  0  0  0  0  0  0
  161.2800  207.4610  148.7420 C   0  0  0  0  0  2  0  0  0  0  0  0
  160.4490  204.2250  144.2050 F   0  0  0  0  0  0  0  0  0  0  0  0
  160.9160  204.1510  151.5690 N   0  0  0  0  0  2  0  0  0  0  0  0
  162.1240  205.5740  149.9920 C   0  0  2  0  0  3  0  0  0  0  0  0
  161.4480  202.2480  148.3990 C   0  0  0  0  0  3  0  0  0  0  0  0
  160.4720  206.3900  145.2000 C   0  0  0  0  0  3  0  0  0  0  0  0
  160.9780  203.0710  150.6310 C   0  0  0  0  0  0  0  0  0  0  0  0
  160.6890  201.7690  151.0480 C   0  0  0  0  0  3  0  0  0  0  0  0
  162.3970  206.9430  149.5270 N   0  0  0  0  0  2  0  0  0  0  0  0
  161.0940  206.6210  147.5270 C   0  0  0  0  0  0  0  0  0  0  0  0
  160.6870  207.1970  146.3200 C   0  0  0  0  0  3  0  0  0  0  0  0
  160.1830  208.1180  151.9120 O   0  0  0  0  0  0  0  0  0  0  0  0
  161.1030  207.6040  152.6050 C   0  0  0  0  0  0  0  0  0  0  0  0
  161.6250  206.3180  152.2720 N   0  0  0  0  0  2  0  0  0  0  0  0
  159.8010  210.1020  154.9970 C   0  0  1  0  0  3  0  0  0  0  0  0
  160.9960  207.9120  155.0890 C   0  0  0  0  0  2  0  0  0  0  0  0
  162.2770  210.3700  152.3850 C   0  0  0  0  0  1  0  0  0  0  0  0
  158.5210  210.7620  155.1760 N   0  0  0  0  0  1  0  0  0  0  0  0
  159.6440  208.6060  155.2690 C   0  0  0  0  0  2  0  0  0  0  0  0
  161.5930  209.8730  153.6470 C   0  0  2  0  0  3  0  0  0  0  0  0
  161.6740  208.3400  153.7840 C   0  0  2  0  0  3  0  0  0  0  0  0
  160.2550  210.3090  153.6820 O   0  0  0  0  0  0  0  0  0  0  0  0
  1  6  1  0  0  0  0
  2  5  1  0  0  0  0
  2 13  1  0  0  0  0
  3  2  1  0  0  0  0
  4  7  1  0  0  0  0
  5 16  2  0  0  0  0
  6 17  2  0  0  0  0
  7  3  2  0  0  0  0
  8 12  1  0  0  0  0
  8 23  1  1  0  0  0
  9  1  1  0  0  0  0
 10 18  1  0  0  0  0
 11  4  1  0  0  0  0
 13 18  1  6  0  0  0
 13  8  1  0  0  0  0
 14  1  2  0  0  0  0
 14  5  1  0  0  0  0
 15  4  2  0  0  0  0
 15 20  1  0  0  0  0
 16 17  1  0  0  0  0
 16 12  1  0  0  0  0
 19  3  1  0  0  0  0
 19 10  1  0  0  0  0
 20 19  2  0  0  0  0
 21 22  2  0  0  0  0
 23 22  1  0  0  0  0
 24 27  1  6  0  0  0
 24 28  1  0  0  0  0
 25 28  1  0  0  0  0
 29 26  1  6  0  0  0
 29 31  1  0  0  0  0
 29 30  1  0  0  0  0
 30 22  1  6  0  0  0
 30 25  1  0  0  0  0
 31 24  1  0  0  0  0
M  END
>  <MODEL>
5

>  <REMARK>
 VINA RESULT:      -7.8      1.453      4.090
  Name = 
  2 active torsions:
  status: ('A' for Active; 'I' for Inactive)
    1  A    between atoms: C_5  and  C_30
    2  A    between atoms: C_10  and  N_16
                            x       y       z     vdW  Elec       q    Type
                         _______ _______ _______ _____ _____    ______ ____

>  <TORSDO>
F 2

$$$$
=
 OpenBabel11122413153D

 31 35  0  0  1  0  0  0  0  0999 V2000
  161.3120  204.2150  145.9460 C   0  0  0  0  0  0  0  0  0  0  0  0
  161.0730  205.8990  149.3050 N   0  0  0  0  0  0  0  0  0  0  0  0
  161.0220  204.8820  150.3340 C   0  0  0  0  0  0  0  0  0  0  0  0
  160.7370  202.5770  151.0610 C   0  0  0  0  0  0  0  0  0  0  0  0
  161.4290  205.6030  147.9370 C   0  0  0  0  0  0  0  0  0  0  0  0
  162.1280  205.1190  145.2610 C   0  0  0  0  0  3  0  0  0  0  0  0
  160.7740  203.5320  150.0400 C   0  0  0  0  0  3  0  0  0  0  0  0
  162.4430  207.9490  149.3040 C   0  0  2  0  0  3  0  0  0  0  0  0
  160.8590  203.1030  145.3190 F   0  0  0  0  0  0  0  0  0  0  0  0
  161.5400  206.6820  151.9700 C   0  0  0  0  0  2  0  0  0  0  0  0
  160.4960  201.2780  150.7650 F   0  0  0  0  0  0  0  0  0  0  0  0
  162.7060  207.7030  147.8860 N   0  0  0  0  0  2  0  0  0  0  0  0
  161.0960  207.3280  149.6850 C   0  0  2  0  0  3  0  0  0  0  0  0
  160.9610  204.4580  147.2760 C   0  0  0  0  0  3  0  0  0  0  0  0
  160.9570  202.9640  152.3860 C   0  0  0  0  0  3  0  0  0  0  0  0
  162.2490  206.5110  147.2370 C   0  0  0  0  0  0  0  0  0  0  0  0
  162.5930  206.2680  145.9050 C   0  0  0  0  0  3  0  0  0  0  0  0
  160.7530  207.5500  151.0980 N   0  0  0  0  0  2  0  0  0  0  0  0
  161.2280  205.2580  151.6680 C   0  0  0  0  0  0  0  0  0  0  0  0
  161.2060  204.3040  152.6900 C   0  0  0  0  0  3  0  0  0  0  0  0
  161.3680  209.9150  147.5440 O   0  0  0  0  0  0  0  0  0  0  0  0
  161.8600  210.3150  148.6350 C   0  0  0  0  0  0  0  0  0  0  0  0
  162.4230  209.3820  149.5580 N   0  0  0  0  0  2  0  0  0  0  0  0
  160.9190  213.4160  146.8580 C   0  0  1  0  0  3  0  0  0  0  0  0
  160.4520  212.3420  149.0630 C   0  0  0  0  0  2  0  0  0  0  0  0
  164.1350  212.1410  147.8860 C   0  0  0  0  0  1  0  0  0  0  0  0
  160.3780  213.7050  145.5430 N   0  0  0  0  0  1  0  0  0  0  0  0
  159.8840  212.6390  147.6740 C   0  0  0  0  0  2  0  0  0  0  0  0
  162.7010  212.6290  147.9950 C   0  0  2  0  0  3  0  0  0  0  0  0
  161.8740  211.7780  148.9770 C   0  0  2  0  0  3  0  0  0  0  0  0
  162.0960  212.6570  146.7240 O   0  0  0  0  0  0  0  0  0  0  0  0
  1 14  1  0  0  0  0
  2 13  1  0  0  0  0
  2  3  1  0  0  0  0
  3 19  1  0  0  0  0
  4 15  2  0  0  0  0
  5  2  1  0  0  0  0
  6 17  1  0  0  0  0
  6  1  2  0  0  0  0
  7  3  2  0  0  0  0
  7  4  1  0  0  0  0
  8 23  1  6  0  0  0
  8 13  1  0  0  0  0
  9  1  1  0  0  0  0
 11  4  1  0  0  0  0
 12  8  1  0  0  0  0
 13 18  1  1  0  0  0
 14  5  2  0  0  0  0
 15 20  1  0  0  0  0
 16 12  1  0  0  0  0
 16  5  1  0  0  0  0
 17 16  2  0  0  0  0
 18 10  1  0  0  0  0
 19 10  1  0  0  0  0
 19 20  2  0  0  0  0
 21 22  2  0  0  0  0
 22 23  1  0  0  0  0
 24 27  1  6  0  0  0
 24 28  1  0  0  0  0
 28 25  1  0  0  0  0
 29 26  1  6  0  0  0
 29 30  1  0  0  0  0
 30 22  1  6  0  0  0
 30 25  1  0  0  0  0
 31 24  1  0  0  0  0
 31 29  1  0  0  0  0
M  END
>  <MODEL>
6

>  <REMARK>
 VINA RESULT:      -7.8      3.519      5.418
  Name = 
  2 active torsions:
  status: ('A' for Active; 'I' for Inactive)
    1  A    between atoms: C_5  and  C_30
    2  A    between atoms: C_10  and  N_16
                            x       y       z     vdW  Elec       q    Type
                         _______ _______ _______ _____ _____    ______ ____

>  <TORSDO>
F 2

$$$$
=
 OpenBabel11122413153D

 31 35  0  0  1  0  0  0  0  0999 V2000
  161.5470  213.1210  149.1120 C   0  0  0  0  0  0  0  0  0  0  0  0
  161.8220  209.8080  150.8810 N   0  0  0  0  0  0  0  0  0  0  0  0
  161.1640  209.9100  152.1660 C   0  0  0  0  0  0  0  0  0  0  0  0
  160.1640  211.2030  153.9690 C   0  0  0  0  0  0  0  0  0  0  0  0
  161.6720  210.8090  149.8500 C   0  0  0  0  0  0  0  0  0  0  0  0
  161.4240  212.6970  147.7870 C   0  0  0  0  0  3  0  0  0  0  0  0
  160.8030  211.1450  152.7260 C   0  0  0  0  0  3  0  0  0  0  0  0
  161.6160  207.9750  149.2440 C   0  0  2  0  0  3  0  0  0  0  0  0
  161.5450  214.4440  149.4020 F   0  0  0  0  0  0  0  0  0  0  0  0
  161.2160  207.4240  152.2550 C   0  0  0  0  0  2  0  0  0  0  0  0
  159.8220  212.4010  154.4990 F   0  0  0  0  0  0  0  0  0  0  0  0
  161.5810  208.9940  148.1950 N   0  0  0  0  0  2  0  0  0  0  0  0
  162.3930  208.5150  150.4480 C   0  0  2  0  0  3  0  0  0  0  0  0
  161.6750  212.1820  150.1390 C   0  0  0  0  0  3  0  0  0  0  0  0
  159.8730  210.0240  154.6590 C   0  0  0  0  0  3  0  0  0  0  0  0
  161.5500  210.3900  148.5100 C   0  0  0  0  0  0  0  0  0  0  0  0
  161.4290  211.3320  147.4850 C   0  0  0  0  0  3  0  0  0  0  0  0
  162.4870  207.5350  151.5430 N   0  0  0  0  0  2  0  0  0  0  0  0
  160.8770  208.7350  152.8750 C   0  0  0  0  0  0  0  0  0  0  0  0
  160.2260  208.7880  154.1110 C   0  0  0  0  0  3  0  0  0  0  0  0
  160.4870  206.2030  147.3190 O   0  0  0  0  0  0  0  0  0  0  0  0
  161.6350  205.9280  147.7630 C   0  0  0  0  0  0  0  0  0  0  0  0
  162.2540  206.7690  148.7360 N   0  0  0  0  0  2  0  0  0  0  0  0
  160.8850  203.2100  145.3730 C   0  0  1  0  0  3  0  0  0  0  0  0
  162.7410  204.8230  145.8050 C   0  0  0  0  0  2  0  0  0  0  0  0
  161.2060  203.2010  148.9680 C   0  0  0  0  0  1  0  0  0  0  0  0
  159.7590  202.9030  144.5100 N   0  0  0  0  0  1  0  0  0  0  0  0
  161.5490  204.5040  144.9000 C   0  0  0  0  0  2  0  0  0  0  0  0
  161.5830  203.3960  147.5090 C   0  0  2  0  0  3  0  0  0  0  0  0
  162.3660  204.7050  147.2860 C   0  0  2  0  0  3  0  0  0  0  0  0
  160.4340  203.3550  146.6980 O   0  0  0  0  0  0  0  0  0  0  0  0
  1  9  1  0  0  0  0
  1 14  1  0  0  0  0
  2  3  1  0  0  0  0
  3  7  2  0  0  0  0
  3 19  1  0  0  0  0
  4 11  1  0  0  0  0
  4 15  2  0  0  0  0
  5 14  2  0  0  0  0
  5  2  1  0  0  0  0
  6  1  2  0  0  0  0
  7  4  1  0  0  0  0
  8 23  1  6  0  0  0
  8 13  1  0  0  0  0
 10 19  1  0  0  0  0
 12 16  1  0  0  0  0
 12  8  1  0  0  0  0
 13  2  1  0  0  0  0
 13 18  1  1  0  0  0
 16  5  1  0  0  0  0
 17  6  1  0  0  0  0
 17 16  2  0  0  0  0
 18 10  1  0  0  0  0
 19 20  2  0  0  0  0
 20 15  1  0  0  0  0
 21 22  2  0  0  0  0
 22 23  1  0  0  0  0
 24 27  1  6  0  0  0
 24 31  1  0  0  0  0
 25 30  1  0  0  0  0
 28 24  1  0  0  0  0
 28 25  1  0  0  0  0
 29 26  1  1  0  0  0
 30 29  1  0  0  0  0
 30 22  1  6  0  0  0
 31 29  1  0  0  0  0
M  END
>  <MODEL>
7

>  <REMARK>
 VINA RESULT:      -7.2      4.031      8.163
  Name = 
  2 active torsions:
  status: ('A' for Active; 'I' for Inactive)
    1  A    between atoms: C_5  and  C_30
    2  A    between atoms: C_10  and  N_16
                            x       y       z     vdW  Elec       q    Type
                         _______ _______ _______ _____ _____    ______ ____

>  <TORSDO>
F 2

$$$$
=
 OpenBabel11122413153D

 31 35  0  0  1  0  0  0  0  0999 V2000
  161.1960  206.6200  146.9600 C   0  0  0  0  0  0  0  0  0  0  0  0
  160.8820  205.8100  150.6230 N   0  0  0  0  0  0  0  0  0  0  0  0
  160.9370  204.3730  150.7900 C   0  0  0  0  0  0  0  0  0  0  0  0
  160.8620  202.1070  149.9090 C   0  0  0  0  0  0  0  0  0  0  0  0
  161.2360  206.4630  149.3840 C   0  0  0  0  0  0  0  0  0  0  0  0
  161.9190  207.8140  147.0190 C   0  0  0  0  0  3  0  0  0  0  0  0
  160.7980  203.4890  149.7090 C   0  0  0  0  0  3  0  0  0  0  0  0
  162.0760  207.5100  151.9530 C   0  0  2  0  0  3  0  0  0  0  0  0
  160.8260  206.1130  145.7600 F   0  0  0  0  0  0  0  0  0  0  0  0
  161.3350  204.7900  153.2100 C   0  0  0  0  0  2  0  0  0  0  0  0
  160.7240  201.2640  148.8580 F   0  0  0  0  0  0  0  0  0  0  0  0
  162.3310  208.2260  150.7030 N   0  0  0  0  0  2  0  0  0  0  0  0
  160.7930  206.6850  151.8120 C   0  0  2  0  0  3  0  0  0  0  0  0
  160.8520  205.9500  148.1360 C   0  0  0  0  0  3  0  0  0  0  0  0
  161.0740  201.5960  151.1920 C   0  0  0  0  0  3  0  0  0  0  0  0
  161.9620  207.6700  149.4350 C   0  0  0  0  0  0  0  0  0  0  0  0
  162.2990  208.3410  148.2570 C   0  0  0  0  0  3  0  0  0  0  0  0
  160.4610  205.9470  153.0420 N   0  0  0  0  0  2  0  0  0  0  0  0
  161.1380  203.8480  152.0740 C   0  0  0  0  0  0  0  0  0  0  0  0
  161.2160  202.4660  152.2750 C   0  0  0  0  0  3  0  0  0  0  0  0
  161.2140  210.2120  151.6790 O   0  0  0  0  0  0  0  0  0  0  0  0
  161.4940  209.8040  152.8390 C   0  0  0  0  0  0  0  0  0  0  0  0
  161.9410  208.4630  153.0450 N   0  0  0  0  0  2  0  0  0  0  0  0
  160.5150  209.3810  156.3780 C   0  0  1  0  0  3  0  0  0  0  0  0
  162.4130  210.3800  155.0990 C   0  0  0  0  0  2  0  0  0  0  0  0
  158.8950  211.0940  153.6460 C   0  0  0  0  0  1  0  0  0  0  0  0
  160.0960  208.2500  157.1850 N   0  0  0  0  0  1  0  0  0  0  0  0
  161.9670  209.1830  155.9420 C   0  0  0  0  0  2  0  0  0  0  0  0
  159.9700  210.7290  154.6550 C   0  0  2  0  0  3  0  0  0  0  0  0
  161.3760  210.7220  154.0230 C   0  0  2  0  0  3  0  0  0  0  0  0
  159.6820  209.4870  155.2500 O   0  0  0  0  0  0  0  0  0  0  0  0
  1  6  2  0  0  0  0
  1 14  1  0  0  0  0
  2  3  1  0  0  0  0
  2 13  1  0  0  0  0
  3 19  1  0  0  0  0
  4 15  2  0  0  0  0
  5 16  1  0  0  0  0
  5  2  1  0  0  0  0
  6 17  1  0  0  0  0
  7  4  1  0  0  0  0
  7  3  2  0  0  0  0
  8 23  1  1  0  0  0
  9  1  1  0  0  0  0
 11  4  1  0  0  0  0
 12  8  1  0  0  0  0
 13  8  1  0  0  0  0
 13 18  1  1  0  0  0
 14  5  2  0  0  0  0
 15 20  1  0  0  0  0
 16 12  1  0  0  0  0
 17 16  2  0  0  0  0
 18 10  1  0  0  0  0
 19 20  2  0  0  0  0
 19 10  1  0  0  0  0
 21 22  2  0  0  0  0
 22 23  1  0  0  0  0
 24 27  1  1  0  0  0
 25 28  1  0  0  0  0
 28 24  1  0  0  0  0
 29 26  1  6  0  0  0
 29 31  1  0  0  0  0
 30 22  1  6  0  0  0
 30 29  1  0  0  0  0
 30 25  1  0  0  0  0
 31 24  1  0  0  0  0
M  END
>  <MODEL>
8

>  <REMARK>
 VINA RESULT:      -7.0      1.475      2.022
  Name = 
  2 active torsions:
  status: ('A' for Active; 'I' for Inactive)
    1  A    between atoms: C_5  and  C_30
    2  A    between atoms: C_10  and  N_16
                            x       y       z     vdW  Elec       q    Type
                         _______ _______ _______ _____ _____    ______ ____

>  <TORSDO>
F 2

$$$$
=
 OpenBabel11122413153D

 31 35  0  0  1  0  0  0  0  0999 V2000
  161.5240  202.9000  151.6280 C   0  0  0  0  0  0  0  0  0  0  0  0
  161.8630  206.1260  149.7160 N   0  0  0  0  0  0  0  0  0  0  0  0
  161.5830  205.8710  148.3190 C   0  0  0  0  0  0  0  0  0  0  0  0
  161.2500  204.3650  146.4370 C   0  0  0  0  0  0  0  0  0  0  0  0
  161.5660  205.1670  150.7550 C   0  0  0  0  0  0  0  0  0  0  0  0
  161.0080  203.3700  152.8390 C   0  0  0  0  0  3  0  0  0  0  0  0
  161.5290  204.5710  147.7910 C   0  0  0  0  0  3  0  0  0  0  0  0
  161.0220  207.9950  151.0860 C   0  0  2  0  0  3  0  0  0  0  0  0
  161.7540  201.5760  151.4600 F   0  0  0  0  0  0  0  0  0  0  0  0
  161.3650  208.3330  148.0380 C   0  0  0  0  0  2  0  0  0  0  0  0
  161.2030  203.1060  145.9390 F   0  0  0  0  0  0  0  0  0  0  0  0
  160.8320  207.0350  152.1740 N   0  0  0  0  0  2  0  0  0  0  0  0
  162.1460  207.5040  150.1690 C   0  0  2  0  0  3  0  0  0  0  0  0
  161.8070  203.7950  150.5930 C   0  0  0  0  0  3  0  0  0  0  0  0
  161.0150  205.4570  145.5980 C   0  0  0  0  0  3  0  0  0  0  0  0
  161.0490  205.6330  151.9810 C   0  0  0  0  0  0  0  0  0  0  0  0
  160.7740  204.7360  153.0160 C   0  0  0  0  0  3  0  0  0  0  0  0
  162.4080  208.4310  149.0560 N   0  0  0  0  0  2  0  0  0  0  0  0
  161.3570  206.9590  147.4640 C   0  0  0  0  0  0  0  0  0  0  0  0
  161.0640  206.7550  146.1120 C   0  0  0  0  0  3  0  0  0  0  0  0
  159.3340  209.5530  152.7720 O   0  0  0  0  0  0  0  0  0  0  0  0
  160.4670  210.0250  152.4840 C   0  0  0  0  0  0  0  0  0  0  0  0
  161.3580  209.3000  151.6360 N   0  0  0  0  0  2  0  0  0  0  0  0
  158.7830  212.7660  154.3050 C   0  0  1  0  0  3  0  0  0  0  0  0
  160.8550  211.3930  154.5480 C   0  0  0  0  0  2  0  0  0  0  0  0
  160.0880  212.5870  150.9450 C   0  0  0  0  0  1  0  0  0  0  0  0
  157.4350  212.9740  154.8000 N   0  0  0  0  0  1  0  0  0  0  0  0
  159.4300  211.6060  155.0640 C   0  0  0  0  0  2  0  0  0  0  0  0
  160.0640  212.5380  152.4630 C   0  0  2  0  0  3  0  0  0  0  0  0
  160.8950  211.3640  153.0160 C   0  0  2  0  0  3  0  0  0  0  0  0
  158.7380  212.4760  152.9290 O   0  0  0  0  0  0  0  0  0  0  0  0
  1  6  1  0  0  0  0
  2 13  1  0  0  0  0
  2  5  1  0  0  0  0
  3  2  1  0  0  0  0
  4  7  2  0  0  0  0
  5 16  2  0  0  0  0
  6 17  2  0  0  0  0
  7  3  1  0  0  0  0
  8 23  1  1  0  0  0
  8 12  1  0  0  0  0
  9  1  1  0  0  0  0
 10 18  1  0  0  0  0
 11  4  1  0  0  0  0
 13 18  1  6  0  0  0
 13  8  1  0  0  0  0
 14  5  1  0  0  0  0
 14  1  2  0  0  0  0
 15 20  2  0  0  0  0
 15  4  1  0  0  0  0
 16 12  1  0  0  0  0
 16 17  1  0  0  0  0
 19 10  1  0  0  0  0
 19  3  2  0  0  0  0
 20 19  1  0  0  0  0
 22 21  2  0  0  0  0
 23 22  1  0  0  0  0
 24 27  1  1  0  0  0
 24 28  1  0  0  0  0
 25 28  1  0  0  0  0
 29 26  1  6  0  0  0
 29 31  1  0  0  0  0
 29 30  1  0  0  0  0
 30 22  1  6  0  0  0
 30 25  1  0  0  0  0
 31 24  1  0  0  0  0
M  END
>  <MODEL>
9

>  <REMARK>
 VINA RESULT:      -6.9      2.375      4.385
  Name = 
  2 active torsions:
  status: ('A' for Active; 'I' for Inactive)
    1  A    between atoms: C_5  and  C_30
    2  A    between atoms: C_10  and  N_16
                            x       y       z     vdW  Elec       q    Type
                         _______ _______ _______ _____ _____    ______ ____

>  <TORSDO>
F 2

$$$$
