=
 OpenBabel11122414053D

 28 31  0  0  1  0  0  0  0  0999 V2000
  161.2360  210.8360  138.8590 C   0  0  0  0  0  0  0  0  0  0  0  0
  162.8210  212.1140  142.1940 O   0  0  0  0  0  0  0  0  0  0  0  0
  162.7960  212.2630  137.0150 C   0  0  0  0  0  3  0  0  0  0  0  0
  160.4340  210.0350  139.8360 C   0  0  0  0  0  2  0  0  0  0  0  0
  162.3720  214.4520  141.5780 O   0  0  0  0  0  0  0  0  0  0  0  0
  161.7840  213.2000  142.1640 S   0  0  0  0  0  0  0  0  0  0  0  0
  160.0990  212.5960  144.0600 C   0  0  1  0  0  3  0  0  0  0  0  0
  160.3720  212.6680  141.2320 C   0  0  1  0  0  3  0  0  0  0  0  0
  158.7840  209.9030  137.0110 C   0  0  0  0  0  1  0  0  0  0  0  0
  158.8600  213.2590  139.4310 C   0  0  2  0  0  3  0  0  0  0  0  0
  158.8390  212.8770  143.2070 C   0  0  0  0  0  2  0  0  0  0  0  0
  161.2030  213.5210  143.7730 N   0  0  0  0  0  2  0  0  0  0  0  0
  158.3700  209.7130  138.3990 N   0  0  0  0  0  0  0  0  0  0  0  0
  161.1950  212.2520  138.8440 C   0  0  0  0  0  0  0  0  0  0  0  0
  159.7440  212.6630  145.5290 C   0  0  0  0  0  1  0  0  0  0  0  0
  157.8440  210.9230  139.0580 C   0  0  0  0  0  2  0  0  0  0  0  0
  161.9710  212.9480  137.9100 C   0  0  0  0  0  3  0  0  0  0  0  0
  162.0800  210.1610  137.9670 C   0  0  0  0  0  3  0  0  0  0  0  0
  162.8530  210.8700  137.0470 C   0  0  0  0  0  3  0  0  0  0  0  0
  159.4510  209.0710  139.1580 C   0  0  0  0  0  2  0  0  0  0  0  0
  158.1010  213.2840  140.7670 C   0  0  1  0  0  3  0  0  0  0  0  0
  158.2860  212.2520  138.4200 C   0  0  1  0  0  3  0  0  0  0  0  0
  159.1910  213.3910  141.8110 C   0  0  2  0  0  3  0  0  0  0  0  0
  160.3490  213.0840  139.7800 C   0  0  2  0  0  3  0  0  0  0  0  0
  157.7310  213.9550  137.1160 C   0  0  0  0  0  1  0  0  0  0  0  0
  157.2060  212.8240  137.7440 O   0  0  0  0  0  0  0  0  0  0  0  0
  157.2410  214.4530  140.8300 N   0  0  0  0  0  2  0  0  0  0  0  0
  155.8740  213.9850  140.6830 C   0  0  0  0  0  1  0  0  0  0  0  0
  1  4  1  0  0  0  0
  3 19  2  0  0  0  0
  3 17  1  0  0  0  0
  5  6  2  0  0  0  0
  6  2  2  0  0  0  0
  6 12  1  0  0  0  0
  7 15  1  1  0  0  0
  8 23  1  0  0  0  0
  8  6  1  1  0  0  0
  9 13  1  0  0  0  0
 10 24  1  0  0  0  0
 10 21  1  0  0  0  0
 11  7  1  0  0  0  0
 12  7  1  0  0  0  0
 13 16  1  0  0  0  0
 13 20  1  0  0  0  0
 14  1  1  0  0  0  0
 14 24  1  0  0  0  0
 17 14  2  0  0  0  0
 18  1  2  0  0  0  0
 19 18  1  0  0  0  0
 20  4  1  0  0  0  0
 21 27  1  0  0  0  0
 21 23  1  0  0  0  0
 22 16  1  0  0  0  0
 22 10  1  0  0  0  0
 23 11  1  0  0  0  0
 24  8  1  0  0  0  0
 25 26  1  0  0  0  0
 26 22  1  0  0  0  0
 28 27  1  0  0  0  0
M  END
>  <MODEL>
1

>  <REMARK>
 VINA RESULT:      -3.0      0.000      0.000
  Name = 
  2 active torsions:
  status: ('A' for Active; 'I' for Inactive)
    1  A    between atoms: N_5  and  C_24
    2  A    between atoms: O_17  and  C_25
                            x       y       z     vdW  Elec       q    Type
                         _______ _______ _______ _____ _____    ______ ____

>  <TORSDO>
F 2

$$$$
=
 OpenBabel11122414053D

 28 31  0  0  1  0  0  0  0  0999 V2000
  158.1980  212.0520  153.0150 C   0  0  0  0  0  0  0  0  0  0  0  0
  160.2510  209.2090  151.2920 O   0  0  0  0  0  0  0  0  0  0  0  0
  159.2910  214.2830  151.7140 C   0  0  0  0  0  3  0  0  0  0  0  0
  157.5760  210.8630  153.6780 C   0  0  0  0  0  2  0  0  0  0  0  0
  162.3730  210.2550  151.9670 O   0  0  0  0  0  0  0  0  0  0  0  0
  161.2400  209.3710  152.4110 S   0  0  0  0  0  0  0  0  0  0  0  0
  160.9540  207.2490  153.8980 C   0  0  1  0  0  3  0  0  0  0  0  0
  160.4370  210.0430  153.8420 C   0  0  1  0  0  3  0  0  0  0  0  0
  156.7450  213.4400  155.5170 C   0  0  0  0  0  1  0  0  0  0  0  0
  160.5380  211.7860  155.5260 C   0  0  2  0  0  3  0  0  0  0  0  0
  160.9680  208.0260  155.2360 C   0  0  0  0  0  2  0  0  0  0  0  0
  161.8610  207.8180  152.8940 N   0  0  0  0  0  2  0  0  0  0  0  0
  156.8300  212.0120  155.8120 N   0  0  0  0  0  0  0  0  0  0  0  0
  159.5730  212.3570  153.1690 C   0  0  0  0  0  0  0  0  0  0  0  0
  161.3100  205.8000  154.1470 C   0  0  0  0  0  1  0  0  0  0  0  0
  158.1190  211.5740  156.3800 C   0  0  0  0  0  2  0  0  0  0  0  0
  160.0990  213.4800  152.5210 C   0  0  0  0  0  3  0  0  0  0  0  0
  157.4000  212.8560  152.1900 C   0  0  0  0  0  3  0  0  0  0  0  0
  157.9430  213.9680  151.5450 C   0  0  0  0  0  3  0  0  0  0  0  0
  156.4310  211.2360  154.6300 C   0  0  0  0  0  2  0  0  0  0  0  0
  160.8010  210.4210  156.1830 C   0  0  1  0  0  3  0  0  0  0  0  0
  159.3050  212.5110  156.0920 C   0  0  1  0  0  3  0  0  0  0  0  0
  161.1940  209.5240  155.0300 C   0  0  2  0  0  3  0  0  0  0  0  0
  160.5320  211.5420  154.0050 C   0  0  2  0  0  3  0  0  0  0  0  0
  160.1230  214.4340  156.8290 C   0  0  0  0  0  1  0  0  0  0  0  0
  159.6540  213.1910  157.2610 O   0  0  0  0  0  0  0  0  0  0  0  0
  161.9020  210.5260  157.1240 N   0  0  0  0  0  2  0  0  0  0  0  0
  163.1110  210.7270  156.3450 C   0  0  0  0  0  1  0  0  0  0  0  0
  1 14  1  0  0  0  0
  1  4  1  0  0  0  0
  2  6  2  0  0  0  0
  3 17  1  0  0  0  0
  4 20  1  0  0  0  0
  5  6  2  0  0  0  0
  6 12  1  0  0  0  0
  7 15  1  1  0  0  0
  7 11  1  0  0  0  0
  8  6  1  6  0  0  0
  8 24  1  0  0  0  0
  8 23  1  0  0  0  0
  9 13  1  0  0  0  0
 10 22  1  0  0  0  0
 10 21  1  0  0  0  0
 12  7  1  0  0  0  0
 13 16  1  0  0  0  0
 14 24  1  0  0  0  0
 17 14  2  0  0  0  0
 18  1  2  0  0  0  0
 19  3  2  0  0  0  0
 19 18  1  0  0  0  0
 20 13  1  0  0  0  0
 21 27  1  0  0  0  0
 22 16  1  0  0  0  0
 22 26  1  0  0  0  0
 23 11  1  0  0  0  0
 23 21  1  0  0  0  0
 24 10  1  0  0  0  0
 25 26  1  0  0  0  0
 28 27  1  0  0  0  0
M  END
>  <MODEL>
2

>  <REMARK>
 VINA RESULT:      -2.7     12.499     15.163
  Name = 
  2 active torsions:
  status: ('A' for Active; 'I' for Inactive)
    1  A    between atoms: N_5  and  C_24
    2  A    between atoms: O_17  and  C_25
                            x       y       z     vdW  Elec       q    Type
                         _______ _______ _______ _____ _____    ______ ____

>  <TORSDO>
F 2

$$$$
=
 OpenBabel11122414053D

 28 31  0  0  1  0  0  0  0  0999 V2000
  162.4170  211.8780  140.2450 C   0  0  0  0  0  0  0  0  0  0  0  0
  163.4830  208.1590  140.7910 O   0  0  0  0  0  0  0  0  0  0  0  0
  161.2020  212.3920  142.7190 C   0  0  0  0  0  3  0  0  0  0  0  0
  163.1080  211.6260  138.9410 C   0  0  0  0  0  2  0  0  0  0  0  0
  161.1670  207.5130  141.3120 O   0  0  0  0  0  0  0  0  0  0  0  0
  162.1490  207.7880  140.2080 S   0  0  0  0  0  0  0  0  0  0  0  0
  162.6760  206.8170  137.8460 C   0  0  1  0  0  3  0  0  0  0  0  0
  161.5650  209.0850  139.1490 C   0  0  1  0  0  3  0  0  0  0  0  0
  161.3150  214.3270  138.4880 C   0  0  0  0  0  1  0  0  0  0  0  0
  159.6810  210.5290  138.6530 C   0  0  2  0  0  3  0  0  0  0  0  0
  161.5450  207.5930  137.1320 C   0  0  0  0  0  2  0  0  0  0  0  0
  162.3070  206.3780  139.1970 N   0  0  0  0  0  2  0  0  0  0  0  0
  161.8600  213.3440  137.5550 N   0  0  0  0  0  0  0  0  0  0  0  0
  161.2660  211.1500  140.6310 C   0  0  0  0  0  0  0  0  0  0  0  0
  163.0770  205.6200  137.0120 C   0  0  0  0  0  1  0  0  0  0  0  0
  160.9390  212.2460  137.2060 C   0  0  0  0  0  2  0  0  0  0  0  0
  160.6660  211.4270  141.8650 C   0  0  0  0  0  3  0  0  0  0  0  0
  162.9560  212.8330  141.1180 C   0  0  0  0  0  3  0  0  0  0  0  0
  162.3500  213.0920  142.3480 C   0  0  0  0  0  3  0  0  0  0  0  0
  163.1620  212.8670  138.0400 C   0  0  0  0  0  2  0  0  0  0  0  0
  159.8820  209.5340  137.4990 C   0  0  1  0  0  3  0  0  0  0  0  0
  159.8100  211.9990  138.2220 C   0  0  1  0  0  3  0  0  0  0  0  0
  160.7100  208.4220  138.1080 C   0  0  2  0  0  3  0  0  0  0  0  0
  160.6200  210.0770  139.7860 C   0  0  2  0  0  3  0  0  0  0  0  0
  157.8130  212.7680  138.7960 C   0  0  0  0  0  1  0  0  0  0  0  0
  158.5990  212.4440  137.6880 O   0  0  0  0  0  0  0  0  0  0  0  0
  158.5990  209.0100  137.0630 N   0  0  0  0  0  2  0  0  0  0  0  0
  157.6630  209.2130  138.1550 C   0  0  0  0  0  1  0  0  0  0  0  0
  1 14  2  0  0  0  0
  1 18  1  0  0  0  0
  4  1  1  0  0  0  0
  6  2  2  0  0  0  0
  6  5  2  0  0  0  0
  7 15  1  6  0  0  0
  7 12  1  0  0  0  0
  8 24  1  0  0  0  0
  8  6  1  1  0  0  0
 10 24  1  0  0  0  0
 11  7  1  0  0  0  0
 11 23  1  0  0  0  0
 12  6  1  0  0  0  0
 13 20  1  0  0  0  0
 13  9  1  0  0  0  0
 14 17  1  0  0  0  0
 16 13  1  0  0  0  0
 16 22  1  0  0  0  0
 17  3  2  0  0  0  0
 18 19  2  0  0  0  0
 19  3  1  0  0  0  0
 20  4  1  0  0  0  0
 21 23  1  0  0  0  0
 21 10  1  0  0  0  0
 22 10  1  0  0  0  0
 23  8  1  0  0  0  0
 24 14  1  0  0  0  0
 26 22  1  0  0  0  0
 26 25  1  0  0  0  0
 27 21  1  0  0  0  0
 27 28  1  0  0  0  0
M  END
>  <MODEL>
3

>  <REMARK>
 VINA RESULT:      -2.3      2.890      5.586
  Name = 
  2 active torsions:
  status: ('A' for Active; 'I' for Inactive)
    1  A    between atoms: N_5  and  C_24
    2  A    between atoms: O_17  and  C_25
                            x       y       z     vdW  Elec       q    Type
                         _______ _______ _______ _____ _____    ______ ____

>  <TORSDO>
F 2

$$$$
=
 OpenBabel11122414053D

 28 31  0  0  1  0  0  0  0  0999 V2000
  161.0580  209.3290  155.7710 C   0  0  0  0  0  0  0  0  0  0  0  0
  158.5850  212.0280  157.1390 O   0  0  0  0  0  0  0  0  0  0  0  0
  163.4550  210.2800  156.8730 C   0  0  0  0  0  3  0  0  0  0  0  0
  159.7750  208.7890  155.2210 C   0  0  0  0  0  2  0  0  0  0  0  0
  159.9080  213.8360  156.1240 O   0  0  0  0  0  0  0  0  0  0  0  0
  158.8600  212.7890  155.8730 S   0  0  0  0  0  0  0  0  0  0  0  0
  156.6810  212.5780  154.4560 C   0  0  1  0  0  3  0  0  0  0  0  0
  159.3720  211.6740  154.5920 C   0  0  1  0  0  3  0  0  0  0  0  0
  162.1580  207.3030  153.5390 C   0  0  0  0  0  1  0  0  0  0  0  0
  161.0670  211.2450  152.9120 C   0  0  2  0  0  3  0  0  0  0  0  0
  157.4170  212.2630  153.1330 C   0  0  0  0  0  2  0  0  0  0  0  0
  157.4000  213.5430  155.2970 N   0  0  0  0  0  2  0  0  0  0  0  0
  160.7500  207.5480  153.2370 N   0  0  0  0  0  0  0  0  0  0  0  0
  161.5530  210.6010  155.3940 C   0  0  0  0  0  0  0  0  0  0  0  0
  155.2920  213.0980  154.1540 C   0  0  0  0  0  1  0  0  0  0  0  0
  160.4870  208.7770  152.4660 C   0  0  0  0  0  2  0  0  0  0  0  0
  162.7560  211.0560  155.9450 C   0  0  0  0  0  3  0  0  0  0  0  0
  161.7590  208.5670  156.7150 C   0  0  0  0  0  3  0  0  0  0  0  0
  162.9540  209.0380  157.2610 C   0  0  0  0  0  3  0  0  0  0  0  0
  159.9540  207.4630  154.4690 C   0  0  0  0  0  2  0  0  0  0  0  0
  159.7390  211.5950  152.2230 C   0  0  1  0  0  3  0  0  0  0  0  0
  161.5920  209.8450  152.5540 C   0  0  1  0  0  3  0  0  0  0  0  0
  158.9370  212.2970  153.2970 C   0  0  2  0  0  3  0  0  0  0  0  0
  160.8640  211.5210  154.4130 C   0  0  2  0  0  3  0  0  0  0  0  0
  161.6290  208.9850  150.5120 C   0  0  0  0  0  1  0  0  0  0  0  0
  162.2860  209.8960  151.3430 O   0  0  0  0  0  0  0  0  0  0  0  0
  159.9770  212.5020  151.1130 N   0  0  0  0  0  2  0  0  0  0  0  0
  159.8180  213.8510  151.6250 C   0  0  0  0  0  1  0  0  0  0  0  0
  1 18  1  0  0  0  0
  3 19  1  0  0  0  0
  4  1  1  0  0  0  0
  6  5  2  0  0  0  0
  6  2  2  0  0  0  0
  7 15  1  6  0  0  0
  7 12  1  0  0  0  0
  8  6  1  1  0  0  0
 10 24  1  0  0  0  0
 11 23  1  0  0  0  0
 11  7  1  0  0  0  0
 12  6  1  0  0  0  0
 13  9  1  0  0  0  0
 13 20  1  0  0  0  0
 14  1  2  0  0  0  0
 14 17  1  0  0  0  0
 16 22  1  0  0  0  0
 16 13  1  0  0  0  0
 17  3  2  0  0  0  0
 18 19  2  0  0  0  0
 20  4  1  0  0  0  0
 21 10  1  0  0  0  0
 21 23  1  0  0  0  0
 22 10  1  0  0  0  0
 23  8  1  0  0  0  0
 24  8  1  0  0  0  0
 24 14  1  0  0  0  0
 25 26  1  0  0  0  0
 26 22  1  0  0  0  0
 27 28  1  0  0  0  0
 27 21  1  0  0  0  0
M  END
>  <MODEL>
4

>  <REMARK>
 VINA RESULT:      -2.2     11.720     14.799
  Name = 
  2 active torsions:
  status: ('A' for Active; 'I' for Inactive)
    1  A    between atoms: N_5  and  C_24
    2  A    between atoms: O_17  and  C_25
                            x       y       z     vdW  Elec       q    Type
                         _______ _______ _______ _____ _____    ______ ____

>  <TORSDO>
F 2

$$$$
=
 OpenBabel11122414053D

 28 31  0  0  1  0  0  0  0  0999 V2000
  161.5180  209.2350  155.1460 C   0  0  0  0  0  0  0  0  0  0  0  0
  162.8160  208.1510  151.6230 O   0  0  0  0  0  0  0  0  0  0  0  0
  160.0810  206.9330  155.8520 C   0  0  0  0  0  3  0  0  0  0  0  0
  162.3240  210.4470  154.7960 C   0  0  0  0  0  2  0  0  0  0  0  0
  160.5230  207.7070  150.8530 O   0  0  0  0  0  0  0  0  0  0  0  0
  161.5630  208.7690  151.0730 S   0  0  0  0  0  0  0  0  0  0  0  0
  162.3400  210.9480  149.8700 C   0  0  1  0  0  3  0  0  0  0  0  0
  160.9650  210.0210  152.1780 C   0  0  1  0  0  3  0  0  0  0  0  0
  160.3720  211.3590  157.2610 C   0  0  0  0  0  1  0  0  0  0  0  0
  159.0210  210.8210  153.3870 C   0  0  2  0  0  3  0  0  0  0  0  0
  161.2120  211.8290  150.4560 C   0  0  0  0  0  2  0  0  0  0  0  0
  161.9030  209.5790  149.5700 N   0  0  0  0  0  2  0  0  0  0  0  0
  161.0590  212.1200  156.2210 N   0  0  0  0  0  0  0  0  0  0  0  0
  160.3990  208.8370  154.3750 C   0  0  0  0  0  0  0  0  0  0  0  0
  162.8940  211.5940  148.6190 C   0  0  0  0  0  1  0  0  0  0  0  0
  160.2530  212.3880  155.0150 C   0  0  0  0  0  2  0  0  0  0  0  0
  159.6860  207.6910  154.7480 C   0  0  0  0  0  3  0  0  0  0  0  0
  161.9150  208.4570  156.2410 C   0  0  0  0  0  3  0  0  0  0  0  0
  161.1980  207.3130  156.5960 C   0  0  0  0  0  3  0  0  0  0  0  0
  162.3530  211.4940  155.9180 C   0  0  0  0  0  2  0  0  0  0  0  0
  159.3850  211.8220  152.2790 C   0  0  1  0  0  3  0  0  0  0  0  0
  159.0720  211.4260  154.8000 C   0  0  1  0  0  3  0  0  0  0  0  0
  160.2450  211.0240  151.3240 C   0  0  2  0  0  3  0  0  0  0  0  0
  159.9020  209.5790  153.1570 C   0  0  2  0  0  3  0  0  0  0  0  0
  156.9660  211.0830  155.3980 C   0  0  0  0  0  1  0  0  0  0  0  0
  157.8750  212.0920  155.0720 O   0  0  0  0  0  0  0  0  0  0  0  0
  158.1820  212.2730  151.6000 N   0  0  0  0  0  2  0  0  0  0  0  0
  158.0410  213.6910  151.8800 C   0  0  0  0  0  1  0  0  0  0  0  0
  1 18  1  0  0  0  0
  3 19  1  0  0  0  0
  4  1  1  0  0  0  0
  4 20  1  0  0  0  0
  5  6  2  0  0  0  0
  6  2  2  0  0  0  0
  7 15  1  6  0  0  0
  7 11  1  0  0  0  0
  8  6  1  6  0  0  0
  8 24  1  0  0  0  0
 10 22  1  0  0  0  0
 11 23  1  0  0  0  0
 12  7  1  0  0  0  0
 12  6  1  0  0  0  0
 13  9  1  0  0  0  0
 14 17  1  0  0  0  0
 14  1  2  0  0  0  0
 16 13  1  0  0  0  0
 17  3  2  0  0  0  0
 18 19  2  0  0  0  0
 20 13  1  0  0  0  0
 21 10  1  0  0  0  0
 22 16  1  0  0  0  0
 22 26  1  0  0  0  0
 23  8  1  0  0  0  0
 23 21  1  0  0  0  0
 24 10  1  0  0  0  0
 24 14  1  0  0  0  0
 26 25  1  0  0  0  0
 27 28  1  0  0  0  0
 27 21  1  0  0  0  0
M  END
>  <MODEL>
5

>  <REMARK>
 VINA RESULT:      -1.6     10.222     14.543
  Name = 
  2 active torsions:
  status: ('A' for Active; 'I' for Inactive)
    1  A    between atoms: N_5  and  C_24
    2  A    between atoms: O_17  and  C_25
                            x       y       z     vdW  Elec       q    Type
                         _______ _______ _______ _____ _____    ______ ____

>  <TORSDO>
F 2

$$$$
