=
 OpenBabel11122412513D

 32 37  0  0  1  0  0  0  0  0999 V2000
  161.4210  208.3360  154.0660 C   0  0  0  0  0  2  0  0  0  0  0  0
  160.5090  212.3110  150.7340 C   0  0  1  0  0  3  0  0  0  0  0  0
  163.5900  212.2550  146.8300 C   0  0  0  0  0  2  0  0  0  0  0  0
  162.5960  213.2350  146.3850 N   0  0  0  0  0  2  0  0  0  0  0  0
  159.1160  214.4520  151.1230 C   0  0  1  0  0  3  0  0  0  0  0  0
  157.9510  214.3940  150.1050 C   0  0  2  0  0  3  0  0  0  0  0  0
  160.1340  210.5160  152.0440 C   0  0  1  0  0  3  0  0  0  0  0  0
  161.7430  210.2340  150.1510 C   0  0  0  0  0  2  0  0  0  0  0  0
  157.2680  213.2800  148.1060 N   0  0  0  0  0  0  0  0  0  0  0  0
  161.1930  208.2210  151.5200 C   0  0  0  0  0  2  0  0  0  0  0  0
  163.3170  211.7740  148.2640 C   0  0  0  0  0  2  0  0  0  0  0  0
  161.8220  211.7670  150.1210 C   0  0  1  0  0  3  0  0  0  0  0  0
  162.0140  212.2500  148.7440 N   0  0  1  0  0  0  0  0  0  0  0  0
  160.7290  214.3150  149.2100 C   0  0  1  0  0  3  0  0  0  0  0  0
  156.2270  213.0050  149.0810 C   0  0  0  0  0  2  0  0  0  0  0  0
  160.7420  209.6790  154.3920 C   0  0  0  0  0  2  0  0  0  0  0  0
  161.3740  209.7410  151.5470 C   0  0  2  0  0  3  0  0  0  0  0  0
  156.7940  213.4520  150.4370 C   0  0  0  0  0  2  0  0  0  0  0  0
  159.6230  210.0740  153.4210 C   0  0  0  0  0  2  0  0  0  0  0  0
  160.8060  207.5990  152.8720 C   0  0  1  0  0  3  0  0  0  0  0  0
  162.4830  214.2970  147.3840 C   0  0  0  0  0  2  0  0  0  0  0  0
  162.0620  213.7250  148.7500 C   0  0  2  0  0  3  0  0  0  0  0  0
  159.6000  213.8890  148.3080 C   0  0  0  0  0  3  0  0  0  0  0  0
  160.4220  211.8910  152.0740 O   0  0  0  0  0  0  0  0  0  0  0  0
  158.7320  214.0330  152.4620 N   0  0  0  0  0  1  0  0  0  0  0  0
  157.3610  212.5740  146.8390 C   0  0  0  0  0  1  0  0  0  0  0  0
  160.4550  213.8470  150.6500 C   0  0  2  0  0  3  0  0  0  0  0  0
  158.3370  213.9590  148.7370 C   0  0  0  0  0  0  0  0  0  0  0  0
  161.2140  206.1360  152.9110 C   0  0  0  0  0  2  0  0  0  0  0  0
  161.9830  205.7680  151.6890 C   0  0  0  0  0  0  0  0  0  0  0  0
  163.1980  206.0790  151.5900 O   0  0  0  0  0  1  0  0  0  0  0  0
  161.3680  205.0500  150.6710 O   0  0  0  0  0  0  0  0  0  0  0  0
  1 16  1  0  0  0  0
  2 24  1  1  0  0  0
  3 11  1  0  0  0  0
  4  3  1  0  0  0  0
  4 21  1  0  0  0  0
  5 25  1  1  0  0  0
  6 18  1  1  0  0  0
  6  5  1  0  0  0  0
  7 24  1  0  0  0  0
  7 19  1  1  0  0  0
  9 28  1  0  0  0  0
  9 15  1  0  0  0  0
 10 17  1  0  0  0  0
 10 20  1  0  0  0  0
 12  8  1  6  0  0  0
 12  2  1  0  0  0  0
 13 11  1  1  0  0  0
 13 22  1  0  0  0  0
 13 12  1  0  0  0  0
 14 23  1  6  0  0  0
 14 27  1  0  0  0  0
 15 18  1  0  0  0  0
 17  8  1  6  0  0  0
 17  7  1  0  0  0  0
 19 16  1  0  0  0  0
 20 29  1  6  0  0  0
 20  1  1  0  0  0  0
 22 21  1  6  0  0  0
 22 14  1  0  0  0  0
 23 28  2  0  0  0  0
 26  9  1  0  0  0  0
 27  2  1  0  0  0  0
 27  5  1  0  0  0  0
 28  6  1  0  0  0  0
 30 29  1  0  0  0  0
 31 30  1  0  0  0  0
 32 30  2  0  0  0  0
M  END
>  <MODEL>
1

>  <REMARK>
 VINA RESULT:      -4.1      0.000      0.000
  Name = 
  2 active torsions:
  status: ('A' for Active; 'I' for Inactive)
    1  A    between atoms: C_20  and  C_29
    2  A    between atoms: C_29  and  C_30
                            x       y       z     vdW  Elec       q    Type
                         _______ _______ _______ _____ _____    ______ ____

>  <TORSDO>
F 2

$$$$
=
 OpenBabel11122412513D

 32 37  0  0  1  0  0  0  0  0999 V2000
  158.9710  213.8090  149.2700 C   0  0  0  0  0  2  0  0  0  0  0  0
  159.7940  210.7170  153.4540 C   0  0  1  0  0  3  0  0  0  0  0  0
  162.2470  206.5520  152.2800 C   0  0  0  0  0  2  0  0  0  0  0  0
  162.3310  206.5210  153.7420 N   0  0  0  0  0  2  0  0  0  0  0  0
  158.6820  210.8290  155.7840 C   0  0  1  0  0  3  0  0  0  0  0  0
  159.8230  211.1250  156.7880 C   0  0  2  0  0  3  0  0  0  0  0  0
  159.7720  212.5540  152.1480 C   0  0  1  0  0  3  0  0  0  0  0  0
  161.0680  210.5810  151.3250 C   0  0  0  0  0  2  0  0  0  0  0  0
  162.2040  211.0900  156.9770 N   0  0  0  0  0  0  0  0  0  0  0  0
  161.1570  212.6770  149.9730 C   0  0  0  0  0  2  0  0  0  0  0  0
  161.4030  207.7370  151.7800 C   0  0  0  0  0  2  0  0  0  0  0  0
  160.2610  209.7540  152.3360 C   0  0  1  0  0  3  0  0  0  0  0  0
  161.0770  208.6560  152.8780 N   0  0  1  0  0  0  0  0  0  0  0  0
  159.9170  208.7720  155.0630 C   0  0  1  0  0  3  0  0  0  0  0  0
  161.8100  212.4600  157.2550 C   0  0  0  0  0  2  0  0  0  0  0  0
  158.1590  213.7870  150.5790 C   0  0  0  0  0  2  0  0  0  0  0  0
  160.2850  211.8170  150.8920 C   0  0  2  0  0  3  0  0  0  0  0  0
  160.3330  212.5640  156.8430 C   0  0  0  0  0  2  0  0  0  0  0  0
  159.0120  213.8530  151.8520 C   0  0  0  0  0  2  0  0  0  0  0  0
  160.4820  213.9660  149.4740 C   0  0  1  0  0  3  0  0  0  0  0  0
  160.9830  206.6030  154.3050 C   0  0  0  0  0  2  0  0  0  0  0  0
  160.2790  207.8980  153.8610 C   0  0  2  0  0  3  0  0  0  0  0  0
  161.1500  209.2850  155.7590 C   0  0  0  0  0  3  0  0  0  0  0  0
  158.9490  211.6920  152.8940 O   0  0  0  0  0  0  0  0  0  0  0  0
  157.9090  212.0090  155.4260 N   0  0  0  0  0  1  0  0  0  0  0  0
  163.5850  210.7050  156.7370 C   0  0  0  0  0  1  0  0  0  0  0  0
  159.0620  209.9530  154.5720 C   0  0  2  0  0  3  0  0  0  0  0  0
  161.0710  210.3490  156.5610 C   0  0  0  0  0  0  0  0  0  0  0  0
  161.1250  214.4260  148.1780 C   0  0  0  0  0  2  0  0  0  0  0  0
  161.6680  213.2660  147.4150 C   0  0  0  0  0  0  0  0  0  0  0  0
  160.8930  212.5320  146.7490 O   0  0  0  0  0  0  0  0  0  0  0  0
  163.0330  213.0130  147.4120 O   0  0  0  0  0  1  0  0  0  0  0  0
  1 20  1  0  0  0  0
  1 16  1  0  0  0  0
  2 24  1  6  0  0  0
  2 27  1  0  0  0  0
  3  4  1  0  0  0  0
  4 21  1  0  0  0  0
  5 25  1  6  0  0  0
  5  6  1  0  0  0  0
  6 18  1  6  0  0  0
  7 19  1  6  0  0  0
  7 24  1  0  0  0  0
  9 15  1  0  0  0  0
 11  3  1  0  0  0  0
 12  8  1  6  0  0  0
 12 13  1  0  0  0  0
 12  2  1  0  0  0  0
 13 11  1  6  0  0  0
 13 22  1  0  0  0  0
 14 23  1  6  0  0  0
 16 19  1  0  0  0  0
 17 10  1  1  0  0  0
 17  8  1  0  0  0  0
 17  7  1  0  0  0  0
 18 15  1  0  0  0  0
 20 29  1  6  0  0  0
 20 10  1  0  0  0  0
 22 21  1  1  0  0  0
 22 14  1  0  0  0  0
 23 28  2  0  0  0  0
 26  9  1  0  0  0  0
 27 14  1  0  0  0  0
 27  5  1  0  0  0  0
 28  6  1  0  0  0  0
 28  9  1  0  0  0  0
 30 29  1  0  0  0  0
 31 30  2  0  0  0  0
 32 30  1  0  0  0  0
M  END
>  <MODEL>
2

>  <REMARK>
 VINA RESULT:      -4.0      3.191      7.299
  Name = 
  2 active torsions:
  status: ('A' for Active; 'I' for Inactive)
    1  A    between atoms: C_20  and  C_29
    2  A    between atoms: C_29  and  C_30
                            x       y       z     vdW  Elec       q    Type
                         _______ _______ _______ _____ _____    ______ ____

>  <TORSDO>
F 2

$$$$
=
 OpenBabel11122412513D

 32 37  0  0  1  0  0  0  0  0999 V2000
  162.2740  207.1060  152.2680 C   0  0  0  0  0  2  0  0  0  0  0  0
  161.1300  211.7740  150.1150 C   0  0  1  0  0  3  0  0  0  0  0  0
  163.6320  212.5780  145.8920 C   0  0  0  0  0  2  0  0  0  0  0  0
  162.6410  213.6550  145.8370 N   0  0  0  0  0  2  0  0  0  0  0  0
  159.9240  213.7920  151.1890 C   0  0  1  0  0  3  0  0  0  0  0  0
  158.6280  214.0000  150.3680 C   0  0  2  0  0  3  0  0  0  0  0  0
  160.8420  209.7290  151.0160 C   0  0  1  0  0  3  0  0  0  0  0  0
  162.1540  209.8680  148.8930 C   0  0  0  0  0  2  0  0  0  0  0  0
  157.6130  213.4050  148.2900 N   0  0  0  0  0  0  0  0  0  0  0  0
  161.6890  207.6010  149.8260 C   0  0  0  0  0  2  0  0  0  0  0  0
  163.5340  211.7760  147.2000 C   0  0  0  0  0  2  0  0  0  0  0  0
  162.3130  211.3630  149.2060 C   0  0  1  0  0  3  0  0  0  0  0  0
  162.3380  212.1530  147.9650 N   0  0  1  0  0  0  0  0  0  0  0  0
  161.2460  214.0770  149.0790 C   0  0  1  0  0  3  0  0  0  0  0  0
  156.7040  212.9290  149.3180 C   0  0  0  0  0  2  0  0  0  0  0  0
  161.7220  208.3490  152.9920 C   0  0  0  0  0  2  0  0  0  0  0  0
  161.9560  209.0670  150.1760 C   0  0  2  0  0  3  0  0  0  0  0  0
  157.4780  213.0310  150.6420 C   0  0  0  0  0  2  0  0  0  0  0  0
  160.5030  208.9840  152.3140 C   0  0  0  0  0  2  0  0  0  0  0  0
  161.4600  206.6850  151.0400 C   0  0  1  0  0  3  0  0  0  0  0  0
  162.7270  214.4530  147.0600 C   0  0  0  0  0  2  0  0  0  0  0  0
  162.4680  213.5840  148.3030 C   0  0  2  0  0  3  0  0  0  0  0  0
  159.9810  213.8990  148.2800 C   0  0  0  0  0  3  0  0  0  0  0  0
  161.2060  211.0520  151.3190 O   0  0  0  0  0  0  0  0  0  0  0  0
  159.7070  213.0760  152.4370 N   0  0  0  0  0  1  0  0  0  0  0  0
  157.4910  213.0160  146.8950 C   0  0  0  0  0  1  0  0  0  0  0  0
  161.1490  213.2880  150.3960 C   0  0  2  0  0  3  0  0  0  0  0  0
  158.7960  213.8930  148.8950 C   0  0  0  0  0  0  0  0  0  0  0  0
  161.7880  205.2460  150.6800 C   0  0  0  0  0  2  0  0  0  0  0  0
  160.9100  204.3000  151.4250 C   0  0  0  0  0  0  0  0  0  0  0  0
  160.1320  203.5360  150.7980 O   0  0  0  0  0  0  0  0  0  0  0  0
  160.9730  204.2380  152.8110 O   0  0  0  0  0  1  0  0  0  0  0  0
  1 16  1  0  0  0  0
  2 27  1  0  0  0  0
  2 24  1  1  0  0  0
  3 11  1  0  0  0  0
  4  3  1  0  0  0  0
  4 21  1  0  0  0  0
  5 25  1  1  0  0  0
  6 18  1  1  0  0  0
  6  5  1  0  0  0  0
  7 24  1  0  0  0  0
  7 19  1  1  0  0  0
  9 28  1  0  0  0  0
  9 15  1  0  0  0  0
 10 17  1  0  0  0  0
 10 20  1  0  0  0  0
 12  8  1  6  0  0  0
 12  2  1  0  0  0  0
 13 11  1  6  0  0  0
 13 22  1  0  0  0  0
 13 12  1  0  0  0  0
 14 23  1  6  0  0  0
 14 27  1  0  0  0  0
 15 18  1  0  0  0  0
 17  8  1  6  0  0  0
 17  7  1  0  0  0  0
 19 16  1  0  0  0  0
 20 29  1  6  0  0  0
 20  1  1  0  0  0  0
 22 21  1  6  0  0  0
 22 14  1  0  0  0  0
 23 28  2  0  0  0  0
 26  9  1  0  0  0  0
 27  5  1  0  0  0  0
 28  6  1  0  0  0  0
 29 30  1  0  0  0  0
 30 32  1  0  0  0  0
 31 30  2  0  0  0  0
M  END
>  <MODEL>
3

>  <REMARK>
 VINA RESULT:      -3.4      1.210      1.524
  Name = 
  2 active torsions:
  status: ('A' for Active; 'I' for Inactive)
    1  A    between atoms: C_20  and  C_29
    2  A    between atoms: C_29  and  C_30
                            x       y       z     vdW  Elec       q    Type
                         _______ _______ _______ _____ _____    ______ ____

>  <TORSDO>
F 2

$$$$
=
 OpenBabel11122412513D

 32 37  0  0  1  0  0  0  0  0999 V2000
  162.4220  205.8690  152.4830 C   0  0  0  0  0  2  0  0  0  0  0  0
  160.1430  210.4740  153.6380 C   0  0  1  0  0  3  0  0  0  0  0  0
  159.9020  213.5090  149.7040 C   0  0  0  0  0  2  0  0  0  0  0  0
  159.0090  214.1970  150.6400 N   0  0  0  0  0  2  0  0  0  0  0  0
  159.6590  211.4950  155.9620 C   0  0  1  0  0  3  0  0  0  0  0  0
  158.1200  211.6260  156.0580 C   0  0  2  0  0  3  0  0  0  0  0  0
  160.4580  208.2490  153.4700 C   0  0  1  0  0  3  0  0  0  0  0  0
  160.3900  209.5580  151.3410 C   0  0  0  0  0  2  0  0  0  0  0  0
  156.1530  211.6120  154.7040 N   0  0  0  0  0  0  0  0  0  0  0  0
  160.5820  207.0750  151.1750 C   0  0  0  0  0  2  0  0  0  0  0  0
  160.5600  212.2750  150.3420 C   0  0  0  0  0  2  0  0  0  0  0  0
  160.6490  210.7960  152.2110 C   0  0  1  0  0  3  0  0  0  0  0  0
  159.9670  211.9750  151.6510 N   0  0  1  0  0  0  0  0  0  0  0  0
  159.6030  212.9290  153.9080 C   0  0  1  0  0  3  0  0  0  0  0  0
  155.9690  210.5420  155.6690 C   0  0  0  0  0  2  0  0  0  0  0  0
  162.3180  206.5280  153.8710 C   0  0  0  0  0  2  0  0  0  0  0  0
  160.9510  208.3050  152.0070 C   0  0  2  0  0  3  0  0  0  0  0  0
  157.3380  210.3440  156.3400 C   0  0  0  0  0  2  0  0  0  0  0  0
  160.9070  207.0010  154.2410 C   0  0  0  0  0  2  0  0  0  0  0  0
  161.0820  205.7390  151.7500 C   0  0  1  0  0  3  0  0  0  0  0  0
  159.7250  214.4530  151.8890 C   0  0  0  0  0  2  0  0  0  0  0  0
  160.2160  213.1390  152.5230 C   0  0  2  0  0  3  0  0  0  0  0  0
  158.1130  212.7210  153.8210 C   0  0  0  0  0  3  0  0  0  0  0  0
  160.8880  209.3990  154.1540 O   0  0  0  0  0  0  0  0  0  0  0  0
  160.1830  210.3250  156.6520 N   0  0  0  0  0  1  0  0  0  0  0  0
  155.2990  211.7710  153.5370 C   0  0  0  0  0  1  0  0  0  0  0  0
  160.2660  211.7020  154.5580 C   0  0  2  0  0  3  0  0  0  0  0  0
  157.4580  212.1440  154.8320 C   0  0  0  0  0  0  0  0  0  0  0  0
  161.2050  204.7060  150.6440 C   0  0  0  0  0  2  0  0  0  0  0  0
  160.8660  203.3460  151.1500 C   0  0  0  0  0  0  0  0  0  0  0  0
  160.6110  203.1720  152.3700 O   0  0  0  0  0  1  0  0  0  0  0  0
  160.7980  202.2730  150.2700 O   0  0  0  0  0  0  0  0  0  0  0  0
  1 16  1  0  0  0  0
  2 24  1  1  0  0  0
  2 27  1  0  0  0  0
  3 11  1  0  0  0  0
  3  4  1  0  0  0  0
  4 21  1  0  0  0  0
  5  6  1  0  0  0  0
  5 25  1  6  0  0  0
  6 18  1  6  0  0  0
  7 24  1  0  0  0  0
  7 19  1  1  0  0  0
  8 17  1  0  0  0  0
  9 28  1  0  0  0  0
  9 15  1  0  0  0  0
 10 20  1  0  0  0  0
 12  8  1  6  0  0  0
 12  2  1  0  0  0  0
 13 11  1  6  0  0  0
 13 12  1  0  0  0  0
 13 22  1  0  0  0  0
 14 23  1  6  0  0  0
 14 27  1  0  0  0  0
 15 18  1  0  0  0  0
 16 19  1  0  0  0  0
 17 10  1  6  0  0  0
 17  7  1  0  0  0  0
 20 29  1  6  0  0  0
 20  1  1  0  0  0  0
 22 21  1  6  0  0  0
 22 14  1  0  0  0  0
 23 28  2  0  0  0  0
 26  9  1  0  0  0  0
 27  5  1  0  0  0  0
 28  6  1  0  0  0  0
 29 30  1  0  0  0  0
 30 31  1  0  0  0  0
 32 30  2  0  0  0  0
M  END
>  <MODEL>
4

>  <REMARK>
 VINA RESULT:      -2.4      2.581      4.573
  Name = 
  2 active torsions:
  status: ('A' for Active; 'I' for Inactive)
    1  A    between atoms: C_20  and  C_29
    2  A    between atoms: C_29  and  C_30
                            x       y       z     vdW  Elec       q    Type
                         _______ _______ _______ _____ _____    ______ ____

>  <TORSDO>
F 2

$$$$
=
 OpenBabel11122412513D

 32 37  0  0  1  0  0  0  0  0999 V2000
  161.8730  203.6560  151.1840 C   0  0  0  0  0  2  0  0  0  0  0  0
  161.5670  208.8730  151.8360 C   0  0  1  0  0  3  0  0  0  0  0  0
  161.6110  211.3290  147.5110 C   0  0  0  0  0  2  0  0  0  0  0  0
  161.2060  212.3950  148.4310 N   0  0  0  0  0  2  0  0  0  0  0  0
  161.9200  210.2510  153.9930 C   0  0  1  0  0  3  0  0  0  0  0  0
  160.5670  210.9450  154.2830 C   0  0  2  0  0  3  0  0  0  0  0  0
  161.0670  206.6830  152.0130 C   0  0  1  0  0  3  0  0  0  0  0  0
  161.0360  207.6800  149.7210 C   0  0  0  0  0  2  0  0  0  0  0  0
  158.4890  211.5000  153.2450 N   0  0  0  0  0  0  0  0  0  0  0  0
  160.3360  205.2970  149.9620 C   0  0  0  0  0  2  0  0  0  0  0  0
  161.9220  210.0190  148.2530 C   0  0  0  0  0  2  0  0  0  0  0  0
  161.8640  208.8280  150.3180 C   0  0  1  0  0  3  0  0  0  0  0  0
  161.5280  210.1040  149.6650 N   0  0  1  0  0  0  0  0  0  0  0  0
  161.9560  211.3690  151.7510 C   0  0  1  0  0  3  0  0  0  0  0  0
  158.1440  210.6850  154.3960 C   0  0  0  0  0  2  0  0  0  0  0  0
  162.2710  204.4570  152.4380 C   0  0  0  0  0  2  0  0  0  0  0  0
  161.2560  206.3920  150.5080 C   0  0  2  0  0  3  0  0  0  0  0  0
  159.4660  210.0760  154.8900 C   0  0  0  0  0  2  0  0  0  0  0  0
  161.2060  205.4510  152.9170 C   0  0  0  0  0  2  0  0  0  0  0  0
  160.4540  203.9440  150.6830 C   0  0  1  0  0  3  0  0  0  0  0  0
  162.1950  212.5090  149.5020 C   0  0  0  0  0  2  0  0  0  0  0  0
  162.3230  211.1860  150.2780 C   0  0  2  0  0  3  0  0  0  0  0  0
  160.4980  211.7120  151.9140 C   0  0  0  0  0  3  0  0  0  0  0  0
  161.9860  207.6650  152.4200 O   0  0  0  0  0  0  0  0  0  0  0  0
  162.1380  209.0560  154.7940 N   0  0  0  0  0  1  0  0  0  0  0  0
  157.5310  211.8280  152.2020 C   0  0  0  0  0  1  0  0  0  0  0  0
  162.2760  210.0660  152.5030 C   0  0  2  0  0  3  0  0  0  0  0  0
  159.8960  211.5290  153.0920 C   0  0  0  0  0  0  0  0  0  0  0  0
  160.0000  202.8210  149.7660 C   0  0  0  0  0  2  0  0  0  0  0  0
  161.0850  202.4400  148.8180 C   0  0  0  0  0  0  0  0  0  0  0  0
  161.5510  201.2720  148.8310 O   0  0  0  0  0  1  0  0  0  0  0  0
  161.5600  203.3650  147.8970 O   0  0  0  0  0  0  0  0  0  0  0  0
  1 16  1  0  0  0  0
  2 24  1  1  0  0  0
  2 27  1  0  0  0  0
  3 11  1  0  0  0  0
  3  4  1  0  0  0  0
  4 21  1  0  0  0  0
  5  6  1  0  0  0  0
  5 25  1  1  0  0  0
  6 18  1  6  0  0  0
  7 24  1  0  0  0  0
  7 19  1  1  0  0  0
  9 15  1  0  0  0  0
 10 17  1  0  0  0  0
 10 20  1  0  0  0  0
 12  8  1  6  0  0  0
 12  2  1  0  0  0  0
 13 11  1  6  0  0  0
 13 22  1  0  0  0  0
 13 12  1  0  0  0  0
 14 23  1  6  0  0  0
 14 27  1  0  0  0  0
 15 18  1  0  0  0  0
 16 19  1  0  0  0  0
 17  8  1  6  0  0  0
 17  7  1  0  0  0  0
 20 29  1  6  0  0  0
 20  1  1  0  0  0  0
 22 21  1  6  0  0  0
 22 14  1  0  0  0  0
 23 28  2  0  0  0  0
 26  9  1  0  0  0  0
 27  5  1  0  0  0  0
 28  9  1  0  0  0  0
 28  6  1  0  0  0  0
 30 31  1  0  0  0  0
 30 29  1  0  0  0  0
 32 30  2  0  0  0  0
M  END
>  <MODEL>
5

>  <REMARK>
 VINA RESULT:      -2.2      2.516      4.519
  Name = 
  2 active torsions:
  status: ('A' for Active; 'I' for Inactive)
    1  A    between atoms: C_20  and  C_29
    2  A    between atoms: C_29  and  C_30
                            x       y       z     vdW  Elec       q    Type
                         _______ _______ _______ _____ _____    ______ ____

>  <TORSDO>
F 2

$$$$
=
 OpenBabel11122412513D

 32 37  0  0  1  0  0  0  0  0999 V2000
  161.1120  212.8610  140.2830 C   0  0  0  0  0  2  0  0  0  0  0  0
  160.9290  213.4800  145.5100 C   0  0  1  0  0  3  0  0  0  0  0  0
  156.2790  213.3550  147.2720 C   0  0  0  0  0  2  0  0  0  0  0  0
  157.0490  213.2490  148.5140 N   0  0  0  0  0  2  0  0  0  0  0  0
  162.7830  214.3260  147.0980 C   0  0  1  0  0  3  0  0  0  0  0  0
  163.0940  213.1510  148.0560 C   0  0  2  0  0  3  0  0  0  0  0  0
  161.5130  212.6640  143.4920 C   0  0  1  0  0  3  0  0  0  0  0  0
  159.1040  212.4960  144.1400 C   0  0  0  0  0  2  0  0  0  0  0  0
  162.1990  211.0720  148.8180 N   0  0  0  0  0  0  0  0  0  0  0  0
  159.8030  211.4610  141.9790 C   0  0  0  0  0  2  0  0  0  0  0  0
  157.1900  213.5460  146.0480 C   0  0  0  0  0  2  0  0  0  0  0  0
  159.4160  213.5670  145.1950 C   0  0  1  0  0  3  0  0  0  0  0  0
  158.6020  213.3570  146.4030 N   0  0  1  0  0  0  0  0  0  0  0  0
  160.3970  214.2500  147.8580 C   0  0  1  0  0  3  0  0  0  0  0  0
  163.4980  210.7530  148.2510 C   0  0  0  0  0  2  0  0  0  0  0  0
  162.1700  213.5420  141.1720 C   0  0  0  0  0  2  0  0  0  0  0  0
  160.0640  212.6070  142.9590 C   0  0  2  0  0  3  0  0  0  0  0  0
  163.9460  212.0140  147.4940 C   0  0  0  0  0  2  0  0  0  0  0  0
  162.5870  212.7210  142.3980 C   0  0  0  0  0  2  0  0  0  0  0  0
  160.7190  211.4540  140.7440 C   0  0  1  0  0  3  0  0  0  0  0  0
  157.9800  214.3740  148.6030 C   0  0  0  0  0  2  0  0  0  0  0  0
  158.9440  214.3880  147.4030 C   0  0  2  0  0  3  0  0  0  0  0  0
  160.6520  212.8990  148.4750 C   0  0  0  0  0  3  0  0  0  0  0  0
  161.6560  213.7740  144.3430 O   0  0  0  0  0  0  0  0  0  0  0  0
  163.7420  214.4530  146.0110 N   0  0  0  0  0  1  0  0  0  0  0  0
  161.2210  210.0510  149.1580 C   0  0  0  0  0  1  0  0  0  0  0  0
  161.3150  214.4520  146.6400 C   0  0  2  0  0  3  0  0  0  0  0  0
  161.9000  212.4330  148.5740 C   0  0  0  0  0  0  0  0  0  0  0  0
  160.0510  210.7110  139.6000 C   0  0  0  0  0  2  0  0  0  0  0  0
  160.8470  209.5140  139.2090 C   0  0  0  0  0  0  0  0  0  0  0  0
  161.9470  209.2770  139.7710 O   0  0  0  0  0  1  0  0  0  0  0  0
  160.3600  208.6390  138.2460 O   0  0  0  0  0  0  0  0  0  0  0  0
  1 20  1  0  0  0  0
  1 16  1  0  0  0  0
  2 24  1  6  0  0  0
  2 27  1  0  0  0  0
  3  4  1  0  0  0  0
  4 21  1  0  0  0  0
  5 25  1  6  0  0  0
  5  6  1  0  0  0  0
  6 18  1  6  0  0  0
  6 28  1  0  0  0  0
  7 19  1  6  0  0  0
  7 24  1  0  0  0  0
  9 26  1  0  0  0  0
 11  3  1  0  0  0  0
 12  8  1  6  0  0  0
 12  2  1  0  0  0  0
 12 13  1  0  0  0  0
 13 11  1  6  0  0  0
 13 22  1  0  0  0  0
 14 23  1  6  0  0  0
 15  9  1  0  0  0  0
 16 19  1  0  0  0  0
 17 10  1  6  0  0  0
 17  7  1  0  0  0  0
 17  8  1  0  0  0  0
 18 15  1  0  0  0  0
 20 29  1  6  0  0  0
 20 10  1  0  0  0  0
 22 14  1  0  0  0  0
 22 21  1  1  0  0  0
 23 28  2  0  0  0  0
 27  5  1  0  0  0  0
 27 14  1  0  0  0  0
 28  9  1  0  0  0  0
 30 29  1  0  0  0  0
 30 31  1  0  0  0  0
 32 30  2  0  0  0  0
M  END
>  <MODEL>
6

>  <REMARK>
 VINA RESULT:      -1.3      4.932      8.594
  Name = 
  2 active torsions:
  status: ('A' for Active; 'I' for Inactive)
    1  A    between atoms: C_20  and  C_29
    2  A    between atoms: C_29  and  C_30
                            x       y       z     vdW  Elec       q    Type
                         _______ _______ _______ _____ _____    ______ ____

>  <TORSDO>
F 2

$$$$
=
 OpenBabel11122412513D

 32 37  0  0  1  0  0  0  0  0999 V2000
  162.2360  206.2100  151.1520 C   0  0  0  0  0  2  0  0  0  0  0  0
  161.1870  211.2760  150.1710 C   0  0  1  0  0  3  0  0  0  0  0  0
  163.1260  212.8120  145.8550 C   0  0  0  0  0  2  0  0  0  0  0  0
  162.2300  213.9270  146.1690 N   0  0  0  0  0  2  0  0  0  0  0  0
  160.3140  213.0860  151.7960 C   0  0  1  0  0  3  0  0  0  0  0  0
  158.9370  213.5270  151.2440 C   0  0  2  0  0  3  0  0  0  0  0  0
  160.8620  209.1060  150.6820 C   0  0  1  0  0  3  0  0  0  0  0  0
  161.8690  209.6170  148.4510 C   0  0  0  0  0  2  0  0  0  0  0  0
  157.5950  213.4310  149.2710 N   0  0  0  0  0  0  0  0  0  0  0  0
  161.3560  207.2320  148.9770 C   0  0  0  0  0  2  0  0  0  0  0  0
  163.1480  211.7620  146.9780 C   0  0  0  0  0  2  0  0  0  0  0  0
  162.1930  211.0030  149.0270 C   0  0  1  0  0  3  0  0  0  0  0  0
  162.1080  212.0320  147.9780 N   0  0  1  0  0  0  0  0  0  0  0  0
  161.3450  213.7350  149.6060 C   0  0  1  0  0  3  0  0  0  0  0  0
  156.8030  212.7990  150.3130 C   0  0  0  0  0  2  0  0  0  0  0  0
  161.8960  207.3010  152.1840 C   0  0  0  0  0  2  0  0  0  0  0  0
  161.7890  208.5770  149.5650 C   0  0  2  0  0  3  0  0  0  0  0  0
  157.7620  212.5830  151.4950 C   0  0  0  0  0  2  0  0  0  0  0  0
  160.6500  208.1260  151.8430 C   0  0  0  0  0  2  0  0  0  0  0  0
  161.2250  206.0960  150.0060 C   0  0  1  0  0  3  0  0  0  0  0  0
  162.5520  214.4470  147.4970 C   0  0  0  0  0  2  0  0  0  0  0  0
  162.4010  213.3520  148.5690 C   0  0  2  0  0  3  0  0  0  0  0  0
  159.9700  213.7940  148.9930 C   0  0  0  0  0  3  0  0  0  0  0  0
  161.3730  210.3160  151.1810 O   0  0  0  0  0  0  0  0  0  0  0  0
  160.2180  212.1380  152.8960 N   0  0  0  0  0  1  0  0  0  0  0  0
  157.2460  213.3470  147.8630 C   0  0  0  0  0  1  0  0  0  0  0  0
  161.3700  212.6950  150.7400 C   0  0  2  0  0  3  0  0  0  0  0  0
  158.8870  213.7200  149.7710 C   0  0  0  0  0  0  0  0  0  0  0  0
  161.3810  204.7490  149.3220 C   0  0  0  0  0  2  0  0  0  0  0  0
  161.5890  204.9200  147.8560 C   0  0  0  0  0  0  0  0  0  0  0  0
  162.5630  204.3630  147.2890 O   0  0  0  0  0  1  0  0  0  0  0  0
  160.6880  205.6680  147.1090 O   0  0  0  0  0  0  0  0  0  0  0  0
  1 16  1  0  0  0  0
  2 27  1  0  0  0  0
  2 24  1  1  0  0  0
  3  4  1  0  0  0  0
  3 11  1  0  0  0  0
  4 21  1  0  0  0  0
  5 25  1  1  0  0  0
  6 18  1  6  0  0  0
  6  5  1  0  0  0  0
  7 24  1  0  0  0  0
  7 19  1  1  0  0  0
  9 28  1  0  0  0  0
  9 15  1  0  0  0  0
 10 17  1  0  0  0  0
 10 20  1  0  0  0  0
 12  8  1  6  0  0  0
 12  2  1  0  0  0  0
 13 11  1  6  0  0  0
 13 22  1  0  0  0  0
 13 12  1  0  0  0  0
 14 23  1  6  0  0  0
 14 27  1  0  0  0  0
 15 18  1  0  0  0  0
 17  8  1  6  0  0  0
 17  7  1  0  0  0  0
 19 16  1  0  0  0  0
 20 29  1  6  0  0  0
 20  1  1  0  0  0  0
 22 21  1  6  0  0  0
 22 14  1  0  0  0  0
 23 28  2  0  0  0  0
 26  9  1  0  0  0  0
 27  5  1  0  0  0  0
 28  6  1  0  0  0  0
 30 29  1  0  0  0  0
 31 30  1  0  0  0  0
 32 30  2  0  0  0  0
M  END
>  <MODEL>
7

>  <REMARK>
 VINA RESULT:      -1.2      1.769      2.294
  Name = 
  2 active torsions:
  status: ('A' for Active; 'I' for Inactive)
    1  A    between atoms: C_20  and  C_29
    2  A    between atoms: C_29  and  C_30
                            x       y       z     vdW  Elec       q    Type
                         _______ _______ _______ _____ _____    ______ ____

>  <TORSDO>
F 2

$$$$
