=
 OpenBabel11122413023D

 32 37  0  0  1  0  0  0  0  0999 V2000
  158.9010  212.4450  151.9040 C   0  0  1  0  0  3  0  0  0  0  0  0
  155.3180  213.0070  154.2800 C   0  0  0  0  0  2  0  0  0  0  0  0
  156.1370  212.4620  155.4310 C   0  0  0  0  0  2  0  0  0  0  0  0
  159.9440  210.4690  153.2250 C   0  0  0  0  0  0  0  0  0  0  0  0
  160.3280  209.9400  154.5690 C   0  0  1  0  0  3  0  0  0  0  0  0
  160.0180  213.3640  150.0640 C   0  0  2  0  0  3  0  0  0  0  0  0
  157.8950  214.4530  150.9500 O   0  0  0  0  0  0  0  0  0  0  0  0
  161.2990  210.4020  156.6140 C   0  0  1  0  0  3  0  0  0  0  0  0
  156.2060  213.1010  153.0540 C   0  0  0  0  0  2  0  0  0  0  0  0
  158.4100  213.8850  152.1340 C   0  0  1  0  0  3  0  0  0  0  0  0
  157.4410  213.9820  153.3170 C   0  0  2  0  0  3  0  0  0  0  0  0
  159.2200  212.6040  154.4380 C   0  0  1  0  0  3  0  0  0  0  0  0
  161.9610  209.1770  155.9770 C   0  0  0  0  0  2  0  0  0  0  0  0
  158.6200  214.0200  149.7990 C   0  0  2  0  0  3  0  0  0  0  0  0
  161.4690  209.0460  154.5990 N   0  0  0  0  0  2  0  0  0  0  0  0
  157.2600  213.4430  155.7320 C   0  0  0  0  0  2  0  0  0  0  0  0
  158.1550  213.6340  154.5790 N   0  0  2  0  0  0  0  0  0  0  0  0
  159.5240  211.9000  155.6980 N   0  0  0  0  0  2  0  0  0  0  0  0
  160.1120  212.4870  151.1860 O   0  0  0  0  0  0  0  0  0  0  0  0
  160.2330  209.8710  152.1990 O   0  0  0  0  0  0  0  0  0  0  0  0
  162.3500  211.2800  157.2610 C   0  0  0  0  0  1  0  0  0  0  0  0
  158.9970  211.6540  153.2240 C   0  0  1  0  0  3  0  0  0  0  0  0
  160.7090  211.0990  155.4260 C   0  0  2  0  0  3  0  0  0  0  0  0
  156.3820  213.7010  148.7670 C   0  0  0  0  0  2  0  0  0  0  0  0
  157.7550  213.0920  148.9620 C   0  0  1  0  0  3  0  0  0  0  0  0
  157.4070  213.7770  147.6560 C   0  0  1  0  0  3  0  0  0  0  0  0
  157.1030  212.7200  146.6120 C   0  0  0  0  0  2  0  0  0  0  0  0
  158.0930  212.8050  145.5030 C   0  0  0  0  0  0  0  0  0  0  0  0
  159.2380  212.0200  145.5320 O   0  0  0  0  0  1  0  0  0  0  0  0
  157.9080  213.6110  144.5550 O   0  0  0  0  0  0  0  0  0  0  0  0
  161.8830  214.4310  149.0200 O   0  0  0  0  0  1  0  0  0  0  0  0
  161.0920  214.4340  150.1700 C   0  0  0  0  0  2  0  0  0  0  0  0
  1 19  1  1  0  0  0
  1 10  1  0  0  0  0
  1 22  1  0  0  0  0
  2  3  1  0  0  0  0
  3 16  1  0  0  0  0
  5  4  1  6  0  0  0
  5 15  1  0  0  0  0
  5 23  1  0  0  0  0
  6 32  1  1  0  0  0
  6 19  1  0  0  0  0
  8 21  1  6  0  0  0
  9  2  1  0  0  0  0
 10  7  1  6  0  0  0
 10 11  1  0  0  0  0
 11  9  1  6  0  0  0
 11 17  1  0  0  0  0
 12 17  1  0  0  0  0
 12 18  1  1  0  0  0
 13  8  1  0  0  0  0
 14  6  1  0  0  0  0
 14  7  1  1  0  0  0
 15 13  1  0  0  0  0
 17 16  1  1  0  0  0
 20  4  2  0  0  0  0
 22  4  1  6  0  0  0
 22 12  1  0  0  0  0
 23 18  1  1  0  0  0
 23  8  1  0  0  0  0
 25 24  1  1  0  0  0
 25 14  1  0  0  0  0
 26 27  1  6  0  0  0
 26 24  1  0  0  0  0
 26 25  1  0  0  0  0
 28 29  1  0  0  0  0
 28 27  1  0  0  0  0
 30 28  2  0  0  0  0
 31 32  1  0  0  0  0
M  END
>  <MODEL>
1

>  <REMARK>
 VINA RESULT:      -4.5      0.000      0.000
  Name = 
  4 active torsions:
  status: ('A' for Active; 'I' for Inactive)
    1  A    between atoms: C_7  and  C_19
    2  A    between atoms: C_10  and  C_17
    3  A    between atoms: C_20  and  C_29
    4  A    between atoms: C_29  and  C_30
                            x       y       z     vdW  Elec       q    Type
                         _______ _______ _______ _____ _____    ______ ____

>  <TORSDO>
F 4

$$$$
=
 OpenBabel11122413023D

 32 37  0  0  1  0  0  0  0  0999 V2000
  161.1030  209.7850  152.8600 C   0  0  1  0  0  3  0  0  0  0  0  0
  160.4400  206.2200  150.4850 C   0  0  0  0  0  2  0  0  0  0  0  0
  160.8250  207.0790  149.2990 C   0  0  0  0  0  2  0  0  0  0  0  0
  160.5410  211.5680  151.0590 C   0  0  0  0  0  0  0  0  0  0  0  0
  160.7740  212.0330  149.6580 C   0  0  1  0  0  3  0  0  0  0  0  0
  161.8030  210.4350  154.9970 C   0  0  2  0  0  3  0  0  0  0  0  0
  161.8300  207.9790  154.3310 O   0  0  0  0  0  0  0  0  0  0  0  0
  162.3230  212.4000  147.9840 C   0  0  1  0  0  3  0  0  0  0  0  0
  160.5760  207.0460  151.7490 C   0  0  0  0  0  2  0  0  0  0  0  0
  162.0480  208.5910  153.0780 C   0  0  1  0  0  3  0  0  0  0  0  0
  162.0040  207.6000  151.9100 C   0  0  2  0  0  3  0  0  0  0  0  0
  162.2320  209.7110  150.5660 C   0  0  1  0  0  3  0  0  0  0  0  0
  161.5010  213.6690  148.2350 C   0  0  0  0  0  2  0  0  0  0  0  0
  161.4930  208.9370  155.3340 C   0  0  2  0  0  3  0  0  0  0  0  0
  160.6850  213.4630  149.4380 N   0  0  0  0  0  2  0  0  0  0  0  0
  162.2840  207.4820  149.4480 C   0  0  0  0  0  2  0  0  0  0  0  0
  162.5240  208.2570  150.6770 N   0  0  2  0  0  0  0  0  0  0  0  0
  162.2580  210.2090  149.1770 N   0  0  0  0  0  2  0  0  0  0  0  0
  161.5370  210.8600  153.6610 O   0  0  0  0  0  0  0  0  0  0  0  0
  159.8860  212.2320  151.8490 O   0  0  0  0  0  0  0  0  0  0  0  0
  163.7780  212.7610  147.7670 C   0  0  0  0  0  1  0  0  0  0  0  0
  160.9700  210.1470  151.3670 C   0  0  1  0  0  3  0  0  0  0  0  0
  162.1650  211.6590  149.2750 C   0  0  2  0  0  3  0  0  0  0  0  0
  159.8820  208.9710  157.2250 C   0  0  0  0  0  2  0  0  0  0  0  0
  160.0340  208.7800  155.7290 C   0  0  1  0  0  3  0  0  0  0  0  0
  159.5220  210.0960  156.2790 C   0  0  1  0  0  3  0  0  0  0  0  0
  158.0170  210.1500  156.1030 C   0  0  0  0  0  2  0  0  0  0  0  0
  157.6540  211.2700  155.1920 C   0  0  0  0  0  0  0  0  0  0  0  0
  156.3840  211.3290  154.6340 O   0  0  0  0  0  0  0  0  0  0  0  0
  158.5080  212.1470  154.9010 O   0  0  0  0  0  1  0  0  0  0  0  0
  163.4070  210.7490  156.7390 O   0  0  0  0  0  1  0  0  0  0  0  0
  163.2420  210.7700  155.3530 C   0  0  0  0  0  2  0  0  0  0  0  0
  1 10  1  0  0  0  0
  1 19  1  1  0  0  0
  2  9  1  0  0  0  0
  3 16  1  0  0  0  0
  3  2  1  0  0  0  0
  4 20  2  0  0  0  0
  5 15  1  1  0  0  0
  5  4  1  0  0  0  0
  6 14  1  0  0  0  0
  6 32  1  6  0  0  0
  8 21  1  1  0  0  0
  8 13  1  0  0  0  0
  8 23  1  0  0  0  0
 10  7  1  1  0  0  0
 11  9  1  6  0  0  0
 11 10  1  0  0  0  0
 12 18  1  6  0  0  0
 12 17  1  0  0  0  0
 12 22  1  0  0  0  0
 13 15  1  0  0  0  0
 14  7  1  6  0  0  0
 14 25  1  0  0  0  0
 17 16  1  6  0  0  0
 17 11  1  0  0  0  0
 19  6  1  0  0  0  0
 22  4  1  1  0  0  0
 22  1  1  0  0  0  0
 23 18  1  6  0  0  0
 23  5  1  0  0  0  0
 25 26  1  0  0  0  0
 25 24  1  1  0  0  0
 26 27  1  6  0  0  0
 26 24  1  0  0  0  0
 28 27  1  0  0  0  0
 29 28  2  0  0  0  0
 30 28  1  0  0  0  0
 32 31  1  0  0  0  0
M  END
>  <MODEL>
2

>  <REMARK>
 VINA RESULT:      -3.4      3.592      7.817
  Name = 
  4 active torsions:
  status: ('A' for Active; 'I' for Inactive)
    1  A    between atoms: C_7  and  C_19
    2  A    between atoms: C_10  and  C_17
    3  A    between atoms: C_20  and  C_29
    4  A    between atoms: C_29  and  C_30
                            x       y       z     vdW  Elec       q    Type
                         _______ _______ _______ _____ _____    ______ ____

>  <TORSDO>
F 4

$$$$
=
 OpenBabel11122413023D

 32 37  0  0  1  0  0  0  0  0999 V2000
  160.4520  212.0140  150.0100 C   0  0  1  0  0  3  0  0  0  0  0  0
  156.8040  213.9670  151.3030 C   0  0  0  0  0  2  0  0  0  0  0  0
  157.1750  213.4840  152.6900 C   0  0  0  0  0  2  0  0  0  0  0  0
  160.5700  210.1600  151.8230 C   0  0  0  0  0  0  0  0  0  0  0  0
  160.5030  209.8450  153.2820 C   0  0  1  0  0  3  0  0  0  0  0  0
  162.1360  212.2060  148.3960 C   0  0  2  0  0  3  0  0  0  0  0  0
  160.3050  213.9660  148.5530 O   0  0  0  0  0  0  0  0  0  0  0  0
  161.1400  210.4610  155.4160 C   0  0  1  0  0  3  0  0  0  0  0  0
  157.9050  213.5680  150.3400 C   0  0  0  0  0  2  0  0  0  0  0  0
  160.3790  213.5470  149.8980 C   0  0  1  0  0  3  0  0  0  0  0  0
  159.2680  214.1370  150.7730 C   0  0  2  0  0  3  0  0  0  0  0  0
  160.2930  212.6150  152.4920 C   0  0  1  0  0  3  0  0  0  0  0  0
  161.5180  209.0000  155.1500 C   0  0  0  0  0  2  0  0  0  0  0  0
  161.0810  213.1290  147.6960 C   0  0  2  0  0  3  0  0  0  0  0  0
  161.2940  208.7140  153.7270 N   0  0  0  0  0  2  0  0  0  0  0  0
  158.4570  214.1830  153.1180 C   0  0  0  0  0  2  0  0  0  0  0  0
  159.5790  213.8900  152.2100 N   0  0  2  0  0  0  0  0  0  0  0  0
  160.1150  212.1380  153.8760 N   0  0  0  0  0  2  0  0  0  0  0  0
  161.7380  211.5900  149.6210 O   0  0  0  0  0  0  0  0  0  0  0  0
  160.8650  209.3050  151.0000 O   0  0  0  0  0  0  0  0  0  0  0  0
  162.2540  211.1540  156.1710 C   0  0  0  0  0  1  0  0  0  0  0  0
  160.0420  211.5200  151.4120 C   0  0  1  0  0  3  0  0  0  0  0  0
  161.0340  211.0190  154.0300 C   0  0  2  0  0  3  0  0  0  0  0  0
  158.9000  213.0790  146.5060 C   0  0  0  0  0  2  0  0  0  0  0  0
  160.1630  212.2990  146.8130 C   0  0  1  0  0  3  0  0  0  0  0  0
  160.0030  212.9890  145.4730 C   0  0  1  0  0  3  0  0  0  0  0  0
  159.6370  211.9530  144.4280 C   0  0  0  0  0  2  0  0  0  0  0  0
  160.5480  212.0730  143.2560 C   0  0  0  0  0  0  0  0  0  0  0  0
  160.1330  211.6360  142.0060 O   0  0  0  0  0  0  0  0  0  0  0  0
  161.7070  212.5410  143.4050 O   0  0  0  0  0  1  0  0  0  0  0  0
  163.3910  214.1890  147.9530 O   0  0  0  0  0  1  0  0  0  0  0  0
  163.4380  212.9600  148.6120 C   0  0  0  0  0  2  0  0  0  0  0  0
  1 19  1  1  0  0  0
  1 22  1  0  0  0  0
  2  3  1  0  0  0  0
  3 16  1  0  0  0  0
  5  4  1  6  0  0  0
  5 15  1  0  0  0  0
  5 23  1  0  0  0  0
  6 32  1  1  0  0  0
  6 19  1  0  0  0  0
  8 21  1  1  0  0  0
  9  2  1  0  0  0  0
 10  7  1  6  0  0  0
 10  1  1  0  0  0  0
 10 11  1  0  0  0  0
 11  9  1  6  0  0  0
 11 17  1  0  0  0  0
 12 18  1  1  0  0  0
 13  8  1  0  0  0  0
 14  6  1  0  0  0  0
 14  7  1  1  0  0  0
 15 13  1  0  0  0  0
 17 12  1  0  0  0  0
 17 16  1  1  0  0  0
 20  4  2  0  0  0  0
 22  4  1  1  0  0  0
 22 12  1  0  0  0  0
 23 18  1  1  0  0  0
 23  8  1  0  0  0  0
 25 24  1  1  0  0  0
 25 14  1  0  0  0  0
 26 27  1  6  0  0  0
 26 24  1  0  0  0  0
 26 25  1  0  0  0  0
 28 30  1  0  0  0  0
 28 27  1  0  0  0  0
 29 28  2  0  0  0  0
 31 32  1  0  0  0  0
M  END
>  <MODEL>
3

>  <REMARK>
 VINA RESULT:      -3.0      1.987      2.735
  Name = 
  4 active torsions:
  status: ('A' for Active; 'I' for Inactive)
    1  A    between atoms: C_7  and  C_19
    2  A    between atoms: C_10  and  C_17
    3  A    between atoms: C_20  and  C_29
    4  A    between atoms: C_29  and  C_30
                            x       y       z     vdW  Elec       q    Type
                         _______ _______ _______ _____ _____    ______ ____

>  <TORSDO>
F 4

$$$$
=
 OpenBabel11122413023D

 32 37  0  0  1  0  0  0  0  0999 V2000
  159.2830  210.4560  153.3160 C   0  0  1  0  0  3  0  0  0  0  0  0
  158.5660  213.1140  149.9680 C   0  0  0  0  0  2  0  0  0  0  0  0
  157.6080  213.8340  150.8940 C   0  0  0  0  0  2  0  0  0  0  0  0
  156.9800  210.6740  154.4930 C   0  0  0  0  0  0  0  0  0  0  0  0
  155.9310  211.6070  155.0050 C   0  0  1  0  0  3  0  0  0  0  0  0
  160.9730  209.1320  154.2500 C   0  0  2  0  0  3  0  0  0  0  0  0
  161.4550  210.5770  152.2110 O   0  0  0  0  0  0  0  0  0  0  0  0
  155.4890  213.5590  156.1600 C   0  0  1  0  0  3  0  0  0  0  0  0
  159.2340  211.9900  150.7370 C   0  0  0  0  0  2  0  0  0  0  0  0
  160.4480  211.3410  152.8390 C   0  0  1  0  0  3  0  0  0  0  0  0
  159.9660  212.5170  151.9840 C   0  0  2  0  0  3  0  0  0  0  0  0
  158.3230  212.7620  153.8700 C   0  0  1  0  0  3  0  0  0  0  0  0
  154.7040  212.3930  156.7690 C   0  0  0  0  0  2  0  0  0  0  0  0
  161.6110  209.3000  152.8290 C   0  0  2  0  0  3  0  0  0  0  0  0
  155.1720  211.1450  156.1510 N   0  0  0  0  0  2  0  0  0  0  0  0
  158.4080  214.4470  152.0340 C   0  0  0  0  0  2  0  0  0  0  0  0
  159.1320  213.4310  152.8160 N   0  0  2  0  0  0  0  0  0  0  0  0
  157.1500  213.5490  154.2960 N   0  0  0  0  0  2  0  0  0  0  0  0
  159.6960  209.7360  154.4550 O   0  0  0  0  0  0  0  0  0  0  0  0
  156.9110  209.4690  154.6890 O   0  0  0  0  0  0  0  0  0  0  0  0
  156.0410  214.4410  157.2600 C   0  0  0  0  0  1  0  0  0  0  0  0
  157.9960  211.2750  153.5420 C   0  0  1  0  0  3  0  0  0  0  0  0
  156.6090  212.8560  155.4560 C   0  0  2  0  0  3  0  0  0  0  0  0
  161.9550  208.1710  150.6420 C   0  0  0  0  0  2  0  0  0  0  0  0
  161.1070  208.2100  151.8970 C   0  0  1  0  0  3  0  0  0  0  0  0
  162.1800  207.1520  151.7390 C   0  0  1  0  0  3  0  0  0  0  0  0
  161.5250  205.8400  151.3550 C   0  0  0  0  0  2  0  0  0  0  0  0
  161.2740  205.0250  152.5750 C   0  0  0  0  0  0  0  0  0  0  0  0
  161.3330  205.6150  153.8300 O   0  0  0  0  0  1  0  0  0  0  0  0
  161.0390  203.7930  152.4720 O   0  0  0  0  0  0  0  0  0  0  0  0
  161.2700  210.4540  156.2170 O   0  0  0  0  0  1  0  0  0  0  0  0
  161.9360  209.6150  155.3220 C   0  0  0  0  0  2  0  0  0  0  0  0
  1 22  1  0  0  0  0
  1 19  1  1  0  0  0
  2  9  1  0  0  0  0
  2  3  1  0  0  0  0
  3 16  1  0  0  0  0
  4 20  2  0  0  0  0
  5  4  1  1  0  0  0
  5 23  1  0  0  0  0
  5 15  1  0  0  0  0
  6 19  1  0  0  0  0
  6 32  1  1  0  0  0
  8 13  1  0  0  0  0
  8 21  1  1  0  0  0
 10  7  1  6  0  0  0
 10  1  1  0  0  0  0
 11  9  1  6  0  0  0
 11 17  1  0  0  0  0
 11 10  1  0  0  0  0
 12 18  1  6  0  0  0
 14  7  1  6  0  0  0
 14  6  1  0  0  0  0
 15 13  1  0  0  0  0
 17 16  1  6  0  0  0
 17 12  1  0  0  0  0
 22 12  1  0  0  0  0
 22  4  1  1  0  0  0
 23 18  1  6  0  0  0
 23  8  1  0  0  0  0
 24 26  1  0  0  0  0
 25 24  1  6  0  0  0
 25 14  1  0  0  0  0
 26 27  1  6  0  0  0
 26 25  1  0  0  0  0
 27 28  1  0  0  0  0
 28 29  1  0  0  0  0
 30 28  2  0  0  0  0
 32 31  1  0  0  0  0
M  END
>  <MODEL>
4

>  <REMARK>
 VINA RESULT:      -2.5      3.188      6.452
  Name = 
  4 active torsions:
  status: ('A' for Active; 'I' for Inactive)
    1  A    between atoms: C_7  and  C_19
    2  A    between atoms: C_10  and  C_17
    3  A    between atoms: C_20  and  C_29
    4  A    between atoms: C_29  and  C_30
                            x       y       z     vdW  Elec       q    Type
                         _______ _______ _______ _____ _____    ______ ____

>  <TORSDO>
F 4

$$$$
=
 OpenBabel11122413023D

 32 37  0  0  1  0  0  0  0  0999 V2000
  159.3110  210.6330  153.7160 C   0  0  1  0  0  3  0  0  0  0  0  0
  158.5310  213.0380  150.1960 C   0  0  0  0  0  2  0  0  0  0  0  0
  157.4540  213.7010  151.0290 C   0  0  0  0  0  2  0  0  0  0  0  0
  156.9330  210.6710  154.7550 C   0  0  0  0  0  0  0  0  0  0  0  0
  155.7690  211.5160  155.1590 C   0  0  1  0  0  3  0  0  0  0  0  0
  161.0670  209.5350  154.8090 C   0  0  2  0  0  3  0  0  0  0  0  0
  161.5220  210.9210  152.7230 O   0  0  0  0  0  0  0  0  0  0  0  0
  155.0690  213.4660  156.1810 C   0  0  1  0  0  3  0  0  0  0  0  0
  159.2610  212.0270  151.0580 C   0  0  0  0  0  2  0  0  0  0  0  0
  160.4090  211.6070  153.2540 C   0  0  1  0  0  3  0  0  0  0  0  0
  159.8630  212.6860  152.3130 C   0  0  2  0  0  3  0  0  0  0  0  0
  158.0960  212.8530  154.0930 C   0  0  1  0  0  3  0  0  0  0  0  0
  154.3690  212.2570  156.8100 C   0  0  0  0  0  2  0  0  0  0  0  0
  161.7660  209.6980  153.4160 C   0  0  2  0  0  3  0  0  0  0  0  0
  154.9930  211.0350  156.2860 N   0  0  0  0  0  2  0  0  0  0  0  0
  158.1220  214.4470  152.1750 C   0  0  0  0  0  2  0  0  0  0  0  0
  158.8950  213.5490  153.0480 N   0  0  2  0  0  0  0  0  0  0  0  0
  156.8290  213.5360  154.4120 N   0  0  0  0  0  2  0  0  0  0  0  0
  159.7260  210.0150  154.9130 O   0  0  0  0  0  0  0  0  0  0  0  0
  156.9720  209.4770  155.0120 O   0  0  0  0  0  0  0  0  0  0  0  0
  155.4650  214.4530  157.2600 C   0  0  0  0  0  1  0  0  0  0  0  0
  157.9380  211.3260  153.8280 C   0  0  1  0  0  3  0  0  0  0  0  0
  156.2920  212.8480  155.5780 C   0  0  2  0  0  3  0  0  0  0  0  0
  160.9450  209.0170  151.1720 C   0  0  0  0  0  2  0  0  0  0  0  0
  161.4280  208.5180  152.5190 C   0  0  1  0  0  3  0  0  0  0  0  0
  162.3640  208.5130  151.3270 C   0  0  1  0  0  3  0  0  0  0  0  0
  162.4640  207.1010  150.7860 C   0  0  0  0  0  2  0  0  0  0  0  0
  161.9930  207.0660  149.3740 C   0  0  0  0  0  0  0  0  0  0  0  0
  162.6880  207.7610  148.3930 O   0  0  0  0  0  0  0  0  0  0  0  0
  160.9480  206.4330  149.0740 O   0  0  0  0  0  1  0  0  0  0  0  0
  161.2930  211.3220  156.3770 O   0  0  0  0  0  1  0  0  0  0  0  0
  161.9130  210.1650  155.9020 C   0  0  0  0  0  2  0  0  0  0  0  0
  1 22  1  0  0  0  0
  1 19  1  1  0  0  0
  2  3  1  0  0  0  0
  2  9  1  0  0  0  0
  3 16  1  0  0  0  0
  4 20  2  0  0  0  0
  5  4  1  1  0  0  0
  5 23  1  0  0  0  0
  5 15  1  0  0  0  0
  6 19  1  0  0  0  0
  6 32  1  1  0  0  0
  8 13  1  0  0  0  0
  8 21  1  1  0  0  0
 10  7  1  6  0  0  0
 10  1  1  0  0  0  0
 11  9  1  6  0  0  0
 11 17  1  0  0  0  0
 11 10  1  0  0  0  0
 12 18  1  6  0  0  0
 14  7  1  6  0  0  0
 14  6  1  0  0  0  0
 15 13  1  0  0  0  0
 17 16  1  6  0  0  0
 17 12  1  0  0  0  0
 22 12  1  0  0  0  0
 22  4  1  1  0  0  0
 23 18  1  6  0  0  0
 23  8  1  0  0  0  0
 24 26  1  0  0  0  0
 25 24  1  6  0  0  0
 25 14  1  0  0  0  0
 26 27  1  6  0  0  0
 26 25  1  0  0  0  0
 28 27  1  0  0  0  0
 29 28  2  0  0  0  0
 30 28  1  0  0  0  0
 32 31  1  0  0  0  0
M  END
>  <MODEL>
5

>  <REMARK>
 VINA RESULT:      -2.1      3.093      5.828
  Name = 
  4 active torsions:
  status: ('A' for Active; 'I' for Inactive)
    1  A    between atoms: C_7  and  C_19
    2  A    between atoms: C_10  and  C_17
    3  A    between atoms: C_20  and  C_29
    4  A    between atoms: C_29  and  C_30
                            x       y       z     vdW  Elec       q    Type
                         _______ _______ _______ _____ _____    ______ ____

>  <TORSDO>
F 4

$$$$
