=
 OpenBabel11122412543D

 32 37  0  0  1  0  0  0  0  0999 V2000
  161.5240  202.2690  147.0580 C   0  0  0  0  0  2  0  0  0  0  0  0
  161.1880  205.9920  150.7330 C   0  0  0  0  0  0  0  0  0  0  0  0
  162.2370  210.0600  148.3250 C   0  0  0  0  0  3  0  0  0  0  0  0
  162.2440  210.7780  149.5170 C   0  0  0  0  0  3  0  0  0  0  0  0
  160.7870  206.0950  153.2330 C   0  0  0  0  0  0  0  0  0  0  0  0
  160.8320  206.9050  154.3630 C   0  0  0  0  0  0  0  0  0  0  0  0
  160.8140  203.8590  149.4130 C   0  0  1  0  0  3  0  0  0  0  0  0
  161.3300  205.9820  148.2510 C   0  0  0  0  0  2  0  0  0  0  0  0
  161.0700  208.7030  155.5580 C   0  0  0  0  0  0  0  0  0  0  0  0
  161.4770  203.8040  146.9620 C   0  0  2  0  0  3  0  0  0  0  0  0
  161.9660  208.6910  148.3380 C   0  0  0  0  0  3  0  0  0  0  0  0
  161.4440  206.6650  149.5540 N   0  0  0  0  0  0  0  0  0  0  0  0
  161.6970  208.0130  149.5450 C   0  0  0  0  0  0  0  0  0  0  0  0
  161.4230  208.1050  151.9550 C   0  0  0  0  0  0  0  0  0  0  0  0
  160.7030  207.6860  156.3720 N   0  0  0  0  0  0  0  0  0  0  0  0
  161.9400  201.7710  148.4380 C   0  0  0  0  0  2  0  0  0  0  0  0
  161.6650  204.5010  148.3240 C   0  0  2  0  0  3  0  0  0  0  0  0
  160.5560  206.5820  155.6410 N   0  0  0  0  0  0  0  0  0  0  0  0
  161.0040  202.3370  149.5070 C   0  0  0  0  0  2  0  0  0  0  0  0
  161.9780  210.1280  150.7220 C   0  0  0  0  0  3  0  0  0  0  0  0
  161.7040  208.7490  150.7490 C   0  0  0  0  0  0  0  0  0  0  0  0
  161.4350  208.8310  153.1170 N   0  0  0  0  0  0  0  0  0  0  0  0
  161.2010  204.4800  150.7390 C   0  0  0  0  0  2  0  0  0  0  0  0
  160.2330  204.4330  153.4680 Cl  0  0  0  0  0  0  0  0  0  0  0  0
  161.3000  210.1050  156.0000 C   0  0  0  0  0  1  0  0  0  0  0  0
  161.1260  206.7010  151.9700 C   0  0  0  0  0  0  0  0  0  0  0  0
  161.1530  208.2130  154.2820 C   0  0  0  0  0  0  0  0  0  0  0  0
  160.2720  204.1880  146.3640 O   0  0  0  0  0  0  0  0  0  0  0  0
  160.5150  204.1190  144.9900 C   0  0  0  0  0  2  0  0  0  0  0  0
  160.8300  205.4780  144.4700 C   0  0  0  0  0  0  0  0  0  0  0  0
  160.3230  206.6010  145.1110 O   0  0  0  0  0  1  0  0  0  0  0  0
  161.5170  205.6080  143.4250 O   0  0  0  0  0  0  0  0  0  0  0  0
  1 16  1  0  0  0  0
  2 23  1  0  0  0  0
  2 26  2  0  0  0  0
  3 11  2  0  0  0  0
  3  4  1  0  0  0  0
  4 20  2  0  0  0  0
  5 24  1  0  0  0  0
  5  6  2  0  0  0  0
  6 18  1  0  0  0  0
  7 19  1  1  0  0  0
  7 23  1  0  0  0  0
  8 12  1  0  0  0  0
  9 25  1  0  0  0  0
  9 15  1  0  0  0  0
 10 28  1  1  0  0  0
 10  1  1  0  0  0  0
 10 17  1  0  0  0  0
 11 13  1  0  0  0  0
 12  2  1  0  0  0  0
 13 12  1  0  0  0  0
 13 21  2  0  0  0  0
 14 26  1  0  0  0  0
 14 22  2  0  0  0  0
 16 19  1  0  0  0  0
 17  8  1  6  0  0  0
 17  7  1  0  0  0  0
 18 15  2  0  0  0  0
 20 21  1  0  0  0  0
 21 14  1  0  0  0  0
 22 27  1  0  0  0  0
 26  5  1  0  0  0  0
 27  6  1  0  0  0  0
 27  9  2  0  0  0  0
 29 28  1  0  0  0  0
 30 29  1  0  0  0  0
 30 31  1  0  0  0  0
 32 30  2  0  0  0  0
M  END
>  <MODEL>
1

>  <REMARK>
 VINA RESULT:      -7.5      0.000      0.000
  Name = 
  3 active torsions:
  status: ('A' for Active; 'I' for Inactive)
    1  A    between atoms: C_10  and  O_20
    2  A    between atoms: O_20  and  C_29
    3  A    between atoms: C_29  and  C_30
                            x       y       z     vdW  Elec       q    Type
                         _______ _______ _______ _____ _____    ______ ____

>  <TORSDO>
F 3

$$$$
=
 OpenBabel11122412543D

 32 37  0  0  1  0  0  0  0  0999 V2000
  161.6330  202.2300  150.1440 C   0  0  0  0  0  2  0  0  0  0  0  0
  160.9930  206.9490  152.3340 C   0  0  0  0  0  0  0  0  0  0  0  0
  162.2240  210.0170  148.7950 C   0  0  0  0  0  3  0  0  0  0  0  0
  162.1330  211.0900  149.6780 C   0  0  0  0  0  3  0  0  0  0  0  0
  160.3920  207.8630  154.6190 C   0  0  0  0  0  0  0  0  0  0  0  0
  160.3430  209.0030  155.4150 C   0  0  0  0  0  0  0  0  0  0  0  0
  160.7320  204.4890  151.7740 C   0  0  1  0  0  3  0  0  0  0  0  0
  161.3350  206.1210  150.0150 C   0  0  0  0  0  2  0  0  0  0  0  0
  160.4800  211.1010  155.9580 C   0  0  0  0  0  0  0  0  0  0  0  0
  161.5910  203.6440  149.5390 C   0  0  2  0  0  3  0  0  0  0  0  0
  161.9560  208.7230  149.2430 C   0  0  0  0  0  3  0  0  0  0  0  0
  161.3430  207.2000  151.0210 N   0  0  0  0  0  0  0  0  0  0  0  0
  161.5920  208.4760  150.5820 C   0  0  0  0  0  0  0  0  0  0  0  0
  161.1240  209.3530  152.7980 C   0  0  0  0  0  0  0  0  0  0  0  0
  160.0510  210.4020  157.0340 N   0  0  0  0  0  0  0  0  0  0  0  0
  161.9380  202.2300  151.6380 C   0  0  0  0  0  2  0  0  0  0  0  0
  161.6670  204.7580  150.6020 C   0  0  2  0  0  3  0  0  0  0  0  0
  159.9650  209.1140  156.7040 N   0  0  0  0  0  0  0  0  0  0  0  0
  160.9170  203.0900  152.3840 C   0  0  0  0  0  2  0  0  0  0  0  0
  161.7730  210.8680  151.0070 C   0  0  0  0  0  3  0  0  0  0  0  0
  161.5000  209.5690  151.4700 C   0  0  0  0  0  0  0  0  0  0  0  0
  161.0400  210.4240  153.6490 N   0  0  0  0  0  0  0  0  0  0  0  0
  161.0090  205.5260  152.8440 C   0  0  0  0  0  2  0  0  0  0  0  0
  159.8240  206.3580  155.3510 Cl  0  0  0  0  0  0  0  0  0  0  0  0
  160.6700  212.5770  155.9250 C   0  0  0  0  0  1  0  0  0  0  0  0
  160.8300  208.0260  153.2560 C   0  0  0  0  0  0  0  0  0  0  0  0
  160.6670  210.2190  154.9280 C   0  0  0  0  0  0  0  0  0  0  0  0
  160.4370  203.7730  148.7580 O   0  0  0  0  0  0  0  0  0  0  0  0
  160.8300  203.3970  147.4710 C   0  0  0  0  0  2  0  0  0  0  0  0
  161.5280  204.5330  146.8100 C   0  0  0  0  0  0  0  0  0  0  0  0
  160.8580  205.7310  146.5980 O   0  0  0  0  0  1  0  0  0  0  0  0
  162.7100  204.3950  146.4030 O   0  0  0  0  0  0  0  0  0  0  0  0
  1 16  1  0  0  0  0
  2 23  1  0  0  0  0
  2 26  2  0  0  0  0
  3 11  2  0  0  0  0
  3  4  1  0  0  0  0
  4 20  2  0  0  0  0
  5 24  1  0  0  0  0
  5  6  2  0  0  0  0
  6 18  1  0  0  0  0
  7 19  1  1  0  0  0
  7 23  1  0  0  0  0
  8 12  1  0  0  0  0
  9 15  1  0  0  0  0
 10 28  1  1  0  0  0
 10  1  1  0  0  0  0
 10 17  1  0  0  0  0
 11 13  1  0  0  0  0
 12  2  1  0  0  0  0
 13 12  1  0  0  0  0
 13 21  2  0  0  0  0
 14 26  1  0  0  0  0
 14 22  2  0  0  0  0
 16 19  1  0  0  0  0
 17  8  1  6  0  0  0
 17  7  1  0  0  0  0
 18 15  2  0  0  0  0
 20 21  1  0  0  0  0
 21 14  1  0  0  0  0
 22 27  1  0  0  0  0
 25  9  1  0  0  0  0
 26  5  1  0  0  0  0
 27  6  1  0  0  0  0
 27  9  2  0  0  0  0
 29 28  1  0  0  0  0
 30 29  1  0  0  0  0
 31 30  1  0  0  0  0
 32 30  2  0  0  0  0
M  END
>  <MODEL>
2

>  <REMARK>
 VINA RESULT:      -7.1      1.520      2.244
  Name = 
  3 active torsions:
  status: ('A' for Active; 'I' for Inactive)
    1  A    between atoms: C_10  and  O_20
    2  A    between atoms: O_20  and  C_29
    3  A    between atoms: C_29  and  C_30
                            x       y       z     vdW  Elec       q    Type
                         _______ _______ _______ _____ _____    ______ ____

>  <TORSDO>
F 3

$$$$
=
 OpenBabel11122412543D

 32 37  0  0  1  0  0  0  0  0999 V2000
  160.4370  208.4340  156.8460 C   0  0  0  0  0  2  0  0  0  0  0  0
  161.2780  206.8640  151.9150 C   0  0  0  0  0  0  0  0  0  0  0  0
  162.1520  210.9950  149.5440 C   0  0  0  0  0  3  0  0  0  0  0  0
  162.1530  210.3120  148.3300 C   0  0  0  0  0  3  0  0  0  0  0  0
  161.1920  204.6850  150.6260 C   0  0  0  0  0  0  0  0  0  0  0  0
  161.2010  204.1060  149.3620 C   0  0  0  0  0  0  0  0  0  0  0  0
  161.1640  206.9170  154.4480 C   0  0  1  0  0  3  0  0  0  0  0  0
  161.6300  208.9820  153.1680 C   0  0  0  0  0  2  0  0  0  0  0  0
  161.3530  203.9670  147.1990 C   0  0  0  0  0  0  0  0  0  0  0  0
  161.0150  209.1650  155.6210 C   0  0  2  0  0  3  0  0  0  0  0  0
  161.9390  210.2990  150.7340 C   0  0  0  0  0  3  0  0  0  0  0  0
  161.4990  208.2280  151.9070 N   0  0  0  0  0  0  0  0  0  0  0  0
  161.7220  208.9050  150.7350 C   0  0  0  0  0  0  0  0  0  0  0  0
  161.5320  206.8380  149.4770 C   0  0  0  0  0  0  0  0  0  0  0  0
  161.1890  202.7220  147.7040 N   0  0  0  0  0  0  0  0  0  0  0  0
  159.6160  207.2050  156.4720 C   0  0  0  0  0  2  0  0  0  0  0  0
  160.8090  208.3920  154.3030 C   0  0  2  0  0  3  0  0  0  0  0  0
  161.0970  202.8040  149.0300 N   0  0  0  0  0  0  0  0  0  0  0  0
  160.4580  206.2420  155.6360 C   0  0  0  0  0  2  0  0  0  0  0  0
  161.9430  208.9330  148.3090 C   0  0  0  0  0  3  0  0  0  0  0  0
  161.7270  208.2200  149.5020 C   0  0  0  0  0  0  0  0  0  0  0  0
  161.5380  206.1850  148.2710 N   0  0  0  0  0  0  0  0  0  0  0  0
  160.7560  206.2080  153.1740 C   0  0  0  0  0  2  0  0  0  0  0  0
  161.0980  203.5810  152.0040 Cl  0  0  0  0  0  0  0  0  0  0  0  0
  161.5260  204.2820  145.7560 C   0  0  0  0  0  1  0  0  0  0  0  0
  161.3310  206.1170  150.7010 C   0  0  0  0  0  0  0  0  0  0  0  0
  161.3620  204.8490  148.2460 C   0  0  0  0  0  0  0  0  0  0  0  0
  162.3720  209.4260  155.8430 O   0  0  0  0  0  0  0  0  0  0  0  0
  162.4420  209.8540  157.1710 C   0  0  0  0  0  2  0  0  0  0  0  0
  162.9140  211.2650  157.2160 C   0  0  0  0  0  0  0  0  0  0  0  0
  164.2750  211.5410  157.2610 O   0  0  0  0  0  0  0  0  0  0  0  0
  162.0810  212.2060  157.2610 O   0  0  0  0  0  1  0  0  0  0  0  0
  2 23  1  0  0  0  0
  3 11  1  0  0  0  0
  4  3  2  0  0  0  0
  5 26  1  0  0  0  0
  5 24  1  0  0  0  0
  6  5  2  0  0  0  0
  7 23  1  6  0  0  0
  7 19  1  0  0  0  0
  9 15  1  0  0  0  0
  9 27  2  0  0  0  0
 10 28  1  1  0  0  0
 10  1  1  0  0  0  0
 11 13  2  0  0  0  0
 12  2  1  0  0  0  0
 12  8  1  0  0  0  0
 13 12  1  0  0  0  0
 14 21  1  0  0  0  0
 14 26  1  0  0  0  0
 15 18  2  0  0  0  0
 16  1  1  0  0  0  0
 17  8  1  6  0  0  0
 17  7  1  0  0  0  0
 17 10  1  0  0  0  0
 18  6  1  0  0  0  0
 19 16  1  0  0  0  0
 20  4  1  0  0  0  0
 20 21  2  0  0  0  0
 21 13  1  0  0  0  0
 22 14  2  0  0  0  0
 25  9  1  0  0  0  0
 26  2  2  0  0  0  0
 27 22  1  0  0  0  0
 27  6  1  0  0  0  0
 28 29  1  0  0  0  0
 29 30  1  0  0  0  0
 30 31  2  0  0  0  0
 30 32  1  0  0  0  0
M  END
>  <MODEL>
3

>  <REMARK>
 VINA RESULT:      -7.0      4.174      7.920
  Name = 
  3 active torsions:
  status: ('A' for Active; 'I' for Inactive)
    1  A    between atoms: C_10  and  O_20
    2  A    between atoms: O_20  and  C_29
    3  A    between atoms: C_29  and  C_30
                            x       y       z     vdW  Elec       q    Type
                         _______ _______ _______ _____ _____    ______ ____

>  <TORSDO>
F 3

$$$$
=
 OpenBabel11122412543D

 32 37  0  0  1  0  0  0  0  0999 V2000
  160.2730  208.8060  156.3040 C   0  0  0  0  0  2  0  0  0  0  0  0
  161.0440  206.1470  151.8530 C   0  0  0  0  0  0  0  0  0  0  0  0
  161.9280  209.6210  148.5960 C   0  0  0  0  0  3  0  0  0  0  0  0
  161.9100  208.6800  147.5700 C   0  0  0  0  0  3  0  0  0  0  0  0
  160.9250  203.7330  151.0940 C   0  0  0  0  0  0  0  0  0  0  0  0
  160.9140  202.8820  149.9940 C   0  0  0  0  0  0  0  0  0  0  0  0
  160.9600  206.7760  154.3090 C   0  0  1  0  0  3  0  0  0  0  0  0
  161.4300  208.4910  152.5880 C   0  0  0  0  0  2  0  0  0  0  0  0
  161.0400  202.2540  147.9190 C   0  0  0  0  0  0  0  0  0  0  0  0
  160.8440  209.2330  154.9400 C   0  0  2  0  0  3  0  0  0  0  0  0
  161.7220  209.2160  149.9160 C   0  0  0  0  0  3  0  0  0  0  0  0
  161.2770  207.4710  151.5330 N   0  0  0  0  0  0  0  0  0  0  0  0
  161.4930  207.8620  150.2360 C   0  0  0  0  0  0  0  0  0  0  0  0
  161.2710  205.5650  149.4820 C   0  0  0  0  0  0  0  0  0  0  0  0
  160.8710  201.1570  148.6950 N   0  0  0  0  0  0  0  0  0  0  0  0
  159.4370  207.5340  156.2280 C   0  0  0  0  0  2  0  0  0  0  0  0
  160.6160  208.1830  153.8350 C   0  0  2  0  0  3  0  0  0  0  0  0
  160.7940  201.5410  149.9690 N   0  0  0  0  0  0  0  0  0  0  0  0
  160.2620  206.3960  155.6250 C   0  0  0  0  0  2  0  0  0  0  0  0
  161.6870  207.3350  147.8650 C   0  0  0  0  0  3  0  0  0  0  0  0
  161.4780  206.9140  149.1900 C   0  0  0  0  0  0  0  0  0  0  0  0
  161.2570  204.6550  148.4570 N   0  0  0  0  0  0  0  0  0  0  0  0
  160.5310  205.8000  153.2320 C   0  0  0  0  0  2  0  0  0  0  0  0
  160.8360  202.9730  152.6870 Cl  0  0  0  0  0  0  0  0  0  0  0  0
  161.1990  202.2310  146.4400 C   0  0  0  0  0  1  0  0  0  0  0  0
  161.0770  205.1430  150.8400 C   0  0  0  0  0  0  0  0  0  0  0  0
  161.0680  203.3500  148.7380 C   0  0  0  0  0  0  0  0  0  0  0  0
  162.2050  209.5230  155.0850 O   0  0  0  0  0  0  0  0  0  0  0  0
  162.2430  210.8200  155.6040 C   0  0  0  0  0  2  0  0  0  0  0  0
  161.1500  211.6300  155.0010 C   0  0  0  0  0  0  0  0  0  0  0  0
  160.2570  212.3100  155.8190 O   0  0  0  0  0  1  0  0  0  0  0  0
  161.0070  211.6640  153.7520 O   0  0  0  0  0  0  0  0  0  0  0  0
  2 23  1  0  0  0  0
  3 11  1  0  0  0  0
  4 20  1  0  0  0  0
  4  3  2  0  0  0  0
  5 24  1  0  0  0  0
  6  5  2  0  0  0  0
  7 23  1  6  0  0  0
  7 19  1  0  0  0  0
  9 15  1  0  0  0  0
  9 27  2  0  0  0  0
 10 28  1  1  0  0  0
 10  1  1  0  0  0  0
 11 13  2  0  0  0  0
 12  2  1  0  0  0  0
 12  8  1  0  0  0  0
 13 12  1  0  0  0  0
 14 26  1  0  0  0  0
 15 18  2  0  0  0  0
 16  1  1  0  0  0  0
 17  8  1  6  0  0  0
 17  7  1  0  0  0  0
 17 10  1  0  0  0  0
 18  6  1  0  0  0  0
 19 16  1  0  0  0  0
 20 21  2  0  0  0  0
 21 14  1  0  0  0  0
 21 13  1  0  0  0  0
 22 27  1  0  0  0  0
 22 14  2  0  0  0  0
 25  9  1  0  0  0  0
 26  5  1  0  0  0  0
 26  2  2  0  0  0  0
 27  6  1  0  0  0  0
 28 29  1  0  0  0  0
 30 29  1  0  0  0  0
 30 31  1  0  0  0  0
 32 30  2  0  0  0  0
M  END
>  <MODEL>
4

>  <REMARK>
 VINA RESULT:      -6.9      3.766      7.517
  Name = 
  3 active torsions:
  status: ('A' for Active; 'I' for Inactive)
    1  A    between atoms: C_10  and  O_20
    2  A    between atoms: O_20  and  C_29
    3  A    between atoms: C_29  and  C_30
                            x       y       z     vdW  Elec       q    Type
                         _______ _______ _______ _____ _____    ______ ____

>  <TORSDO>
F 3

$$$$
=
 OpenBabel11122412543D

 32 37  0  0  1  0  0  0  0  0999 V2000
  162.2860  213.1480  148.7580 C   0  0  0  0  0  2  0  0  0  0  0  0
  161.3990  208.0890  149.8080 C   0  0  0  0  0  0  0  0  0  0  0  0
  160.9250  207.9980  154.6260 C   0  0  0  0  0  3  0  0  0  0  0  0
  160.8860  206.6070  154.6080 C   0  0  0  0  0  3  0  0  0  0  0  0
  161.3190  205.9160  148.5100 C   0  0  0  0  0  0  0  0  0  0  0  0
  161.2820  204.5290  148.6080 C   0  0  0  0  0  0  0  0  0  0  0  0
  161.4730  210.3370  148.6360 C   0  0  1  0  0  3  0  0  0  0  0  0
  161.2080  210.2100  151.0920 C   0  0  0  0  0  2  0  0  0  0  0  0
  161.1570  202.5660  149.5310 C   0  0  0  0  0  0  0  0  0  0  0  0
  161.7940  212.4360  150.0300 C   0  0  2  0  0  3  0  0  0  0  0  0
  161.0570  208.7070  153.4320 C   0  0  0  0  0  3  0  0  0  0  0  0
  161.2960  208.7380  151.0230 N   0  0  0  0  0  0  0  0  0  0  0  0
  161.1530  208.0380  152.1940 C   0  0  0  0  0  0  0  0  0  0  0  0
  161.1860  205.9410  150.9700 C   0  0  0  0  0  0  0  0  0  0  0  0
  161.2050  202.4110  148.1870 N   0  0  0  0  0  0  0  0  0  0  0  0
  163.0050  212.2130  147.7910 C   0  0  0  0  0  2  0  0  0  0  0  0
  161.9560  210.9040  149.9650 C   0  0  2  0  0  3  0  0  0  0  0  0
  161.2800  203.6140  147.6190 N   0  0  0  0  0  0  0  0  0  0  0  0
  162.0970  211.0400  147.4190 C   0  0  0  0  0  2  0  0  0  0  0  0
  160.9770  205.9250  153.3950 C   0  0  0  0  0  3  0  0  0  0  0  0
  161.1110  206.6270  152.1840 C   0  0  0  0  0  0  0  0  0  0  0  0
  161.1450  204.5710  150.9750 N   0  0  0  0  0  0  0  0  0  0  0  0
  161.8400  208.8680  148.5890 C   0  0  0  0  0  2  0  0  0  0  0  0
  161.2950  206.5970  146.8790 Cl  0  0  0  0  0  0  0  0  0  0  0  0
  161.0370  201.4530  150.5110 C   0  0  0  0  0  1  0  0  0  0  0  0
  161.3030  206.6670  149.7380 C   0  0  0  0  0  0  0  0  0  0  0  0
  161.2060  203.9070  149.8040 C   0  0  0  0  0  0  0  0  0  0  0  0
  160.4610  212.7900  150.2660 O   0  0  0  0  0  0  0  0  0  0  0  0
  160.1900  213.8020  149.3420 C   0  0  0  0  0  2  0  0  0  0  0  0
  158.8920  213.5260  148.6670 C   0  0  0  0  0  0  0  0  0  0  0  0
  157.6980  213.8550  149.2960 O   0  0  0  0  0  1  0  0  0  0  0  0
  158.8740  212.9540  147.5470 O   0  0  0  0  0  0  0  0  0  0  0  0
  1 10  1  0  0  0  0
  2 12  1  0  0  0  0
  4  3  1  0  0  0  0
  5  6  2  0  0  0  0
  5 26  1  0  0  0  0
  6 27  1  0  0  0  0
  7 19  1  6  0  0  0
  7 17  1  0  0  0  0
  9 27  2  0  0  0  0
  9 25  1  0  0  0  0
 10 28  1  6  0  0  0
 11  3  2  0  0  0  0
 12  8  1  0  0  0  0
 12 13  1  0  0  0  0
 13 11  1  0  0  0  0
 14 22  2  0  0  0  0
 14 21  1  0  0  0  0
 15  9  1  0  0  0  0
 16  1  1  0  0  0  0
 17 10  1  0  0  0  0
 17  8  1  1  0  0  0
 18 15  2  0  0  0  0
 18  6  1  0  0  0  0
 19 16  1  0  0  0  0
 20  4  2  0  0  0  0
 21 13  2  0  0  0  0
 21 20  1  0  0  0  0
 23  7  1  0  0  0  0
 23  2  1  0  0  0  0
 24  5  1  0  0  0  0
 26  2  2  0  0  0  0
 26 14  1  0  0  0  0
 27 22  1  0  0  0  0
 29 28  1  0  0  0  0
 30 31  1  0  0  0  0
 30 29  1  0  0  0  0
 32 30  2  0  0  0  0
M  END
>  <MODEL>
5

>  <REMARK>
 VINA RESULT:      -6.8      3.443      7.242
  Name = 
  3 active torsions:
  status: ('A' for Active; 'I' for Inactive)
    1  A    between atoms: C_10  and  O_20
    2  A    between atoms: O_20  and  C_29
    3  A    between atoms: C_29  and  C_30
                            x       y       z     vdW  Elec       q    Type
                         _______ _______ _______ _____ _____    ______ ____

>  <TORSDO>
F 3

$$$$
=
 OpenBabel11122412543D

 32 37  0  0  1  0  0  0  0  0999 V2000
  161.9260  210.3190  153.8960 C   0  0  0  0  0  2  0  0  0  0  0  0
  161.2280  206.7280  150.1410 C   0  0  0  0  0  0  0  0  0  0  0  0
  160.7180  202.5930  152.6070 C   0  0  0  0  0  3  0  0  0  0  0  0
  160.7340  201.8680  151.4190 C   0  0  0  0  0  3  0  0  0  0  0  0
  161.2440  206.6720  147.6080 C   0  0  0  0  0  0  0  0  0  0  0  0
  161.2600  205.8510  146.4860 C   0  0  0  0  0  0  0  0  0  0  0  0
  161.2240  208.9170  151.4230 C   0  0  1  0  0  3  0  0  0  0  0  0
  160.9440  206.7650  152.6110 C   0  0  0  0  0  2  0  0  0  0  0  0
  161.2040  204.0250  145.3110 C   0  0  0  0  0  0  0  0  0  0  0  0
  161.4520  208.8560  153.9510 C   0  0  2  0  0  3  0  0  0  0  0  0
  160.8320  203.9830  152.5770 C   0  0  0  0  0  3  0  0  0  0  0  0
  161.0900  206.0430  151.3320 N   0  0  0  0  0  0  0  0  0  0  0  0
  160.9640  204.6770  151.3560 C   0  0  0  0  0  0  0  0  0  0  0  0
  161.0890  204.5990  148.9330 C   0  0  0  0  0  0  0  0  0  0  0  0
  161.2680  205.0810  144.4680 N   0  0  0  0  0  0  0  0  0  0  0  0
  162.6890  210.6500  152.6180 C   0  0  0  0  0  2  0  0  0  0  0  0
  161.6740  208.0990  152.6270 C   0  0  2  0  0  3  0  0  0  0  0  0
  161.3020  206.2030  145.1860 N   0  0  0  0  0  0  0  0  0  0  0  0
  161.8300  210.3300  151.3940 C   0  0  0  0  0  2  0  0  0  0  0  0
  160.8610  202.5340  150.2000 C   0  0  0  0  0  3  0  0  0  0  0  0
  160.9770  203.9350  150.1560 C   0  0  0  0  0  0  0  0  0  0  0  0
  161.1010  203.8670  147.7750 N   0  0  0  0  0  0  0  0  0  0  0  0
  161.6490  208.1810  150.1690 C   0  0  0  0  0  2  0  0  0  0  0  0
  161.2060  208.4150  147.3170 Cl  0  0  0  0  0  0  0  0  0  0  0  0
  161.1190  202.6020  144.8850 C   0  0  0  0  0  1  0  0  0  0  0  0
  161.1880  206.0310  148.8970 C   0  0  0  0  0  0  0  0  0  0  0  0
  161.1980  204.5070  146.5920 C   0  0  0  0  0  0  0  0  0  0  0  0
  160.1040  208.8260  154.3270 O   0  0  0  0  0  0  0  0  0  0  0  0
  160.0940  209.2460  155.6600 C   0  0  0  0  0  2  0  0  0  0  0  0
  160.5420  208.1310  156.5380 C   0  0  0  0  0  0  0  0  0  0  0  0
  159.8010  206.9580  156.6040 O   0  0  0  0  0  0  0  0  0  0  0  0
  161.5670  208.2670  157.2540 O   0  0  0  0  0  1  0  0  0  0  0  0
  1 10  1  0  0  0  0
  2 23  1  0  0  0  0
  2 12  1  0  0  0  0
  4  3  2  0  0  0  0
  5 26  1  0  0  0  0
  6 27  1  0  0  0  0
  6  5  2  0  0  0  0
  7 23  1  6  0  0  0
  7 17  1  0  0  0  0
  9 27  2  0  0  0  0
 10 28  1  6  0  0  0
 11  3  1  0  0  0  0
 12 13  1  0  0  0  0
 12  8  1  0  0  0  0
 13 11  2  0  0  0  0
 14 21  1  0  0  0  0
 15 18  2  0  0  0  0
 15  9  1  0  0  0  0
 16  1  1  0  0  0  0
 17  8  1  1  0  0  0
 17 10  1  0  0  0  0
 18  6  1  0  0  0  0
 19  7  1  0  0  0  0
 19 16  1  0  0  0  0
 20  4  1  0  0  0  0
 21 20  2  0  0  0  0
 21 13  1  0  0  0  0
 22 14  2  0  0  0  0
 24  5  1  0  0  0  0
 25  9  1  0  0  0  0
 26 14  1  0  0  0  0
 26  2  2  0  0  0  0
 27 22  1  0  0  0  0
 28 29  1  0  0  0  0
 29 30  1  0  0  0  0
 30 31  2  0  0  0  0
 30 32  1  0  0  0  0
M  END
>  <MODEL>
6

>  <REMARK>
 VINA RESULT:      -6.3      3.928      8.541
  Name = 
  3 active torsions:
  status: ('A' for Active; 'I' for Inactive)
    1  A    between atoms: C_10  and  O_20
    2  A    between atoms: O_20  and  C_29
    3  A    between atoms: C_29  and  C_30
                            x       y       z     vdW  Elec       q    Type
                         _______ _______ _______ _____ _____    ______ ____

>  <TORSDO>
F 3

$$$$
=
 OpenBabel11122412543D

 32 37  0  0  1  0  0  0  0  0999 V2000
  162.1180  211.3870  150.4600 C   0  0  0  0  0  2  0  0  0  0  0  0
  161.2420  206.4380  148.9690 C   0  0  0  0  0  0  0  0  0  0  0  0
  161.2060  203.9850  153.1440 C   0  0  0  0  0  3  0  0  0  0  0  0
  161.1410  202.7800  152.4490 C   0  0  0  0  0  3  0  0  0  0  0  0
  161.0060  205.1780  146.7840 C   0  0  0  0  0  0  0  0  0  0  0  0
  160.9540  203.9200  146.1920 C   0  0  0  0  0  0  0  0  0  0  0  0
  161.2480  208.9740  149.0480 C   0  0  1  0  0  3  0  0  0  0  0  0
  161.2060  207.6510  151.1390 C   0  0  0  0  0  2  0  0  0  0  0  0
  160.8790  201.7550  146.0410 C   0  0  0  0  0  0  0  0  0  0  0  0
  161.7320  210.1280  151.2580 C   0  0  2  0  0  3  0  0  0  0  0  0
  161.2410  205.1920  152.4430 C   0  0  0  0  0  3  0  0  0  0  0  0
  161.2610  206.4060  150.3490 N   0  0  0  0  0  0  0  0  0  0  0  0
  161.2130  205.2180  151.0340 C   0  0  0  0  0  0  0  0  0  0  0  0
  161.0970  203.9910  148.9410 C   0  0  0  0  0  0  0  0  0  0  0  0
  160.8010  202.2790  144.7960 N   0  0  0  0  0  0  0  0  0  0  0  0
  162.7300  211.0660  149.1010 C   0  0  0  0  0  2  0  0  0  0  0  0
  161.8600  208.8300  150.4360 C   0  0  2  0  0  3  0  0  0  0  0  0
  160.8460  203.6080  144.8860 N   0  0  0  0  0  0  0  0  0  0  0  0
  161.7710  210.2000  148.2830 C   0  0  0  0  0  2  0  0  0  0  0  0
  161.1100  202.7830  151.0540 C   0  0  0  0  0  3  0  0  0  0  0  0
  161.1450  203.9920  150.3370 C   0  0  0  0  0  0  0  0  0  0  0  0
  161.0330  202.7940  148.2780 N   0  0  0  0  0  0  0  0  0  0  0  0
  161.5840  207.7270  148.2550 C   0  0  0  0  0  2  0  0  0  0  0  0
  160.8450  206.5700  145.7060 Cl  0  0  0  0  0  0  0  0  0  0  0  0
  160.8290  200.3010  146.3550 C   0  0  0  0  0  1  0  0  0  0  0  0
  161.1150  205.2310  148.2190 C   0  0  0  0  0  0  0  0  0  0  0  0
  160.9760  202.7910  146.9310 C   0  0  0  0  0  0  0  0  0  0  0  0
  160.4320  210.2830  151.7530 O   0  0  0  0  0  0  0  0  0  0  0  0
  160.5300  211.3010  152.7050 C   0  0  0  0  0  2  0  0  0  0  0  0
  160.8000  210.7090  154.0440 C   0  0  0  0  0  0  0  0  0  0  0  0
  160.6060  209.3490  154.2540 O   0  0  0  0  0  0  0  0  0  0  0  0
  161.1590  211.4460  154.9970 O   0  0  0  0  0  1  0  0  0  0  0  0
  1 10  1  0  0  0  0
  2 12  1  0  0  0  0
  4  3  1  0  0  0  0
  5 26  1  0  0  0  0
  6  5  2  0  0  0  0
  6 27  1  0  0  0  0
  7 23  1  6  0  0  0
  7 17  1  0  0  0  0
  9 25  1  0  0  0  0
  9 27  2  0  0  0  0
 10 28  1  6  0  0  0
 11  3  2  0  0  0  0
 12 13  1  0  0  0  0
 12  8  1  0  0  0  0
 13 11  1  0  0  0  0
 14 21  1  0  0  0  0
 15 18  2  0  0  0  0
 15  9  1  0  0  0  0
 16  1  1  0  0  0  0
 17  8  1  1  0  0  0
 17 10  1  0  0  0  0
 18  6  1  0  0  0  0
 19  7  1  0  0  0  0
 19 16  1  0  0  0  0
 20  4  2  0  0  0  0
 21 13  2  0  0  0  0
 21 20  1  0  0  0  0
 22 14  2  0  0  0  0
 23  2  1  0  0  0  0
 24  5  1  0  0  0  0
 26 14  1  0  0  0  0
 26  2  2  0  0  0  0
 27 22  1  0  0  0  0
 28 29  1  0  0  0  0
 29 30  1  0  0  0  0
 30 31  2  0  0  0  0
 30 32  1  0  0  0  0
M  END
>  <MODEL>
7

>  <REMARK>
 VINA RESULT:      -6.3      3.833      8.255
  Name = 
  3 active torsions:
  status: ('A' for Active; 'I' for Inactive)
    1  A    between atoms: C_10  and  O_20
    2  A    between atoms: O_20  and  C_29
    3  A    between atoms: C_29  and  C_30
                            x       y       z     vdW  Elec       q    Type
                         _______ _______ _______ _____ _____    ______ ____

>  <TORSDO>
F 3

$$$$
=
 OpenBabel11122412543D

 32 37  0  0  1  0  0  0  0  0999 V2000
  162.0930  214.2470  147.2030 C   0  0  0  0  0  2  0  0  0  0  0  0
  160.7870  211.1980  151.2640 C   0  0  0  0  0  0  0  0  0  0  0  0
  158.1850  214.1390  154.0980 C   0  0  0  0  0  3  0  0  0  0  0  0
  158.1480  213.1660  155.0930 C   0  0  0  0  0  3  0  0  0  0  0  0
  161.2860  208.8400  152.0430 C   0  0  0  0  0  0  0  0  0  0  0  0
  161.1980  207.9480  153.1060 C   0  0  0  0  0  0  0  0  0  0  0  0
  161.4010  211.9860  148.9320 C   0  0  1  0  0  3  0  0  0  0  0  0
  160.0530  213.4230  150.4290 C   0  0  0  0  0  2  0  0  0  0  0  0
  160.6530  207.1740  155.0620 C   0  0  0  0  0  0  0  0  0  0  0  0
  161.0740  214.4340  148.3410 C   0  0  2  0  0  3  0  0  0  0  0  0
  158.8490  213.8820  152.8980 C   0  0  0  0  0  3  0  0  0  0  0  0
  160.1510  212.4030  151.4920 N   0  0  0  0  0  0  0  0  0  0  0  0
  159.4890  212.6460  152.6680 C   0  0  0  0  0  0  0  0  0  0  0  0
  160.0550  210.4260  153.4720 C   0  0  0  0  0  0  0  0  0  0  0  0
  161.3020  206.2040  154.3770 N   0  0  0  0  0  0  0  0  0  0  0  0
  163.1640  213.2100  147.5280 C   0  0  0  0  0  2  0  0  0  0  0  0
  161.2350  213.4010  149.4730 C   0  0  2  0  0  3  0  0  0  0  0  0
  161.6360  206.6750  153.1760 N   0  0  0  0  0  0  0  0  0  0  0  0
  162.5130  211.8710  147.8770 C   0  0  0  0  0  2  0  0  0  0  0  0
  158.7730  211.9360  154.8860 C   0  0  0  0  0  3  0  0  0  0  0  0
  159.4450  211.6650  153.6810 C   0  0  0  0  0  0  0  0  0  0  0  0
  160.0050  209.4830  154.4650 N   0  0  0  0  0  0  0  0  0  0  0  0
  161.7380  211.0750  150.0940 C   0  0  0  0  0  2  0  0  0  0  0  0
  162.0070  208.2280  150.5500 Cl  0  0  0  0  0  0  0  0  0  0  0  0
  160.0950  207.0180  156.4320 C   0  0  0  0  0  1  0  0  0  0  0  0
  160.7220  210.1520  152.2320 C   0  0  0  0  0  0  0  0  0  0  0  0
  160.5840  208.2830  154.2610 C   0  0  0  0  0  0  0  0  0  0  0  0
  159.7810  214.3960  147.8070 O   0  0  0  0  0  0  0  0  0  0  0  0
  159.9630  214.1620  146.4420 C   0  0  0  0  0  2  0  0  0  0  0  0
  159.2260  212.9310  146.0440 C   0  0  0  0  0  0  0  0  0  0  0  0
  158.0260  212.6090  146.6670 O   0  0  0  0  0  1  0  0  0  0  0  0
  159.7100  212.1600  145.1770 O   0  0  0  0  0  0  0  0  0  0  0  0
  1 16  1  0  0  0  0
  1 10  1  0  0  0  0
  2 12  1  0  0  0  0
  2 26  2  0  0  0  0
  3  4  1  0  0  0  0
  5 26  1  0  0  0  0
  5  6  2  0  0  0  0
  6 18  1  0  0  0  0
  6 27  1  0  0  0  0
  7 19  1  6  0  0  0
  7 17  1  0  0  0  0
  7 23  1  0  0  0  0
  8 12  1  0  0  0  0
  9 25  1  0  0  0  0
 10 28  1  6  0  0  0
 10 17  1  0  0  0  0
 11  3  2  0  0  0  0
 12 13  1  0  0  0  0
 13 11  1  0  0  0  0
 13 21  2  0  0  0  0
 14 21  1  0  0  0  0
 14 22  2  0  0  0  0
 15  9  1  0  0  0  0
 16 19  1  0  0  0  0
 17  8  1  1  0  0  0
 18 15  2  0  0  0  0
 20  4  2  0  0  0  0
 21 20  1  0  0  0  0
 23  2  1  0  0  0  0
 24  5  1  0  0  0  0
 26 14  1  0  0  0  0
 27 22  1  0  0  0  0
 27  9  2  0  0  0  0
 29 28  1  0  0  0  0
 30 29  1  0  0  0  0
 30 31  1  0  0  0  0
 32 30  2  0  0  0  0
M  END
>  <MODEL>
8

>  <REMARK>
 VINA RESULT:      -6.0      4.688      6.913
  Name = 
  3 active torsions:
  status: ('A' for Active; 'I' for Inactive)
    1  A    between atoms: C_10  and  O_20
    2  A    between atoms: O_20  and  C_29
    3  A    between atoms: C_29  and  C_30
                            x       y       z     vdW  Elec       q    Type
                         _______ _______ _______ _____ _____    ______ ____

>  <TORSDO>
F 3

$$$$
=
 OpenBabel11122412543D

 32 37  0  0  1  0  0  0  0  0999 V2000
  160.2670  214.1940  147.2900 C   0  0  0  0  0  2  0  0  0  0  0  0
  160.7610  211.1660  151.5410 C   0  0  0  0  0  0  0  0  0  0  0  0
  162.6300  207.0550  149.7930 C   0  0  0  0  0  3  0  0  0  0  0  0
  162.4800  206.4450  151.0360 C   0  0  0  0  0  3  0  0  0  0  0  0
  160.1670  211.3160  153.9990 C   0  0  0  0  0  0  0  0  0  0  0  0
  160.0500  210.6070  155.1890 C   0  0  0  0  0  0  0  0  0  0  0  0
  160.6350  213.1890  150.0160 C   0  0  1  0  0  3  0  0  0  0  0  0
  161.5990  211.0610  149.2020 C   0  0  0  0  0  2  0  0  0  0  0  0
  160.1880  208.9400  156.5760 C   0  0  0  0  0  0  0  0  0  0  0  0
  161.0180  212.8710  147.5250 C   0  0  2  0  0  3  0  0  0  0  0  0
  162.2420  208.3840  149.6190 C   0  0  0  0  0  3  0  0  0  0  0  0
  161.3030  210.4320  150.5040 N   0  0  0  0  0  0  0  0  0  0  0  0
  161.6960  209.1290  150.6840 C   0  0  0  0  0  0  0  0  0  0  0  0
  161.0280  209.2260  153.0160 C   0  0  0  0  0  0  0  0  0  0  0  0
  159.7230  210.0220  157.2430 N   0  0  0  0  0  0  0  0  0  0  0  0
  159.1780  214.4530  148.3250 C   0  0  0  0  0  2  0  0  0  0  0  0
  160.6470  212.1960  148.8600 C   0  0  2  0  0  3  0  0  0  0  0  0
  159.6390  211.0460  156.3950 N   0  0  0  0  0  0  0  0  0  0  0  0
  159.7740  214.4310  149.7330 C   0  0  0  0  0  2  0  0  0  0  0  0
  161.9440  207.1650  152.1030 C   0  0  0  0  0  3  0  0  0  0  0  0
  161.5490  208.5040  151.9400 C   0  0  0  0  0  0  0  0  0  0  0  0
  160.8900  208.6060  154.2310 N   0  0  0  0  0  0  0  0  0  0  0  0
  160.0820  212.4830  151.2370 C   0  0  0  0  0  2  0  0  0  0  0  0
  159.7940  213.0420  154.0630 Cl  0  0  0  0  0  0  0  0  0  0  0  0
  160.4480  207.6100  157.1910 C   0  0  0  0  0  1  0  0  0  0  0  0
  160.6460  210.5990  152.8450 C   0  0  0  0  0  0  0  0  0  0  0  0
  160.3970  209.3050  155.2730 C   0  0  0  0  0  0  0  0  0  0  0  0
  162.3950  213.1070  147.4480 O   0  0  0  0  0  0  0  0  0  0  0  0
  162.5330  214.1240  146.5000 C   0  0  0  0  0  2  0  0  0  0  0  0
  162.6810  213.5260  145.1450 C   0  0  0  0  0  0  0  0  0  0  0  0
  161.6150  213.5530  144.2540 O   0  0  0  0  0  0  0  0  0  0  0  0
  163.7540  212.9560  144.8230 O   0  0  0  0  0  1  0  0  0  0  0  0
  1 10  1  0  0  0  0
  1 16  1  0  0  0  0
  2 26  2  0  0  0  0
  3  4  1  0  0  0  0
  4 20  2  0  0  0  0
  5 24  1  0  0  0  0
  5  6  2  0  0  0  0
  6 27  1  0  0  0  0
  6 18  1  0  0  0  0
  7 19  1  6  0  0  0
  7 23  1  0  0  0  0
  8 12  1  0  0  0  0
  9 25  1  0  0  0  0
  9 15  1  0  0  0  0
 10 28  1  1  0  0  0
 10 17  1  0  0  0  0
 11  3  2  0  0  0  0
 11 13  1  0  0  0  0
 12 13  1  0  0  0  0
 12  2  1  0  0  0  0
 13 21  2  0  0  0  0
 14 22  2  0  0  0  0
 16 19  1  0  0  0  0
 17  8  1  1  0  0  0
 17  7  1  0  0  0  0
 18 15  2  0  0  0  0
 21 20  1  0  0  0  0
 21 14  1  0  0  0  0
 22 27  1  0  0  0  0
 23  2  1  0  0  0  0
 26 14  1  0  0  0  0
 26  5  1  0  0  0  0
 27  9  2  0  0  0  0
 29 28  1  0  0  0  0
 30 29  1  0  0  0  0
 31 30  2  0  0  0  0
 32 30  1  0  0  0  0
M  END
>  <MODEL>
9

>  <REMARK>
 VINA RESULT:      -4.9      4.068      6.677
  Name = 
  3 active torsions:
  status: ('A' for Active; 'I' for Inactive)
    1  A    between atoms: C_10  and  O_20
    2  A    between atoms: O_20  and  C_29
    3  A    between atoms: C_29  and  C_30
                            x       y       z     vdW  Elec       q    Type
                         _______ _______ _______ _____ _____    ______ ____

>  <TORSDO>
F 3

$$$$
