=
 OpenBabel11122413053D

 32 37  0  0  1  0  0  0  0  0999 V2000
  158.8100  210.2870  155.5950 C   0  0  0  0  0  2  0  0  0  0  0  0
  161.3270  207.6980  152.9700 C   0  0  2  0  0  3  0  0  0  0  0  0
  162.2350  210.9950  149.3240 C   0  0  0  0  0  3  0  0  0  0  0  0
  161.8570  210.0440  148.3770 C   0  0  0  0  0  3  0  0  0  0  0  0
  161.2440  205.2060  152.2760 C   0  0  0  0  0  0  0  0  0  0  0  0
  161.4290  204.2240  151.1630 C   0  0  1  0  0  3  0  0  0  0  0  0
  161.3500  208.4100  155.3850 C   0  0  1  0  0  3  0  0  0  0  0  0
  161.4320  210.1430  153.4740 C   0  0  0  0  0  2  0  0  0  0  0  0
  160.7160  203.5230  149.1290 C   0  0  2  0  0  3  0  0  0  0  0  0
  161.2620  210.9960  155.8440 C   0  0  0  0  0  2  0  0  0  0  0  0
  162.2520  210.6610  150.6790 C   0  0  0  0  0  3  0  0  0  0  0  0
  161.9850  209.0330  152.5790 C   0  0  2  0  0  3  0  0  0  0  0  0
  161.8810  209.3760  151.1070 C   0  0  0  0  0  0  0  0  0  0  0  0
  161.1070  207.0210  150.5700 C   0  0  1  0  0  3  0  0  0  0  0  0
  160.6570  202.3370  149.9940 N   0  0  0  0  0  2  0  0  0  0  0  0
  159.1240  208.9150  154.9940 C   0  0  0  0  0  2  0  0  0  0  0  0
  161.7530  209.8520  154.9420 C   0  0  1  0  0  3  0  0  0  0  0  0
  160.9360  202.8160  151.3500 C   0  0  0  0  0  2  0  0  0  0  0  0
  160.0130  208.2010  155.8170 O   0  0  0  0  0  0  0  0  0  0  0  0
  159.9140  210.7790  156.5380 C   0  0  1  0  0  3  0  0  0  0  0  0
  161.5130  208.7540  148.7830 C   0  0  0  0  0  3  0  0  0  0  0  0
  161.5540  208.3960  150.1400 C   0  0  0  0  0  0  0  0  0  0  0  0
  161.3400  205.9180  149.5130 C   0  0  0  0  0  2  0  0  0  0  0  0
  161.7970  207.3440  154.3820 C   0  0  0  0  0  2  0  0  0  0  0  0
  160.7770  204.8840  153.3580 O   0  0  0  0  0  0  0  0  0  0  0  0
  161.9610  203.4380  148.2450 C   0  0  0  0  0  1  0  0  0  0  0  0
  161.6880  206.6190  151.9450 C   0  0  1  0  0  3  0  0  0  0  0  0
  160.7080  204.6930  150.0080 N   0  0  2  0  0  0  0  0  0  0  0  0
  159.4910  212.0690  157.2230 C   0  0  0  0  0  2  0  0  0  0  0  0
  158.5420  212.8490  156.3690 C   0  0  0  0  0  0  0  0  0  0  0  0
  159.0700  213.7440  155.3030 C   0  0  0  0  0  1  0  0  0  0  0  0
  157.3390  212.7700  156.5560 O   0  0  0  0  0  0  0  0  0  0  0  0
  1 20  1  0  0  0  0
  2 24  1  1  0  0  0
  3 11  1  0  0  0  0
  4 21  1  0  0  0  0
  4  3  2  0  0  0  0
  5 25  2  0  0  0  0
  6 18  1  1  0  0  0
  6  5  1  0  0  0  0
  7 24  1  6  0  0  0
  7 19  1  0  0  0  0
  9 26  1  1  0  0  0
  9 15  1  0  0  0  0
  9 28  1  0  0  0  0
 10 20  1  0  0  0  0
 11 13  2  0  0  0  0
 12  2  1  0  0  0  0
 12  8  1  1  0  0  0
 13 12  1  0  0  0  0
 14 23  1  6  0  0  0
 14 27  1  0  0  0  0
 15 18  1  0  0  0  0
 16  1  1  0  0  0  0
 16 19  1  0  0  0  0
 17  8  1  6  0  0  0
 17  7  1  0  0  0  0
 17 10  1  0  0  0  0
 20 29  1  6  0  0  0
 21 22  2  0  0  0  0
 22 14  1  0  0  0  0
 22 13  1  0  0  0  0
 27  5  1  1  0  0  0
 27  2  1  0  0  0  0
 28 23  1  6  0  0  0
 28  6  1  0  0  0  0
 30 32  2  0  0  0  0
 30 29  1  0  0  0  0
 31 30  1  0  0  0  0
M  END
>  <MODEL>
1

>  <REMARK>
 VINA RESULT:      -7.0      0.000      0.000
  Name = 
  2 active torsions:
  status: ('A' for Active; 'I' for Inactive)
    1  A    between atoms: C_20  and  C_29
    2  A    between atoms: C_29  and  C_30
                            x       y       z     vdW  Elec       q    Type
                         _______ _______ _______ _____ _____    ______ ____

>  <TORSDO>
F 2

$$$$
=
 OpenBabel11122413053D

 32 37  0  0  1  0  0  0  0  0999 V2000
  159.9980  204.0160  150.1620 C   0  0  0  0  0  2  0  0  0  0  0  0
  161.5300  208.1000  151.1110 C   0  0  2  0  0  3  0  0  0  0  0  0
  159.9670  208.3980  155.8500 C   0  0  0  0  0  3  0  0  0  0  0  0
  159.4100  209.6480  155.5830 C   0  0  0  0  0  3  0  0  0  0  0  0
  161.6680  210.3280  149.8010 C   0  0  0  0  0  0  0  0  0  0  0  0
  161.5290  211.8160  149.8700 C   0  0  1  0  0  3  0  0  0  0  0  0
  162.4970  205.9590  150.2060 C   0  0  1  0  0  3  0  0  0  0  0  0
  161.3360  206.0390  152.5100 C   0  0  0  0  0  2  0  0  0  0  0  0
  160.1360  213.5640  150.2420 C   0  0  2  0  0  3  0  0  0  0  0  0
  162.0850  203.7920  151.6360 C   0  0  0  0  0  2  0  0  0  0  0  0
  160.6680  207.7190  154.8520 C   0  0  0  0  0  3  0  0  0  0  0  0
  161.6420  207.5370  152.5390 C   0  0  2  0  0  3  0  0  0  0  0  0
  160.8110  208.2740  153.5710 C   0  0  0  0  0  0  0  0  0  0  0  0
  160.3920  210.1710  151.9400 C   0  0  1  0  0  3  0  0  0  0  0  0
  160.7270  213.8090  148.9190 N   0  0  0  0  0  2  0  0  0  0  0  0
  160.2860  205.4570  149.7350 C   0  0  0  0  0  2  0  0  0  0  0  0
  162.3410  205.3080  151.6170 C   0  0  1  0  0  3  0  0  0  0  0  0
  161.4840  212.6000  148.5880 C   0  0  0  0  0  2  0  0  0  0  0  0
  161.5790  205.5690  149.1950 O   0  0  0  0  0  0  0  0  0  0  0  0
  161.2780  203.2280  150.4620 C   0  0  1  0  0  3  0  0  0  0  0  0
  159.5680  210.2260  154.3230 C   0  0  0  0  0  3  0  0  0  0  0  0
  160.2950  209.5670  153.3180 C   0  0  0  0  0  0  0  0  0  0  0  0
  160.3470  211.7150  151.9180 C   0  0  0  0  0  2  0  0  0  0  0  0
  162.6520  207.4800  150.2780 C   0  0  0  0  0  2  0  0  0  0  0  0
  161.8220  209.7370  148.7430 O   0  0  0  0  0  0  0  0  0  0  0  0
  160.8310  214.4530  151.2740 C   0  0  0  0  0  1  0  0  0  0  0  0
  161.6040  209.6300  151.1470 C   0  0  1  0  0  3  0  0  0  0  0  0
  160.2820  212.1340  150.5150 N   0  0  2  0  0  0  0  0  0  0  0  0
  160.9520  201.7680  150.7360 C   0  0  0  0  0  2  0  0  0  0  0  0
  160.3600  201.1120  149.5290 C   0  0  0  0  0  0  0  0  0  0  0  0
  161.2440  200.6820  148.4110 C   0  0  0  0  0  1  0  0  0  0  0  0
  159.1530  200.9470  149.4490 O   0  0  0  0  0  0  0  0  0  0  0  0
  1 20  1  0  0  0  0
  2 24  1  6  0  0  0
  2 27  1  0  0  0  0
  2 12  1  0  0  0  0
  4  3  1  0  0  0  0
  5  6  1  0  0  0  0
  6 18  1  6  0  0  0
  6 28  1  0  0  0  0
  7 24  1  1  0  0  0
  7 17  1  0  0  0  0
  9 28  1  0  0  0  0
  9 26  1  1  0  0  0
 11  3  2  0  0  0  0
 12  8  1  6  0  0  0
 12 13  1  0  0  0  0
 13 11  1  0  0  0  0
 14 23  1  1  0  0  0
 14 22  1  0  0  0  0
 15  9  1  0  0  0  0
 16  1  1  0  0  0  0
 17 10  1  6  0  0  0
 17  8  1  0  0  0  0
 18 15  1  0  0  0  0
 19 16  1  0  0  0  0
 19  7  1  0  0  0  0
 20 29  1  1  0  0  0
 20 10  1  0  0  0  0
 21  4  2  0  0  0  0
 22 13  2  0  0  0  0
 22 21  1  0  0  0  0
 25  5  2  0  0  0  0
 27  5  1  6  0  0  0
 27 14  1  0  0  0  0
 28 23  1  1  0  0  0
 30 29  1  0  0  0  0
 31 30  1  0  0  0  0
 32 30  2  0  0  0  0
M  END
>  <MODEL>
2

>  <REMARK>
 VINA RESULT:      -6.2      3.501      8.137
  Name = 
  2 active torsions:
  status: ('A' for Active; 'I' for Inactive)
    1  A    between atoms: C_20  and  C_29
    2  A    between atoms: C_29  and  C_30
                            x       y       z     vdW  Elec       q    Type
                         _______ _______ _______ _____ _____    ______ ____

>  <TORSDO>
F 2

$$$$
=
 OpenBabel11122413053D

 32 37  0  0  1  0  0  0  0  0999 V2000
  159.9730  212.5780  146.1690 C   0  0  0  0  0  2  0  0  0  0  0  0
  160.2990  212.6540  150.6210 C   0  0  2  0  0  3  0  0  0  0  0  0
  162.3190  208.1320  151.2960 C   0  0  0  0  0  3  0  0  0  0  0  0
  161.3600  207.8550  152.2690 C   0  0  0  0  0  3  0  0  0  0  0  0
  158.7900  213.5390  152.5280 C   0  0  0  0  0  0  0  0  0  0  0  0
  158.2580  213.2890  153.9040 C   0  0  1  0  0  3  0  0  0  0  0  0
  161.0410  214.1250  148.7170 C   0  0  1  0  0  3  0  0  0  0  0  0
  161.7750  211.6560  148.8700 C   0  0  0  0  0  2  0  0  0  0  0  0
  157.0040  211.9390  155.2230 C   0  0  2  0  0  3  0  0  0  0  0  0
  162.4270  212.9620  146.8100 C   0  0  0  0  0  2  0  0  0  0  0  0
  162.3440  209.3840  150.6780 C   0  0  0  0  0  3  0  0  0  0  0  0
  161.5110  211.7390  150.3740 C   0  0  2  0  0  3  0  0  0  0  0  0
  161.4030  210.3700  151.0150 C   0  0  0  0  0  0  0  0  0  0  0  0
  159.4150  211.1270  152.3960 C   0  0  1  0  0  3  0  0  0  0  0  0
  156.4360  213.2840  155.3880 N   0  0  0  0  0  2  0  0  0  0  0  0
  159.4100  212.9830  147.5340 C   0  0  0  0  0  2  0  0  0  0  0  0
  162.0910  213.0440  148.3080 C   0  0  1  0  0  3  0  0  0  0  0  0
  157.1160  214.1290  154.4040 C   0  0  0  0  0  2  0  0  0  0  0  0
  159.8790  214.2540  147.9100 O   0  0  0  0  0  0  0  0  0  0  0  0
  161.2870  213.2970  145.8420 C   0  0  1  0  0  3  0  0  0  0  0  0
  160.4360  208.8330  152.6360 C   0  0  0  0  0  3  0  0  0  0  0  0
  160.4670  210.1060  152.0430 C   0  0  0  0  0  0  0  0  0  0  0  0
  158.8670  211.0020  153.8350 C   0  0  0  0  0  2  0  0  0  0  0  0
  160.6970  214.0720  150.2070 C   0  0  0  0  0  2  0  0  0  0  0  0
  158.3800  214.4530  151.8280 O   0  0  0  0  0  0  0  0  0  0  0  0
  157.8670  211.6060  156.4400 C   0  0  0  0  0  1  0  0  0  0  0  0
  159.8740  212.5710  152.0900 C   0  0  1  0  0  3  0  0  0  0  0  0
  157.7500  211.9420  153.9650 N   0  0  2  0  0  0  0  0  0  0  0  0
  161.7280  212.9780  144.4220 C   0  0  0  0  0  2  0  0  0  0  0  0
  160.5750  213.0440  143.4720 C   0  0  0  0  0  0  0  0  0  0  0  0
  160.1740  211.8290  142.7090 C   0  0  0  0  0  1  0  0  0  0  0  0
  159.9740  214.0920  143.3040 O   0  0  0  0  0  0  0  0  0  0  0  0
  1 16  1  0  0  0  0
  2 24  1  1  0  0  0
  2 27  1  0  0  0  0
  3  4  1  0  0  0  0
  4 21  2  0  0  0  0
  5  6  1  0  0  0  0
  6 28  1  0  0  0  0
  6 18  1  6  0  0  0
  7 24  1  1  0  0  0
  9 15  1  0  0  0  0
  9 26  1  1  0  0  0
 11 13  1  0  0  0  0
 11  3  2  0  0  0  0
 12  8  1  6  0  0  0
 12  2  1  0  0  0  0
 12 13  1  0  0  0  0
 13 22  2  0  0  0  0
 14 23  1  1  0  0  0
 16 19  1  0  0  0  0
 17 10  1  6  0  0  0
 17  7  1  0  0  0  0
 17  8  1  0  0  0  0
 18 15  1  0  0  0  0
 19  7  1  0  0  0  0
 20 29  1  6  0  0  0
 20  1  1  0  0  0  0
 20 10  1  0  0  0  0
 22 14  1  0  0  0  0
 22 21  1  0  0  0  0
 25  5  2  0  0  0  0
 27 14  1  0  0  0  0
 27  5  1  6  0  0  0
 28 23  1  1  0  0  0
 28  9  1  0  0  0  0
 30 29  1  0  0  0  0
 31 30  1  0  0  0  0
 32 30  2  0  0  0  0
M  END
>  <MODEL>
3

>  <REMARK>
 VINA RESULT:      -6.2      4.800      8.911
  Name = 
  2 active torsions:
  status: ('A' for Active; 'I' for Inactive)
    1  A    between atoms: C_20  and  C_29
    2  A    between atoms: C_29  and  C_30
                            x       y       z     vdW  Elec       q    Type
                         _______ _______ _______ _____ _____    ______ ____

>  <TORSDO>
F 2

$$$$
=
 OpenBabel11122413053D

 32 37  0  0  1  0  0  0  0  0999 V2000
  160.0950  204.9720  150.0550 C   0  0  0  0  0  2  0  0  0  0  0  0
  161.0260  208.7330  152.2730 C   0  0  2  0  0  3  0  0  0  0  0  0
  160.5200  206.9940  156.9310 C   0  0  0  0  0  3  0  0  0  0  0  0
  159.6990  208.0780  157.2410 C   0  0  0  0  0  3  0  0  0  0  0  0
  160.4620  211.2320  151.9070 C   0  0  0  0  0  0  0  0  0  0  0  0
  160.0730  212.5220  152.5580 C   0  0  1  0  0  3  0  0  0  0  0  0
  162.1450  207.3450  150.4940 C   0  0  1  0  0  3  0  0  0  0  0  0
  161.5260  206.3400  152.7900 C   0  0  0  0  0  2  0  0  0  0  0  0
  158.5010  213.6290  153.7580 C   0  0  2  0  0  3  0  0  0  0  0  0
  162.4620  204.7920  151.0290 C   0  0  0  0  0  2  0  0  0  0  0  0
  161.0950  206.8950  155.6640 C   0  0  0  0  0  3  0  0  0  0  0  0
  161.5510  207.7640  153.3460 C   0  0  2  0  0  3  0  0  0  0  0  0
  160.8480  207.8710  154.6850 C   0  0  0  0  0  0  0  0  0  0  0  0
  159.7410  210.0400  153.9770 C   0  0  1  0  0  3  0  0  0  0  0  0
  158.7300  214.4500  152.5620 N   0  0  0  0  0  2  0  0  0  0  0  0
  160.0140  206.4960  150.1750 C   0  0  0  0  0  2  0  0  0  0  0  0
  162.4250  206.2350  151.5560 C   0  0  1  0  0  3  0  0  0  0  0  0
  159.6030  213.6580  151.6930 C   0  0  0  0  0  2  0  0  0  0  0  0
  161.1130  207.1060  149.5470 O   0  0  0  0  0  0  0  0  0  0  0  0
  161.5320  204.4780  149.8520 C   0  0  1  0  0  3  0  0  0  0  0  0
  159.4670  209.0700  156.2890 C   0  0  0  0  0  3  0  0  0  0  0  0
  160.0620  208.9990  155.0190 C   0  0  0  0  0  0  0  0  0  0  0  0
  159.4100  211.4350  154.5530 C   0  0  0  0  0  2  0  0  0  0  0  0
  162.0310  208.7380  151.1190 C   0  0  0  0  0  2  0  0  0  0  0  0
  160.4850  211.0970  150.6930 O   0  0  0  0  0  0  0  0  0  0  0  0
  159.2320  214.2570  154.9450 C   0  0  0  0  0  1  0  0  0  0  0  0
  160.8260  210.1250  152.8790 C   0  0  1  0  0  3  0  0  0  0  0  0
  158.9620  212.2770  153.4410 N   0  0  2  0  0  0  0  0  0  0  0  0
  161.5470  202.9800  149.5890 C   0  0  0  0  0  2  0  0  0  0  0  0
  161.2490  202.6810  148.1540 C   0  0  0  0  0  0  0  0  0  0  0  0
  161.6290  203.6610  147.0990 C   0  0  0  0  0  1  0  0  0  0  0  0
  160.6770  201.6480  147.8460 O   0  0  0  0  0  0  0  0  0  0  0  0
  1 16  1  0  0  0  0
  2 24  1  6  0  0  0
  2 27  1  0  0  0  0
  2 12  1  0  0  0  0
  3  4  1  0  0  0  0
  5  6  1  0  0  0  0
  6 18  1  6  0  0  0
  6 28  1  0  0  0  0
  7 24  1  1  0  0  0
  7 17  1  0  0  0  0
  9 26  1  1  0  0  0
 11  3  2  0  0  0  0
 12  8  1  6  0  0  0
 12 13  1  0  0  0  0
 13 22  2  0  0  0  0
 13 11  1  0  0  0  0
 14 23  1  1  0  0  0
 14 22  1  0  0  0  0
 15  9  1  0  0  0  0
 17 10  1  6  0  0  0
 17  8  1  0  0  0  0
 18 15  1  0  0  0  0
 19 16  1  0  0  0  0
 19  7  1  0  0  0  0
 20 29  1  1  0  0  0
 20  1  1  0  0  0  0
 20 10  1  0  0  0  0
 21  4  2  0  0  0  0
 22 21  1  0  0  0  0
 25  5  2  0  0  0  0
 27  5  1  6  0  0  0
 27 14  1  0  0  0  0
 28  9  1  0  0  0  0
 28 23  1  1  0  0  0
 30 29  1  0  0  0  0
 31 30  1  0  0  0  0
 32 30  2  0  0  0  0
M  END
>  <MODEL>
4

>  <REMARK>
 VINA RESULT:      -5.7      3.360      8.441
  Name = 
  2 active torsions:
  status: ('A' for Active; 'I' for Inactive)
    1  A    between atoms: C_20  and  C_29
    2  A    between atoms: C_29  and  C_30
                            x       y       z     vdW  Elec       q    Type
                         _______ _______ _______ _____ _____    ______ ____

>  <TORSDO>
F 2

$$$$
=
 OpenBabel11122413053D

 32 37  0  0  1  0  0  0  0  0999 V2000
  159.1050  212.9220  146.9040 C   0  0  0  0  0  2  0  0  0  0  0  0
  161.2290  211.0460  150.3530 C   0  0  2  0  0  3  0  0  0  0  0  0
  162.2120  206.6000  148.2920 C   0  0  0  0  0  3  0  0  0  0  0  0
  161.6980  205.9670  149.4230 C   0  0  0  0  0  3  0  0  0  0  0  0
  160.8870  211.0770  152.9180 C   0  0  0  0  0  0  0  0  0  0  0  0
  160.9200  210.2770  154.1820 C   0  0  1  0  0  3  0  0  0  0  0  0
  161.4540  213.1650  149.0130 C   0  0  1  0  0  3  0  0  0  0  0  0
  161.5780  210.8460  147.8880 C   0  0  0  0  0  2  0  0  0  0  0  0
  160.0330  208.5410  155.3380 C   0  0  2  0  0  3  0  0  0  0  0  0
  161.6210  212.8890  146.4050 C   0  0  0  0  0  2  0  0  0  0  0  0
  162.2790  207.9930  148.2410 C   0  0  0  0  0  3  0  0  0  0  0  0
  161.9780  210.2790  149.2500 C   0  0  2  0  0  3  0  0  0  0  0  0
  161.8210  208.7730  149.3150 C   0  0  0  0  0  0  0  0  0  0  0  0
  160.8120  208.9370  151.6370 C   0  0  1  0  0  3  0  0  0  0  0  0
  159.9190  209.7030  156.2290 N   0  0  0  0  0  2  0  0  0  0  0  0
  159.2620  212.7180  148.4120 C   0  0  0  0  0  2  0  0  0  0  0  0
  161.9560  212.3260  147.7950 C   0  0  1  0  0  3  0  0  0  0  0  0
  160.3170  210.8630  155.4280 C   0  0  0  0  0  2  0  0  0  0  0  0
  160.1310  213.6790  148.9590 O   0  0  0  0  0  0  0  0  0  0  0  0
  160.3010  213.6570  146.2850 C   0  0  1  0  0  3  0  0  0  0  0  0
  161.2660  206.7270  150.5100 C   0  0  0  0  0  3  0  0  0  0  0  0
  161.3530  208.1290  150.4850 C   0  0  0  0  0  0  0  0  0  0  0  0
  160.8860  208.2240  153.0050 C   0  0  0  0  0  2  0  0  0  0  0  0
  161.7460  212.4850  150.3520 C   0  0  0  0  0  2  0  0  0  0  0  0
  160.4560  212.2200  152.8830 O   0  0  0  0  0  0  0  0  0  0  0  0
  161.2120  207.6780  155.7880 C   0  0  0  0  0  1  0  0  0  0  0  0
  161.4330  210.3510  151.7030 C   0  0  1  0  0  3  0  0  0  0  0  0
  160.1780  209.0590  153.9780 N   0  0  2  0  0  0  0  0  0  0  0  0
  160.0340  213.9680  144.8210 C   0  0  0  0  0  2  0  0  0  0  0  0
  160.4480  212.8300  143.9430 C   0  0  0  0  0  0  0  0  0  0  0  0
  161.7600  212.8780  143.2390 C   0  0  0  0  0  1  0  0  0  0  0  0
  159.7080  211.8740  143.7850 O   0  0  0  0  0  0  0  0  0  0  0  0
  1 16  1  0  0  0  0
  2 24  1  1  0  0  0
  2 27  1  0  0  0  0
  3  4  1  0  0  0  0
  4 21  2  0  0  0  0
  5  6  1  0  0  0  0
  6 18  1  1  0  0  0
  7 24  1  1  0  0  0
  9 26  1  1  0  0  0
  9 15  1  0  0  0  0
 11  3  2  0  0  0  0
 11 13  1  0  0  0  0
 12  8  1  6  0  0  0
 12 13  1  0  0  0  0
 12  2  1  0  0  0  0
 13 22  2  0  0  0  0
 14 27  1  0  0  0  0
 14 23  1  1  0  0  0
 16 19  1  0  0  0  0
 17 10  1  6  0  0  0
 17  8  1  0  0  0  0
 17  7  1  0  0  0  0
 18 15  1  0  0  0  0
 19  7  1  0  0  0  0
 20 29  1  6  0  0  0
 20 10  1  0  0  0  0
 20  1  1  0  0  0  0
 22 21  1  0  0  0  0
 22 14  1  0  0  0  0
 25  5  2  0  0  0  0
 27  5  1  1  0  0  0
 28 23  1  6  0  0  0
 28  6  1  0  0  0  0
 28  9  1  0  0  0  0
 30 29  1  0  0  0  0
 31 30  1  0  0  0  0
 32 30  2  0  0  0  0
M  END
>  <MODEL>
5

>  <REMARK>
 VINA RESULT:      -4.8      4.025      7.649
  Name = 
  2 active torsions:
  status: ('A' for Active; 'I' for Inactive)
    1  A    between atoms: C_20  and  C_29
    2  A    between atoms: C_29  and  C_30
                            x       y       z     vdW  Elec       q    Type
                         _______ _______ _______ _____ _____    ______ ____

>  <TORSDO>
F 2

$$$$
=
 OpenBabel11122413053D

 32 37  0  0  1  0  0  0  0  0999 V2000
  159.7530  205.6710  145.6830 C   0  0  0  0  0  2  0  0  0  0  0  0
  161.7440  206.7210  149.5380 C   0  0  2  0  0  3  0  0  0  0  0  0
  161.0330  202.3970  151.9440 C   0  0  0  0  0  3  0  0  0  0  0  0
  160.5400  203.0970  153.0450 C   0  0  0  0  0  3  0  0  0  0  0  0
  161.8350  208.8530  151.0020 C   0  0  0  0  0  0  0  0  0  0  0  0
  161.8300  209.4000  152.3940 C   0  0  1  0  0  3  0  0  0  0  0  0
  162.3710  206.7500  147.1000 C   0  0  1  0  0  3  0  0  0  0  0  0
  161.6250  204.5720  148.2680 C   0  0  0  0  0  2  0  0  0  0  0  0
  160.6630  209.6340  154.3230 C   0  0  2  0  0  3  0  0  0  0  0  0
  162.0350  204.5030  145.7780 C   0  0  0  0  0  2  0  0  0  0  0  0
  161.4990  203.0930  150.8270 C   0  0  0  0  0  3  0  0  0  0  0  0
  162.0500  205.2140  149.5890 C   0  0  2  0  0  3  0  0  0  0  0  0
  161.4670  204.4960  150.7900 C   0  0  0  0  0  0  0  0  0  0  0  0
  160.9310  206.7100  151.9060 C   0  0  1  0  0  3  0  0  0  0  0  0
  161.0400  210.9970  153.9260 N   0  0  0  0  0  2  0  0  0  0  0  0
  160.0790  206.6960  146.7710 C   0  0  0  0  0  2  0  0  0  0  0  0
  162.4040  205.1890  147.1030 C   0  0  1  0  0  3  0  0  0  0  0  0
  161.6310  210.8770  152.5920 C   0  0  0  0  0  2  0  0  0  0  0  0
  161.2670  207.3850  146.4700 O   0  0  0  0  0  0  0  0  0  0  0  0
  160.9990  205.2240  144.9090 C   0  0  1  0  0  3  0  0  0  0  0  0
  160.5280  204.4920  153.0360 C   0  0  0  0  0  3  0  0  0  0  0  0
  161.0200  205.2060  151.9310 C   0  0  0  0  0  0  0  0  0  0  0  0
  161.0060  207.3740  153.2990 C   0  0  0  0  0  2  0  0  0  0  0  0
  162.6560  207.3440  148.4810 C   0  0  0  0  0  2  0  0  0  0  0  0
  161.7620  209.5740  150.0180 O   0  0  0  0  0  0  0  0  0  0  0  0
  161.5910  209.1640  155.4440 C   0  0  0  0  0  1  0  0  0  0  0  0
  161.9450  207.3410  150.9240 C   0  0  1  0  0  3  0  0  0  0  0  0
  160.7390  208.8040  153.1210 N   0  0  2  0  0  0  0  0  0  0  0  0
  160.6090  204.3240  143.7470 C   0  0  0  0  0  2  0  0  0  0  0  0
  159.6440  203.2670  144.1830 C   0  0  0  0  0  0  0  0  0  0  0  0
  160.1350  202.0860  144.9450 C   0  0  0  0  0  1  0  0  0  0  0  0
  158.4610  203.3590  143.8980 O   0  0  0  0  0  0  0  0  0  0  0  0
  1 16  1  0  0  0  0
  2 24  1  6  0  0  0
  2 12  1  0  0  0  0
  2 27  1  0  0  0  0
  3  4  1  0  0  0  0
  5  6  1  0  0  0  0
  6 18  1  6  0  0  0
  6 28  1  0  0  0  0
  7 17  1  0  0  0  0
  7 24  1  1  0  0  0
  9 26  1  1  0  0  0
 11  3  2  0  0  0  0
 12  8  1  6  0  0  0
 12 13  1  0  0  0  0
 13 11  1  0  0  0  0
 13 22  2  0  0  0  0
 14 22  1  0  0  0  0
 14 23  1  1  0  0  0
 15  9  1  0  0  0  0
 17 10  1  6  0  0  0
 17  8  1  0  0  0  0
 18 15  1  0  0  0  0
 19 16  1  0  0  0  0
 19  7  1  0  0  0  0
 20 29  1  6  0  0  0
 20  1  1  0  0  0  0
 20 10  1  0  0  0  0
 21  4  2  0  0  0  0
 22 21  1  0  0  0  0
 25  5  2  0  0  0  0
 27  5  1  6  0  0  0
 27 14  1  0  0  0  0
 28 23  1  1  0  0  0
 28  9  1  0  0  0  0
 29 30  1  0  0  0  0
 30 31  1  0  0  0  0
 32 30  2  0  0  0  0
M  END
>  <MODEL>
6

>  <REMARK>
 VINA RESULT:      -4.5      3.568      8.976
  Name = 
  2 active torsions:
  status: ('A' for Active; 'I' for Inactive)
    1  A    between atoms: C_20  and  C_29
    2  A    between atoms: C_29  and  C_30
                            x       y       z     vdW  Elec       q    Type
                         _______ _______ _______ _____ _____    ______ ____

>  <TORSDO>
F 2

$$$$
=
 OpenBabel11122413053D

 32 37  0  0  1  0  0  0  0  0999 V2000
  160.9520  211.0330  141.1330 C   0  0  0  0  0  2  0  0  0  0  0  0
  160.0050  213.5620  144.6880 C   0  0  2  0  0  3  0  0  0  0  0  0
  163.9710  212.4050  147.5020 C   0  0  0  0  0  3  0  0  0  0  0  0
  163.1250  212.1520  148.5810 C   0  0  0  0  0  3  0  0  0  0  0  0
  157.8270  214.1550  145.9550 C   0  0  0  0  0  0  0  0  0  0  0  0
  157.1950  214.3850  147.2910 C   0  0  1  0  0  3  0  0  0  0  0  0
  160.2470  213.9260  142.2090 C   0  0  1  0  0  3  0  0  0  0  0  0
  162.1810  212.9590  143.6190 C   0  0  0  0  0  2  0  0  0  0  0  0
  156.6360  213.4810  149.2920 C   0  0  2  0  0  3  0  0  0  0  0  0
  162.4860  213.0890  141.1160 C   0  0  0  0  0  2  0  0  0  0  0  0
  163.4420  212.8590  146.2930 C   0  0  0  0  0  3  0  0  0  0  0  0
  161.5350  213.6190  144.8370 C   0  0  2  0  0  3  0  0  0  0  0  0
  162.0600  213.0550  146.1420 C   0  0  0  0  0  0  0  0  0  0  0  0
  159.7170  213.0100  147.1130 C   0  0  1  0  0  3  0  0  0  0  0  0
  155.3870  214.0320  148.7500 N   0  0  0  0  0  2  0  0  0  0  0  0
  159.9280  211.6340  142.0980 C   0  0  0  0  0  2  0  0  0  0  0  0
  161.7870  213.7020  142.3400 C   0  0  1  0  0  3  0  0  0  0  0  0
  155.6960  214.4530  147.3820 C   0  0  0  0  0  2  0  0  0  0  0  0
  159.4750  212.8820  141.6320 O   0  0  0  0  0  0  0  0  0  0  0  0
  161.6580  212.1010  140.2880 C   0  0  1  0  0  3  0  0  0  0  0  0
  161.7530  212.3680  148.4570 C   0  0  0  0  0  3  0  0  0  0  0  0
  161.2100  212.8530  147.2550 C   0  0  0  0  0  0  0  0  0  0  0  0
  158.9840  213.3380  148.4330 C   0  0  0  0  0  2  0  0  0  0  0  0
  159.6190  214.4480  143.5030 C   0  0  0  0  0  2  0  0  0  0  0  0
  157.1710  214.0980  144.9250 O   0  0  0  0  0  0  0  0  0  0  0  0
  157.1830  214.4300  150.3590 C   0  0  0  0  0  1  0  0  0  0  0  0
  159.3370  214.0050  145.9930 C   0  0  1  0  0  3  0  0  0  0  0  0
  157.5450  213.2930  148.1620 N   0  0  2  0  0  0  0  0  0  0  0  0
  162.5520  211.4480  139.2460 C   0  0  0  0  0  2  0  0  0  0  0  0
  161.7420  210.7560  138.1970 C   0  0  0  0  0  0  0  0  0  0  0  0
  160.6470  211.4890  137.5030 C   0  0  0  0  0  1  0  0  0  0  0  0
  161.9610  209.5870  137.9220 O   0  0  0  0  0  0  0  0  0  0  0  0
  1 16  1  0  0  0  0
  2 24  1  6  0  0  0
  2 12  1  0  0  0  0
  2 27  1  0  0  0  0
  3  4  1  0  0  0  0
  5  6  1  0  0  0  0
  6 18  1  6  0  0  0
  6 28  1  0  0  0  0
  7 17  1  0  0  0  0
  7 24  1  1  0  0  0
  9 26  1  1  0  0  0
 11  3  2  0  0  0  0
 12  8  1  6  0  0  0
 12 13  1  0  0  0  0
 13 11  1  0  0  0  0
 13 22  2  0  0  0  0
 14 22  1  0  0  0  0
 14 23  1  1  0  0  0
 15  9  1  0  0  0  0
 17 10  1  6  0  0  0
 17  8  1  0  0  0  0
 18 15  1  0  0  0  0
 19 16  1  0  0  0  0
 19  7  1  0  0  0  0
 20 29  1  6  0  0  0
 20 10  1  0  0  0  0
 20  1  1  0  0  0  0
 21  4  2  0  0  0  0
 22 21  1  0  0  0  0
 25  5  2  0  0  0  0
 27  5  1  6  0  0  0
 27 14  1  0  0  0  0
 28 23  1  1  0  0  0
 28  9  1  0  0  0  0
 30 29  1  0  0  0  0
 31 30  1  0  0  0  0
 32 30  2  0  0  0  0
M  END
>  <MODEL>
7

>  <REMARK>
 VINA RESULT:      -4.5      7.716     12.232
  Name = 
  2 active torsions:
  status: ('A' for Active; 'I' for Inactive)
    1  A    between atoms: C_20  and  C_29
    2  A    between atoms: C_29  and  C_30
                            x       y       z     vdW  Elec       q    Type
                         _______ _______ _______ _____ _____    ______ ____

>  <TORSDO>
F 2

$$$$
=
 OpenBabel11122413053D

 32 37  0  0  1  0  0  0  0  0999 V2000
  160.3930  205.8880  148.3720 C   0  0  0  0  0  2  0  0  0  0  0  0
  161.1620  209.0870  151.3900 C   0  0  2  0  0  3  0  0  0  0  0  0
  160.8180  206.3030  155.5280 C   0  0  0  0  0  3  0  0  0  0  0  0
  159.9470  207.2410  156.0800 C   0  0  0  0  0  3  0  0  0  0  0  0
  160.4630  211.5690  151.6100 C   0  0  0  0  0  0  0  0  0  0  0  0
  160.0170  212.6520  152.5400 C   0  0  1  0  0  3  0  0  0  0  0  0
  162.3230  208.2050  149.3380 C   0  0  1  0  0  3  0  0  0  0  0  0
  161.7920  206.6700  151.3430 C   0  0  0  0  0  2  0  0  0  0  0  0
  158.4080  213.3690  153.9660 C   0  0  2  0  0  3  0  0  0  0  0  0
  162.7800  205.6180  149.2720 C   0  0  0  0  0  2  0  0  0  0  0  0
  161.3780  206.5280  154.2690 C   0  0  0  0  0  3  0  0  0  0  0  0
  161.7530  207.9280  152.2110 C   0  0  2  0  0  3  0  0  0  0  0  0
  161.0660  207.6870  153.5410 C   0  0  0  0  0  0  0  0  0  0  0  0
  159.8360  209.8970  153.3530 C   0  0  1  0  0  3  0  0  0  0  0  0
  158.5760  214.4530  152.9900 N   0  0  0  0  0  2  0  0  0  0  0  0
  160.2340  207.3370  148.8390 C   0  0  0  0  0  2  0  0  0  0  0  0
  162.6770  206.8980  150.1150 C   0  0  1  0  0  3  0  0  0  0  0  0
  159.4760  213.9290  151.9600 C   0  0  0  0  0  2  0  0  0  0  0  0
  161.2910  208.1340  148.3640 O   0  0  0  0  0  0  0  0  0  0  0  0
  161.8510  205.5320  148.0570 C   0  0  1  0  0  3  0  0  0  0  0  0
  159.6480  208.4110  155.3820 C   0  0  0  0  0  3  0  0  0  0  0  0
  160.2270  208.6640  154.1280 C   0  0  0  0  0  0  0  0  0  0  0  0
  159.4430  211.1030  154.2350 C   0  0  0  0  0  2  0  0  0  0  0  0
  162.1470  209.4090  150.2660 C   0  0  0  0  0  2  0  0  0  0  0  0
  160.4740  211.7160  150.3970 O   0  0  0  0  0  0  0  0  0  0  0  0
  159.1240  213.7470  155.2640 C   0  0  0  0  0  1  0  0  0  0  0  0
  160.8980  210.2900  152.3010 C   0  0  1  0  0  3  0  0  0  0  0  0
  158.9340  212.1520  153.3470 N   0  0  2  0  0  0  0  0  0  0  0  0
  161.9390  204.1370  147.4570 C   0  0  0  0  0  2  0  0  0  0  0  0
  161.3710  204.1070  146.0740 C   0  0  0  0  0  0  0  0  0  0  0  0
  160.8600  202.8270  145.5110 C   0  0  0  0  0  1  0  0  0  0  0  0
  161.3440  205.1230  145.3970 O   0  0  0  0  0  0  0  0  0  0  0  0
  1 16  1  0  0  0  0
  2 24  1  6  0  0  0
  2 12  1  0  0  0  0
  2 27  1  0  0  0  0
  3  4  1  0  0  0  0
  5  6  1  0  0  0  0
  6 18  1  6  0  0  0
  6 28  1  0  0  0  0
  7 17  1  0  0  0  0
  7 24  1  1  0  0  0
  9 26  1  1  0  0  0
 11  3  2  0  0  0  0
 12  8  1  6  0  0  0
 12 13  1  0  0  0  0
 13 22  2  0  0  0  0
 13 11  1  0  0  0  0
 14 22  1  0  0  0  0
 14 23  1  1  0  0  0
 15  9  1  0  0  0  0
 17 10  1  6  0  0  0
 17  8  1  0  0  0  0
 18 15  1  0  0  0  0
 19 16  1  0  0  0  0
 19  7  1  0  0  0  0
 20 29  1  1  0  0  0
 20  1  1  0  0  0  0
 20 10  1  0  0  0  0
 21  4  2  0  0  0  0
 22 21  1  0  0  0  0
 25  5  2  0  0  0  0
 27  5  1  6  0  0  0
 27 14  1  0  0  0  0
 28  9  1  0  0  0  0
 28 23  1  1  0  0  0
 30 29  1  0  0  0  0
 31 30  1  0  0  0  0
 32 30  2  0  0  0  0
M  END
>  <MODEL>
8

>  <REMARK>
 VINA RESULT:      -4.2      3.532      8.619
  Name = 
  2 active torsions:
  status: ('A' for Active; 'I' for Inactive)
    1  A    between atoms: C_20  and  C_29
    2  A    between atoms: C_29  and  C_30
                            x       y       z     vdW  Elec       q    Type
                         _______ _______ _______ _____ _____    ______ ____

>  <TORSDO>
F 2

$$$$
