=
 OpenBabel11122414103D

 28 32  0  0  1  0  0  0  0  0999 V2000
  160.4900  209.8130  156.1700 C   0  0  0  0  0  0  0  0  0  0  0  0
  155.6460  210.6010  154.6370 O   0  0  0  0  0  1  0  0  0  0  0  0
  161.4400  211.4530  152.0260 O   0  0  0  0  0  0  0  0  0  0  0  0
  161.3970  212.3020  157.0730 C   0  0  0  0  0  3  0  0  0  0  0  0
  159.3890  212.6130  152.5390 C   0  0  2  0  0  3  0  0  0  0  0  0
  160.0500  208.5890  155.6660 O   0  0  0  0  0  0  0  0  0  0  0  0
  155.6720  211.0790  156.9560 C   0  0  0  0  0  1  0  0  0  0  0  0
  155.9540  211.6050  155.5630 C   0  0  1  0  0  0  0  0  0  0  0  0
  155.3730  213.4080  153.9720 C   0  0  1  0  0  3  0  0  0  0  0  0
  157.4510  212.0210  155.4760 C   0  0  2  0  0  3  0  0  0  0  0  0
  162.3210  209.2710  153.7250 O   0  0  0  0  0  1  0  0  0  0  0  0
  158.4560  210.6810  153.7520 C   0  0  1  0  0  3  0  0  0  0  0  0
  156.7910  213.9480  154.0250 C   0  0  0  0  0  2  0  0  0  0  0  0
  155.0430  212.7950  155.3150 C   0  0  0  0  0  2  0  0  0  0  0  0
  161.2790  208.3550  153.5710 C   0  0  2  0  0  3  0  0  0  0  0  0
  159.6790  210.9470  156.0080 C   0  0  0  0  0  0  0  0  0  0  0  0
  160.3070  211.4560  152.5780 C   0  0  0  0  0  0  0  0  0  0  0  0
  154.4890  214.4530  153.7070 O   0  0  0  0  0  1  0  0  0  0  0  0
  160.0880  208.9700  152.8220 C   0  0  0  0  0  2  0  0  0  0  0  0
  160.1500  212.1940  156.4530 C   0  0  0  0  0  3  0  0  0  0  0  0
  161.7430  209.9270  156.7890 C   0  0  0  0  0  3  0  0  0  0  0  0
  162.1920  211.1680  157.2440 C   0  0  0  0  0  3  0  0  0  0  0  0
  160.8970  207.7290  154.9150 C   0  0  0  0  0  2  0  0  0  0  0  0
  158.1210  212.0810  153.2100 C   0  0  1  0  0  3  0  0  0  0  0  0
  159.7830  210.3310  153.2610 N   0  0  0  0  0  0  0  0  0  0  0  0
  157.7870  212.9190  154.3570 N   0  0  2  0  0  0  0  0  0  0  0  0
  159.1040  212.9470  151.2140 O   0  0  0  0  0  1  0  0  0  0  0  0
  158.3510  210.8040  155.2860 C   0  0  1  0  0  3  0  0  0  0  0  0
  1 21  1  0  0  0  0
  2  8  1  0  0  0  0
  3 17  2  0  0  0  0
  4 22  1  0  0  0  0
  5 27  1  6  0  0  0
  5 17  1  0  0  0  0
  5 24  1  0  0  0  0
  6  1  1  0  0  0  0
  8  7  1  1  0  0  0
  9 18  1  1  0  0  0
  9 13  1  0  0  0  0
  9 14  1  0  0  0  0
 10  8  1  0  0  0  0
 12 28  1  0  0  0  0
 13 26  1  0  0  0  0
 14  8  1  0  0  0  0
 15 11  1  0  0  0  0
 15 23  1  0  0  0  0
 16  1  2  0  0  0  0
 16 20  1  0  0  0  0
 17 25  1  0  0  0  0
 19 25  1  0  0  0  0
 19 15  1  0  0  0  0
 20  4  2  0  0  0  0
 21 22  2  0  0  0  0
 23  6  1  0  0  0  0
 24 12  1  0  0  0  0
 24 26  1  0  0  0  0
 25 12  1  0  0  0  0
 26 10  1  0  0  0  0
 28 10  1  0  0  0  0
 28 16  1  0  0  0  0
M  END
>  <MODEL>
1

>  <REMARK>
 VINA RESULT:      -2.8      0.000      0.000
  Name = 
  0 active torsions:
  status: ('A' for Active; 'I' for Inactive)
                            x       y       z     vdW  Elec       q    Type
                         _______ _______ _______ _____ _____    ______ ____

>  <TORSDO>
F 0

$$$$
=
 OpenBabel11122414103D

 28 32  0  0  1  0  0  0  0  0999 V2000
  157.4430  211.5660  156.3270 C   0  0  0  0  0  0  0  0  0  0  0  0
  162.0020  209.4780  155.1910 O   0  0  0  0  0  1  0  0  0  0  0  0
  158.2500  213.9410  152.5230 O   0  0  0  0  0  0  0  0  0  0  0  0
  155.5830  210.1860  154.7570 C   0  0  0  0  0  3  0  0  0  0  0  0
  159.3890  211.8710  152.0430 C   0  0  2  0  0  3  0  0  0  0  0  0
  158.3820  212.2870  157.0650 O   0  0  0  0  0  0  0  0  0  0  0  0
  160.7140  207.7330  156.1420 C   0  0  0  0  0  1  0  0  0  0  0  0
  161.0230  208.5240  154.8860 C   0  0  1  0  0  0  0  0  0  0  0  0
  161.8040  208.3030  152.5490 C   0  0  1  0  0  3  0  0  0  0  0  0
  159.7140  209.1920  154.3780 C   0  0  2  0  0  3  0  0  0  0  0  0
  157.2690  214.4530  155.2070 O   0  0  0  0  0  1  0  0  0  0  0  0
  160.0840  211.5670  154.3890 C   0  0  1  0  0  3  0  0  0  0  0  0
  160.4570  208.7730  152.0280 C   0  0  0  0  0  2  0  0  0  0  0  0
  161.5830  207.5640  153.8500 C   0  0  0  0  0  2  0  0  0  0  0  0
  158.4540  214.4530  155.9450 C   0  0  2  0  0  3  0  0  0  0  0  0
  157.8920  210.6350  155.3780 C   0  0  0  0  0  0  0  0  0  0  0  0
  158.9170  212.9540  152.9320 C   0  0  0  0  0  0  0  0  0  0  0  0
  162.3870  207.4450  151.6190 O   0  0  0  0  0  1  0  0  0  0  0  0
  159.6440  213.9640  155.1080 C   0  0  0  0  0  2  0  0  0  0  0  0
  156.9500  209.9570  154.5860 C   0  0  0  0  0  3  0  0  0  0  0  0
  156.0700  211.7970  156.4920 C   0  0  0  0  0  3  0  0  0  0  0  0
  155.1420  211.1040  155.7120 C   0  0  0  0  0  3  0  0  0  0  0  0
  158.2790  213.6910  157.2610 C   0  0  0  0  0  2  0  0  0  0  0  0
  160.2540  211.0080  152.9650 C   0  0  1  0  0  3  0  0  0  0  0  0
  159.3180  212.8030  154.2820 N   0  0  0  0  0  0  0  0  0  0  0  0
  159.7440  209.6410  152.9760 N   0  0  2  0  0  0  0  0  0  0  0  0
  160.1860  212.4030  151.0290 O   0  0  0  0  0  1  0  0  0  0  0  0
  159.3860  210.4450  155.1840 C   0  0  1  0  0  3  0  0  0  0  0  0
  1 21  1  0  0  0  0
  1  6  1  0  0  0  0
  3 17  2  0  0  0  0
  4 22  1  0  0  0  0
  5 27  1  6  0  0  0
  5 17  1  0  0  0  0
  5 24  1  0  0  0  0
  6 23  1  0  0  0  0
  8  2  1  0  0  0  0
  8  7  1  1  0  0  0
  9 18  1  6  0  0  0
  9 14  1  0  0  0  0
 10  8  1  0  0  0  0
 10 28  1  0  0  0  0
 11 15  1  0  0  0  0
 12 28  1  0  0  0  0
 13  9  1  0  0  0  0
 13 26  1  0  0  0  0
 14  8  1  0  0  0  0
 15 23  1  0  0  0  0
 16  1  2  0  0  0  0
 17 25  1  0  0  0  0
 19 15  1  0  0  0  0
 20  4  2  0  0  0  0
 20 16  1  0  0  0  0
 22 21  2  0  0  0  0
 24 26  1  0  0  0  0
 24 12  1  0  0  0  0
 25 12  1  0  0  0  0
 25 19  1  0  0  0  0
 26 10  1  0  0  0  0
 28 16  1  0  0  0  0
M  END
>  <MODEL>
2

>  <REMARK>
 VINA RESULT:      -2.5      1.949      5.533
  Name = 
  0 active torsions:
  status: ('A' for Active; 'I' for Inactive)
                            x       y       z     vdW  Elec       q    Type
                         _______ _______ _______ _____ _____    ______ ____

>  <TORSDO>
F 0

$$$$
=
 OpenBabel11122414103D

 28 32  0  0  1  0  0  0  0  0999 V2000
  160.8950  209.2770  156.4280 C   0  0  0  0  0  0  0  0  0  0  0  0
  157.2650  211.5010  153.5470 O   0  0  0  0  0  1  0  0  0  0  0  0
  162.5410  208.0580  152.3580 O   0  0  0  0  0  0  0  0  0  0  0  0
  163.0320  211.0850  156.4560 C   0  0  0  0  0  3  0  0  0  0  0  0
  161.4710  210.1540  151.8310 C   0  0  2  0  0  3  0  0  0  0  0  0
  159.8490  208.3570  156.3640 O   0  0  0  0  0  0  0  0  0  0  0  0
  157.5770  212.9350  155.4060 C   0  0  0  0  0  1  0  0  0  0  0  0
  158.0850  212.5240  154.0380 C   0  0  1  0  0  0  0  0  0  0  0  0
  158.5710  213.3790  151.7680 C   0  0  1  0  0  3  0  0  0  0  0  0
  159.5630  212.0560  154.1710 C   0  0  2  0  0  3  0  0  0  0  0  0
  162.0970  206.8290  154.9500 O   0  0  0  0  0  1  0  0  0  0  0  0
  159.6450  209.7670  153.4400 C   0  0  1  0  0  3  0  0  0  0  0  0
  160.0540  213.1060  151.9550 C   0  0  0  0  0  2  0  0  0  0  0  0
  157.9750  213.7260  153.1150 C   0  0  0  0  0  2  0  0  0  0  0  0
  160.7210  206.5950  154.9190 C   0  0  2  0  0  3  0  0  0  0  0  0
  160.8390  210.4290  155.6280 C   0  0  0  0  0  0  0  0  0  0  0  0
  161.6030  208.8750  152.5590 C   0  0  0  0  0  0  0  0  0  0  0  0
  158.4050  214.4530  150.8950 O   0  0  0  0  0  1  0  0  0  0  0  0
  160.0560  207.2740  153.7140 C   0  0  0  0  0  2  0  0  0  0  0  0
  161.9240  211.3230  155.6390 C   0  0  0  0  0  3  0  0  0  0  0  0
  162.0120  209.0400  157.2420 C   0  0  0  0  0  3  0  0  0  0  0  0
  163.0750  209.9440  157.2600 C   0  0  0  0  0  3  0  0  0  0  0  0
  160.0740  206.9580  156.2580 C   0  0  0  0  0  2  0  0  0  0  0  0
  160.1280  210.7010  152.3170 C   0  0  1  0  0  3  0  0  0  0  0  0
  160.5550  208.6290  153.4800 N   0  0  0  0  0  0  0  0  0  0  0  0
  160.3230  212.0210  152.9100 N   0  0  2  0  0  0  0  0  0  0  0  0
  161.4010  209.9130  150.4590 O   0  0  0  0  0  1  0  0  0  0  0  0
  159.6430  210.6330  154.7160 C   0  0  1  0  0  3  0  0  0  0  0  0
  1 21  1  0  0  0  0
  2  8  1  0  0  0  0
  3 17  2  0  0  0  0
  4 22  1  0  0  0  0
  5 27  1  6  0  0  0
  5 24  1  0  0  0  0
  5 17  1  0  0  0  0
  6  1  1  0  0  0  0
  8 10  1  0  0  0  0
  8  7  1  1  0  0  0
  9 18  1  6  0  0  0
  9 13  1  0  0  0  0
  9 14  1  0  0  0  0
 10 28  1  0  0  0  0
 12 25  1  0  0  0  0
 12 28  1  0  0  0  0
 13 26  1  0  0  0  0
 14  8  1  0  0  0  0
 15 11  1  0  0  0  0
 15 23  1  0  0  0  0
 16 20  1  0  0  0  0
 16  1  2  0  0  0  0
 17 25  1  0  0  0  0
 19 15  1  0  0  0  0
 20  4  2  0  0  0  0
 21 22  2  0  0  0  0
 23  6  1  0  0  0  0
 24 26  1  0  0  0  0
 24 12  1  0  0  0  0
 25 19  1  0  0  0  0
 26 10  1  0  0  0  0
 28 16  1  0  0  0  0
M  END
>  <MODEL>
3

>  <REMARK>
 VINA RESULT:      -2.1      1.881      2.687
  Name = 
  0 active torsions:
  status: ('A' for Active; 'I' for Inactive)
                            x       y       z     vdW  Elec       q    Type
                         _______ _______ _______ _____ _____    ______ ____

>  <TORSDO>
F 0

$$$$
=
 OpenBabel11122414103D

 28 32  0  0  1  0  0  0  0  0999 V2000
  161.6950  210.0770  154.1020 C   0  0  0  0  0  0  0  0  0  0  0  0
  160.2670  214.4190  151.7500 O   0  0  0  0  0  1  0  0  0  0  0  0
  157.8490  210.7790  156.4420 O   0  0  0  0  0  0  0  0  0  0  0  0
  160.2460  208.0400  152.8430 C   0  0  0  0  0  3  0  0  0  0  0  0
  157.2960  211.7590  154.3090 C   0  0  2  0  0  3  0  0  0  0  0  0
  162.3720  211.1020  154.7620 O   0  0  0  0  0  0  0  0  0  0  0  0
  161.2980  213.0930  150.0800 C   0  0  0  0  0  1  0  0  0  0  0  0
  160.0250  213.3680  150.8570 C   0  0  1  0  0  0  0  0  0  0  0  0
  157.6430  213.9840  150.6010 C   0  0  1  0  0  3  0  0  0  0  0  0
  159.6030  212.0710  151.6050 C   0  0  2  0  0  3  0  0  0  0  0  0
  160.5900  210.0040  156.9990 O   0  0  0  0  0  1  0  0  0  0  0  0
  159.5910  212.5830  153.9540 C   0  0  1  0  0  3  0  0  0  0  0  0
  157.2100  212.6370  151.1530 C   0  0  0  0  0  2  0  0  0  0  0  0
  158.9550  213.8010  149.8700 C   0  0  0  0  0  2  0  0  0  0  0  0
  161.2510  211.2320  156.9250 C   0  0  2  0  0  3  0  0  0  0  0  0
  160.7190  210.4070  153.1490 C   0  0  0  0  0  0  0  0  0  0  0  0
  158.2130  211.4110  155.4140 C   0  0  0  0  0  0  0  0  0  0  0  0
  156.6770  214.4530  149.7130 O   0  0  0  0  0  1  0  0  0  0  0  0
  160.3390  212.3350  156.3700 C   0  0  0  0  0  2  0  0  0  0  0  0
  159.9880  209.3770  152.5330 C   0  0  0  0  0  3  0  0  0  0  0  0
  161.9480  208.7330  154.4130 C   0  0  0  0  0  3  0  0  0  0  0  0
  161.2290  207.7170  153.7810 C   0  0  0  0  0  3  0  0  0  0  0  0
  162.5740  211.0960  156.1690 C   0  0  0  0  0  2  0  0  0  0  0  0
  158.1590  212.6280  153.3920 C   0  0  1  0  0  3  0  0  0  0  0  0
  159.5340  211.8870  155.2330 N   0  0  0  0  0  0  0  0  0  0  0  0
  158.2010  212.0380  152.0580 N   0  0  2  0  0  0  0  0  0  0  0  0
  156.2330  212.5200  154.7970 O   0  0  0  0  0  1  0  0  0  0  0  0
  160.4290  211.8710  152.8720 C   0  0  1  0  0  3  0  0  0  0  0  0
  1 21  1  0  0  0  0
  1  6  1  0  0  0  0
  4 22  1  0  0  0  0
  5 27  1  1  0  0  0
  5 17  1  0  0  0  0
  6 23  1  0  0  0  0
  8  7  1  6  0  0  0
  8 10  1  0  0  0  0
  8  2  1  0  0  0  0
  9 18  1  6  0  0  0
  9 13  1  0  0  0  0
 10 26  1  0  0  0  0
 10 28  1  0  0  0  0
 12 25  1  0  0  0  0
 13 26  1  0  0  0  0
 14  9  1  0  0  0  0
 14  8  1  0  0  0  0
 15 11  1  0  0  0  0
 16  1  2  0  0  0  0
 17  3  2  0  0  0  0
 19 15  1  0  0  0  0
 20  4  2  0  0  0  0
 20 16  1  0  0  0  0
 22 21  2  0  0  0  0
 23 15  1  0  0  0  0
 24 12  1  0  0  0  0
 24  5  1  0  0  0  0
 25 17  1  0  0  0  0
 25 19  1  0  0  0  0
 26 24  1  0  0  0  0
 28 16  1  0  0  0  0
 28 12  1  0  0  0  0
M  END
>  <MODEL>
4

>  <REMARK>
 VINA RESULT:      -1.2      1.876      4.553
  Name = 
  0 active torsions:
  status: ('A' for Active; 'I' for Inactive)
                            x       y       z     vdW  Elec       q    Type
                         _______ _______ _______ _____ _____    ______ ____

>  <TORSDO>
F 0

$$$$
=
 OpenBabel11122414103D

 28 32  0  0  1  0  0  0  0  0999 V2000
  160.6490  212.7140  137.4000 C   0  0  0  0  0  0  0  0  0  0  0  0
  160.1500  207.7400  138.5980 O   0  0  0  0  0  1  0  0  0  0  0  0
  159.5720  213.2690  141.7920 O   0  0  0  0  0  0  0  0  0  0  0  0
  163.2320  213.4180  138.2170 C   0  0  0  0  0  3  0  0  0  0  0  0
  160.7120  211.1440  141.8450 C   0  0  2  0  0  3  0  0  0  0  0  0
  159.3440  212.3710  137.0460 O   0  0  0  0  0  0  0  0  0  0  0  0
  161.9050  207.8450  137.0110 C   0  0  0  0  0  1  0  0  0  0  0  0
  161.5200  207.9970  138.4690 C   0  0  1  0  0  0  0  0  0  0  0  0
  162.0070  207.1540  140.7440 C   0  0  1  0  0  3  0  0  0  0  0  0
  161.8750  209.4380  138.9350 C   0  0  2  0  0  3  0  0  0  0  0  0
  158.8580  214.4530  139.2400 O   0  0  0  0  0  1  0  0  0  0  0  0
  159.8260  210.4760  139.6450 C   0  0  1  0  0  3  0  0  0  0  0  0
  162.5410  208.5130  141.1610 C   0  0  0  0  0  2  0  0  0  0  0  0
  162.2900  206.9610  139.2700 C   0  0  0  0  0  2  0  0  0  0  0  0
  157.9790  213.5000  138.7230 C   0  0  2  0  0  3  0  0  0  0  0  0
  161.4300  211.7870  138.1090 C   0  0  0  0  0  0  0  0  0  0  0  0
  159.8460  212.1740  141.2330 C   0  0  0  0  0  0  0  0  0  0  0  0
  162.6520  206.1580  141.4760 O   0  0  0  0  0  1  0  0  0  0  0  0
  157.9760  212.2150  139.5630 C   0  0  0  0  0  2  0  0  0  0  0  0
  162.7200  212.1560  138.5260 C   0  0  0  0  0  3  0  0  0  0  0  0
  161.1660  213.9820  137.0950 C   0  0  0  0  0  3  0  0  0  0  0  0
  162.4560  214.3310  137.4990 C   0  0  0  0  0  3  0  0  0  0  0  0
  158.2490  213.2560  137.2360 C   0  0  0  0  0  2  0  0  0  0  0  0
  160.6190  209.9740  140.8640 C   0  0  1  0  0  3  0  0  0  0  0  0
  159.3170  211.8010  139.9730 N   0  0  0  0  0  0  0  0  0  0  0  0
  161.9550  209.6220  140.3940 N   0  0  2  0  0  0  0  0  0  0  0  0
  160.1870  210.7560  143.0780 O   0  0  0  0  0  1  0  0  0  0  0  0
  160.8250  210.4430  138.4700 C   0  0  1  0  0  3  0  0  0  0  0  0
  1 16  1  0  0  0  0
  4 20  1  0  0  0  0
  5 27  1  1  0  0  0
  6 23  1  0  0  0  0
  6  1  1  0  0  0  0
  8  7  1  6  0  0  0
  8  2  1  0  0  0  0
  8 10  1  0  0  0  0
  8 14  1  0  0  0  0
  9 13  1  0  0  0  0
  9 18  1  1  0  0  0
 10 26  1  0  0  0  0
 12 25  1  0  0  0  0
 12 24  1  0  0  0  0
 14  9  1  0  0  0  0
 15 11  1  0  0  0  0
 15 19  1  0  0  0  0
 16 28  1  0  0  0  0
 16 20  2  0  0  0  0
 17  3  2  0  0  0  0
 17  5  1  0  0  0  0
 19 25  1  0  0  0  0
 21  1  2  0  0  0  0
 21 22  1  0  0  0  0
 22  4  2  0  0  0  0
 23 15  1  0  0  0  0
 24  5  1  0  0  0  0
 25 17  1  0  0  0  0
 26 24  1  0  0  0  0
 26 13  1  0  0  0  0
 28 10  1  0  0  0  0
 28 12  1  0  0  0  0
M  END
>  <MODEL>
5

>  <REMARK>
 VINA RESULT:      -0.0     13.400     16.429
  Name = 
  0 active torsions:
  status: ('A' for Active; 'I' for Inactive)
                            x       y       z     vdW  Elec       q    Type
                         _______ _______ _______ _____ _____    ______ ____

>  <TORSDO>
F 0

$$$$
