=
 OpenBabel11122414023D

 28 32  0  0  1  0  0  0  0  0999 V2000
  160.9120  208.8570  155.7390 C   0  0  0  0  0  0  0  0  0  0  0  0
  159.0720  212.3820  157.2280 O   0  0  0  0  0  0  0  0  0  0  0  0
  162.3470  210.6920  151.0000 O   0  0  0  0  0  0  0  0  0  0  0  0
  162.6790  210.5770  157.0730 C   0  0  0  0  0  3  0  0  0  0  0  0
  160.3470  211.8020  151.5350 N   0  0  0  0  0  0  0  0  0  0  0  0
  160.0550  207.8810  154.9870 C   0  0  0  0  0  2  0  0  0  0  0  0
  159.9830  214.4530  156.2630 O   0  0  0  0  0  0  0  0  0  0  0  0
  159.0990  213.2650  156.0120 S   0  0  0  0  0  0  0  0  0  0  0  0
  156.8360  213.3460  154.4860 C   0  0  0  0  0  0  0  0  0  0  0  0
  159.7060  212.3790  154.5890 C   0  0  2  0  0  3  0  0  0  0  0  0
  162.0600  206.3870  152.2060 N   0  0  0  0  0  1  0  0  0  0  0  0
  159.5880  210.3450  153.2700 C   0  0  1  0  0  3  0  0  0  0  0  0
  157.4800  212.8080  153.4930 N   0  0  0  0  0  0  0  0  0  0  0  0
  157.5040  213.8030  155.6580 N   0  0  0  0  0  2  0  0  0  0  0  0
  161.2050  207.2940  152.8890 C   0  0  0  0  0  0  0  0  0  0  0  0
  160.7900  210.2570  155.5620 C   0  0  0  0  0  0  0  0  0  0  0  0
  161.2900  210.7620  151.6810 C   0  0  0  0  0  0  0  0  0  0  0  0
  155.3550  213.4380  154.4210 C   0  0  0  0  0  1  0  0  0  0  0  0
  160.6140  208.4290  152.1040 C   0  0  0  0  0  2  0  0  0  0  0  0
  161.6940  211.0990  156.2350 C   0  0  0  0  0  3  0  0  0  0  0  0
  161.8990  208.3460  156.5930 C   0  0  0  0  0  3  0  0  0  0  0  0
  162.7780  209.2000  157.2590 C   0  0  0  0  0  3  0  0  0  0  0  0
  160.8960  207.0480  154.1300 N   0  0  0  0  0  0  0  0  0  0  0  0
  159.2000  211.5480  152.3850 C   0  0  1  0  0  3  0  0  0  0  0  0
  160.9130  209.7830  152.7220 C   0  0  2  0  0  3  0  0  0  0  0  0
  158.9350  212.7180  153.3150 C   0  0  2  0  0  3  0  0  0  0  0  0
  160.3570  212.7730  150.4530 C   0  0  0  0  0  1  0  0  0  0  0  0
  159.6730  210.8600  154.7150 C   0  0  1  0  0  3  0  0  0  0  0  0
  1 21  1  0  0  0  0
  3 17  2  0  0  0  0
  4 22  1  0  0  0  0
  5 17  1  0  0  0  0
  5 24  1  0  0  0  0
  6  1  1  0  0  0  0
  8  7  2  0  0  0  0
  8  2  2  0  0  0  0
  9 14  1  0  0  0  0
 10 28  1  0  0  0  0
 10  8  1  1  0  0  0
 11 15  1  0  0  0  0
 12 28  1  0  0  0  0
 13  9  2  0  0  0  0
 14  8  1  0  0  0  0
 15 23  2  0  0  0  0
 16  1  2  0  0  0  0
 16 20  1  0  0  0  0
 17 25  1  0  0  0  0
 18  9  1  0  0  0  0
 19 25  1  0  0  0  0
 19 15  1  0  0  0  0
 20  4  2  0  0  0  0
 21 22  2  0  0  0  0
 23  6  1  0  0  0  0
 24 12  1  0  0  0  0
 24 26  1  0  0  0  0
 25 12  1  0  0  0  0
 26 13  1  0  0  0  0
 26 10  1  0  0  0  0
 27  5  1  0  0  0  0
 28 16  1  0  0  0  0
M  END
>  <MODEL>
1

>  <REMARK>
 VINA RESULT:      -5.8      0.000      0.000
  Name = 
  0 active torsions:
  status: ('A' for Active; 'I' for Inactive)
                            x       y       z     vdW  Elec       q    Type
                         _______ _______ _______ _____ _____    ______ ____

>  <TORSDO>
F 0

$$$$
