=
 OpenBabel11122413363D

 37 43  0  0  1  0  0  0  0  0999 V2000
  161.7860  210.1810  155.1140 C   0  0  0  0  0  2  0  0  0  0  0  0
  161.8070  206.6340  151.2270 C   0  0  0  0  0  0  0  0  0  0  0  0
  161.4470  210.9490  151.3170 C   0  0  1  0  0  3  0  0  0  0  0  0
  161.7240  210.3630  156.6290 C   0  0  2  0  0  3  0  0  0  0  0  0
  158.1000  211.3520  153.1450 O   0  0  0  0  0  0  0  0  0  0  0  0
  161.7350  208.8220  149.9580 C   0  0  1  0  0  3  0  0  0  0  0  0
  160.4800  211.0120  152.5060 C   0  0  1  0  0  3  0  0  0  0  0  0
  160.0630  212.2890  156.0830 C   0  0  0  0  0  0  0  0  0  0  0  0
  161.9810  209.5180  151.3030 C   0  0  2  0  0  3  0  0  0  0  0  0
  159.0870  211.5990  152.1600 C   0  0  2  0  0  3  0  0  0  0  0  0
  162.3430  209.6090  148.8900 N   0  0  0  0  0  2  0  0  0  0  0  0
  161.0360  211.6700  157.0580 C   0  0  0  0  0  2  0  0  0  0  0  0
  161.4550  208.7750  152.4630 N   0  0  2  0  0  0  0  0  0  0  0  0
  162.9910  206.1630  152.0490 C   0  0  0  0  0  1  0  0  0  0  0  0
  160.4980  212.8430  149.8450 C   0  0  0  0  0  2  0  0  0  0  0  0
  161.6940  210.9260  148.7540 C   0  0  0  0  0  2  0  0  0  0  0  0
  160.8680  207.4720  152.1110 C   0  0  0  0  0  2  0  0  0  0  0  0
  159.2020  211.5030  155.2360 N   0  0  0  0  0  0  0  0  0  0  0  0
  158.3390  212.1740  154.2660 C   0  0  0  0  0  2  0  0  0  0  0  0
  160.8290  211.3520  149.9560 C   0  0  1  0  0  3  0  0  0  0  0  0
  160.3950  209.5840  153.0560 C   0  0  1  0  0  3  0  0  0  0  0  0
  162.3220  207.4200  150.0120 C   0  0  0  0  0  2  0  0  0  0  0  0
  159.1280  213.0780  151.7030 C   0  0  1  0  0  3  0  0  0  0  0  0
  161.0480  205.4200  150.7340 C   0  0  0  0  0  1  0  0  0  0  0  0
  159.2330  210.0440  155.2670 C   0  0  0  0  0  2  0  0  0  0  0  0
  159.9980  213.5460  156.0390 O   0  0  0  0  0  0  0  0  0  0  0  0
  160.5010  209.5250  154.5870 C   0  0  2  0  0  3  0  0  0  0  0  0
  160.3450  213.4750  151.0970 O   0  0  0  0  0  0  0  0  0  0  0  0
  156.7770  213.9390  151.7120 C   0  0  0  0  0  3  0  0  0  0  0  0
  157.8980  213.5440  150.9730 C   0  0  0  0  0  0  0  0  0  0  0  0
  157.8670  213.6140  149.5730 C   0  0  0  0  0  3  0  0  0  0  0  0
  156.6900  214.1300  147.5660 F   0  0  0  0  0  0  0  0  0  0  0  0
  155.5970  214.4530  149.6590 C   0  0  0  0  0  3  0  0  0  0  0  0
  156.7170  214.0660  148.9180 C   0  0  0  0  0  0  0  0  0  0  0  0
  155.6270  214.3910  151.0560 C   0  0  0  0  0  3  0  0  0  0  0  0
  163.7170  211.6460  157.1870 N   0  0  0  0  0  1  0  0  0  0  0  0
  163.1200  210.3220  157.2230 C   0  0  0  0  0  2  0  0  0  0  0  0
  1  4  1  0  0  0  0
  2 14  1  0  0  0  0
  2 17  1  0  0  0  0
  3  7  1  0  0  0  0
  4 12  1  0  0  0  0
  4 37  1  0  0  0  0
  5 19  1  0  0  0  0
  6 22  1  0  0  0  0
  6  9  1  0  0  0  0
  7 21  1  0  0  0  0
  8 12  1  0  0  0  0
  9  3  1  0  0  0  0
  9 13  1  0  0  0  0
 10  7  1  0  0  0  0
 10  5  1  0  0  0  0
 11  6  1  0  0  0  0
 13 21  1  0  0  0  0
 15 20  1  0  0  0  0
 15 28  1  0  0  0  0
 16 11  1  0  0  0  0
 16 20  1  0  0  0  0
 17 13  1  0  0  0  0
 18 25  1  0  0  0  0
 18  8  1  0  0  0  0
 19 18  1  0  0  0  0
 20  3  1  0  0  0  0
 21 27  1  0  0  0  0
 22  2  1  0  0  0  0
 23 10  1  0  0  0  0
 24  2  1  0  0  0  0
 26  8  2  0  0  0  0
 27  1  1  0  0  0  0
 27 25  1  0  0  0  0
 28 23  1  0  0  0  0
 30 23  1  0  0  0  0
 30 29  2  0  0  0  0
 31 30  1  0  0  0  0
 32 34  1  0  0  0  0
 33 35  2  0  0  0  0
 34 31  2  0  0  0  0
 34 33  1  0  0  0  0
 35 29  1  0  0  0  0
 36 37  1  0  0  0  0
M  END
>  <MODEL>
1

>  <REMARK>
 VINA RESULT:      -6.7      0.000      0.000
  Name = 
  2 active torsions:
  status: ('A' for Active; 'I' for Inactive)
    1  A    between atoms: C_4  and  C_37
    2  A    between atoms: C_23  and  C_30
                            x       y       z     vdW  Elec       q    Type
                         _______ _______ _______ _____ _____    ______ ____

>  <TORSDO>
F 2

$$$$
