=
 OpenBabel11122412323D

 30 35  0  0  1  0  0  0  0  0999 V2000
  161.4730  206.3690  150.1190 C   0  0  1  0  0  3  0  0  0  0  0  0
  161.2250  203.8290  149.9210 C   0  0  0  0  0  0  0  0  0  0  0  0
  160.8360  206.0630  154.3990 C   0  0  0  0  0  2  0  0  0  0  0  0
  161.7970  207.4890  151.1350 C   0  0  1  0  0  3  0  0  0  0  0  0
  162.3970  206.4250  149.0570 O   0  0  0  0  0  0  0  0  0  0  0  0
  162.0750  209.9390  148.4500 O   0  0  0  0  0  0  0  0  0  0  0  0
  160.4060  210.3060  151.9220 C   0  0  1  0  0  3  0  0  0  0  0  0
  161.9660  208.8340  149.0450 C   0  0  0  0  0  0  0  0  0  0  0  0
  160.2070  209.5950  153.2590 C   0  0  2  0  0  3  0  0  0  0  0  0
  160.7700  207.5340  154.5930 C   0  0  0  0  0  0  0  0  0  0  0  0
  162.0830  207.5510  148.2530 C   0  0  2  0  0  3  0  0  0  0  0  0
  161.7000  208.7870  150.4610 N   0  0  0  0  0  0  0  0  0  0  0  0
  161.0060  202.5820  150.5110 C   0  0  0  0  0  3  0  0  0  0  0  0
  160.6750  210.5850  154.3060 C   0  0  0  0  0  2  0  0  0  0  0  0
  160.2840  211.7910  152.2270 C   0  0  0  0  0  2  0  0  0  0  0  0
  161.3130  203.9150  148.5380 O   0  0  0  0  0  1  0  0  0  0  0  0
  161.3680  206.0330  152.9890 C   0  0  2  0  0  3  0  0  0  0  0  0
  160.8880  202.4850  151.8980 C   0  0  0  0  0  3  0  0  0  0  0  0
  161.3460  204.9740  150.7270 C   0  0  0  0  0  0  0  0  0  0  0  0
  160.8520  207.2920  152.3190 C   0  0  1  0  0  3  0  0  0  0  0  0
  160.5820  208.0610  155.7220 O   0  0  0  0  0  0  0  0  0  0  0  0
  160.8750  208.2930  153.3810 N   0  0  0  0  0  0  0  0  0  0  0  0
  160.3230  211.9450  153.7400 C   0  0  0  0  0  2  0  0  0  0  0  0
  162.9830  210.1530  152.0830 C   0  0  0  0  0  1  0  0  0  0  0  0
  160.9770  203.5990  152.6710 N   0  0  0  0  0  0  0  0  0  0  0  0
  161.1680  204.8300  152.1240 C   0  0  0  0  0  0  0  0  0  0  0  0
  161.7350  210.0400  151.2100 C   0  0  2  0  0  3  0  0  0  0  0  0
  160.8410  207.3130  147.4000 C   0  0  0  0  0  2  0  0  0  0  0  0
  160.3270  206.3160  145.5020 C   0  0  0  0  0  1  0  0  0  0  0  0
  160.9540  206.0970  146.7270 O   0  0  0  0  0  0  0  0  0  0  0  0
  1  5  1  6  0  0  0
  1 19  1  0  0  0  0
  1  4  1  0  0  0  0
  2 13  2  0  0  0  0
  2 19  1  0  0  0  0
  3 10  1  0  0  0  0
  4 12  1  6  0  0  0
  4 20  1  0  0  0  0
  6  8  2  0  0  0  0
  7 15  1  1  0  0  0
  7  9  1  0  0  0  0
  8 12  1  0  0  0  0
  9 22  1  0  0  0  0
  9 14  1  1  0  0  0
 10 21  2  0  0  0  0
 11 28  1  1  0  0  0
 11  8  1  0  0  0  0
 11  5  1  0  0  0  0
 12 27  1  0  0  0  0
 13 18  1  0  0  0  0
 15 23  1  0  0  0  0
 16  2  1  0  0  0  0
 17  3  1  1  0  0  0
 18 25  2  0  0  0  0
 19 26  2  0  0  0  0
 20 17  1  0  0  0  0
 20 22  1  1  0  0  0
 22 10  1  0  0  0  0
 23 14  1  0  0  0  0
 26 25  1  0  0  0  0
 26 17  1  0  0  0  0
 27  7  1  0  0  0  0
 27 24  1  1  0  0  0
 29 30  1  0  0  0  0
 30 28  1  0  0  0  0
M  END
>  <MODEL>
1

>  <REMARK>
 VINA RESULT:      -8.6      0.000      0.000
  Name = 
  2 active torsions:
  status: ('A' for Active; 'I' for Inactive)
    1  A    between atoms: C_11  and  C_28
    2  A    between atoms: C_28  and  O_30
                            x       y       z     vdW  Elec       q    Type
                         _______ _______ _______ _____ _____    ______ ____

>  <TORSDO>
F 2

$$$$
=
 OpenBabel11122412323D

 30 35  0  0  1  0  0  0  0  0999 V2000
  161.2730  209.6600  151.6660 C   0  0  1  0  0  3  0  0  0  0  0  0
  161.1270  211.9630  150.5570 C   0  0  0  0  0  0  0  0  0  0  0  0
  161.9780  207.8710  147.7770 C   0  0  0  0  0  2  0  0  0  0  0  0
  161.8220  208.2320  151.4460 C   0  0  1  0  0  3  0  0  0  0  0  0
  161.8290  210.1930  152.8460 O   0  0  0  0  0  0  0  0  0  0  0  0
  161.1320  207.3570  154.9170 O   0  0  0  0  0  0  0  0  0  0  0  0
  160.5710  205.2560  151.7150 C   0  0  1  0  0  3  0  0  0  0  0  0
  161.2730  208.0400  153.8670 C   0  0  0  0  0  0  0  0  0  0  0  0
  160.8270  205.2380  150.2090 C   0  0  2  0  0  3  0  0  0  0  0  0
  161.8870  206.4810  148.2920 C   0  0  0  0  0  0  0  0  0  0  0  0
  161.2210  209.5490  153.9540 C   0  0  2  0  0  3  0  0  0  0  0  0
  161.4500  207.3950  152.5910 N   0  0  0  0  0  0  0  0  0  0  0  0
  161.1690  212.7630  149.4140 C   0  0  0  0  0  3  0  0  0  0  0  0
  161.5310  203.9230  149.9450 C   0  0  0  0  0  2  0  0  0  0  0  0
  160.4600  203.7960  152.1270 C   0  0  0  0  0  2  0  0  0  0  0  0
  160.7880  212.5410  151.7740 O   0  0  0  0  0  1  0  0  0  0  0  0
  162.0600  208.6060  149.0910 C   0  0  2  0  0  3  0  0  0  0  0  0
  161.4820  212.1900  148.1810 C   0  0  0  0  0  3  0  0  0  0  0  0
  161.4180  210.5910  150.4640 C   0  0  0  0  0  0  0  0  0  0  0  0
  161.2920  207.7630  150.0920 C   0  0  1  0  0  3  0  0  0  0  0  0
  162.0180  205.4730  147.5480 O   0  0  0  0  0  0  0  0  0  0  0  0
  161.5760  206.3890  149.6890 N   0  0  0  0  0  0  0  0  0  0  0  0
  160.9450  202.9590  150.9540 C   0  0  0  0  0  2  0  0  0  0  0  0
  163.0810  205.5580  152.2640 C   0  0  0  0  0  1  0  0  0  0  0  0
  161.7340  210.8580  148.0910 N   0  0  0  0  0  0  0  0  0  0  0  0
  161.6790  210.0490  149.1830 C   0  0  0  0  0  0  0  0  0  0  0  0
  161.6360  205.9470  152.5700 C   0  0  2  0  0  3  0  0  0  0  0  0
  159.7950  210.0400  154.1870 C   0  0  0  0  0  2  0  0  0  0  0  0
  160.0980  211.8900  155.3470 C   0  0  0  0  0  1  0  0  0  0  0  0
  159.6800  210.5670  155.4740 O   0  0  0  0  0  0  0  0  0  0  0  0
  1 19  1  6  0  0  0
  1  5  1  0  0  0  0
  2 16  1  0  0  0  0
  3 10  1  0  0  0  0
  4  1  1  0  0  0  0
  4 12  1  1  0  0  0
  5 11  1  0  0  0  0
  7 15  1  1  0  0  0
  7 27  1  0  0  0  0
  8 11  1  0  0  0  0
  8  6  2  0  0  0  0
  9 14  1  1  0  0  0
  9  7  1  0  0  0  0
 10 22  1  0  0  0  0
 11 28  1  6  0  0  0
 12  8  1  0  0  0  0
 13  2  2  0  0  0  0
 14 23  1  0  0  0  0
 17  3  1  6  0  0  0
 17 26  1  0  0  0  0
 17 20  1  0  0  0  0
 18 13  1  0  0  0  0
 19  2  1  0  0  0  0
 20 22  1  6  0  0  0
 20  4  1  0  0  0  0
 21 10  2  0  0  0  0
 22  9  1  0  0  0  0
 23 15  1  0  0  0  0
 25 18  2  0  0  0  0
 25 26  1  0  0  0  0
 26 19  2  0  0  0  0
 27 24  1  6  0  0  0
 27 12  1  0  0  0  0
 28 30  1  0  0  0  0
 29 30  1  0  0  0  0
M  END
>  <MODEL>
2

>  <REMARK>
 VINA RESULT:      -6.5      1.901      7.001
  Name = 
  2 active torsions:
  status: ('A' for Active; 'I' for Inactive)
    1  A    between atoms: C_11  and  C_28
    2  A    between atoms: C_28  and  O_30
                            x       y       z     vdW  Elec       q    Type
                         _______ _______ _______ _____ _____    ______ ____

>  <TORSDO>
F 2

$$$$
=
 OpenBabel11122412323D

 30 35  0  0  1  0  0  0  0  0999 V2000
  161.3440  204.7370  148.4970 C   0  0  1  0  0  3  0  0  0  0  0  0
  160.9150  202.3330  147.7300 C   0  0  0  0  0  0  0  0  0  0  0  0
  161.0040  203.4440  152.6250 C   0  0  0  0  0  2  0  0  0  0  0  0
  161.8150  205.5640  149.7160 C   0  0  1  0  0  3  0  0  0  0  0  0
  162.1900  205.0020  147.4020 O   0  0  0  0  0  0  0  0  0  0  0  0
  162.0570  208.5710  147.6680 O   0  0  0  0  0  0  0  0  0  0  0  0
  160.6750  208.1720  151.2610 C   0  0  1  0  0  3  0  0  0  0  0  0
  161.9190  207.3610  147.9950 C   0  0  0  0  0  0  0  0  0  0  0  0
  160.5280  207.1720  152.4060 C   0  0  2  0  0  3  0  0  0  0  0  0
  161.0510  204.8270  153.1640 C   0  0  0  0  0  0  0  0  0  0  0  0
  161.8920  206.3020  146.9160 C   0  0  2  0  0  3  0  0  0  0  0  0
  161.7550  206.9890  149.3770 N   0  0  0  0  0  0  0  0  0  0  0  0
  160.6570  200.9930  148.0270 C   0  0  0  0  0  3  0  0  0  0  0  0
  161.1370  207.8590  153.6110 C   0  0  0  0  0  2  0  0  0  0  0  0
  160.6750  209.5450  151.9170 C   0  0  0  0  0  2  0  0  0  0  0  0
  160.9070  202.7440  146.4040 O   0  0  0  0  0  1  0  0  0  0  0  0
  161.4280  203.7280  151.2050 C   0  0  2  0  0  3  0  0  0  0  0  0
  160.6350  200.5720  149.3570 C   0  0  0  0  0  3  0  0  0  0  0  0
  161.1700  203.2440  148.7690 C   0  0  0  0  0  0  0  0  0  0  0  0
  160.9490  205.1340  150.8980 C   0  0  1  0  0  3  0  0  0  0  0  0
  160.9810  205.0760  154.3960 O   0  0  0  0  0  0  0  0  0  0  0  0
  161.1160  205.8490  152.1590 N   0  0  0  0  0  0  0  0  0  0  0  0
  160.8350  209.3290  153.4140 C   0  0  0  0  0  2  0  0  0  0  0  0
  163.2420  207.8640  151.1560 C   0  0  0  0  0  1  0  0  0  0  0  0
  160.8540  201.4620  150.3590 N   0  0  0  0  0  0  0  0  0  0  0  0
  161.0860  202.7780  150.1030 C   0  0  0  0  0  0  0  0  0  0  0  0
  161.9280  208.0230  150.3940 C   0  0  2  0  0  3  0  0  0  0  0  0
  160.5780  206.3340  146.1420 C   0  0  0  0  0  2  0  0  0  0  0  0
  161.3670  205.7640  144.1640 C   0  0  0  0  0  1  0  0  0  0  0  0
  160.5570  205.3050  145.2010 O   0  0  0  0  0  0  0  0  0  0  0  0
  1  5  1  6  0  0  0
  1 19  1  0  0  0  0
  1  4  1  0  0  0  0
  2 13  2  0  0  0  0
  2 19  1  0  0  0  0
  3 10  1  0  0  0  0
  4 12  1  6  0  0  0
  4 20  1  0  0  0  0
  6  8  2  0  0  0  0
  7 15  1  1  0  0  0
  7  9  1  0  0  0  0
  8 12  1  0  0  0  0
  9 14  1  1  0  0  0
 10 21  2  0  0  0  0
 11 28  1  1  0  0  0
 11  5  1  0  0  0  0
 11  8  1  0  0  0  0
 12 27  1  0  0  0  0
 13 18  1  0  0  0  0
 15 23  1  0  0  0  0
 16  2  1  0  0  0  0
 17  3  1  1  0  0  0
 18 25  2  0  0  0  0
 19 26  2  0  0  0  0
 20 17  1  0  0  0  0
 20 22  1  1  0  0  0
 22  9  1  0  0  0  0
 22 10  1  0  0  0  0
 23 14  1  0  0  0  0
 26 25  1  0  0  0  0
 26 17  1  0  0  0  0
 27 24  1  1  0  0  0
 27  7  1  0  0  0  0
 29 30  1  0  0  0  0
 30 28  1  0  0  0  0
M  END
>  <MODEL>
3

>  <REMARK>
 VINA RESULT:      -6.4      1.736      2.530
  Name = 
  2 active torsions:
  status: ('A' for Active; 'I' for Inactive)
    1  A    between atoms: C_11  and  C_28
    2  A    between atoms: C_28  and  O_30
                            x       y       z     vdW  Elec       q    Type
                         _______ _______ _______ _____ _____    ______ ____

>  <TORSDO>
F 2

$$$$
=
 OpenBabel11122412323D

 30 35  0  0  1  0  0  0  0  0999 V2000
  161.5910  208.1600  149.5350 C   0  0  1  0  0  3  0  0  0  0  0  0
  161.4950  206.1270  147.9830 C   0  0  0  0  0  0  0  0  0  0  0  0
  160.9060  205.5530  152.9340 C   0  0  0  0  0  2  0  0  0  0  0  0
  161.8330  208.5610  151.0080 C   0  0  1  0  0  3  0  0  0  0  0  0
  162.5270  208.8210  148.7150 O   0  0  0  0  0  0  0  0  0  0  0  0
  162.0100  212.0850  150.0930 O   0  0  0  0  0  0  0  0  0  0  0  0
  160.2680  210.4400  153.1320 C   0  0  1  0  0  3  0  0  0  0  0  0
  161.9560  210.8300  149.9900 C   0  0  0  0  0  0  0  0  0  0  0  0
  160.0900  209.1100  153.8610 C   0  0  2  0  0  3  0  0  0  0  0  0
  160.7520  206.6790  153.8900 C   0  0  0  0  0  0  0  0  0  0  0  0
  162.1600  210.1890  148.6360 C   0  0  2  0  0  3  0  0  0  0  0  0
  161.6710  210.0120  151.1410 N   0  0  0  0  0  0  0  0  0  0  0  0
  161.3400  204.7520  147.7930 C   0  0  0  0  0  3  0  0  0  0  0  0
  160.4830  209.3910  155.2970 C   0  0  0  0  0  2  0  0  0  0  0  0
  160.0550  211.5150  154.1870 C   0  0  0  0  0  2  0  0  0  0  0  0
  161.6000  206.9540  146.8720 O   0  0  0  0  0  1  0  0  0  0  0  0
  161.4610  206.3160  151.7580 C   0  0  2  0  0  3  0  0  0  0  0  0
  161.2060  203.9130  148.8990 C   0  0  0  0  0  3  0  0  0  0  0  0
  161.5360  206.6550  149.2850 C   0  0  0  0  0  0  0  0  0  0  0  0
  160.8830  207.7140  151.8540 C   0  0  1  0  0  3  0  0  0  0  0  0
  160.5150  206.5010  155.1150 O   0  0  0  0  0  0  0  0  0  0  0  0
  160.8310  207.9790  153.2880 N   0  0  0  0  0  0  0  0  0  0  0  0
  160.0610  210.8240  155.5420 C   0  0  0  0  0  2  0  0  0  0  0  0
  162.8470  210.3280  153.2990 C   0  0  0  0  0  1  0  0  0  0  0  0
  161.2170  204.4310  150.1550 N   0  0  0  0  0  0  0  0  0  0  0  0
  161.3450  205.7680  150.3710 C   0  0  0  0  0  0  0  0  0  0  0  0
  161.6210  210.6570  152.4500 C   0  0  2  0  0  3  0  0  0  0  0  0
  160.9480  210.4030  147.7350 C   0  0  0  0  0  2  0  0  0  0  0  0
  159.8590  212.2250  147.1400 C   0  0  0  0  0  1  0  0  0  0  0  0
  161.0940  211.5910  147.0190 O   0  0  0  0  0  0  0  0  0  0  0  0
  1  5  1  6  0  0  0
  1  4  1  0  0  0  0
  2 19  1  0  0  0  0
  3 10  1  0  0  0  0
  4 12  1  6  0  0  0
  4 20  1  0  0  0  0
  7  9  1  0  0  0  0
  7 15  1  1  0  0  0
  8  6  2  0  0  0  0
  8 12  1  0  0  0  0
  9 14  1  1  0  0  0
 10 21  2  0  0  0  0
 11 28  1  6  0  0  0
 11  5  1  0  0  0  0
 11  8  1  0  0  0  0
 12 27  1  0  0  0  0
 13  2  2  0  0  0  0
 13 18  1  0  0  0  0
 14 23  1  0  0  0  0
 15 23  1  0  0  0  0
 16  2  1  0  0  0  0
 17 20  1  0  0  0  0
 17  3  1  1  0  0  0
 18 25  2  0  0  0  0
 19  1  1  0  0  0  0
 19 26  2  0  0  0  0
 20 22  1  1  0  0  0
 22  9  1  0  0  0  0
 22 10  1  0  0  0  0
 25 26  1  0  0  0  0
 26 17  1  0  0  0  0
 27  7  1  0  0  0  0
 27 24  1  1  0  0  0
 30 29  1  0  0  0  0
 30 28  1  0  0  0  0
M  END
>  <MODEL>
4

>  <REMARK>
 VINA RESULT:      -5.6      1.646      2.551
  Name = 
  2 active torsions:
  status: ('A' for Active; 'I' for Inactive)
    1  A    between atoms: C_11  and  C_28
    2  A    between atoms: C_28  and  O_30
                            x       y       z     vdW  Elec       q    Type
                         _______ _______ _______ _____ _____    ______ ____

>  <TORSDO>
F 2

$$$$
