=
 OpenBabel11122412393D

 30 35  0  0  1  0  0  0  0  0999 V2000
  161.2270  208.5700  151.8590 C   0  0  0  0  0  0  0  0  0  0  0  0
  160.8610  209.4740  154.1740 C   0  0  0  0  0  0  0  0  0  0  0  0
  160.9900  204.6940  153.2310 N   0  0  0  0  0  2  0  0  0  0  0  0
  161.3390  207.4460  150.9910 C   0  0  0  0  0  0  0  0  0  0  0  0
  161.2490  209.9440  151.2410 C   0  0  0  0  0  2  0  0  0  0  0  0
  162.3430  209.0780  147.8990 O   0  0  0  0  0  0  0  0  0  0  0  0
  162.0900  205.5130  148.5950 C   0  0  1  0  0  3  0  0  0  0  0  0
  162.0240  208.9270  149.1110 C   0  0  0  0  0  0  0  0  0  0  0  0
  161.8630  204.4710  149.6780 C   0  0  2  0  0  3  0  0  0  0  0  0
  161.2300  204.0830  152.0530 C   0  0  0  0  0  0  0  0  0  0  0  0
  162.2580  210.0370  150.0990 C   0  0  1  0  0  3  0  0  0  0  0  0
  161.5050  207.6700  149.5750 N   0  0  0  0  0  0  0  0  0  0  0  0
  160.6250  209.2260  155.5300 C   0  0  0  0  0  3  0  0  0  0  0  0
  160.9490  203.4310  149.0620 C   0  0  0  0  0  2  0  0  0  0  0  0
  161.9760  204.7500  147.2840 C   0  0  0  0  0  2  0  0  0  0  0  0
  160.9680  210.7990  153.7710 O   0  0  0  0  0  1  0  0  0  0  0  0
  161.0170  205.9960  152.9000 C   0  0  0  0  0  0  0  0  0  0  0  0
  160.5170  207.9230  156.0100 C   0  0  0  0  0  3  0  0  0  0  0  0
  160.9920  208.3920  153.2600 C   0  0  0  0  0  0  0  0  0  0  0  0
  161.2570  206.1580  151.5580 C   0  0  0  0  0  0  0  0  0  0  0  0
  161.3270  202.8300  151.9570 O   0  0  0  0  0  0  0  0  0  0  0  0
  161.3900  204.9260  150.9990 N   0  0  0  0  0  0  0  0  0  0  0  0
  161.3150  203.4140  147.5920 C   0  0  0  0  0  2  0  0  0  0  0  0
  159.6350  206.3090  148.7020 C   0  0  0  0  0  1  0  0  0  0  0  0
  160.6450  206.8480  155.1350 C   0  0  0  0  0  3  0  0  0  0  0  0
  160.8790  207.0700  153.7740 C   0  0  0  0  0  0  0  0  0  0  0  0
  161.1130  206.6790  148.5870 C   0  0  2  0  0  3  0  0  0  0  0  0
  162.2380  211.4310  149.4640 C   0  0  0  0  0  2  0  0  0  0  0  0
  160.6880  213.3080  149.1910 C   0  0  0  0  0  2  0  0  0  0  0  0
  161.0560  212.2420  149.8960 C   0  0  0  0  0  3  0  0  0  0  0  0
  1 19  1  0  0  0  0
  2 13  1  0  0  0  0
  4 20  1  0  0  0  0
  4  1  2  0  0  0  0
  5  1  1  0  0  0  0
  6  8  2  0  0  0  0
  7 15  1  6  0  0  0
  7  9  1  0  0  0  0
  8 12  1  0  0  0  0
  8 11  1  0  0  0  0
  9 14  1  6  0  0  0
  9 22  1  0  0  0  0
 10  3  1  0  0  0  0
 11 28  1  6  0  0  0
 11  5  1  0  0  0  0
 12  4  1  0  0  0  0
 13 18  2  0  0  0  0
 15 23  1  0  0  0  0
 16  2  1  0  0  0  0
 17  3  1  0  0  0  0
 17 26  1  0  0  0  0
 19 26  1  0  0  0  0
 19  2  2  0  0  0  0
 20 17  2  0  0  0  0
 21 10  2  0  0  0  0
 22 20  1  0  0  0  0
 22 10  1  0  0  0  0
 23 14  1  0  0  0  0
 25 18  1  0  0  0  0
 26 25  2  0  0  0  0
 27  7  1  0  0  0  0
 27 24  1  1  0  0  0
 27 12  1  0  0  0  0
 28 30  1  0  0  0  0
 29 30  2  0  0  0  0
M  END
>  <MODEL>
1

>  <REMARK>
 VINA RESULT:      -7.6      0.000      0.000
  Name = 
  2 active torsions:
  status: ('A' for Active; 'I' for Inactive)
    1  A    between atoms: C_11  and  C_28
    2  A    between atoms: C_28  and  C_30
                            x       y       z     vdW  Elec       q    Type
                         _______ _______ _______ _____ _____    ______ ____

>  <TORSDO>
F 2

$$$$
=
 OpenBabel11122412393D

 30 35  0  0  1  0  0  0  0  0999 V2000
  161.4230  208.7320  151.5740 C   0  0  0  0  0  0  0  0  0  0  0  0
  161.7790  211.0220  150.6050 C   0  0  0  0  0  0  0  0  0  0  0  0
  161.4130  207.0400  147.8190 N   0  0  0  0  0  2  0  0  0  0  0  0
  161.2710  207.3300  151.3700 C   0  0  0  0  0  0  0  0  0  0  0  0
  161.4910  209.2350  152.9920 C   0  0  0  0  0  2  0  0  0  0  0  0
  160.4370  206.2430  154.7400 O   0  0  0  0  0  0  0  0  0  0  0  0
  160.4780  204.2780  151.6750 C   0  0  1  0  0  3  0  0  0  0  0  0
  160.7160  207.0090  153.7750 C   0  0  0  0  0  0  0  0  0  0  0  0
  160.6190  204.3360  150.1620 C   0  0  2  0  0  3  0  0  0  0  0  0
  161.1700  205.7710  148.2060 C   0  0  0  0  0  0  0  0  0  0  0  0
  160.5190  208.4940  153.9060 C   0  0  1  0  0  3  0  0  0  0  0  0
  161.1540  206.4650  152.5190 N   0  0  0  0  0  0  0  0  0  0  0  0
  161.9660  211.8260  149.4760 C   0  0  0  0  0  3  0  0  0  0  0  0
  161.4900  203.1550  149.7870 C   0  0  0  0  0  2  0  0  0  0  0  0
  160.5820  202.8010  152.0240 C   0  0  0  0  0  2  0  0  0  0  0  0
  161.7540  211.6490  151.8450 O   0  0  0  0  0  1  0  0  0  0  0  0
  161.4650  207.7010  148.9880 C   0  0  0  0  0  0  0  0  0  0  0  0
  161.9910  211.2700  148.2000 C   0  0  0  0  0  3  0  0  0  0  0  0
  161.6120  209.6160  150.4640 C   0  0  0  0  0  0  0  0  0  0  0  0
  161.2690  206.8480  150.0450 C   0  0  0  0  0  0  0  0  0  0  0  0
  161.0070  204.8380  147.3750 O   0  0  0  0  0  0  0  0  0  0  0  0
  161.0830  205.5960  149.5510 N   0  0  0  0  0  0  0  0  0  0  0  0
  161.1620  202.0880  150.8100 C   0  0  0  0  0  2  0  0  0  0  0  0
  162.9680  204.8570  152.0350 C   0  0  0  0  0  1  0  0  0  0  0  0
  161.8270  209.8980  148.0360 C   0  0  0  0  0  3  0  0  0  0  0  0
  161.6390  209.0720  149.1500 C   0  0  0  0  0  0  0  0  0  0  0  0
  161.5160  205.0580  152.4650 C   0  0  2  0  0  3  0  0  0  0  0  0
  160.6310  208.9980  155.3480 C   0  0  0  0  0  2  0  0  0  0  0  0
  162.4540  210.1270  156.5320 C   0  0  0  0  0  2  0  0  0  0  0  0
  161.6240  210.1090  155.4930 C   0  0  0  0  0  3  0  0  0  0  0  0
  1  5  1  0  0  0  0
  2 16  1  0  0  0  0
  3 10  1  0  0  0  0
  3 17  1  0  0  0  0
  4  1  1  0  0  0  0
  4 12  1  0  0  0  0
  5 11  1  0  0  0  0
  7 15  1  1  0  0  0
  7 27  1  0  0  0  0
  8 11  1  0  0  0  0
  8  6  2  0  0  0  0
  9 14  1  1  0  0  0
  9  7  1  0  0  0  0
 10 22  1  0  0  0  0
 11 28  1  1  0  0  0
 12  8  1  0  0  0  0
 13  2  2  0  0  0  0
 14 23  1  0  0  0  0
 17 26  2  0  0  0  0
 17 20  1  0  0  0  0
 18 13  1  0  0  0  0
 19  2  1  0  0  0  0
 19  1  2  0  0  0  0
 20  4  2  0  0  0  0
 21 10  2  0  0  0  0
 22 20  1  0  0  0  0
 22  9  1  0  0  0  0
 23 15  1  0  0  0  0
 25 18  2  0  0  0  0
 25 26  1  0  0  0  0
 26 19  1  0  0  0  0
 27 24  1  6  0  0  0
 27 12  1  0  0  0  0
 28 30  1  0  0  0  0
 30 29  2  0  0  0  0
M  END
>  <MODEL>
2

>  <REMARK>
 VINA RESULT:      -5.7      1.726      4.844
  Name = 
  2 active torsions:
  status: ('A' for Active; 'I' for Inactive)
    1  A    between atoms: C_11  and  C_28
    2  A    between atoms: C_28  and  C_30
                            x       y       z     vdW  Elec       q    Type
                         _______ _______ _______ _____ _____    ______ ____

>  <TORSDO>
F 2

$$$$
=
 OpenBabel11122412393D

 30 35  0  0  1  0  0  0  0  0999 V2000
  160.1490  212.2400  151.6600 C   0  0  0  0  0  0  0  0  0  0  0  0
  160.7670  213.2980  149.4670 C   0  0  0  0  0  0  0  0  0  0  0  0
  162.2890  208.8450  150.7330 N   0  0  0  0  0  2  0  0  0  0  0  0
  160.2520  211.1360  152.5550 C   0  0  0  0  0  0  0  0  0  0  0  0
  159.4070  213.4630  152.1320 C   0  0  0  0  0  2  0  0  0  0  0  0
  157.8480  212.1070  155.1060 O   0  0  0  0  0  0  0  0  0  0  0  0
  159.6860  208.9780  154.8060 C   0  0  1  0  0  3  0  0  0  0  0  0
  158.5300  212.1430  154.0440 C   0  0  0  0  0  0  0  0  0  0  0  0
  160.6060  208.1580  153.9160 C   0  0  2  0  0  3  0  0  0  0  0  0
  161.9880  208.1460  151.8470 C   0  0  0  0  0  0  0  0  0  0  0  0
  158.1660  213.0980  152.9420 C   0  0  1  0  0  3  0  0  0  0  0  0
  159.6160  211.2220  153.8470 N   0  0  0  0  0  0  0  0  0  0  0  0
  161.4560  213.2170  148.2530 C   0  0  0  0  0  3  0  0  0  0  0  0
  161.6420  207.5550  154.8440 C   0  0  0  0  0  2  0  0  0  0  0  0
  159.7160  208.2790  156.1560 C   0  0  0  0  0  2  0  0  0  0  0  0
  160.0310  214.4510  149.7140 O   0  0  0  0  0  1  0  0  0  0  0  0
  161.6520  210.0110  150.9350 C   0  0  0  0  0  0  0  0  0  0  0  0
  162.2050  212.0880  147.9320 C   0  0  0  0  0  3  0  0  0  0  0  0
  160.8230  212.2230  150.3970 C   0  0  0  0  0  0  0  0  0  0  0  0
  160.9980  210.0130  152.1410 C   0  0  0  0  0  0  0  0  0  0  0  0
  162.3740  206.9580  152.0170 O   0  0  0  0  0  0  0  0  0  0  0  0
  161.2130  208.8130  152.7430 N   0  0  0  0  0  0  0  0  0  0  0  0
  160.9120  207.3380  156.1530 C   0  0  0  0  0  2  0  0  0  0  0  0
  161.5400  210.7030  155.3100 C   0  0  0  0  0  1  0  0  0  0  0  0
  162.2730  211.0220  148.8240 C   0  0  0  0  0  3  0  0  0  0  0  0
  161.5940  211.0800  150.0460 C   0  0  0  0  0  0  0  0  0  0  0  0
  160.0710  210.4380  154.9840 C   0  0  2  0  0  3  0  0  0  0  0  0
  157.4480  214.3570  153.4400 C   0  0  0  0  0  2  0  0  0  0  0  0
  155.0770  213.7500  153.5280 C   0  0  0  0  0  2  0  0  0  0  0  0
  156.0400  214.4510  152.9390 C   0  0  0  0  0  3  0  0  0  0  0  0
  1  5  1  0  0  0  0
  1  4  1  0  0  0  0
  2 16  1  0  0  0  0
  2 19  1  0  0  0  0
  3 17  1  0  0  0  0
  3 10  1  0  0  0  0
  4 12  1  0  0  0  0
  5 11  1  0  0  0  0
  7 27  1  0  0  0  0
  7 15  1  1  0  0  0
  8  6  2  0  0  0  0
  9  7  1  0  0  0  0
  9 14  1  1  0  0  0
 10 21  2  0  0  0  0
 10 22  1  0  0  0  0
 11 28  1  1  0  0  0
 11  8  1  0  0  0  0
 12  8  1  0  0  0  0
 12 27  1  0  0  0  0
 13  2  2  0  0  0  0
 14 23  1  0  0  0  0
 17 20  1  0  0  0  0
 18 13  1  0  0  0  0
 18 25  2  0  0  0  0
 19  1  2  0  0  0  0
 20  4  2  0  0  0  0
 20 22  1  0  0  0  0
 22  9  1  0  0  0  0
 23 15  1  0  0  0  0
 25 26  1  0  0  0  0
 26 19  1  0  0  0  0
 26 17  2  0  0  0  0
 27 24  1  6  0  0  0
 30 28  1  0  0  0  0
 30 29  2  0  0  0  0
M  END
>  <MODEL>
3

>  <REMARK>
 VINA RESULT:      -5.5      3.194      6.534
  Name = 
  2 active torsions:
  status: ('A' for Active; 'I' for Inactive)
    1  A    between atoms: C_11  and  C_28
    2  A    between atoms: C_28  and  C_30
                            x       y       z     vdW  Elec       q    Type
                         _______ _______ _______ _____ _____    ______ ____

>  <TORSDO>
F 2

$$$$
=
 OpenBabel11122412393D

 30 35  0  0  1  0  0  0  0  0999 V2000
  161.3640  208.7830  151.0160 C   0  0  0  0  0  0  0  0  0  0  0  0
  161.7180  206.8760  149.4210 C   0  0  0  0  0  0  0  0  0  0  0  0
  160.5760  206.1760  154.1060 N   0  0  0  0  0  2  0  0  0  0  0  0
  161.0740  209.2310  152.3370 C   0  0  0  0  0  0  0  0  0  0  0  0
  161.7150  209.8190  149.9810 C   0  0  0  0  0  2  0  0  0  0  0  0
  160.7560  212.8120  151.7800 O   0  0  0  0  0  0  0  0  0  0  0  0
  160.1170  210.9330  154.8330 C   0  0  1  0  0  3  0  0  0  0  0  0
  160.9210  211.5840  151.5380 C   0  0  0  0  0  0  0  0  0  0  0  0
  159.9980  209.5420  155.4350 C   0  0  2  0  0  3  0  0  0  0  0  0
  160.3080  207.1040  155.0470 C   0  0  0  0  0  0  0  0  0  0  0  0
  160.8620  211.0770  150.1240 C   0  0  1  0  0  3  0  0  0  0  0  0
  161.0930  210.6470  152.6150 N   0  0  0  0  0  0  0  0  0  0  0  0
  161.7680  205.4950  149.1990 C   0  0  0  0  0  3  0  0  0  0  0  0
  160.6990  209.6160  156.7760 C   0  0  0  0  0  2  0  0  0  0  0  0
  160.1690  211.8760  156.0250 C   0  0  0  0  0  2  0  0  0  0  0  0
  161.9570  207.7100  148.3350 O   0  0  0  0  0  1  0  0  0  0  0  0
  160.8800  206.9230  153.0310 C   0  0  0  0  0  0  0  0  0  0  0  0
  161.5290  204.5980  150.2360 C   0  0  0  0  0  3  0  0  0  0  0  0
  161.4240  207.3840  150.7160 C   0  0  0  0  0  0  0  0  0  0  0  0
  160.8050  208.2610  153.3250 C   0  0  0  0  0  0  0  0  0  0  0  0
  159.9330  206.7910  156.2090 O   0  0  0  0  0  0  0  0  0  0  0  0
  160.4430  208.3900  154.6280 N   0  0  0  0  0  0  0  0  0  0  0  0
  160.4740  211.0340  157.2570 C   0  0  0  0  0  2  0  0  0  0  0  0
  162.6690  210.6930  154.5190 C   0  0  0  0  0  1  0  0  0  0  0  0
  161.2360  205.0710  151.5120 C   0  0  0  0  0  3  0  0  0  0  0  0
  161.1820  206.4470  151.7590 C   0  0  0  0  0  0  0  0  0  0  0  0
  161.3330  211.1680  153.9500 C   0  0  2  0  0  3  0  0  0  0  0  0
  161.2600  212.1280  149.0830 C   0  0  0  0  0  2  0  0  0  0  0  0
  163.3370  212.5980  147.8720 C   0  0  0  0  0  2  0  0  0  0  0  0
  162.4320  211.7020  148.2540 C   0  0  0  0  0  3  0  0  0  0  0  0
  1  4  1  0  0  0  0
  2 19  1  0  0  0  0
  3 10  1  0  0  0  0
  4 12  1  0  0  0  0
  4 20  2  0  0  0  0
  5 11  1  0  0  0  0
  5  1  1  0  0  0  0
  7  9  1  0  0  0  0
  7 15  1  1  0  0  0
  8  6  2  0  0  0  0
  8 12  1  0  0  0  0
  9 14  1  1  0  0  0
 10 21  2  0  0  0  0
 11 28  1  6  0  0  0
 11  8  1  0  0  0  0
 12 27  1  0  0  0  0
 13  2  2  0  0  0  0
 13 18  1  0  0  0  0
 14 23  1  0  0  0  0
 15 23  1  0  0  0  0
 16  2  1  0  0  0  0
 17 20  1  0  0  0  0
 17  3  1  0  0  0  0
 18 25  2  0  0  0  0
 19  1  2  0  0  0  0
 19 26  1  0  0  0  0
 20 22  1  0  0  0  0
 22 10  1  0  0  0  0
 22  9  1  0  0  0  0
 25 26  1  0  0  0  0
 26 17  2  0  0  0  0
 27 24  1  1  0  0  0
 27  7  1  0  0  0  0
 29 30  2  0  0  0  0
 30 28  1  0  0  0  0
M  END
>  <MODEL>
4

>  <REMARK>
 VINA RESULT:      -5.5      1.971      5.799
  Name = 
  2 active torsions:
  status: ('A' for Active; 'I' for Inactive)
    1  A    between atoms: C_11  and  C_28
    2  A    between atoms: C_28  and  C_30
                            x       y       z     vdW  Elec       q    Type
                         _______ _______ _______ _____ _____    ______ ____

>  <TORSDO>
F 2

$$$$
=
 OpenBabel11122412393D

 30 35  0  0  1  0  0  0  0  0999 V2000
  161.2220  204.0110  148.4560 C   0  0  0  0  0  0  0  0  0  0  0  0
  161.0020  201.5960  149.1140 C   0  0  0  0  0  0  0  0  0  0  0  0
  161.2410  205.1820  152.4050 N   0  0  0  0  0  2  0  0  0  0  0  0
  161.3510  205.3750  148.8460 C   0  0  0  0  0  0  0  0  0  0  0  0
  161.3060  203.6860  146.9880 C   0  0  0  0  0  2  0  0  0  0  0  0
  161.0610  207.0290  145.6200 O   0  0  0  0  0  0  0  0  0  0  0  0
  161.2470  208.5410  148.9280 C   0  0  1  0  0  3  0  0  0  0  0  0
  161.0880  206.1070  146.4820 C   0  0  0  0  0  0  0  0  0  0  0  0
  161.2410  208.2650  150.4220 C   0  0  2  0  0  3  0  0  0  0  0  0
  161.3050  206.5120  152.1870 C   0  0  0  0  0  0  0  0  0  0  0  0
  160.5950  204.7300  146.1330 C   0  0  1  0  0  3  0  0  0  0  0  0
  161.5200  206.3810  147.8250 N   0  0  0  0  0  0  0  0  0  0  0  0
  160.9180  200.6360  150.1280 C   0  0  0  0  0  3  0  0  0  0  0  0
  162.3050  209.1690  151.0100 C   0  0  0  0  0  2  0  0  0  0  0  0
  161.6900  209.9900  148.7960 C   0  0  0  0  0  2  0  0  0  0  0  0
  160.9550  201.1490  147.7990 O   0  0  0  0  0  1  0  0  0  0  0  0
  161.2550  204.6770  151.1600 C   0  0  0  0  0  0  0  0  0  0  0  0
  160.9470  201.0100  151.4680 C   0  0  0  0  0  3  0  0  0  0  0  0
  161.1240  202.9750  149.4410 C   0  0  0  0  0  0  0  0  0  0  0  0
  161.3350  205.6770  150.2240 C   0  0  0  0  0  0  0  0  0  0  0  0
  161.2700  207.3470  153.1300 O   0  0  0  0  0  0  0  0  0  0  0  0
  161.3750  206.8680  150.8770 N   0  0  0  0  0  0  0  0  0  0  0  0
  162.2990  210.4010  150.1290 C   0  0  0  0  0  2  0  0  0  0  0  0
  163.5820  207.4770  148.6350 C   0  0  0  0  0  1  0  0  0  0  0  0
  161.0620  202.3530  151.8130 C   0  0  0  0  0  3  0  0  0  0  0  0
  161.1500  203.3320  150.8180 C   0  0  0  0  0  0  0  0  0  0  0  0
  162.1630  207.6550  148.0970 C   0  0  2  0  0  3  0  0  0  0  0  0
  160.7230  204.3970  144.6430 C   0  0  0  0  0  2  0  0  0  0  0  0
  159.7680  202.1430  144.5870 C   0  0  0  0  0  2  0  0  0  0  0  0
  159.6980  203.4080  144.1840 C   0  0  0  0  0  3  0  0  0  0  0  0
  1  4  2  0  0  0  0
  1 19  1  0  0  0  0
  2 19  2  0  0  0  0
  2 13  1  0  0  0  0
  4 20  1  0  0  0  0
  5  1  1  0  0  0  0
  6  8  2  0  0  0  0
  7 15  1  1  0  0  0
  7  9  1  0  0  0  0
  8 12  1  0  0  0  0
  9 22  1  0  0  0  0
  9 14  1  1  0  0  0
 10  3  1  0  0  0  0
 10 21  2  0  0  0  0
 11 28  1  6  0  0  0
 11  8  1  0  0  0  0
 11  5  1  0  0  0  0
 12 27  1  0  0  0  0
 12  4  1  0  0  0  0
 13 18  2  0  0  0  0
 15 23  1  0  0  0  0
 16  2  1  0  0  0  0
 17  3  1  0  0  0  0
 18 25  1  0  0  0  0
 19 26  1  0  0  0  0
 20 22  1  0  0  0  0
 20 17  2  0  0  0  0
 22 10  1  0  0  0  0
 23 14  1  0  0  0  0
 26 17  1  0  0  0  0
 26 25  2  0  0  0  0
 27 24  1  1  0  0  0
 27  7  1  0  0  0  0
 30 29  2  0  0  0  0
 30 28  1  0  0  0  0
M  END
>  <MODEL>
5

>  <REMARK>
 VINA RESULT:      -5.3      2.251      6.340
  Name = 
  2 active torsions:
  status: ('A' for Active; 'I' for Inactive)
    1  A    between atoms: C_11  and  C_28
    2  A    between atoms: C_28  and  C_30
                            x       y       z     vdW  Elec       q    Type
                         _______ _______ _______ _____ _____    ______ ____

>  <TORSDO>
F 2

$$$$
=
 OpenBabel11122412393D

 30 35  0  0  1  0  0  0  0  0999 V2000
  161.2420  208.9210  151.7350 C   0  0  0  0  0  0  0  0  0  0  0  0
  160.9250  208.1020  154.0890 C   0  0  0  0  0  0  0  0  0  0  0  0
  159.9710  212.6980  152.7760 N   0  0  0  0  0  2  0  0  0  0  0  0
  161.1870  209.9920  150.7970 C   0  0  0  0  0  0  0  0  0  0  0  0
  161.7970  207.6010  151.2660 C   0  0  0  0  0  2  0  0  0  0  0  0
  161.8570  208.2110  147.6970 O   0  0  0  0  0  0  0  0  0  0  0  0
  160.9330  211.7050  148.1430 C   0  0  1  0  0  3  0  0  0  0  0  0
  161.6500  208.4180  148.9250 C   0  0  0  0  0  0  0  0  0  0  0  0
  160.4690  212.7500  149.1450 C   0  0  2  0  0  3  0  0  0  0  0  0
  160.0470  213.2470  151.5460 C   0  0  0  0  0  0  0  0  0  0  0  0
  161.3480  207.2680  149.8460 C   0  0  1  0  0  3  0  0  0  0  0  0
  161.6260  209.7590  149.4420 N   0  0  0  0  0  0  0  0  0  0  0  0
  160.5650  208.3780  155.4120 C   0  0  0  0  0  3  0  0  0  0  0  0
  161.2570  214.0030  148.8230 C   0  0  0  0  0  2  0  0  0  0  0  0
  161.3360  212.4950  146.9070 C   0  0  0  0  0  2  0  0  0  0  0  0
  161.3120  206.8030  153.7840 O   0  0  0  0  0  1  0  0  0  0  0  0
  160.3960  211.4400  152.5650 C   0  0  0  0  0  0  0  0  0  0  0  0
  160.1570  209.6550  155.7890 C   0  0  0  0  0  3  0  0  0  0  0  0
  160.8810  209.1290  153.1050 C   0  0  0  0  0  0  0  0  0  0  0  0
  160.7260  211.2460  151.2480 C   0  0  0  0  0  0  0  0  0  0  0  0
  159.6830  214.4320  151.3190 O   0  0  0  0  0  0  0  0  0  0  0  0
  160.5100  212.4100  150.5800 N   0  0  0  0  0  0  0  0  0  0  0  0
  161.4780  213.9510  147.3260 C   0  0  0  0  0  2  0  0  0  0  0  0
  163.2830  211.5780  149.2070 C   0  0  0  0  0  1  0  0  0  0  0  0
  160.1030  210.6750  154.8440 C   0  0  0  0  0  3  0  0  0  0  0  0
  160.4590  210.4250  153.5140 C   0  0  0  0  0  0  0  0  0  0  0  0
  162.0990  210.8360  148.5890 C   0  0  2  0  0  3  0  0  0  0  0  0
  161.9520  205.9400  149.3790 C   0  0  0  0  0  2  0  0  0  0  0  0
  160.8220  204.0790  150.5030 C   0  0  0  0  0  2  0  0  0  0  0  0
  160.9610  204.8170  149.4050 C   0  0  0  0  0  3  0  0  0  0  0  0
  1 19  1  0  0  0  0
  2 13  1  0  0  0  0
  4 20  1  0  0  0  0
  4  1  2  0  0  0  0
  5  1  1  0  0  0  0
  6  8  2  0  0  0  0
  7 15  1  6  0  0  0
  7 27  1  0  0  0  0
  7  9  1  0  0  0  0
  8 12  1  0  0  0  0
  8 11  1  0  0  0  0
  9 14  1  1  0  0  0
  9 22  1  0  0  0  0
 10  3  1  0  0  0  0
 11 28  1  6  0  0  0
 11  5  1  0  0  0  0
 12  4  1  0  0  0  0
 13 18  2  0  0  0  0
 15 23  1  0  0  0  0
 16  2  1  0  0  0  0
 17  3  1  0  0  0  0
 17 26  1  0  0  0  0
 19 26  1  0  0  0  0
 19  2  2  0  0  0  0
 20 17  2  0  0  0  0
 21 10  2  0  0  0  0
 22 20  1  0  0  0  0
 22 10  1  0  0  0  0
 23 14  1  0  0  0  0
 25 18  1  0  0  0  0
 26 25  2  0  0  0  0
 27 24  1  1  0  0  0
 27 12  1  0  0  0  0
 28 30  1  0  0  0  0
 30 29  2  0  0  0  0
M  END
>  <MODEL>
6

>  <REMARK>
 VINA RESULT:      -5.0      2.242      6.067
  Name = 
  2 active torsions:
  status: ('A' for Active; 'I' for Inactive)
    1  A    between atoms: C_11  and  C_28
    2  A    between atoms: C_28  and  C_30
                            x       y       z     vdW  Elec       q    Type
                         _______ _______ _______ _____ _____    ______ ____

>  <TORSDO>
F 2

$$$$
=
 OpenBabel11122412393D

 30 35  0  0  1  0  0  0  0  0999 V2000
  161.2930  210.2310  150.8450 C   0  0  0  0  0  0  0  0  0  0  0  0
  162.0280  209.6480  148.5150 C   0  0  0  0  0  0  0  0  0  0  0  0
  161.6530  206.3060  152.0420 N   0  0  0  0  0  2  0  0  0  0  0  0
  161.0250  209.8140  152.1800 C   0  0  0  0  0  0  0  0  0  0  0  0
  161.2060  211.7020  150.5350 C   0  0  0  0  0  2  0  0  0  0  0  0
  159.5960  212.8590  153.5650 O   0  0  0  0  0  0  0  0  0  0  0  0
  159.8750  209.5800  155.1240 C   0  0  1  0  0  3  0  0  0  0  0  0
  160.0930  212.0560  152.7260 C   0  0  0  0  0  0  0  0  0  0  0  0
  160.2420  208.1220  154.8960 C   0  0  2  0  0  3  0  0  0  0  0  0
  161.2230  206.4760  153.3090 C   0  0  0  0  0  0  0  0  0  0  0  0
  160.0370  212.3680  151.2560 C   0  0  1  0  0  3  0  0  0  0  0  0
  160.6500  210.8040  153.1600 N   0  0  0  0  0  0  0  0  0  0  0  0
  162.4640  208.6780  147.6060 C   0  0  0  0  0  3  0  0  0  0  0  0
  161.0280  207.7020  156.1210 C   0  0  0  0  0  2  0  0  0  0  0  0
  159.7700  209.7290  156.6340 C   0  0  0  0  0  2  0  0  0  0  0  0
  161.8900  210.9500  148.0490 O   0  0  0  0  0  1  0  0  0  0  0  0
  161.6040  207.5530  151.5430 C   0  0  0  0  0  0  0  0  0  0  0  0
  162.6150  207.3500  147.9980 C   0  0  0  0  0  3  0  0  0  0  0  0
  161.7360  209.2900  149.8600 C   0  0  0  0  0  0  0  0  0  0  0  0
  161.1650  208.4450  152.4900 C   0  0  0  0  0  0  0  0  0  0  0  0
  161.0840  205.5080  154.1040 O   0  0  0  0  0  0  0  0  0  0  0  0
  160.9220  207.7600  153.6380 N   0  0  0  0  0  0  0  0  0  0  0  0
  160.4420  208.5130  157.2580 C   0  0  0  0  0  2  0  0  0  0  0  0
  162.3340  210.3400  154.9090 C   0  0  0  0  0  1  0  0  0  0  0  0
  162.3320  206.9750  149.3080 C   0  0  0  0  0  3  0  0  0  0  0  0
  161.8970  207.9280  150.2360 C   0  0  0  0  0  0  0  0  0  0  0  0
  160.8640  210.6010  154.5840 C   0  0  2  0  0  3  0  0  0  0  0  0
  159.9900  213.8690  150.9530 C   0  0  0  0  0  2  0  0  0  0  0  0
  157.7140  213.4100  150.1730 C   0  0  0  0  0  2  0  0  0  0  0  0
  158.6520  214.3120  150.4500 C   0  0  0  0  0  3  0  0  0  0  0  0
  1  4  1  0  0  0  0
  2 19  1  0  0  0  0
  3 10  1  0  0  0  0
  4 20  2  0  0  0  0
  4 12  1  0  0  0  0
  5  1  1  0  0  0  0
  5 11  1  0  0  0  0
  7 15  1  1  0  0  0
  8 12  1  0  0  0  0
  8  6  2  0  0  0  0
  9  7  1  0  0  0  0
  9 14  1  1  0  0  0
 10 22  1  0  0  0  0
 10 21  2  0  0  0  0
 11 28  1  1  0  0  0
 11  8  1  0  0  0  0
 12 27  1  0  0  0  0
 13 18  1  0  0  0  0
 13  2  2  0  0  0  0
 14 23  1  0  0  0  0
 15 23  1  0  0  0  0
 16  2  1  0  0  0  0
 17  3  1  0  0  0  0
 17 20  1  0  0  0  0
 18 25  2  0  0  0  0
 19 26  1  0  0  0  0
 19  1  2  0  0  0  0
 20 22  1  0  0  0  0
 22  9  1  0  0  0  0
 25 26  1  0  0  0  0
 26 17  2  0  0  0  0
 27 24  1  6  0  0  0
 27  7  1  0  0  0  0
 29 30  2  0  0  0  0
 30 28  1  0  0  0  0
M  END
>  <MODEL>
7

>  <REMARK>
 VINA RESULT:      -4.9      2.007      5.790
  Name = 
  2 active torsions:
  status: ('A' for Active; 'I' for Inactive)
    1  A    between atoms: C_11  and  C_28
    2  A    between atoms: C_28  and  C_30
                            x       y       z     vdW  Elec       q    Type
                         _______ _______ _______ _____ _____    ______ ____

>  <TORSDO>
F 2

$$$$
=
 OpenBabel11122412393D

 30 35  0  0  1  0  0  0  0  0999 V2000
  161.2290  205.4970  150.1420 C   0  0  0  0  0  0  0  0  0  0  0  0
  160.8550  204.4320  152.3860 C   0  0  0  0  0  0  0  0  0  0  0  0
  160.8900  201.8530  148.2510 N   0  0  0  0  0  2  0  0  0  0  0  0
  161.3280  205.3600  148.7270 C   0  0  0  0  0  0  0  0  0  0  0  0
  161.2890  206.8860  150.7220 C   0  0  0  0  0  2  0  0  0  0  0  0
  162.4060  208.7080  147.7980 O   0  0  0  0  0  0  0  0  0  0  0  0
  162.0650  205.7710  145.6730 C   0  0  1  0  0  3  0  0  0  0  0  0
  162.0690  207.7270  148.5190 C   0  0  0  0  0  0  0  0  0  0  0  0
  161.8020  204.2740  145.6540 C   0  0  2  0  0  3  0  0  0  0  0  0
  161.1310  202.2900  146.9980 C   0  0  0  0  0  0  0  0  0  0  0  0
  162.3140  207.7590  150.0020 C   0  0  1  0  0  3  0  0  0  0  0  0
  161.5150  206.5430  147.9220 N   0  0  0  0  0  0  0  0  0  0  0  0
  160.5960  203.2790  153.1340 C   0  0  0  0  0  3  0  0  0  0  0  0
  160.8730  204.0360  144.4810 C   0  0  0  0  0  2  0  0  0  0  0  0
  161.9510  206.2090  144.2210 C   0  0  0  0  0  2  0  0  0  0  0  0
  160.9960  205.6300  153.0780 O   0  0  0  0  0  1  0  0  0  0  0  0
  160.9500  202.9840  148.9750 C   0  0  0  0  0  0  0  0  0  0  0  0
  160.4540  202.0420  152.5110 C   0  0  0  0  0  3  0  0  0  0  0  0
  160.9730  204.3580  150.9700 C   0  0  0  0  0  0  0  0  0  0  0  0
  161.2100  204.0680  148.1750 C   0  0  0  0  0  0  0  0  0  0  0  0
  161.2020  201.5020  146.0170 O   0  0  0  0  0  0  0  0  0  0  0  0
  161.3220  203.6320  146.8920 N   0  0  0  0  0  0  0  0  0  0  0  0
  161.2560  205.0880  143.4610 C   0  0  0  0  0  2  0  0  0  0  0  0
  159.6270  206.2960  146.3460 C   0  0  0  0  0  1  0  0  0  0  0  0
  160.5690  201.9430  151.1280 C   0  0  0  0  0  3  0  0  0  0  0  0
  160.8250  203.0820  150.3570 C   0  0  0  0  0  0  0  0  0  0  0  0
  161.1140  206.5970  146.5260 C   0  0  2  0  0  3  0  0  0  0  0  0
  162.3330  209.1750  150.5860 C   0  0  0  0  0  2  0  0  0  0  0  0
  160.8010  209.8730  152.3650 C   0  0  0  0  0  2  0  0  0  0  0  0
  161.9010  209.2110  152.0190 C   0  0  0  0  0  3  0  0  0  0  0  0
  1  5  1  0  0  0  0
  1 19  1  0  0  0  0
  2 16  1  0  0  0  0
  2 13  1  0  0  0  0
  3 17  1  0  0  0  0
  4  1  2  0  0  0  0
  6  8  2  0  0  0  0
  7 15  1  6  0  0  0
  7 27  1  0  0  0  0
  8 11  1  0  0  0  0
  9 14  1  6  0  0  0
  9  7  1  0  0  0  0
  9 22  1  0  0  0  0
 10  3  1  0  0  0  0
 11 28  1  1  0  0  0
 11  5  1  0  0  0  0
 12  8  1  0  0  0  0
 12  4  1  0  0  0  0
 17 26  1  0  0  0  0
 18 13  2  0  0  0  0
 19  2  2  0  0  0  0
 20  4  1  0  0  0  0
 20 17  2  0  0  0  0
 21 10  2  0  0  0  0
 22 10  1  0  0  0  0
 22 20  1  0  0  0  0
 23 15  1  0  0  0  0
 23 14  1  0  0  0  0
 25 18  1  0  0  0  0
 26 19  1  0  0  0  0
 26 25  2  0  0  0  0
 27 24  1  1  0  0  0
 27 12  1  0  0  0  0
 28 30  1  0  0  0  0
 30 29  2  0  0  0  0
M  END
>  <MODEL>
8

>  <REMARK>
 VINA RESULT:      -4.8      2.588      4.333
  Name = 
  2 active torsions:
  status: ('A' for Active; 'I' for Inactive)
    1  A    between atoms: C_11  and  C_28
    2  A    between atoms: C_28  and  C_30
                            x       y       z     vdW  Elec       q    Type
                         _______ _______ _______ _____ _____    ______ ____

>  <TORSDO>
F 2

$$$$
=
 OpenBabel11122412393D

 30 35  0  0  1  0  0  0  0  0999 V2000
  161.8630  206.4650  148.3590 C   0  0  0  0  0  0  0  0  0  0  0  0
  161.9820  205.2900  146.1430 C   0  0  0  0  0  0  0  0  0  0  0  0
  160.5850  203.0220  150.2240 N   0  0  0  0  0  2  0  0  0  0  0  0
  161.5980  206.4090  149.7580 C   0  0  0  0  0  0  0  0  0  0  0  0
  162.4010  207.7540  147.7950 C   0  0  0  0  0  2  0  0  0  0  0  0
  161.8410  209.9320  150.6330 O   0  0  0  0  0  0  0  0  0  0  0  0
  160.8210  207.1430  152.7410 C   0  0  1  0  0  3  0  0  0  0  0  0
  161.8280  208.8820  149.9320 C   0  0  0  0  0  0  0  0  0  0  0  0
  160.4740  205.6630  152.7630 C   0  0  2  0  0  3  0  0  0  0  0  0
  160.4280  203.5460  151.4570 C   0  0  0  0  0  0  0  0  0  0  0  0
  161.7420  208.9740  148.4340 C   0  0  1  0  0  3  0  0  0  0  0  0
  161.8190  207.5890  150.5600 N   0  0  0  0  0  0  0  0  0  0  0  0
  161.8310  204.1110  145.4050 C   0  0  0  0  0  3  0  0  0  0  0  0
  161.1310  205.1070  154.0100 C   0  0  0  0  0  2  0  0  0  0  0  0
  160.9720  207.5350  154.2030 C   0  0  0  0  0  2  0  0  0  0  0  0
  162.3810  206.4310  145.4570 O   0  0  0  0  0  1  0  0  0  0  0  0
  161.0350  204.0700  149.5130 C   0  0  0  0  0  0  0  0  0  0  0  0
  161.4240  202.9300  146.0220 C   0  0  0  0  0  3  0  0  0  0  0  0
  161.7230  205.2980  147.5420 C   0  0  0  0  0  0  0  0  0  0  0  0
  161.1520  205.1860  150.3020 C   0  0  0  0  0  0  0  0  0  0  0  0
  159.9700  202.8710  152.4180 O   0  0  0  0  0  0  0  0  0  0  0  0
  160.7680  204.8580  151.5630 N   0  0  0  0  0  0  0  0  0  0  0  0
  161.1040  206.2480  155.0060 C   0  0  0  0  0  2  0  0  0  0  0  0
  163.3170  206.6580  152.2920 C   0  0  0  0  0  1  0  0  0  0  0  0
  161.1610  202.9150  147.3880 C   0  0  0  0  0  3  0  0  0  0  0  0
  161.3060  204.0810  148.1480 C   0  0  0  0  0  0  0  0  0  0  0  0
  162.0880  207.5130  151.9860 C   0  0  2  0  0  3  0  0  0  0  0  0
  162.3300  210.2710  147.8690 C   0  0  0  0  0  2  0  0  0  0  0  0
  161.6670  212.5840  148.3260 C   0  0  0  0  0  2  0  0  0  0  0  0
  161.3350  211.3900  147.8450 C   0  0  0  0  0  3  0  0  0  0  0  0
  1  4  1  0  0  0  0
  2 19  1  0  0  0  0
  3 10  1  0  0  0  0
  4 20  2  0  0  0  0
  4 12  1  0  0  0  0
  5  1  1  0  0  0  0
  5 11  1  0  0  0  0
  7  9  1  0  0  0  0
  7 15  1  1  0  0  0
  8 12  1  0  0  0  0
  8  6  2  0  0  0  0
  9 14  1  1  0  0  0
 10 22  1  0  0  0  0
 10 21  2  0  0  0  0
 11 28  1  6  0  0  0
 11  8  1  0  0  0  0
 12 27  1  0  0  0  0
 13 18  1  0  0  0  0
 13  2  2  0  0  0  0
 14 23  1  0  0  0  0
 15 23  1  0  0  0  0
 16  2  1  0  0  0  0
 17  3  1  0  0  0  0
 17 20  1  0  0  0  0
 18 25  2  0  0  0  0
 19 26  1  0  0  0  0
 19  1  2  0  0  0  0
 20 22  1  0  0  0  0
 22  9  1  0  0  0  0
 25 26  1  0  0  0  0
 26 17  2  0  0  0  0
 27 24  1  6  0  0  0
 27  7  1  0  0  0  0
 30 28  1  0  0  0  0
 30 29  2  0  0  0  0
M  END
>  <MODEL>
9

>  <REMARK>
 VINA RESULT:      -4.7      1.539      5.497
  Name = 
  2 active torsions:
  status: ('A' for Active; 'I' for Inactive)
    1  A    between atoms: C_11  and  C_28
    2  A    between atoms: C_28  and  C_30
                            x       y       z     vdW  Elec       q    Type
                         _______ _______ _______ _____ _____    ______ ____

>  <TORSDO>
F 2

$$$$
