=
 OpenBabel11122412353D

 30 35  0  0  1  0  0  0  0  0999 V2000
  161.4590  206.4120  150.0890 C   0  0  1  0  0  3  0  0  0  0  0  0
  161.2120  203.8870  149.8510 C   0  0  0  0  0  0  0  0  0  0  0  0
  160.7480  206.0160  154.3500 C   0  0  0  0  0  2  0  0  0  0  0  0
  161.7400  207.5670  151.0760 C   0  0  1  0  0  3  0  0  0  0  0  0
  162.3810  206.4690  149.0250 O   0  0  0  0  0  0  0  0  0  0  0  0
  161.8960  210.1620  148.3290 C   0  0  0  0  0  1  0  0  0  0  0  0
  160.3970  210.3850  152.0390 C   0  0  1  0  0  3  0  0  0  0  0  0
  162.2270  208.9180  149.1520 C   0  0  2  0  0  3  0  0  0  0  0  0
  160.0930  209.5150  153.2710 C   0  0  2  0  0  3  0  0  0  0  0  0
  160.7140  207.4720  154.6550 C   0  0  0  0  0  0  0  0  0  0  0  0
  162.1090  207.6420  148.2800 C   0  0  2  0  0  3  0  0  0  0  0  0
  161.4000  208.8240  150.3730 N   0  0  2  0  0  0  0  0  0  0  0  0
  161.0130  202.6210  150.4060 C   0  0  0  0  0  3  0  0  0  0  0  0
  160.1330  210.4690  154.4540 C   0  0  0  0  0  2  0  0  0  0  0  0
  160.4620  211.8270  152.5060 C   0  0  0  0  0  2  0  0  0  0  0  0
  161.2750  204.0110  148.4680 O   0  0  0  0  0  1  0  0  0  0  0  0
  161.3860  206.0370  152.9770 C   0  0  2  0  0  3  0  0  0  0  0  0
  160.9170  202.4620  151.7880 C   0  0  0  0  0  3  0  0  0  0  0  0
  161.3390  205.0160  150.6870 C   0  0  0  0  0  0  0  0  0  0  0  0
  160.9080  207.3260  152.3370 C   0  0  1  0  0  3  0  0  0  0  0  0
  160.5080  207.9050  155.7770 O   0  0  0  0  0  0  0  0  0  0  0  0
  161.0490  208.3330  153.4700 C   0  0  1  0  0  3  0  0  0  0  0  0
  159.8500  211.8400  153.8860 C   0  0  0  0  0  2  0  0  0  0  0  0
  162.9750  210.0600  151.9320 C   0  0  0  0  0  1  0  0  0  0  0  0
  161.0080  203.5730  152.6250 C   0  0  0  0  0  3  0  0  0  0  0  0
  161.1830  204.8530  152.0830 C   0  0  0  0  0  0  0  0  0  0  0  0
  161.6300  210.0260  151.1960 C   0  0  2  0  0  3  0  0  0  0  0  0
  160.7830  207.5400  147.5180 C   0  0  0  0  0  2  0  0  0  0  0  0
  160.4830  206.3680  145.6740 C   0  0  0  0  0  1  0  0  0  0  0  0
  160.6000  206.2370  147.0570 O   0  0  0  0  0  0  0  0  0  0  0  0
  1  5  1  6  0  0  0
  1 19  1  0  0  0  0
  1  4  1  0  0  0  0
  2 13  2  0  0  0  0
  2 19  1  0  0  0  0
  3 10  1  0  0  0  0
  4 20  1  0  0  0  0
  6  8  1  0  0  0  0
  7 15  1  0  0  0  0
  7  9  1  0  0  0  0
  8 12  1  0  0  0  0
  9 22  1  0  0  0  0
  9 14  1  0  0  0  0
 10 21  2  0  0  0  0
 11  5  1  0  0  0  0
 11  8  1  0  0  0  0
 12  4  1  0  0  0  0
 12 27  1  0  0  0  0
 13 18  1  0  0  0  0
 15 23  1  0  0  0  0
 16  2  1  0  0  0  0
 17  3  1  0  0  0  0
 18 25  2  0  0  0  0
 19 26  2  0  0  0  0
 20 17  1  0  0  0  0
 20 22  1  0  0  0  0
 22 10  1  0  0  0  0
 23 14  1  0  0  0  0
 26 25  1  0  0  0  0
 26 17  1  0  0  0  0
 27 24  1  0  0  0  0
 27  7  1  0  0  0  0
 28 11  1  0  0  0  0
 29 30  1  0  0  0  0
 30 28  1  0  0  0  0
M  END
>  <MODEL>
1

>  <REMARK>
 VINA RESULT:      -8.6      0.000      0.000
  Name = 
  2 active torsions:
  status: ('A' for Active; 'I' for Inactive)
    1  A    between atoms: C_11  and  C_28
    2  A    between atoms: C_28  and  O_30
                            x       y       z     vdW  Elec       q    Type
                         _______ _______ _______ _____ _____    ______ ____

>  <TORSDO>
F 2

$$$$
=
 OpenBabel11122412353D

 30 35  0  0  1  0  0  0  0  0999 V2000
  161.0350  209.6870  152.0080 C   0  0  1  0  0  3  0  0  0  0  0  0
  160.8760  212.0600  151.0930 C   0  0  0  0  0  0  0  0  0  0  0  0
  162.0180  208.2840  148.0220 C   0  0  0  0  0  2  0  0  0  0  0  0
  161.5960  208.2700  151.7550 C   0  0  1  0  0  3  0  0  0  0  0  0
  161.4800  210.1500  153.2620 O   0  0  0  0  0  0  0  0  0  0  0  0
  160.5370  207.0100  155.1600 C   0  0  0  0  0  1  0  0  0  0  0  0
  160.5450  205.1820  151.5940 C   0  0  1  0  0  3  0  0  0  0  0  0
  161.2330  207.8510  154.0910 C   0  0  2  0  0  3  0  0  0  0  0  0
  160.7850  205.4550  150.0980 C   0  0  2  0  0  3  0  0  0  0  0  0
  162.0110  206.8320  148.3450 C   0  0  0  0  0  0  0  0  0  0  0  0
  160.8730  209.3490  154.2590 C   0  0  2  0  0  3  0  0  0  0  0  0
  160.9380  207.3680  152.7250 N   0  0  2  0  0  0  0  0  0  0  0  0
  160.9810  212.9750  150.0430 C   0  0  0  0  0  3  0  0  0  0  0  0
  161.2100  204.1190  149.5100 C   0  0  0  0  0  2  0  0  0  0  0  0
  160.6910  203.6870  151.8110 C   0  0  0  0  0  2  0  0  0  0  0  0
  160.4010  212.5020  152.3220 O   0  0  0  0  0  1  0  0  0  0  0  0
  162.0860  208.8750  149.4150 C   0  0  2  0  0  3  0  0  0  0  0  0
  161.4260  212.5610  148.7870 C   0  0  0  0  0  3  0  0  0  0  0  0
  161.2380  210.7110  150.8990 C   0  0  0  0  0  0  0  0  0  0  0  0
  161.3210  207.9060  150.2950 C   0  0  1  0  0  3  0  0  0  0  0  0
  162.2180  205.9710  147.5050 O   0  0  0  0  0  0  0  0  0  0  0  0
  161.8170  206.5510  149.8070 C   0  0  1  0  0  3  0  0  0  0  0  0
  160.6480  203.0660  150.4360 C   0  0  0  0  0  2  0  0  0  0  0  0
  162.9050  205.7800  152.5060 C   0  0  0  0  0  1  0  0  0  0  0  0
  161.7570  211.2240  148.5710 C   0  0  0  0  0  3  0  0  0  0  0  0
  161.6330  210.2900  149.6070 C   0  0  0  0  0  0  0  0  0  0  0  0
  161.3870  205.9690  152.6090 C   0  0  2  0  0  3  0  0  0  0  0  0
  159.3670  209.6110  154.3640 C   0  0  0  0  0  2  0  0  0  0  0  0
  159.6370  210.5780  156.3270 C   0  0  0  0  0  1  0  0  0  0  0  0
  159.1390  210.8060  155.0460 O   0  0  0  0  0  0  0  0  0  0  0  0
  1 19  1  6  0  0  0
  1  5  1  0  0  0  0
  2 16  1  0  0  0  0
  3 10  1  0  0  0  0
  3 17  1  0  0  0  0
  4  1  1  0  0  0  0
  4 12  1  0  0  0  0
  5 11  1  0  0  0  0
  7 15  1  0  0  0  0
  7 27  1  0  0  0  0
  8 11  1  0  0  0  0
  8  6  1  0  0  0  0
  9  7  1  0  0  0  0
 10 22  1  0  0  0  0
 11 28  1  0  0  0  0
 12  8  1  0  0  0  0
 13  2  2  0  0  0  0
 14  9  1  0  0  0  0
 14 23  1  0  0  0  0
 17 26  1  0  0  0  0
 17 20  1  0  0  0  0
 18 13  1  0  0  0  0
 19  2  1  0  0  0  0
 20  4  1  0  0  0  0
 21 10  2  0  0  0  0
 22  9  1  0  0  0  0
 22 20  1  0  0  0  0
 23 15  1  0  0  0  0
 24 27  1  0  0  0  0
 25 18  2  0  0  0  0
 25 26  1  0  0  0  0
 26 19  2  0  0  0  0
 27 12  1  0  0  0  0
 28 30  1  0  0  0  0
 30 29  1  0  0  0  0
M  END
>  <MODEL>
2

>  <REMARK>
 VINA RESULT:      -7.7      1.863      7.053
  Name = 
  2 active torsions:
  status: ('A' for Active; 'I' for Inactive)
    1  A    between atoms: C_11  and  C_28
    2  A    between atoms: C_28  and  O_30
                            x       y       z     vdW  Elec       q    Type
                         _______ _______ _______ _____ _____    ______ ____

>  <TORSDO>
F 2

$$$$
=
 OpenBabel11122412353D

 30 35  0  0  1  0  0  0  0  0999 V2000
  159.6530  212.1640  152.2510 C   0  0  1  0  0  3  0  0  0  0  0  0
  159.3860  213.7060  150.2400 C   0  0  0  0  0  0  0  0  0  0  0  0
  162.1900  209.5850  149.8570 C   0  0  0  0  0  2  0  0  0  0  0  0
  160.5160  211.0500  152.8840 C   0  0  1  0  0  3  0  0  0  0  0  0
  159.5440  213.2420  153.1510 O   0  0  0  0  0  0  0  0  0  0  0  0
  158.5990  211.1190  156.1430 C   0  0  0  0  0  1  0  0  0  0  0  0
  160.1720  208.0430  154.1110 C   0  0  1  0  0  3  0  0  0  0  0  0
  159.4530  211.5910  154.9680 C   0  0  2  0  0  3  0  0  0  0  0  0
  160.8590  207.7040  152.7770 C   0  0  2  0  0  3  0  0  0  0  0  0
  162.3390  208.5040  150.8680 C   0  0  0  0  0  0  0  0  0  0  0  0
  158.7890  212.8020  154.2650 C   0  0  2  0  0  3  0  0  0  0  0  0
  159.7410  210.4970  154.0160 N   0  0  2  0  0  0  0  0  0  0  0  0
  159.6770  214.0530  148.9190 C   0  0  0  0  0  3  0  0  0  0  0  0
  161.6980  206.4690  153.0610 C   0  0  0  0  0  2  0  0  0  0  0  0
  160.5060  206.9310  155.0890 C   0  0  0  0  0  2  0  0  0  0  0  0
  158.4440  214.4530  150.9380 O   0  0  0  0  0  1  0  0  0  0  0  0
  161.6640  210.7060  150.7280 C   0  0  2  0  0  3  0  0  0  0  0  0
  160.5960  213.3090  148.1790 C   0  0  0  0  0  3  0  0  0  0  0  0
  160.0350  212.6100  150.8450 C   0  0  0  0  0  0  0  0  0  0  0  0
  160.8340  210.0220  151.7970 C   0  0  1  0  0  3  0  0  0  0  0  0
  162.9780  207.4860  150.6540 O   0  0  0  0  0  0  0  0  0  0  0  0
  161.7070  208.8380  152.1890 C   0  0  1  0  0  3  0  0  0  0  0  0
  161.0550  205.8000  154.2530 C   0  0  0  0  0  2  0  0  0  0  0  0
  161.9200  209.7180  155.0600 C   0  0  0  0  0  1  0  0  0  0  0  0
  161.2210  212.2030  148.7530 C   0  0  0  0  0  3  0  0  0  0  0  0
  160.9210  211.8270  150.0690 C   0  0  0  0  0  0  0  0  0  0  0  0
  160.4520  209.4200  154.7300 C   0  0  2  0  0  3  0  0  0  0  0  0
  157.3180  212.5700  153.9020 C   0  0  0  0  0  2  0  0  0  0  0  0
  156.5950  214.3280  155.0190 C   0  0  0  0  0  1  0  0  0  0  0  0
  156.6720  213.7950  153.7340 O   0  0  0  0  0  0  0  0  0  0  0  0
  1 19  1  6  0  0  0
  1  4  1  0  0  0  0
  1  5  1  0  0  0  0
  2 19  1  0  0  0  0
  2 16  1  0  0  0  0
  3 17  1  0  0  0  0
  3 10  1  0  0  0  0
  4 12  1  0  0  0  0
  5 11  1  0  0  0  0
  7 27  1  0  0  0  0
  7 15  1  0  0  0  0
  8  6  1  0  0  0  0
  9 14  1  0  0  0  0
  9  7  1  0  0  0  0
 10 22  1  0  0  0  0
 11  8  1  0  0  0  0
 12 27  1  0  0  0  0
 12  8  1  0  0  0  0
 13  2  2  0  0  0  0
 14 23  1  0  0  0  0
 17 20  1  0  0  0  0
 18 25  2  0  0  0  0
 18 13  1  0  0  0  0
 20 22  1  0  0  0  0
 20  4  1  0  0  0  0
 21 10  2  0  0  0  0
 22  9  1  0  0  0  0
 23 15  1  0  0  0  0
 25 26  1  0  0  0  0
 26 17  1  0  0  0  0
 26 19  2  0  0  0  0
 27 24  1  0  0  0  0
 28 11  1  0  0  0  0
 30 28  1  0  0  0  0
 30 29  1  0  0  0  0
M  END
>  <MODEL>
3

>  <REMARK>
 VINA RESULT:      -6.0      3.086      7.404
  Name = 
  2 active torsions:
  status: ('A' for Active; 'I' for Inactive)
    1  A    between atoms: C_11  and  C_28
    2  A    between atoms: C_28  and  O_30
                            x       y       z     vdW  Elec       q    Type
                         _______ _______ _______ _____ _____    ______ ____

>  <TORSDO>
F 2

$$$$
=
 OpenBabel11122412353D

 30 35  0  0  1  0  0  0  0  0999 V2000
  161.4180  204.4080  147.5550 C   0  0  1  0  0  3  0  0  0  0  0  0
  160.9950  202.3530  146.1110 C   0  0  0  0  0  0  0  0  0  0  0  0
  161.1800  201.8970  151.0860 C   0  0  0  0  0  2  0  0  0  0  0  0
  161.8780  204.9040  148.9440 C   0  0  1  0  0  3  0  0  0  0  0  0
  162.2120  205.0050  146.5570 O   0  0  0  0  0  0  0  0  0  0  0  0
  161.8710  208.5350  147.8880 C   0  0  0  0  0  1  0  0  0  0  0  0
  160.8260  206.8320  151.3620 C   0  0  1  0  0  3  0  0  0  0  0  0
  162.2200  207.0480  147.9200 C   0  0  2  0  0  3  0  0  0  0  0  0
  160.6140  205.4540  152.0150 C   0  0  2  0  0  3  0  0  0  0  0  0
  161.2690  202.9960  152.0840 C   0  0  0  0  0  0  0  0  0  0  0  0
  161.9260  206.3920  146.5480 C   0  0  2  0  0  3  0  0  0  0  0  0
  161.5350  206.3410  149.0230 N   0  0  2  0  0  0  0  0  0  0  0  0
  160.7860  200.9780  145.9710 C   0  0  0  0  0  3  0  0  0  0  0  0
  160.8470  205.6750  153.5010 C   0  0  0  0  0  2  0  0  0  0  0  0
  161.0300  207.8370  152.4800 C   0  0  0  0  0  2  0  0  0  0  0  0
  160.9050  203.1620  144.9840 O   0  0  0  0  0  1  0  0  0  0  0  0
  161.6560  202.6180  149.8410 C   0  0  2  0  0  3  0  0  0  0  0  0
  160.8410  200.1390  147.0830 C   0  0  0  0  0  3  0  0  0  0  0  0
  161.2840  202.9010  147.3770 C   0  0  0  0  0  0  0  0  0  0  0  0
  161.1850  204.0490  150.0070 C   0  0  1  0  0  3  0  0  0  0  0  0
  161.2190  202.7970  153.2880 O   0  0  0  0  0  0  0  0  0  0  0  0
  161.5140  204.3420  151.4640 C   0  0  1  0  0  3  0  0  0  0  0  0
  160.5820  207.1430  153.7440 C   0  0  0  0  0  2  0  0  0  0  0  0
  163.3500  206.6250  150.7740 C   0  0  0  0  0  1  0  0  0  0  0  0
  161.0940  200.6710  148.3470 C   0  0  0  0  0  3  0  0  0  0  0  0
  161.2810  202.0500  148.5060 C   0  0  0  0  0  0  0  0  0  0  0  0
  161.9300  206.9590  150.3020 C   0  0  2  0  0  3  0  0  0  0  0  0
  160.5180  206.6810  146.0170 C   0  0  0  0  0  2  0  0  0  0  0  0
  161.3690  206.1530  144.0530 C   0  0  0  0  0  1  0  0  0  0  0  0
  160.2730  205.9130  144.8790 O   0  0  0  0  0  0  0  0  0  0  0  0
  1  5  1  6  0  0  0
  1  4  1  0  0  0  0
  2 19  1  0  0  0  0
  3 10  1  0  0  0  0
  4 12  1  0  0  0  0
  4 20  1  0  0  0  0
  6  8  1  0  0  0  0
  7  9  1  0  0  0  0
  7 15  1  0  0  0  0
  8 12  1  0  0  0  0
  9 14  1  0  0  0  0
 10 21  2  0  0  0  0
 11  5  1  0  0  0  0
 11  8  1  0  0  0  0
 12 27  1  0  0  0  0
 13  2  2  0  0  0  0
 13 18  1  0  0  0  0
 14 23  1  0  0  0  0
 15 23  1  0  0  0  0
 16  2  1  0  0  0  0
 17 20  1  0  0  0  0
 17  3  1  0  0  0  0
 18 25  2  0  0  0  0
 19  1  1  0  0  0  0
 19 26  2  0  0  0  0
 20 22  1  0  0  0  0
 22  9  1  0  0  0  0
 22 10  1  0  0  0  0
 25 26  1  0  0  0  0
 26 17  1  0  0  0  0
 27 24  1  0  0  0  0
 27  7  1  0  0  0  0
 28 11  1  0  0  0  0
 29 30  1  0  0  0  0
 30 28  1  0  0  0  0
M  END
>  <MODEL>
4

>  <REMARK>
 VINA RESULT:      -5.9      2.288      3.952
  Name = 
  2 active torsions:
  status: ('A' for Active; 'I' for Inactive)
    1  A    between atoms: C_11  and  C_28
    2  A    between atoms: C_28  and  O_30
                            x       y       z     vdW  Elec       q    Type
                         _______ _______ _______ _____ _____    ______ ____

>  <TORSDO>
F 2

$$$$
=
 OpenBabel11122412353D

 30 35  0  0  1  0  0  0  0  0999 V2000
  161.5790  208.1610  149.4900 C   0  0  1  0  0  3  0  0  0  0  0  0
  161.4450  206.1030  147.9940 C   0  0  0  0  0  0  0  0  0  0  0  0
  160.8650  205.6230  152.9360 C   0  0  0  0  0  2  0  0  0  0  0  0
  161.8030  208.6610  150.9350 C   0  0  1  0  0  3  0  0  0  0  0  0
  162.5020  208.7860  148.6290 O   0  0  0  0  0  0  0  0  0  0  0  0
  161.8570  212.2970  149.8960 C   0  0  0  0  0  1  0  0  0  0  0  0
  160.3320  210.5440  153.1620 C   0  0  1  0  0  3  0  0  0  0  0  0
  162.2390  210.8200  149.9800 C   0  0  2  0  0  3  0  0  0  0  0  0
  160.0610  209.1570  153.7710 C   0  0  2  0  0  3  0  0  0  0  0  0
  160.7660  206.7180  153.9380 C   0  0  0  0  0  0  0  0  0  0  0  0
  162.1820  210.1640  148.5770 C   0  0  2  0  0  3  0  0  0  0  0  0
  161.4110  210.0870  150.9610 N   0  0  2  0  0  0  0  0  0  0  0  0
  161.3000  204.7250  147.8200 C   0  0  0  0  0  3  0  0  0  0  0  0
  160.0520  209.3750  155.2750 C   0  0  0  0  0  2  0  0  0  0  0  0
  160.3300  211.5480  154.3000 C   0  0  0  0  0  2  0  0  0  0  0  0
  161.5090  206.9170  146.8680 O   0  0  0  0  0  1  0  0  0  0  0  0
  161.5090  206.3640  151.7820 C   0  0  2  0  0  3  0  0  0  0  0  0
  161.2050  203.8800  148.9260 C   0  0  0  0  0  3  0  0  0  0  0  0
  161.5180  206.6520  149.2900 C   0  0  0  0  0  0  0  0  0  0  0  0
  160.9770  207.7810  151.8740 C   0  0  1  0  0  3  0  0  0  0  0  0
  160.5350  206.5100  155.1180 O   0  0  0  0  0  0  0  0  0  0  0  0
  161.0670  208.0740  153.3650 C   0  0  1  0  0  3  0  0  0  0  0  0
  159.7110  210.8330  155.4770 C   0  0  0  0  0  2  0  0  0  0  0  0
  162.9220  210.4120  152.9740 C   0  0  0  0  0  1  0  0  0  0  0  0
  161.2420  204.4120  150.2150 C   0  0  0  0  0  3  0  0  0  0  0  0
  161.3630  205.7940  150.4040 C   0  0  0  0  0  0  0  0  0  0  0  0
  161.5840  210.7090  152.2870 C   0  0  2  0  0  3  0  0  0  0  0  0
  160.8660  210.4180  147.8340 C   0  0  0  0  0  2  0  0  0  0  0  0
  159.8220  212.1540  146.9640 C   0  0  0  0  0  1  0  0  0  0  0  0
  161.0290  211.4590  146.9210 O   0  0  0  0  0  0  0  0  0  0  0  0
  1  5  1  6  0  0  0
  1  4  1  0  0  0  0
  2 19  1  0  0  0  0
  3 10  1  0  0  0  0
  4 12  1  0  0  0  0
  4 20  1  0  0  0  0
  6  8  1  0  0  0  0
  7  9  1  0  0  0  0
  7 15  1  0  0  0  0
  8 12  1  0  0  0  0
  9 14  1  0  0  0  0
 10 21  2  0  0  0  0
 11  5  1  0  0  0  0
 11  8  1  0  0  0  0
 12 27  1  0  0  0  0
 13  2  2  0  0  0  0
 13 18  1  0  0  0  0
 14 23  1  0  0  0  0
 15 23  1  0  0  0  0
 16  2  1  0  0  0  0
 17 20  1  0  0  0  0
 17  3  1  0  0  0  0
 18 25  2  0  0  0  0
 19  1  1  0  0  0  0
 19 26  2  0  0  0  0
 20 22  1  0  0  0  0
 22  9  1  0  0  0  0
 22 10  1  0  0  0  0
 25 26  1  0  0  0  0
 26 17  1  0  0  0  0
 27 24  1  0  0  0  0
 27  7  1  0  0  0  0
 28 11  1  0  0  0  0
 30 29  1  0  0  0  0
 30 28  1  0  0  0  0
M  END
>  <MODEL>
5

>  <REMARK>
 VINA RESULT:      -5.9      1.665      2.438
  Name = 
  2 active torsions:
  status: ('A' for Active; 'I' for Inactive)
    1  A    between atoms: C_11  and  C_28
    2  A    between atoms: C_28  and  O_30
                            x       y       z     vdW  Elec       q    Type
                         _______ _______ _______ _____ _____    ______ ____

>  <TORSDO>
F 2

$$$$
