=
 OpenBabel11122413503D

 37 42  0  0  1  0  0  0  0  0999 V2000
  160.6990  208.6620  155.9940 C   0  0  0  0  0  0  0  0  0  0  0  0
  159.8250  210.8260  152.5200 C   0  0  0  0  0  0  0  0  0  0  0  0
  162.3700  210.5570  149.7240 O   0  0  0  0  0  0  0  0  0  0  0  0
  159.4890  210.6270  154.8970 C   0  0  0  0  0  0  0  0  0  0  0  0
  160.6570  210.1880  151.4590 C   0  0  1  0  0  3  0  0  0  0  0  0
  160.0670  210.2150  153.7070 C   0  0  0  0  0  0  0  0  0  0  0  0
  161.4240  211.1910  150.5710 C   0  0  2  0  0  3  0  0  0  0  0  0
  158.5890  211.7060  154.8530 C   0  0  0  0  0  3  0  0  0  0  0  0
  161.0410  209.2090  153.6120 N   0  0  0  0  0  0  0  0  0  0  0  0
  159.6870  207.5520  155.7710 C   0  0  0  0  0  1  0  0  0  0  0  0
  158.7110  212.5840  151.1310 C   0  0  0  0  0  2  0  0  0  0  0  0
  158.3010  212.3320  153.6180 C   0  0  0  0  0  3  0  0  0  0  0  0
  161.6950  208.6990  154.8140 C   0  0  0  0  0  2  0  0  0  0  0  0
  162.4200  208.2020  149.1720 C   0  0  1  0  0  3  0  0  0  0  0  0
  161.7210  209.5490  148.9870 C   0  0  0  0  0  2  0  0  0  0  0  0
  158.9270  211.8900  152.4350 C   0  0  0  0  0  0  0  0  0  0  0  0
  161.6200  209.2820  152.2710 C   0  0  1  0  0  3  0  0  0  0  0  0
  159.9570  210.0080  156.1880 C   0  0  0  0  0  2  0  0  0  0  0  0
  160.4730  212.1470  149.8060 C   0  0  1  0  0  3  0  0  0  0  0  0
  161.4680  208.3530  157.2600 C   0  0  0  0  0  1  0  0  0  0  0  0
  162.8490  207.8790  150.6130 C   0  0  0  0  0  2  0  0  0  0  0  0
  161.7130  207.9050  151.6350 C   0  0  0  0  0  2  0  0  0  0  0  0
  159.9310  213.1050  150.6790 O   0  0  0  0  0  0  0  0  0  0  0  0
  162.1590  213.7850  148.9510 C   0  0  0  0  0  3  0  0  0  0  0  0
  161.1590  212.8470  148.6730 C   0  0  0  0  0  0  0  0  0  0  0  0
  160.8070  212.5810  147.3410 C   0  0  0  0  0  3  0  0  0  0  0  0
  161.0950  212.9780  144.9490 N   0  0  0  0  0  1  0  0  0  0  0  0
  162.4530  214.1860  146.5810 C   0  0  0  0  0  3  0  0  0  0  0  0
  161.4530  213.2500  146.2980 C   0  0  0  0  0  0  0  0  0  0  0  0
  162.8060  214.4530  147.9070 C   0  0  0  0  0  3  0  0  0  0  0  0
  160.3670  204.9010  147.1270 O   0  0  0  0  0  0  0  0  0  0  0  0
  161.5120  205.2940  146.7780 C   0  0  0  0  0  0  0  0  0  0  0  0
  161.6210  207.0930  148.5700 C   0  0  0  0  0  0  0  0  0  0  0  0
  162.1610  206.3760  147.4550 N   0  0  0  0  0  2  0  0  0  0  0  0
  160.4950  206.7890  149.0510 O   0  0  0  0  0  0  0  0  0  0  0  0
  161.3880  204.8350  144.4230 N   0  0  0  0  0  1  0  0  0  0  0  0
  162.1850  204.6460  145.6210 C   0  0  0  0  0  2  0  0  0  0  0  0
  1 18  1  0  0  0  0
  1 20  1  0  0  0  0
  2  6  1  0  0  0  0
  4 18  1  0  0  0  0
  5 17  1  0  0  0  0
  5  2  1  1  0  0  0
  6  4  2  0  0  0  0
  7  3  1  6  0  0  0
  7  5  1  0  0  0  0
  8  4  1  0  0  0  0
  9  6  1  0  0  0  0
  9 13  1  0  0  0  0
 10  1  1  0  0  0  0
 11 16  1  0  0  0  0
 12  8  2  0  0  0  0
 13  1  1  0  0  0  0
 14 33  1  1  0  0  0
 14 21  1  0  0  0  0
 15 14  1  0  0  0  0
 15  3  1  0  0  0  0
 16  2  2  0  0  0  0
 16 12  1  0  0  0  0
 17 22  1  6  0  0  0
 17  9  1  0  0  0  0
 19 25  1  6  0  0  0
 19  7  1  0  0  0  0
 19 23  1  0  0  0  0
 21 22  1  0  0  0  0
 23 11  1  0  0  0  0
 25 24  1  0  0  0  0
 26 25  2  0  0  0  0
 27 29  1  0  0  0  0
 28 30  1  0  0  0  0
 29 28  2  0  0  0  0
 29 26  1  0  0  0  0
 30 24  2  0  0  0  0
 32 31  2  0  0  0  0
 32 34  1  0  0  0  0
 33 35  2  0  0  0  0
 34 33  1  0  0  0  0
 36 37  1  0  0  0  0
 37 32  1  0  0  0  0
M  END
>  <MODEL>
1

>  <REMARK>
 VINA RESULT:      -6.5      0.000      0.000
  Name = 
  3 active torsions:
  status: ('A' for Active; 'I' for Inactive)
    1  A    between atoms: C_4  and  C_37
    2  A    between atoms: C_8  and  C_18
    3  A    between atoms: C_23  and  C_30
                            x       y       z     vdW  Elec       q    Type
                         _______ _______ _______ _____ _____    ______ ____

>  <TORSDO>
F 3

$$$$
=
 OpenBabel11122413503D

 37 42  0  0  1  0  0  0  0  0999 V2000
  159.2300  212.1230  155.7720 C   0  0  0  0  0  0  0  0  0  0  0  0
  158.9460  212.7410  151.6420 C   0  0  0  0  0  0  0  0  0  0  0  0
  161.9820  211.7320  149.6090 O   0  0  0  0  0  0  0  0  0  0  0  0
  158.1740  213.4000  153.8260 C   0  0  0  0  0  0  0  0  0  0  0  0
  159.9870  211.8490  151.0550 C   0  0  1  0  0  3  0  0  0  0  0  0
  158.9820  212.6420  152.9940 C   0  0  0  0  0  0  0  0  0  0  0  0
  160.8690  212.5290  149.9850 C   0  0  2  0  0  3  0  0  0  0  0  0
  157.2580  214.2830  153.2280 C   0  0  0  0  0  3  0  0  0  0  0  0
  159.9950  211.7830  153.4500 N   0  0  0  0  0  0  0  0  0  0  0  0
  158.3210  210.9070  155.8310 C   0  0  0  0  0  1  0  0  0  0  0  0
  158.0480  213.7300  149.5260 C   0  0  0  0  0  2  0  0  0  0  0  0
  157.1850  214.3730  151.8180 C   0  0  0  0  0  3  0  0  0  0  0  0
  160.4290  211.8280  154.8430 C   0  0  0  0  0  2  0  0  0  0  0  0
  162.2260  209.3590  150.0180 C   0  0  1  0  0  3  0  0  0  0  0  0
  161.5230  210.4590  149.2210 C   0  0  0  0  0  2  0  0  0  0  0  0
  158.0390  213.5950  151.0120 C   0  0  0  0  0  0  0  0  0  0  0  0
  160.8140  211.4170  152.2950 C   0  0  1  0  0  3  0  0  0  0  0  0
  158.4140  213.3570  155.3130 C   0  0  0  0  0  2  0  0  0  0  0  0
  160.0440  213.0250  148.7700 C   0  0  1  0  0  3  0  0  0  0  0  0
  159.7570  212.3890  157.1650 C   0  0  0  0  0  1  0  0  0  0  0  0
  162.3860  209.6410  151.5210 C   0  0  0  0  0  2  0  0  0  0  0  0
  161.0780  209.9210  152.2590 C   0  0  0  0  0  2  0  0  0  0  0  0
  159.3100  214.1740  149.1100 O   0  0  0  0  0  0  0  0  0  0  0  0
  162.0240  214.1500  147.7360 C   0  0  0  0  0  3  0  0  0  0  0  0
  160.9050  213.3260  147.5810 C   0  0  0  0  0  0  0  0  0  0  0  0
  160.5980  212.7990  146.3180 C   0  0  0  0  0  3  0  0  0  0  0  0
  161.0960  212.5630  143.9380 N   0  0  0  0  0  1  0  0  0  0  0  0
  162.5270  213.9220  145.3780 C   0  0  0  0  0  3  0  0  0  0  0  0
  161.4080  213.0980  145.2180 C   0  0  0  0  0  0  0  0  0  0  0  0
  162.8350  214.4480  146.6370 C   0  0  0  0  0  3  0  0  0  0  0  0
  160.4460  205.5070  148.8860 O   0  0  0  0  0  0  0  0  0  0  0  0
  160.9660  206.2780  148.0360 C   0  0  0  0  0  0  0  0  0  0  0  0
  161.5990  208.0270  149.7680 C   0  0  0  0  0  0  0  0  0  0  0  0
  161.5350  207.5330  148.4260 N   0  0  0  0  0  2  0  0  0  0  0  0
  161.1470  207.3480  150.7300 O   0  0  0  0  0  0  0  0  0  0  0  0
  162.3150  205.8600  146.0920 N   0  0  0  0  0  1  0  0  0  0  0  0
  160.9550  205.8950  146.5990 C   0  0  0  0  0  2  0  0  0  0  0  0
  1 10  1  0  0  0  0
  1 20  1  0  0  0  0
  2  6  1  0  0  0  0
  4 18  1  0  0  0  0
  5  2  1  1  0  0  0
  5 17  1  0  0  0  0
  6  9  1  0  0  0  0
  6  4  2  0  0  0  0
  7  3  1  6  0  0  0
  7  5  1  0  0  0  0
  8  4  1  0  0  0  0
  9 13  1  0  0  0  0
 11 16  1  0  0  0  0
 12  8  2  0  0  0  0
 13  1  1  0  0  0  0
 14 33  1  1  0  0  0
 14 21  1  0  0  0  0
 15  3  1  0  0  0  0
 15 14  1  0  0  0  0
 16  2  2  0  0  0  0
 16 12  1  0  0  0  0
 17 22  1  6  0  0  0
 17  9  1  0  0  0  0
 18  1  1  0  0  0  0
 19 25  1  6  0  0  0
 19 23  1  0  0  0  0
 19  7  1  0  0  0  0
 21 22  1  0  0  0  0
 23 11  1  0  0  0  0
 25 24  1  0  0  0  0
 26 25  2  0  0  0  0
 27 29  1  0  0  0  0
 28 30  1  0  0  0  0
 29 28  2  0  0  0  0
 29 26  1  0  0  0  0
 30 24  2  0  0  0  0
 32 34  1  0  0  0  0
 32 31  2  0  0  0  0
 33 35  2  0  0  0  0
 34 33  1  0  0  0  0
 36 37  1  0  0  0  0
 37 32  1  0  0  0  0
M  END
>  <MODEL>
2

>  <REMARK>
 VINA RESULT:      -6.5      1.762      2.308
  Name = 
  3 active torsions:
  status: ('A' for Active; 'I' for Inactive)
    1  A    between atoms: C_4  and  C_37
    2  A    between atoms: C_8  and  C_18
    3  A    between atoms: C_23  and  C_30
                            x       y       z     vdW  Elec       q    Type
                         _______ _______ _______ _____ _____    ______ ____

>  <TORSDO>
F 3

$$$$
=
 OpenBabel11122413503D

 37 42  0  0  1  0  0  0  0  0999 V2000
  162.0620  205.9270  147.7610 C   0  0  0  0  0  0  0  0  0  0  0  0
  160.9620  207.2290  151.5840 C   0  0  0  0  0  0  0  0  0  0  0  0
  162.1530  210.6950  152.5520 O   0  0  0  0  0  0  0  0  0  0  0  0
  161.3790  205.3380  150.1520 C   0  0  0  0  0  0  0  0  0  0  0  0
  161.0990  208.7140  151.5300 C   0  0  1  0  0  3  0  0  0  0  0  0
  161.3360  206.7020  150.3910 C   0  0  0  0  0  0  0  0  0  0  0  0
  161.8450  209.3220  152.7370 C   0  0  2  0  0  3  0  0  0  0  0  0
  160.9830  204.4750  151.1890 C   0  0  0  0  0  3  0  0  0  0  0  0
  161.7780  207.6740  149.4810 N   0  0  0  0  0  0  0  0  0  0  0  0
  160.6970  206.0990  147.1170 C   0  0  0  0  0  1  0  0  0  0  0  0
  160.1900  206.9990  153.9530 C   0  0  0  0  0  2  0  0  0  0  0  0
  160.5590  205.0110  152.4270 C   0  0  0  0  0  3  0  0  0  0  0  0
  162.5520  207.2870  148.3050 C   0  0  0  0  0  2  0  0  0  0  0  0
  161.1410  212.1650  150.9170 C   0  0  1  0  0  3  0  0  0  0  0  0
  160.9720  211.3890  152.2240 C   0  0  0  0  0  2  0  0  0  0  0  0
  160.5490  206.4060  152.6310 C   0  0  0  0  0  0  0  0  0  0  0  0
  161.8670  208.9440  150.2010 C   0  0  1  0  0  3  0  0  0  0  0  0
  161.9810  204.8420  148.8630 C   0  0  0  0  0  2  0  0  0  0  0  0
  161.1220  209.0400  154.0790 C   0  0  1  0  0  3  0  0  0  0  0  0
  163.0320  205.4580  146.6990 C   0  0  0  0  0  1  0  0  0  0  0  0
  161.8680  211.4050  149.7940 C   0  0  0  0  0  2  0  0  0  0  0  0
  161.2270  210.0730  149.4100 C   0  0  0  0  0  2  0  0  0  0  0  0
  161.2940  207.6980  154.4590 O   0  0  0  0  0  0  0  0  0  0  0  0
  162.8860  209.7350  155.7110 C   0  0  0  0  0  3  0  0  0  0  0  0
  161.6050  209.9300  155.1840 C   0  0  0  0  0  0  0  0  0  0  0  0
  160.7880  210.9460  155.7010 C   0  0  0  0  0  3  0  0  0  0  0  0
  160.4230  212.7900  157.2600 N   0  0  0  0  0  1  0  0  0  0  0  0
  162.5350  211.5620  157.2610 C   0  0  0  0  0  3  0  0  0  0  0  0
  161.2530  211.7600  156.7380 C   0  0  0  0  0  0  0  0  0  0  0  0
  163.3510  210.5500  156.7470 C   0  0  0  0  0  3  0  0  0  0  0  0
  157.1920  213.8200  149.9400 O   0  0  0  0  0  0  0  0  0  0  0  0
  157.5530  213.6130  151.1280 C   0  0  0  0  0  0  0  0  0  0  0  0
  159.8380  212.7270  150.4520 C   0  0  0  0  0  0  0  0  0  0  0  0
  158.8430  213.0660  151.4250 N   0  0  0  0  0  2  0  0  0  0  0  0
  159.6300  212.9110  149.2220 O   0  0  0  0  0  0  0  0  0  0  0  0
  157.1900  213.4730  153.4990 N   0  0  0  0  0  1  0  0  0  0  0  0
  156.6110  213.9060  152.2410 C   0  0  0  0  0  2  0  0  0  0  0  0
  1 13  1  0  0  0  0
  1 18  1  0  0  0  0
  2 16  1  0  0  0  0
  4  6  1  0  0  0  0
  4  8  2  0  0  0  0
  5  2  1  1  0  0  0
  5  7  1  0  0  0  0
  6  2  2  0  0  0  0
  7  3  1  6  0  0  0
  7 19  1  0  0  0  0
  8 12  1  0  0  0  0
  9 17  1  0  0  0  0
  9  6  1  0  0  0  0
 10  1  1  0  0  0  0
 11 23  1  0  0  0  0
 12 16  2  0  0  0  0
 13  9  1  0  0  0  0
 14 33  1  6  0  0  0
 14 15  1  0  0  0  0
 15  3  1  0  0  0  0
 16 11  1  0  0  0  0
 17 22  1  6  0  0  0
 17  5  1  0  0  0  0
 18  4  1  0  0  0  0
 19 23  1  0  0  0  0
 19 25  1  1  0  0  0
 20  1  1  0  0  0  0
 21 14  1  0  0  0  0
 22 21  1  0  0  0  0
 24 30  1  0  0  0  0
 25 26  1  0  0  0  0
 25 24  2  0  0  0  0
 26 29  2  0  0  0  0
 29 27  1  0  0  0  0
 29 28  1  0  0  0  0
 30 28  2  0  0  0  0
 31 32  2  0  0  0  0
 32 34  1  0  0  0  0
 32 37  1  0  0  0  0
 33 34  1  0  0  0  0
 35 33  2  0  0  0  0
 37 36  1  0  0  0  0
M  END
>  <MODEL>
3

>  <REMARK>
 VINA RESULT:      -4.4      3.004      7.766
  Name = 
  3 active torsions:
  status: ('A' for Active; 'I' for Inactive)
    1  A    between atoms: C_4  and  C_37
    2  A    between atoms: C_8  and  C_18
    3  A    between atoms: C_23  and  C_30
                            x       y       z     vdW  Elec       q    Type
                         _______ _______ _______ _____ _____    ______ ____

>  <TORSDO>
F 3

$$$$
=
 OpenBabel11122413503D

 37 42  0  0  1  0  0  0  0  0999 V2000
  162.0670  205.9260  147.7040 C   0  0  0  0  0  0  0  0  0  0  0  0
  160.9160  207.1950  151.5230 C   0  0  0  0  0  0  0  0  0  0  0  0
  162.0900  210.6530  152.5370 O   0  0  0  0  0  0  0  0  0  0  0  0
  161.3530  205.3160  150.0800 C   0  0  0  0  0  0  0  0  0  0  0  0
  161.0520  208.6800  151.4840 C   0  0  1  0  0  3  0  0  0  0  0  0
  161.3060  206.6780  150.3310 C   0  0  0  0  0  0  0  0  0  0  0  0
  161.7810  209.2780  152.7050 C   0  0  2  0  0  3  0  0  0  0  0  0
  160.9450  204.4440  151.1050 C   0  0  0  0  0  3  0  0  0  0  0  0
  161.7580  207.6590  149.4340 N   0  0  0  0  0  0  0  0  0  0  0  0
  160.7100  206.1030  147.0430 C   0  0  0  0  0  1  0  0  0  0  0  0
  160.1130  206.9430  153.8800 C   0  0  0  0  0  2  0  0  0  0  0  0
  160.5040  204.9690  152.3420 C   0  0  0  0  0  3  0  0  0  0  0  0
  162.5480  207.2830  148.2660 C   0  0  0  0  0  2  0  0  0  0  0  0
  161.0980  212.1360  150.9010 C   0  0  1  0  0  3  0  0  0  0  0  0
  160.9130  211.3490  152.1990 C   0  0  0  0  0  2  0  0  0  0  0  0
  160.4900  206.3610  152.5580 C   0  0  0  0  0  0  0  0  0  0  0  0
  161.8360  208.9220  150.1670 C   0  0  1  0  0  3  0  0  0  0  0  0
  161.9720  204.8320  148.7950 C   0  0  0  0  0  2  0  0  0  0  0  0
  161.0410  208.9840  154.0350 C   0  0  1  0  0  3  0  0  0  0  0  0
  163.0510  205.4680  146.6500 C   0  0  0  0  0  1  0  0  0  0  0  0
  161.8400  211.3870  149.7820 C   0  0  0  0  0  2  0  0  0  0  0  0
  161.2060  210.0580  149.3770 C   0  0  0  0  0  2  0  0  0  0  0  0
  161.2100  207.6390  154.4060 O   0  0  0  0  0  0  0  0  0  0  0  0
  162.7060  209.5610  155.8110 C   0  0  0  0  0  3  0  0  0  0  0  0
  161.5090  209.8640  155.1550 C   0  0  0  0  0  0  0  0  0  0  0  0
  160.7590  210.9800  155.5560 C   0  0  0  0  0  3  0  0  0  0  0  0
  160.4450  212.9150  157.0130 N   0  0  0  0  0  1  0  0  0  0  0  0
  162.4060  211.4780  157.2610 C   0  0  0  0  0  3  0  0  0  0  0  0
  161.2070  211.7840  156.6080 C   0  0  0  0  0  0  0  0  0  0  0  0
  163.1550  210.3670  156.8620 C   0  0  0  0  0  3  0  0  0  0  0  0
  157.4740  213.9050  149.1600 O   0  0  0  0  0  0  0  0  0  0  0  0
  158.5580  213.8360  148.5210 C   0  0  0  0  0  0  0  0  0  0  0  0
  159.8000  212.7010  150.4250 C   0  0  0  0  0  0  0  0  0  0  0  0
  159.7300  213.2610  149.1100 N   0  0  0  0  0  2  0  0  0  0  0  0
  158.7830  212.6690  151.1710 O   0  0  0  0  0  0  0  0  0  0  0  0
  159.9670  214.2050  146.6100 N   0  0  0  0  0  1  0  0  0  0  0  0
  158.6310  214.3960  147.1450 C   0  0  0  0  0  2  0  0  0  0  0  0
  1 13  1  0  0  0  0
  1 18  1  0  0  0  0
  2 16  1  0  0  0  0
  4  6  1  0  0  0  0
  4  8  2  0  0  0  0
  5  2  1  1  0  0  0
  5  7  1  0  0  0  0
  6  2  2  0  0  0  0
  7  3  1  6  0  0  0
  7 19  1  0  0  0  0
  8 12  1  0  0  0  0
  9 17  1  0  0  0  0
  9  6  1  0  0  0  0
 10  1  1  0  0  0  0
 11 23  1  0  0  0  0
 12 16  2  0  0  0  0
 13  9  1  0  0  0  0
 14 33  1  6  0  0  0
 14 15  1  0  0  0  0
 15  3  1  0  0  0  0
 16 11  1  0  0  0  0
 17 22  1  6  0  0  0
 17  5  1  0  0  0  0
 18  4  1  0  0  0  0
 19 23  1  0  0  0  0
 19 25  1  1  0  0  0
 20  1  1  0  0  0  0
 21 14  1  0  0  0  0
 22 21  1  0  0  0  0
 24 30  1  0  0  0  0
 25 26  1  0  0  0  0
 25 24  2  0  0  0  0
 26 29  2  0  0  0  0
 29 27  1  0  0  0  0
 29 28  1  0  0  0  0
 30 28  2  0  0  0  0
 32 34  1  0  0  0  0
 32 31  2  0  0  0  0
 33 35  2  0  0  0  0
 34 33  1  0  0  0  0
 36 37  1  0  0  0  0
 37 32  1  0  0  0  0
M  END
>  <MODEL>
4

>  <REMARK>
 VINA RESULT:      -4.4      2.752      7.478
  Name = 
  3 active torsions:
  status: ('A' for Active; 'I' for Inactive)
    1  A    between atoms: C_4  and  C_37
    2  A    between atoms: C_8  and  C_18
    3  A    between atoms: C_23  and  C_30
                            x       y       z     vdW  Elec       q    Type
                         _______ _______ _______ _____ _____    ______ ____

>  <TORSDO>
F 3

$$$$
=
 OpenBabel11122413503D

 37 42  0  0  1  0  0  0  0  0999 V2000
  162.1480  205.7320  146.8950 C   0  0  0  0  0  0  0  0  0  0  0  0
  161.0000  206.5030  150.8450 C   0  0  0  0  0  0  0  0  0  0  0  0
  162.3770  209.6870  152.3720 O   0  0  0  0  0  0  0  0  0  0  0  0
  161.3430  204.8300  149.1460 C   0  0  0  0  0  0  0  0  0  0  0  0
  161.2340  207.9650  151.0270 C   0  0  1  0  0  3  0  0  0  0  0  0
  161.3810  206.1410  149.5950 C   0  0  0  0  0  0  0  0  0  0  0  0
  161.9750  208.3260  152.3330 C   0  0  2  0  0  3  0  0  0  0  0  0
  160.8560  203.8480  150.0260 C   0  0  0  0  0  3  0  0  0  0  0  0
  161.9160  207.2090  148.8590 N   0  0  0  0  0  0  0  0  0  0  0  0
  160.8200  206.0950  146.2510 C   0  0  0  0  0  1  0  0  0  0  0  0
  160.1310  205.9640  153.1290 C   0  0  0  0  0  2  0  0  0  0  0  0
  160.4240  204.2140  151.3220 C   0  0  0  0  0  3  0  0  0  0  0  0
  162.7050  206.9550  147.6570 C   0  0  0  0  0  2  0  0  0  0  0  0
  161.5220  211.4570  150.9620 C   0  0  1  0  0  3  0  0  0  0  0  0
  161.2570  210.5030  152.1280 C   0  0  0  0  0  2  0  0  0  0  0  0
  160.4970  205.5580  151.7410 C   0  0  0  0  0  0  0  0  0  0  0  0
  162.0620  208.3430  149.7710 C   0  0  1  0  0  3  0  0  0  0  0  0
  161.9570  204.4980  147.8120 C   0  0  0  0  0  2  0  0  0  0  0  0
  161.1880  207.8920  153.5960 C   0  0  1  0  0  3  0  0  0  0  0  0
  163.1220  205.3660  145.7970 C   0  0  0  0  0  1  0  0  0  0  0  0
  162.2370  210.8310  149.7530 C   0  0  0  0  0  2  0  0  0  0  0  0
  161.5250  209.6220  149.1500 C   0  0  0  0  0  2  0  0  0  0  0  0
  161.2590  206.4990  153.7660 O   0  0  0  0  0  0  0  0  0  0  0  0
  161.3050  208.0680  156.0890 C   0  0  0  0  0  3  0  0  0  0  0  0
  161.6880  208.5640  154.8380 C   0  0  0  0  0  0  0  0  0  0  0  0
  162.5260  209.6860  154.7630 C   0  0  0  0  0  3  0  0  0  0  0  0
  163.8260  211.4430  155.8540 N   0  0  0  0  0  1  0  0  0  0  0  0
  162.5910  209.8050  157.1810 C   0  0  0  0  0  3  0  0  0  0  0  0
  162.9760  210.3050  155.9330 C   0  0  0  0  0  0  0  0  0  0  0  0
  161.7560  208.6860  157.2580 C   0  0  0  0  0  3  0  0  0  0  0  0
  158.0560  213.6900  149.4470 O   0  0  0  0  0  0  0  0  0  0  0  0
  159.1300  213.6020  148.7960 C   0  0  0  0  0  0  0  0  0  0  0  0
  160.2750  212.1740  150.5590 C   0  0  0  0  0  0  0  0  0  0  0  0
  160.2510  212.8740  149.3110 N   0  0  0  0  0  2  0  0  0  0  0  0
  159.2580  212.1460  151.3050 O   0  0  0  0  0  0  0  0  0  0  0  0
  160.4940  213.9160  146.8420 N   0  0  0  0  0  1  0  0  0  0  0  0
  159.2500  214.2970  147.4860 C   0  0  0  0  0  2  0  0  0  0  0  0
  1 13  1  0  0  0  0
  1 18  1  0  0  0  0
  2 16  1  0  0  0  0
  4  6  1  0  0  0  0
  4  8  2  0  0  0  0
  5  2  1  1  0  0  0
  5  7  1  0  0  0  0
  6  2  2  0  0  0  0
  7  3  1  1  0  0  0
  7 19  1  0  0  0  0
  8 12  1  0  0  0  0
  9  6  1  0  0  0  0
  9 17  1  0  0  0  0
 10  1  1  0  0  0  0
 11 23  1  0  0  0  0
 12 16  2  0  0  0  0
 13  9  1  0  0  0  0
 14 33  1  6  0  0  0
 14 15  1  0  0  0  0
 15  3  1  0  0  0  0
 16 11  1  0  0  0  0
 17 22  1  6  0  0  0
 17  5  1  0  0  0  0
 18  4  1  0  0  0  0
 19 23  1  0  0  0  0
 19 25  1  1  0  0  0
 20  1  1  0  0  0  0
 21 14  1  0  0  0  0
 22 21  1  0  0  0  0
 24 30  1  0  0  0  0
 25 24  2  0  0  0  0
 26 25  1  0  0  0  0
 26 29  2  0  0  0  0
 27 29  1  0  0  0  0
 28 30  2  0  0  0  0
 29 28  1  0  0  0  0
 32 34  1  0  0  0  0
 32 31  2  0  0  0  0
 33 35  2  0  0  0  0
 34 33  1  0  0  0  0
 36 37  1  0  0  0  0
 37 32  1  0  0  0  0
M  END
>  <MODEL>
5

>  <REMARK>
 VINA RESULT:      -4.1      2.615      7.781
  Name = 
  3 active torsions:
  status: ('A' for Active; 'I' for Inactive)
    1  A    between atoms: C_4  and  C_37
    2  A    between atoms: C_8  and  C_18
    3  A    between atoms: C_23  and  C_30
                            x       y       z     vdW  Elec       q    Type
                         _______ _______ _______ _____ _____    ______ ____

>  <TORSDO>
F 3

$$$$
