=
 OpenBabel11122412543D

 32 37  0  0  1  0  0  0  0  0999 V2000
  161.0330  209.1100  152.9550 C   0  0  0  0  0  2  0  0  0  0  0  0
  161.2670  213.0140  149.5280 C   0  0  1  0  0  3  0  0  0  0  0  0
  156.3040  213.3780  149.6640 C   0  0  0  0  0  2  0  0  0  0  0  0
  156.3590  214.2930  148.4390 C   0  0  0  0  0  2  0  0  0  0  0  0
  162.4600  213.5510  147.3420 C   0  0  0  0  0  0  0  0  0  0  0  0
  162.3050  213.2920  145.9110 C   0  0  0  0  0  0  0  0  0  0  0  0
  161.5610  210.8380  150.7200 C   0  0  1  0  0  3  0  0  0  0  0  0
  160.1170  212.7000  151.6850 C   0  0  0  0  0  2  0  0  0  0  0  0
  161.3080  212.9730  143.9430 C   0  0  0  0  0  0  0  0  0  0  0  0
  160.4820  210.5450  153.0080 C   0  0  2  0  0  3  0  0  0  0  0  0
  157.6320  213.3420  150.3720 C   0  0  0  0  0  3  0  0  0  0  0  0
  160.0570  213.2370  150.3290 N   0  0  0  0  0  0  0  0  0  0  0  0
  158.7810  213.4350  149.6850 C   0  0  0  0  0  0  0  0  0  0  0  0
  159.9570  213.5560  147.4760 N   0  0  0  0  0  0  0  0  0  0  0  0
  162.5650  212.8950  143.6480 N   0  0  0  0  0  0  0  0  0  0  0  0
  160.9330  208.4940  151.5610 C   0  0  0  0  0  2  0  0  0  0  0  0
  160.3500  211.1870  151.6120 C   0  0  2  0  0  3  0  0  0  0  0  0
  163.3550  213.0920  144.8680 C   0  0  0  0  0  3  0  0  0  0  0  0
  161.7230  209.3210  150.5400 C   0  0  0  0  0  2  0  0  0  0  0  0
  157.5950  214.0270  147.6250 C   0  0  0  0  0  3  0  0  0  0  0  0
  158.7420  213.6770  148.2230 C   0  0  0  0  0  0  0  0  0  0  0  0
  159.9140  213.3570  146.0800 N   0  0  0  0  0  0  0  0  0  0  0  0
  161.4660  211.5080  149.3490 C   0  0  0  0  0  2  0  0  0  0  0  0
  163.6100  213.6340  147.8490 O   0  0  0  0  0  0  0  0  0  0  0  0
  160.2210  212.8180  142.9400 C   0  0  0  0  0  1  0  0  0  0  0  0
  161.2290  213.7820  148.1940 C   0  0  1  0  0  3  0  0  0  0  0  0
  161.1280  213.2220  145.3510 C   0  0  0  0  0  0  0  0  0  0  0  0
  161.3070  211.3150  153.8360 O   0  0  0  0  0  0  0  0  0  0  0  0
  162.0270  210.3870  154.5900 C   0  0  0  0  0  2  0  0  0  0  0  0
  162.2100  210.9020  155.9720 C   0  0  0  0  0  0  0  0  0  0  0  0
  163.4420  210.7840  156.6000 O   0  0  0  0  0  1  0  0  0  0  0  0
  161.2380  211.4120  156.5880 O   0  0  0  0  0  0  0  0  0  0  0  0
  1 10  1  0  0  0  0
  2 23  1  6  0  0  0
  2 12  1  0  0  0  0
  3 11  1  0  0  0  0
  4  3  1  0  0  0  0
  5 24  2  0  0  0  0
  6  5  1  0  0  0  0
  7 23  1  6  0  0  0
  7 17  1  0  0  0  0
  9 27  1  0  0  0  0
 10 28  1  1  0  0  0
 12  8  1  0  0  0  0
 13 12  1  0  0  0  0
 13 11  2  0  0  0  0
 14 26  1  0  0  0  0
 14 21  1  0  0  0  0
 15  9  2  0  0  0  0
 15 18  1  0  0  0  0
 16  1  1  0  0  0  0
 17  8  1  1  0  0  0
 17 10  1  0  0  0  0
 18  6  2  0  0  0  0
 19  7  1  0  0  0  0
 19 16  1  0  0  0  0
 20 21  2  0  0  0  0
 20  4  1  0  0  0  0
 21 13  1  0  0  0  0
 22 14  1  0  0  0  0
 25  9  1  0  0  0  0
 26  5  1  6  0  0  0
 26  2  1  0  0  0  0
 27  6  1  0  0  0  0
 27 22  2  0  0  0  0
 28 29  1  0  0  0  0
 29 30  1  0  0  0  0
 30 32  2  0  0  0  0
 30 31  1  0  0  0  0
M  END
>  <MODEL>
1

>  <REMARK>
 VINA RESULT:      -5.5      0.000      0.000
  Name = 
  3 active torsions:
  status: ('A' for Active; 'I' for Inactive)
    1  A    between atoms: C_10  and  O_20
    2  A    between atoms: O_20  and  C_29
    3  A    between atoms: C_29  and  C_30
                            x       y       z     vdW  Elec       q    Type
                         _______ _______ _______ _____ _____    ______ ____

>  <TORSDO>
F 3

$$$$
=
 OpenBabel11122412543D

 32 37  0  0  1  0  0  0  0  0999 V2000
  160.2370  213.5840  147.6950 C   0  0  0  0  0  2  0  0  0  0  0  0
  162.2330  210.2130  151.1140 C   0  0  1  0  0  3  0  0  0  0  0  0
  160.5690  206.4490  148.3140 C   0  0  0  0  0  2  0  0  0  0  0  0
  160.8740  205.4870  149.4630 C   0  0  0  0  0  2  0  0  0  0  0  0
  162.3140  209.8970  153.6410 C   0  0  0  0  0  0  0  0  0  0  0  0
  161.4830  209.3430  154.7080 C   0  0  0  0  0  0  0  0  0  0  0  0
  161.0140  212.1090  150.0360 C   0  0  1  0  0  3  0  0  0  0  0  0
  162.3420  210.4260  148.6610 C   0  0  0  0  0  2  0  0  0  0  0  0
  160.0500  207.9890  155.7490 C   0  0  0  0  0  0  0  0  0  0  0  0
  161.2210  212.4160  147.5160 C   0  0  2  0  0  3  0  0  0  0  0  0
  161.3540  207.7260  148.4550 C   0  0  0  0  0  3  0  0  0  0  0  0
  162.2360  209.5350  149.8130 N   0  0  0  0  0  0  0  0  0  0  0  0
  161.6310  208.2330  149.6660 C   0  0  0  0  0  0  0  0  0  0  0  0
  161.3530  208.1240  152.1530 N   0  0  0  0  0  0  0  0  0  0  0  0
  160.3820  208.8280  156.6760 N   0  0  0  0  0  0  0  0  0  0  0  0
  159.1460  213.2820  148.7210 C   0  0  0  0  0  2  0  0  0  0  0  0
  161.1570  211.3980  148.6730 C   0  0  2  0  0  3  0  0  0  0  0  0
  161.3400  209.7940  156.1250 C   0  0  0  0  0  2  0  0  0  0  0  0
  159.7560  212.9870  150.0960 C   0  0  0  0  0  2  0  0  0  0  0  0
  160.8400  206.2030  150.7860 C   0  0  0  0  0  3  0  0  0  0  0  0
  161.2480  207.4750  150.8820 C   0  0  0  0  0  0  0  0  0  0  0  0
  160.6300  207.6330  153.2600 N   0  0  0  0  0  2  0  0  0  0  0  0
  160.9980  211.1130  151.1960 C   0  0  0  0  0  2  0  0  0  0  0  0
  163.0470  210.8970  153.8650 O   0  0  0  0  0  0  0  0  0  0  0  0
  159.0910  206.8730  155.9620 C   0  0  0  0  0  1  0  0  0  0  0  0
  162.3360  209.2200  152.2860 C   0  0  1  0  0  3  0  0  0  0  0  0
  160.7290  208.2950  154.5150 C   0  0  0  0  0  0  0  0  0  0  0  0
  162.5140  212.9320  147.3750 O   0  0  0  0  0  0  0  0  0  0  0  0
  162.3790  214.0030  146.4900 C   0  0  0  0  0  2  0  0  0  0  0  0
  162.4520  213.5050  145.0910 C   0  0  0  0  0  0  0  0  0  0  0  0
  161.3200  213.5220  144.2880 O   0  0  0  0  0  0  0  0  0  0  0  0
  163.5310  213.0320  144.6470 O   0  0  0  0  0  1  0  0  0  0  0  0
  1 16  1  0  0  0  0
  2 23  1  1  0  0  0
  2 26  1  0  0  0  0
  3 11  1  0  0  0  0
  3  4  1  0  0  0  0
  4 20  1  0  0  0  0
  5 24  2  0  0  0  0
  5  6  1  0  0  0  0
  6 18  1  0  0  0  0
  7 19  1  6  0  0  0
  7 23  1  0  0  0  0
  8 12  1  0  0  0  0
  9 25  1  0  0  0  0
  9 15  2  0  0  0  0
 10 28  1  1  0  0  0
 10  1  1  0  0  0  0
 10 17  1  0  0  0  0
 11 13  2  0  0  0  0
 12  2  1  0  0  0  0
 13 12  1  0  0  0  0
 13 21  1  0  0  0  0
 14 26  1  0  0  0  0
 14 22  1  0  0  0  0
 16 19  1  0  0  0  0
 17  8  1  1  0  0  0
 17  7  1  0  0  0  0
 18 15  1  0  0  0  0
 20 21  2  0  0  0  0
 21 14  1  0  0  0  0
 22 27  1  0  0  0  0
 26  5  1  1  0  0  0
 27  6  2  0  0  0  0
 27  9  1  0  0  0  0
 29 28  1  0  0  0  0
 30 29  1  0  0  0  0
 31 30  2  0  0  0  0
 32 30  1  0  0  0  0
M  END
>  <MODEL>
2

>  <REMARK>
 VINA RESULT:      -5.2      2.951      8.530
  Name = 
  3 active torsions:
  status: ('A' for Active; 'I' for Inactive)
    1  A    between atoms: C_10  and  O_20
    2  A    between atoms: O_20  and  C_29
    3  A    between atoms: C_29  and  C_30
                            x       y       z     vdW  Elec       q    Type
                         _______ _______ _______ _____ _____    ______ ____

>  <TORSDO>
F 3

$$$$
=
 OpenBabel11122412543D

 32 37  0  0  1  0  0  0  0  0999 V2000
  161.0550  206.2280  151.3060 C   0  0  0  0  0  2  0  0  0  0  0  0
  162.1340  211.1020  149.8490 C   0  0  1  0  0  3  0  0  0  0  0  0
  157.8430  212.6130  151.8710 C   0  0  0  0  0  2  0  0  0  0  0  0
  158.0150  213.9630  151.1730 C   0  0  0  0  0  2  0  0  0  0  0  0
  162.9920  212.3190  147.7820 C   0  0  0  0  0  0  0  0  0  0  0  0
  162.4720  212.8480  146.5220 C   0  0  0  0  0  0  0  0  0  0  0  0
  161.7740  208.6300  149.9020 C   0  0  1  0  0  3  0  0  0  0  0  0
  161.3970  210.0740  151.9650 C   0  0  0  0  0  2  0  0  0  0  0  0
  161.0680  213.8090  145.0810 C   0  0  0  0  0  0  0  0  0  0  0  0
  161.1350  207.5370  152.1100 C   0  0  2  0  0  3  0  0  0  0  0  0
  159.1600  211.8940  151.9860 C   0  0  0  0  0  3  0  0  0  0  0  0
  161.2900  211.2040  151.0460 N   0  0  0  0  0  0  0  0  0  0  0  0
  160.0960  212.0140  151.0310 C   0  0  0  0  0  0  0  0  0  0  0  0
  160.7710  212.9000  148.7880 N   0  0  0  0  0  0  0  0  0  0  0  0
  162.1090  213.5660  144.3540 N   0  0  0  0  0  0  0  0  0  0  0  0
  160.4520  206.4290  149.9170 C   0  0  0  0  0  2  0  0  0  0  0  0
  160.9970  208.7920  151.2260 C   0  0  2  0  0  3  0  0  0  0  0  0
  163.1340  212.9260  145.1850 C   0  0  0  0  0  3  0  0  0  0  0  0
  161.2880  207.4160  149.0960 C   0  0  0  0  0  2  0  0  0  0  0  0
  158.8620  213.8250  149.9380 C   0  0  0  0  0  3  0  0  0  0  0  0
  159.8710  212.9450  149.9000 C   0  0  0  0  0  0  0  0  0  0  0  0
  160.3820  213.4340  147.5410 N   0  0  0  0  0  0  0  0  0  0  0  0
  161.6850  209.8870  149.0350 C   0  0  0  0  0  2  0  0  0  0  0  0
  164.1570  211.8430  147.8350 O   0  0  0  0  0  0  0  0  0  0  0  0
  159.8350  214.4530  144.5560 C   0  0  0  0  0  1  0  0  0  0  0  0
  162.1420  212.4070  149.0330 C   0  0  1  0  0  3  0  0  0  0  0  0
  161.2780  213.3680  146.4370 C   0  0  0  0  0  0  0  0  0  0  0  0
  162.3400  207.5570  152.8220 O   0  0  0  0  0  0  0  0  0  0  0  0
  162.1080  206.7570  153.9420 C   0  0  0  0  0  2  0  0  0  0  0  0
  161.2090  207.4710  154.8870 C   0  0  0  0  0  0  0  0  0  0  0  0
  161.6180  208.6620  155.4690 O   0  0  0  0  0  1  0  0  0  0  0  0
  160.0910  206.9760  155.1870 O   0  0  0  0  0  0  0  0  0  0  0  0
  1 10  1  0  0  0  0
  2 23  1  6  0  0  0
  2 12  1  0  0  0  0
  3 11  1  0  0  0  0
  4  3  1  0  0  0  0
  5 24  2  0  0  0  0
  6  5  1  0  0  0  0
  7 23  1  6  0  0  0
  7 17  1  0  0  0  0
  9 27  1  0  0  0  0
 10 28  1  6  0  0  0
 12  8  1  0  0  0  0
 13 12  1  0  0  0  0
 13 11  2  0  0  0  0
 14 26  1  0  0  0  0
 14 21  1  0  0  0  0
 15  9  2  0  0  0  0
 15 18  1  0  0  0  0
 16  1  1  0  0  0  0
 17  8  1  1  0  0  0
 17 10  1  0  0  0  0
 18  6  2  0  0  0  0
 19  7  1  0  0  0  0
 19 16  1  0  0  0  0
 20  4  1  0  0  0  0
 21 20  2  0  0  0  0
 21 13  1  0  0  0  0
 22 14  1  0  0  0  0
 25  9  1  0  0  0  0
 26  5  1  6  0  0  0
 26  2  1  0  0  0  0
 27  6  1  0  0  0  0
 27 22  2  0  0  0  0
 28 29  1  0  0  0  0
 29 30  1  0  0  0  0
 30 32  2  0  0  0  0
 30 31  1  0  0  0  0
M  END
>  <MODEL>
3

>  <REMARK>
 VINA RESULT:      -4.2      1.931      2.570
  Name = 
  3 active torsions:
  status: ('A' for Active; 'I' for Inactive)
    1  A    between atoms: C_10  and  O_20
    2  A    between atoms: O_20  and  C_29
    3  A    between atoms: C_29  and  C_30
                            x       y       z     vdW  Elec       q    Type
                         _______ _______ _______ _____ _____    ______ ____

>  <TORSDO>
F 3

$$$$
=
 OpenBabel11122412543D

 32 37  0  0  1  0  0  0  0  0999 V2000
  155.9530  213.4360  154.6260 C   0  0  0  0  0  2  0  0  0  0  0  0
  160.3570  210.8790  153.5760 C   0  0  1  0  0  3  0  0  0  0  0  0
  160.5810  213.1600  149.1580 C   0  0  0  0  0  2  0  0  0  0  0  0
  161.6810  212.1850  148.7340 C   0  0  0  0  0  2  0  0  0  0  0  0
  161.2620  208.5040  153.7590 C   0  0  0  0  0  0  0  0  0  0  0  0
  161.2310  207.2530  153.0030 C   0  0  0  0  0  0  0  0  0  0  0  0
  158.0260  211.4840  154.2430 C   0  0  1  0  0  3  0  0  0  0  0  0
  159.6770  213.2440  153.4310 C   0  0  0  0  0  2  0  0  0  0  0  0
  161.2060  205.8700  151.2540 C   0  0  0  0  0  0  0  0  0  0  0  0
  157.3480  213.9380  154.2180 C   0  0  2  0  0  3  0  0  0  0  0  0
  160.4640  213.2230  150.6570 C   0  0  0  0  0  3  0  0  0  0  0  0
  160.4220  212.1410  152.8300 N   0  0  0  0  0  0  0  0  0  0  0  0
  160.6910  212.1370  151.4120 C   0  0  0  0  0  0  0  0  0  0  0  0
  161.1890  209.6860  151.5500 N   0  0  0  0  0  0  0  0  0  0  0  0
  161.2050  205.0620  152.2640 N   0  0  0  0  0  0  0  0  0  0  0  0
  155.5650  212.1400  153.9180 C   0  0  0  0  0  2  0  0  0  0  0  0
  158.2010  212.8470  153.5400 C   0  0  2  0  0  3  0  0  0  0  0  0
  161.2230  205.8460  153.5040 C   0  0  0  0  0  2  0  0  0  0  0  0
  156.5620  211.0210  154.2420 C   0  0  0  0  0  2  0  0  0  0  0  0
  161.5760  210.8930  149.4970 C   0  0  0  0  0  3  0  0  0  0  0  0
  161.1610  210.8860  150.7710 C   0  0  0  0  0  0  0  0  0  0  0  0
  161.2140  208.4280  150.9130 N   0  0  0  0  0  2  0  0  0  0  0  0
  158.9040  210.4030  153.6100 C   0  0  0  0  0  2  0  0  0  0  0  0
  161.2900  208.4810  155.0180 O   0  0  0  0  0  0  0  0  0  0  0  0
  161.1880  205.4130  149.8400 C   0  0  0  0  0  1  0  0  0  0  0  0
  161.3260  209.8220  153.0160 C   0  0  1  0  0  3  0  0  0  0  0  0
  161.2230  207.2420  151.6980 C   0  0  0  0  0  0  0  0  0  0  0  0
  157.9950  214.4460  155.3500 O   0  0  0  0  0  0  0  0  0  0  0  0
  157.4890  213.7020  156.4170 C   0  0  0  0  0  2  0  0  0  0  0  0
  158.5680  212.8530  156.9890 C   0  0  0  0  0  0  0  0  0  0  0  0
  158.3260  211.5140  157.2610 O   0  0  0  0  0  0  0  0  0  0  0  0
  159.6880  213.3580  157.2610 O   0  0  0  0  0  1  0  0  0  0  0  0
  2 23  1  6  0  0  0
  3 11  1  0  0  0  0
  4  3  1  0  0  0  0
  4 20  1  0  0  0  0
  5 24  2  0  0  0  0
  6 18  1  0  0  0  0
  6  5  1  0  0  0  0
  7 23  1  6  0  0  0
  9 27  1  0  0  0  0
  9 15  2  0  0  0  0
 10  1  1  0  0  0  0
 10 28  1  1  0  0  0
 11 13  2  0  0  0  0
 12  8  1  0  0  0  0
 12  2  1  0  0  0  0
 13 12  1  0  0  0  0
 14 26  1  0  0  0  0
 15 18  1  0  0  0  0
 16 19  1  0  0  0  0
 16  1  1  0  0  0  0
 17  8  1  1  0  0  0
 17 10  1  0  0  0  0
 17  7  1  0  0  0  0
 19  7  1  0  0  0  0
 20 21  2  0  0  0  0
 21 13  1  0  0  0  0
 21 14  1  0  0  0  0
 22 14  1  0  0  0  0
 22 27  1  0  0  0  0
 25  9  1  0  0  0  0
 26  2  1  0  0  0  0
 26  5  1  1  0  0  0
 27  6  2  0  0  0  0
 28 29  1  0  0  0  0
 29 30  1  0  0  0  0
 30 31  2  0  0  0  0
 30 32  1  0  0  0  0
M  END
>  <MODEL>
4

>  <REMARK>
 VINA RESULT:      -3.5      3.808      6.606
  Name = 
  3 active torsions:
  status: ('A' for Active; 'I' for Inactive)
    1  A    between atoms: C_10  and  O_20
    2  A    between atoms: O_20  and  C_29
    3  A    between atoms: C_29  and  C_30
                            x       y       z     vdW  Elec       q    Type
                         _______ _______ _______ _____ _____    ______ ____

>  <TORSDO>
F 3

$$$$
=
 OpenBabel11122412543D

 32 37  0  0  1  0  0  0  0  0999 V2000
  158.6320  211.5720  155.6270 C   0  0  0  0  0  2  0  0  0  0  0  0
  161.9070  208.6110  152.8800 C   0  0  1  0  0  3  0  0  0  0  0  0
  161.5320  211.7970  149.0740 C   0  0  0  0  0  2  0  0  0  0  0  0
  162.2310  210.7740  148.1770 C   0  0  0  0  0  2  0  0  0  0  0  0
  162.2500  206.1410  152.3600 C   0  0  0  0  0  0  0  0  0  0  0  0
  161.7380  205.1290  151.4370 C   0  0  0  0  0  0  0  0  0  0  0  0
  160.0270  209.4360  154.3040 C   0  0  1  0  0  3  0  0  0  0  0  0
  161.7820  211.0240  153.3660 C   0  0  0  0  0  2  0  0  0  0  0  0
  160.9510  204.2240  149.5580 C   0  0  0  0  0  0  0  0  0  0  0  0
  159.9560  211.9060  154.9190 C   0  0  2  0  0  3  0  0  0  0  0  0
  161.8150  211.5240  150.5270 C   0  0  0  0  0  3  0  0  0  0  0  0
  162.0730  209.9820  152.3850 N   0  0  0  0  0  0  0  0  0  0  0  0
  161.9670  210.2680  150.9740 C   0  0  0  0  0  0  0  0  0  0  0  0
  161.8980  207.8050  150.5200 N   0  0  0  0  0  0  0  0  0  0  0  0
  161.0170  203.2130  150.3610 N   0  0  0  0  0  0  0  0  0  0  0  0
  157.7860  210.5670  154.8470 C   0  0  0  0  0  2  0  0  0  0  0  0
  160.3310  210.8750  153.8360 C   0  0  2  0  0  3  0  0  0  0  0  0
  161.5300  203.6660  151.6590 C   0  0  0  0  0  2  0  0  0  0  0  0
  158.5430  209.2480  154.6550 C   0  0  0  0  0  2  0  0  0  0  0  0
  162.0240  209.3770  148.6930 C   0  0  0  0  0  3  0  0  0  0  0  0
  161.9550  209.1410  150.0100 C   0  0  0  0  0  0  0  0  0  0  0  0
  161.4680  206.7490  149.6900 N   0  0  0  0  0  2  0  0  0  0  0  0
  160.4390  208.4000  153.2580 C   0  0  0  0  0  2  0  0  0  0  0  0
  162.5890  205.8160  153.5300 O   0  0  0  0  0  0  0  0  0  0  0  0
  160.4710  204.1230  148.1540 C   0  0  0  0  0  1  0  0  0  0  0  0
  162.4290  207.5650  151.8780 C   0  0  1  0  0  3  0  0  0  0  0  0
  161.3990  205.4270  150.2130 C   0  0  0  0  0  0  0  0  0  0  0  0
  160.9670  212.0120  155.8800 O   0  0  0  0  0  0  0  0  0  0  0  0
  160.6330  211.0740  156.8590 C   0  0  0  0  0  2  0  0  0  0  0  0
  161.7900  210.1710  157.0980 C   0  0  0  0  0  0  0  0  0  0  0  0
  163.0800  210.6830  157.1030 O   0  0  0  0  0  0  0  0  0  0  0  0
  161.6030  208.9380  157.2600 O   0  0  0  0  0  1  0  0  0  0  0  0
  2 23  1  6  0  0  0
  3 11  1  0  0  0  0
  4 20  1  0  0  0  0
  4  3  1  0  0  0  0
  5 24  2  0  0  0  0
  6 18  1  0  0  0  0
  6  5  1  0  0  0  0
  7 23  1  6  0  0  0
  7 19  1  0  0  0  0
  9 27  1  0  0  0  0
  9 15  2  0  0  0  0
 10  1  1  0  0  0  0
 10 28  1  1  0  0  0
 11 13  2  0  0  0  0
 12  2  1  0  0  0  0
 12  8  1  0  0  0  0
 13 12  1  0  0  0  0
 14 26  1  0  0  0  0
 15 18  1  0  0  0  0
 16  1  1  0  0  0  0
 17  8  1  1  0  0  0
 17  7  1  0  0  0  0
 17 10  1  0  0  0  0
 19 16  1  0  0  0  0
 20 21  2  0  0  0  0
 21 14  1  0  0  0  0
 21 13  1  0  0  0  0
 22 27  1  0  0  0  0
 22 14  1  0  0  0  0
 25  9  1  0  0  0  0
 26  5  1  1  0  0  0
 26  2  1  0  0  0  0
 27  6  2  0  0  0  0
 28 29  1  0  0  0  0
 29 30  1  0  0  0  0
 30 31  2  0  0  0  0
 30 32  1  0  0  0  0
M  END
>  <MODEL>
5

>  <REMARK>
 VINA RESULT:      -2.8      4.078      6.631
  Name = 
  3 active torsions:
  status: ('A' for Active; 'I' for Inactive)
    1  A    between atoms: C_10  and  O_20
    2  A    between atoms: O_20  and  C_29
    3  A    between atoms: C_29  and  C_30
                            x       y       z     vdW  Elec       q    Type
                         _______ _______ _______ _____ _____    ______ ____

>  <TORSDO>
F 3

$$$$
