=
 OpenBabel11122414193D

 34 40  0  0  1  0  0  0  0  0999 V2000
  160.9510  207.2750  154.3060 C   0  0  0  0  0  0  0  0  0  0  0  0
  161.1570  205.1640  152.9680 C   0  0  0  0  0  2  0  0  0  0  0  0
  157.9510  213.0960  153.9860 C   0  0  1  0  0  3  0  0  0  0  0  0
  159.8350  209.3060  155.0230 C   0  0  0  0  0  0  0  0  0  0  0  0
  159.8370  211.3510  153.4540 C   0  0  2  0  0  3  0  0  0  0  0  0
  159.7080  213.5460  152.2380 C   0  0  0  0  0  1  0  0  0  0  0  0
  156.9820  212.1890  154.3750 F   0  0  0  0  0  0  0  0  0  0  0  0
  159.9060  213.0930  155.6870 C   0  0  0  0  0  2  0  0  0  0  0  0
  162.1770  207.1670  152.0750 N   0  0  2  0  0  0  0  0  0  0  0  0
  162.1260  207.3430  148.9200 C   0  0  0  0  0  2  0  0  0  0  0  0
  159.9870  210.3020  152.3620 C   0  0  0  0  0  2  0  0  0  0  0  0
  159.7620  211.6030  156.0020 C   0  0  0  0  0  2  0  0  0  0  0  0
  161.2750  208.2680  151.6560 C   0  0  1  0  0  3  0  0  0  0  0  0
  161.9360  204.7560  151.7570 C   0  0  0  0  0  2  0  0  0  0  0  0
  159.3800  210.7300  154.7950 C   0  0  2  0  0  3  0  0  0  0  0  0
  158.6070  213.7460  155.2140 C   0  0  0  0  0  2  0  0  0  0  0  0
  161.5390  206.2140  149.7500 C   0  0  2  0  0  3  0  0  0  0  0  0
  160.5710  208.5950  154.0470 C   0  0  0  0  0  0  0  0  0  0  0  0
  158.9060  212.4710  152.9500 C   0  0  2  0  0  3  0  0  0  0  0  0
  161.0250  209.2690  152.7900 C   0  0  2  0  0  3  0  0  0  0  0  0
  159.8350  207.3990  156.4440 C   0  0  0  0  0  3  0  0  0  0  0  0
  161.4450  208.5890  149.2350 N   0  0  0  0  0  2  0  0  0  0  0  0
  159.4750  208.6810  156.1770 N   0  0  0  0  0  0  0  0  0  0  0  0
  161.9390  209.0500  150.5210 C   0  0  0  0  0  2  0  0  0  0  0  0
  162.3170  206.0640  151.0790 C   0  0  1  0  0  3  0  0  0  0  0  0
  160.5860  206.6790  155.5180 C   0  0  0  0  0  3  0  0  0  0  0  0
  161.7800  206.4890  153.3270 C   0  0  1  0  0  3  0  0  0  0  0  0
  161.6170  205.0330  149.0050 O   0  0  0  0  0  0  0  0  0  0  0  0
  161.0180  205.3420  147.7810 C   0  0  0  0  0  2  0  0  0  0  0  0
  160.8130  203.9150  144.8080 O   0  0  0  0  0  0  0  0  0  0  0  0
  161.8720  205.8500  145.5700 N   0  0  0  0  0  2  0  0  0  0  0  0
  161.9070  204.8810  146.6410 C   0  0  2  0  0  3  0  0  0  0  0  0
  161.4840  205.0780  144.4010 C   0  0  0  0  0  2  0  0  0  0  0  0
  161.3560  203.6070  146.0590 C   0  0  0  0  0  2  0  0  0  0  0  0
  1 26  1  0  0  0  0
  2 27  1  0  0  0  0
  3  7  1  1  0  0  0
  3 16  1  0  0  0  0
  4 23  2  0  0  0  0
  5 11  1  6  0  0  0
  5 15  1  0  0  0  0
  6 19  1  0  0  0  0
  8 12  1  0  0  0  0
  9 27  1  0  0  0  0
 10 22  1  0  0  0  0
 10 17  1  0  0  0  0
 11 20  1  0  0  0  0
 13  9  1  0  0  0  0
 13 20  1  0  0  0  0
 14  2  1  0  0  0  0
 15  4  1  0  0  0  0
 15 12  1  0  0  0  0
 16  8  1  0  0  0  0
 17 25  1  0  0  0  0
 18  1  2  0  0  0  0
 18  4  1  0  0  0  0
 19  5  1  0  0  0  0
 19  3  1  0  0  0  0
 20 18  1  0  0  0  0
 22 24  1  0  0  0  0
 23 21  1  0  0  0  0
 24 13  1  0  0  0  0
 25 14  1  0  0  0  0
 25  9  1  0  0  0  0
 26 21  2  0  0  0  0
 27  1  1  0  0  0  0
 28 17  1  0  0  0  0
 29 28  1  0  0  0  0
 30 34  1  0  0  0  0
 31 32  1  0  0  0  0
 32 29  1  0  0  0  0
 33 30  1  0  0  0  0
 33 31  1  0  0  0  0
 34 32  1  0  0  0  0
M  END
>  <MODEL>
1

>  <REMARK>
 VINA RESULT:      -9.2      0.000      0.000
  Name = 
  3 active torsions:
  status: ('A' for Active; 'I' for Inactive)
    1  A    between atoms: C_17  and  O_28
    2  A    between atoms: O_28  and  C_29
    3  A    between atoms: C_29  and  C_32
                            x       y       z     vdW  Elec       q    Type
                         _______ _______ _______ _____ _____    ______ ____

>  <TORSDO>
F 3

$$$$
=
 OpenBabel11122414193D

 34 40  0  0  1  0  0  0  0  0999 V2000
  161.4880  208.4760  149.6850 C   0  0  0  0  0  0  0  0  0  0  0  0
  162.3240  206.9730  147.8600 C   0  0  0  0  0  2  0  0  0  0  0  0
  161.5930  208.8940  156.2270 C   0  0  1  0  0  3  0  0  0  0  0  0
  161.5370  209.4510  151.9060 C   0  0  0  0  0  0  0  0  0  0  0  0
  160.7180  208.0440  153.9040 C   0  0  2  0  0  3  0  0  0  0  0  0
  159.9280  207.0120  156.0540 C   0  0  0  0  0  1  0  0  0  0  0  0
  162.8400  209.3130  155.7990 F   0  0  0  0  0  0  0  0  0  0  0  0
  159.7460  210.3790  155.1800 C   0  0  0  0  0  2  0  0  0  0  0  0
  160.5750  206.1280  149.3000 N   0  0  2  0  0  0  0  0  0  0  0  0
  160.7320  203.0160  149.8320 C   0  0  0  0  0  2  0  0  0  0  0  0
  161.1170  206.8690  153.0240 C   0  0  0  0  0  2  0  0  0  0  0  0
  160.5200  210.5980  153.8780 C   0  0  0  0  0  2  0  0  0  0  0  0
  160.9150  205.8870  150.7240 C   0  0  1  0  0  3  0  0  0  0  0  0
  161.8830  205.6610  147.2900 C   0  0  0  0  0  2  0  0  0  0  0  0
  161.3220  209.3760  153.4010 C   0  0  2  0  0  3  0  0  0  0  0  0
  160.6430  210.0920  156.3830 C   0  0  0  0  0  2  0  0  0  0  0  0
  161.7090  203.8180  148.9880 C   0  0  2  0  0  3  0  0  0  0  0  0
  161.2550  208.3540  151.0580 C   0  0  0  0  0  0  0  0  0  0  0  0
  161.0810  207.7220  155.3670 C   0  0  2  0  0  3  0  0  0  0  0  0
  160.6250  207.1100  151.6000 C   0  0  2  0  0  3  0  0  0  0  0  0
  162.3010  210.7210  150.0460 C   0  0  0  0  0  3  0  0  0  0  0  0
  160.7660  203.4910  151.2050 N   0  0  0  0  0  2  0  0  0  0  0  0
  162.0680  210.5870  151.3770 N   0  0  0  0  0  0  0  0  0  0  0  0
  160.0420  204.7490  151.2580 C   0  0  0  0  0  2  0  0  0  0  0  0
  161.0010  205.0450  148.3660 C   0  0  1  0  0  3  0  0  0  0  0  0
  162.0070  209.6720  149.1780 C   0  0  0  0  0  3  0  0  0  0  0  0
  161.1560  207.3610  148.7290 C   0  0  1  0  0  3  0  0  0  0  0  0
  162.2100  202.9850  147.9830 O   0  0  0  0  0  0  0  0  0  0  0  0
  161.0930  202.3000  147.4960 C   0  0  0  0  0  2  0  0  0  0  0  0
  159.2770  201.4620  144.8650 O   0  0  0  0  0  0  0  0  0  0  0  0
  160.7170  203.2480  145.2970 N   0  0  0  0  0  2  0  0  0  0  0  0
  161.2280  202.0930  145.9980 C   0  0  2  0  0  3  0  0  0  0  0  0
  159.7250  202.7020  144.3840 C   0  0  0  0  0  2  0  0  0  0  0  0
  160.3630  200.9380  145.5720 C   0  0  0  0  0  2  0  0  0  0  0  0
  1 18  1  0  0  0  0
  2 27  1  0  0  0  0
  3  7  1  6  0  0  0
  3 16  1  0  0  0  0
  4 15  1  0  0  0  0
  5 11  1  6  0  0  0
  5 19  1  0  0  0  0
  8 16  1  0  0  0  0
  9 13  1  0  0  0  0
 10 22  1  0  0  0  0
 12  8  1  0  0  0  0
 13 24  1  0  0  0  0
 13 20  1  0  0  0  0
 14  2  1  0  0  0  0
 14 25  1  0  0  0  0
 15 12  1  0  0  0  0
 15  5  1  0  0  0  0
 17 10  1  0  0  0  0
 18 20  1  0  0  0  0
 18  4  2  0  0  0  0
 19  6  1  0  0  0  0
 19  3  1  0  0  0  0
 20 11  1  0  0  0  0
 21 23  2  0  0  0  0
 22 24  1  0  0  0  0
 23  4  1  0  0  0  0
 25 17  1  0  0  0  0
 25  9  1  0  0  0  0
 26  1  2  0  0  0  0
 26 21  1  0  0  0  0
 27  9  1  0  0  0  0
 27  1  1  0  0  0  0
 28 17  1  0  0  0  0
 29 28  1  0  0  0  0
 30 34  1  0  0  0  0
 31 32  1  0  0  0  0
 32 29  1  0  0  0  0
 33 30  1  0  0  0  0
 33 31  1  0  0  0  0
 34 32  1  0  0  0  0
M  END
>  <MODEL>
2

>  <REMARK>
 VINA RESULT:      -8.1      2.460      4.441
  Name = 
  3 active torsions:
  status: ('A' for Active; 'I' for Inactive)
    1  A    between atoms: C_17  and  O_28
    2  A    between atoms: O_28  and  C_29
    3  A    between atoms: C_29  and  C_32
                            x       y       z     vdW  Elec       q    Type
                         _______ _______ _______ _____ _____    ______ ____

>  <TORSDO>
F 3

$$$$
=
 OpenBabel11122414193D

 34 40  0  0  1  0  0  0  0  0999 V2000
  161.6710  207.7080  149.5030 C   0  0  0  0  0  0  0  0  0  0  0  0
  161.0990  209.8380  150.6970 C   0  0  0  0  0  2  0  0  0  0  0  0
  159.8240  201.4190  149.3860 C   0  0  1  0  0  3  0  0  0  0  0  0
  161.1970  205.4870  148.6490 C   0  0  0  0  0  0  0  0  0  0  0  0
  161.1270  203.5060  150.2960 C   0  0  2  0  0  3  0  0  0  0  0  0
  161.0630  201.3460  151.5780 C   0  0  0  0  0  1  0  0  0  0  0  0
  158.8550  202.1130  148.6830 F   0  0  0  0  0  0  0  0  0  0  0  0
  162.1460  201.7780  148.2950 C   0  0  0  0  0  2  0  0  0  0  0  0
  162.1720  208.0870  151.9730 N   0  0  2  0  0  0  0  0  0  0  0  0
  161.2590  207.9500  154.9960 C   0  0  0  0  0  2  0  0  0  0  0  0
  160.7670  204.5800  151.3110 C   0  0  0  0  0  2  0  0  0  0  0  0
  161.8270  203.2060  147.8490 C   0  0  0  0  0  2  0  0  0  0  0  0
  161.4060  206.8370  152.2020 C   0  0  1  0  0  3  0  0  0  0  0  0
  161.4130  210.4080  152.0440 C   0  0  0  0  0  2  0  0  0  0  0  0
  160.9650  204.0050  148.8410 C   0  0  2  0  0  3  0  0  0  0  0  0
  160.9090  200.8910  148.4350 C   0  0  0  0  0  2  0  0  0  0  0  0
  160.7370  208.9300  153.9600 C   0  0  2  0  0  3  0  0  0  0  0  0
  161.4810  206.3430  149.7390 C   0  0  0  0  0  0  0  0  0  0  0  0
  160.3140  202.2330  150.6000 C   0  0  2  0  0  3  0  0  0  0  0  0
  161.6750  205.7890  151.1160 C   0  0  2  0  0  3  0  0  0  0  0  0
  161.2510  207.3360  147.1540 C   0  0  0  0  0  3  0  0  0  0  0  0
  160.9370  206.5910  154.5920 N   0  0  0  0  0  2  0  0  0  0  0  0
  161.0710  206.0140  147.4000 N   0  0  0  0  0  0  0  0  0  0  0  0
  161.8520  206.2160  153.5280 C   0  0  0  0  0  2  0  0  0  0  0  0
  161.8180  209.2100  152.8900 C   0  0  1  0  0  3  0  0  0  0  0  0
  161.5630  208.2030  148.1990 C   0  0  0  0  0  3  0  0  0  0  0  0
  162.0290  208.6550  150.6170 C   0  0  1  0  0  3  0  0  0  0  0  0
  160.3820  210.1150  154.6130 O   0  0  0  0  0  0  0  0  0  0  0  0
  159.3900  209.7380  155.5230 C   0  0  0  0  0  2  0  0  0  0  0  0
  158.1850  212.5260  154.2240 O   0  0  0  0  0  0  0  0  0  0  0  0
  157.2070  210.7880  155.4370 N   0  0  0  0  0  2  0  0  0  0  0  0
  158.5620  210.9480  155.9130 C   0  0  2  0  0  3  0  0  0  0  0  0
  156.9620  211.9860  154.6490 C   0  0  0  0  0  2  0  0  0  0  0  0
  159.1000  212.1690  155.2180 C   0  0  0  0  0  2  0  0  0  0  0  0
  1 18  1  0  0  0  0
  1 27  1  0  0  0  0
  2 14  1  0  0  0  0
  3  7  1  6  0  0  0
  3 19  1  0  0  0  0
  4 15  1  0  0  0  0
  4 18  2  0  0  0  0
  5 19  1  0  0  0  0
  5 11  1  1  0  0  0
  8 16  1  0  0  0  0
  9 13  1  0  0  0  0
  9 25  1  0  0  0  0
 12  8  1  0  0  0  0
 12 15  1  0  0  0  0
 13 24  1  0  0  0  0
 14 25  1  0  0  0  0
 15  5  1  0  0  0  0
 16  3  1  0  0  0  0
 17 28  1  0  0  0  0
 17 10  1  0  0  0  0
 18 20  1  0  0  0  0
 19  6  1  0  0  0  0
 20 11  1  0  0  0  0
 20 13  1  0  0  0  0
 21 23  2  0  0  0  0
 21 26  1  0  0  0  0
 22 10  1  0  0  0  0
 23  4  1  0  0  0  0
 24 22  1  0  0  0  0
 25 17  1  0  0  0  0
 26  1  2  0  0  0  0
 27  2  1  0  0  0  0
 27  9  1  0  0  0  0
 28 29  1  0  0  0  0
 29 32  1  0  0  0  0
 30 33  1  0  0  0  0
 30 34  1  0  0  0  0
 31 32  1  0  0  0  0
 33 31  1  0  0  0  0
 34 32  1  0  0  0  0
M  END
>  <MODEL>
3

>  <REMARK>
 VINA RESULT:      -7.4      3.529      9.036
  Name = 
  3 active torsions:
  status: ('A' for Active; 'I' for Inactive)
    1  A    between atoms: C_17  and  O_28
    2  A    between atoms: O_28  and  C_29
    3  A    between atoms: C_29  and  C_32
                            x       y       z     vdW  Elec       q    Type
                         _______ _______ _______ _____ _____    ______ ____

>  <TORSDO>
F 3

$$$$
=
 OpenBabel11122414193D

 34 40  0  0  1  0  0  0  0  0999 V2000
  161.8890  210.1360  151.1590 C   0  0  0  0  0  0  0  0  0  0  0  0
  160.8820  211.4950  153.0090 C   0  0  0  0  0  2  0  0  0  0  0  0
  160.6280  204.6940  147.7270 C   0  0  1  0  0  3  0  0  0  0  0  0
  161.8100  208.5830  149.2970 C   0  0  0  0  0  0  0  0  0  0  0  0
  161.5070  206.0700  149.7810 C   0  0  2  0  0  3  0  0  0  0  0  0
  161.3110  203.5670  149.8730 C   0  0  0  0  0  1  0  0  0  0  0  0
  159.8030  205.6740  147.2040 F   0  0  0  0  0  0  0  0  0  0  0  0
  163.1070  205.4220  147.5340 C   0  0  0  0  0  2  0  0  0  0  0  0
  161.7550  209.3100  153.5660 N   0  0  2  0  0  0  0  0  0  0  0  0
  160.1620  207.8300  155.8590 C   0  0  0  0  0  2  0  0  0  0  0  0
  160.8310  206.5670  151.0490 C   0  0  0  0  0  2  0  0  0  0  0  0
  162.7920  206.9060  147.7270 C   0  0  0  0  0  2  0  0  0  0  0  0
  161.0580  208.1290  153.0000 C   0  0  1  0  0  3  0  0  0  0  0  0
  160.8200  211.3650  154.4990 C   0  0  0  0  0  2  0  0  0  0  0  0
  161.6570  207.1910  148.7260 C   0  0  2  0  0  3  0  0  0  0  0  0
  161.9470  204.6220  146.9420 C   0  0  0  0  0  2  0  0  0  0  0  0
  159.8260  209.1990  155.2930 C   0  0  2  0  0  3  0  0  0  0  0  0
  161.7580  208.8260  150.6890 C   0  0  0  0  0  0  0  0  0  0  0  0
  160.7480  204.8350  149.2570 C   0  0  2  0  0  3  0  0  0  0  0  0
  161.6610  207.6920  151.6600 C   0  0  2  0  0  3  0  0  0  0  0  0
  162.0720  210.9100  148.8780 C   0  0  0  0  0  3  0  0  0  0  0  0
  160.0540  206.8260  154.8140 N   0  0  0  0  0  2  0  0  0  0  0  0
  161.9440  209.6320  148.4390 N   0  0  0  0  0  0  0  0  0  0  0  0
  161.2230  206.9480  153.9590 C   0  0  0  0  0  2  0  0  0  0  0  0
  161.1050  209.8960  154.7740 C   0  0  1  0  0  3  0  0  0  0  0  0
  162.0560  211.1820  150.2440 C   0  0  0  0  0  3  0  0  0  0  0  0
  161.8950  210.4470  152.6310 C   0  0  1  0  0  3  0  0  0  0  0  0
  159.2330  209.9610  156.3040 O   0  0  0  0  0  0  0  0  0  0  0  0
  158.1110  210.5400  155.7050 C   0  0  0  0  0  2  0  0  0  0  0  0
  156.8010  213.5700  155.5680 O   0  0  0  0  0  0  0  0  0  0  0  0
  156.0900  211.5770  156.5520 N   0  0  0  0  0  2  0  0  0  0  0  0
  157.5330  211.6080  156.6160 C   0  0  2  0  0  3  0  0  0  0  0  0
  155.7190  212.9380  156.1980 C   0  0  0  0  0  2  0  0  0  0  0  0
  157.9370  212.9670  156.1150 C   0  0  0  0  0  2  0  0  0  0  0  0
  1 27  1  0  0  0  0
  2 14  1  0  0  0  0
  3  7  1  6  0  0  0
  3 19  1  0  0  0  0
  4 18  2  0  0  0  0
  5 11  1  1  0  0  0
  8 12  1  0  0  0  0
  9 25  1  0  0  0  0
 11 20  1  0  0  0  0
 12 15  1  0  0  0  0
 13  9  1  0  0  0  0
 13 24  1  0  0  0  0
 14 25  1  0  0  0  0
 15  4  1  0  0  0  0
 15  5  1  0  0  0  0
 16  8  1  0  0  0  0
 16  3  1  0  0  0  0
 17 10  1  0  0  0  0
 17 28  1  0  0  0  0
 18  1  1  0  0  0  0
 18 20  1  0  0  0  0
 19  5  1  0  0  0  0
 19  6  1  0  0  0  0
 20 13  1  0  0  0  0
 21 26  1  0  0  0  0
 22 10  1  0  0  0  0
 23 21  2  0  0  0  0
 23  4  1  0  0  0  0
 24 22  1  0  0  0  0
 25 17  1  0  0  0  0
 26  1  2  0  0  0  0
 27  2  1  0  0  0  0
 27  9  1  0  0  0  0
 29 28  1  0  0  0  0
 29 32  1  0  0  0  0
 30 34  1  0  0  0  0
 30 33  1  0  0  0  0
 31 32  1  0  0  0  0
 33 31  1  0  0  0  0
 34 32  1  0  0  0  0
M  END
>  <MODEL>
4

>  <REMARK>
 VINA RESULT:      -6.8      3.652      8.857
  Name = 
  3 active torsions:
  status: ('A' for Active; 'I' for Inactive)
    1  A    between atoms: C_17  and  O_28
    2  A    between atoms: O_28  and  C_29
    3  A    between atoms: C_29  and  C_32
                            x       y       z     vdW  Elec       q    Type
                         _______ _______ _______ _____ _____    ______ ____

>  <TORSDO>
F 3

$$$$
=
 OpenBabel11122414193D

 34 40  0  0  1  0  0  0  0  0999 V2000
  161.9150  207.2450  148.1940 C   0  0  0  0  0  0  0  0  0  0  0  0
  161.4880  209.6520  148.7500 C   0  0  0  0  0  2  0  0  0  0  0  0
  159.6360  201.2990  149.7550 C   0  0  1  0  0  3  0  0  0  0  0  0
  161.2890  204.9120  147.9670 C   0  0  0  0  0  0  0  0  0  0  0  0
  161.0790  203.4640  150.0890 C   0  0  2  0  0  3  0  0  0  0  0  0
  160.8620  201.7460  151.9090 C   0  0  0  0  0  1  0  0  0  0  0  0
  158.7200  201.8370  148.8690 F   0  0  0  0  0  0  0  0  0  0  0  0
  161.9800  201.1920  148.6570 C   0  0  0  0  0  2  0  0  0  0  0  0
  162.4340  208.2500  150.4780 N   0  0  2  0  0  0  0  0  0  0  0  0
  161.5070  209.0040  153.4030 C   0  0  0  0  0  2  0  0  0  0  0  0
  160.7910  204.7960  150.7660 C   0  0  0  0  0  2  0  0  0  0  0  0
  161.7620  202.4630  147.8320 C   0  0  0  0  0  2  0  0  0  0  0  0
  161.5830  207.1630  151.0220 C   0  0  1  0  0  3  0  0  0  0  0  0
  161.8390  210.5470  149.8970 C   0  0  0  0  0  2  0  0  0  0  0  0
  160.9550  203.5570  148.5500 C   0  0  2  0  0  3  0  0  0  0  0  0
  160.6840  200.4610  149.0070 C   0  0  0  0  0  2  0  0  0  0  0  0
  161.0560  209.6970  152.1280 C   0  0  2  0  0  3  0  0  0  0  0  0
  161.6300  206.0120  148.7880 C   0  0  0  0  0  0  0  0  0  0  0  0
  160.1780  202.3790  150.7110 C   0  0  2  0  0  3  0  0  0  0  0  0
  161.7820  205.8440  150.2680 C   0  0  2  0  0  3  0  0  0  0  0  0
  161.4760  206.2740  146.0270 C   0  0  0  0  0  3  0  0  0  0  0  0
  161.0920  207.6120  153.3780 N   0  0  0  0  0  2  0  0  0  0  0  0
  161.2040  205.0840  146.6190 N   0  0  0  0  0  0  0  0  0  0  0  0
  161.9810  206.9000  152.4760 C   0  0  0  0  0  2  0  0  0  0  0  0
  162.1570  209.6010  151.0460 C   0  0  1  0  0  3  0  0  0  0  0  0
  161.8440  207.3710  146.8020 C   0  0  0  0  0  3  0  0  0  0  0  0
  162.3350  208.4350  149.0150 C   0  0  1  0  0  3  0  0  0  0  0  0
  160.7830  211.0360  152.4270 O   0  0  0  0  0  0  0  0  0  0  0  0
  160.8500  211.1120  153.8210 C   0  0  0  0  0  2  0  0  0  0  0  0
  157.8990  212.4200  153.1150 O   0  0  0  0  0  0  0  0  0  0  0  0
  158.8220  211.5500  155.0750 N   0  0  0  0  0  2  0  0  0  0  0  0
  159.8890  212.1730  154.3260 C   0  0  2  0  0  3  0  0  0  0  0  0
  157.6080  212.0250  154.4300 C   0  0  0  0  0  2  0  0  0  0  0  0
  159.2290  212.8490  153.1550 C   0  0  0  0  0  2  0  0  0  0  0  0
  1 18  1  0  0  0  0
  1 27  1  0  0  0  0
  2 27  1  0  0  0  0
  2 14  1  0  0  0  0
  3  7  1  6  0  0  0
  3 19  1  0  0  0  0
  4 15  1  0  0  0  0
  4 18  2  0  0  0  0
  5 19  1  0  0  0  0
  5 11  1  1  0  0  0
  8 16  1  0  0  0  0
  9 13  1  0  0  0  0
  9 25  1  0  0  0  0
 12 15  1  0  0  0  0
 12  8  1  0  0  0  0
 13 24  1  0  0  0  0
 14 25  1  0  0  0  0
 15  5  1  0  0  0  0
 16  3  1  0  0  0  0
 17 28  1  0  0  0  0
 17 10  1  0  0  0  0
 18 20  1  0  0  0  0
 19  6  1  0  0  0  0
 20 11  1  0  0  0  0
 20 13  1  0  0  0  0
 21 23  2  0  0  0  0
 21 26  1  0  0  0  0
 22 10  1  0  0  0  0
 23  4  1  0  0  0  0
 24 22  1  0  0  0  0
 25 17  1  0  0  0  0
 26  1  2  0  0  0  0
 27  9  1  0  0  0  0
 28 29  1  0  0  0  0
 29 32  1  0  0  0  0
 30 34  1  0  0  0  0
 30 33  1  0  0  0  0
 32 31  1  0  0  0  0
 33 31  1  0  0  0  0
 34 32  1  0  0  0  0
M  END
>  <MODEL>
5

>  <REMARK>
 VINA RESULT:      -6.7      3.460      9.052
  Name = 
  3 active torsions:
  status: ('A' for Active; 'I' for Inactive)
    1  A    between atoms: C_17  and  O_28
    2  A    between atoms: O_28  and  C_29
    3  A    between atoms: C_29  and  C_32
                            x       y       z     vdW  Elec       q    Type
                         _______ _______ _______ _____ _____    ______ ____

>  <TORSDO>
F 3

$$$$
=
 OpenBabel11122414193D

 34 40  0  0  1  0  0  0  0  0999 V2000
  160.8900  204.8520  151.8700 C   0  0  0  0  0  0  0  0  0  0  0  0
  161.4590  206.1310  153.9500 C   0  0  0  0  0  2  0  0  0  0  0  0
  162.9160  204.2970  145.6600 C   0  0  1  0  0  3  0  0  0  0  0  0
  161.3860  203.8540  149.7150 C   0  0  0  0  0  0  0  0  0  0  0  0
  161.5990  205.3830  147.6510 C   0  0  2  0  0  3  0  0  0  0  0  0
  161.7930  206.5400  145.4290 C   0  0  0  0  0  1  0  0  0  0  0  0
  163.8260  203.5870  146.4220 F   0  0  0  0  0  0  0  0  0  0  0  0
  160.5310  203.3430  146.0010 C   0  0  0  0  0  2  0  0  0  0  0  0
  160.5050  207.3610  152.0990 N   0  0  2  0  0  0  0  0  0  0  0  0
  161.5740  210.3230  151.8300 C   0  0  0  0  0  2  0  0  0  0  0  0
  161.9780  206.4370  148.6800 C   0  0  0  0  0  2  0  0  0  0  0  0
  160.7840  202.9620  147.4610 C   0  0  0  0  0  2  0  0  0  0  0  0
  161.3180  207.4820  150.8640 C   0  0  1  0  0  3  0  0  0  0  0  0
  161.1960  207.5220  154.4370 C   0  0  0  0  0  2  0  0  0  0  0  0
  161.6720  203.9520  148.2330 C   0  0  2  0  0  3  0  0  0  0  0  0
  161.8000  203.3730  145.1480 C   0  0  0  0  0  2  0  0  0  0  0  0
  162.0130  209.3170  152.8820 C   0  0  2  0  0  3  0  0  0  0  0  0
  161.1320  205.0020  150.5010 C   0  0  0  0  0  0  0  0  0  0  0  0
  162.4650  205.5760  146.3910 C   0  0  2  0  0  3  0  0  0  0  0  0
  161.0250  206.3540  149.8690 C   0  0  2  0  0  3  0  0  0  0  0  0
  161.2000  202.4680  151.6390 C   0  0  0  0  0  3  0  0  0  0  0  0
  161.9160  209.8290  150.5060 N   0  0  0  0  0  2  0  0  0  0  0  0
  161.4320  202.6310  150.3110 N   0  0  0  0  0  0  0  0  0  0  0  0
  160.9600  208.7920  150.1590 C   0  0  0  0  0  2  0  0  0  0  0  0
  160.8710  208.3190  153.1820 C   0  0  1  0  0  3  0  0  0  0  0  0
  160.9160  203.5730  152.4380 C   0  0  0  0  0  3  0  0  0  0  0  0
  160.5610  206.0320  152.7440 C   0  0  1  0  0  3  0  0  0  0  0  0
  162.3650  210.0170  154.0400 O   0  0  0  0  0  0  0  0  0  0  0  0
  161.4440  211.0650  154.1180 C   0  0  0  0  0  2  0  0  0  0  0  0
  159.7190  209.7470  156.6090 O   0  0  0  0  0  0  0  0  0  0  0  0
  161.9150  210.5180  156.4320 N   0  0  0  0  0  2  0  0  0  0  0  0
  161.0930  211.3350  155.5700 C   0  0  2  0  0  3  0  0  0  0  0  0
  160.9600  209.7990  157.2610 C   0  0  0  0  0  2  0  0  0  0  0  0
  159.6740  210.9070  155.8300 C   0  0  0  0  0  2  0  0  0  0  0  0
  1 26  1  0  0  0  0
  1 27  1  0  0  0  0
  2 14  1  0  0  0  0
  3 19  1  0  0  0  0
  3  7  1  1  0  0  0
  4 23  2  0  0  0  0
  4 18  1  0  0  0  0
  5 15  1  0  0  0  0
  5 11  1  1  0  0  0
  6 19  1  0  0  0  0
  8 12  1  0  0  0  0
  9 27  1  0  0  0  0
  9 25  1  0  0  0  0
 10 17  1  0  0  0  0
 11 20  1  0  0  0  0
 12 15  1  0  0  0  0
 13  9  1  0  0  0  0
 15  4  1  0  0  0  0
 16  3  1  0  0  0  0
 16  8  1  0  0  0  0
 17 25  1  0  0  0  0
 17 28  1  0  0  0  0
 18  1  2  0  0  0  0
 19  5  1  0  0  0  0
 20 18  1  0  0  0  0
 20 13  1  0  0  0  0
 21 26  2  0  0  0  0
 22 10  1  0  0  0  0
 23 21  1  0  0  0  0
 24 22  1  0  0  0  0
 24 13  1  0  0  0  0
 25 14  1  0  0  0  0
 27  2  1  0  0  0  0
 28 29  1  0  0  0  0
 29 32  1  0  0  0  0
 30 33  1  0  0  0  0
 31 33  1  0  0  0  0
 32 34  1  0  0  0  0
 32 31  1  0  0  0  0
 34 30  1  0  0  0  0
M  END
>  <MODEL>
6

>  <REMARK>
 VINA RESULT:      -6.6      3.803      8.660
  Name = 
  3 active torsions:
  status: ('A' for Active; 'I' for Inactive)
    1  A    between atoms: C_17  and  O_28
    2  A    between atoms: O_28  and  C_29
    3  A    between atoms: C_29  and  C_32
                            x       y       z     vdW  Elec       q    Type
                         _______ _______ _______ _____ _____    ______ ____

>  <TORSDO>
F 3

$$$$
