=
 OpenBabel11122414383D

 34 41  0  0  1  0  0  0  0  0999 V2000
  160.8690  207.3340  154.6890 C   0  0  0  0  0  0  0  0  0  0  0  0
  161.1280  205.1970  153.4380 C   0  0  0  0  0  2  0  0  0  0  0  0
  158.8180  213.5040  154.5480 C   0  0  2  0  0  3  0  0  0  0  0  0
  159.6290  209.2950  155.3300 C   0  0  0  0  0  0  0  0  0  0  0  0
  159.7700  211.3260  153.7880 C   0  0  2  0  0  3  0  0  0  0  0  0
  159.8440  213.2710  152.3980 O   0  0  0  0  0  1  0  0  0  0  0  0
  160.0170  213.8190  155.1940 O   0  0  0  0  0  1  0  0  0  0  0  0
  158.1630  211.3830  155.8950 C   0  0  1  0  0  3  0  0  0  0  0  0
  162.0220  207.1930  152.3670 C   0  0  2  0  0  3  0  0  0  0  0  0
  161.7950  207.1730  149.1760 C   0  0  0  0  0  2  0  0  0  0  0  0
  159.8840  210.3580  152.7000 N   0  0  0  0  0  2  0  0  0  0  0  0
  157.6970  210.5690  154.8370 O   0  0  0  0  0  0  0  0  0  0  0  0
  161.0470  208.3210  151.9590 C   0  0  1  0  0  3  0  0  0  0  0  0
  161.8210  204.7440  152.1780 C   0  0  0  0  0  2  0  0  0  0  0  0
  159.0940  210.6480  154.9850 C   0  0  2  0  0  0  0  0  0  0  0  0
  157.8480  212.8440  155.5280 C   0  0  0  0  0  2  0  0  0  0  0  0
  161.2600  206.0910  150.1040 C   0  0  2  0  0  3  0  0  0  0  0  0
  160.4010  208.6140  154.3720 C   0  0  0  0  0  0  0  0  0  0  0  0
  159.0650  212.6000  153.3410 C   0  0  2  0  0  3  0  0  0  0  0  0
  160.8400  209.3150  153.1020 C   0  0  2  0  0  3  0  0  0  0  0  0
  159.8040  207.4610  156.8050 C   0  0  0  0  0  3  0  0  0  0  0  0
  161.1310  208.5050  149.4620 C   0  0  0  0  0  2  0  0  0  0  0  0
  159.3390  208.7040  156.5170 N   0  0  0  0  0  0  0  0  0  0  0  0
  161.6270  209.0830  150.7740 C   0  0  0  0  0  2  0  0  0  0  0  0
  162.1300  206.0060  151.3750 C   0  0  1  0  0  3  0  0  0  0  0  0
  160.5620  206.7910  155.8980 N   0  0  0  0  0  0  0  0  0  0  0  0
  161.7270  206.5510  153.7330 C   0  0  1  0  0  3  0  0  0  0  0  0
  161.2680  204.7720  149.3400 C   0  0  0  0  0  2  0  0  0  0  0  0
  161.6070  205.0090  147.8790 C   0  0  0  0  0  2  0  0  0  0  0  0
  160.8780  202.4810  145.2430 N   0  0  0  0  0  0  0  0  0  0  0  0
  161.0390  202.2570  147.7230 S   0  0  0  0  0  0  0  0  0  0  0  0
  161.3250  203.7810  147.0880 C   0  0  0  0  0  0  0  0  0  0  0  0
  160.7610  201.5510  146.2190 C   0  0  0  0  0  3  0  0  0  0  0  0
  161.1840  203.7210  145.7110 C   0  0  0  0  0  3  0  0  0  0  0  0
  1 26  1  0  0  0  0
  2 27  1  0  0  0  0
  3  7  1  1  0  0  0
  3 16  1  0  0  0  0
  4 23  2  0  0  0  0
  5 11  1  6  0  0  0
  5 15  1  0  0  0  0
  6 19  1  0  0  0  0
  8 16  1  6  0  0  0
  9 27  1  0  0  0  0
 10 22  1  0  0  0  0
 10 17  1  0  0  0  0
 11 20  1  0  0  0  0
 12 15  1  0  0  0  0
 12  8  1  0  0  0  0
 13  9  1  0  0  0  0
 13 20  1  0  0  0  0
 14  2  1  0  0  0  0
 15  4  1  0  0  0  0
 15  8  1  0  0  0  0
 17 25  1  0  0  0  0
 18  1  2  0  0  0  0
 18  4  1  0  0  0  0
 19  5  1  0  0  0  0
 19  3  1  0  0  0  0
 20 18  1  0  0  0  0
 22 24  1  0  0  0  0
 23 21  1  0  0  0  0
 24 13  1  0  0  0  0
 25 14  1  0  0  0  0
 25  9  1  0  0  0  0
 26 21  2  0  0  0  0
 27  1  1  0  0  0  0
 28 17  1  0  0  0  0
 29 28  1  0  0  0  0
 30 34  1  0  0  0  0
 30 33  2  0  0  0  0
 32 31  1  0  0  0  0
 32 29  1  0  0  0  0
 33 31  1  0  0  0  0
 34 32  2  0  0  0  0
M  END
>  <MODEL>
1

>  <REMARK>
 VINA RESULT:      -8.2      0.000      0.000
  Name = 
  3 active torsions:
  status: ('A' for Active; 'I' for Inactive)
    1  A    between atoms: C_17  and  C_28
    2  A    between atoms: C_28  and  C_29
    3  A    between atoms: C_29  and  C_32
                            x       y       z     vdW  Elec       q    Type
                         _______ _______ _______ _____ _____    ______ ____

>  <TORSDO>
F 3

$$$$
=
 OpenBabel11122414383D

 34 41  0  0  1  0  0  0  0  0999 V2000
  161.9910  209.5840  150.9150 C   0  0  0  0  0  0  0  0  0  0  0  0
  161.2490  211.1280  152.7210 C   0  0  0  0  0  2  0  0  0  0  0  0
  161.2910  203.7560  148.1130 C   0  0  2  0  0  3  0  0  0  0  0  0
  161.5690  207.9720  149.1770 C   0  0  0  0  0  0  0  0  0  0  0  0
  161.3690  205.5240  149.8730 C   0  0  2  0  0  3  0  0  0  0  0  0
  161.1630  203.2090  150.4400 O   0  0  0  0  0  1  0  0  0  0  0  0
  162.6880  203.7090  148.0800 O   0  0  0  0  0  1  0  0  0  0  0  0
  160.9390  206.2130  147.3510 C   0  0  1  0  0  3  0  0  0  0  0  0
  161.9120  208.8900  153.4160 C   0  0  2  0  0  3  0  0  0  0  0  0
  160.2580  207.7550  155.9080 C   0  0  0  0  0  2  0  0  0  0  0  0
  160.7920  206.0340  151.1140 N   0  0  0  0  0  2  0  0  0  0  0  0
  159.9000  206.5850  148.2350 O   0  0  0  0  0  0  0  0  0  0  0  0
  161.0870  207.6800  152.9190 C   0  0  1  0  0  3  0  0  0  0  0  0
  161.1940  211.1030  154.2270 C   0  0  0  0  0  2  0  0  0  0  0  0
  161.1980  206.5800  148.7770 C   0  0  2  0  0  0  0  0  0  0  0  0
  160.7690  204.7150  147.0420 C   0  0  0  0  0  2  0  0  0  0  0  0
  160.0120  209.0930  155.2240 C   0  0  2  0  0  3  0  0  0  0  0  0
  161.6780  208.2700  150.5470 C   0  0  0  0  0  0  0  0  0  0  0  0
  160.7880  204.1660  149.4960 C   0  0  2  0  0  3  0  0  0  0  0  0
  161.6130  207.1630  151.5790 C   0  0  2  0  0  3  0  0  0  0  0  0
  162.0500  210.2170  148.6290 C   0  0  0  0  0  3  0  0  0  0  0  0
  160.0580  206.6080  154.9360 C   0  0  0  0  0  2  0  0  0  0  0  0
  161.7460  208.9490  148.2510 N   0  0  0  0  0  0  0  0  0  0  0  0
  161.1950  206.5480  153.9340 C   0  0  0  0  0  2  0  0  0  0  0  0
  161.3330  209.6400  154.6430 C   0  0  1  0  0  3  0  0  0  0  0  0
  162.1730  210.5230  149.9470 N   0  0  0  0  0  0  0  0  0  0  0  0
  162.1570  209.9780  152.3570 C   0  0  1  0  0  3  0  0  0  0  0  0
  159.4260  210.0470  156.2570 C   0  0  0  0  0  2  0  0  0  0  0  0
  158.0080  210.4340  155.8760 C   0  0  0  0  0  2  0  0  0  0  0  0
  157.8100  213.3100  153.5180 N   0  0  0  0  0  0  0  0  0  0  0  0
  158.4870  213.2070  155.9180 S   0  0  0  0  0  0  0  0  0  0  0  0
  158.0080  211.7640  155.2120 C   0  0  0  0  0  0  0  0  0  0  0  0
  158.2460  214.1120  154.5180 C   0  0  0  0  0  3  0  0  0  0  0  0
  157.6800  212.0070  153.8880 C   0  0  0  0  0  3  0  0  0  0  0  0
  1 27  1  0  0  0  0
  2 14  1  0  0  0  0
  3  7  1  1  0  0  0
  3 19  1  0  0  0  0
  4 18  2  0  0  0  0
  5 11  1  1  0  0  0
  8 16  1  1  0  0  0
  8 12  1  0  0  0  0
  8 15  1  0  0  0  0
  9 25  1  0  0  0  0
 11 20  1  0  0  0  0
 12 15  1  0  0  0  0
 13  9  1  0  0  0  0
 13 24  1  0  0  0  0
 14 25  1  0  0  0  0
 15  4  1  0  0  0  0
 15  5  1  0  0  0  0
 16  3  1  0  0  0  0
 17 10  1  0  0  0  0
 17 28  1  0  0  0  0
 18  1  1  0  0  0  0
 18 20  1  0  0  0  0
 19  5  1  0  0  0  0
 19  6  1  0  0  0  0
 20 13  1  0  0  0  0
 21 26  1  0  0  0  0
 22 10  1  0  0  0  0
 23 21  2  0  0  0  0
 23  4  1  0  0  0  0
 24 22  1  0  0  0  0
 25 17  1  0  0  0  0
 26  1  2  0  0  0  0
 27  2  1  0  0  0  0
 27  9  1  0  0  0  0
 29 28  1  0  0  0  0
 30 34  1  0  0  0  0
 30 33  2  0  0  0  0
 32 29  1  0  0  0  0
 32 31  1  0  0  0  0
 33 31  1  0  0  0  0
 34 32  2  0  0  0  0
M  END
>  <MODEL>
2

>  <REMARK>
 VINA RESULT:      -7.4      4.132      8.744
  Name = 
  3 active torsions:
  status: ('A' for Active; 'I' for Inactive)
    1  A    between atoms: C_17  and  C_28
    2  A    between atoms: C_28  and  C_29
    3  A    between atoms: C_29  and  C_32
                            x       y       z     vdW  Elec       q    Type
                         _______ _______ _______ _____ _____    ______ ____

>  <TORSDO>
F 3

$$$$
=
 OpenBabel11122414383D

 34 41  0  0  1  0  0  0  0  0999 V2000
  161.3230  207.9270  149.3030 C   0  0  0  0  0  0  0  0  0  0  0  0
  162.0280  206.1460  147.7130 C   0  0  0  0  0  2  0  0  0  0  0  0
  160.6600  209.7160  155.5200 C   0  0  2  0  0  3  0  0  0  0  0  0
  161.6130  209.2470  151.2940 C   0  0  0  0  0  0  0  0  0  0  0  0
  160.7260  208.2760  153.4830 C   0  0  2  0  0  3  0  0  0  0  0  0
  159.9270  207.4390  155.5760 O   0  0  0  0  0  1  0  0  0  0  0  0
  159.4060  210.2120  155.1460 O   0  0  0  0  0  1  0  0  0  0  0  0
  162.0610  210.5650  153.5050 C   0  0  1  0  0  3  0  0  0  0  0  0
  160.4470  205.4870  149.4430 C   0  0  2  0  0  3  0  0  0  0  0  0
  160.8200  202.4820  150.4760 C   0  0  0  0  0  2  0  0  0  0  0  0
  161.0750  206.9730  152.9220 N   0  0  0  0  0  2  0  0  0  0  0  0
  162.8720  209.4280  153.2890 O   0  0  0  0  0  0  0  0  0  0  0  0
  160.8910  205.5510  150.9230 C   0  0  1  0  0  3  0  0  0  0  0  0
  161.6460  204.7140  147.4350 C   0  0  0  0  0  2  0  0  0  0  0  0
  161.5610  209.3550  152.7850 C   0  0  2  0  0  0  0  0  0  0  0  0
  161.7660  210.6430  155.0140 C   0  0  0  0  0  2  0  0  0  0  0  0
  161.7060  203.1780  149.4520 C   0  0  2  0  0  3  0  0  0  0  0  0
  161.2390  208.0320  150.6960 C   0  0  0  0  0  0  0  0  0  0  0  0
  160.8660  208.2950  155.0000 C   0  0  2  0  0  3  0  0  0  0  0  0
  160.6140  206.9290  151.5260 C   0  0  2  0  0  3  0  0  0  0  0  0
  162.1360  210.1520  149.1780 C   0  0  0  0  0  3  0  0  0  0  0  0
  160.8620  203.2070  151.8060 C   0  0  0  0  0  2  0  0  0  0  0  0
  162.0620  210.2750  150.5280 N   0  0  0  0  0  0  0  0  0  0  0  0
  160.1080  204.5210  151.7280 C   0  0  0  0  0  2  0  0  0  0  0  0
  160.8850  204.2200  148.6640 C   0  0  1  0  0  3  0  0  0  0  0  0
  161.7660  208.9910  148.5790 N   0  0  0  0  0  0  0  0  0  0  0  0
  160.9120  206.6730  148.5820 C   0  0  1  0  0  3  0  0  0  0  0  0
  162.2790  202.1110  148.5250 C   0  0  0  0  0  2  0  0  0  0  0  0
  161.2990  200.9610  148.3740 C   0  0  0  0  0  2  0  0  0  0  0  0
  159.9530  201.3440  144.9230 N   0  0  0  0  0  0  0  0  0  0  0  0
  161.1440  199.4400  146.0120 S   0  0  0  0  0  0  0  0  0  0  0  0
  160.9100  200.8110  146.9470 C   0  0  0  0  0  0  0  0  0  0  0  0
  160.3880  200.0900  144.6550 C   0  0  0  0  0  3  0  0  0  0  0  0
  160.2310  201.7520  146.1910 C   0  0  0  0  0  3  0  0  0  0  0  0
  1 18  1  0  0  0  0
  2 27  1  0  0  0  0
  3  7  1  6  0  0  0
  4 15  1  0  0  0  0
  5 11  1  6  0  0  0
  5 19  1  0  0  0  0
  8 16  1  1  0  0  0
  9 13  1  0  0  0  0
 10 22  1  0  0  0  0
 12  8  1  0  0  0  0
 13 20  1  0  0  0  0
 13 24  1  0  0  0  0
 14  2  1  0  0  0  0
 14 25  1  0  0  0  0
 15 12  1  0  0  0  0
 15  5  1  0  0  0  0
 15  8  1  0  0  0  0
 16  3  1  0  0  0  0
 17 10  1  0  0  0  0
 18  4  2  0  0  0  0
 18 20  1  0  0  0  0
 19  3  1  0  0  0  0
 19  6  1  0  0  0  0
 20 11  1  0  0  0  0
 21 23  2  0  0  0  0
 23  4  1  0  0  0  0
 24 22  1  0  0  0  0
 25  9  1  0  0  0  0
 25 17  1  0  0  0  0
 26 21  1  0  0  0  0
 26  1  2  0  0  0  0
 27  1  1  0  0  0  0
 27  9  1  0  0  0  0
 28 17  1  0  0  0  0
 29 28  1  0  0  0  0
 30 34  1  0  0  0  0
 31 32  1  0  0  0  0
 32 29  1  0  0  0  0
 33 30  2  0  0  0  0
 33 31  1  0  0  0  0
 34 32  2  0  0  0  0
M  END
>  <MODEL>
3

>  <REMARK>
 VINA RESULT:      -7.2      2.344      4.621
  Name = 
  3 active torsions:
  status: ('A' for Active; 'I' for Inactive)
    1  A    between atoms: C_17  and  C_28
    2  A    between atoms: C_28  and  C_29
    3  A    between atoms: C_29  and  C_32
                            x       y       z     vdW  Elec       q    Type
                         _______ _______ _______ _____ _____    ______ ____

>  <TORSDO>
F 3

$$$$
=
 OpenBabel11122414383D

 34 41  0  0  1  0  0  0  0  0999 V2000
  161.8150  208.9560  151.2360 C   0  0  0  0  0  0  0  0  0  0  0  0
  161.0360  211.0010  152.4220 C   0  0  0  0  0  2  0  0  0  0  0  0
  161.0780  202.5510  150.3800 C   0  0  2  0  0  3  0  0  0  0  0  0
  161.4270  206.8830  150.0750 C   0  0  0  0  0  0  0  0  0  0  0  0
  161.1260  204.7830  151.4950 C   0  0  2  0  0  3  0  0  0  0  0  0
  160.8290  202.7690  152.7510 O   0  0  0  0  0  1  0  0  0  0  0  0
  162.4740  202.4780  150.4360 O   0  0  0  0  0  1  0  0  0  0  0  0
  160.8310  204.6450  148.8650 C   0  0  1  0  0  3  0  0  0  0  0  0
  161.6020  209.0900  153.8200 C   0  0  2  0  0  3  0  0  0  0  0  0
  159.8050  208.8210  156.4530 C   0  0  0  0  0  2  0  0  0  0  0  0
  160.5080  205.6670  152.4800 N   0  0  0  0  0  2  0  0  0  0  0  0
  159.7640  205.2900  149.5310 O   0  0  0  0  0  0  0  0  0  0  0  0
  160.7670  207.7950  153.6880 C   0  0  1  0  0  3  0  0  0  0  0  0
  160.9120  211.4540  153.8540 C   0  0  0  0  0  2  0  0  0  0  0  0
  161.0350  205.4410  150.1140 C   0  0  2  0  0  0  0  0  0  0  0  0
  160.6340  203.1280  149.0360 C   0  0  0  0  0  2  0  0  0  0  0  0
  159.6290  209.8770  155.3700 C   0  0  2  0  0  3  0  0  0  0  0  0
  161.4820  207.5970  151.2840 C   0  0  0  0  0  0  0  0  0  0  0  0
  160.5250  203.3830  151.5350 C   0  0  2  0  0  3  0  0  0  0  0  0
  161.3380  206.8740  152.6080 C   0  0  2  0  0  3  0  0  0  0  0  0
  161.9970  208.8340  148.8730 C   0  0  0  0  0  3  0  0  0  0  0  0
  159.6170  207.4290  155.8830 C   0  0  0  0  0  2  0  0  0  0  0  0
  161.6740  207.5150  148.8980 N   0  0  0  0  0  0  0  0  0  0  0  0
  160.7970  207.0400  155.0110 C   0  0  0  0  0  2  0  0  0  0  0  0
  160.9900  210.1960  154.7170 C   0  0  1  0  0  3  0  0  0  0  0  0
  162.0680  209.5390  150.0320 N   0  0  0  0  0  0  0  0  0  0  0  0
  161.9260  209.7840  152.4860 C   0  0  1  0  0  3  0  0  0  0  0  0
  159.0240  211.1170  156.0180 C   0  0  0  0  0  2  0  0  0  0  0  0
  157.5090  211.0800  155.9170 C   0  0  0  0  0  2  0  0  0  0  0  0
  156.9110  213.5900  153.2310 N   0  0  0  0  0  0  0  0  0  0  0  0
  155.9300  213.3750  155.5160 S   0  0  0  0  0  0  0  0  0  0  0  0
  157.0320  212.1970  155.0590 C   0  0  0  0  0  0  0  0  0  0  0  0
  156.0330  214.2080  154.0550 C   0  0  0  0  0  3  0  0  0  0  0  0
  157.4750  212.4790  153.7770 C   0  0  0  0  0  3  0  0  0  0  0  0
  1 18  1  0  0  0  0
  1 27  1  0  0  0  0
  2 27  1  0  0  0  0
  2 14  1  0  0  0  0
  3  7  1  6  0  0  0
  3 19  1  0  0  0  0
  4 15  1  0  0  0  0
  4 18  2  0  0  0  0
  5 19  1  0  0  0  0
  5 11  1  1  0  0  0
  8 16  1  1  0  0  0
  8 12  1  0  0  0  0
  8 15  1  0  0  0  0
  9 25  1  0  0  0  0
 11 20  1  0  0  0  0
 12 15  1  0  0  0  0
 13  9  1  0  0  0  0
 13 24  1  0  0  0  0
 14 25  1  0  0  0  0
 15  5  1  0  0  0  0
 16  3  1  0  0  0  0
 17 28  1  0  0  0  0
 17 10  1  0  0  0  0
 18 20  1  0  0  0  0
 19  6  1  0  0  0  0
 20 13  1  0  0  0  0
 21 23  2  0  0  0  0
 21 26  1  0  0  0  0
 22 10  1  0  0  0  0
 23  4  1  0  0  0  0
 24 22  1  0  0  0  0
 25 17  1  0  0  0  0
 26  1  2  0  0  0  0
 27  9  1  0  0  0  0
 29 28  1  0  0  0  0
 30 34  1  0  0  0  0
 30 33  2  0  0  0  0
 32 31  1  0  0  0  0
 32 29  1  0  0  0  0
 33 31  1  0  0  0  0
 34 32  2  0  0  0  0
M  END
>  <MODEL>
4

>  <REMARK>
 VINA RESULT:      -6.8      4.181      8.852
  Name = 
  3 active torsions:
  status: ('A' for Active; 'I' for Inactive)
    1  A    between atoms: C_17  and  C_28
    2  A    between atoms: C_28  and  C_29
    3  A    between atoms: C_29  and  C_32
                            x       y       z     vdW  Elec       q    Type
                         _______ _______ _______ _____ _____    ______ ____

>  <TORSDO>
F 3

$$$$
=
 OpenBabel11122414383D

 34 41  0  0  1  0  0  0  0  0999 V2000
  161.8810  208.7990  151.0620 C   0  0  0  0  0  0  0  0  0  0  0  0
  161.0450  210.9060  152.0910 C   0  0  0  0  0  2  0  0  0  0  0  0
  161.1930  202.3540  150.5410 C   0  0  2  0  0  3  0  0  0  0  0  0
  161.5520  206.6630  150.0050 C   0  0  0  0  0  0  0  0  0  0  0  0
  161.1850  204.6460  151.5270 C   0  0  2  0  0  3  0  0  0  0  0  0
  160.8290  202.7060  152.8800 O   0  0  0  0  0  1  0  0  0  0  0  0
  162.5840  202.2890  150.6680 O   0  0  0  0  0  1  0  0  0  0  0  0
  161.0170  204.3570  148.8980 C   0  0  1  0  0  3  0  0  0  0  0  0
  161.5440  209.0800  153.6220 C   0  0  2  0  0  3  0  0  0  0  0  0
  159.6230  208.9550  156.1760 C   0  0  0  0  0  2  0  0  0  0  0  0
  160.5190  205.5820  152.4290 N   0  0  0  0  0  2  0  0  0  0  0  0
  159.9180  205.0350  149.4740 O   0  0  0  0  0  0  0  0  0  0  0  0
  160.7180  207.7770  153.5240 C   0  0  1  0  0  3  0  0  0  0  0  0
  160.8510  211.4400  153.4870 C   0  0  0  0  0  2  0  0  0  0  0  0
  161.1600  205.2230  150.1080 C   0  0  2  0  0  0  0  0  0  0  0  0
  160.8130  202.8510  149.1460 C   0  0  0  0  0  2  0  0  0  0  0  0
  159.4980  209.9470  155.0280 C   0  0  2  0  0  3  0  0  0  0  0  0
  161.5470  207.4450  151.1730 C   0  0  0  0  0  0  0  0  0  0  0  0
  160.5840  203.2480  151.6180 C   0  0  2  0  0  3  0  0  0  0  0  0
  161.3410  206.7980  152.5270 C   0  0  2  0  0  3  0  0  0  0  0  0
  162.1770  208.5430  148.7220 C   0  0  0  0  0  3  0  0  0  0  0  0
  159.4640  207.5320  155.6780 C   0  0  0  0  0  2  0  0  0  0  0  0
  161.8550  207.2270  148.8070 N   0  0  0  0  0  0  0  0  0  0  0  0
  160.6840  207.0990  154.8880 C   0  0  0  0  0  2  0  0  0  0  0  0
  160.8890  210.2330  154.4230 C   0  0  1  0  0  3  0  0  0  0  0  0
  162.1910  209.3140  149.8410 N   0  0  0  0  0  0  0  0  0  0  0  0
  161.9310  209.6980  152.2680 C   0  0  1  0  0  3  0  0  0  0  0  0
  158.8610  211.2190  155.5740 C   0  0  0  0  0  2  0  0  0  0  0  0
  157.6100  211.5650  154.7860 C   0  0  0  0  0  2  0  0  0  0  0  0
  155.6860  214.3840  156.2770 N   0  0  0  0  0  0  0  0  0  0  0  0
  155.9290  212.0080  157.0000 S   0  0  0  0  0  0  0  0  0  0  0  0
  156.7300  212.4500  155.5950 C   0  0  0  0  0  0  0  0  0  0  0  0
  155.2820  213.5410  157.2560 C   0  0  0  0  0  3  0  0  0  0  0  0
  156.4920  213.7930  155.3540 C   0  0  0  0  0  3  0  0  0  0  0  0
  1 18  1  0  0  0  0
  1 27  1  0  0  0  0
  2 27  1  0  0  0  0
  2 14  1  0  0  0  0
  3  7  1  6  0  0  0
  3 19  1  0  0  0  0
  4 15  1  0  0  0  0
  4 18  2  0  0  0  0
  5 19  1  0  0  0  0
  5 11  1  1  0  0  0
  8 16  1  1  0  0  0
  8 12  1  0  0  0  0
  8 15  1  0  0  0  0
  9 25  1  0  0  0  0
 11 20  1  0  0  0  0
 12 15  1  0  0  0  0
 13  9  1  0  0  0  0
 13 24  1  0  0  0  0
 14 25  1  0  0  0  0
 15  5  1  0  0  0  0
 16  3  1  0  0  0  0
 17 28  1  0  0  0  0
 17 10  1  0  0  0  0
 18 20  1  0  0  0  0
 19  6  1  0  0  0  0
 20 13  1  0  0  0  0
 21 23  2  0  0  0  0
 21 26  1  0  0  0  0
 22 10  1  0  0  0  0
 23  4  1  0  0  0  0
 24 22  1  0  0  0  0
 25 17  1  0  0  0  0
 26  1  2  0  0  0  0
 27  9  1  0  0  0  0
 29 28  1  0  0  0  0
 29 32  1  0  0  0  0
 30 33  2  0  0  0  0
 31 33  1  0  0  0  0
 32 31  1  0  0  0  0
 34 32  2  0  0  0  0
 34 30  1  0  0  0  0
M  END
>  <MODEL>
5

>  <REMARK>
 VINA RESULT:      -6.5      4.244      9.221
  Name = 
  3 active torsions:
  status: ('A' for Active; 'I' for Inactive)
    1  A    between atoms: C_17  and  C_28
    2  A    between atoms: C_28  and  C_29
    3  A    between atoms: C_29  and  C_32
                            x       y       z     vdW  Elec       q    Type
                         _______ _______ _______ _____ _____    ______ ____

>  <TORSDO>
F 3

$$$$
=
 OpenBabel11122414383D

 34 41  0  0  1  0  0  0  0  0999 V2000
  160.6710  203.6300  151.0930 C   0  0  0  0  0  0  0  0  0  0  0  0
  161.5760  205.4310  152.5540 C   0  0  0  0  0  2  0  0  0  0  0  0
  160.4600  201.0600  145.1230 C   0  0  2  0  0  3  0  0  0  0  0  0
  160.8920  201.9730  149.3610 C   0  0  0  0  0  0  0  0  0  0  0  0
  160.6040  202.7560  146.9480 C   0  0  2  0  0  3  0  0  0  0  0  0
  160.3540  203.4050  144.6590 O   0  0  0  0  0  1  0  0  0  0  0  0
  159.0810  200.9390  145.3250 O   0  0  0  0  0  1  0  0  0  0  0  0
  161.2950  200.2450  147.4430 C   0  0  1  0  0  3  0  0  0  0  0  0
  160.4810  206.1510  150.5020 C   0  0  2  0  0  3  0  0  0  0  0  0
  161.7570  208.7770  149.1940 C   0  0  0  0  0  2  0  0  0  0  0  0
  161.1930  204.0150  147.3980 N   0  0  0  0  0  2  0  0  0  0  0  0
  162.3320  201.1820  147.6590 O   0  0  0  0  0  0  0  0  0  0  0  0
  161.0990  205.7460  149.1440 C   0  0  1  0  0  3  0  0  0  0  0  0
  161.5400  206.9380  152.5820 C   0  0  0  0  0  2  0  0  0  0  0  0
  161.0260  201.6400  147.9100 C   0  0  2  0  0  0  0  0  0  0  0  0
  161.2070  199.9950  145.9270 C   0  0  0  0  0  2  0  0  0  0  0  0
  162.2790  208.0690  150.4360 C   0  0  2  0  0  3  0  0  0  0  0  0
  160.7610  203.3230  149.7310 C   0  0  0  0  0  0  0  0  0  0  0  0
  160.9490  202.4580  145.4930 C   0  0  2  0  0  3  0  0  0  0  0  0
  160.5650  204.3910  148.6740 C   0  0  2  0  0  3  0  0  0  0  0  0
  160.8570  201.3270  151.6310 C   0  0  0  0  0  3  0  0  0  0  0  0
  161.8000  207.8560  147.9900 C   0  0  0  0  0  2  0  0  0  0  0  0
  160.9470  201.0080  150.3150 N   0  0  0  0  0  0  0  0  0  0  0  0
  160.7300  206.7860  148.0930 C   0  0  0  0  0  2  0  0  0  0  0  0
  161.1150  207.3890  151.1860 C   0  0  1  0  0  3  0  0  0  0  0  0
  160.7180  202.6240  152.0090 N   0  0  0  0  0  0  0  0  0  0  0  0
  160.4980  205.0460  151.5710 C   0  0  1  0  0  3  0  0  0  0  0  0
  162.9690  209.1080  151.3120 C   0  0  0  0  0  2  0  0  0  0  0  0
  162.1710  210.3990  151.3300 C   0  0  0  0  0  2  0  0  0  0  0  0
  161.0480  210.4450  154.8810 N   0  0  0  0  0  0  0  0  0  0  0  0
  159.7830  210.8120  152.7610 S   0  0  0  0  0  0  0  0  0  0  0  0
  161.4260  210.5160  152.6120 C   0  0  0  0  0  0  0  0  0  0  0  0
  159.7950  210.7120  154.4420 C   0  0  0  0  0  3  0  0  0  0  0  0
  161.9590  210.3290  153.8770 C   0  0  0  0  0  3  0  0  0  0  0  0
  1 27  1  0  0  0  0
  1 26  1  0  0  0  0
  2 14  1  0  0  0  0
  3  7  1  1  0  0  0
  3 19  1  0  0  0  0
  3 16  1  0  0  0  0
  4 18  1  0  0  0  0
  4 23  2  0  0  0  0
  5 11  1  1  0  0  0
  5 15  1  0  0  0  0
  6 19  1  0  0  0  0
  8 16  1  6  0  0  0
  8 12  1  0  0  0  0
  8 15  1  0  0  0  0
  9 25  1  0  0  0  0
  9 27  1  0  0  0  0
 10 17  1  0  0  0  0
 11 20  1  0  0  0  0
 12 15  1  0  0  0  0
 13  9  1  0  0  0  0
 15  4  1  0  0  0  0
 17 25  1  0  0  0  0
 17 28  1  0  0  0  0
 18  1  2  0  0  0  0
 19  5  1  0  0  0  0
 20 13  1  0  0  0  0
 20 18  1  0  0  0  0
 21 26  2  0  0  0  0
 22 24  1  0  0  0  0
 22 10  1  0  0  0  0
 23 21  1  0  0  0  0
 24 13  1  0  0  0  0
 25 14  1  0  0  0  0
 27  2  1  0  0  0  0
 28 29  1  0  0  0  0
 29 32  1  0  0  0  0
 31 33  1  0  0  0  0
 32 31  1  0  0  0  0
 32 34  2  0  0  0  0
 33 30  2  0  0  0  0
 34 30  1  0  0  0  0
M  END
>  <MODEL>
6

>  <REMARK>
 VINA RESULT:      -6.2      4.714      9.286
  Name = 
  3 active torsions:
  status: ('A' for Active; 'I' for Inactive)
    1  A    between atoms: C_17  and  C_28
    2  A    between atoms: C_28  and  C_29
    3  A    between atoms: C_29  and  C_32
                            x       y       z     vdW  Elec       q    Type
                         _______ _______ _______ _____ _____    ______ ____

>  <TORSDO>
F 3

$$$$
=
 OpenBabel11122414383D

 34 41  0  0  1  0  0  0  0  0999 V2000
  162.2500  206.3950  147.5410 C   0  0  0  0  0  0  0  0  0  0  0  0
  161.7790  208.6080  148.5770 C   0  0  0  0  0  2  0  0  0  0  0  0
  161.0580  200.0020  147.5910 C   0  0  2  0  0  3  0  0  0  0  0  0
  161.5740  204.2380  146.7140 C   0  0  0  0  0  0  0  0  0  0  0  0
  161.4000  202.3350  148.4070 C   0  0  2  0  0  3  0  0  0  0  0  0
  161.2070  200.4990  149.9280 O   0  0  0  0  0  1  0  0  0  0  0  0
  162.4390  199.8380  147.4400 O   0  0  0  0  0  1  0  0  0  0  0  0
  160.6770  201.9260  145.8900 C   0  0  1  0  0  3  0  0  0  0  0  0
  162.4650  206.8300  150.0920 C   0  0  2  0  0  3  0  0  0  0  0  0
  161.1050  206.9820  152.9840 C   0  0  0  0  0  2  0  0  0  0  0  0
  160.9950  203.3640  149.3620 N   0  0  0  0  0  2  0  0  0  0  0  0
  159.7660  202.7140  146.6300 O   0  0  0  0  0  0  0  0  0  0  0  0
  161.5540  205.5900  150.2480 C   0  0  1  0  0  3  0  0  0  0  0  0
  161.9110  209.2260  149.9460 C   0  0  0  0  0  2  0  0  0  0  0  0
  161.1210  202.8390  146.9870 C   0  0  2  0  0  0  0  0  0  0  0  0
  160.4330  200.4550  146.2720 C   0  0  0  0  0  2  0  0  0  0  0  0
  160.8110  207.9210  151.8220 C   0  0  2  0  0  3  0  0  0  0  0  0
  161.8600  205.0770  147.8050 C   0  0  0  0  0  0  0  0  0  0  0  0
  160.7420  200.9930  148.7090 C   0  0  2  0  0  3  0  0  0  0  0  0
  161.8960  204.5170  149.2120 C   0  0  2  0  0  3  0  0  0  0  0  0
  162.0410  205.9980  145.2120 C   0  0  0  0  0  3  0  0  0  0  0  0
  160.7570  205.5510  152.6220 C   0  0  0  0  0  2  0  0  0  0  0  0
  161.6600  204.7160  145.4450 N   0  0  0  0  0  0  0  0  0  0  0  0
  161.7580  204.9870  151.6330 C   0  0  0  0  0  2  0  0  0  0  0  0
  162.0630  208.0690  150.9320 C   0  0  1  0  0  3  0  0  0  0  0  0
  162.3340  206.8210  146.2510 N   0  0  0  0  0  0  0  0  0  0  0  0
  162.6040  207.3470  148.6510 C   0  0  1  0  0  3  0  0  0  0  0  0
  160.3820  209.2640  152.4010 C   0  0  0  0  0  2  0  0  0  0  0  0
  160.9270  209.4310  153.8080 C   0  0  0  0  0  2  0  0  0  0  0  0
  159.5780  212.8460  154.4290 N   0  0  0  0  0  0  0  0  0  0  0  0
  160.6610  211.2110  155.9720 S   0  0  0  0  0  0  0  0  0  0  0  0
  160.4630  210.7220  154.3810 C   0  0  0  0  0  0  0  0  0  0  0  0
  159.9530  212.7180  155.7240 C   0  0  0  0  0  3  0  0  0  0  0  0
  159.8600  211.7500  153.6740 C   0  0  0  0  0  3  0  0  0  0  0  0
  1 18  1  0  0  0  0
  1 27  1  0  0  0  0
  2 27  1  0  0  0  0
  2 14  1  0  0  0  0
  3  7  1  6  0  0  0
  3 19  1  0  0  0  0
  4 15  1  0  0  0  0
  4 18  2  0  0  0  0
  5 19  1  0  0  0  0
  5 11  1  1  0  0  0
  8 16  1  1  0  0  0
  8 12  1  0  0  0  0
  8 15  1  0  0  0  0
  9 13  1  0  0  0  0
  9 25  1  0  0  0  0
 12 15  1  0  0  0  0
 13 24  1  0  0  0  0
 14 25  1  0  0  0  0
 15  5  1  0  0  0  0
 16  3  1  0  0  0  0
 17 28  1  0  0  0  0
 17 10  1  0  0  0  0
 18 20  1  0  0  0  0
 19  6  1  0  0  0  0
 20 11  1  0  0  0  0
 20 13  1  0  0  0  0
 21 23  2  0  0  0  0
 21 26  1  0  0  0  0
 22 10  1  0  0  0  0
 23  4  1  0  0  0  0
 24 22  1  0  0  0  0
 25 17  1  0  0  0  0
 26  1  2  0  0  0  0
 27  9  1  0  0  0  0
 28 29  1  0  0  0  0
 29 32  1  0  0  0  0
 30 33  2  0  0  0  0
 32 31  1  0  0  0  0
 33 31  1  0  0  0  0
 34 32  2  0  0  0  0
 34 30  1  0  0  0  0
M  END
>  <MODEL>
7

>  <REMARK>
 VINA RESULT:      -6.2      4.696      9.974
  Name = 
  3 active torsions:
  status: ('A' for Active; 'I' for Inactive)
    1  A    between atoms: C_17  and  C_28
    2  A    between atoms: C_28  and  C_29
    3  A    between atoms: C_29  and  C_32
                            x       y       z     vdW  Elec       q    Type
                         _______ _______ _______ _____ _____    ______ ____

>  <TORSDO>
F 3

$$$$
