=
 OpenBabel11122414043D

 28 32  0  0  1  0  0  0  0  0999 V2000
  158.5750  212.2980  151.9900 C   0  0  0  0  0  0  0  0  0  0  0  0
  161.5560  209.8610  149.5880 O   0  0  0  0  0  0  0  0  0  0  0  0
  161.2150  210.6240  157.2600 O   0  0  0  0  0  0  0  0  0  0  0  0
  160.3900  213.4350  150.1780 C   0  0  0  0  0  3  0  0  0  0  0  0
  160.8440  208.8260  155.7020 C   0  0  1  0  0  3  0  0  0  0  0  0
  157.5880  211.8660  153.0270 C   0  0  0  0  0  2  0  0  0  0  0  0
  163.2100  209.9590  151.4230 O   0  0  0  0  0  0  0  0  0  0  0  0
  161.9590  209.2930  150.9190 S   0  0  0  0  0  0  0  0  0  0  0  0
  161.4790  206.6740  151.6530 C   0  0  0  0  0  0  0  0  0  0  0  0
  160.6390  209.4440  152.0870 C   0  0  1  0  0  3  0  0  0  0  0  0
  158.7670  214.4530  155.5020 N   0  0  0  0  0  1  0  0  0  0  0  0
  159.7020  210.3160  154.0840 C   0  0  1  0  0  3  0  0  0  0  0  0
  160.8630  207.0940  152.7240 N   0  0  0  0  0  0  0  0  0  0  0  0
  162.1950  207.5790  150.7910 N   0  0  0  0  0  2  0  0  0  0  0  0
  158.8340  213.1770  154.8150 C   0  0  1  0  0  3  0  0  0  0  0  0
  159.9280  211.8590  151.9820 C   0  0  0  0  0  0  0  0  0  0  0  0
  160.7630  210.2300  156.1520 C   0  0  0  0  0  0  0  0  0  0  0  0
  161.4050  205.2350  151.2900 C   0  0  0  0  0  1  0  0  0  0  0  0
  159.1670  212.0890  155.8230 C   0  0  0  0  0  2  0  0  0  0  0  0
  160.8160  212.4550  151.0740 C   0  0  0  0  0  3  0  0  0  0  0  0
  158.1590  213.2830  151.0830 C   0  0  0  0  0  3  0  0  0  0  0  0
  159.0580  213.8430  150.1770 C   0  0  0  0  0  3  0  0  0  0  0  0
  157.4890  212.9030  154.1450 C   0  0  0  0  0  2  0  0  0  0  0  0
  160.0940  208.8450  154.3530 C   0  0  1  0  0  3  0  0  0  0  0  0
  160.0680  211.0850  155.2640 N   0  0  0  0  0  0  0  0  0  0  0  0
  160.9800  208.4770  153.1760 C   0  0  2  0  0  3  0  0  0  0  0  0
  162.1850  208.4470  155.5720 O   0  0  0  0  0  1  0  0  0  0  0  0
  160.5040  210.7490  152.8440 C   0  0  2  0  0  3  0  0  0  0  0  0
  1  6  1  0  0  0  0
  2  8  2  0  0  0  0
  4 20  1  0  0  0  0
  5 27  1  6  0  0  0
  5 17  1  0  0  0  0
  6 23  1  0  0  0  0
  8  7  2  0  0  0  0
  9 13  2  0  0  0  0
 10  8  1  6  0  0  0
 10 28  1  0  0  0  0
 10 26  1  0  0  0  0
 12 24  1  0  0  0  0
 12 25  1  1  0  0  0
 13 26  1  0  0  0  0
 14  8  1  0  0  0  0
 14  9  1  0  0  0  0
 15 11  1  1  0  0  0
 15 19  1  0  0  0  0
 16  1  1  0  0  0  0
 16 28  1  0  0  0  0
 17  3  2  0  0  0  0
 18  9  1  0  0  0  0
 20 16  2  0  0  0  0
 21  1  2  0  0  0  0
 22  4  2  0  0  0  0
 22 21  1  0  0  0  0
 23 15  1  0  0  0  0
 24  5  1  0  0  0  0
 25 19  1  0  0  0  0
 25 17  1  0  0  0  0
 26 24  1  0  0  0  0
 28 12  1  0  0  0  0
M  END
>  <MODEL>
1

>  <REMARK>
 VINA RESULT:      -4.8      0.000      0.000
  Name = 
  0 active torsions:
  status: ('A' for Active; 'I' for Inactive)
                            x       y       z     vdW  Elec       q    Type
                         _______ _______ _______ _____ _____    ______ ____

>  <TORSDO>
F 0

$$$$
=
 OpenBabel11122414043D

 28 32  0  0  1  0  0  0  0  0999 V2000
  160.9630  207.0670  149.6950 C   0  0  0  0  0  0  0  0  0  0  0  0
  162.0840  205.7050  145.5130 O   0  0  0  0  0  0  0  0  0  0  0  0
  162.4870  201.6180  152.0470 O   0  0  0  0  0  0  0  0  0  0  0  0
  163.0360  208.2250  148.2010 C   0  0  0  0  0  3  0  0  0  0  0  0
  161.1530  201.5150  150.0440 C   0  0  1  0  0  3  0  0  0  0  0  0
  159.9370  206.5310  150.6410 C   0  0  0  0  0  2  0  0  0  0  0  0
  163.5990  203.9720  146.4160 O   0  0  0  0  0  0  0  0  0  0  0  0
  162.1690  204.3370  146.1280 S   0  0  0  0  0  0  0  0  0  0  0  0
  160.3880  202.3070  145.5490 C   0  0  0  0  0  0  0  0  0  0  0  0
  161.1790  204.2480  147.5920 C   0  0  1  0  0  3  0  0  0  0  0  0
  162.4080  206.2760  153.4770 N   0  0  0  0  0  1  0  0  0  0  0  0
  160.9290  203.9810  149.9350 C   0  0  1  0  0  3  0  0  0  0  0  0
  160.1320  202.1770  146.8220 N   0  0  0  0  0  0  0  0  0  0  0  0
  161.4450  203.1630  145.0750 N   0  0  0  0  0  2  0  0  0  0  0  0
  161.7560  205.8110  152.2670 C   0  0  1  0  0  3  0  0  0  0  0  0
  161.8680  206.2310  148.9850 C   0  0  0  0  0  0  0  0  0  0  0  0
  161.8540  202.2180  151.1380 C   0  0  0  0  0  0  0  0  0  0  0  0
  159.5420  201.5880  144.5610 C   0  0  0  0  0  1  0  0  0  0  0  0
  161.4910  204.3200  152.3890 C   0  0  0  0  0  2  0  0  0  0  0  0
  162.9040  206.8380  148.2580 C   0  0  0  0  0  3  0  0  0  0  0  0
  161.1070  208.4600  149.6300 C   0  0  0  0  0  3  0  0  0  0  0  0
  162.1310  209.0370  148.8810 C   0  0  0  0  0  3  0  0  0  0  0  0
  160.4500  206.5810  152.0800 C   0  0  0  0  0  2  0  0  0  0  0  0
  160.4810  202.6630  149.2620 C   0  0  1  0  0  3  0  0  0  0  0  0
  161.6920  203.6240  151.1210 N   0  0  0  0  0  0  0  0  0  0  0  0
  160.9880  202.7850  147.8360 C   0  0  2  0  0  3  0  0  0  0  0  0
  162.0770  200.8000  149.2740 O   0  0  0  0  0  1  0  0  0  0  0  0
  161.7920  204.7160  148.8950 C   0  0  2  0  0  3  0  0  0  0  0  0
  1  6  1  0  0  0  0
  2  8  2  0  0  0  0
  4 20  2  0  0  0  0
  4 22  1  0  0  0  0
  5 27  1  6  0  0  0
  5 17  1  0  0  0  0
  6 23  1  0  0  0  0
  8  7  2  0  0  0  0
  9 13  2  0  0  0  0
 10  8  1  6  0  0  0
 10 26  1  0  0  0  0
 10 28  1  0  0  0  0
 12 25  1  1  0  0  0
 13 26  1  0  0  0  0
 14  9  1  0  0  0  0
 14  8  1  0  0  0  0
 15 19  1  0  0  0  0
 15 11  1  1  0  0  0
 16  1  2  0  0  0  0
 17  3  2  0  0  0  0
 18  9  1  0  0  0  0
 20 16  1  0  0  0  0
 21  1  1  0  0  0  0
 22 21  2  0  0  0  0
 23 15  1  0  0  0  0
 24 12  1  0  0  0  0
 24  5  1  0  0  0  0
 25 17  1  0  0  0  0
 25 19  1  0  0  0  0
 26 24  1  0  0  0  0
 28 16  1  0  0  0  0
 28 12  1  0  0  0  0
M  END
>  <MODEL>
2

>  <REMARK>
 VINA RESULT:      -3.1      5.621      7.737
  Name = 
  0 active torsions:
  status: ('A' for Active; 'I' for Inactive)
                            x       y       z     vdW  Elec       q    Type
                         _______ _______ _______ _____ _____    ______ ____

>  <TORSDO>
F 0

$$$$
=
 OpenBabel11122414043D

 28 32  0  0  1  0  0  0  0  0999 V2000
  160.6190  209.2120  154.5530 C   0  0  0  0  0  0  0  0  0  0  0  0
  159.0110  212.4800  157.2600 O   0  0  0  0  0  0  0  0  0  0  0  0
  160.7420  213.0260  149.7590 O   0  0  0  0  0  0  0  0  0  0  0  0
  162.0230  210.2060  156.7700 C   0  0  0  0  0  3  0  0  0  0  0  0
  158.7150  213.1010  151.0570 C   0  0  1  0  0  3  0  0  0  0  0  0
  160.0370  208.6120  153.3140 C   0  0  0  0  0  2  0  0  0  0  0  0
  159.9360  214.2390  155.7890 O   0  0  0  0  0  0  0  0  0  0  0  0
  158.8180  213.2530  155.9860 S   0  0  0  0  0  0  0  0  0  0  0  0
  156.3310  213.8630  154.9500 C   0  0  0  0  0  0  0  0  0  0  0  0
  158.6830  212.1550  154.6050 C   0  0  1  0  0  3  0  0  0  0  0  0
  163.2070  209.1310  151.3420 N   0  0  0  0  0  1  0  0  0  0  0  0
  159.4720  211.2730  152.5490 C   0  0  1  0  0  3  0  0  0  0  0  0
  156.6710  213.3010  153.8220 N   0  0  0  0  0  0  0  0  0  0  0  0
  157.2870  214.0680  156.0090 N   0  0  0  0  0  2  0  0  0  0  0  0
  161.9430  209.5510  151.9160 C   0  0  1  0  0  3  0  0  0  0  0  0
  160.6700  210.6140  154.7810 C   0  0  0  0  0  0  0  0  0  0  0  0
  160.0580  212.5870  150.7220 C   0  0  0  0  0  0  0  0  0  0  0  0
  154.9160  214.2590  155.1670 C   0  0  0  0  0  1  0  0  0  0  0  0
  161.1950  210.3990  150.9000 C   0  0  0  0  0  2  0  0  0  0  0  0
  161.3900  211.0840  155.8900 C   0  0  0  0  0  3  0  0  0  0  0  0
  161.2590  208.3400  155.4460 C   0  0  0  0  0  3  0  0  0  0  0  0
  161.9500  208.8320  156.5520 C   0  0  0  0  0  3  0  0  0  0  0  0
  161.1330  208.3120  152.2920 C   0  0  0  0  0  2  0  0  0  0  0  0
  158.2780  212.2030  152.2340 C   0  0  1  0  0  3  0  0  0  0  0  0
  160.4850  211.5070  151.5320 N   0  0  0  0  0  0  0  0  0  0  0  0
  158.0630  212.9780  153.5210 C   0  0  2  0  0  3  0  0  0  0  0  0
  158.7990  214.4530  151.4060 O   0  0  0  0  0  1  0  0  0  0  0  0
  159.9620  211.6730  153.9520 C   0  0  2  0  0  3  0  0  0  0  0  0
  1 16  2  0  0  0  0
  1 21  1  0  0  0  0
  3 17  2  0  0  0  0
  5 27  1  1  0  0  0
  5 24  1  0  0  0  0
  6  1  1  0  0  0  0
  7  8  2  0  0  0  0
  8 14  1  0  0  0  0
  8  2  2  0  0  0  0
  9 18  1  0  0  0  0
  9 14  1  0  0  0  0
 10  8  1  1  0  0  0
 12 25  1  6  0  0  0
 12 28  1  0  0  0  0
 13  9  2  0  0  0  0
 15 11  1  6  0  0  0
 15 23  1  0  0  0  0
 16 20  1  0  0  0  0
 17  5  1  0  0  0  0
 17 25  1  0  0  0  0
 19 25  1  0  0  0  0
 19 15  1  0  0  0  0
 20  4  2  0  0  0  0
 21 22  2  0  0  0  0
 22  4  1  0  0  0  0
 23  6  1  0  0  0  0
 24 12  1  0  0  0  0
 24 26  1  0  0  0  0
 26 13  1  0  0  0  0
 26 10  1  0  0  0  0
 28 10  1  0  0  0  0
 28 16  1  0  0  0  0
M  END
>  <MODEL>
3

>  <REMARK>
 VINA RESULT:      -2.9      2.539      6.719
  Name = 
  0 active torsions:
  status: ('A' for Active; 'I' for Inactive)
                            x       y       z     vdW  Elec       q    Type
                         _______ _______ _______ _____ _____    ______ ____

>  <TORSDO>
F 0

$$$$
=
 OpenBabel11122414043D

 28 32  0  0  1  0  0  0  0  0999 V2000
  160.0980  212.7740  155.8350 C   0  0  0  0  0  0  0  0  0  0  0  0
  162.0960  210.1000  152.7590 O   0  0  0  0  0  0  0  0  0  0  0  0
  155.3110  213.7250  152.1290 O   0  0  0  0  0  0  0  0  0  0  0  0
  160.6160  210.0500  156.2650 C   0  0  0  0  0  3  0  0  0  0  0  0
  157.4640  213.9280  151.0690 C   0  0  1  0  0  3  0  0  0  0  0  0
  159.7020  214.2130  155.7500 C   0  0  0  0  0  2  0  0  0  0  0  0
  159.9230  209.5970  151.6930 O   0  0  0  0  0  0  0  0  0  0  0  0
  161.0310  210.6050  151.8280 S   0  0  0  0  0  0  0  0  0  0  0  0
  161.5580  212.2690  149.6870 C   0  0  0  0  0  0  0  0  0  0  0  0
  160.4100  212.1680  152.3780 C   0  0  1  0  0  3  0  0  0  0  0  0
  156.1870  213.5110  156.9180 N   0  0  0  0  0  1  0  0  0  0  0  0
  158.6720  213.5560  153.2010 C   0  0  1  0  0  3  0  0  0  0  0  0
  160.6830  213.1230  150.1440 N   0  0  0  0  0  0  0  0  0  0  0  0
  161.7160  210.9630  150.2740 N   0  0  0  0  0  2  0  0  0  0  0  0
  157.2420  213.5860  155.9270 C   0  0  1  0  0  3  0  0  0  0  0  0
  159.8190  211.8350  154.8040 C   0  0  0  0  0  0  0  0  0  0  0  0
  156.5680  213.7060  152.2220 C   0  0  0  0  0  0  0  0  0  0  0  0
  162.4450  212.6680  148.5640 C   0  0  0  0  0  1  0  0  0  0  0  0
  156.6780  214.1790  154.6460 C   0  0  0  0  0  2  0  0  0  0  0  0
  160.0750  210.4780  155.0520 C   0  0  0  0  0  3  0  0  0  0  0  0
  160.6430  212.3310  157.0490 C   0  0  0  0  0  3  0  0  0  0  0  0
  160.9090  210.9800  157.2610 C   0  0  0  0  0  3  0  0  0  0  0  0
  158.3760  214.4520  156.4730 C   0  0  0  0  0  2  0  0  0  0  0  0
  158.8700  213.8900  151.7040 C   0  0  1  0  0  3  0  0  0  0  0  0
  157.2400  213.5450  153.4570 N   0  0  0  0  0  0  0  0  0  0  0  0
  159.7270  212.7500  151.1820 C   0  0  2  0  0  3  0  0  0  0  0  0
  157.2700  212.9190  150.1190 O   0  0  0  0  0  1  0  0  0  0  0  0
  159.3060  212.1700  153.4140 C   0  0  2  0  0  3  0  0  0  0  0  0
  1 21  1  0  0  0  0
  3 17  2  0  0  0  0
  4 22  1  0  0  0  0
  5 27  1  6  0  0  0
  5 24  1  0  0  0  0
  5 17  1  0  0  0  0
  6  1  1  0  0  0  0
  6 23  1  0  0  0  0
  7  8  2  0  0  0  0
  8  2  2  0  0  0  0
  9 13  2  0  0  0  0
  9 14  1  0  0  0  0
 10  8  1  6  0  0  0
 10 28  1  0  0  0  0
 12 28  1  0  0  0  0
 12 25  1  6  0  0  0
 13 26  1  0  0  0  0
 14  8  1  0  0  0  0
 15 23  1  0  0  0  0
 15 11  1  1  0  0  0
 16 20  1  0  0  0  0
 16  1  2  0  0  0  0
 17 25  1  0  0  0  0
 18  9  1  0  0  0  0
 19 15  1  0  0  0  0
 20  4  2  0  0  0  0
 21 22  2  0  0  0  0
 24 12  1  0  0  0  0
 25 19  1  0  0  0  0
 26 24  1  0  0  0  0
 26 10  1  0  0  0  0
 28 16  1  0  0  0  0
M  END
>  <MODEL>
4

>  <REMARK>
 VINA RESULT:      -2.7      2.794      5.265
  Name = 
  0 active torsions:
  status: ('A' for Active; 'I' for Inactive)
                            x       y       z     vdW  Elec       q    Type
                         _______ _______ _______ _____ _____    ______ ____

>  <TORSDO>
F 0

$$$$
=
 OpenBabel11122414043D

 28 32  0  0  1  0  0  0  0  0999 V2000
  158.5510  212.5330  145.0350 C   0  0  0  0  0  0  0  0  0  0  0  0
  156.8470  212.9430  140.8490 O   0  0  0  0  0  0  0  0  0  0  0  0
  164.1620  214.0110  143.0650 O   0  0  0  0  0  0  0  0  0  0  0  0
  156.6170  214.4410  144.3400 C   0  0  0  0  0  3  0  0  0  0  0  0
  163.0060  212.3980  141.7010 C   0  0  1  0  0  3  0  0  0  0  0  0
  159.6140  211.6210  145.5590 C   0  0  0  0  0  2  0  0  0  0  0  0
  158.6870  214.4530  140.1810 O   0  0  0  0  0  0  0  0  0  0  0  0
  158.2840  213.0240  140.4190 S   0  0  0  0  0  0  0  0  0  0  0  0
  159.5360  211.0460  138.9530 C   0  0  0  0  0  0  0  0  0  0  0  0
  159.3380  212.2520  141.6120 C   0  0  1  0  0  3  0  0  0  0  0  0
  161.5320  214.4530  147.1440 N   0  0  0  0  0  1  0  0  0  0  0  0
  161.0630  212.3270  143.2380 C   0  0  1  0  0  3  0  0  0  0  0  0
  160.4670  210.9690  139.8650 N   0  0  0  0  0  0  0  0  0  0  0  0
  158.5320  212.0780  138.9850 N   0  0  0  0  0  2  0  0  0  0  0  0
  161.1350  213.6030  146.0380 C   0  0  1  0  0  3  0  0  0  0  0  0
  158.6930  213.2680  143.8270 C   0  0  0  0  0  0  0  0  0  0  0  0
  163.1450  213.2950  142.8660 C   0  0  0  0  0  0  0  0  0  0  0  0
  159.4830  210.0190  137.8800 C   0  0  0  0  0  1  0  0  0  0  0  0
  162.3630  213.2590  145.2110 C   0  0  0  0  0  2  0  0  0  0  0  0
  157.7170  214.2250  143.5110 C   0  0  0  0  0  3  0  0  0  0  0  0
  157.4400  212.7590  145.8600 C   0  0  0  0  0  3  0  0  0  0  0  0
  156.4740  213.7010  145.5110 C   0  0  0  0  0  3  0  0  0  0  0  0
  160.4820  212.3390  146.5930 C   0  0  0  0  0  2  0  0  0  0  0  0
  161.6540  211.6990  141.9550 C   0  0  1  0  0  3  0  0  0  0  0  0
  162.0680  213.2280  143.7820 N   0  0  0  0  0  0  0  0  0  0  0  0
  160.6200  212.0010  140.8850 C   0  0  2  0  0  3  0  0  0  0  0  0
  163.0160  213.1510  140.5210 O   0  0  0  0  0  1  0  0  0  0  0  0
  159.7950  213.0770  142.7970 C   0  0  2  0  0  3  0  0  0  0  0  0
  1  6  1  0  0  0  0
  1 21  1  0  0  0  0
  4 22  1  0  0  0  0
  5 27  1  6  0  0  0
  5 24  1  0  0  0  0
  5 17  1  0  0  0  0
  6 23  1  0  0  0  0
  7  8  2  0  0  0  0
  8  2  2  0  0  0  0
  9 14  1  0  0  0  0
  9 13  2  0  0  0  0
 10  8  1  6  0  0  0
 10 28  1  0  0  0  0
 12 25  1  6  0  0  0
 13 26  1  0  0  0  0
 14  8  1  0  0  0  0
 15 23  1  0  0  0  0
 15 11  1  1  0  0  0
 16  1  2  0  0  0  0
 17  3  2  0  0  0  0
 17 25  1  0  0  0  0
 18  9  1  0  0  0  0
 19 15  1  0  0  0  0
 20 16  1  0  0  0  0
 20  4  2  0  0  0  0
 22 21  2  0  0  0  0
 24 12  1  0  0  0  0
 25 19  1  0  0  0  0
 26 10  1  0  0  0  0
 26 24  1  0  0  0  0
 28 12  1  0  0  0  0
 28 16  1  0  0  0  0
M  END
>  <MODEL>
5

>  <REMARK>
 VINA RESULT:      -2.6      8.546     11.269
  Name = 
  0 active torsions:
  status: ('A' for Active; 'I' for Inactive)
                            x       y       z     vdW  Elec       q    Type
                         _______ _______ _______ _____ _____    ______ ____

>  <TORSDO>
F 0

$$$$
=
 OpenBabel11122414043D

 28 32  0  0  1  0  0  0  0  0999 V2000
  161.2800  210.3650  155.5810 C   0  0  0  0  0  0  0  0  0  0  0  0
  162.4610  208.2540  151.7410 O   0  0  0  0  0  0  0  0  0  0  0  0
  156.5780  213.1370  152.7950 O   0  0  0  0  0  0  0  0  0  0  0  0
  161.2330  207.5770  155.2780 C   0  0  0  0  0  3  0  0  0  0  0  0
  158.6530  213.1960  151.5730 C   0  0  1  0  0  3  0  0  0  0  0  0
  161.1940  211.8250  155.8920 C   0  0  0  0  0  2  0  0  0  0  0  0
  160.1670  208.4670  150.8450 O   0  0  0  0  0  0  0  0  0  0  0  0
  161.4700  209.1760  151.0890 S   0  0  0  0  0  0  0  0  0  0  0  0
  162.2020  211.2080  149.3660 C   0  0  0  0  0  0  0  0  0  0  0  0
  161.2340  210.6310  152.0680 C   0  0  1  0  0  3  0  0  0  0  0  0
  157.6930  211.5240  157.2560 N   0  0  0  0  0  1  0  0  0  0  0  0
  159.8880  212.0610  153.3980 C   0  0  1  0  0  3  0  0  0  0  0  0
  161.5600  212.0640  150.1140 N   0  0  0  0  0  0  0  0  0  0  0  0
  162.1150  209.7890  149.5990 N   0  0  0  0  0  2  0  0  0  0  0  0
  158.6750  211.6520  156.1970 C   0  0  1  0  0  3  0  0  0  0  0  0
  160.7410  209.7970  154.3940 C   0  0  0  0  0  0  0  0  0  0  0  0
  157.8060  212.8570  152.7340 C   0  0  0  0  0  0  0  0  0  0  0  0
  163.0800  211.7100  148.2770 C   0  0  0  0  0  1  0  0  0  0  0  0
  158.1690  212.6530  155.1710 C   0  0  0  0  0  2  0  0  0  0  0  0
  160.7180  208.3990  154.2760 C   0  0  0  0  0  3  0  0  0  0  0  0
  161.7940  209.5280  156.5810 C   0  0  0  0  0  3  0  0  0  0  0  0
  161.7790  208.1420  156.4280 C   0  0  0  0  0  3  0  0  0  0  0  0
  159.9990  212.1150  156.8000 C   0  0  0  0  0  2  0  0  0  0  0  0
  160.0560  212.7280  152.0130 C   0  0  1  0  0  3  0  0  0  0  0  0
  158.5060  212.2560  153.8070 N   0  0  0  0  0  0  0  0  0  0  0  0
  160.6150  211.6230  151.1350 C   0  0  2  0  0  3  0  0  0  0  0  0
  158.1870  212.5250  150.4370 O   0  0  0  0  0  1  0  0  0  0  0  0
  160.2240  210.5740  153.1950 C   0  0  2  0  0  3  0  0  0  0  0  0
  1  6  1  0  0  0  0
  1 21  1  0  0  0  0
  4 22  1  0  0  0  0
  5 27  1  6  0  0  0
  5 24  1  0  0  0  0
  5 17  1  0  0  0  0
  6 23  1  0  0  0  0
  7  8  2  0  0  0  0
  8  2  2  0  0  0  0
  9 14  1  0  0  0  0
  9 13  2  0  0  0  0
 10  8  1  6  0  0  0
 10 28  1  0  0  0  0
 12 25  1  6  0  0  0
 13 26  1  0  0  0  0
 14  8  1  0  0  0  0
 15 23  1  0  0  0  0
 15 11  1  1  0  0  0
 16  1  2  0  0  0  0
 17  3  2  0  0  0  0
 17 25  1  0  0  0  0
 18  9  1  0  0  0  0
 19 15  1  0  0  0  0
 20 16  1  0  0  0  0
 20  4  2  0  0  0  0
 22 21  2  0  0  0  0
 24 12  1  0  0  0  0
 25 19  1  0  0  0  0
 26 24  1  0  0  0  0
 26 10  1  0  0  0  0
 28 12  1  0  0  0  0
 28 16  1  0  0  0  0
M  END
>  <MODEL>
6

>  <REMARK>
 VINA RESULT:      -2.4      2.373      4.902
  Name = 
  0 active torsions:
  status: ('A' for Active; 'I' for Inactive)
                            x       y       z     vdW  Elec       q    Type
                         _______ _______ _______ _____ _____    ______ ____

>  <TORSDO>
F 0

$$$$
=
 OpenBabel11122414043D

 28 32  0  0  1  0  0  0  0  0999 V2000
  160.3240  211.5110  153.8640 C   0  0  0  0  0  0  0  0  0  0  0  0
  162.8650  210.3830  150.2770 O   0  0  0  0  0  0  0  0  0  0  0  0
  155.9350  213.7780  150.2390 O   0  0  0  0  0  0  0  0  0  0  0  0
  161.0010  208.8640  153.2260 C   0  0  0  0  0  3  0  0  0  0  0  0
  158.1730  214.4510  149.6560 C   0  0  1  0  0  3  0  0  0  0  0  0
  159.8280  212.8470  154.3130 C   0  0  0  0  0  2  0  0  0  0  0  0
  160.8750  210.3080  148.8120 O   0  0  0  0  0  0  0  0  0  0  0  0
  161.8780  211.1990  149.4920 S   0  0  0  0  0  0  0  0  0  0  0  0
  162.5160  213.6060  148.2980 C   0  0  0  0  0  0  0  0  0  0  0  0
  161.0780  212.3830  150.5350 C   0  0  1  0  0  3  0  0  0  0  0  0
  156.2680  211.6420  154.6060 N   0  0  0  0  0  1  0  0  0  0  0  0
  159.1530  213.2680  151.6010 C   0  0  1  0  0  3  0  0  0  0  0  0
  161.5290  214.1760  148.9350 N   0  0  0  0  0  0  0  0  0  0  0  0
  162.7070  212.1790  148.3250 N   0  0  0  0  0  2  0  0  0  0  0  0
  157.4210  212.1430  153.8830 C   0  0  1  0  0  3  0  0  0  0  0  0
  160.2390  211.0700  152.5150 C   0  0  0  0  0  0  0  0  0  0  0  0
  157.1700  213.7550  150.4870 C   0  0  0  0  0  0  0  0  0  0  0  0
  163.4920  214.4530  147.5640 C   0  0  0  0  0  1  0  0  0  0  0  0
  156.9630  213.1940  152.8860 C   0  0  0  0  0  2  0  0  0  0  0  0
  160.5710  209.7370  152.2270 C   0  0  0  0  0  3  0  0  0  0  0  0
  160.7580  210.6230  154.8590 C   0  0  0  0  0  3  0  0  0  0  0  0
  161.1030  209.3100  154.5420 C   0  0  0  0  0  3  0  0  0  0  0  0
  158.4130  212.7360  154.8820 C   0  0  0  0  0  2  0  0  0  0  0  0
  159.4950  214.1910  150.4080 C   0  0  1  0  0  3  0  0  0  0  0  0
  157.7060  213.1180  151.6320 N   0  0  0  0  0  0  0  0  0  0  0  0
  160.4920  213.3880  149.5940 C   0  0  2  0  0  3  0  0  0  0  0  0
  158.1680  213.9160  148.3630 O   0  0  0  0  0  1  0  0  0  0  0  0
  159.8640  211.9330  151.3220 C   0  0  2  0  0  3  0  0  0  0  0  0
  1  6  1  0  0  0  0
  1 21  1  0  0  0  0
  3 17  2  0  0  0  0
  4 22  1  0  0  0  0
  5 27  1  6  0  0  0
  5 24  1  0  0  0  0
  5 17  1  0  0  0  0
  6 23  1  0  0  0  0
  7  8  2  0  0  0  0
  8  2  2  0  0  0  0
  9 14  1  0  0  0  0
  9 13  2  0  0  0  0
 10  8  1  6  0  0  0
 10 28  1  0  0  0  0
 12 25  1  6  0  0  0
 13 26  1  0  0  0  0
 14  8  1  0  0  0  0
 15 11  1  1  0  0  0
 15 23  1  0  0  0  0
 16  1  2  0  0  0  0
 17 25  1  0  0  0  0
 18  9  1  0  0  0  0
 19 15  1  0  0  0  0
 20 16  1  0  0  0  0
 20  4  2  0  0  0  0
 22 21  2  0  0  0  0
 24 12  1  0  0  0  0
 25 19  1  0  0  0  0
 26 24  1  0  0  0  0
 26 10  1  0  0  0  0
 28 12  1  0  0  0  0
 28 16  1  0  0  0  0
M  END
>  <MODEL>
7

>  <REMARK>
 VINA RESULT:      -2.2      2.897      5.643
  Name = 
  0 active torsions:
  status: ('A' for Active; 'I' for Inactive)
                            x       y       z     vdW  Elec       q    Type
                         _______ _______ _______ _____ _____    ______ ____

>  <TORSDO>
F 0

$$$$
=
 OpenBabel11122414043D

 28 32  0  0  1  0  0  0  0  0999 V2000
  161.1470  212.4020  149.8030 C   0  0  0  0  0  0  0  0  0  0  0  0
  158.3840  214.4530  152.7620 O   0  0  0  0  0  0  0  0  0  0  0  0
  160.7640  207.1130  152.8720 O   0  0  0  0  0  0  0  0  0  0  0  0
  158.6360  213.4380  149.1030 C   0  0  0  0  0  3  0  0  0  0  0  0
  161.1380  209.0530  154.2490 C   0  0  1  0  0  3  0  0  0  0  0  0
  162.4770  211.7520  150.0160 C   0  0  0  0  0  2  0  0  0  0  0  0
  157.3910  212.2900  153.4290 O   0  0  0  0  0  0  0  0  0  0  0  0
  158.5680  213.2120  153.5870 S   0  0  0  0  0  0  0  0  0  0  0  0
  159.9490  213.1780  155.9790 C   0  0  0  0  0  0  0  0  0  0  0  0
  160.0800  212.3980  153.1610 C   0  0  1  0  0  3  0  0  0  0  0  0
  161.4190  208.5810  148.2720 N   0  0  0  0  0  1  0  0  0  0  0  0
  161.2880  210.5550  152.2830 C   0  0  1  0  0  3  0  0  0  0  0  0
  160.7150  212.2280  155.5160 N   0  0  0  0  0  0  0  0  0  0  0  0
  158.7890  213.6320  155.2560 N   0  0  0  0  0  2  0  0  0  0  0  0
  161.5070  209.4800  149.4070 C   0  0  1  0  0  3  0  0  0  0  0  0
  160.0310  212.1700  150.6520 C   0  0  0  0  0  0  0  0  0  0  0  0
  160.9570  208.3550  152.9600 C   0  0  0  0  0  0  0  0  0  0  0  0
  160.3070  213.8400  157.2610 C   0  0  0  0  0  1  0  0  0  0  0  0
  161.8030  208.6710  150.6590 C   0  0  0  0  0  2  0  0  0  0  0  0
  158.7840  212.6880  150.2700 C   0  0  0  0  0  3  0  0  0  0  0  0
  160.9850  213.1580  148.6330 C   0  0  0  0  0  3  0  0  0  0  0  0
  159.7400  213.6800  148.2880 C   0  0  0  0  0  3  0  0  0  0  0  0
  162.6120  210.5020  149.1470 C   0  0  0  0  0  2  0  0  0  0  0  0
  161.4170  210.5100  153.8230 C   0  0  1  0  0  3  0  0  0  0  0  0
  161.0920  209.1880  151.8240 N   0  0  0  0  0  0  0  0  0  0  0  0
  160.3600  211.4840  154.3110 C   0  0  2  0  0  3  0  0  0  0  0  0
  159.9780  208.9260  155.0220 O   0  0  0  0  0  1  0  0  0  0  0  0
  160.0670  211.4430  151.9850 C   0  0  2  0  0  3  0  0  0  0  0  0
  1  6  1  0  0  0  0
  1 16  1  0  0  0  0
  2  8  2  0  0  0  0
  3 17  2  0  0  0  0
  4 20  1  0  0  0  0
  5 27  1  1  0  0  0
  7  8  2  0  0  0  0
  8 14  1  0  0  0  0
  9 18  1  0  0  0  0
 10  8  1  1  0  0  0
 10 26  1  0  0  0  0
 12 25  1  1  0  0  0
 12 24  1  0  0  0  0
 13  9  2  0  0  0  0
 14  9  1  0  0  0  0
 15 11  1  6  0  0  0
 15 19  1  0  0  0  0
 16 28  1  0  0  0  0
 17  5  1  0  0  0  0
 19 25  1  0  0  0  0
 20 16  2  0  0  0  0
 21  1  2  0  0  0  0
 22 21  1  0  0  0  0
 22  4  2  0  0  0  0
 23 15  1  0  0  0  0
 23  6  1  0  0  0  0
 24  5  1  0  0  0  0
 24 26  1  0  0  0  0
 25 17  1  0  0  0  0
 26 13  1  0  0  0  0
 28 12  1  0  0  0  0
 28 10  1  0  0  0  0
M  END
>  <MODEL>
8

>  <REMARK>
 VINA RESULT:      -2.1      2.636      5.403
  Name = 
  0 active torsions:
  status: ('A' for Active; 'I' for Inactive)
                            x       y       z     vdW  Elec       q    Type
                         _______ _______ _______ _____ _____    ______ ____

>  <TORSDO>
F 0

$$$$
