=
 OpenBabel11122414353D

 34 40  0  0  1  0  0  0  0  0999 V2000
  161.1040  203.5900  150.7740 C   0  0  0  0  0  0  0  0  0  0  0  0
  160.9200  205.0140  152.9160 C   0  0  0  0  0  3  0  0  0  0  0  0
  159.8750  203.1640  144.5290 C   0  0  0  0  0  0  0  0  0  0  0  0
  161.2060  202.4180  148.6470 C   0  0  0  0  0  0  0  0  0  0  0  0
  161.2050  203.6890  146.5650 C   0  0  0  0  0  0  0  0  0  0  0  0
  161.5970  205.0270  144.4380 C   0  0  0  0  0  1  0  0  0  0  0  0
  159.1730  203.8740  143.7610 O   0  0  0  0  0  0  0  0  0  0  0  0
  159.9590  200.9550  145.7280 C   0  0  0  0  0  3  0  0  0  0  0  0
  160.9910  206.0670  150.8120 C   0  0  0  0  0  0  0  0  0  0  0  0
  162.4580  208.7020  150.4830 C   0  0  0  0  0  3  0  0  0  0  0  0
  161.1090  204.8820  147.2980 C   0  0  0  0  0  3  0  0  0  0  0  0
  161.2650  201.1830  146.4330 C   0  0  0  0  0  2  0  0  0  0  0  0
  160.9850  206.1320  149.4760 C   0  0  0  0  0  0  0  0  0  0  0  0
  160.8450  206.5360  153.1260 C   0  0  0  0  0  3  0  0  0  0  0  0
  161.2380  202.4520  147.2400 C   0  0  0  0  0  0  0  0  0  0  0  0
  159.3720  201.8220  144.8920 C   0  0  0  0  0  3  0  0  0  0  0  0
  161.8920  208.2950  151.6400 C   0  0  0  0  0  0  0  0  0  0  0  0
  161.1340  203.6260  149.3690 C   0  0  0  0  0  0  0  0  0  0  0  0
  161.1860  203.6930  145.0570 C   0  0  2  0  0  3  0  0  0  0  0  0
  161.0810  204.8670  148.6960 C   0  0  0  0  0  0  0  0  0  0  0  0
  161.2060  201.2200  150.7540 C   0  0  0  0  0  3  0  0  0  0  0  0
  162.3230  208.1340  149.0940 C   0  0  0  0  0  2  0  0  0  0  0  0
  161.2390  201.2090  149.3560 C   0  0  0  0  0  3  0  0  0  0  0  0
  160.9860  207.4700  148.8140 C   0  0  0  0  0  2  0  0  0  0  0  0
  160.8310  207.2130  151.7400 C   0  0  1  0  0  3  0  0  0  0  0  0
  161.1400  202.3990  151.4300 N   0  0  0  0  0  0  0  0  0  0  0  0
  161.0350  204.8290  151.4870 N   0  0  0  0  0  0  0  0  0  0  0  0
  162.2130  208.9700  152.8270 O   0  0  0  0  0  0  0  0  0  0  0  0
  161.8670  210.3280  153.0770 C   0  0  0  0  0  2  0  0  0  0  0  0
  159.5710  212.4200  154.4120 O   0  0  0  0  0  0  0  0  0  0  0  0
  159.4930  210.9340  152.7610 C   0  0  0  0  0  3  0  0  0  0  0  0
  160.4980  210.4010  153.7300 C   0  0  2  0  0  3  0  0  0  0  0  0
  159.0030  212.0750  153.2030 C   0  0  0  0  0  3  0  0  0  0  0  0
  160.5160  211.4530  154.8340 C   0  0  0  0  0  2  0  0  0  0  0  0
  1 26  1  0  0  0  0
  1 27  1  0  0  0  0
  2 14  2  0  0  0  0
  3 16  1  0  0  0  0
  3 19  1  0  0  0  0
  4 23  2  0  0  0  0
  4 18  1  0  0  0  0
  5 15  2  0  0  0  0
  5 11  1  0  0  0  0
  7  3  2  0  0  0  0
  8 12  1  0  0  0  0
  9 27  1  0  0  0  0
  9 25  1  0  0  0  0
 10 17  2  0  0  0  0
 11 20  2  0  0  0  0
 12 15  1  0  0  0  0
 13  9  2  0  0  0  0
 15  4  1  0  0  0  0
 16  8  2  0  0  0  0
 17 25  1  0  0  0  0
 17 28  1  0  0  0  0
 18  1  2  0  0  0  0
 19  6  1  1  0  0  0
 19  5  1  0  0  0  0
 20 18  1  0  0  0  0
 20 13  1  0  0  0  0
 21 26  2  0  0  0  0
 22 10  1  0  0  0  0
 23 21  1  0  0  0  0
 24 22  1  0  0  0  0
 24 13  1  0  0  0  0
 25 14  1  1  0  0  0
 27  2  1  0  0  0  0
 28 29  1  0  0  0  0
 30 34  1  0  0  0  0
 31 33  2  0  0  0  0
 31 32  1  0  0  0  0
 32 29  1  6  0  0  0
 32 34  1  0  0  0  0
 33 30  1  0  0  0  0
M  END
>  <MODEL>
1

>  <REMARK>
 VINA RESULT:     -10.1      0.000      0.000
  Name = 
  3 active torsions:
  status: ('A' for Active; 'I' for Inactive)
    1  A    between atoms: C_17  and  O_28
    2  A    between atoms: O_28  and  C_29
    3  A    between atoms: C_29  and  C_32
                            x       y       z     vdW  Elec       q    Type
                         _______ _______ _______ _____ _____    ______ ____

>  <TORSDO>
F 3

$$$$
=
 OpenBabel11122414353D

 34 40  0  0  1  0  0  0  0  0999 V2000
  160.9710  204.5260  151.3260 C   0  0  0  0  0  0  0  0  0  0  0  0
  160.5200  206.0630  153.3460 C   0  0  0  0  0  3  0  0  0  0  0  0
  160.6570  203.8070  144.9950 C   0  0  0  0  0  0  0  0  0  0  0  0
  161.3460  203.2430  149.2960 C   0  0  0  0  0  0  0  0  0  0  0  0
  161.6890  204.4050  147.1770 C   0  0  0  0  0  0  0  0  0  0  0  0
  162.4310  205.6200  145.0700 C   0  0  0  0  0  1  0  0  0  0  0  0
  160.0970  204.4930  144.0980 O   0  0  0  0  0  0  0  0  0  0  0  0
  160.4940  201.6610  146.2970 C   0  0  0  0  0  3  0  0  0  0  0  0
  160.9300  207.0030  151.2280 C   0  0  0  0  0  0  0  0  0  0  0  0
  162.5120  209.5820  150.9950 C   0  0  0  0  0  3  0  0  0  0  0  0
  161.5250  205.6360  147.8310 C   0  0  0  0  0  3  0  0  0  0  0  0
  161.6900  201.8950  147.1760 C   0  0  0  0  0  2  0  0  0  0  0  0
  161.1220  206.9990  149.9040 C   0  0  0  0  0  0  0  0  0  0  0  0
  160.4630  207.5950  153.4700 C   0  0  0  0  0  3  0  0  0  0  0  0
  161.5850  203.2030  147.9080 C   0  0  0  0  0  0  0  0  0  0  0  0
  160.0630  202.4980  145.3430 C   0  0  0  0  0  3  0  0  0  0  0  0
  161.7700  209.2490  152.0730 C   0  0  0  0  0  0  0  0  0  0  0  0
  161.2070  204.4880  149.9400 C   0  0  0  0  0  0  0  0  0  0  0  0
  161.8920  204.3310  145.6850 C   0  0  2  0  0  3  0  0  0  0  0  0
  161.2920  205.6940  149.2080 C   0  0  0  0  0  0  0  0  0  0  0  0
  161.0000  202.1560  151.4330 C   0  0  0  0  0  3  0  0  0  0  0  0
  162.5640  208.9470  149.6290 C   0  0  0  0  0  2  0  0  0  0  0  0
  161.2370  202.0720  150.0580 C   0  0  0  0  0  3  0  0  0  0  0  0
  161.2620  208.3000  149.1860 C   0  0  0  0  0  2  0  0  0  0  0  0
  160.6730  208.1990  152.0670 C   0  0  1  0  0  3  0  0  0  0  0  0
  160.8730  203.3700  152.0360 N   0  0  0  0  0  0  0  0  0  0  0  0
  160.8370  205.8020  151.9600 N   0  0  0  0  0  0  0  0  0  0  0  0
  161.9350  209.9770  153.2610 O   0  0  0  0  0  0  0  0  0  0  0  0
  161.3420  211.2510  153.4910 C   0  0  0  0  0  2  0  0  0  0  0  0
  158.3450  212.5540  154.3540 O   0  0  0  0  0  0  0  0  0  0  0  0
  159.4100  212.3480  152.4140 C   0  0  0  0  0  3  0  0  0  0  0  0
  159.8480  211.1800  153.2340 C   0  0  2  0  0  3  0  0  0  0  0  0
  158.5590  213.0870  153.0990 C   0  0  0  0  0  3  0  0  0  0  0  0
  159.0960  211.3690  154.5480 C   0  0  0  0  0  2  0  0  0  0  0  0
  1 27  1  0  0  0  0
  1 26  1  0  0  0  0
  2 14  2  0  0  0  0
  3 16  1  0  0  0  0
  3 19  1  0  0  0  0
  4 18  1  0  0  0  0
  4 23  2  0  0  0  0
  5 11  1  0  0  0  0
  5 15  2  0  0  0  0
  7  3  2  0  0  0  0
  8 12  1  0  0  0  0
  9 27  1  0  0  0  0
  9 25  1  0  0  0  0
 10 17  2  0  0  0  0
 11 20  2  0  0  0  0
 12 15  1  0  0  0  0
 13  9  2  0  0  0  0
 15  4  1  0  0  0  0
 16  8  2  0  0  0  0
 17 28  1  0  0  0  0
 18  1  2  0  0  0  0
 19  6  1  6  0  0  0
 19  5  1  0  0  0  0
 20 13  1  0  0  0  0
 20 18  1  0  0  0  0
 21 26  2  0  0  0  0
 22 10  1  0  0  0  0
 23 21  1  0  0  0  0
 24 22  1  0  0  0  0
 24 13  1  0  0  0  0
 25 17  1  0  0  0  0
 25 14  1  1  0  0  0
 27  2  1  0  0  0  0
 28 29  1  0  0  0  0
 30 34  1  0  0  0  0
 31 33  2  0  0  0  0
 31 32  1  0  0  0  0
 32 29  1  1  0  0  0
 32 34  1  0  0  0  0
 33 30  1  0  0  0  0
M  END
>  <MODEL>
2

>  <REMARK>
 VINA RESULT:      -8.8      1.005      1.119
  Name = 
  3 active torsions:
  status: ('A' for Active; 'I' for Inactive)
    1  A    between atoms: C_17  and  O_28
    2  A    between atoms: O_28  and  C_29
    3  A    between atoms: C_29  and  C_32
                            x       y       z     vdW  Elec       q    Type
                         _______ _______ _______ _____ _____    ______ ____

>  <TORSDO>
F 3

$$$$
=
 OpenBabel11122414353D

 34 40  0  0  1  0  0  0  0  0999 V2000
  161.6400  208.2140  149.7330 C   0  0  0  0  0  0  0  0  0  0  0  0
  161.3900  206.7420  147.6310 C   0  0  0  0  0  3  0  0  0  0  0  0
  159.7600  209.3150  155.7290 C   0  0  0  0  0  0  0  0  0  0  0  0
  161.7510  209.4610  151.8170 C   0  0  0  0  0  0  0  0  0  0  0  0
  161.1710  208.3610  153.9160 C   0  0  0  0  0  0  0  0  0  0  0  0
  160.9480  207.1060  156.1170 C   0  0  0  0  0  1  0  0  0  0  0  0
  158.8120  208.8440  156.4130 O   0  0  0  0  0  0  0  0  0  0  0  0
  160.5350  211.3610  154.4870 C   0  0  0  0  0  3  0  0  0  0  0  0
  160.9300  205.8390  149.7560 C   0  0  0  0  0  0  0  0  0  0  0  0
  161.6540  202.9560  150.3660 C   0  0  0  0  0  3  0  0  0  0  0  0
  160.8820  207.1810  153.2140 C   0  0  0  0  0  3  0  0  0  0  0  0
  161.8250  210.7830  153.9790 C   0  0  0  0  0  2  0  0  0  0  0  0
  160.7370  205.8620  151.0780 C   0  0  0  0  0  0  0  0  0  0  0  0
  160.9730  205.2720  147.4590 C   0  0  0  0  0  3  0  0  0  0  0  0
  161.5930  209.5090  153.2150 C   0  0  0  0  0  0  0  0  0  0  0  0
  159.6510  210.7130  155.2580 C   0  0  0  0  0  3  0  0  0  0  0  0
  161.3580  203.4120  149.1300 C   0  0  0  0  0  0  0  0  0  0  0  0
  161.4790  208.2610  151.1290 C   0  0  0  0  0  0  0  0  0  0  0  0
  160.9590  208.4570  155.4060 C   0  0  2  0  0  3  0  0  0  0  0  0
  161.0380  207.1140  151.8260 C   0  0  0  0  0  0  0  0  0  0  0  0
  162.3140  210.4880  149.6960 C   0  0  0  0  0  3  0  0  0  0  0  0
  161.4840  203.6260  151.7050 C   0  0  0  0  0  2  0  0  0  0  0  0
  162.1700  210.5800  151.0840 C   0  0  0  0  0  3  0  0  0  0  0  0
  160.3250  204.6070  151.7750 C   0  0  0  0  0  2  0  0  0  0  0  0
  160.6150  204.7070  148.8490 C   0  0  1  0  0  3  0  0  0  0  0  0
  162.0490  209.3180  149.0530 N   0  0  0  0  0  0  0  0  0  0  0  0
  161.3620  206.9840  149.0560 N   0  0  0  0  0  0  0  0  0  0  0  0
  161.6530  202.6050  148.0200 O   0  0  0  0  0  0  0  0  0  0  0  0
  160.6960  201.7720  147.3770 C   0  0  0  0  0  2  0  0  0  0  0  0
  159.4010  202.6890  144.3920 O   0  0  0  0  0  0  0  0  0  0  0  0
  161.3210  203.1390  145.4170 C   0  0  0  0  0  3  0  0  0  0  0  0
  160.9350  201.7720  145.8770 C   0  0  2  0  0  3  0  0  0  0  0  0
  160.4170  203.6040  144.5780 C   0  0  0  0  0  3  0  0  0  0  0  0
  159.6180  201.5140  145.1520 C   0  0  0  0  0  2  0  0  0  0  0  0
  1 18  1  0  0  0  0
  2 27  1  0  0  0  0
  3  7  2  0  0  0  0
  4 15  1  0  0  0  0
  5 19  1  0  0  0  0
  8 16  2  0  0  0  0
  9 13  2  0  0  0  0
 10 22  1  0  0  0  0
 11  5  1  0  0  0  0
 12  8  1  0  0  0  0
 13 24  1  0  0  0  0
 13 20  1  0  0  0  0
 14  2  2  0  0  0  0
 15  5  2  0  0  0  0
 15 12  1  0  0  0  0
 16  3  1  0  0  0  0
 17 10  2  0  0  0  0
 18  4  2  0  0  0  0
 18 20  1  0  0  0  0
 19  3  1  0  0  0  0
 19  6  1  6  0  0  0
 20 11  2  0  0  0  0
 21 23  2  0  0  0  0
 22 24  1  0  0  0  0
 23  4  1  0  0  0  0
 25 14  1  6  0  0  0
 25 17  1  0  0  0  0
 25  9  1  0  0  0  0
 26 21  1  0  0  0  0
 26  1  2  0  0  0  0
 27  1  1  0  0  0  0
 27  9  1  0  0  0  0
 28 17  1  0  0  0  0
 29 28  1  0  0  0  0
 30 33  1  0  0  0  0
 30 34  1  0  0  0  0
 31 32  1  0  0  0  0
 32 29  1  1  0  0  0
 33 31  2  0  0  0  0
 34 32  1  0  0  0  0
M  END
>  <MODEL>
3

>  <REMARK>
 VINA RESULT:      -8.7      1.975      9.178
  Name = 
  3 active torsions:
  status: ('A' for Active; 'I' for Inactive)
    1  A    between atoms: C_17  and  O_28
    2  A    between atoms: O_28  and  C_29
    3  A    between atoms: C_29  and  C_32
                            x       y       z     vdW  Elec       q    Type
                         _______ _______ _______ _____ _____    ______ ____

>  <TORSDO>
F 3

$$$$
