=
 OpenBabel11122412333D

 30 35  0  0  1  0  0  0  0  0999 V2000
  161.4720  206.3620  150.1140 C   0  0  1  0  0  3  0  0  0  0  0  0
  161.2290  203.8220  149.9090 C   0  0  0  0  0  0  0  0  0  0  0  0
  160.8610  206.0400  154.3970 C   0  0  0  0  0  2  0  0  0  0  0  0
  161.7980  207.4780  151.1320 C   0  0  1  0  0  3  0  0  0  0  0  0
  162.3900  206.4230  149.0480 O   0  0  0  0  0  0  0  0  0  0  0  0
  162.0560  209.9400  148.4540 O   0  0  0  0  0  0  0  0  0  0  0  0
  160.4050  210.2890  151.9370 C   0  0  1  0  0  3  0  0  0  0  0  0
  161.9520  208.8310  149.0470 C   0  0  0  0  0  0  0  0  0  0  0  0
  160.2150  209.5740  153.2730 C   0  0  2  0  0  3  0  0  0  0  0  0
  160.7930  207.5100  154.5960 C   0  0  0  0  0  0  0  0  0  0  0  0
  162.0680  207.5530  148.2490 C   0  0  2  0  0  3  0  0  0  0  0  0
  161.6950  208.7800  150.4630 N   0  0  0  0  0  0  0  0  0  0  0  0
  161.0160  202.5730  150.4950 C   0  0  0  0  0  3  0  0  0  0  0  0
  160.6880  210.5620  154.3210 C   0  0  0  0  0  2  0  0  0  0  0  0
  160.2820  211.7730  152.2490 C   0  0  0  0  0  2  0  0  0  0  0  0
  161.3090  203.9140  148.5250 O   0  0  0  0  0  1  0  0  0  0  0  0
  161.3850  206.0150  152.9830 C   0  0  2  0  0  3  0  0  0  0  0  0
  160.9070  202.4700  151.8820 C   0  0  0  0  0  3  0  0  0  0  0  0
  161.3520  204.9650  150.7190 C   0  0  0  0  0  0  0  0  0  0  0  0
  160.8620  207.2760  152.3220 C   0  0  1  0  0  3  0  0  0  0  0  0
  160.6080  208.0310  155.7270 O   0  0  0  0  0  0  0  0  0  0  0  0
  160.8880  208.2730  153.3860 N   0  0  0  0  0  0  0  0  0  0  0  0
  160.3290  211.9210  153.7620 C   0  0  0  0  0  2  0  0  0  0  0  0
  162.9830  210.1430  152.0830 C   0  0  0  0  0  1  0  0  0  0  0  0
  160.9970  203.5810  152.6590 N   0  0  0  0  0  0  0  0  0  0  0  0
  161.1820  204.8150  152.1150 C   0  0  0  0  0  0  0  0  0  0  0  0
  161.7310  210.0300  151.2160 C   0  0  2  0  0  3  0  0  0  0  0  0
  160.8210  207.3140  147.4020 C   0  0  0  0  0  2  0  0  0  0  0  0
  160.3390  206.3210  145.4930 C   0  0  0  0  0  1  0  0  0  0  0  0
  160.9270  206.0940  146.7370 O   0  0  0  0  0  0  0  0  0  0  0  0
  1  5  1  6  0  0  0
  1 19  1  0  0  0  0
  1  4  1  0  0  0  0
  2 13  2  0  0  0  0
  2 19  1  0  0  0  0
  3 10  1  0  0  0  0
  4 12  1  6  0  0  0
  4 20  1  0  0  0  0
  6  8  2  0  0  0  0
  7 15  1  1  0  0  0
  7  9  1  0  0  0  0
  8 12  1  0  0  0  0
  9 22  1  0  0  0  0
  9 14  1  1  0  0  0
 10 21  2  0  0  0  0
 11 28  1  1  0  0  0
 11  8  1  0  0  0  0
 11  5  1  0  0  0  0
 12 27  1  0  0  0  0
 13 18  1  0  0  0  0
 15 23  1  0  0  0  0
 16  2  1  0  0  0  0
 17  3  1  1  0  0  0
 18 25  2  0  0  0  0
 19 26  2  0  0  0  0
 20 17  1  0  0  0  0
 20 22  1  1  0  0  0
 22 10  1  0  0  0  0
 23 14  1  0  0  0  0
 26 25  1  0  0  0  0
 26 17  1  0  0  0  0
 27  7  1  0  0  0  0
 27 24  1  1  0  0  0
 29 30  1  0  0  0  0
 30 28  1  0  0  0  0
M  END
>  <MODEL>
1

>  <REMARK>
 VINA RESULT:      -8.6      0.000      0.000
  Name = 
  2 active torsions:
  status: ('A' for Active; 'I' for Inactive)
    1  A    between atoms: C_11  and  C_28
    2  A    between atoms: C_28  and  O_30
                            x       y       z     vdW  Elec       q    Type
                         _______ _______ _______ _____ _____    ______ ____

>  <TORSDO>
F 2

$$$$
=
 OpenBabel11122412333D

 30 35  0  0  1  0  0  0  0  0999 V2000
  161.2740  209.6610  151.6660 C   0  0  1  0  0  3  0  0  0  0  0  0
  161.1290  211.9640  150.5570 C   0  0  0  0  0  0  0  0  0  0  0  0
  161.9820  207.8730  147.7760 C   0  0  0  0  0  2  0  0  0  0  0  0
  161.8210  208.2320  151.4440 C   0  0  1  0  0  3  0  0  0  0  0  0
  161.8280  210.1930  152.8450 O   0  0  0  0  0  0  0  0  0  0  0  0
  161.1280  207.3550  154.9150 O   0  0  0  0  0  0  0  0  0  0  0  0
  160.5690  205.2570  151.7110 C   0  0  1  0  0  3  0  0  0  0  0  0
  161.2700  208.0390  153.8650 C   0  0  0  0  0  0  0  0  0  0  0  0
  160.8270  205.2390  150.2060 C   0  0  2  0  0  3  0  0  0  0  0  0
  161.8910  206.4820  148.2900 C   0  0  0  0  0  0  0  0  0  0  0  0
  161.2180  209.5470  153.9530 C   0  0  2  0  0  3  0  0  0  0  0  0
  161.4480  207.3950  152.5890 N   0  0  0  0  0  0  0  0  0  0  0  0
  161.1730  212.7650  149.4150 C   0  0  0  0  0  3  0  0  0  0  0  0
  161.5310  203.9230  149.9410 C   0  0  0  0  0  2  0  0  0  0  0  0
  160.4580  203.7980  152.1220 C   0  0  0  0  0  2  0  0  0  0  0  0
  160.7890  212.5410  151.7750 O   0  0  0  0  0  1  0  0  0  0  0  0
  162.0630  208.6080  149.0910 C   0  0  2  0  0  3  0  0  0  0  0  0
  161.4880  212.1920  148.1820 C   0  0  0  0  0  3  0  0  0  0  0  0
  161.4200  210.5910  150.4630 C   0  0  0  0  0  0  0  0  0  0  0  0
  161.2950  207.7640  150.0900 C   0  0  1  0  0  3  0  0  0  0  0  0
  162.0210  205.4760  147.5460 O   0  0  0  0  0  0  0  0  0  0  0  0
  161.5780  206.3900  149.6870 N   0  0  0  0  0  0  0  0  0  0  0  0
  160.9440  202.9600  150.9490 C   0  0  0  0  0  2  0  0  0  0  0  0
  163.0780  205.5570  152.2630 C   0  0  0  0  0  1  0  0  0  0  0  0
  161.7390  210.8600  148.0910 N   0  0  0  0  0  0  0  0  0  0  0  0
  161.6820  210.0500  149.1830 C   0  0  0  0  0  0  0  0  0  0  0  0
  161.6340  205.9470  152.5690 C   0  0  2  0  0  3  0  0  0  0  0  0
  159.7920  210.0400  154.1850 C   0  0  0  0  0  2  0  0  0  0  0  0
  160.0940  211.8840  155.3540 C   0  0  0  0  0  1  0  0  0  0  0  0
  159.6740  210.5600  155.4730 O   0  0  0  0  0  0  0  0  0  0  0  0
  1 19  1  6  0  0  0
  1  5  1  0  0  0  0
  2 16  1  0  0  0  0
  3 10  1  0  0  0  0
  4  1  1  0  0  0  0
  4 12  1  1  0  0  0
  5 11  1  0  0  0  0
  7 15  1  1  0  0  0
  7 27  1  0  0  0  0
  8 11  1  0  0  0  0
  8  6  2  0  0  0  0
  9 14  1  1  0  0  0
  9  7  1  0  0  0  0
 10 22  1  0  0  0  0
 11 28  1  6  0  0  0
 12  8  1  0  0  0  0
 13  2  2  0  0  0  0
 14 23  1  0  0  0  0
 17  3  1  6  0  0  0
 17 26  1  0  0  0  0
 17 20  1  0  0  0  0
 18 13  1  0  0  0  0
 19  2  1  0  0  0  0
 20 22  1  6  0  0  0
 20  4  1  0  0  0  0
 21 10  2  0  0  0  0
 22  9  1  0  0  0  0
 23 15  1  0  0  0  0
 25 18  2  0  0  0  0
 25 26  1  0  0  0  0
 26 19  2  0  0  0  0
 27 24  1  6  0  0  0
 27 12  1  0  0  0  0
 28 30  1  0  0  0  0
 29 30  1  0  0  0  0
M  END
>  <MODEL>
2

>  <REMARK>
 VINA RESULT:      -6.5      1.903      7.000
  Name = 
  2 active torsions:
  status: ('A' for Active; 'I' for Inactive)
    1  A    between atoms: C_11  and  C_28
    2  A    between atoms: C_28  and  O_30
                            x       y       z     vdW  Elec       q    Type
                         _______ _______ _______ _____ _____    ______ ____

>  <TORSDO>
F 2

$$$$
=
 OpenBabel11122412333D

 30 35  0  0  1  0  0  0  0  0999 V2000
  161.3710  204.6740  148.1200 C   0  0  1  0  0  3  0  0  0  0  0  0
  160.9980  202.3220  147.1780 C   0  0  0  0  0  0  0  0  0  0  0  0
  161.1200  203.0630  152.1410 C   0  0  0  0  0  2  0  0  0  0  0  0
  161.8330  205.4180  149.3930 C   0  0  1  0  0  3  0  0  0  0  0  0
  162.1940  205.0440  147.0400 O   0  0  0  0  0  0  0  0  0  0  0  0
  161.9660  208.5780  147.5770 O   0  0  0  0  0  0  0  0  0  0  0  0
  160.6420  207.8690  151.1440 C   0  0  1  0  0  3  0  0  0  0  0  0
  161.8650  207.3430  147.8130 C   0  0  0  0  0  0  0  0  0  0  0  0
  160.5370  206.7820  152.2110 C   0  0  2  0  0  3  0  0  0  0  0  0
  161.1350  204.4020  152.7830 C   0  0  0  0  0  0  0  0  0  0  0  0
  161.8540  206.3690  146.6570 C   0  0  2  0  0  3  0  0  0  0  0  0
  161.7300  206.8640  149.1640 N   0  0  0  0  0  0  0  0  0  0  0  0
  160.7810  200.9580  147.3740 C   0  0  0  0  0  3  0  0  0  0  0  0
  161.1430  207.3930  153.4590 C   0  0  0  0  0  2  0  0  0  0  0  0
  160.6130  209.1870  151.9020 C   0  0  0  0  0  2  0  0  0  0  0  0
  160.9610  202.8340  145.8860 O   0  0  0  0  0  1  0  0  0  0  0  0
  161.5180  203.4650  150.7430 C   0  0  2  0  0  3  0  0  0  0  0  0
  160.7890  200.4360  148.6690 C   0  0  0  0  0  3  0  0  0  0  0  0
  161.2410  203.1600  148.2800 C   0  0  0  0  0  0  0  0  0  0  0  0
  160.9960  204.8760  150.5490 C   0  0  1  0  0  3  0  0  0  0  0  0
  161.0740  204.5550  154.0310 O   0  0  0  0  0  0  0  0  0  0  0  0
  161.1590  205.4990  151.8590 N   0  0  0  0  0  0  0  0  0  0  0  0
  160.7980  208.8640  153.3760 C   0  0  0  0  0  2  0  0  0  0  0  0
  163.2140  207.6440  150.9890 C   0  0  0  0  0  1  0  0  0  0  0  0
  160.9950  201.2540  149.7330 N   0  0  0  0  0  0  0  0  0  0  0  0
  161.1870  202.5920  149.5750 C   0  0  0  0  0  0  0  0  0  0  0  0
  161.8880  207.8220  150.2540 C   0  0  2  0  0  3  0  0  0  0  0  0
  160.5290  206.4210  145.9010 C   0  0  0  0  0  2  0  0  0  0  0  0
  161.3860  205.7750  143.9750 C   0  0  0  0  0  1  0  0  0  0  0  0
  160.4790  205.3920  144.9620 O   0  0  0  0  0  0  0  0  0  0  0  0
  1  5  1  6  0  0  0
  1 19  1  0  0  0  0
  1  4  1  0  0  0  0
  2 13  2  0  0  0  0
  2 19  1  0  0  0  0
  3 10  1  0  0  0  0
  4 12  1  6  0  0  0
  4 20  1  0  0  0  0
  6  8  2  0  0  0  0
  7 15  1  1  0  0  0
  7  9  1  0  0  0  0
  8 12  1  0  0  0  0
  9 14  1  1  0  0  0
 10 21  2  0  0  0  0
 11 28  1  1  0  0  0
 11  5  1  0  0  0  0
 11  8  1  0  0  0  0
 12 27  1  0  0  0  0
 13 18  1  0  0  0  0
 15 23  1  0  0  0  0
 16  2  1  0  0  0  0
 17  3  1  1  0  0  0
 18 25  2  0  0  0  0
 19 26  2  0  0  0  0
 20 17  1  0  0  0  0
 20 22  1  1  0  0  0
 22  9  1  0  0  0  0
 22 10  1  0  0  0  0
 23 14  1  0  0  0  0
 26 25  1  0  0  0  0
 26 17  1  0  0  0  0
 27 24  1  1  0  0  0
 27  7  1  0  0  0  0
 29 30  1  0  0  0  0
 30 28  1  0  0  0  0
M  END
>  <MODEL>
3

>  <REMARK>
 VINA RESULT:      -6.4      1.942      2.917
  Name = 
  2 active torsions:
  status: ('A' for Active; 'I' for Inactive)
    1  A    between atoms: C_11  and  C_28
    2  A    between atoms: C_28  and  O_30
                            x       y       z     vdW  Elec       q    Type
                         _______ _______ _______ _____ _____    ______ ____

>  <TORSDO>
F 2

$$$$
=
 OpenBabel11122412333D

 30 35  0  0  1  0  0  0  0  0999 V2000
  161.5890  208.1600  149.5370 C   0  0  1  0  0  3  0  0  0  0  0  0
  161.4930  206.1250  147.9860 C   0  0  0  0  0  0  0  0  0  0  0  0
  160.9070  205.5530  152.9370 C   0  0  0  0  0  2  0  0  0  0  0  0
  161.8310  208.5590  151.0100 C   0  0  1  0  0  3  0  0  0  0  0  0
  162.5240  208.8190  148.7170 O   0  0  0  0  0  0  0  0  0  0  0  0
  162.0070  212.0850  150.0950 O   0  0  0  0  0  0  0  0  0  0  0  0
  160.2660  210.4390  153.1340 C   0  0  1  0  0  3  0  0  0  0  0  0
  161.9530  210.8290  149.9920 C   0  0  0  0  0  0  0  0  0  0  0  0
  160.0890  209.1090  153.8640 C   0  0  2  0  0  3  0  0  0  0  0  0
  160.7530  206.6790  153.8940 C   0  0  0  0  0  0  0  0  0  0  0  0
  162.1560  210.1890  148.6380 C   0  0  2  0  0  3  0  0  0  0  0  0
  161.6690  210.0120  151.1440 N   0  0  0  0  0  0  0  0  0  0  0  0
  161.3370  204.7520  147.7950 C   0  0  0  0  0  3  0  0  0  0  0  0
  160.4840  209.3910  155.3000 C   0  0  0  0  0  2  0  0  0  0  0  0
  160.0550  211.5130  154.1890 C   0  0  0  0  0  2  0  0  0  0  0  0
  161.5960  206.9540  146.8740 O   0  0  0  0  0  1  0  0  0  0  0  0
  161.4610  206.3150  151.7600 C   0  0  2  0  0  3  0  0  0  0  0  0
  161.2050  203.9120  148.9020 C   0  0  0  0  0  3  0  0  0  0  0  0
  161.5340  206.6530  149.2880 C   0  0  0  0  0  0  0  0  0  0  0  0
  160.8830  207.7140  151.8570 C   0  0  1  0  0  3  0  0  0  0  0  0
  160.5160  206.5000  155.1170 O   0  0  0  0  0  0  0  0  0  0  0  0
  160.8310  207.9780  153.2910 N   0  0  0  0  0  0  0  0  0  0  0  0
  160.0620  210.8230  155.5450 C   0  0  0  0  0  2  0  0  0  0  0  0
  162.8460  210.3290  153.3010 C   0  0  0  0  0  1  0  0  0  0  0  0
  161.2170  204.4300  150.1580 N   0  0  0  0  0  0  0  0  0  0  0  0
  161.3440  205.7670  150.3740 C   0  0  0  0  0  0  0  0  0  0  0  0
  161.6210  210.6570  152.4520 C   0  0  2  0  0  3  0  0  0  0  0  0
  160.9430  210.4020  147.7370 C   0  0  0  0  0  2  0  0  0  0  0  0
  159.8470  212.2080  147.1080 C   0  0  0  0  0  1  0  0  0  0  0  0
  161.0900  211.5860  147.0160 O   0  0  0  0  0  0  0  0  0  0  0  0
  1  5  1  6  0  0  0
  1  4  1  0  0  0  0
  2 19  1  0  0  0  0
  3 10  1  0  0  0  0
  4 12  1  6  0  0  0
  4 20  1  0  0  0  0
  7  9  1  0  0  0  0
  7 15  1  1  0  0  0
  8  6  2  0  0  0  0
  8 12  1  0  0  0  0
  9 14  1  1  0  0  0
 10 21  2  0  0  0  0
 11 28  1  6  0  0  0
 11  5  1  0  0  0  0
 11  8  1  0  0  0  0
 12 27  1  0  0  0  0
 13  2  2  0  0  0  0
 13 18  1  0  0  0  0
 14 23  1  0  0  0  0
 15 23  1  0  0  0  0
 16  2  1  0  0  0  0
 17 20  1  0  0  0  0
 17  3  1  1  0  0  0
 18 25  2  0  0  0  0
 19  1  1  0  0  0  0
 19 26  2  0  0  0  0
 20 22  1  1  0  0  0
 22  9  1  0  0  0  0
 22 10  1  0  0  0  0
 25 26  1  0  0  0  0
 26 17  1  0  0  0  0
 27  7  1  0  0  0  0
 27 24  1  1  0  0  0
 30 29  1  0  0  0  0
 30 28  1  0  0  0  0
M  END
>  <MODEL>
4

>  <REMARK>
 VINA RESULT:      -5.6      1.644      2.544
  Name = 
  2 active torsions:
  status: ('A' for Active; 'I' for Inactive)
    1  A    between atoms: C_11  and  C_28
    2  A    between atoms: C_28  and  O_30
                            x       y       z     vdW  Elec       q    Type
                         _______ _______ _______ _____ _____    ______ ____

>  <TORSDO>
F 2

$$$$
