=
 OpenBabel11122414093D

 28 32  0  0  1  0  0  0  0  0999 V2000
  160.8600  209.0250  156.1280 C   0  0  0  0  0  0  0  0  0  0  0  0
  157.2460  211.3780  153.5140 F   0  0  0  0  0  0  0  0  0  0  0  0
  162.6470  208.3660  151.7370 O   0  0  0  0  0  0  0  0  0  0  0  0
  163.0280  210.7990  156.2080 C   0  0  0  0  0  3  0  0  0  0  0  0
  161.3750  210.3810  151.5090 C   0  0  0  0  0  0  0  0  0  0  0  0
  159.7500  208.0240  156.0430 C   0  0  0  0  0  2  0  0  0  0  0  0
  157.5740  212.7510  155.4020 C   0  0  0  0  0  1  0  0  0  0  0  0
  158.0510  212.3920  154.0090 C   0  0  1  0  0  0  0  0  0  0  0  0
  158.6160  213.3230  151.8220 C   0  0  1  0  0  3  0  0  0  0  0  0
  159.5370  211.9560  154.0800 C   0  0  2  0  0  3  0  0  0  0  0  0
  162.3010  207.0270  154.3930 O   0  0  0  0  0  1  0  0  0  0  0  0
  159.6670  209.7710  153.0570 C   0  0  1  0  0  3  0  0  0  0  0  0
  159.9960  213.2350  152.0850 O   0  0  0  0  0  0  0  0  0  0  0  0
  157.8910  213.6040  153.1170 C   0  0  0  0  0  2  0  0  0  0  0  0
  160.9790  206.5950  154.2590 C   0  0  2  0  0  3  0  0  0  0  0  0
  160.8450  210.1810  155.3200 C   0  0  0  0  0  0  0  0  0  0  0  0
  161.6640  209.0860  152.0570 C   0  0  0  0  0  0  0  0  0  0  0  0
  158.3630  214.4530  150.8470 C   0  0  0  0  0  1  0  0  0  0  0  0
  160.2520  207.2930  153.1070 C   0  0  0  0  0  2  0  0  0  0  0  0
  161.9500  211.0490  155.3570 C   0  0  0  0  0  3  0  0  0  0  0  0
  161.9360  208.7910  156.9940 C   0  0  0  0  0  3  0  0  0  0  0  0
  163.0160  209.6750  157.0350 C   0  0  0  0  0  3  0  0  0  0  0  0
  160.2340  206.6390  155.5990 C   0  0  0  0  0  2  0  0  0  0  0  0
  160.0740  210.8660  152.0390 C   0  0  1  0  0  3  0  0  0  0  0  0
  160.6520  208.6880  152.9650 N   0  0  0  0  0  0  0  0  0  0  0  0
  160.2670  212.0950  152.8070 N   0  0  2  0  0  0  0  0  0  0  0  0
  162.0950  210.9930  150.6760 O   0  0  0  0  0  0  0  0  0  0  0  0
  159.6490  210.4740  154.4280 C   0  0  1  0  0  3  0  0  0  0  0  0
  1 21  1  0  0  0  0
  2  8  1  0  0  0  0
  3 17  2  0  0  0  0
  4 22  1  0  0  0  0
  5 24  1  0  0  0  0
  5 17  1  0  0  0  0
  6  1  1  0  0  0  0
  8 10  1  0  0  0  0
  8  7  1  1  0  0  0
  9 18  1  6  0  0  0
  9 13  1  0  0  0  0
  9 14  1  0  0  0  0
 10 28  1  0  0  0  0
 12 28  1  0  0  0  0
 13 26  1  0  0  0  0
 14  8  1  0  0  0  0
 15 11  1  0  0  0  0
 15 23  1  0  0  0  0
 16 20  1  0  0  0  0
 16  1  2  0  0  0  0
 17 25  1  0  0  0  0
 19 15  1  0  0  0  0
 20  4  2  0  0  0  0
 21 22  2  0  0  0  0
 23  6  1  0  0  0  0
 24 26  1  0  0  0  0
 24 12  1  0  0  0  0
 25 12  1  0  0  0  0
 25 19  1  0  0  0  0
 26 10  1  0  0  0  0
 27  5  2  0  0  0  0
 28 16  1  0  0  0  0
M  END
>  <MODEL>
1

>  <REMARK>
 VINA RESULT:      -3.5      0.000      0.000
  Name = 
  0 active torsions:
  status: ('A' for Active; 'I' for Inactive)
                            x       y       z     vdW  Elec       q    Type
                         _______ _______ _______ _____ _____    ______ ____

>  <TORSDO>
F 0

$$$$
=
 OpenBabel11122414093D

 28 32  0  0  1  0  0  0  0  0999 V2000
  161.7190  210.0150  154.4880 C   0  0  0  0  0  0  0  0  0  0  0  0
  160.4540  214.2010  151.9760 F   0  0  0  0  0  0  0  0  0  0  0  0
  157.7180  211.0760  156.8900 O   0  0  0  0  0  0  0  0  0  0  0  0
  160.0220  208.0030  153.5290 C   0  0  0  0  0  3  0  0  0  0  0  0
  157.3260  212.0360  154.7330 C   0  0  0  0  0  0  0  0  0  0  0  0
  162.5910  211.0800  155.0770 C   0  0  0  0  0  2  0  0  0  0  0  0
  161.2060  212.7290  150.2950 C   0  0  0  0  0  1  0  0  0  0  0  0
  160.0410  213.1550  151.1660 C   0  0  1  0  0  0  0  0  0  0  0  0
  157.6900  213.8180  151.1190 C   0  0  1  0  0  3  0  0  0  0  0  0
  159.5640  211.9410  152.0020 C   0  0  2  0  0  3  0  0  0  0  0  0
  160.4940  210.0140  157.2420 O   0  0  0  0  0  1  0  0  0  0  0  0
  159.5960  212.6370  154.3150 C   0  0  1  0  0  3  0  0  0  0  0  0
  157.2710  212.5460  151.5520 O   0  0  0  0  0  0  0  0  0  0  0  0
  158.9300  213.6590  150.2700 C   0  0  0  0  0  2  0  0  0  0  0  0
  161.1990  211.2210  157.2610 C   0  0  2  0  0  3  0  0  0  0  0  0
  160.6270  210.3580  153.6650 C   0  0  0  0  0  0  0  0  0  0  0  0
  158.1430  211.6290  155.8410 C   0  0  0  0  0  0  0  0  0  0  0  0
  156.5920  214.4530  150.2930 C   0  0  0  0  0  1  0  0  0  0  0  0
  160.3650  212.3890  156.7310 C   0  0  0  0  0  2  0  0  0  0  0  0
  159.7730  209.3390  153.2100 C   0  0  0  0  0  3  0  0  0  0  0  0
  161.9730  208.6710  154.7880 C   0  0  0  0  0  3  0  0  0  0  0  0
  161.1290  207.6670  154.3100 C   0  0  0  0  0  3  0  0  0  0  0  0
  162.5790  211.0770  156.6090 C   0  0  0  0  0  2  0  0  0  0  0  0
  158.1630  212.7580  153.7380 C   0  0  1  0  0  3  0  0  0  0  0  0
  159.4950  211.9940  155.6290 N   0  0  0  0  0  0  0  0  0  0  0  0
  158.1670  212.0390  152.4650 N   0  0  2  0  0  0  0  0  0  0  0  0
  156.0850  211.8470  154.6380 O   0  0  0  0  0  0  0  0  0  0  0  0
  160.3850  211.8100  153.2820 C   0  0  1  0  0  3  0  0  0  0  0  0
  1 21  1  0  0  0  0
  1  6  1  0  0  0  0
  4 22  1  0  0  0  0
  5 17  1  0  0  0  0
  6 23  1  0  0  0  0
  8  7  1  6  0  0  0
  8  2  1  0  0  0  0
  8 10  1  0  0  0  0
  9 18  1  6  0  0  0
  9 13  1  0  0  0  0
 10 26  1  0  0  0  0
 10 28  1  0  0  0  0
 11 15  1  0  0  0  0
 12 25  1  0  0  0  0
 13 26  1  0  0  0  0
 14  9  1  0  0  0  0
 14  8  1  0  0  0  0
 16  1  2  0  0  0  0
 17  3  2  0  0  0  0
 19 15  1  0  0  0  0
 20  4  2  0  0  0  0
 20 16  1  0  0  0  0
 22 21  2  0  0  0  0
 23 15  1  0  0  0  0
 24 12  1  0  0  0  0
 24  5  1  0  0  0  0
 25 17  1  0  0  0  0
 25 19  1  0  0  0  0
 26 24  1  0  0  0  0
 27  5  2  0  0  0  0
 28 16  1  0  0  0  0
 28 12  1  0  0  0  0
M  END
>  <MODEL>
2

>  <REMARK>
 VINA RESULT:      -0.8      2.518      4.301
  Name = 
  0 active torsions:
  status: ('A' for Active; 'I' for Inactive)
                            x       y       z     vdW  Elec       q    Type
                         _______ _______ _______ _____ _____    ______ ____

>  <TORSDO>
F 0

$$$$
=
 OpenBabel11122414093D

 28 32  0  0  1  0  0  0  0  0999 V2000
  160.9100  209.9400  156.1950 C   0  0  0  0  0  0  0  0  0  0  0  0
  158.3620  211.5870  152.1670 F   0  0  0  0  0  0  0  0  0  0  0  0
  162.5380  206.7650  153.0070 O   0  0  0  0  0  0  0  0  0  0  0  0
  163.5350  210.8680  155.8750 C   0  0  0  0  0  3  0  0  0  0  0  0
  162.0070  208.6670  151.6550 C   0  0  0  0  0  0  0  0  0  0  0  0
  159.5370  209.3670  156.3630 C   0  0  0  0  0  2  0  0  0  0  0  0
  159.0550  213.5610  153.2540 C   0  0  0  0  0  1  0  0  0  0  0  0
  159.4370  212.4530  152.2930 C   0  0  1  0  0  0  0  0  0  0  0  0
  160.3540  212.0040  150.0730 C   0  0  1  0  0  3  0  0  0  0  0  0
  160.6940  211.7270  152.8340 C   0  0  2  0  0  3  0  0  0  0  0  0
  161.6780  207.0460  155.8600 O   0  0  0  0  0  1  0  0  0  0  0  0
  160.1390  209.3780  152.9550 C   0  0  1  0  0  3  0  0  0  0  0  0
  161.6190  211.6880  150.6050 O   0  0  0  0  0  0  0  0  0  0  0  0
  159.7150  213.0660  150.9370 C   0  0  0  0  0  2  0  0  0  0  0  0
  160.2930  206.9790  155.6880 C   0  0  2  0  0  3  0  0  0  0  0  0
  161.3030  210.5090  154.9660 C   0  0  0  0  0  0  0  0  0  0  0  0
  161.8350  207.7840  152.7730 C   0  0  0  0  0  0  0  0  0  0  0  0
  160.5200  212.5330  148.6650 C   0  0  0  0  0  1  0  0  0  0  0  0
  159.8770  207.1890  154.2300 C   0  0  0  0  0  2  0  0  0  0  0  0
  162.6300  210.9490  154.8150 C   0  0  0  0  0  3  0  0  0  0  0  0
  161.8180  209.8800  157.2600 C   0  0  0  0  0  3  0  0  0  0  0  0
  163.1260  210.3430  157.1020 C   0  0  0  0  0  3  0  0  0  0  0  0
  159.5560  207.8710  156.6940 C   0  0  0  0  0  2  0  0  0  0  0  0
  160.9180  209.6800  151.6500 C   0  0  1  0  0  3  0  0  0  0  0  0
  160.7160  208.1700  153.5510 N   0  0  0  0  0  0  0  0  0  0  0  0
  161.4760  211.0230  151.8000 N   0  0  2  0  0  0  0  0  0  0  0  0
  162.9160  208.5740  150.7890 O   0  0  0  0  0  0  0  0  0  0  0  0
  160.3020  210.6370  153.8290 C   0  0  1  0  0  3  0  0  0  0  0  0
  1  6  1  0  0  0  0
  1 21  1  0  0  0  0
  2  8  1  0  0  0  0
  4 22  1  0  0  0  0
  5 17  1  0  0  0  0
  6 23  1  0  0  0  0
  8 10  1  0  0  0  0
  8  7  1  1  0  0  0
  9 18  1  6  0  0  0
  9 13  1  0  0  0  0
  9 14  1  0  0  0  0
 10 28  1  0  0  0  0
 12 25  1  0  0  0  0
 12 28  1  0  0  0  0
 13 26  1  0  0  0  0
 14  8  1  0  0  0  0
 15 11  1  0  0  0  0
 15 23  1  0  0  0  0
 16  1  2  0  0  0  0
 17  3  2  0  0  0  0
 17 25  1  0  0  0  0
 19 15  1  0  0  0  0
 20 16  1  0  0  0  0
 20  4  2  0  0  0  0
 22 21  2  0  0  0  0
 24  5  1  0  0  0  0
 24 26  1  0  0  0  0
 24 12  1  0  0  0  0
 25 19  1  0  0  0  0
 26 10  1  0  0  0  0
 27  5  2  0  0  0  0
 28 16  1  0  0  0  0
M  END
>  <MODEL>
3

>  <REMARK>
 VINA RESULT:      -0.8      1.357      1.840
  Name = 
  0 active torsions:
  status: ('A' for Active; 'I' for Inactive)
                            x       y       z     vdW  Elec       q    Type
                         _______ _______ _______ _____ _____    ______ ____

>  <TORSDO>
F 0

$$$$
