=
 OpenBabel11122414203D

 34 41  0  0  1  0  0  0  0  0999 V2000
  160.8490  207.7970  154.1750 C   0  0  0  0  0  0  0  0  0  0  0  0
  162.2310  206.1140  152.8840 C   0  0  0  0  0  2  0  0  0  0  0  0
  159.1650  213.5350  155.7440 C   0  0  2  0  0  3  0  0  0  0  0  0
  159.2130  209.3050  155.0980 C   0  0  0  0  0  0  0  0  0  0  0  0
  158.7820  211.5730  154.0520 C   0  0  1  0  0  3  0  0  0  0  0  0
  160.8240  212.1830  155.4990 C   0  0  0  0  0  2  0  0  0  0  0  0
  160.2940  213.0430  156.6370 C   0  0  0  0  0  2  0  0  0  0  0  0
  157.6440  211.8260  156.9540 C   0  0  0  0  0  2  0  0  0  0  0  0
  162.2450  208.4260  152.1610 C   0  0  2  0  0  3  0  0  0  0  0  0
  161.6860  208.7500  148.9590 C   0  0  0  0  0  2  0  0  0  0  0  0
  159.3410  210.9520  152.7690 C   0  0  0  0  0  2  0  0  0  0  0  0
  157.3340  210.7490  155.9290 C   0  0  0  0  0  2  0  0  0  0  0  0
  161.1120  209.4130  151.8030 C   0  0  1  0  0  3  0  0  0  0  0  0
  163.0290  206.1860  151.5930 C   0  0  0  0  0  2  0  0  0  0  0  0
  158.4750  210.5410  155.0490 N   0  0  0  0  0  0  0  0  0  0  0  0
  157.7640  213.1960  156.2890 C   0  0  0  0  0  2  0  0  0  0  0  0
  161.8040  207.4590  149.7900 C   0  0  1  0  0  3  0  0  0  0  0  0
  160.1840  209.0280  154.1230 C   0  0  0  0  0  0  0  0  0  0  0  0
  159.7070  212.6830  154.5930 C   0  0  2  0  0  3  0  0  0  0  0  0
  160.5470  210.0580  153.0780 C   0  0  2  0  0  3  0  0  0  0  0  0
  159.5910  207.1840  156.0830 C   0  0  0  0  0  3  0  0  0  0  0  0
  162.3390  209.9770  149.6010 C   0  0  0  0  0  2  0  0  0  0  0  0
  158.9380  208.3750  156.0530 N   0  0  0  0  0  0  0  0  0  0  0  0
  161.5760  210.5000  150.8210 C   0  0  0  0  0  2  0  0  0  0  0  0
  162.7640  207.5660  150.9960 C   0  0  1  0  0  3  0  0  0  0  0  0
  160.5340  206.8990  155.1470 N   0  0  0  0  0  0  0  0  0  0  0  0
  161.8130  207.4710  153.1680 N   0  0  0  0  0  0  0  0  0  0  0  0
  160.5320  207.0310  150.1860 O   0  0  0  0  0  0  0  0  0  0  0  0
  160.0710  206.2290  149.1400 C   0  0  0  0  0  2  0  0  0  0  0  0
  161.4280  202.7980  148.8160 O   0  0  0  0  0  0  0  0  0  0  0  0
  160.3350  204.1330  150.4280 C   0  0  0  0  0  3  0  0  0  0  0  0
  160.5340  204.8310  149.3500 C   0  0  0  0  0  0  0  0  0  0  0  0
  160.9170  202.7880  150.1410 C   0  0  0  0  0  3  0  0  0  0  0  0
  161.1710  204.0560  148.3680 N   0  0  0  0  0  0  0  0  0  0  0  0
  1 26  1  0  0  0  0
  2 27  1  0  0  0  0
  3 16  1  1  0  0  0
  3  7  1  0  0  0  0
  4 23  2  0  0  0  0
  5 11  1  6  0  0  0
  5 19  1  0  0  0  0
  5 15  1  0  0  0  0
  6  7  1  0  0  0  0
  9 27  1  1  0  0  0
 10 22  1  0  0  0  0
 10 17  1  0  0  0  0
 12  8  1  0  0  0  0
 13 24  1  6  0  0  0
 13  9  1  0  0  0  0
 13 20  1  0  0  0  0
 14  2  1  0  0  0  0
 15  4  1  0  0  0  0
 15 12  1  0  0  0  0
 16  8  1  0  0  0  0
 17 28  1  1  0  0  0
 17 25  1  0  0  0  0
 18  1  2  0  0  0  0
 18  4  1  0  0  0  0
 19  6  1  1  0  0  0
 19  3  1  0  0  0  0
 20 11  1  6  0  0  0
 20 18  1  0  0  0  0
 22 24  1  0  0  0  0
 23 21  1  0  0  0  0
 25 14  1  1  0  0  0
 25  9  1  0  0  0  0
 26 21  2  0  0  0  0
 27  1  1  0  0  0  0
 29 32  1  0  0  0  0
 29 28  1  0  0  0  0
 30 33  1  0  0  0  0
 32 31  1  0  0  0  0
 33 31  2  0  0  0  0
 34 30  1  0  0  0  0
 34 32  2  0  0  0  0
M  END
>  <MODEL>
1

>  <REMARK>
 VINA RESULT:      -5.5      0.000      0.000
  Name = 
  3 active torsions:
  status: ('A' for Active; 'I' for Inactive)
    1  A    between atoms: C_17  and  O_28
    2  A    between atoms: O_28  and  C_29
    3  A    between atoms: C_29  and  C_32
                            x       y       z     vdW  Elec       q    Type
                         _______ _______ _______ _____ _____    ______ ____

>  <TORSDO>
F 3

$$$$
=
 OpenBabel11122414203D

 34 41  0  0  1  0  0  0  0  0999 V2000
  160.3340  210.8160  151.7070 C   0  0  0  0  0  0  0  0  0  0  0  0
  159.4320  209.9270  153.9000 C   0  0  0  0  0  2  0  0  0  0  0  0
  160.0470  214.3120  146.6170 C   0  0  2  0  0  3  0  0  0  0  0  0
  161.4460  211.9290  149.8840 C   0  0  0  0  0  0  0  0  0  0  0  0
  160.7470  214.2480  149.1400 C   0  0  1  0  0  3  0  0  0  0  0  0
  159.0080  212.8690  147.8320 C   0  0  0  0  0  2  0  0  0  0  0  0
  159.4180  212.9490  146.3690 C   0  0  0  0  0  2  0  0  0  0  0  0
  162.3290  213.0930  146.7010 C   0  0  0  0  0  2  0  0  0  0  0  0
  158.3880  211.8830  152.9230 C   0  0  2  0  0  3  0  0  0  0  0  0
  158.0470  214.3310  155.0600 C   0  0  0  0  0  2  0  0  0  0  0  0
  160.1880  214.4020  150.5570 C   0  0  0  0  0  2  0  0  0  0  0  0
  162.7810  213.1620  148.1500 C   0  0  0  0  0  2  0  0  0  0  0  0
  158.9560  213.2380  152.4450 C   0  0  1  0  0  3  0  0  0  0  0  0
  158.3960  210.4370  154.8880 C   0  0  0  0  0  2  0  0  0  0  0  0
  161.6350  213.0840  149.0440 N   0  0  0  0  0  0  0  0  0  0  0  0
  161.5570  214.3510  146.3100 C   0  0  0  0  0  2  0  0  0  0  0  0
  158.6130  212.9180  155.2960 C   0  0  1  0  0  3  0  0  0  0  0  0
  160.4570  211.9380  150.8800 C   0  0  0  0  0  0  0  0  0  0  0  0
  159.6200  214.2400  148.0850 C   0  0  2  0  0  3  0  0  0  0  0  0
  159.5090  213.1080  151.0170 C   0  0  2  0  0  3  0  0  0  0  0  0
  162.1240  209.7660  150.5730 C   0  0  0  0  0  3  0  0  0  0  0  0
  157.1450  214.4530  153.8290 C   0  0  0  0  0  2  0  0  0  0  0  0
  162.2580  210.8430  149.7560 N   0  0  0  0  0  0  0  0  0  0  0  0
  157.9090  214.3610  152.5060 C   0  0  0  0  0  2  0  0  0  0  0  0
  157.9820  211.8240  154.4060 C   0  0  1  0  0  3  0  0  0  0  0  0
  161.1730  209.7580  151.5430 N   0  0  0  0  0  0  0  0  0  0  0  0
  159.3620  210.8170  152.7590 N   0  0  0  0  0  0  0  0  0  0  0  0
  160.0070  212.9380  155.1700 O   0  0  0  0  0  0  0  0  0  0  0  0
  160.4970  212.7760  156.4680 C   0  0  0  0  0  2  0  0  0  0  0  0
  162.7060  209.8230  156.1230 O   0  0  0  0  0  0  0  0  0  0  0  0
  160.7340  210.4440  157.2610 C   0  0  0  0  0  3  0  0  0  0  0  0
  161.1760  211.4560  156.5770 C   0  0  0  0  0  0  0  0  0  0  0  0
  161.7100  209.3420  157.0130 C   0  0  0  0  0  3  0  0  0  0  0  0
  162.3430  211.1100  155.8780 N   0  0  0  0  0  0  0  0  0  0  0  0
  1 27  1  0  0  0  0
  2 14  1  0  0  0  0
  3 16  1  1  0  0  0
  3 19  1  0  0  0  0
  4 18  1  0  0  0  0
  5 11  1  1  0  0  0
  7  3  1  0  0  0  0
  7  6  1  0  0  0  0
  8 12  1  0  0  0  0
  9 27  1  1  0  0  0
  9 25  1  0  0  0  0
 10 17  1  0  0  0  0
 12 15  1  0  0  0  0
 13 24  1  6  0  0  0
 13  9  1  0  0  0  0
 15  5  1  0  0  0  0
 15  4  1  0  0  0  0
 16  8  1  0  0  0  0
 17 28  1  6  0  0  0
 18 20  1  0  0  0  0
 18  1  2  0  0  0  0
 19  6  1  6  0  0  0
 19  5  1  0  0  0  0
 20 11  1  1  0  0  0
 20 13  1  0  0  0  0
 21 26  2  0  0  0  0
 22 10  1  0  0  0  0
 23  4  2  0  0  0  0
 23 21  1  0  0  0  0
 24 22  1  0  0  0  0
 25 14  1  1  0  0  0
 25 17  1  0  0  0  0
 26  1  1  0  0  0  0
 27  2  1  0  0  0  0
 28 29  1  0  0  0  0
 29 32  1  0  0  0  0
 30 33  1  0  0  0  0
 32 31  1  0  0  0  0
 33 31  2  0  0  0  0
 34 30  1  0  0  0  0
 34 32  2  0  0  0  0
M  END
>  <MODEL>
2

>  <REMARK>
 VINA RESULT:      -3.7      3.760      7.736
  Name = 
  3 active torsions:
  status: ('A' for Active; 'I' for Inactive)
    1  A    between atoms: C_17  and  O_28
    2  A    between atoms: O_28  and  C_29
    3  A    between atoms: C_29  and  C_32
                            x       y       z     vdW  Elec       q    Type
                         _______ _______ _______ _____ _____    ______ ____

>  <TORSDO>
F 3

$$$$
=
 OpenBabel11122414203D

 34 41  0  0  1  0  0  0  0  0999 V2000
  162.1620  207.6930  150.5500 C   0  0  0  0  0  0  0  0  0  0  0  0
  162.6390  210.0450  151.3590 C   0  0  0  0  0  2  0  0  0  0  0  0
  161.3020  201.6270  151.3710 C   0  0  2  0  0  3  0  0  0  0  0  0
  161.2750  205.5940  149.7690 C   0  0  0  0  0  0  0  0  0  0  0  0
  160.1440  203.9750  151.3560 C   0  0  1  0  0  3  0  0  0  0  0  0
  162.5940  203.3010  151.7790 C   0  0  0  0  0  2  0  0  0  0  0  0
  162.7730  201.9340  151.1360 C   0  0  0  0  0  2  0  0  0  0  0  0
  160.9170  202.2250  148.8820 C   0  0  0  0  0  2  0  0  0  0  0  0
  162.0520  208.3520  152.9910 C   0  0  2  0  0  3  0  0  0  0  0  0
  159.6930  209.3280  155.0280 C   0  0  0  0  0  2  0  0  0  0  0  0
  159.8840  205.2050  152.2320 C   0  0  0  0  0  2  0  0  0  0  0  0
  160.1450  203.5330  148.8860 C   0  0  0  0  0  2  0  0  0  0  0  0
  160.8560  207.3810  153.1010 C   0  0  1  0  0  3  0  0  0  0  0  0
  162.5160  210.7310  152.7090 C   0  0  0  0  0  2  0  0  0  0  0  0
  160.5610  204.3670  150.0050 N   0  0  0  0  0  0  0  0  0  0  0  0
  160.5210  201.3520  150.0710 C   0  0  0  0  0  2  0  0  0  0  0  0
  160.3740  210.1180  153.8940 C   0  0  1  0  0  3  0  0  0  0  0  0
  161.5040  206.4890  150.8260 C   0  0  0  0  0  0  0  0  0  0  0  0
  161.1240  202.9950  152.0340 C   0  0  2  0  0  3  0  0  0  0  0  0
  161.1040  206.1330  152.2400 C   0  0  2  0  0  3  0  0  0  0  0  0
  162.3180  207.1000  148.2660 C   0  0  0  0  0  3  0  0  0  0  0  0
  160.5050  208.1380  155.5460 C   0  0  0  0  0  2  0  0  0  0  0  0
  161.6860  205.9230  148.5130 N   0  0  0  0  0  0  0  0  0  0  0  0
  160.5700  206.9730  154.5550 C   0  0  0  0  0  2  0  0  0  0  0  0
  161.8480  209.7290  153.6460 C   0  0  1  0  0  3  0  0  0  0  0  0
  162.5470  207.9780  149.2770 N   0  0  0  0  0  0  0  0  0  0  0  0
  162.3690  208.6420  151.6020 N   0  0  0  0  0  0  0  0  0  0  0  0
  159.6150  210.0150  152.7230 O   0  0  0  0  0  0  0  0  0  0  0  0
  158.5440  210.8950  152.9000 C   0  0  0  0  0  2  0  0  0  0  0  0
  160.0090  213.7520  151.0530 O   0  0  0  0  0  0  0  0  0  0  0  0
  158.4780  213.3660  152.8080 C   0  0  0  0  0  3  0  0  0  0  0  0
  158.9050  212.2290  152.3480 C   0  0  0  0  0  0  0  0  0  0  0  0
  159.1590  214.4070  151.9820 C   0  0  0  0  0  3  0  0  0  0  0  0
  159.8300  212.4290  151.3110 N   0  0  0  0  0  0  0  0  0  0  0  0
  1 18  1  0  0  0  0
  1 27  1  0  0  0  0
  2 27  1  0  0  0  0
  2 14  1  0  0  0  0
  3 16  1  6  0  0  0
  3 19  1  0  0  0  0
  4 15  1  0  0  0  0
  4 18  2  0  0  0  0
  5 19  1  0  0  0  0
  5 11  1  1  0  0  0
  7  3  1  0  0  0  0
  7  6  1  0  0  0  0
  8 12  1  0  0  0  0
  8 16  1  0  0  0  0
  9 27  1  6  0  0  0
  9 13  1  0  0  0  0
  9 25  1  0  0  0  0
 10 22  1  0  0  0  0
 12 15  1  0  0  0  0
 13 24  1  1  0  0  0
 15  5  1  0  0  0  0
 17 28  1  6  0  0  0
 17 10  1  0  0  0  0
 18 20  1  0  0  0  0
 19  6  1  6  0  0  0
 20 11  1  6  0  0  0
 20 13  1  0  0  0  0
 21 23  2  0  0  0  0
 21 26  1  0  0  0  0
 23  4  1  0  0  0  0
 24 22  1  0  0  0  0
 25 14  1  6  0  0  0
 25 17  1  0  0  0  0
 26  1  2  0  0  0  0
 28 29  1  0  0  0  0
 30 34  1  0  0  0  0
 30 33  1  0  0  0  0
 32 31  1  0  0  0  0
 32 29  1  0  0  0  0
 33 31  2  0  0  0  0
 34 32  2  0  0  0  0
M  END
>  <MODEL>
3

>  <REMARK>
 VINA RESULT:      -2.7      2.811      8.036
  Name = 
  3 active torsions:
  status: ('A' for Active; 'I' for Inactive)
    1  A    between atoms: C_17  and  O_28
    2  A    between atoms: O_28  and  C_29
    3  A    between atoms: C_29  and  C_32
                            x       y       z     vdW  Elec       q    Type
                         _______ _______ _______ _____ _____    ______ ____

>  <TORSDO>
F 3

$$$$
