=
 OpenBabel11122414303D

 34 40  0  0  1  0  0  0  0  0999 V2000
  161.8490  207.9640  150.2070 C   0  0  0  0  0  0  0  0  0  0  0  0
  161.4110  206.4140  148.3880 N   0  0  0  0  0  2  0  0  0  0  0  0
  158.8220  209.8790  154.7870 C   0  0  0  0  0  2  0  0  0  0  0  0
  161.8180  209.4590  152.1410 C   0  0  0  0  0  0  0  0  0  0  0  0
  161.4990  208.4960  154.3960 C   0  0  0  0  0  0  0  0  0  0  0  0
  159.9670  208.2510  156.3530 C   0  0  0  0  0  2  0  0  0  0  0  0
  158.9530  209.3900  156.2290 C   0  0  0  0  0  2  0  0  0  0  0  0
  160.8290  211.4030  155.1380 C   0  0  0  0  0  2  0  0  0  0  0  0
  161.8260  205.5090  150.5280 C   0  0  1  0  0  3  0  0  0  0  0  0
  161.3230  202.7010  151.3130 C   0  0  0  0  0  2  0  0  0  0  0  0
  161.3740  207.3240  153.8500 N   0  0  0  0  0  0  0  0  0  0  0  0
  161.9060  210.9980  154.1280 C   0  0  0  0  0  2  0  0  0  0  0  0
  161.3540  205.7740  151.8960 N   0  0  2  0  0  0  0  0  0  0  0  0
  160.9840  205.0790  148.3080 N   0  0  0  0  0  2  0  0  0  0  0  0
  161.7170  209.6540  153.5650 N   0  0  0  0  0  0  0  0  0  0  0  0
  159.4020  211.2830  154.6080 C   0  0  0  0  0  2  0  0  0  0  0  0
  161.1310  203.1500  149.8560 C   0  0  2  0  0  3  0  0  0  0  0  0
  161.7530  208.1540  151.6070 C   0  0  0  0  0  0  0  0  0  0  0  0
  161.2550  208.6430  155.7960 N   0  0  0  0  0  2  0  0  0  0  0  0
  161.5150  207.1070  152.4340 C   0  0  1  0  0  3  0  0  0  0  0  0
  161.9740  210.3650  149.8890 C   0  0  0  0  0  3  0  0  0  0  0  0
  160.4600  203.4800  152.3020 C   0  0  0  0  0  2  0  0  0  0  0  0
  161.9300  210.5550  151.2710 C   0  0  0  0  0  3  0  0  0  0  0  0
  161.2490  204.6660  152.8500 C   0  0  0  0  0  2  0  0  0  0  0  0
  160.8620  204.6490  149.7110 C   0  0  1  0  0  3  0  0  0  0  0  0
  161.9270  209.0760  149.3590 C   0  0  0  0  0  3  0  0  0  0  0  0
  161.8210  206.7260  149.7010 C   0  0  2  0  0  3  0  0  0  0  0  0
  159.9940  202.3650  149.2200 C   0  0  0  0  0  2  0  0  0  0  0  0
  160.4550  201.0420  148.8320 N   0  0  0  0  0  2  0  0  0  0  0  0
  160.9230  200.0120  145.7090 O   0  0  0  0  0  0  0  0  0  0  0  0
  160.5810  202.0060  146.6330 C   0  0  0  0  0  3  0  0  0  0  0  0
  161.3060  201.2090  147.6660 C   0  0  2  0  0  3  0  0  0  0  0  0
  160.3940  201.2770  145.5500 C   0  0  0  0  0  3  0  0  0  0  0  0
  161.5190  199.8580  146.9840 C   0  0  0  0  0  2  0  0  0  0  0  0
  1 18  1  0  0  0  0
  2 27  1  0  0  0  0
  3  7  1  0  0  0  0
  4 15  1  0  0  0  0
  5 19  1  0  0  0  0
  7  6  1  0  0  0  0
  9 13  1  0  0  0  0
 10 22  1  0  0  0  0
 11  5  2  0  0  0  0
 12  8  1  0  0  0  0
 13 20  1  0  0  0  0
 13 24  1  0  0  0  0
 14  2  1  0  0  0  0
 14 25  1  0  0  0  0
 15 12  1  0  0  0  0
 15  5  1  0  0  0  0
 16  3  1  0  0  0  0
 16  8  1  0  0  0  0
 17 10  1  0  0  0  0
 18  4  2  0  0  0  0
 18 20  1  0  0  0  0
 19  6  1  0  0  0  0
 20 11  1  0  0  0  0
 21 23  2  0  0  0  0
 22 24  1  0  0  0  0
 23  4  1  0  0  0  0
 25 17  1  0  0  0  0
 25  9  1  0  0  0  0
 26 21  1  0  0  0  0
 26  1  2  0  0  0  0
 27  1  1  0  0  0  0
 27  9  1  0  0  0  0
 28 17  1  0  0  0  0
 29 28  1  0  0  0  0
 30 34  1  0  0  0  0
 31 32  1  0  0  0  0
 32 29  1  0  0  0  0
 33 30  1  0  0  0  0
 33 31  2  0  0  0  0
 34 32  1  0  0  0  0
M  END
>  <MODEL>
1

>  <REMARK>
 VINA RESULT:      -8.1      0.000      0.000
  Name = 
  3 active torsions:
  status: ('A' for Active; 'I' for Inactive)
    1  A    between atoms: C_17  and  C_28
    2  A    between atoms: C_28  and  N_29
    3  A    between atoms: N_29  and  C_32
                            x       y       z     vdW  Elec       q    Type
                         _______ _______ _______ _____ _____    ______ ____

>  <TORSDO>
F 3

$$$$
=
 OpenBabel11122414303D

 34 40  0  0  1  0  0  0  0  0999 V2000
  160.9550  211.4280  151.1210 C   0  0  0  0  0  0  0  0  0  0  0  0
  161.7750  209.7370  149.5820 N   0  0  0  0  0  2  0  0  0  0  0  0
  156.1090  212.1150  154.2600 C   0  0  0  0  0  2  0  0  0  0  0  0
  159.7130  212.8750  152.6520 C   0  0  0  0  0  0  0  0  0  0  0  0
  159.0820  212.0020  154.8790 C   0  0  0  0  0  0  0  0  0  0  0  0
  157.2210  211.2360  156.3580 C   0  0  0  0  0  2  0  0  0  0  0  0
  155.9430  211.8160  155.7500 C   0  0  0  0  0  2  0  0  0  0  0  0
  157.1260  214.3750  154.8430 C   0  0  0  0  0  2  0  0  0  0  0  0
  161.7900  209.2270  151.8870 C   0  0  1  0  0  3  0  0  0  0  0  0
  162.2000  206.5280  153.0270 C   0  0  0  0  0  2  0  0  0  0  0  0
  159.6100  210.8610  154.5530 N   0  0  0  0  0  0  0  0  0  0  0  0
  158.5410  214.4150  154.2580 C   0  0  0  0  0  2  0  0  0  0  0  0
  160.8350  209.3420  152.9990 N   0  0  2  0  0  0  0  0  0  0  0  0
  161.9560  208.3460  149.6460 N   0  0  0  0  0  2  0  0  0  0  0  0
  159.0860  213.0900  153.9320 N   0  0  0  0  0  0  0  0  0  0  0  0
  156.1170  213.6200  153.9800 C   0  0  0  0  0  2  0  0  0  0  0  0
  162.3330  206.7640  151.5150 C   0  0  2  0  0  3  0  0  0  0  0  0
  160.3420  211.6400  152.3800 C   0  0  0  0  0  0  0  0  0  0  0  0
  158.3580  212.1110  156.1060 N   0  0  0  0  0  2  0  0  0  0  0  0
  160.2770  210.6430  153.2960 C   0  0  1  0  0  3  0  0  0  0  0  0
  160.2260  213.6250  150.3960 C   0  0  0  0  0  3  0  0  0  0  0  0
  160.8310  206.9160  153.5800 C   0  0  0  0  0  2  0  0  0  0  0  0
  159.6640  213.8580  151.6520 C   0  0  0  0  0  3  0  0  0  0  0  0
  160.8670  208.3550  154.0830 C   0  0  0  0  0  2  0  0  0  0  0  0
  161.5630  207.9890  151.0200 C   0  0  1  0  0  3  0  0  0  0  0  0
  160.8620  212.4130  150.1290 C   0  0  0  0  0  3  0  0  0  0  0  0
  161.5790  210.2710  150.8720 C   0  0  2  0  0  3  0  0  0  0  0  0
  161.8680  205.5300  150.7570 C   0  0  0  0  0  2  0  0  0  0  0  0
  161.9120  204.3640  151.6260 N   0  0  0  0  0  2  0  0  0  0  0  0
  160.7080  202.4410  149.1990 O   0  0  0  0  0  0  0  0  0  0  0  0
  161.2060  202.0840  151.3360 C   0  0  0  0  0  3  0  0  0  0  0  0
  160.7900  203.5150  151.2600 C   0  0  2  0  0  3  0  0  0  0  0  0
  161.1390  201.5290  150.1410 C   0  0  0  0  0  3  0  0  0  0  0  0
  160.4560  203.7070  149.7820 C   0  0  0  0  0  2  0  0  0  0  0  0
  1 18  1  0  0  0  0
  2 14  1  0  0  0  0
  2 27  1  0  0  0  0
  3  7  1  0  0  0  0
  4 15  1  0  0  0  0
  5 19  1  0  0  0  0
  7  6  1  0  0  0  0
  9 13  1  0  0  0  0
 10 22  1  0  0  0  0
 11  5  2  0  0  0  0
 12  8  1  0  0  0  0
 13 20  1  0  0  0  0
 13 24  1  0  0  0  0
 14 25  1  0  0  0  0
 15 12  1  0  0  0  0
 15  5  1  0  0  0  0
 16  3  1  0  0  0  0
 16  8  1  0  0  0  0
 17 10  1  0  0  0  0
 18  4  2  0  0  0  0
 18 20  1  0  0  0  0
 19  6  1  0  0  0  0
 20 11  1  0  0  0  0
 21 23  2  0  0  0  0
 22 24  1  0  0  0  0
 23  4  1  0  0  0  0
 25 17  1  0  0  0  0
 25  9  1  0  0  0  0
 26 21  1  0  0  0  0
 26  1  2  0  0  0  0
 27  1  1  0  0  0  0
 27  9  1  0  0  0  0
 28 17  1  0  0  0  0
 28 29  1  0  0  0  0
 30 34  1  0  0  0  0
 30 33  1  0  0  0  0
 32 31  1  0  0  0  0
 32 29  1  0  0  0  0
 33 31  2  0  0  0  0
 34 32  1  0  0  0  0
M  END
>  <MODEL>
2

>  <REMARK>
 VINA RESULT:      -7.0      2.549      4.102
  Name = 
  3 active torsions:
  status: ('A' for Active; 'I' for Inactive)
    1  A    between atoms: C_17  and  C_28
    2  A    between atoms: C_28  and  N_29
    3  A    between atoms: N_29  and  C_32
                            x       y       z     vdW  Elec       q    Type
                         _______ _______ _______ _____ _____    ______ ____

>  <TORSDO>
F 3

$$$$
=
 OpenBabel11122414303D

 34 40  0  0  1  0  0  0  0  0999 V2000
  161.1430  204.7840  150.7590 C   0  0  0  0  0  0  0  0  0  0  0  0
  160.5860  206.2970  152.5770 N   0  0  0  0  0  2  0  0  0  0  0  0
  159.4220  204.1950  145.2360 C   0  0  0  0  0  2  0  0  0  0  0  0
  161.3340  203.4810  148.6990 C   0  0  0  0  0  0  0  0  0  0  0  0
  162.0890  204.6100  146.6320 C   0  0  0  0  0  0  0  0  0  0  0  0
  161.4480  205.4390  144.3650 C   0  0  0  0  0  2  0  0  0  0  0  0
  160.1680  204.6880  143.9970 C   0  0  0  0  0  2  0  0  0  0  0  0
  160.8960  202.1200  145.2790 C   0  0  0  0  0  2  0  0  0  0  0  0
  161.9430  207.1260  150.8320 C   0  0  1  0  0  3  0  0  0  0  0  0
  162.5720  209.9810  150.3780 C   0  0  0  0  0  2  0  0  0  0  0  0
  162.1320  205.7290  147.2900 N   0  0  0  0  0  0  0  0  0  0  0  0
  161.6370  202.1010  146.6190 C   0  0  0  0  0  2  0  0  0  0  0  0
  161.9050  207.0990  149.3620 N   0  0  2  0  0  0  0  0  0  0  0  0
  160.5640  207.6930  152.7290 N   0  0  0  0  0  2  0  0  0  0  0  0
  161.6670  203.4020  147.3000 N   0  0  0  0  0  0  0  0  0  0  0  0
  159.4730  202.6710  145.3630 C   0  0  0  0  0  2  0  0  0  0  0  0
  161.7780  209.5460  151.6190 C   0  0  2  0  0  3  0  0  0  0  0  0
  161.4740  204.7080  149.3840 C   0  0  0  0  0  0  0  0  0  0  0  0
  162.3000  204.6220  145.2190 N   0  0  0  0  0  2  0  0  0  0  0  0
  161.8430  205.8160  148.6970 C   0  0  1  0  0  3  0  0  0  0  0  0
  160.4500  202.4600  150.7220 C   0  0  0  0  0  3  0  0  0  0  0  0
  161.9080  209.5770  149.0650 C   0  0  0  0  0  2  0  0  0  0  0  0
  160.8220  202.3650  149.3810 C   0  0  0  0  0  3  0  0  0  0  0  0
  162.4540  208.2280  148.6050 C   0  0  0  0  0  2  0  0  0  0  0  0
  161.0540  208.2100  151.4410 C   0  0  1  0  0  3  0  0  0  0  0  0
  160.6030  203.6650  151.4070 C   0  0  0  0  0  3  0  0  0  0  0  0
  161.3060  205.9370  151.4190 C   0  0  2  0  0  3  0  0  0  0  0  0
  160.7730  210.6230  151.9940 C   0  0  0  0  0  2  0  0  0  0  0  0
  161.0320  211.1010  153.3430 N   0  0  0  0  0  2  0  0  0  0  0  0
  158.7270  213.2050  154.4830 O   0  0  0  0  0  0  0  0  0  0  0  0
  158.6810  211.5080  153.0460 C   0  0  0  0  0  3  0  0  0  0  0  0
  159.7510  211.1670  154.0270 C   0  0  2  0  0  3  0  0  0  0  0  0
  158.1380  212.6710  153.3540 C   0  0  0  0  0  3  0  0  0  0  0  0
  159.7400  212.3540  154.9890 C   0  0  0  0  0  2  0  0  0  0  0  0
  1 26  1  0  0  0  0
  1 27  1  0  0  0  0
  2 14  1  0  0  0  0
  3 16  1  0  0  0  0
  4 23  2  0  0  0  0
  4 18  1  0  0  0  0
  5 11  2  0  0  0  0
  5 15  1  0  0  0  0
  6 19  1  0  0  0  0
  7  6  1  0  0  0  0
  7  3  1  0  0  0  0
  8 16  1  0  0  0  0
  8 12  1  0  0  0  0
  9 27  1  0  0  0  0
  9 25  1  0  0  0  0
 10 17  1  0  0  0  0
 11 20  1  0  0  0  0
 12 15  1  0  0  0  0
 13  9  1  0  0  0  0
 15  4  1  0  0  0  0
 17 28  1  0  0  0  0
 18  1  2  0  0  0  0
 19  5  1  0  0  0  0
 20 13  1  0  0  0  0
 20 18  1  0  0  0  0
 21 26  2  0  0  0  0
 22 10  1  0  0  0  0
 23 21  1  0  0  0  0
 24 22  1  0  0  0  0
 24 13  1  0  0  0  0
 25 17  1  0  0  0  0
 25 14  1  0  0  0  0
 27  2  1  0  0  0  0
 28 29  1  0  0  0  0
 29 32  1  0  0  0  0
 30 34  1  0  0  0  0
 31 33  2  0  0  0  0
 31 32  1  0  0  0  0
 32 34  1  0  0  0  0
 33 30  1  0  0  0  0
M  END
>  <MODEL>
3

>  <REMARK>
 VINA RESULT:      -6.7      3.257      9.284
  Name = 
  3 active torsions:
  status: ('A' for Active; 'I' for Inactive)
    1  A    between atoms: C_17  and  C_28
    2  A    between atoms: C_28  and  N_29
    3  A    between atoms: N_29  and  C_32
                            x       y       z     vdW  Elec       q    Type
                         _______ _______ _______ _____ _____    ______ ____

>  <TORSDO>
F 3

$$$$
=
 OpenBabel11122414303D

 34 40  0  0  1  0  0  0  0  0999 V2000
  160.9200  212.0980  150.5570 C   0  0  0  0  0  0  0  0  0  0  0  0
  161.7120  210.7110  148.7260 N   0  0  0  0  0  2  0  0  0  0  0  0
  156.2220  212.0840  153.9820 C   0  0  0  0  0  2  0  0  0  0  0  0
  159.7150  213.2300  152.3580 C   0  0  0  0  0  0  0  0  0  0  0  0
  159.2250  211.9860  154.4390 C   0  0  0  0  0  0  0  0  0  0  0  0
  157.4660  210.9200  155.8560 C   0  0  0  0  0  2  0  0  0  0  0  0
  156.1420  211.5410  155.4090 C   0  0  0  0  0  2  0  0  0  0  0  0
  157.1990  214.2560  154.8790 C   0  0  0  0  0  2  0  0  0  0  0  0
  161.8600  209.8360  150.9140 C   0  0  1  0  0  3  0  0  0  0  0  0
  162.4090  207.0060  151.5790 C   0  0  0  0  0  2  0  0  0  0  0  0
  159.7700  210.9330  153.9070 N   0  0  0  0  0  0  0  0  0  0  0  0
  158.5800  214.4440  154.2450 C   0  0  0  0  0  2  0  0  0  0  0  0
  160.9600  209.7330  152.0730 N   0  0  2  0  0  0  0  0  0  0  0  0
  161.9380  209.3360  148.5540 N   0  0  0  0  0  2  0  0  0  0  0  0
  159.1480  213.2120  153.6820 N   0  0  0  0  0  0  0  0  0  0  0  0
  156.1700  213.6120  153.9510 C   0  0  0  0  0  2  0  0  0  0  0  0
  162.4580  207.4880  150.1210 C   0  0  2  0  0  3  0  0  0  0  0  0
  160.3660  212.0800  151.8600 C   0  0  0  0  0  0  0  0  0  0  0  0
  158.5620  211.8670  155.6980 N   0  0  0  0  0  2  0  0  0  0  0  0
  160.3780  210.9470  152.6030 C   0  0  1  0  0  3  0  0  0  0  0  0
  160.0890  214.3540  150.2340 C   0  0  0  0  0  3  0  0  0  0  0  0
  161.0590  207.2470  152.2490 C   0  0  0  0  0  2  0  0  0  0  0  0
  159.5850  214.3600  151.5350 C   0  0  0  0  0  3  0  0  0  0  0  0
  161.0770  208.5870  152.9780 C   0  0  0  0  0  2  0  0  0  0  0  0
  161.6260  208.7470  149.8680 C   0  0  1  0  0  3  0  0  0  0  0  0
  160.7470  213.2260  149.7440 C   0  0  0  0  0  3  0  0  0  0  0  0
  161.5660  211.0220  150.0940 C   0  0  2  0  0  3  0  0  0  0  0  0
  161.9930  206.3750  149.1940 C   0  0  0  0  0  2  0  0  0  0  0  0
  162.5300  206.5810  147.8580 N   0  0  0  0  0  2  0  0  0  0  0  0
  162.3440  204.2840  145.4650 O   0  0  0  0  0  0  0  0  0  0  0  0
  161.2980  204.5660  147.4080 C   0  0  0  0  0  3  0  0  0  0  0  0
  161.6170  205.9420  146.9260 C   0  0  2  0  0  3  0  0  0  0  0  0
  161.7330  203.6710  146.5410 C   0  0  0  0  0  3  0  0  0  0  0  0
  162.3260  205.6940  145.5950 C   0  0  0  0  0  2  0  0  0  0  0  0
  1 18  1  0  0  0  0
  2 27  1  0  0  0  0
  3  7  1  0  0  0  0
  4 15  1  0  0  0  0
  5 19  1  0  0  0  0
  7  6  1  0  0  0  0
  9 13  1  0  0  0  0
 10 22  1  0  0  0  0
 11  5  2  0  0  0  0
 12  8  1  0  0  0  0
 13 20  1  0  0  0  0
 13 24  1  0  0  0  0
 14  2  1  0  0  0  0
 14 25  1  0  0  0  0
 15 12  1  0  0  0  0
 15  5  1  0  0  0  0
 16  3  1  0  0  0  0
 16  8  1  0  0  0  0
 17 10  1  0  0  0  0
 18  4  2  0  0  0  0
 18 20  1  0  0  0  0
 19  6  1  0  0  0  0
 20 11  1  0  0  0  0
 21 23  2  0  0  0  0
 22 24  1  0  0  0  0
 23  4  1  0  0  0  0
 25 17  1  0  0  0  0
 25  9  1  0  0  0  0
 26 21  1  0  0  0  0
 26  1  2  0  0  0  0
 27  1  1  0  0  0  0
 27  9  1  0  0  0  0
 28 17  1  0  0  0  0
 29 28  1  0  0  0  0
 30 34  1  0  0  0  0
 30 33  1  0  0  0  0
 32 31  1  0  0  0  0
 32 29  1  0  0  0  0
 33 31  2  0  0  0  0
 34 32  1  0  0  0  0
M  END
>  <MODEL>
4

>  <REMARK>
 VINA RESULT:      -6.7      2.838      4.303
  Name = 
  3 active torsions:
  status: ('A' for Active; 'I' for Inactive)
    1  A    between atoms: C_17  and  C_28
    2  A    between atoms: C_28  and  N_29
    3  A    between atoms: N_29  and  C_32
                            x       y       z     vdW  Elec       q    Type
                         _______ _______ _______ _____ _____    ______ ____

>  <TORSDO>
F 3

$$$$
=
 OpenBabel11122414303D

 34 40  0  0  1  0  0  0  0  0999 V2000
  160.0690  208.9420  154.8220 C   0  0  0  0  0  0  0  0  0  0  0  0
  158.5860  210.5910  155.8130 N   0  0  0  0  0  2  0  0  0  0  0  0
  160.1250  205.9350  149.8450 C   0  0  0  0  0  2  0  0  0  0  0  0
  161.2120  207.2410  153.4880 C   0  0  0  0  0  0  0  0  0  0  0  0
  162.0400  207.8410  151.2350 C   0  0  0  0  0  0  0  0  0  0  0  0
  161.7570  207.5460  148.7720 C   0  0  0  0  0  2  0  0  0  0  0  0
  160.9490  206.2590  148.5990 C   0  0  0  0  0  2  0  0  0  0  0  0
  162.1530  204.7900  150.8710 C   0  0  0  0  0  2  0  0  0  0  0  0
  159.9780  211.2880  154.0380 C   0  0  1  0  0  3  0  0  0  0  0  0
  159.6910  213.8300  152.5510 C   0  0  0  0  0  2  0  0  0  0  0  0
  161.5300  209.0250  151.3920 N   0  0  0  0  0  0  0  0  0  0  0  0
  162.4880  205.5150  152.1770 C   0  0  0  0  0  2  0  0  0  0  0  0
  160.3290  210.7720  152.7060 N   0  0  2  0  0  0  0  0  0  0  0  0
  158.0520  211.8190  155.3920 N   0  0  0  0  0  2  0  0  0  0  0  0
  161.8980  206.8560  152.2800 N   0  0  0  0  0  0  0  0  0  0  0  0
  160.6570  204.7000  150.5750 C   0  0  0  0  0  2  0  0  0  0  0  0
  158.8040  213.5360  153.7700 C   0  0  2  0  0  3  0  0  0  0  0  0
  160.7470  208.5660  153.6360 C   0  0  0  0  0  0  0  0  0  0  0  0
  162.5880  207.4790  149.9670 N   0  0  0  0  0  2  0  0  0  0  0  0
  160.8790  209.4380  152.6070 C   0  0  1  0  0  3  0  0  0  0  0  0
  160.2430  206.6660  155.6430 C   0  0  0  0  0  3  0  0  0  0  0  0
  159.5640  212.7850  151.4460 C   0  0  0  0  0  2  0  0  0  0  0  0
  160.9550  206.3020  154.4990 C   0  0  0  0  0  3  0  0  0  0  0  0
  160.6340  211.7130  151.6250 C   0  0  0  0  0  2  0  0  0  0  0  0
  158.6490  212.0420  154.0640 C   0  0  1  0  0  3  0  0  0  0  0  0
  159.7960  207.9770  155.8010 C   0  0  0  0  0  3  0  0  0  0  0  0
  159.6560  210.2040  154.9790 C   0  0  2  0  0  3  0  0  0  0  0  0
  157.4320  214.1610  153.5730 C   0  0  0  0  0  2  0  0  0  0  0  0
  156.7080  213.4570  152.5260 N   0  0  0  0  0  2  0  0  0  0  0  0
  155.6680  213.8080  149.3910 O   0  0  0  0  0  0  0  0  0  0  0  0
  154.8500  214.4410  151.3590 C   0  0  0  0  0  3  0  0  0  0  0  0
  156.3330  214.4430  151.5270 C   0  0  2  0  0  3  0  0  0  0  0  0
  154.5340  214.0740  150.1320 C   0  0  0  0  0  3  0  0  0  0  0  0
  156.8440  214.0090  150.1540 C   0  0  0  0  0  2  0  0  0  0  0  0
  1 27  1  0  0  0  0
  1 26  1  0  0  0  0
  3 16  1  0  0  0  0
  4 18  1  0  0  0  0
  4 23  2  0  0  0  0
  5 11  2  0  0  0  0
  5 15  1  0  0  0  0
  6 19  1  0  0  0  0
  7  6  1  0  0  0  0
  7  3  1  0  0  0  0
  8 12  1  0  0  0  0
  9 25  1  0  0  0  0
  9 27  1  0  0  0  0
 10 17  1  0  0  0  0
 11 20  1  0  0  0  0
 12 15  1  0  0  0  0
 13  9  1  0  0  0  0
 14  2  1  0  0  0  0
 15  4  1  0  0  0  0
 16  8  1  0  0  0  0
 17 25  1  0  0  0  0
 18  1  2  0  0  0  0
 19  5  1  0  0  0  0
 20 13  1  0  0  0  0
 20 18  1  0  0  0  0
 21 26  2  0  0  0  0
 22 24  1  0  0  0  0
 22 10  1  0  0  0  0
 23 21  1  0  0  0  0
 24 13  1  0  0  0  0
 25 14  1  0  0  0  0
 27  2  1  0  0  0  0
 28 17  1  0  0  0  0
 29 28  1  0  0  0  0
 30 33  1  0  0  0  0
 30 34  1  0  0  0  0
 31 32  1  0  0  0  0
 32 29  1  0  0  0  0
 33 31  2  0  0  0  0
 34 32  1  0  0  0  0
M  END
>  <MODEL>
5

>  <REMARK>
 VINA RESULT:      -6.7      4.009      9.082
  Name = 
  3 active torsions:
  status: ('A' for Active; 'I' for Inactive)
    1  A    between atoms: C_17  and  C_28
    2  A    between atoms: C_28  and  N_29
    3  A    between atoms: N_29  and  C_32
                            x       y       z     vdW  Elec       q    Type
                         _______ _______ _______ _____ _____    ______ ____

>  <TORSDO>
F 3

$$$$
=
 OpenBabel11122414303D

 34 40  0  0  1  0  0  0  0  0999 V2000
  161.8210  209.7970  149.5510 C   0  0  0  0  0  0  0  0  0  0  0  0
  162.1520  207.6190  148.5260 N   0  0  0  0  0  2  0  0  0  0  0  0
  157.3880  212.4440  152.2240 C   0  0  0  0  0  2  0  0  0  0  0  0
  161.0220  211.8490  150.6130 C   0  0  0  0  0  0  0  0  0  0  0  0
  160.2550  211.7610  152.9640 C   0  0  0  0  0  0  0  0  0  0  0  0
  158.3050  211.8850  154.5180 C   0  0  0  0  0  2  0  0  0  0  0  0
  157.1950  212.5870  153.7340 C   0  0  0  0  0  2  0  0  0  0  0  0
  158.9520  214.4520  152.2490 C   0  0  0  0  0  2  0  0  0  0  0  0
  162.1030  207.7300  150.8830 C   0  0  1  0  0  3  0  0  0  0  0  0
  161.8600  205.4000  152.6900 C   0  0  0  0  0  2  0  0  0  0  0  0
  160.4740  210.4800  152.9600 N   0  0  0  0  0  0  0  0  0  0  0  0
  160.3150  213.9890  151.7270 C   0  0  0  0  0  2  0  0  0  0  0  0
  161.2390  208.3590  151.8930 N   0  0  2  0  0  0  0  0  0  0  0  0
  161.9820  206.2910  148.9500 N   0  0  0  0  0  2  0  0  0  0  0  0
  160.5040  212.5330  151.7710 N   0  0  0  0  0  0  0  0  0  0  0  0
  157.7630  213.7750  151.5700 C   0  0  0  0  0  2  0  0  0  0  0  0
  162.0060  205.1990  151.1740 C   0  0  2  0  0  3  0  0  0  0  0  0
  161.3160  210.4700  150.6900 C   0  0  0  0  0  0  0  0  0  0  0  0
  159.6160  212.3570  154.0940 N   0  0  0  0  0  2  0  0  0  0  0  0
  161.0300  209.7900  151.8260 C   0  0  1  0  0  3  0  0  0  0  0  0
  161.6420  211.8440  148.2620 C   0  0  0  0  0  3  0  0  0  0  0  0
  160.6470  206.2420  153.0730 C   0  0  0  0  0  2  0  0  0  0  0  0
  161.1910  212.5230  149.3940 C   0  0  0  0  0  3  0  0  0  0  0  0
  161.0540  207.7080  153.1930 C   0  0  0  0  0  2  0  0  0  0  0  0
  161.5510  206.4070  150.3540 C   0  0  1  0  0  3  0  0  0  0  0  0
  161.9490  210.4860  148.3370 C   0  0  0  0  0  3  0  0  0  0  0  0
  162.1310  208.4980  149.6290 C   0  0  2  0  0  3  0  0  0  0  0  0
  161.2280  203.9670  150.7390 C   0  0  0  0  0  2  0  0  0  0  0  0
  161.2930  203.8190  149.2940 N   0  0  0  0  0  2  0  0  0  0  0  0
  161.3360  200.8800  147.7460 O   0  0  0  0  0  0  0  0  0  0  0  0
  160.8260  201.5180  149.8140 C   0  0  0  0  0  3  0  0  0  0  0  0
  160.4680  202.6750  148.9430 C   0  0  2  0  0  3  0  0  0  0  0  0
  161.3110  200.5340  149.0820 C   0  0  0  0  0  3  0  0  0  0  0  0
  160.8310  202.1870  147.5410 C   0  0  0  0  0  2  0  0  0  0  0  0
  1 27  1  0  0  0  0
  1 18  1  0  0  0  0
  2 14  1  0  0  0  0
  2 27  1  0  0  0  0
  3  7  1  0  0  0  0
  4 18  2  0  0  0  0
  4 15  1  0  0  0  0
  5 19  1  0  0  0  0
  7  6  1  0  0  0  0
  9 13  1  0  0  0  0
 10 22  1  0  0  0  0
 11  5  2  0  0  0  0
 12 15  1  0  0  0  0
 12  8  1  0  0  0  0
 13 24  1  0  0  0  0
 14 25  1  0  0  0  0
 15  5  1  0  0  0  0
 16  3  1  0  0  0  0
 16  8  1  0  0  0  0
 17 10  1  0  0  0  0
 18 20  1  0  0  0  0
 19  6  1  0  0  0  0
 20 13  1  0  0  0  0
 20 11  1  0  0  0  0
 21 26  1  0  0  0  0
 21 23  2  0  0  0  0
 22 24  1  0  0  0  0
 23  4  1  0  0  0  0
 25  9  1  0  0  0  0
 25 17  1  0  0  0  0
 26  1  2  0  0  0  0
 27  9  1  0  0  0  0
 28 17  1  0  0  0  0
 29 28  1  0  0  0  0
 30 33  1  0  0  0  0
 32 29  1  0  0  0  0
 32 31  1  0  0  0  0
 33 31  2  0  0  0  0
 34 30  1  0  0  0  0
 34 32  1  0  0  0  0
M  END
>  <MODEL>
6

>  <REMARK>
 VINA RESULT:      -5.5      2.071      3.088
  Name = 
  3 active torsions:
  status: ('A' for Active; 'I' for Inactive)
    1  A    between atoms: C_17  and  C_28
    2  A    between atoms: C_28  and  N_29
    3  A    between atoms: N_29  and  C_32
                            x       y       z     vdW  Elec       q    Type
                         _______ _______ _______ _____ _____    ______ ____

>  <TORSDO>
F 3

$$$$
