=
 OpenBabel11122412583D

 32 37  0  0  1  0  0  0  0  0999 V2000
  161.1180  201.1650  150.0150 C   0  0  0  0  0  2  0  0  0  0  0  0
  161.1720  206.5700  151.9470 C   0  0  0  0  0  0  0  0  0  0  0  0
  162.0570  209.9060  148.4990 C   0  0  0  0  0  3  0  0  0  0  0  0
  162.1550  210.8960  149.4750 C   0  0  0  0  0  3  0  0  0  0  0  0
  161.1120  207.2950  154.3450 C   0  0  0  0  0  0  0  0  0  0  0  0
  161.2290  208.3550  155.2370 C   0  0  0  0  0  0  0  0  0  0  0  0
  161.3350  204.1840  151.3510 N   0  0  2  0  0  0  0  0  0  0  0  0
  161.3090  205.8360  149.5270 C   0  0  0  0  0  2  0  0  0  0  0  0
  161.5480  210.5070  155.9940 C   0  0  1  0  0  3  0  0  0  0  0  0
  161.2360  203.4610  148.9650 C   0  0  0  0  0  2  0  0  0  0  0  0
  161.7860  208.5870  148.8680 C   0  0  0  0  0  3  0  0  0  0  0  0
  161.3330  206.9100  150.5880 C   0  0  0  0  0  0  0  0  0  0  0  0
  161.6090  208.2400  150.2190 C   0  0  0  0  0  0  0  0  0  0  0  0
  161.5460  208.9210  152.5630 C   0  0  0  0  0  0  0  0  0  0  0  0
  161.2950  209.6330  157.1640 N   0  0  0  0  0  0  0  0  0  0  0  0
  161.6900  201.7640  151.3000 C   0  0  0  0  0  2  0  0  0  0  0  0
  160.7910  204.4820  150.0130 C   0  0  1  0  0  3  0  0  0  0  0  0
  161.1080  208.3350  156.6390 N   0  0  0  0  0  0  0  0  0  0  0  0
  160.8310  202.9010  151.8340 C   0  0  0  0  0  2  0  0  0  0  0  0
  160.4340  202.1720  149.0870 C   0  0  1  0  0  3  0  0  0  0  0  0
  161.9840  210.5680  150.8200 C   0  0  0  0  0  3  0  0  0  0  0  0
  161.7110  209.2460  151.2080 C   0  0  0  0  0  0  0  0  0  0  0  0
  161.6460  209.9060  153.5110 N   0  0  0  0  0  2  0  0  0  0  0  0
  160.7690  205.1580  152.2810 C   0  0  0  0  0  2  0  0  0  0  0  0
  160.8760  206.1390  154.7860 O   0  0  0  0  0  0  0  0  0  0  0  0
  162.8740  211.0880  156.1020 N   0  0  0  0  0  1  0  0  0  0  0  0
  161.2710  207.5690  152.9520 C   0  0  0  0  0  0  0  0  0  0  0  0
  161.4890  209.6030  154.8200 C   0  0  0  0  0  0  0  0  0  0  0  0
  160.2570  201.5680  147.7740 N   0  0  0  0  0  2  0  0  0  0  0  0
  160.7430  202.1750  146.5750 C   0  0  0  0  0  0  0  0  0  0  0  0
  161.3330  203.2880  146.6120 O   0  0  0  0  0  0  0  0  0  0  0  0
  160.5460  201.4900  145.2730 C   0  0  0  0  0  1  0  0  0  0  0  0
  1 16  1  0  0  0  0
  2 24  1  0  0  0  0
  2 27  1  0  0  0  0
  3 11  2  0  0  0  0
  3  4  1  0  0  0  0
  4 21  2  0  0  0  0
  5 25  2  0  0  0  0
  5  6  1  0  0  0  0
  6 18  1  0  0  0  0
  7 19  1  1  0  0  0
  7 24  1  0  0  0  0
  8 17  1  0  0  0  0
  8 12  1  0  0  0  0
  9 26  1  1  0  0  0
  9 15  1  0  0  0  0
 10 20  1  0  0  0  0
 11 13  1  0  0  0  0
 12  2  2  0  0  0  0
 13 12  1  0  0  0  0
 13 22  2  0  0  0  0
 14 27  2  0  0  0  0
 14 23  1  0  0  0  0
 16 19  1  0  0  0  0
 17 10  1  6  0  0  0
 17  7  1  0  0  0  0
 18 15  2  0  0  0  0
 20 29  1  6  0  0  0
 20  1  1  0  0  0  0
 21 22  1  0  0  0  0
 22 14  1  0  0  0  0
 23 28  1  0  0  0  0
 27  5  1  0  0  0  0
 28  6  2  0  0  0  0
 28  9  1  0  0  0  0
 30 31  2  0  0  0  0
 30 29  1  0  0  0  0
 32 30  1  0  0  0  0
M  END
>  <MODEL>
1

>  <REMARK>
 VINA RESULT:     -10.9      0.000      0.000
  Name = 
  1 active torsions:
  status: ('A' for Active; 'I' for Inactive)
    1  A    between atoms: C_20  and  N_29
                            x       y       z     vdW  Elec       q    Type
                         _______ _______ _______ _____ _____    ______ ____

>  <TORSDO>
F 1

$$$$
=
 OpenBabel11122412583D

 32 37  0  0  1  0  0  0  0  0999 V2000
  161.4920  201.1000  148.8440 C   0  0  0  0  0  2  0  0  0  0  0  0
  161.1400  206.2250  151.4050 C   0  0  0  0  0  0  0  0  0  0  0  0
  162.2470  209.9820  148.4960 C   0  0  0  0  0  3  0  0  0  0  0  0
  162.2060  210.8470  149.5890 C   0  0  0  0  0  3  0  0  0  0  0  0
  160.8050  206.6480  153.8520 C   0  0  0  0  0  0  0  0  0  0  0  0
  160.7890  207.5920  154.8720 C   0  0  0  0  0  0  0  0  0  0  0  0
  161.4550  203.9360  150.5490 N   0  0  2  0  0  0  0  0  0  0  0  0
  161.5530  205.7990  148.9430 C   0  0  0  0  0  2  0  0  0  0  0  0
  160.9450  209.6420  155.9110 C   0  0  1  0  0  3  0  0  0  0  0  0
  161.6310  203.5100  148.0960 C   0  0  0  0  0  2  0  0  0  0  0  0
  161.9900  208.6210  148.6730 C   0  0  0  0  0  3  0  0  0  0  0  0
  161.4270  206.7350  150.1220 C   0  0  0  0  0  0  0  0  0  0  0  0
  161.6890  208.1060  149.9460 C   0  0  0  0  0  0  0  0  0  0  0  0
  161.3570  208.4910  152.3340 C   0  0  0  0  0  0  0  0  0  0  0  0
  160.6070  208.6250  156.9340 N   0  0  0  0  0  0  0  0  0  0  0  0
  161.9060  201.5510  150.2460 C   0  0  0  0  0  2  0  0  0  0  0  0
  161.0410  204.3820  149.2050 C   0  0  1  0  0  3  0  0  0  0  0  0
  160.5250  207.3970  156.2400 N   0  0  0  0  0  0  0  0  0  0  0  0
  160.9530  202.5910  150.8180 C   0  0  0  0  0  2  0  0  0  0  0  0
  160.8700  202.1960  147.9760 C   0  0  1  0  0  3  0  0  0  0  0  0
  161.9090  210.3510  150.8590 C   0  0  0  0  0  3  0  0  0  0  0  0
  161.6490  208.9850  151.0540 C   0  0  0  0  0  0  0  0  0  0  0  0
  161.3210  209.3540  153.3990 N   0  0  0  0  0  2  0  0  0  0  0  0
  160.7590  204.7740  151.5220 C   0  0  0  0  0  2  0  0  0  0  0  0
  160.5700  205.4400  154.1240 O   0  0  0  0  0  0  0  0  0  0  0  0
  162.2300  210.2390  156.2290 N   0  0  0  0  0  1  0  0  0  0  0  0
  161.0960  207.0960  152.5270 C   0  0  0  0  0  0  0  0  0  0  0  0
  161.0420  208.8880  154.6380 C   0  0  0  0  0  0  0  0  0  0  0  0
  160.8530  201.7540  146.5890 N   0  0  0  0  0  2  0  0  0  0  0  0
  159.6410  201.4830  145.8820 C   0  0  0  0  0  0  0  0  0  0  0  0
  158.5240  201.5980  146.4540 O   0  0  0  0  0  0  0  0  0  0  0  0
  159.6990  201.0590  144.4600 C   0  0  0  0  0  1  0  0  0  0  0  0
  1 16  1  0  0  0  0
  2 24  1  0  0  0  0
  2 27  1  0  0  0  0
  3 11  2  0  0  0  0
  3  4  1  0  0  0  0
  4 21  2  0  0  0  0
  5 25  2  0  0  0  0
  5  6  1  0  0  0  0
  6 18  1  0  0  0  0
  7 19  1  1  0  0  0
  7 24  1  0  0  0  0
  8 17  1  0  0  0  0
  8 12  1  0  0  0  0
  9 26  1  1  0  0  0
  9 15  1  0  0  0  0
 11 13  1  0  0  0  0
 12  2  2  0  0  0  0
 13 12  1  0  0  0  0
 13 22  2  0  0  0  0
 14 27  2  0  0  0  0
 14 23  1  0  0  0  0
 16 19  1  0  0  0  0
 17 10  1  6  0  0  0
 17  7  1  0  0  0  0
 18 15  2  0  0  0  0
 20 29  1  6  0  0  0
 20 10  1  0  0  0  0
 20  1  1  0  0  0  0
 21 22  1  0  0  0  0
 22 14  1  0  0  0  0
 23 28  1  0  0  0  0
 27  5  1  0  0  0  0
 28  6  2  0  0  0  0
 28  9  1  0  0  0  0
 30 31  2  0  0  0  0
 30 29  1  0  0  0  0
 32 30  1  0  0  0  0
M  END
>  <MODEL>
2

>  <REMARK>
 VINA RESULT:      -9.4      1.018      1.059
  Name = 
  1 active torsions:
  status: ('A' for Active; 'I' for Inactive)
    1  A    between atoms: C_20  and  N_29
                            x       y       z     vdW  Elec       q    Type
                         _______ _______ _______ _____ _____    ______ ____

>  <TORSDO>
F 1

$$$$
=
 OpenBabel11122412583D

 32 37  0  0  1  0  0  0  0  0999 V2000
  160.1110  208.6200  157.0450 C   0  0  0  0  0  2  0  0  0  0  0  0
  161.1850  206.0880  152.0070 C   0  0  0  0  0  0  0  0  0  0  0  0
  161.9590  209.2080  148.3370 C   0  0  0  0  0  3  0  0  0  0  0  0
  161.9510  208.1500  147.4290 C   0  0  0  0  0  3  0  0  0  0  0  0
  160.9740  203.6440  151.4920 C   0  0  0  0  0  0  0  0  0  0  0  0
  160.9850  202.6640  150.5070 C   0  0  0  0  0  0  0  0  0  0  0  0
  160.4850  206.9850  154.1920 N   0  0  2  0  0  0  0  0  0  0  0  0
  161.3270  208.5660  152.5050 C   0  0  0  0  0  2  0  0  0  0  0  0
  161.1360  201.7170  148.4130 C   0  0  1  0  0  3  0  0  0  0  0  0
  160.8440  209.3910  154.7520 C   0  0  0  0  0  2  0  0  0  0  0  0
  161.7740  208.9600  149.6990 C   0  0  0  0  0  3  0  0  0  0  0  0
  161.3950  207.4030  151.5440 C   0  0  0  0  0  0  0  0  0  0  0  0
  161.5780  207.6510  150.1710 C   0  0  0  0  0  0  0  0  0  0  0  0
  161.3690  205.2650  149.6970 C   0  0  0  0  0  0  0  0  0  0  0  0
  160.9000  200.6360  149.3970 N   0  0  0  0  0  0  0  0  0  0  0  0
  159.4870  207.3860  156.3900 C   0  0  0  0  0  2  0  0  0  0  0  0
  161.3410  208.1670  153.9810 C   0  0  1  0  0  3  0  0  0  0  0  0
  160.8180  201.2740  150.6550 N   0  0  0  0  0  0  0  0  0  0  0  0
  160.5070  206.5820  155.5960 C   0  0  0  0  0  2  0  0  0  0  0  0
  161.2150  209.2910  156.2260 C   0  0  1  0  0  3  0  0  0  0  0  0
  161.7570  206.8450  147.8820 C   0  0  0  0  0  3  0  0  0  0  0  0
  161.5690  206.5790  149.2480 C   0  0  0  0  0  0  0  0  0  0  0  0
  161.3630  204.2350  148.7920 N   0  0  0  0  0  2  0  0  0  0  0  0
  161.1060  205.8630  153.4930 C   0  0  0  0  0  2  0  0  0  0  0  0
  160.7870  203.3120  152.6930 O   0  0  0  0  0  0  0  0  0  0  0  0
  160.0290  201.7650  147.4740 N   0  0  0  0  0  1  0  0  0  0  0  0
  161.1740  205.0000  151.0920 C   0  0  0  0  0  0  0  0  0  0  0  0
  161.1690  202.9650  149.2140 C   0  0  0  0  0  0  0  0  0  0  0  0
  161.4710  210.6180  156.7660 N   0  0  0  0  0  2  0  0  0  0  0  0
  160.5280  211.6870  156.6650 C   0  0  0  0  0  0  0  0  0  0  0  0
  159.4290  211.5190  156.0710 O   0  0  0  0  0  0  0  0  0  0  0  0
  160.8480  213.0090  157.2610 C   0  0  0  0  0  1  0  0  0  0  0  0
  2 24  1  0  0  0  0
  3 11  2  0  0  0  0
  4 21  2  0  0  0  0
  4  3  1  0  0  0  0
  5 25  2  0  0  0  0
  6 18  1  0  0  0  0
  6  5  1  0  0  0  0
  7 24  1  6  0  0  0
  7 19  1  0  0  0  0
  9 26  1  6  0  0  0
  9 28  1  0  0  0  0
  9 15  1  0  0  0  0
 10 20  1  0  0  0  0
 11 13  1  0  0  0  0
 12  2  1  0  0  0  0
 12  8  1  0  0  0  0
 13 12  2  0  0  0  0
 14 27  1  0  0  0  0
 15 18  2  0  0  0  0
 16  1  1  0  0  0  0
 17  8  1  6  0  0  0
 17  7  1  0  0  0  0
 17 10  1  0  0  0  0
 19 16  1  0  0  0  0
 20 29  1  1  0  0  0
 20  1  1  0  0  0  0
 21 22  1  0  0  0  0
 22 14  2  0  0  0  0
 22 13  1  0  0  0  0
 23 28  1  0  0  0  0
 23 14  1  0  0  0  0
 27  5  1  0  0  0  0
 27  2  2  0  0  0  0
 28  6  2  0  0  0  0
 30 29  1  0  0  0  0
 30 32  1  0  0  0  0
 31 30  2  0  0  0  0
M  END
>  <MODEL>
3

>  <REMARK>
 VINA RESULT:      -9.4      1.923      8.016
  Name = 
  1 active torsions:
  status: ('A' for Active; 'I' for Inactive)
    1  A    between atoms: C_20  and  N_29
                            x       y       z     vdW  Elec       q    Type
                         _______ _______ _______ _____ _____    ______ ____

>  <TORSDO>
F 1

$$$$
=
 OpenBabel11122412583D

 32 37  0  0  1  0  0  0  0  0999 V2000
  161.3360  214.1470  147.3430 C   0  0  0  0  0  2  0  0  0  0  0  0
  161.4270  209.8330  151.1280 C   0  0  0  0  0  0  0  0  0  0  0  0
  161.5000  205.4010  149.0900 C   0  0  0  0  0  3  0  0  0  0  0  0
  161.3160  204.8160  150.3430 C   0  0  0  0  0  3  0  0  0  0  0  0
  161.1140  210.0190  153.6070 C   0  0  0  0  0  0  0  0  0  0  0  0
  160.9340  209.3380  154.8060 C   0  0  0  0  0  0  0  0  0  0  0  0
  161.1560  211.7990  149.6680 N   0  0  2  0  0  0  0  0  0  0  0  0
  161.6690  209.6350  148.6150 C   0  0  0  0  0  2  0  0  0  0  0  0
  160.6810  207.5710  156.2610 C   0  0  1  0  0  3  0  0  0  0  0  0
  161.6230  211.6390  147.2210 C   0  0  0  0  0  2  0  0  0  0  0  0
  161.5760  206.7900  148.9730 C   0  0  0  0  0  3  0  0  0  0  0  0
  161.5490  209.0140  149.9870 C   0  0  0  0  0  0  0  0  0  0  0  0
  161.4690  207.6140  150.1070 C   0  0  0  0  0  0  0  0  0  0  0  0
  161.1650  207.8230  152.5210 C   0  0  0  0  0  0  0  0  0  0  0  0
  160.6330  208.8290  157.0420 N   0  0  0  0  0  0  0  0  0  0  0  0
  160.5950  213.9600  148.6680 C   0  0  0  0  0  2  0  0  0  0  0  0
  161.9610  211.1350  148.6260 C   0  0  1  0  0  3  0  0  0  0  0  0
  160.7940  209.8700  156.1010 N   0  0  0  0  0  0  0  0  0  0  0  0
  161.4430  213.2310  149.7000 C   0  0  0  0  0  2  0  0  0  0  0  0
  162.2670  212.9950  146.9610 C   0  0  1  0  0  3  0  0  0  0  0  0
  161.2080  205.6200  151.4780 C   0  0  0  0  0  3  0  0  0  0  0  0
  161.2820  207.0200  151.3760 C   0  0  0  0  0  0  0  0  0  0  0  0
  160.9850  207.2340  153.7450 N   0  0  0  0  0  2  0  0  0  0  0  0
  161.6300  211.3150  150.9620 C   0  0  0  0  0  2  0  0  0  0  0  0
  161.1560  211.2790  153.6130 O   0  0  0  0  0  0  0  0  0  0  0  0
  159.4170  206.8700  156.3960 N   0  0  0  0  0  1  0  0  0  0  0  0
  161.2380  209.2500  152.4100 C   0  0  0  0  0  0  0  0  0  0  0  0
  160.8700  208.0000  154.8540 C   0  0  0  0  0  0  0  0  0  0  0  0
  162.6250  213.1150  145.5550 N   0  0  0  0  0  2  0  0  0  0  0  0
  161.6690  212.9810  144.5020 C   0  0  0  0  0  0  0  0  0  0  0  0
  160.4620  212.7260  144.7600 O   0  0  0  0  0  0  0  0  0  0  0  0
  162.1030  213.1400  143.0910 C   0  0  0  0  0  1  0  0  0  0  0  0
  1 16  1  0  0  0  0
  2 27  1  0  0  0  0
  3  4  1  0  0  0  0
  4 21  2  0  0  0  0
  5 25  2  0  0  0  0
  5  6  1  0  0  0  0
  6 28  2  0  0  0  0
  6 18  1  0  0  0  0
  7 19  1  1  0  0  0
  7 24  1  0  0  0  0
  8 17  1  0  0  0  0
  8 12  1  0  0  0  0
  9 26  1  6  0  0  0
  9 15  1  0  0  0  0
 11  3  2  0  0  0  0
 11 13  1  0  0  0  0
 12 13  1  0  0  0  0
 12  2  2  0  0  0  0
 13 22  2  0  0  0  0
 14 23  1  0  0  0  0
 16 19  1  0  0  0  0
 17 10  1  6  0  0  0
 17  7  1  0  0  0  0
 18 15  2  0  0  0  0
 20 29  1  6  0  0  0
 20 10  1  0  0  0  0
 20  1  1  0  0  0  0
 22 21  1  0  0  0  0
 22 14  1  0  0  0  0
 23 28  1  0  0  0  0
 24  2  1  0  0  0  0
 27 14  2  0  0  0  0
 27  5  1  0  0  0  0
 28  9  1  0  0  0  0
 30 31  2  0  0  0  0
 30 29  1  0  0  0  0
 32 30  1  0  0  0  0
M  END
>  <MODEL>
4

>  <REMARK>
 VINA RESULT:      -7.9      3.337      6.871
  Name = 
  1 active torsions:
  status: ('A' for Active; 'I' for Inactive)
    1  A    between atoms: C_20  and  N_29
                            x       y       z     vdW  Elec       q    Type
                         _______ _______ _______ _____ _____    ______ ____

>  <TORSDO>
F 1

$$$$
