=
 OpenBabel11122412413D

 30 35  0  0  1  0  0  0  0  0999 V2000
  161.0080  206.0560  150.1600 C   0  0  0  0  0  0  0  0  0  0  0  0
  160.9430  203.5260  150.0820 N   0  0  0  0  0  0  0  0  0  0  0  0
  161.0610  206.0400  154.4280 N   0  0  0  0  0  0  0  0  0  0  0  0
  161.2670  207.1520  150.9240 C   0  0  0  0  0  0  0  0  0  0  0  0
  160.8980  206.2410  148.6720 C   0  0  0  0  0  2  0  0  0  0  0  0
  162.4130  209.5010  148.3880 O   0  0  0  0  0  0  0  0  0  0  0  0
  160.3730  209.8140  151.9930 C   0  0  1  0  0  3  0  0  0  0  0  0
  162.0000  208.4330  148.9180 C   0  0  0  0  0  0  0  0  0  0  0  0
  160.5240  209.1950  153.3290 N   0  0  2  0  0  0  0  0  0  0  0  0
  161.3400  207.2830  154.6530 C   0  0  0  0  0  0  0  0  0  0  0  0
  162.0010  207.1500  148.1370 C   0  0  2  0  0  3  0  0  0  0  0  0
  161.5990  208.4170  150.3010 N   0  0  0  0  0  0  0  0  0  0  0  0
  160.9460  202.2710  150.7780 C   0  0  0  0  0  3  0  0  0  0  0  0
  160.9610  210.2820  154.1950 C   0  0  0  0  0  2  0  0  0  0  0  0
  160.0670  211.2850  152.2070 C   0  0  0  0  0  2  0  0  0  0  0  0
  160.9570  203.4820  148.7300 O   0  0  0  0  0  1  0  0  0  0  0  0
  160.9670  205.9090  153.0200 C   0  0  0  0  0  0  0  0  0  0  0  0
  160.9230  202.2310  152.1100 C   0  0  0  0  0  3  0  0  0  0  0  0
  160.5120  204.7490  150.7880 C   0  0  1  0  0  3  0  0  0  0  0  0
  161.2010  207.0420  152.3960 C   0  0  0  0  0  0  0  0  0  0  0  0
  161.5730  207.7960  156.0310 C   0  0  0  0  0  1  0  0  0  0  0  0
  161.5080  208.1040  153.3980 C   0  0  1  0  0  3  0  0  0  0  0  0
  160.3310  211.5500  153.6690 C   0  0  0  0  0  2  0  0  0  0  0  0
  162.8070  209.9160  151.6700 O   0  0  0  0  0  1  0  0  0  0  0  0
  160.9290  203.4780  152.8870 C   0  0  0  0  0  3  0  0  0  0  0  0
  160.7990  204.6590  152.2780 C   0  0  0  0  0  0  0  0  0  0  0  0
  161.5820  209.6860  151.0360 C   0  0  2  0  0  3  0  0  0  0  0  0
  161.7800  207.4010  146.6480 C   0  0  0  0  0  2  0  0  0  0  0  0
  160.1780  206.3210  145.2440 O   0  0  0  0  0  1  0  0  0  0  0  0
  161.3760  206.1240  145.9310 C   0  0  0  0  0  2  0  0  0  0  0  0
  1  4  2  0  0  0  0
  2 13  1  0  0  0  0
  2 19  1  0  0  0  0
  3 10  2  0  0  0  0
  4 20  1  0  0  0  0
  5  1  1  0  0  0  0
  6  8  2  0  0  0  0
  7 15  1  1  0  0  0
  7  9  1  0  0  0  0
  8 12  1  0  0  0  0
  9 22  1  0  0  0  0
  9 14  1  1  0  0  0
 10 21  1  0  0  0  0
 11 28  1  6  0  0  0
 11  5  1  0  0  0  0
 11  8  1  0  0  0  0
 12  4  1  0  0  0  0
 12 27  1  0  0  0  0
 13 18  2  0  0  0  0
 15 23  1  0  0  0  0
 16  2  1  0  0  0  0
 17  3  1  0  0  0  0
 18 25  1  0  0  0  0
 19  1  1  6  0  0  0
 19 26  1  0  0  0  0
 20 17  2  0  0  0  0
 22 20  1  6  0  0  0
 22 10  1  0  0  0  0
 23 14  1  0  0  0  0
 26 25  2  0  0  0  0
 26 17  1  0  0  0  0
 27 24  1  1  0  0  0
 27  7  1  0  0  0  0
 29 30  1  0  0  0  0
 30 28  1  0  0  0  0
M  END
>  <MODEL>
1

>  <REMARK>
 VINA RESULT:      -7.6      0.000      0.000
  Name = 
  2 active torsions:
  status: ('A' for Active; 'I' for Inactive)
    1  A    between atoms: C_11  and  C_28
    2  A    between atoms: C_28  and  C_30
                            x       y       z     vdW  Elec       q    Type
                         _______ _______ _______ _____ _____    ______ ____

>  <TORSDO>
F 2

$$$$
=
 OpenBabel11122412413D

 30 35  0  0  1  0  0  0  0  0999 V2000
  161.8440  208.0600  151.1120 C   0  0  0  0  0  0  0  0  0  0  0  0
  161.5350  208.4180  153.6000 N   0  0  0  0  0  0  0  0  0  0  0  0
  160.7060  203.9600  151.4420 N   0  0  0  0  0  0  0  0  0  0  0  0
  161.5720  207.2560  150.0490 C   0  0  0  0  0  0  0  0  0  0  0  0
  162.3570  209.4470  150.8390 C   0  0  0  0  0  2  0  0  0  0  0  0
  161.4870  209.6980  147.3480 O   0  0  0  0  0  0  0  0  0  0  0  0
  162.5650  205.7000  147.6790 C   0  0  1  0  0  3  0  0  0  0  0  0
  161.5810  209.2140  148.5100 C   0  0  0  0  0  0  0  0  0  0  0  0
  161.9860  204.5200  148.3600 N   0  0  2  0  0  0  0  0  0  0  0  0
  160.5740  203.6630  150.1890 C   0  0  0  0  0  0  0  0  0  0  0  0
  161.5810  210.1180  149.7090 C   0  0  2  0  0  3  0  0  0  0  0  0
  161.6100  207.7870  148.7020 N   0  0  0  0  0  0  0  0  0  0  0  0
  161.1610  207.8950  154.8830 C   0  0  0  0  0  3  0  0  0  0  0  0
  161.5160  203.6610  147.2810 C   0  0  0  0  0  2  0  0  0  0  0  0
  163.0310  205.2470  146.3070 C   0  0  0  0  0  2  0  0  0  0  0  0
  161.8590  209.7310  153.5390 O   0  0  0  0  0  1  0  0  0  0  0  0
  161.1330  205.3110  151.4810 C   0  0  0  0  0  0  0  0  0  0  0  0
  160.8380  206.6110  155.0280 C   0  0  0  0  0  3  0  0  0  0  0  0
  161.9570  207.4910  152.5310 C   0  0  1  0  0  3  0  0  0  0  0  0
  161.2440  205.8340  150.2810 C   0  0  0  0  0  0  0  0  0  0  0  0
  160.0800  202.3300  149.7490 C   0  0  0  0  0  1  0  0  0  0  0  0
  160.8600  204.8170  149.2590 C   0  0  1  0  0  3  0  0  0  0  0  0
  162.4480  203.8690  146.1100 C   0  0  0  0  0  2  0  0  0  0  0  0
  160.3400  206.5780  147.1190 O   0  0  0  0  0  1  0  0  0  0  0  0
  160.8280  205.7160  153.8620 C   0  0  0  0  0  3  0  0  0  0  0  0
  161.2890  206.1330  152.6810 C   0  0  0  0  0  0  0  0  0  0  0  0
  161.6350  206.9250  147.5160 C   0  0  2  0  0  3  0  0  0  0  0  0
  162.2090  211.4710  149.3890 C   0  0  0  0  0  2  0  0  0  0  0  0
  161.0650  212.9770  147.9300 O   0  0  0  0  0  1  0  0  0  0  0  0
  161.1470  212.5500  149.2550 C   0  0  0  0  0  2  0  0  0  0  0  0
  2 13  1  0  0  0  0
  3 17  1  0  0  0  0
  4 20  1  0  0  0  0
  4  1  2  0  0  0  0
  5  1  1  0  0  0  0
  6  8  2  0  0  0  0
  7 15  1  6  0  0  0
  7  9  1  0  0  0  0
  8 12  1  0  0  0  0
  8 11  1  0  0  0  0
  9 14  1  6  0  0  0
  9 22  1  0  0  0  0
 10  3  2  0  0  0  0
 11 28  1  6  0  0  0
 11  5  1  0  0  0  0
 12  4  1  0  0  0  0
 13 18  2  0  0  0  0
 16  2  1  0  0  0  0
 17 26  1  0  0  0  0
 19  1  1  6  0  0  0
 19 26  1  0  0  0  0
 19  2  1  0  0  0  0
 20 17  2  0  0  0  0
 21 10  1  0  0  0  0
 22 10  1  1  0  0  0
 22 20  1  0  0  0  0
 23 15  1  0  0  0  0
 23 14  1  0  0  0  0
 25 18  1  0  0  0  0
 26 25  2  0  0  0  0
 27 24  1  1  0  0  0
 27  7  1  0  0  0  0
 27 12  1  0  0  0  0
 29 30  1  0  0  0  0
 30 28  1  0  0  0  0
M  END
>  <MODEL>
2

>  <REMARK>
 VINA RESULT:      -6.9      1.848      5.663
  Name = 
  2 active torsions:
  status: ('A' for Active; 'I' for Inactive)
    1  A    between atoms: C_11  and  C_28
    2  A    between atoms: C_28  and  C_30
                            x       y       z     vdW  Elec       q    Type
                         _______ _______ _______ _____ _____    ______ ____

>  <TORSDO>
F 2

$$$$
=
 OpenBabel11122412413D

 30 35  0  0  1  0  0  0  0  0999 V2000
  161.1240  207.8700  151.3280 C   0  0  0  0  0  0  0  0  0  0  0  0
  161.5630  210.3290  150.9100 N   0  0  0  0  0  0  0  0  0  0  0  0
  162.2730  206.8670  147.3420 N   0  0  0  0  0  0  0  0  0  0  0  0
  161.3400  206.5990  150.8930 C   0  0  0  0  0  0  0  0  0  0  0  0
  160.6000  208.0620  152.7240 C   0  0  0  0  0  2  0  0  0  0  0  0
  161.2870  204.7780  154.0460 O   0  0  0  0  0  0  0  0  0  0  0  0
  160.2220  203.9180  150.1240 C   0  0  1  0  0  3  0  0  0  0  0  0
  161.2530  205.7380  153.2280 C   0  0  0  0  0  0  0  0  0  0  0  0
  160.8350  204.1750  148.8010 N   0  0  2  0  0  0  0  0  0  0  0  0
  162.3390  205.5790  147.4450 C   0  0  0  0  0  0  0  0  0  0  0  0
  161.3170  207.1560  153.7210 C   0  0  2  0  0  3  0  0  0  0  0  0
  161.2330  205.4840  151.8110 N   0  0  0  0  0  0  0  0  0  0  0  0
  162.0030  211.3690  150.0240 C   0  0  0  0  0  3  0  0  0  0  0  0
  161.2470  202.8620  148.3210 C   0  0  0  0  0  2  0  0  0  0  0  0
  159.6860  202.4990  150.1070 C   0  0  0  0  0  2  0  0  0  0  0  0
  161.2380  210.6900  152.1730 O   0  0  0  0  0  1  0  0  0  0  0  0
  161.8500  207.3410  148.6090 C   0  0  0  0  0  0  0  0  0  0  0  0
  162.3320  211.0960  148.7620 C   0  0  0  0  0  3  0  0  0  0  0  0
  161.0850  209.0490  150.3490 C   0  0  1  0  0  3  0  0  0  0  0  0
  161.6770  206.3660  149.4740 C   0  0  0  0  0  0  0  0  0  0  0  0
  162.8070  204.7270  146.3180 C   0  0  0  0  0  1  0  0  0  0  0  0
  162.0060  205.0640  148.8240 C   0  0  1  0  0  3  0  0  0  0  0  0
  160.2560  201.8590  148.8640 C   0  0  0  0  0  2  0  0  0  0  0  0
  162.4170  203.5450  151.1640 O   0  0  0  0  0  1  0  0  0  0  0  0
  162.2800  209.7130  148.2690 C   0  0  0  0  0  3  0  0  0  0  0  0
  161.7580  208.7410  149.0210 C   0  0  0  0  0  0  0  0  0  0  0  0
  161.1450  204.0930  151.3530 C   0  0  2  0  0  3  0  0  0  0  0  0
  160.6750  207.2980  155.0970 C   0  0  0  0  0  2  0  0  0  0  0  0
  162.0350  208.1590  156.8620 O   0  0  0  0  0  1  0  0  0  0  0  0
  161.1910  208.5340  155.8170 C   0  0  0  0  0  2  0  0  0  0  0  0
  1  5  1  0  0  0  0
  2 16  1  0  0  0  0
  3 10  2  0  0  0  0
  3 17  1  0  0  0  0
  4  1  2  0  0  0  0
  4 12  1  0  0  0  0
  5 11  1  0  0  0  0
  7 15  1  6  0  0  0
  7 27  1  0  0  0  0
  8 11  1  0  0  0  0
  8  6  2  0  0  0  0
  9 14  1  1  0  0  0
  9 22  1  0  0  0  0
  9  7  1  0  0  0  0
 11 28  1  1  0  0  0
 12  8  1  0  0  0  0
 13  2  1  0  0  0  0
 14 23  1  0  0  0  0
 17 26  1  0  0  0  0
 17 20  2  0  0  0  0
 18 13  2  0  0  0  0
 19 26  1  6  0  0  0
 19  2  1  0  0  0  0
 19  1  1  0  0  0  0
 20  4  1  0  0  0  0
 21 10  1  0  0  0  0
 22 10  1  6  0  0  0
 22 20  1  0  0  0  0
 23 15  1  0  0  0  0
 25 18  1  0  0  0  0
 25 26  2  0  0  0  0
 27 24  1  6  0  0  0
 27 12  1  0  0  0  0
 28 30  1  0  0  0  0
 30 29  1  0  0  0  0
M  END
>  <MODEL>
3

>  <REMARK>
 VINA RESULT:      -6.5      2.279      7.268
  Name = 
  2 active torsions:
  status: ('A' for Active; 'I' for Inactive)
    1  A    between atoms: C_11  and  C_28
    2  A    between atoms: C_28  and  C_30
                            x       y       z     vdW  Elec       q    Type
                         _______ _______ _______ _____ _____    ______ ____

>  <TORSDO>
F 2

$$$$
=
 OpenBabel11122412413D

 30 35  0  0  1  0  0  0  0  0999 V2000
  161.1860  211.0660  150.7200 C   0  0  0  0  0  0  0  0  0  0  0  0
  160.6170  212.4120  148.6520 N   0  0  0  0  0  0  0  0  0  0  0  0
  158.9630  213.7280  153.2070 N   0  0  0  0  0  0  0  0  0  0  0  0
  160.8710  210.8130  152.0190 C   0  0  0  0  0  0  0  0  0  0  0  0
  162.0840  210.0940  150.0060 C   0  0  0  0  0  2  0  0  0  0  0  0
  161.8420  207.3130  152.2890 O   0  0  0  0  0  0  0  0  0  0  0  0
  161.7560  210.5590  154.8790 C   0  0  1  0  0  3  0  0  0  0  0  0
  161.6300  208.4520  151.7880 C   0  0  0  0  0  0  0  0  0  0  0  0
  160.7890  211.6460  155.1510 N   0  0  2  0  0  0  0  0  0  0  0  0
  158.9440  213.0450  154.3060 C   0  0  0  0  0  0  0  0  0  0  0  0
  161.6910  208.6490  150.3000 C   0  0  2  0  0  3  0  0  0  0  0  0
  161.2490  209.5560  152.6310 N   0  0  0  0  0  0  0  0  0  0  0  0
  159.9310  213.5220  148.0540 C   0  0  0  0  0  3  0  0  0  0  0  0
  160.2730  211.3610  156.4840 C   0  0  0  0  0  2  0  0  0  0  0  0
  162.2830  210.0770  156.2180 C   0  0  0  0  0  2  0  0  0  0  0  0
  161.2840  211.5780  147.8210 O   0  0  0  0  0  1  0  0  0  0  0  0
  159.7230  212.9660  152.2850 C   0  0  0  0  0  0  0  0  0  0  0  0
  159.2600  214.3930  148.8060 C   0  0  0  0  0  3  0  0  0  0  0  0
  160.9310  212.4420  150.0940 C   0  0  1  0  0  3  0  0  0  0  0  0
  160.1460  211.8350  152.8020 C   0  0  0  0  0  0  0  0  0  0  0  0
  158.1850  213.5050  155.5010 C   0  0  0  0  0  1  0  0  0  0  0  0
  159.6620  211.7210  154.2090 C   0  0  1  0  0  3  0  0  0  0  0  0
  161.3900  210.7050  157.2610 C   0  0  0  0  0  2  0  0  0  0  0  0
  159.9530  208.9310  154.5060 O   0  0  0  0  0  1  0  0  0  0  0  0
  159.1860  214.2090  150.2620 C   0  0  0  0  0  3  0  0  0  0  0  0
  159.9120  213.2660  150.8660 C   0  0  0  0  0  0  0  0  0  0  0  0
  161.2200  209.3460  154.0830 C   0  0  2  0  0  3  0  0  0  0  0  0
  162.6970  207.7030  149.6520 C   0  0  0  0  0  2  0  0  0  0  0  0
  160.8870  206.9390  148.2940 O   0  0  0  0  0  1  0  0  0  0  0  0
  162.2380  207.2820  148.2660 C   0  0  0  0  0  2  0  0  0  0  0  0
  1  4  2  0  0  0  0
  2 19  1  0  0  0  0
  3 10  2  0  0  0  0
  4 12  1  0  0  0  0
  4 20  1  0  0  0  0
  5 11  1  0  0  0  0
  5  1  1  0  0  0  0
  7  9  1  0  0  0  0
  7 15  1  1  0  0  0
  8  6  2  0  0  0  0
  8 12  1  0  0  0  0
  9 14  1  1  0  0  0
 10 21  1  0  0  0  0
 11 28  1  1  0  0  0
 11  8  1  0  0  0  0
 12 27  1  0  0  0  0
 13  2  1  0  0  0  0
 13 18  2  0  0  0  0
 14 23  1  0  0  0  0
 15 23  1  0  0  0  0
 16  2  1  0  0  0  0
 17 20  2  0  0  0  0
 17  3  1  0  0  0  0
 18 25  1  0  0  0  0
 19  1  1  1  0  0  0
 19 26  1  0  0  0  0
 22 20  1  6  0  0  0
 22 10  1  0  0  0  0
 22  9  1  0  0  0  0
 25 26  2  0  0  0  0
 26 17  1  0  0  0  0
 27 24  1  1  0  0  0
 27  7  1  0  0  0  0
 30 29  1  0  0  0  0
 30 28  1  0  0  0  0
M  END
>  <MODEL>
4

>  <REMARK>
 VINA RESULT:      -5.6      3.075      6.237
  Name = 
  2 active torsions:
  status: ('A' for Active; 'I' for Inactive)
    1  A    between atoms: C_11  and  C_28
    2  A    between atoms: C_28  and  C_30
                            x       y       z     vdW  Elec       q    Type
                         _______ _______ _______ _____ _____    ______ ____

>  <TORSDO>
F 2

$$$$
=
 OpenBabel11122412413D

 30 35  0  0  1  0  0  0  0  0999 V2000
  161.1810  207.4320  151.0010 C   0  0  0  0  0  0  0  0  0  0  0  0
  161.3840  205.0570  150.1470 N   0  0  0  0  0  0  0  0  0  0  0  0
  160.6380  206.0680  155.0080 N   0  0  0  0  0  0  0  0  0  0  0  0
  161.2190  208.2410  152.0930 C   0  0  0  0  0  0  0  0  0  0  0  0
  161.2620  208.0720  149.6420 C   0  0  0  0  0  2  0  0  0  0  0  0
  162.4640  211.3290  150.6170 O   0  0  0  0  0  0  0  0  0  0  0  0
  159.9200  210.3780  153.7600 C   0  0  1  0  0  3  0  0  0  0  0  0
  162.0910  210.1280  150.7220 C   0  0  0  0  0  0  0  0  0  0  0  0
  159.9440  209.3760  154.8490 N   0  0  2  0  0  0  0  0  0  0  0  0
  160.7570  207.1890  155.6440 C   0  0  0  0  0  0  0  0  0  0  0  0
  162.3310  209.1590  149.5980 C   0  0  2  0  0  3  0  0  0  0  0  0
  161.5050  209.6530  151.9490 N   0  0  0  0  0  0  0  0  0  0  0  0
  161.4170  203.6480  150.4180 C   0  0  0  0  0  3  0  0  0  0  0  0
  160.1440  210.1540  156.0660 C   0  0  0  0  0  2  0  0  0  0  0  0
  159.4390  211.6860  154.3580 C   0  0  0  0  0  2  0  0  0  0  0  0
  161.5910  205.4430  148.8660 O   0  0  0  0  0  1  0  0  0  0  0  0
  160.7560  206.3840  153.6320 C   0  0  0  0  0  0  0  0  0  0  0  0
  161.2120  203.1870  151.6510 C   0  0  0  0  0  3  0  0  0  0  0  0
  160.7370  205.9690  151.1100 C   0  0  1  0  0  3  0  0  0  0  0  0
  160.9590  207.6670  153.4300 C   0  0  0  0  0  0  0  0  0  0  0  0
  160.7420  207.2510  157.1310 C   0  0  0  0  0  1  0  0  0  0  0  0
  161.0140  208.3720  154.7440 C   0  0  1  0  0  3  0  0  0  0  0  0
  159.4680  211.4890  155.8550 C   0  0  0  0  0  2  0  0  0  0  0  0
  162.3520  210.7030  153.8880 O   0  0  0  0  0  1  0  0  0  0  0  0
  160.9830  204.1220  152.7610 C   0  0  0  0  0  3  0  0  0  0  0  0
  160.8200  205.4270  152.5280 C   0  0  0  0  0  0  0  0  0  0  0  0
  161.2570  210.6220  153.0220 C   0  0  2  0  0  3  0  0  0  0  0  0
  162.2960  209.8580  148.2420 C   0  0  0  0  0  2  0  0  0  0  0  0
  161.8770  212.0930  147.5110 O   0  0  0  0  0  1  0  0  0  0  0  0
  161.3460  211.0440  148.2610 C   0  0  0  0  0  2  0  0  0  0  0  0
  1  4  2  0  0  0  0
  2 13  1  0  0  0  0
  2 19  1  0  0  0  0
  3 10  2  0  0  0  0
  4 20  1  0  0  0  0
  5  1  1  0  0  0  0
  6  8  2  0  0  0  0
  7 15  1  1  0  0  0
  7  9  1  0  0  0  0
  8 12  1  0  0  0  0
  9 14  1  1  0  0  0
 10 21  1  0  0  0  0
 11 28  1  6  0  0  0
 11  5  1  0  0  0  0
 11  8  1  0  0  0  0
 12  4  1  0  0  0  0
 12 27  1  0  0  0  0
 13 18  2  0  0  0  0
 15 23  1  0  0  0  0
 16  2  1  0  0  0  0
 17  3  1  0  0  0  0
 18 25  1  0  0  0  0
 19  1  1  1  0  0  0
 19 26  1  0  0  0  0
 20 17  2  0  0  0  0
 22 20  1  6  0  0  0
 22  9  1  0  0  0  0
 22 10  1  0  0  0  0
 23 14  1  0  0  0  0
 26 25  2  0  0  0  0
 26 17  1  0  0  0  0
 27  7  1  0  0  0  0
 27 24  1  1  0  0  0
 28 30  1  0  0  0  0
 29 30  1  0  0  0  0
M  END
>  <MODEL>
5

>  <REMARK>
 VINA RESULT:      -5.5      1.793      2.364
  Name = 
  2 active torsions:
  status: ('A' for Active; 'I' for Inactive)
    1  A    between atoms: C_11  and  C_28
    2  A    between atoms: C_28  and  C_30
                            x       y       z     vdW  Elec       q    Type
                         _______ _______ _______ _____ _____    ______ ____

>  <TORSDO>
F 2

$$$$
=
 OpenBabel11122412413D

 30 35  0  0  1  0  0  0  0  0999 V2000
  161.6450  209.2320  151.0630 C   0  0  0  0  0  0  0  0  0  0  0  0
  161.9020  209.8440  148.6190 N   0  0  0  0  0  0  0  0  0  0  0  0
  160.1130  213.1050  151.9930 N   0  0  0  0  0  0  0  0  0  0  0  0
  161.0640  209.5570  152.2490 C   0  0  0  0  0  0  0  0  0  0  0  0
  162.2530  207.8630  150.9240 C   0  0  0  0  0  2  0  0  0  0  0  0
  160.7170  206.2660  153.7690 O   0  0  0  0  0  0  0  0  0  0  0  0
  161.3500  210.1190  155.1870 C   0  0  1  0  0  3  0  0  0  0  0  0
  160.9910  207.1610  152.9220 C   0  0  0  0  0  0  0  0  0  0  0  0
  160.7870  211.4500  154.8660 N   0  0  2  0  0  0  0  0  0  0  0  0
  159.6900  212.8950  153.1980 C   0  0  0  0  0  0  0  0  0  0  0  0
  161.3470  206.7860  151.5120 C   0  0  2  0  0  3  0  0  0  0  0  0
  160.8860  208.5530  153.2770 N   0  0  0  0  0  0  0  0  0  0  0  0
  161.7410  210.8060  147.5660 C   0  0  0  0  0  3  0  0  0  0  0  0
  160.0030  211.8140  156.0410 C   0  0  0  0  0  2  0  0  0  0  0  0
  161.4640  210.0270  156.6970 C   0  0  0  0  0  2  0  0  0  0  0  0
  162.3620  208.6200  148.2720 O   0  0  0  0  0  1  0  0  0  0  0  0
  160.6990  211.8870  151.5660 C   0  0  0  0  0  0  0  0  0  0  0  0
  161.3020  212.0360  147.8280 C   0  0  0  0  0  3  0  0  0  0  0  0
  161.9780  210.3050  150.0200 C   0  0  1  0  0  3  0  0  0  0  0  0
  160.6220  210.9480  152.4820 C   0  0  0  0  0  0  0  0  0  0  0  0
  158.9590  213.9410  153.9640 C   0  0  0  0  0  1  0  0  0  0  0  0
  159.9150  211.4840  153.6820 C   0  0  1  0  0  3  0  0  0  0  0  0
  160.6910  211.2050  157.2390 C   0  0  0  0  0  2  0  0  0  0  0  0
  159.1800  209.0200  154.8430 O   0  0  0  0  0  1  0  0  0  0  0  0
  160.9430  212.4150  149.2020 C   0  0  0  0  0  3  0  0  0  0  0  0
  161.1980  211.5930  150.2230 C   0  0  0  0  0  0  0  0  0  0  0  0
  160.5610  208.8960  154.6650 C   0  0  2  0  0  3  0  0  0  0  0  0
  162.0540  205.4350  151.4550 C   0  0  0  0  0  2  0  0  0  0  0  0
  161.6440  204.9380  149.1550 O   0  0  0  0  0  1  0  0  0  0  0  0
  161.3830  204.5070  150.4560 C   0  0  0  0  0  2  0  0  0  0  0  0
  1  4  2  0  0  0  0
  2 19  1  0  0  0  0
  3 10  2  0  0  0  0
  4 20  1  0  0  0  0
  4 12  1  0  0  0  0
  5  1  1  0  0  0  0
  5 11  1  0  0  0  0
  7 15  1  1  0  0  0
  8 12  1  0  0  0  0
  8  6  2  0  0  0  0
  9  7  1  0  0  0  0
  9 14  1  1  0  0  0
 10 22  1  0  0  0  0
 10 21  1  0  0  0  0
 11 28  1  1  0  0  0
 11  8  1  0  0  0  0
 12 27  1  0  0  0  0
 13 18  2  0  0  0  0
 13  2  1  0  0  0  0
 14 23  1  0  0  0  0
 15 23  1  0  0  0  0
 16  2  1  0  0  0  0
 17  3  1  0  0  0  0
 17 20  2  0  0  0  0
 18 25  1  0  0  0  0
 19 26  1  6  0  0  0
 19  1  1  0  0  0  0
 22 20  1  6  0  0  0
 22  9  1  0  0  0  0
 25 26  2  0  0  0  0
 26 17  1  0  0  0  0
 27 24  1  6  0  0  0
 27  7  1  0  0  0  0
 29 30  1  0  0  0  0
 30 28  1  0  0  0  0
M  END
>  <MODEL>
6

>  <REMARK>
 VINA RESULT:      -5.1      2.450      5.598
  Name = 
  2 active torsions:
  status: ('A' for Active; 'I' for Inactive)
    1  A    between atoms: C_11  and  C_28
    2  A    between atoms: C_28  and  C_30
                            x       y       z     vdW  Elec       q    Type
                         _______ _______ _______ _____ _____    ______ ____

>  <TORSDO>
F 2

$$$$
=
 OpenBabel11122412413D

 30 35  0  0  1  0  0  0  0  0999 V2000
  160.5620  209.0890  153.2700 C   0  0  0  0  0  0  0  0  0  0  0  0
  161.1850  207.2830  154.9320 N   0  0  0  0  0  0  0  0  0  0  0  0
  158.7570  211.4490  156.3330 N   0  0  0  0  0  0  0  0  0  0  0  0
  160.1740  210.3820  153.1070 C   0  0  0  0  0  0  0  0  0  0  0  0
  161.0660  208.3430  152.0650 C   0  0  0  0  0  2  0  0  0  0  0  0
  161.6650  211.1440  149.8730 O   0  0  0  0  0  0  0  0  0  0  0  0
  158.2570  212.3630  151.9110 C   0  0  1  0  0  3  0  0  0  0  0  0
  161.3510  210.5070  150.9160 C   0  0  0  0  0  0  0  0  0  0  0  0
  157.9650  212.7460  153.3110 N   0  0  2  0  0  0  0  0  0  0  0  0
  158.5830  212.5570  155.6890 C   0  0  0  0  0  0  0  0  0  0  0  0
  162.0190  209.2000  151.2350 C   0  0  2  0  0  3  0  0  0  0  0  0
  160.4080  211.0640  151.8510 N   0  0  0  0  0  0  0  0  0  0  0  0
  161.2070  206.8080  156.2860 C   0  0  0  0  0  3  0  0  0  0  0  0
  157.6880  214.1760  153.2550 C   0  0  0  0  0  2  0  0  0  0  0  0
  157.5240  213.3410  151.0110 C   0  0  0  0  0  2  0  0  0  0  0  0
  161.7970  206.5160  153.9990 O   0  0  0  0  0  1  0  0  0  0  0  0
  159.3220  210.5400  155.4040 C   0  0  0  0  0  0  0  0  0  0  0  0
  160.6180  207.5020  157.2600 C   0  0  0  0  0  3  0  0  0  0  0  0
  160.1940  208.3010  154.5330 C   0  0  1  0  0  3  0  0  0  0  0  0
  159.5050  211.0840  154.2220 C   0  0  0  0  0  0  0  0  0  0  0  0
  158.0550  213.7770  156.3580 C   0  0  0  0  0  1  0  0  0  0  0  0
  159.0630  212.5090  154.2590 C   0  0  1  0  0  3  0  0  0  0  0  0
  157.0480  214.4530  151.9150 C   0  0  0  0  0  2  0  0  0  0  0  0
  160.4730  213.4210  151.9930 O   0  0  0  0  0  1  0  0  0  0  0  0
  159.9670  208.7850  156.9630 C   0  0  0  0  0  3  0  0  0  0  0  0
  159.8170  209.1970  155.7020 C   0  0  0  0  0  0  0  0  0  0  0  0
  159.7500  212.3290  151.5060 C   0  0  2  0  0  3  0  0  0  0  0  0
  162.4110  208.4480  149.9670 C   0  0  0  0  0  2  0  0  0  0  0  0
  161.5460  206.9740  148.2980 O   0  0  0  0  0  1  0  0  0  0  0  0
  161.3810  207.3850  149.6200 C   0  0  0  0  0  2  0  0  0  0  0  0
  2 13  1  0  0  0  0
  4  1  2  0  0  0  0
  4 20  1  0  0  0  0
  5  1  1  0  0  0  0
  6  8  2  0  0  0  0
  7 15  1  6  0  0  0
  7  9  1  0  0  0  0
  8 11  1  0  0  0  0
  8 12  1  0  0  0  0
  9 14  1  6  0  0  0
  9 22  1  0  0  0  0
 10  3  2  0  0  0  0
 10 21  1  0  0  0  0
 11 28  1  6  0  0  0
 11  5  1  0  0  0  0
 12  4  1  0  0  0  0
 13 18  2  0  0  0  0
 15 23  1  0  0  0  0
 16  2  1  0  0  0  0
 17 26  1  0  0  0  0
 17  3  1  0  0  0  0
 19  1  1  6  0  0  0
 19  2  1  0  0  0  0
 19 26  1  0  0  0  0
 20 17  2  0  0  0  0
 22 20  1  6  0  0  0
 22 10  1  0  0  0  0
 23 14  1  0  0  0  0
 25 18  1  0  0  0  0
 26 25  2  0  0  0  0
 27 12  1  0  0  0  0
 27  7  1  0  0  0  0
 27 24  1  1  0  0  0
 29 30  1  0  0  0  0
 30 28  1  0  0  0  0
M  END
>  <MODEL>
7

>  <REMARK>
 VINA RESULT:      -4.7      2.906      4.957
  Name = 
  2 active torsions:
  status: ('A' for Active; 'I' for Inactive)
    1  A    between atoms: C_11  and  C_28
    2  A    between atoms: C_28  and  C_30
                            x       y       z     vdW  Elec       q    Type
                         _______ _______ _______ _____ _____    ______ ____

>  <TORSDO>
F 2

$$$$
