=
 OpenBabel11122414043D

 28 32  0  0  1  0  0  0  0  0999 V2000
  161.1810  209.1030  155.6820 C   0  0  0  0  0  0  0  0  0  0  0  0
  158.5780  211.1150  152.5770 N   0  0  0  0  0  1  0  0  0  0  0  0
  163.4820  207.0800  150.5330 O   0  0  0  0  0  1  0  0  0  0  0  0
  163.3930  210.7060  156.3130 C   0  0  0  0  0  3  0  0  0  0  0  0
  162.1910  209.0500  150.0770 C   0  0  2  0  0  3  0  0  0  0  0  0
  160.0120  208.2180  155.3720 C   0  0  0  0  0  2  0  0  0  0  0  0
  159.4290  212.6000  154.1430 O   0  0  0  0  0  1  0  0  0  0  0  0
  159.6080  212.1090  152.8500 C   0  0  1  0  0  0  0  0  0  0  0  0
  159.9280  213.1220  150.6920 C   0  0  0  0  0  0  0  0  0  0  0  0
  161.0150  211.4840  152.7400 C   0  0  2  0  0  3  0  0  0  0  0  0
  161.1890  205.1690  153.6950 O   0  0  0  0  0  0  0  0  0  0  0  0
  161.8960  209.3190  152.3540 C   0  0  2  0  0  3  0  0  0  0  0  0
  160.6990  212.0210  150.3170 O   0  0  0  0  0  0  0  0  0  0  0  0
  159.4630  213.2080  151.9000 N   0  0  0  0  0  0  0  0  0  0  0  0
  160.7600  206.3470  153.8090 C   0  0  0  0  0  0  0  0  0  0  0  0
  161.6860  210.0110  154.7310 C   0  0  0  0  0  0  0  0  0  0  0  0
  162.2190  207.6440  150.7060 C   0  0  2  0  0  3  0  0  0  0  0  0
  159.6420  214.1960  149.7080 C   0  0  0  0  0  1  0  0  0  0  0  0
  160.5940  207.1790  152.5780 C   0  0  0  0  0  2  0  0  0  0  0  0
  162.8010  210.8000  155.0510 C   0  0  0  0  0  3  0  0  0  0  0  0
  161.7810  209.0160  156.9440 C   0  0  0  0  0  3  0  0  0  0  0  0
  162.8810  209.8170  157.2600 C   0  0  0  0  0  3  0  0  0  0  0  0
  160.4570  206.8560  155.1120 N   0  0  0  0  0  2  0  0  0  0  0  0
  161.3710  209.8170  151.0730 C   0  0  1  0  0  3  0  0  0  0  0  0
  161.9270  207.8160  152.2080 C   0  0  2  0  0  3  0  0  0  0  0  0
  161.4920  211.3050  151.2680 C   0  0  2  0  0  3  0  0  0  0  0  0
  161.4790  209.0060  148.7400 C   0  0  0  0  0  1  0  0  0  0  0  0
  161.0740  210.0700  153.3630 C   0  0  1  0  0  3  0  0  0  0  0  0
  1 21  1  0  0  0  0
  3 17  1  0  0  0  0
  4 22  1  0  0  0  0
  5 27  1  6  0  0  0
  5 17  1  0  0  0  0
  5 24  1  0  0  0  0
  6  1  1  0  0  0  0
  8  2  1  6  0  0  0
  8  7  1  0  0  0  0
  9 14  2  0  0  0  0
 10  8  1  0  0  0  0
 10 28  1  0  0  0  0
 11 15  2  0  0  0  0
 12 28  1  0  0  0  0
 13  9  1  0  0  0  0
 13 26  1  0  0  0  0
 14  8  1  0  0  0  0
 15 23  1  0  0  0  0
 16 20  1  0  0  0  0
 16  1  2  0  0  0  0
 17 25  1  0  0  0  0
 18  9  1  0  0  0  0
 19 15  1  0  0  0  0
 20  4  2  0  0  0  0
 21 22  2  0  0  0  0
 23  6  1  0  0  0  0
 24 26  1  0  0  0  0
 24 12  1  0  0  0  0
 25 12  1  0  0  0  0
 25 19  1  0  0  0  0
 26 10  1  0  0  0  0
 28 16  1  0  0  0  0
M  END
>  <MODEL>
1

>  <REMARK>
 VINA RESULT:      -4.3      0.000      0.000
  Name = 
  0 active torsions:
  status: ('A' for Active; 'I' for Inactive)
                            x       y       z     vdW  Elec       q    Type
                         _______ _______ _______ _____ _____    ______ ____

>  <TORSDO>
F 0

$$$$
=
 OpenBabel11122414043D

 28 32  0  0  1  0  0  0  0  0999 V2000
  161.0320  209.9280  155.6190 C   0  0  0  0  0  0  0  0  0  0  0  0
  156.6080  210.7240  155.1090 N   0  0  0  0  0  1  0  0  0  0  0  0
  160.8800  213.4120  150.7460 O   0  0  0  0  0  1  0  0  0  0  0  0
  162.2070  211.8740  157.2610 C   0  0  0  0  0  3  0  0  0  0  0  0
  158.8120  213.6640  151.9370 C   0  0  2  0  0  3  0  0  0  0  0  0
  160.4400  208.8700  154.7380 C   0  0  0  0  0  2  0  0  0  0  0  0
  157.3610  211.1530  157.2610 O   0  0  0  0  0  1  0  0  0  0  0  0
  157.0310  211.7550  156.0480 C   0  0  1  0  0  0  0  0  0  0  0  0
  155.6530  213.6220  155.4140 C   0  0  0  0  0  0  0  0  0  0  0  0
  158.2640  212.5130  155.5100 C   0  0  2  0  0  3  0  0  0  0  0  0
  161.7940  209.2020  151.3390 O   0  0  0  0  0  0  0  0  0  0  0  0
  159.6830  212.3410  153.6220 C   0  0  2  0  0  3  0  0  0  0  0  0
  156.5100  213.8580  154.3390 O   0  0  0  0  0  0  0  0  0  0  0  0
  155.9200  212.6780  156.2630 N   0  0  0  0  0  0  0  0  0  0  0  0
  161.0070  209.3830  152.3050 C   0  0  0  0  0  0  0  0  0  0  0  0
  160.4710  211.2190  155.6920 C   0  0  0  0  0  0  0  0  0  0  0  0
  159.8110  212.6930  151.2790 C   0  0  2  0  0  3  0  0  0  0  0  0
  154.4340  214.4530  155.5870 C   0  0  0  0  0  1  0  0  0  0  0  0
  159.8550  210.3200  152.1350 C   0  0  0  0  0  2  0  0  0  0  0  0
  161.0740  212.1890  156.5070 C   0  0  0  0  0  3  0  0  0  0  0  0
  162.1680  209.6210  156.3780 C   0  0  0  0  0  3  0  0  0  0  0  0
  162.7520  210.5890  157.1990 C   0  0  0  0  0  3  0  0  0  0  0  0
  161.2460  208.6960  153.5380 N   0  0  0  0  0  2  0  0  0  0  0  0
  158.4010  212.9010  153.1620 C   0  0  1  0  0  3  0  0  0  0  0  0
  160.3170  211.7500  152.3850 C   0  0  2  0  0  3  0  0  0  0  0  0
  157.9070  213.5660  154.4190 C   0  0  2  0  0  3  0  0  0  0  0  0
  157.6170  213.8730  151.0280 C   0  0  0  0  0  1  0  0  0  0  0  0
  159.2850  211.5630  154.8430 C   0  0  1  0  0  3  0  0  0  0  0  0
  1 16  2  0  0  0  0
  1 21  1  0  0  0  0
  3 17  1  0  0  0  0
  5 27  1  6  0  0  0
  5 24  1  0  0  0  0
  6  1  1  0  0  0  0
  8  2  1  6  0  0  0
  8 14  1  0  0  0  0
  8  7  1  0  0  0  0
  9 18  1  0  0  0  0
  9 14  2  0  0  0  0
 10  8  1  0  0  0  0
 11 15  2  0  0  0  0
 12 28  1  0  0  0  0
 13 26  1  0  0  0  0
 13  9  1  0  0  0  0
 15 23  1  0  0  0  0
 16 20  1  0  0  0  0
 17  5  1  0  0  0  0
 17 25  1  0  0  0  0
 19 15  1  0  0  0  0
 19 25  1  0  0  0  0
 20  4  2  0  0  0  0
 21 22  2  0  0  0  0
 22  4  1  0  0  0  0
 23  6  1  0  0  0  0
 24 12  1  0  0  0  0
 24 26  1  0  0  0  0
 25 12  1  0  0  0  0
 26 10  1  0  0  0  0
 28 10  1  0  0  0  0
 28 16  1  0  0  0  0
M  END
>  <MODEL>
2

>  <REMARK>
 VINA RESULT:      -4.2      2.760      4.434
  Name = 
  0 active torsions:
  status: ('A' for Active; 'I' for Inactive)
                            x       y       z     vdW  Elec       q    Type
                         _______ _______ _______ _____ _____    ______ ____

>  <TORSDO>
F 0

$$$$
=
 OpenBabel11122414043D

 28 32  0  0  1  0  0  0  0  0999 V2000
  161.2400  209.1590  155.6260 C   0  0  0  0  0  0  0  0  0  0  0  0
  157.0190  210.4440  154.6260 N   0  0  0  0  0  1  0  0  0  0  0  0
  161.9300  211.9450  150.3660 O   0  0  0  0  0  1  0  0  0  0  0  0
  162.5530  211.1400  157.1140 C   0  0  0  0  0  3  0  0  0  0  0  0
  159.8370  212.6190  151.3260 C   0  0  2  0  0  3  0  0  0  0  0  0
  160.5720  208.0780  154.8340 C   0  0  0  0  0  2  0  0  0  0  0  0
  157.6670  211.0580  156.7670 O   0  0  0  0  0  1  0  0  0  0  0  0
  157.5130  211.5290  155.4640 C   0  0  1  0  0  0  0  0  0  0  0  0
  156.4590  213.4550  154.4820 C   0  0  0  0  0  0  0  0  0  0  0  0
  158.8760  212.0410  154.9500 C   0  0  2  0  0  3  0  0  0  0  0  0
  162.2010  207.7710  151.5560 O   0  0  0  0  0  0  0  0  0  0  0  0
  160.3900  211.4350  153.2320 C   0  0  2  0  0  3  0  0  0  0  0  0
  157.4170  213.4310  153.4680 O   0  0  0  0  0  0  0  0  0  0  0  0
  156.5290  212.6080  155.4620 N   0  0  0  0  0  0  0  0  0  0  0  0
  161.3800  208.1800  152.4170 C   0  0  0  0  0  0  0  0  0  0  0  0
  160.8620  210.5100  155.4890 C   0  0  0  0  0  0  0  0  0  0  0  0
  160.7350  211.4480  150.8850 C   0  0  2  0  0  3  0  0  0  0  0  0
  155.3590  214.4520  154.4400 C   0  0  0  0  0  1  0  0  0  0  0  0
  160.3850  209.2270  152.0290 C   0  0  0  0  0  2  0  0  0  0  0  0
  161.5330  211.4950  156.2280 C   0  0  0  0  0  3  0  0  0  0  0  0
  162.2640  208.8140  156.5170 C   0  0  0  0  0  3  0  0  0  0  0  0
  162.9170  209.8000  157.2610 C   0  0  0  0  0  3  0  0  0  0  0  0
  161.4300  207.6400  153.7420 N   0  0  0  0  0  2  0  0  0  0  0  0
  159.2360  212.0880  152.5940 C   0  0  1  0  0  3  0  0  0  0  0  0
  161.0230  210.6050  152.1410 C   0  0  2  0  0  3  0  0  0  0  0  0
  158.7500  212.9750  153.7090 C   0  0  2  0  0  3  0  0  0  0  0  0
  158.7520  212.8570  150.2940 C   0  0  0  0  0  1  0  0  0  0  0  0
  159.7990  210.8860  154.5000 C   0  0  1  0  0  3  0  0  0  0  0  0
  1 21  1  0  0  0  0
  3 17  1  0  0  0  0
  4 22  1  0  0  0  0
  5 27  1  6  0  0  0
  5 24  1  0  0  0  0
  6  1  1  0  0  0  0
  8  2  1  6  0  0  0
  8  7  1  0  0  0  0
  9 14  2  0  0  0  0
 10  8  1  0  0  0  0
 11 15  2  0  0  0  0
 12 28  1  0  0  0  0
 13 26  1  0  0  0  0
 13  9  1  0  0  0  0
 14  8  1  0  0  0  0
 15 23  1  0  0  0  0
 16  1  2  0  0  0  0
 16 20  1  0  0  0  0
 17  5  1  0  0  0  0
 17 25  1  0  0  0  0
 18  9  1  0  0  0  0
 19 25  1  0  0  0  0
 19 15  1  0  0  0  0
 20  4  2  0  0  0  0
 21 22  2  0  0  0  0
 23  6  1  0  0  0  0
 24 12  1  0  0  0  0
 24 26  1  0  0  0  0
 25 12  1  0  0  0  0
 26 10  1  0  0  0  0
 28 10  1  0  0  0  0
 28 16  1  0  0  0  0
M  END
>  <MODEL>
3

>  <REMARK>
 VINA RESULT:      -3.5      2.118      3.388
  Name = 
  0 active torsions:
  status: ('A' for Active; 'I' for Inactive)
                            x       y       z     vdW  Elec       q    Type
                         _______ _______ _______ _____ _____    ______ ____

>  <TORSDO>
F 0

$$$$
=
 OpenBabel11122414043D

 28 32  0  0  1  0  0  0  0  0999 V2000
  160.0680  212.6630  151.3230 C   0  0  0  0  0  0  0  0  0  0  0  0
  162.7660  210.7100  154.3850 N   0  0  0  0  0  1  0  0  0  0  0  0
  160.5700  207.0640  149.2470 O   0  0  0  0  0  1  0  0  0  0  0  0
  157.3760  212.3990  152.0610 C   0  0  0  0  0  3  0  0  0  0  0  0
  161.1970  207.0850  151.5630 C   0  0  2  0  0  3  0  0  0  0  0  0
  161.4950  212.8250  150.8970 C   0  0  0  0  0  2  0  0  0  0  0  0
  160.9680  211.8200  155.3430 O   0  0  0  0  0  1  0  0  0  0  0  0
  161.4360  210.5630  154.9640 C   0  0  1  0  0  0  0  0  0  0  0  0
  161.5830  208.4230  156.0510 C   0  0  0  0  0  0  0  0  0  0  0  0
  160.4580  209.9500  153.9390 C   0  0  2  0  0  3  0  0  0  0  0  0
  162.0890  210.8860  147.8330 O   0  0  0  0  0  0  0  0  0  0  0  0
  160.5540  209.3040  151.6620 C   0  0  2  0  0  3  0  0  0  0  0  0
  161.4140  207.8080  154.8090 O   0  0  0  0  0  0  0  0  0  0  0  0
  161.5310  209.7150  156.1490 N   0  0  0  0  0  0  0  0  0  0  0  0
  162.0270  211.1290  149.0660 C   0  0  0  0  0  0  0  0  0  0  0  0
  159.6610  211.5760  152.1220 C   0  0  0  0  0  0  0  0  0  0  0  0
  161.4210  207.6840  150.1620 C   0  0  2  0  0  3  0  0  0  0  0  0
  161.8220  207.5950  157.2610 C   0  0  0  0  0  1  0  0  0  0  0  0
  162.3290  210.0340  150.0370 C   0  0  0  0  0  2  0  0  0  0  0  0
  158.3090  211.4450  152.4750 C   0  0  0  0  0  3  0  0  0  0  0  0
  159.1260  213.6130  150.9130 C   0  0  0  0  0  3  0  0  0  0  0  0
  157.7850  213.4840  151.2830 C   0  0  0  0  0  3  0  0  0  0  0  0
  161.6570  212.4430  149.5000 N   0  0  0  0  0  2  0  0  0  0  0  0
  161.3000  208.3000  152.4380 C   0  0  1  0  0  3  0  0  0  0  0  0
  161.0840  209.1830  150.2530 C   0  0  2  0  0  3  0  0  0  0  0  0
  160.6260  208.4090  153.7790 C   0  0  2  0  0  3  0  0  0  0  0  0
  162.3080  206.1090  151.8940 C   0  0  0  0  0  1  0  0  0  0  0  0
  160.6600  210.5320  152.5210 C   0  0  1  0  0  3  0  0  0  0  0  0
  1 16  1  0  0  0  0
  3 17  1  0  0  0  0
  4 20  1  0  0  0  0
  5 27  1  1  0  0  0
  5 24  1  0  0  0  0
  6  1  1  0  0  0  0
  8  2  1  6  0  0  0
  8  7  1  0  0  0  0
  8 14  1  0  0  0  0
  9 14  2  0  0  0  0
  9 18  1  0  0  0  0
 10  8  1  0  0  0  0
 11 15  2  0  0  0  0
 12 24  1  0  0  0  0
 12 28  1  0  0  0  0
 13  9  1  0  0  0  0
 15 23  1  0  0  0  0
 15 19  1  0  0  0  0
 16 20  2  0  0  0  0
 16 28  1  0  0  0  0
 17 25  1  0  0  0  0
 17  5  1  0  0  0  0
 19 25  1  0  0  0  0
 21 22  1  0  0  0  0
 21  1  2  0  0  0  0
 22  4  2  0  0  0  0
 23  6  1  0  0  0  0
 24 26  1  0  0  0  0
 25 12  1  0  0  0  0
 26 10  1  0  0  0  0
 26 13  1  0  0  0  0
 28 10  1  0  0  0  0
M  END
>  <MODEL>
4

>  <REMARK>
 VINA RESULT:      -1.7      2.026      5.505
  Name = 
  0 active torsions:
  status: ('A' for Active; 'I' for Inactive)
                            x       y       z     vdW  Elec       q    Type
                         _______ _______ _______ _____ _____    ______ ____

>  <TORSDO>
F 0

$$$$
