=
 OpenBabel11122414333D

 34 42  0  0  1  0  0  0  0  0999 V2000
  160.7200  207.4240  154.2800 C   0  0  0  0  0  0  0  0  0  0  0  0
  161.2160  205.1410  153.3900 N   0  0  0  0  0  2  0  0  0  0  0  0
  158.3970  213.2740  153.2710 C   0  0  2  0  0  0  0  0  0  0  0  0
  160.1970  209.6920  154.9700 C   0  0  0  0  0  0  0  0  0  0  0  0
  159.7290  211.3460  153.2130 N   0  0  1  0  0  0  0  0  0  0  0  0
  158.9370  213.2970  151.8460 C   0  0  1  0  0  3  0  0  0  0  0  0
  157.8820  214.1130  152.2700 O   0  0  0  0  0  0  0  0  0  0  0  0
  159.2260  213.3790  155.6780 C   0  0  0  0  0  2  0  0  0  0  0  0
  161.3860  206.9860  152.0000 C   0  0  0  0  0  0  0  0  0  0  0  0
  162.0120  206.7470  148.9470 C   0  0  0  0  0  2  0  0  0  0  0  0
  160.7710  210.7330  152.3880 C   0  0  0  0  0  2  0  0  0  0  0  0
  159.0470  211.8460  155.5900 C   0  0  0  0  0  2  0  0  0  0  0  0
  161.2490  208.3420  151.6400 C   0  0  0  0  0  0  0  0  0  0  0  0
  161.5310  204.6120  152.0680 C   0  0  0  0  0  2  0  0  0  0  0  0
  160.0730  211.1640  154.6470 C   0  0  1  0  0  3  0  0  0  0  0  0
  158.7440  214.1820  154.4400 C   0  0  0  0  0  2  0  0  0  0  0  0
  161.1960  205.8150  149.8200 C   0  0  2  0  0  3  0  0  0  0  0  0
  160.6040  208.7950  153.9670 C   0  0  0  0  0  0  0  0  0  0  0  0
  159.7880  212.7750  152.9540 C   0  0  1  0  0  3  0  0  0  0  0  0
  160.8600  209.2520  152.6540 C   0  0  0  0  0  0  0  0  0  0  0  0
  160.0940  207.9130  156.5530 C   0  0  0  0  0  3  0  0  0  0  0  0
  161.6570  208.1930  149.1170 C   0  0  0  0  0  3  0  0  0  0  0  0
  159.9760  209.2310  156.2350 N   0  0  0  0  0  0  0  0  0  0  0  0
  161.3720  208.8480  150.2480 C   0  0  0  0  0  3  0  0  0  0  0  0
  161.8600  205.8340  151.1870 C   0  0  1  0  0  3  0  0  0  0  0  0
  160.4620  206.9820  155.5800 C   0  0  0  0  0  3  0  0  0  0  0  0
  161.1040  206.5450  153.2680 C   0  0  0  0  0  0  0  0  0  0  0  0
  161.2510  204.5300  149.2700 O   0  0  0  0  0  0  0  0  0  0  0  0
  161.2190  204.7330  147.8880 C   0  0  0  0  0  2  0  0  0  0  0  0
  160.6370  201.6770  146.6730 N   0  0  0  0  0  0  0  0  0  0  0  0
  161.4920  203.5480  145.7350 C   0  0  0  0  0  3  0  0  0  0  0  0
  161.8700  203.5570  147.1800 C   0  0  2  0  0  3  0  0  0  0  0  0
  160.7900  202.4520  145.4940 C   0  0  0  0  0  3  0  0  0  0  0  0
  161.2390  202.2870  147.6380 C   0  0  0  0  0  3  0  0  0  0  0  0
  1 26  2  0  0  0  0
  3 16  1  6  0  0  0
  4 23  1  0  0  0  0
  5 11  1  6  0  0  0
  5 15  1  0  0  0  0
  6  7  1  1  0  0  0
  6 19  1  0  0  0  0
  6  3  1  0  0  0  0
  7  3  1  0  0  0  0
  9 27  2  0  0  0  0
 10 22  1  0  0  0  0
 10 17  1  0  0  0  0
 11 20  1  0  0  0  0
 12  8  1  0  0  0  0
 13  9  1  0  0  0  0
 13 20  2  0  0  0  0
 14  2  1  0  0  0  0
 15  4  1  0  0  0  0
 15 12  1  1  0  0  0
 16  8  1  0  0  0  0
 17 28  1  6  0  0  0
 17 25  1  0  0  0  0
 18  1  1  0  0  0  0
 18  4  2  0  0  0  0
 19  5  1  0  0  0  0
 19  3  1  0  0  0  0
 20 18  1  0  0  0  0
 22 24  2  0  0  0  0
 23 21  2  0  0  0  0
 24 13  1  0  0  0  0
 25  9  1  0  0  0  0
 25 14  1  0  0  0  0
 26 21  1  0  0  0  0
 27  2  1  0  0  0  0
 27  1  1  0  0  0  0
 29 28  1  0  0  0  0
 30 34  2  0  0  0  0
 31 32  1  0  0  0  0
 32 34  1  0  0  0  0
 32 29  1  0  0  0  0
 33 31  2  0  0  0  0
 33 30  1  0  0  0  0
M  END
>  <MODEL>
1

>  <REMARK>
 VINA RESULT:     -10.2      0.000      0.000
  Name = 
  3 active torsions:
  status: ('A' for Active; 'I' for Inactive)
    1  A    between atoms: C_17  and  O_28
    2  A    between atoms: O_28  and  C_29
    3  A    between atoms: C_29  and  C_32
                            x       y       z     vdW  Elec       q    Type
                         _______ _______ _______ _____ _____    ______ ____

>  <TORSDO>
F 3

$$$$
=
 OpenBabel11122414333D

 34 42  0  0  1  0  0  0  0  0999 V2000
  161.0230  204.9770  152.0520 C   0  0  0  0  0  0  0  0  0  0  0  0
  161.2260  206.2980  154.1650 N   0  0  0  0  0  2  0  0  0  0  0  0
  162.4310  204.3520  145.8670 C   0  0  2  0  0  0  0  0  0  0  0  0
  160.9050  203.8370  149.9120 C   0  0  0  0  0  0  0  0  0  0  0  0
  161.5450  205.1020  147.9030 N   0  0  1  0  0  0  0  0  0  0  0  0
  162.3260  205.8550  145.6390 C   0  0  1  0  0  3  0  0  0  0  0  0
  163.0490  205.0090  144.7910 O   0  0  0  0  0  0  0  0  0  0  0  0
  160.9450  202.3370  146.3360 C   0  0  0  0  0  2  0  0  0  0  0  0
  161.1260  207.3890  152.1250 C   0  0  0  0  0  0  0  0  0  0  0  0
  161.4520  210.4850  151.8490 C   0  0  0  0  0  2  0  0  0  0  0  0
  160.9120  206.2910  148.4760 C   0  0  0  0  0  2  0  0  0  0  0  0
  161.4180  202.5850  147.7880 C   0  0  0  0  0  2  0  0  0  0  0  0
  161.1120  207.4880  150.7180 C   0  0  0  0  0  0  0  0  0  0  0  0
  161.4040  207.7140  154.4660 C   0  0  0  0  0  2  0  0  0  0  0  0
  160.8460  203.8890  148.4020 C   0  0  1  0  0  3  0  0  0  0  0  0
  161.6060  203.2320  145.2540 C   0  0  0  0  0  2  0  0  0  0  0  0
  162.1410  209.5460  152.8180 C   0  0  2  0  0  3  0  0  0  0  0  0
  160.9720  205.0360  150.6440 C   0  0  0  0  0  0  0  0  0  0  0  0
  161.3040  205.1560  146.4710 C   0  0  1  0  0  3  0  0  0  0  0  0
  161.0220  206.2830  149.9790 C   0  0  0  0  0  0  0  0  0  0  0  0
  160.8750  202.5760  151.9340 C   0  0  0  0  0  3  0  0  0  0  0  0
  161.4750  210.0060  150.4300 C   0  0  0  0  0  3  0  0  0  0  0  0
  160.8360  202.6480  150.5760 N   0  0  0  0  0  0  0  0  0  0  0  0
  161.3010  208.7600  149.9730 C   0  0  0  0  0  3  0  0  0  0  0  0
  161.1230  208.4670  153.1500 C   0  0  1  0  0  3  0  0  0  0  0  0
  160.9760  203.7400  152.6990 C   0  0  0  0  0  3  0  0  0  0  0  0
  161.1110  206.1740  152.7620 C   0  0  0  0  0  0  0  0  0  0  0  0
  162.4800  210.2650  153.9680 O   0  0  0  0  0  0  0  0  0  0  0  0
  161.3540  211.0430  154.2470 C   0  0  0  0  0  2  0  0  0  0  0  0
  160.6170  209.6520  157.1920 N   0  0  0  0  0  0  0  0  0  0  0  0
  162.4560  210.7300  156.4380 C   0  0  0  0  0  3  0  0  0  0  0  0
  161.2730  211.3160  155.7390 C   0  0  2  0  0  3  0  0  0  0  0  0
  162.0280  209.7850  157.2600 C   0  0  0  0  0  3  0  0  0  0  0  0
  160.1720  210.5080  156.3350 C   0  0  0  0  0  3  0  0  0  0  0  0
  1 26  1  0  0  0  0
  1 27  1  0  0  0  0
  2 14  1  0  0  0  0
  3 16  1  6  0  0  0
  3 19  1  0  0  0  0
  4 23  2  0  0  0  0
  4 18  1  0  0  0  0
  5 15  1  0  0  0  0
  5 11  1  1  0  0  0
  6  7  1  6  0  0  0
  6  3  1  0  0  0  0
  6 19  1  0  0  0  0
  7  3  1  0  0  0  0
  8 12  1  0  0  0  0
  9 27  2  0  0  0  0
  9 25  1  0  0  0  0
 10 17  1  0  0  0  0
 11 20  1  0  0  0  0
 13  9  1  0  0  0  0
 15 12  1  6  0  0  0
 15  4  1  0  0  0  0
 16  8  1  0  0  0  0
 17 25  1  0  0  0  0
 17 28  1  1  0  0  0
 18  1  2  0  0  0  0
 19  5  1  0  0  0  0
 20 18  1  0  0  0  0
 20 13  2  0  0  0  0
 21 26  2  0  0  0  0
 22 10  1  0  0  0  0
 23 21  1  0  0  0  0
 24 22  2  0  0  0  0
 24 13  1  0  0  0  0
 25 14  1  0  0  0  0
 27  2  1  0  0  0  0
 28 29  1  0  0  0  0
 29 32  1  0  0  0  0
 30 33  1  0  0  0  0
 31 33  2  0  0  0  0
 32 34  1  0  0  0  0
 32 31  1  0  0  0  0
 34 30  2  0  0  0  0
M  END
>  <MODEL>
2

>  <REMARK>
 VINA RESULT:      -9.5      2.371      8.728
  Name = 
  3 active torsions:
  status: ('A' for Active; 'I' for Inactive)
    1  A    between atoms: C_17  and  O_28
    2  A    between atoms: O_28  and  C_29
    3  A    between atoms: C_29  and  C_32
                            x       y       z     vdW  Elec       q    Type
                         _______ _______ _______ _____ _____    ______ ____

>  <TORSDO>
F 3

$$$$
=
 OpenBabel11122414333D

 34 42  0  0  1  0  0  0  0  0999 V2000
  160.7110  207.4570  154.5640 C   0  0  0  0  0  0  0  0  0  0  0  0
  161.3630  205.4490  153.2240 N   0  0  0  0  0  2  0  0  0  0  0  0
  158.1630  213.2980  154.7300 C   0  0  2  0  0  0  0  0  0  0  0  0
  160.0440  209.4940  155.7040 C   0  0  0  0  0  0  0  0  0  0  0  0
  159.5880  211.4810  154.3290 N   0  0  1  0  0  0  0  0  0  0  0  0
  158.7740  213.6570  153.3800 C   0  0  1  0  0  3  0  0  0  0  0  0
  157.6600  214.3200  153.9080 O   0  0  0  0  0  0  0  0  0  0  0  0
  158.8600  212.8940  157.1460 C   0  0  0  0  0  2  0  0  0  0  0  0
  161.5150  207.5630  152.2890 C   0  0  0  0  0  0  0  0  0  0  0  0
  162.3090  208.0330  149.3020 C   0  0  0  0  0  2  0  0  0  0  0  0
  160.7000  211.1040  153.4540 C   0  0  0  0  0  2  0  0  0  0  0  0
  158.7600  211.4130  156.7110 C   0  0  0  0  0  2  0  0  0  0  0  0
  161.3310  208.9590  152.2290 C   0  0  0  0  0  0  0  0  0  0  0  0
  161.7710  205.2400  151.8400 C   0  0  0  0  0  2  0  0  0  0  0  0
  159.8650  210.9960  155.7060 C   0  0  1  0  0  3  0  0  0  0  0  0
  158.4040  213.9340  156.0890 C   0  0  0  0  0  2  0  0  0  0  0  0
  161.4950  206.9010  149.8960 C   0  0  2  0  0  3  0  0  0  0  0  0
  160.5450  208.8580  154.5550 C   0  0  0  0  0  0  0  0  0  0  0  0
  159.5910  212.9320  154.3960 C   0  0  1  0  0  3  0  0  0  0  0  0
  160.8460  209.6060  153.3930 C   0  0  0  0  0  0  0  0  0  0  0  0
  159.9450  207.4040  156.8460 C   0  0  0  0  0  3  0  0  0  0  0  0
  161.8760  209.3910  149.7640 C   0  0  0  0  0  3  0  0  0  0  0  0
  159.7800  208.7550  156.8200 N   0  0  0  0  0  0  0  0  0  0  0  0
  161.5010  209.7670  150.9930 C   0  0  0  0  0  3  0  0  0  0  0  0
  162.0850  206.6380  151.2720 C   0  0  1  0  0  3  0  0  0  0  0  0
  160.4080  206.7280  155.7160 C   0  0  0  0  0  3  0  0  0  0  0  0
  161.1890  206.8400  153.4080 C   0  0  0  0  0  0  0  0  0  0  0  0
  161.6410  205.7740  149.0810 O   0  0  0  0  0  0  0  0  0  0  0  0
  161.6990  206.2810  147.7800 C   0  0  0  0  0  2  0  0  0  0  0  0
  161.0790  205.5980  144.5710 N   0  0  0  0  0  0  0  0  0  0  0  0
  161.6410  204.2840  146.3230 C   0  0  0  0  0  3  0  0  0  0  0  0
  160.8450  205.4290  146.8570 C   0  0  2  0  0  3  0  0  0  0  0  0
  161.7450  204.4250  145.0100 C   0  0  0  0  0  3  0  0  0  0  0  0
  160.5650  206.1810  145.6010 C   0  0  0  0  0  3  0  0  0  0  0  0
  1 26  2  0  0  0  0
  2 27  1  0  0  0  0
  3 16  1  1  0  0  0
  4 15  1  0  0  0  0
  4 23  1  0  0  0  0
  5 11  1  6  0  0  0
  5 19  1  0  0  0  0
  5 15  1  0  0  0  0
  6  7  1  1  0  0  0
  6 19  1  0  0  0  0
  6  3  1  0  0  0  0
  7  3  1  0  0  0  0
  9 27  2  0  0  0  0
 10 22  1  0  0  0  0
 10 17  1  0  0  0  0
 12  8  1  0  0  0  0
 13  9  1  0  0  0  0
 13 20  2  0  0  0  0
 14  2  1  0  0  0  0
 15 12  1  1  0  0  0
 16  8  1  0  0  0  0
 17 28  1  6  0  0  0
 17 25  1  0  0  0  0
 18  1  1  0  0  0  0
 18  4  2  0  0  0  0
 19  3  1  0  0  0  0
 20 11  1  0  0  0  0
 20 18  1  0  0  0  0
 22 24  2  0  0  0  0
 23 21  2  0  0  0  0
 24 13  1  0  0  0  0
 25 14  1  0  0  0  0
 25  9  1  0  0  0  0
 26 21  1  0  0  0  0
 27  1  1  0  0  0  0
 29 28  1  0  0  0  0
 30 33  1  0  0  0  0
 30 34  2  0  0  0  0
 31 32  1  0  0  0  0
 32 29  1  0  0  0  0
 33 31  2  0  0  0  0
 34 32  1  0  0  0  0
M  END
>  <MODEL>
3

>  <REMARK>
 VINA RESULT:      -9.4      1.332      1.599
  Name = 
  3 active torsions:
  status: ('A' for Active; 'I' for Inactive)
    1  A    between atoms: C_17  and  O_28
    2  A    between atoms: O_28  and  C_29
    3  A    between atoms: C_29  and  C_32
                            x       y       z     vdW  Elec       q    Type
                         _______ _______ _______ _____ _____    ______ ____

>  <TORSDO>
F 3

$$$$
=
 OpenBabel11122414333D

 34 42  0  0  1  0  0  0  0  0999 V2000
  161.5030  209.4590  150.9780 C   0  0  0  0  0  0  0  0  0  0  0  0
  161.0400  211.2970  152.6090 N   0  0  0  0  0  2  0  0  0  0  0  0
  160.4560  203.4590  149.0970 C   0  0  2  0  0  0  0  0  0  0  0  0
  161.8590  207.5600  149.5080 C   0  0  0  0  0  0  0  0  0  0  0  0
  161.1490  205.3450  150.3040 N   0  0  1  0  0  0  0  0  0  0  0  0
  160.3770  202.9680  150.5380 C   0  0  1  0  0  3  0  0  0  0  0  0
  159.8060  202.2710  149.4670 O   0  0  0  0  0  0  0  0  0  0  0  0
  162.1670  204.3110  147.4130 C   0  0  0  0  0  2  0  0  0  0  0  0
  161.0870  209.0960  153.3300 C   0  0  0  0  0  0  0  0  0  0  0  0
  160.3780  208.2640  156.2580 C   0  0  0  0  0  2  0  0  0  0  0  0
  161.5990  205.7080  151.6490 C   0  0  0  0  0  2  0  0  0  0  0  0
  161.6040  205.6850  147.8460 C   0  0  0  0  0  2  0  0  0  0  0  0
  161.1500  207.6950  153.1820 C   0  0  0  0  0  0  0  0  0  0  0  0
  160.6690  211.3350  154.0190 C   0  0  0  0  0  2  0  0  0  0  0  0
  161.9760  206.0670  149.3030 C   0  0  1  0  0  3  0  0  0  0  0  0
  161.4440  203.0740  148.0080 C   0  0  0  0  0  2  0  0  0  0  0  0
  159.7740  209.3720  155.4180 C   0  0  2  0  0  3  0  0  0  0  0  0
  161.6070  208.0640  150.7960 C   0  0  0  0  0  0  0  0  0  0  0  0
  161.4430  203.9320  150.1390 C   0  0  1  0  0  3  0  0  0  0  0  0
  161.4260  207.1860  151.8890 C   0  0  0  0  0  0  0  0  0  0  0  0
  161.9640  209.7760  148.6360 C   0  0  0  0  0  3  0  0  0  0  0  0
  160.4790  206.9530  155.5390 C   0  0  0  0  0  3  0  0  0  0  0  0
  162.0510  208.4280  148.4730 N   0  0  0  0  0  0  0  0  0  0  0  0
  160.8310  206.7310  154.2670 C   0  0  0  0  0  3  0  0  0  0  0  0
  160.9070  209.9110  154.5610 C   0  0  1  0  0  3  0  0  0  0  0  0
  161.6810  210.3180  149.8910 C   0  0  0  0  0  3  0  0  0  0  0  0
  161.2310  209.9410  152.2580 C   0  0  0  0  0  0  0  0  0  0  0  0
  159.2960  210.3680  156.2760 O   0  0  0  0  0  0  0  0  0  0  0  0
  157.9920  210.6160  155.8420 C   0  0  0  0  0  2  0  0  0  0  0  0
  155.9390  212.9860  154.6930 N   0  0  0  0  0  0  0  0  0  0  0  0
  156.5720  212.4070  156.7840 C   0  0  0  0  0  3  0  0  0  0  0  0
  157.7150  212.1090  155.8710 C   0  0  2  0  0  3  0  0  0  0  0  0
  155.5810  212.9090  156.0630 C   0  0  0  0  0  3  0  0  0  0  0  0
  157.1410  212.5360  154.5630 C   0  0  0  0  0  3  0  0  0  0  0  0
  1 27  1  0  0  0  0
  2 14  1  0  0  0  0
  3 16  1  1  0  0  0
  3  7  1  0  0  0  0
  3 19  1  0  0  0  0
  3  6  1  0  0  0  0
  4 18  1  0  0  0  0
  5 11  1  1  0  0  0
  6  7  1  6  0  0  0
  8 12  1  0  0  0  0
  8 16  1  0  0  0  0
  9 25  1  0  0  0  0
 11 20  1  0  0  0  0
 13  9  1  0  0  0  0
 13 24  1  0  0  0  0
 14 25  1  0  0  0  0
 15 12  1  6  0  0  0
 15  4  1  0  0  0  0
 15  5  1  0  0  0  0
 17 10  1  0  0  0  0
 17 28  1  1  0  0  0
 18  1  2  0  0  0  0
 18 20  1  0  0  0  0
 19  5  1  0  0  0  0
 19  6  1  0  0  0  0
 20 13  2  0  0  0  0
 21 26  2  0  0  0  0
 22 10  1  0  0  0  0
 23 21  1  0  0  0  0
 23  4  2  0  0  0  0
 24 22  2  0  0  0  0
 25 17  1  0  0  0  0
 26  1  1  0  0  0  0
 27  2  1  0  0  0  0
 27  9  2  0  0  0  0
 29 32  1  0  0  0  0
 29 28  1  0  0  0  0
 30 33  1  0  0  0  0
 32 31  1  0  0  0  0
 33 31  2  0  0  0  0
 34 30  2  0  0  0  0
 34 32  1  0  0  0  0
M  END
>  <MODEL>
4

>  <REMARK>
 VINA RESULT:      -9.0      2.208      9.094
  Name = 
  3 active torsions:
  status: ('A' for Active; 'I' for Inactive)
    1  A    between atoms: C_17  and  O_28
    2  A    between atoms: O_28  and  C_29
    3  A    between atoms: C_29  and  C_32
                            x       y       z     vdW  Elec       q    Type
                         _______ _______ _______ _____ _____    ______ ____

>  <TORSDO>
F 3

$$$$
=
 OpenBabel11122414333D

 34 42  0  0  1  0  0  0  0  0999 V2000
  161.6810  208.5110  150.2870 C   0  0  0  0  0  0  0  0  0  0  0  0
  161.4490  210.5630  151.6950 N   0  0  0  0  0  2  0  0  0  0  0  0
  160.0950  202.4280  149.2260 C   0  0  2  0  0  0  0  0  0  0  0  0
  161.8110  206.4260  149.0490 C   0  0  0  0  0  0  0  0  0  0  0  0
  160.9920  204.3860  150.1510 N   0  0  1  0  0  0  0  0  0  0  0  0
  160.0660  202.1230  150.7190 C   0  0  1  0  0  3  0  0  0  0  0  0
  159.3840  201.3490  149.7740 O   0  0  0  0  0  0  0  0  0  0  0  0
  161.7600  202.9330  147.3650 C   0  0  0  0  0  2  0  0  0  0  0  0
  161.3800  208.4690  152.6830 C   0  0  0  0  0  0  0  0  0  0  0  0
  160.7880  208.0550  155.7240 C   0  0  0  0  0  2  0  0  0  0  0  0
  161.5460  204.8730  151.4160 C   0  0  0  0  0  2  0  0  0  0  0  0
  161.3230  204.3890  147.6500 C   0  0  0  0  0  2  0  0  0  0  0  0
  161.3330  207.0600  152.7080 C   0  0  0  0  0  0  0  0  0  0  0  0
  161.1660  210.8010  153.1060 C   0  0  0  0  0  2  0  0  0  0  0  0
  161.8080  204.9140  149.0270 C   0  0  1  0  0  3  0  0  0  0  0  0
  160.9860  201.8380  148.1460 C   0  0  0  0  0  2  0  0  0  0  0  0
  160.2170  209.0980  154.7840 C   0  0  2  0  0  3  0  0  0  0  0  0
  161.6730  207.1000  150.2750 C   0  0  0  0  0  0  0  0  0  0  0  0
  161.1730  202.9450  150.1490 C   0  0  1  0  0  3  0  0  0  0  0  0
  161.4940  206.3770  151.4770 C   0  0  0  0  0  0  0  0  0  0  0  0
  162.0230  208.5050  147.9030 C   0  0  0  0  0  3  0  0  0  0  0  0
  160.7510  206.6630  155.1710 C   0  0  0  0  0  3  0  0  0  0  0  0
  162.0040  207.1440  147.9060 N   0  0  0  0  0  0  0  0  0  0  0  0
  161.0110  206.2620  153.9200 C   0  0  0  0  0  3  0  0  0  0  0  0
  161.3330  209.4380  153.8100 C   0  0  1  0  0  3  0  0  0  0  0  0
  161.8550  209.2150  149.0930 C   0  0  0  0  0  3  0  0  0  0  0  0
  161.5210  209.1630  151.5080 C   0  0  0  0  0  0  0  0  0  0  0  0
  159.8640  210.2250  155.5330 O   0  0  0  0  0  0  0  0  0  0  0  0
  158.4720  210.1620  155.6350 C   0  0  0  0  0  2  0  0  0  0  0  0
  158.8740  213.2710  154.4840 N   0  0  0  0  0  0  0  0  0  0  0  0
  157.1130  211.8530  154.4500 C   0  0  0  0  0  3  0  0  0  0  0  0
  157.8960  211.5670  155.6890 C   0  0  2  0  0  3  0  0  0  0  0  0
  157.7110  212.8370  153.7960 C   0  0  0  0  0  3  0  0  0  0  0  0
  158.9970  212.5620  155.5560 C   0  0  0  0  0  3  0  0  0  0  0  0
  1 27  1  0  0  0  0
  2 14  1  0  0  0  0
  3 16  1  1  0  0  0
  3  7  1  0  0  0  0
  3 19  1  0  0  0  0
  3  6  1  0  0  0  0
  4 18  1  0  0  0  0
  5 11  1  1  0  0  0
  6  7  1  6  0  0  0
  8 12  1  0  0  0  0
  8 16  1  0  0  0  0
  9 13  1  0  0  0  0
  9 25  1  0  0  0  0
 11 20  1  0  0  0  0
 13 24  1  0  0  0  0
 14 25  1  0  0  0  0
 15 12  1  6  0  0  0
 15  4  1  0  0  0  0
 15  5  1  0  0  0  0
 17 28  1  1  0  0  0
 17 10  1  0  0  0  0
 18  1  2  0  0  0  0
 18 20  1  0  0  0  0
 19  5  1  0  0  0  0
 19  6  1  0  0  0  0
 20 13  2  0  0  0  0
 21 23  1  0  0  0  0
 21 26  2  0  0  0  0
 22 10  1  0  0  0  0
 23  4  2  0  0  0  0
 24 22  2  0  0  0  0
 25 17  1  0  0  0  0
 26  1  1  0  0  0  0
 27  2  1  0  0  0  0
 27  9  2  0  0  0  0
 28 29  1  0  0  0  0
 29 32  1  0  0  0  0
 30 34  2  0  0  0  0
 31 32  1  0  0  0  0
 33 31  2  0  0  0  0
 33 30  1  0  0  0  0
 34 32  1  0  0  0  0
M  END
>  <MODEL>
5

>  <REMARK>
 VINA RESULT:      -8.8      2.078      9.099
  Name = 
  3 active torsions:
  status: ('A' for Active; 'I' for Inactive)
    1  A    between atoms: C_17  and  O_28
    2  A    between atoms: O_28  and  C_29
    3  A    between atoms: C_29  and  C_32
                            x       y       z     vdW  Elec       q    Type
                         _______ _______ _______ _____ _____    ______ ____

>  <TORSDO>
F 3

$$$$
=
 OpenBabel11122414333D

 34 42  0  0  1  0  0  0  0  0999 V2000
  161.7020  208.6270  149.6500 C   0  0  0  0  0  0  0  0  0  0  0  0
  162.0530  207.3130  147.5520 N   0  0  0  0  0  2  0  0  0  0  0  0
  161.7920  208.8390  156.0210 C   0  0  2  0  0  0  0  0  0  0  0  0
  161.3830  209.7440  151.7820 C   0  0  0  0  0  0  0  0  0  0  0  0
  161.2340  208.3460  153.7980 N   0  0  1  0  0  0  0  0  0  0  0  0
  161.2830  207.4060  156.1250 C   0  0  1  0  0  3  0  0  0  0  0  0
  161.9770  208.0410  157.1610 O   0  0  0  0  0  0  0  0  0  0  0  0
  160.9760  211.1620  155.3680 C   0  0  0  0  0  2  0  0  0  0  0  0
  161.2400  206.2650  149.4510 C   0  0  0  0  0  0  0  0  0  0  0  0
  160.7450  203.1820  149.5970 C   0  0  0  0  0  2  0  0  0  0  0  0
  160.4800  207.3540  153.0290 C   0  0  0  0  0  2  0  0  0  0  0  0
  161.6900  210.8150  154.0410 C   0  0  0  0  0  2  0  0  0  0  0  0
  160.8860  206.1620  150.8120 C   0  0  0  0  0  0  0  0  0  0  0  0
  161.9500  205.8990  147.2100 C   0  0  0  0  0  2  0  0  0  0  0  0
  160.9760  209.6970  153.2370 C   0  0  1  0  0  3  0  0  0  0  0  0
  161.1440  210.1230  156.5090 C   0  0  0  0  0  2  0  0  0  0  0  0
  161.8380  203.9290  148.8590 C   0  0  2  0  0  3  0  0  0  0  0  0
  161.3240  208.5720  151.0080 C   0  0  0  0  0  0  0  0  0  0  0  0
  160.6710  208.3420  155.1380 C   0  0  1  0  0  3  0  0  0  0  0  0
  160.9240  207.3470  151.5890 C   0  0  0  0  0  0  0  0  0  0  0  0
  162.1100  210.9890  149.8830 C   0  0  0  0  0  3  0  0  0  0  0  0
  160.5620  203.6300  151.0140 C   0  0  0  0  0  3  0  0  0  0  0  0
  161.7520  210.9190  151.1940 N   0  0  0  0  0  0  0  0  0  0  0  0
  160.5930  204.8770  151.4990 C   0  0  0  0  0  3  0  0  0  0  0  0
  161.2090  205.2280  148.3840 C   0  0  1  0  0  3  0  0  0  0  0  0
  162.0990  209.8420  149.0870 C   0  0  0  0  0  3  0  0  0  0  0  0
  161.6590  207.4500  148.9030 C   0  0  0  0  0  0  0  0  0  0  0  0
  162.2440  203.1570  147.7670 O   0  0  0  0  0  0  0  0  0  0  0  0
  161.0910  202.4840  147.3570 C   0  0  0  0  0  2  0  0  0  0  0  0
  159.2950  201.5580  144.6990 N   0  0  0  0  0  0  0  0  0  0  0  0
  160.6760  203.3100  145.0640 C   0  0  0  0  0  3  0  0  0  0  0  0
  161.1820  202.1630  145.8750 C   0  0  2  0  0  3  0  0  0  0  0  0
  159.5970  202.9130  144.4070 C   0  0  0  0  0  3  0  0  0  0  0  0
  160.1780  201.1170  145.5290 C   0  0  0  0  0  3  0  0  0  0  0  0
  1 18  1  0  0  0  0
  2 27  1  0  0  0  0
  3  6  1  0  0  0  0
  3 16  1  1  0  0  0
  3  7  1  0  0  0  0
  4 15  1  0  0  0  0
  5 11  1  6  0  0  0
  5 19  1  0  0  0  0
  6  7  1  1  0  0  0
  8 16  1  0  0  0  0
  9 13  1  0  0  0  0
 10 22  1  0  0  0  0
 12  8  1  0  0  0  0
 13 24  1  0  0  0  0
 13 20  2  0  0  0  0
 14  2  1  0  0  0  0
 14 25  1  0  0  0  0
 15  5  1  0  0  0  0
 15 12  1  1  0  0  0
 17 28  1  6  0  0  0
 17 10  1  0  0  0  0
 18 20  1  0  0  0  0
 18  4  2  0  0  0  0
 19  3  1  0  0  0  0
 19  6  1  0  0  0  0
 20 11  1  0  0  0  0
 21 23  2  0  0  0  0
 22 24  2  0  0  0  0
 23  4  1  0  0  0  0
 25 17  1  0  0  0  0
 25  9  1  0  0  0  0
 26  1  2  0  0  0  0
 26 21  1  0  0  0  0
 27  9  2  0  0  0  0
 27  1  1  0  0  0  0
 29 28  1  0  0  0  0
 30 34  2  0  0  0  0
 31 32  1  0  0  0  0
 32 29  1  0  0  0  0
 33 30  1  0  0  0  0
 33 31  2  0  0  0  0
 34 32  1  0  0  0  0
M  END
>  <MODEL>
6

>  <REMARK>
 VINA RESULT:      -8.7      2.472      4.427
  Name = 
  3 active torsions:
  status: ('A' for Active; 'I' for Inactive)
    1  A    between atoms: C_17  and  O_28
    2  A    between atoms: O_28  and  C_29
    3  A    between atoms: C_29  and  C_32
                            x       y       z     vdW  Elec       q    Type
                         _______ _______ _______ _____ _____    ______ ____

>  <TORSDO>
F 3

$$$$
=
 OpenBabel11122414333D

 34 42  0  0  1  0  0  0  0  0999 V2000
  161.1420  208.4910  151.9990 C   0  0  0  0  0  0  0  0  0  0  0  0
  161.0230  206.0570  152.5540 N   0  0  0  0  0  2  0  0  0  0  0  0
  160.3060  213.1480  147.7270 C   0  0  2  0  0  0  0  0  0  0  0  0
  161.2230  210.8100  151.2830 C   0  0  0  0  0  0  0  0  0  0  0  0
  161.1160  211.2690  148.8700 N   0  0  1  0  0  0  0  0  0  0  0  0
  160.7810  212.2560  146.5860 C   0  0  1  0  0  3  0  0  0  0  0  0
  159.9780  213.3830  146.3820 O   0  0  0  0  0  0  0  0  0  0  0  0
  161.2230  214.3770  149.7610 C   0  0  0  0  0  2  0  0  0  0  0  0
  161.5940  206.7280  150.4120 C   0  0  0  0  0  0  0  0  0  0  0  0
  162.0280  204.7060  148.0690 C   0  0  0  0  0  2  0  0  0  0  0  0
  161.9420  210.0850  148.6300 C   0  0  0  0  0  2  0  0  0  0  0  0
  160.6660  213.1400  150.5030 C   0  0  0  0  0  2  0  0  0  0  0  0
  161.7840  207.6480  149.3600 C   0  0  0  0  0  0  0  0  0  0  0  0
  161.1480  204.8300  151.7760 C   0  0  0  0  0  2  0  0  0  0  0  0
  161.4550  211.8390  150.2000 C   0  0  1  0  0  3  0  0  0  0  0  0
  160.9090  214.4440  148.2430 C   0  0  0  0  0  2  0  0  0  0  0  0
  161.0390  204.6260  149.2140 C   0  0  2  0  0  3  0  0  0  0  0  0
  161.3570  209.4440  150.9810 C   0  0  0  0  0  0  0  0  0  0  0  0
  161.5160  212.2580  147.8840 C   0  0  1  0  0  3  0  0  0  0  0  0
  161.6710  209.0260  149.6670 C   0  0  0  0  0  0  0  0  0  0  0  0
  160.7400  210.2830  153.5570 C   0  0  0  0  0  3  0  0  0  0  0  0
  162.0490  206.0380  147.3850 C   0  0  0  0  0  3  0  0  0  0  0  0
  160.9410  211.1900  152.5630 N   0  0  0  0  0  0  0  0  0  0  0  0
  161.9770  207.2550  147.9390 C   0  0  0  0  0  3  0  0  0  0  0  0
  161.7370  205.2470  150.4130 C   0  0  1  0  0  3  0  0  0  0  0  0
  160.8300  208.9160  153.2930 C   0  0  0  0  0  3  0  0  0  0  0  0
  161.2580  207.1400  151.6760 C   0  0  0  0  0  0  0  0  0  0  0  0
  160.7540  203.2790  149.4610 O   0  0  0  0  0  0  0  0  0  0  0  0
  161.4810  202.5780  148.4960 C   0  0  0  0  0  2  0  0  0  0  0  0
  160.8990  200.7490  145.7640 N   0  0  0  0  0  0  0  0  0  0  0  0
  161.4530  200.1840  147.8810 C   0  0  0  0  0  3  0  0  0  0  0  0
  160.6420  201.4360  147.9490 C   0  0  2  0  0  3  0  0  0  0  0  0
  161.5690  199.8300  146.6110 C   0  0  0  0  0  3  0  0  0  0  0  0
  160.3700  201.6670  146.5020 C   0  0  0  0  0  3  0  0  0  0  0  0
  1 26  2  0  0  0  0
  3 19  1  0  0  0  0
  3 16  1  6  0  0  0
  4 23  1  0  0  0  0
  5 11  1  6  0  0  0
  5 15  1  0  0  0  0
  6  7  1  6  0  0  0
  6  3  1  0  0  0  0
  6 19  1  0  0  0  0
  7  3  1  0  0  0  0
  8 12  1  0  0  0  0
  9 25  1  0  0  0  0
  9 27  2  0  0  0  0
 10 17  1  0  0  0  0
 11 20  1  0  0  0  0
 13 20  2  0  0  0  0
 13  9  1  0  0  0  0
 14  2  1  0  0  0  0
 15 12  1  1  0  0  0
 15  4  1  0  0  0  0
 16  8  1  0  0  0  0
 17 28  1  1  0  0  0
 17 25  1  0  0  0  0
 18  4  2  0  0  0  0
 18  1  1  0  0  0  0
 19  5  1  0  0  0  0
 20 18  1  0  0  0  0
 22 24  2  0  0  0  0
 22 10  1  0  0  0  0
 23 21  2  0  0  0  0
 24 13  1  0  0  0  0
 25 14  1  0  0  0  0
 26 21  1  0  0  0  0
 27  1  1  0  0  0  0
 27  2  1  0  0  0  0
 29 28  1  0  0  0  0
 30 34  2  0  0  0  0
 30 33  1  0  0  0  0
 31 32  1  0  0  0  0
 32 29  1  0  0  0  0
 33 31  2  0  0  0  0
 34 32  1  0  0  0  0
M  END
>  <MODEL>
7

>  <REMARK>
 VINA RESULT:      -7.6      2.435      3.722
  Name = 
  3 active torsions:
  status: ('A' for Active; 'I' for Inactive)
    1  A    between atoms: C_17  and  O_28
    2  A    between atoms: O_28  and  C_29
    3  A    between atoms: C_29  and  C_32
                            x       y       z     vdW  Elec       q    Type
                         _______ _______ _______ _____ _____    ______ ____

>  <TORSDO>
F 3

$$$$
