=
 OpenBabel11122414243D

 34 41  0  0  1  0  0  0  0  0999 V2000
  160.5980  208.5720  154.0920 C   0  0  0  0  0  0  0  0  0  0  0  0
  161.4850  206.1500  153.8760 C   0  0  0  0  0  3  0  0  0  0  0  0
  158.7240  214.0580  151.3330 C   0  0  0  0  0  0  0  0  0  0  0  0
  159.8330  210.8770  154.0690 C   0  0  0  0  0  0  0  0  0  0  0  0
  160.1050  212.1880  152.0380 C   0  0  0  0  0  0  0  0  0  0  0  0
  159.9320  213.3650  149.8810 C   0  0  0  0  0  2  0  0  0  0  0  0
  158.6640  213.9950  149.8930 O   0  0  0  0  0  0  0  0  0  0  0  0
  158.2690  214.2300  153.6590 C   0  0  0  0  0  3  0  0  0  0  0  0
  161.6350  207.6200  152.0510 C   0  0  0  0  0  0  0  0  0  0  0  0
  161.0010  206.6650  149.2080 C   0  0  0  0  0  3  0  0  0  0  0  0
  160.6970  211.1110  151.4440 N   0  0  0  0  0  0  0  0  0  0  0  0
  159.0240  213.2250  154.1330 C   0  0  0  0  0  3  0  0  0  0  0  0
  161.4850  208.7680  151.3830 C   0  0  0  0  0  0  0  0  0  0  0  0
  162.2220  205.4440  152.7250 C   0  0  0  0  0  3  0  0  0  0  0  0
  159.6510  212.0960  153.3850 C   0  0  0  0  0  0  0  0  0  0  0  0
  157.9290  214.4200  152.2810 N   0  0  0  0  0  0  0  0  0  0  0  0
  161.2200  205.8080  150.4420 C   0  0  2  0  0  3  0  0  0  0  0  0
  160.4270  209.7890  153.4110 C   0  0  0  0  0  0  0  0  0  0  0  0
  160.0920  213.4950  151.3010 C   0  0  1  0  0  3  0  0  0  0  0  0
  160.8540  209.9210  152.0780 C   0  0  0  0  0  0  0  0  0  0  0  0
  159.5870  209.5590  156.0410 C   0  0  0  0  0  3  0  0  0  0  0  0
  161.2880  207.9670  149.0230 C   0  0  0  0  0  3  0  0  0  0  0  0
  159.4300  210.7300  155.3640 N   0  0  0  0  0  0  0  0  0  0  0  0
  161.9990  208.8790  149.9840 C   0  0  0  0  0  2  0  0  0  0  0  0
  162.1880  206.3670  151.4910 C   0  0  1  0  0  3  0  0  0  0  0  0
  160.1760  208.4550  155.4170 C   0  0  0  0  0  3  0  0  0  0  0  0
  161.2140  207.4850  153.3900 N   0  0  0  0  0  0  0  0  0  0  0  0
  161.6200  204.5290  150.0440 O   0  0  0  0  0  0  0  0  0  0  0  0
  160.8910  204.2660  148.8750 C   0  0  0  0  0  2  0  0  0  0  0  0
  160.5850  201.8790  146.4380 C   0  0  0  0  0  2  0  0  0  0  0  0
  161.5780  204.0300  146.6060 C   0  0  0  0  0  2  0  0  0  0  0  0
  161.6540  203.4390  147.9380 N   0  0  0  0  0  0  0  0  0  0  0  0
  161.3110  202.9150  145.6260 C   0  0  0  0  0  2  0  0  0  0  0  0
  161.0490  202.1100  147.8610 C   0  0  0  0  0  2  0  0  0  0  0  0
  1 26  1  0  0  0  0
  3 16  2  0  0  0  0
  4 23  2  0  0  0  0
  5 15  2  0  0  0  0
  6  7  1  0  0  0  0
  7  3  1  0  0  0  0
  8 12  2  0  0  0  0
  9 27  1  0  0  0  0
 10 17  1  0  0  0  0
 11  5  1  0  0  0  0
 11 20  2  0  0  0  0
 13  9  2  0  0  0  0
 13 20  1  0  0  0  0
 14  2  2  0  0  0  0
 15  4  1  0  0  0  0
 15 12  1  0  0  0  0
 16  8  1  0  0  0  0
 17 28  1  6  0  0  0
 17 25  1  0  0  0  0
 18  4  1  0  0  0  0
 18  1  2  0  0  0  0
 19  6  1  6  0  0  0
 19  3  1  0  0  0  0
 19  5  1  0  0  0  0
 20 18  1  0  0  0  0
 22 10  2  0  0  0  0
 22 24  1  0  0  0  0
 23 21  1  0  0  0  0
 24 13  1  0  0  0  0
 25  9  1  0  0  0  0
 25 14  1  1  0  0  0
 26 21  2  0  0  0  0
 27  2  1  0  0  0  0
 27  1  1  0  0  0  0
 29 28  1  0  0  0  0
 30 34  1  0  0  0  0
 31 32  1  0  0  0  0
 32 29  1  0  0  0  0
 33 30  1  0  0  0  0
 33 31  1  0  0  0  0
 34 32  1  0  0  0  0
M  END
>  <MODEL>
1

>  <REMARK>
 VINA RESULT:      -9.3      0.000      0.000
  Name = 
  3 active torsions:
  status: ('A' for Active; 'I' for Inactive)
    1  A    between atoms: C_17  and  O_28
    2  A    between atoms: O_28  and  C_29
    3  A    between atoms: C_29  and  N_32
                            x       y       z     vdW  Elec       q    Type
                         _______ _______ _______ _____ _____    ______ ____

>  <TORSDO>
F 3

$$$$
=
 OpenBabel11122414243D

 34 41  0  0  1  0  0  0  0  0999 V2000
  160.7020  207.4540  153.9170 C   0  0  0  0  0  0  0  0  0  0  0  0
  161.3670  205.0480  153.2310 C   0  0  0  0  0  3  0  0  0  0  0  0
  159.0580  213.4370  152.2670 C   0  0  0  0  0  0  0  0  0  0  0  0
  160.1290  209.7770  154.3380 C   0  0  0  0  0  0  0  0  0  0  0  0
  160.3360  211.3880  152.5280 C   0  0  0  0  0  0  0  0  0  0  0  0
  160.0800  212.9180  150.6140 C   0  0  0  0  0  2  0  0  0  0  0  0
  158.8730  213.6200  150.8480 O   0  0  0  0  0  0  0  0  0  0  0  0
  158.8140  213.2470  154.6240 C   0  0  0  0  0  3  0  0  0  0  0  0
  161.4840  206.7900  151.6590 C   0  0  0  0  0  0  0  0  0  0  0  0
  160.5390  206.3680  148.7740 C   0  0  0  0  0  3  0  0  0  0  0  0
  160.7860  210.3880  151.7140 N   0  0  0  0  0  0  0  0  0  0  0  0
  159.5220  212.1290  154.8560 C   0  0  0  0  0  3  0  0  0  0  0  0
  161.3720  208.0410  151.2020 C   0  0  0  0  0  0  0  0  0  0  0  0
  161.9450  204.4980  151.9160 C   0  0  0  0  0  3  0  0  0  0  0  0
  159.9900  211.1020  153.8790 C   0  0  0  0  0  0  0  0  0  0  0  0
  158.3770  213.6880  153.3330 N   0  0  0  0  0  0  0  0  0  0  0  0
  160.7890  205.3040  149.8270 C   0  0  2  0  0  3  0  0  0  0  0  0
  160.5750  208.7760  153.4600 C   0  0  0  0  0  0  0  0  0  0  0  0
  160.3680  212.7980  152.0150 C   0  0  1  0  0  3  0  0  0  0  0  0
  160.8980  209.1010  152.1300 C   0  0  0  0  0  0  0  0  0  0  0  0
  159.9410  208.1660  156.0870 C   0  0  0  0  0  3  0  0  0  0  0  0
  160.9140  207.6610  148.7740 C   0  0  0  0  0  3  0  0  0  0  0  0
  159.8240  209.4420  155.6250 N   0  0  0  0  0  0  0  0  0  0  0  0
  161.7750  208.3500  149.7960 C   0  0  0  0  0  2  0  0  0  0  0  0
  161.8840  205.6140  150.8560 C   0  0  1  0  0  3  0  0  0  0  0  0
  160.3840  207.1460  155.2410 C   0  0  0  0  0  3  0  0  0  0  0  0
  161.1670  206.4610  152.9940 N   0  0  0  0  0  0  0  0  0  0  0  0
  161.0490  204.0870  149.1930 O   0  0  0  0  0  0  0  0  0  0  0  0
  161.5910  204.4330  147.9460 C   0  0  0  0  0  2  0  0  0  0  0  0
  160.3020  201.4830  146.7780 C   0  0  0  0  0  2  0  0  0  0  0  0
  161.3260  203.3990  145.8170 C   0  0  0  0  0  2  0  0  0  0  0  0
  161.9070  203.2480  147.1480 N   0  0  0  0  0  0  0  0  0  0  0  0
  160.6720  202.0890  145.4540 C   0  0  0  0  0  2  0  0  0  0  0  0
  161.2930  202.0710  147.7620 C   0  0  0  0  0  2  0  0  0  0  0  0
  1 26  1  0  0  0  0
  3 16  2  0  0  0  0
  4 23  2  0  0  0  0
  5 15  2  0  0  0  0
  6  7  1  0  0  0  0
  7  3  1  0  0  0  0
  8 12  2  0  0  0  0
  9 27  1  0  0  0  0
 10 17  1  0  0  0  0
 11 20  2  0  0  0  0
 11  5  1  0  0  0  0
 13  9  2  0  0  0  0
 13 20  1  0  0  0  0
 14  2  2  0  0  0  0
 15  4  1  0  0  0  0
 15 12  1  0  0  0  0
 16  8  1  0  0  0  0
 17 28  1  6  0  0  0
 17 25  1  0  0  0  0
 18  1  2  0  0  0  0
 18  4  1  0  0  0  0
 19  6  1  6  0  0  0
 19  3  1  0  0  0  0
 19  5  1  0  0  0  0
 20 18  1  0  0  0  0
 22 10  2  0  0  0  0
 22 24  1  0  0  0  0
 23 21  1  0  0  0  0
 24 13  1  0  0  0  0
 25  9  1  0  0  0  0
 25 14  1  1  0  0  0
 26 21  2  0  0  0  0
 27  2  1  0  0  0  0
 27  1  1  0  0  0  0
 29 28  1  0  0  0  0
 30 34  1  0  0  0  0
 31 32  1  0  0  0  0
 32 34  1  0  0  0  0
 32 29  1  0  0  0  0
 33 31  1  0  0  0  0
 33 30  1  0  0  0  0
M  END
>  <MODEL>
2

>  <REMARK>
 VINA RESULT:      -9.2      0.948      1.061
  Name = 
  3 active torsions:
  status: ('A' for Active; 'I' for Inactive)
    1  A    between atoms: C_17  and  O_28
    2  A    between atoms: O_28  and  C_29
    3  A    between atoms: C_29  and  N_32
                            x       y       z     vdW  Elec       q    Type
                         _______ _______ _______ _____ _____    ______ ____

>  <TORSDO>
F 3

$$$$
=
 OpenBabel11122414243D

 34 41  0  0  1  0  0  0  0  0999 V2000
  161.6880  208.0040  149.9080 C   0  0  0  0  0  0  0  0  0  0  0  0
  161.8190  210.2080  151.2580 C   0  0  0  0  0  3  0  0  0  0  0  0
  160.4180  201.7150  149.6670 C   0  0  0  0  0  0  0  0  0  0  0  0
  161.5570  205.8210  148.8490 C   0  0  0  0  0  0  0  0  0  0  0  0
  161.4460  203.8370  150.2510 C   0  0  0  0  0  0  0  0  0  0  0  0
  160.8540  201.8790  151.6240 C   0  0  0  0  0  2  0  0  0  0  0  0
  159.8620  201.1860  150.8890 O   0  0  0  0  0  0  0  0  0  0  0  0
  160.8300  202.4510  147.4460 C   0  0  0  0  0  3  0  0  0  0  0  0
  161.7060  208.1490  152.3830 C   0  0  0  0  0  0  0  0  0  0  0  0
  159.9350  207.8090  154.8620 C   0  0  0  0  0  3  0  0  0  0  0  0
  161.5150  204.6360  151.3560 N   0  0  0  0  0  0  0  0  0  0  0  0
  161.4260  203.6320  147.6840 C   0  0  0  0  0  3  0  0  0  0  0  0
  161.6290  206.8210  152.5080 C   0  0  0  0  0  0  0  0  0  0  0  0
  161.9260  210.4590  152.7720 C   0  0  0  0  0  3  0  0  0  0  0  0
  161.4640  204.4190  148.9520 C   0  0  0  0  0  0  0  0  0  0  0  0
  160.1050  201.6890  148.4170 N   0  0  0  0  0  0  0  0  0  0  0  0
  160.3370  209.1080  154.1870 C   0  0  2  0  0  3  0  0  0  0  0  0
  161.6050  206.6050  150.0130 C   0  0  0  0  0  0  0  0  0  0  0  0
  161.5100  202.3500  150.4380 C   0  0  1  0  0  3  0  0  0  0  0  0
  161.5760  205.9890  151.2770 C   0  0  0  0  0  0  0  0  0  0  0  0
  161.6710  207.7920  147.5100 C   0  0  0  0  0  3  0  0  0  0  0  0
  160.4560  206.5780  154.7030 C   0  0  0  0  0  3  0  0  0  0  0  0
  161.5910  206.4380  147.6320 N   0  0  0  0  0  0  0  0  0  0  0  0
  161.6530  206.2060  153.8710 C   0  0  0  0  0  2  0  0  0  0  0  0
  161.7090  209.1180  153.5010 C   0  0  1  0  0  3  0  0  0  0  0  0
  161.7220  208.6030  148.6480 C   0  0  0  0  0  3  0  0  0  0  0  0
  161.7410  208.7710  151.1170 N   0  0  0  0  0  0  0  0  0  0  0  0
  160.2490  210.1510  155.1130 O   0  0  0  0  0  0  0  0  0  0  0  0
  158.8860  210.2420  155.4310 C   0  0  0  0  0  2  0  0  0  0  0  0
  158.9720  213.0760  153.5100 C   0  0  0  0  0  2  0  0  0  0  0  0
  157.2790  211.6850  154.4260 C   0  0  0  0  0  2  0  0  0  0  0  0
  158.4050  211.6230  155.3520 N   0  0  0  0  0  0  0  0  0  0  0  0
  157.4810  212.8910  153.5420 C   0  0  0  0  0  2  0  0  0  0  0  0
  159.4640  212.4740  154.8100 C   0  0  0  0  0  2  0  0  0  0  0  0
  1 18  1  0  0  0  0
  1 27  1  0  0  0  0
  2 14  2  0  0  0  0
  3 19  1  0  0  0  0
  3  7  1  0  0  0  0
  4 15  2  0  0  0  0
  4 18  1  0  0  0  0
  5 19  1  0  0  0  0
  5 11  2  0  0  0  0
  7  6  1  0  0  0  0
  8 12  2  0  0  0  0
  8 16  1  0  0  0  0
  9 13  2  0  0  0  0
  9 25  1  0  0  0  0
 12 15  1  0  0  0  0
 13 24  1  0  0  0  0
 15  5  1  0  0  0  0
 16  3  2  0  0  0  0
 17 10  1  0  0  0  0
 17 28  1  1  0  0  0
 18 20  2  0  0  0  0
 19  6  1  1  0  0  0
 20 11  1  0  0  0  0
 20 13  1  0  0  0  0
 21 23  2  0  0  0  0
 21 26  1  0  0  0  0
 22 10  2  0  0  0  0
 23  4  1  0  0  0  0
 24 22  1  0  0  0  0
 25 14  1  6  0  0  0
 25 17  1  0  0  0  0
 26  1  2  0  0  0  0
 27  2  1  0  0  0  0
 27  9  1  0  0  0  0
 28 29  1  0  0  0  0
 30 33  1  0  0  0  0
 30 34  1  0  0  0  0
 31 32  1  0  0  0  0
 32 29  1  0  0  0  0
 33 31  1  0  0  0  0
 34 32  1  0  0  0  0
M  END
>  <MODEL>
3

>  <REMARK>
 VINA RESULT:      -8.0      2.144      8.966
  Name = 
  3 active torsions:
  status: ('A' for Active; 'I' for Inactive)
    1  A    between atoms: C_17  and  O_28
    2  A    between atoms: O_28  and  C_29
    3  A    between atoms: C_29  and  N_32
                            x       y       z     vdW  Elec       q    Type
                         _______ _______ _______ _____ _____    ______ ____

>  <TORSDO>
F 3

$$$$
=
 OpenBabel11122414243D

 34 41  0  0  1  0  0  0  0  0999 V2000
  161.5900  208.9930  151.1050 C   0  0  0  0  0  0  0  0  0  0  0  0
  161.4510  210.9960  152.7390 C   0  0  0  0  0  3  0  0  0  0  0  0
  160.7180  202.7480  149.8990 C   0  0  0  0  0  0  0  0  0  0  0  0
  161.6990  206.9730  149.7600 C   0  0  0  0  0  0  0  0  0  0  0  0
  161.5540  204.8120  150.8680 C   0  0  0  0  0  0  0  0  0  0  0  0
  160.9350  202.6620  151.8970 C   0  0  0  0  0  2  0  0  0  0  0  0
  160.0680  202.0330  150.9700 O   0  0  0  0  0  0  0  0  0  0  0  0
  161.3190  203.7990  147.8540 C   0  0  0  0  0  3  0  0  0  0  0  0
  161.3390  208.7990  153.5640 C   0  0  0  0  0  0  0  0  0  0  0  0
  159.3400  208.0470  155.7620 C   0  0  0  0  0  3  0  0  0  0  0  0
  161.4610  205.4550  152.0690 N   0  0  0  0  0  0  0  0  0  0  0  0
  161.8180  204.9600  148.3100 C   0  0  0  0  0  3  0  0  0  0  0  0
  161.3260  207.4640  153.5040 C   0  0  0  0  0  0  0  0  0  0  0  0
  161.3830  211.0410  154.2750 C   0  0  0  0  0  3  0  0  0  0  0  0
  161.6760  205.5670  149.6670 C   0  0  0  0  0  0  0  0  0  0  0  0
  160.5410  202.8800  148.6290 N   0  0  0  0  0  0  0  0  0  0  0  0
  159.7350  209.4420  155.3130 C   0  0  2  0  0  3  0  0  0  0  0  0
  161.5780  207.5910  151.0150 C   0  0  0  0  0  0  0  0  0  0  0  0
  161.6840  203.3180  150.8630 C   0  0  1  0  0  3  0  0  0  0  0  0
  161.4520  206.8080  152.1760 C   0  0  0  0  0  0  0  0  0  0  0  0
  161.8390  209.1110  148.7130 C   0  0  0  0  0  3  0  0  0  0  0  0
  159.9450  206.8730  155.5020 C   0  0  0  0  0  3  0  0  0  0  0  0
  161.8250  207.7510  148.6470 N   0  0  0  0  0  0  0  0  0  0  0  0
  161.2420  206.6710  154.7680 C   0  0  0  0  0  2  0  0  0  0  0  0
  161.1680  209.6050  154.7930 C   0  0  1  0  0  3  0  0  0  0  0  0
  161.7220  209.7600  149.9460 C   0  0  0  0  0  3  0  0  0  0  0  0
  161.4720  209.5890  152.4030 N   0  0  0  0  0  0  0  0  0  0  0  0
  159.4900  210.3430  156.3520 O   0  0  0  0  0  0  0  0  0  0  0  0
  158.1410  210.7020  156.2140 C   0  0  0  0  0  2  0  0  0  0  0  0
  155.9670  212.8780  154.7080 C   0  0  0  0  0  2  0  0  0  0  0  0
  158.2850  212.8650  155.2280 C   0  0  0  0  0  2  0  0  0  0  0  0
  157.9100  211.4740  154.9920 N   0  0  0  0  0  0  0  0  0  0  0  0
  157.2000  213.7350  154.6430 C   0  0  0  0  0  2  0  0  0  0  0  0
  156.4840  211.4550  154.6680 C   0  0  0  0  0  2  0  0  0  0  0  0
  1 27  1  0  0  0  0
  2 14  2  0  0  0  0
  3 19  1  0  0  0  0
  3  7  1  0  0  0  0
  4 18  1  0  0  0  0
  5 11  2  0  0  0  0
  7  6  1  0  0  0  0
  8 12  2  0  0  0  0
  8 16  1  0  0  0  0
  9 25  1  0  0  0  0
 11 20  1  0  0  0  0
 12 15  1  0  0  0  0
 13  9  2  0  0  0  0
 13 24  1  0  0  0  0
 15  4  2  0  0  0  0
 15  5  1  0  0  0  0
 16  3  2  0  0  0  0
 17 10  1  0  0  0  0
 17 28  1  1  0  0  0
 18  1  1  0  0  0  0
 18 20  2  0  0  0  0
 19  5  1  0  0  0  0
 19  6  1  1  0  0  0
 20 13  1  0  0  0  0
 21 26  1  0  0  0  0
 22 10  2  0  0  0  0
 23 21  2  0  0  0  0
 23  4  1  0  0  0  0
 24 22  1  0  0  0  0
 25 14  1  6  0  0  0
 25 17  1  0  0  0  0
 26  1  2  0  0  0  0
 27  2  1  0  0  0  0
 27  9  1  0  0  0  0
 29 28  1  0  0  0  0
 32 31  1  0  0  0  0
 32 29  1  0  0  0  0
 33 30  1  0  0  0  0
 33 31  1  0  0  0  0
 34 30  1  0  0  0  0
 34 32  1  0  0  0  0
M  END
>  <MODEL>
4

>  <REMARK>
 VINA RESULT:      -7.9      2.333      8.753
  Name = 
  3 active torsions:
  status: ('A' for Active; 'I' for Inactive)
    1  A    between atoms: C_17  and  O_28
    2  A    between atoms: O_28  and  C_29
    3  A    between atoms: C_29  and  N_32
                            x       y       z     vdW  Elec       q    Type
                         _______ _______ _______ _____ _____    ______ ____

>  <TORSDO>
F 3

$$$$
=
 OpenBabel11122414243D

 34 41  0  0  1  0  0  0  0  0999 V2000
  160.7520  207.8990  154.0660 C   0  0  0  0  0  0  0  0  0  0  0  0
  161.8600  205.7470  153.1480 C   0  0  0  0  0  3  0  0  0  0  0  0
  158.2930  213.7400  153.0390 C   0  0  0  0  0  0  0  0  0  0  0  0
  159.7710  210.0230  154.7200 C   0  0  0  0  0  0  0  0  0  0  0  0
  159.8640  211.8920  153.1670 C   0  0  0  0  0  0  0  0  0  0  0  0
  159.5230  213.6270  151.4520 C   0  0  0  0  0  2  0  0  0  0  0  0
  158.2010  214.0970  151.6440 O   0  0  0  0  0  0  0  0  0  0  0  0
  157.8840  213.1760  155.3110 C   0  0  0  0  0  3  0  0  0  0  0  0
  161.8210  207.6950  151.8380 C   0  0  0  0  0  0  0  0  0  0  0  0
  161.2070  207.5580  148.8380 C   0  0  0  0  0  3  0  0  0  0  0  0
  160.5390  211.1000  152.2840 N   0  0  0  0  0  0  0  0  0  0  0  0
  158.7430  212.1560  155.4710 C   0  0  0  0  0  3  0  0  0  0  0  0
  161.5450  208.9680  151.5370 C   0  0  0  0  0  0  0  0  0  0  0  0
  162.6300  205.4860  151.8430 C   0  0  0  0  0  3  0  0  0  0  0  0
  159.4560  211.3640  154.4250 C   0  0  0  0  0  0  0  0  0  0  0  0
  157.4920  213.7280  154.0490 N   0  0  0  0  0  0  0  0  0  0  0  0
  161.5390  206.4030  149.7650 C   0  0  2  0  0  3  0  0  0  0  0  0
  160.4480  209.2390  153.7720 C   0  0  0  0  0  0  0  0  0  0  0  0
  159.7070  213.3490  152.8470 C   0  0  1  0  0  3  0  0  0  0  0  0
  160.8260  209.7980  152.5390 C   0  0  0  0  0  0  0  0  0  0  0  0
  159.7030  208.1660  156.2160 C   0  0  0  0  0  3  0  0  0  0  0  0
  161.3640  208.8790  149.0450 C   0  0  0  0  0  3  0  0  0  0  0  0
  159.4180  209.4620  155.9130 N   0  0  0  0  0  0  0  0  0  0  0  0
  162.0100  209.5350  150.2340 C   0  0  0  0  0  2  0  0  0  0  0  0
  162.4770  206.7230  150.9360 C   0  0  1  0  0  3  0  0  0  0  0  0
  160.3780  207.3570  155.2960 C   0  0  0  0  0  3  0  0  0  0  0  0
  161.4510  207.1320  153.0770 N   0  0  0  0  0  0  0  0  0  0  0  0
  162.0490  205.3440  149.0100 O   0  0  0  0  0  0  0  0  0  0  0  0
  160.9250  204.7350  148.4310 C   0  0  0  0  0  2  0  0  0  0  0  0
  162.2200  205.8280  145.4550 C   0  0  0  0  0  2  0  0  0  0  0  0
  162.5880  203.9800  146.9020 C   0  0  0  0  0  2  0  0  0  0  0  0
  161.1800  204.3390  147.0450 N   0  0  0  0  0  0  0  0  0  0  0  0
  163.0940  204.6180  145.6320 C   0  0  0  0  0  2  0  0  0  0  0  0
  160.9270  205.4760  146.1610 C   0  0  0  0  0  2  0  0  0  0  0  0
  1 26  1  0  0  0  0
  3 16  2  0  0  0  0
  4 23  2  0  0  0  0
  5 15  2  0  0  0  0
  6  7  1  0  0  0  0
  7  3  1  0  0  0  0
  8 12  2  0  0  0  0
  9 27  1  0  0  0  0
 10 22  2  0  0  0  0
 10 17  1  0  0  0  0
 11 20  2  0  0  0  0
 11  5  1  0  0  0  0
 13  9  2  0  0  0  0
 13 20  1  0  0  0  0
 14  2  2  0  0  0  0
 15  4  1  0  0  0  0
 15 12  1  0  0  0  0
 16  8  1  0  0  0  0
 17 28  1  6  0  0  0
 17 25  1  0  0  0  0
 18  1  2  0  0  0  0
 18  4  1  0  0  0  0
 19  6  1  6  0  0  0
 19  3  1  0  0  0  0
 19  5  1  0  0  0  0
 20 18  1  0  0  0  0
 22 24  1  0  0  0  0
 23 21  1  0  0  0  0
 24 13  1  0  0  0  0
 25  9  1  0  0  0  0
 25 14  1  1  0  0  0
 26 21  2  0  0  0  0
 27  2  1  0  0  0  0
 27  1  1  0  0  0  0
 29 28  1  0  0  0  0
 30 33  1  0  0  0  0
 30 34  1  0  0  0  0
 31 32  1  0  0  0  0
 32 29  1  0  0  0  0
 33 31  1  0  0  0  0
 34 32  1  0  0  0  0
M  END
>  <MODEL>
5

>  <REMARK>
 VINA RESULT:      -7.9      1.236      1.577
  Name = 
  3 active torsions:
  status: ('A' for Active; 'I' for Inactive)
    1  A    between atoms: C_17  and  O_28
    2  A    between atoms: O_28  and  C_29
    3  A    between atoms: C_29  and  N_32
                            x       y       z     vdW  Elec       q    Type
                         _______ _______ _______ _____ _____    ______ ____

>  <TORSDO>
F 3

$$$$
=
 OpenBabel11122414243D

 34 41  0  0  1  0  0  0  0  0999 V2000
  161.6550  207.6640  149.5000 C   0  0  0  0  0  0  0  0  0  0  0  0
  161.8500  209.8870  150.8100 C   0  0  0  0  0  3  0  0  0  0  0  0
  160.3280  201.3830  149.4010 C   0  0  0  0  0  0  0  0  0  0  0  0
  161.4710  205.4670  148.4800 C   0  0  0  0  0  0  0  0  0  0  0  0
  161.3920  203.5050  149.9160 C   0  0  0  0  0  0  0  0  0  0  0  0
  160.8330  201.5740  151.3380 C   0  0  0  0  0  2  0  0  0  0  0  0
  159.8100  200.8770  150.6490 O   0  0  0  0  0  0  0  0  0  0  0  0
  160.6700  202.0820  147.1550 C   0  0  0  0  0  3  0  0  0  0  0  0
  161.7590  207.8470  151.9700 C   0  0  0  0  0  0  0  0  0  0  0  0
  160.0720  207.5600  154.5130 C   0  0  0  0  0  3  0  0  0  0  0  0
  161.5060  204.3200  151.0050 N   0  0  0  0  0  0  0  0  0  0  0  0
  161.2830  203.2610  147.3540 C   0  0  0  0  0  3  0  0  0  0  0  0
  161.6760  206.5210  152.1190 C   0  0  0  0  0  0  0  0  0  0  0  0
  162.0110  210.1600  152.3160 C   0  0  0  0  0  3  0  0  0  0  0  0
  161.3700  204.0670  148.6070 C   0  0  0  0  0  0  0  0  0  0  0  0
  159.9720  201.3400  148.1620 N   0  0  0  0  0  0  0  0  0  0  0  0
  160.4610  208.8450  153.8050 C   0  0  2  0  0  3  0  0  0  0  0  0
  161.5650  206.2680  149.6290 C   0  0  0  0  0  0  0  0  0  0  0  0
  161.4510  202.0200  150.1230 C   0  0  1  0  0  3  0  0  0  0  0  0
  161.5750  205.6710  150.9030 C   0  0  0  0  0  0  0  0  0  0  0  0
  161.5540  207.4150  147.1070 C   0  0  0  0  0  3  0  0  0  0  0  0
  160.5780  206.3220  154.3550 C   0  0  0  0  0  3  0  0  0  0  0  0
  161.4680  206.0640  147.2530 N   0  0  0  0  0  0  0  0  0  0  0  0
  161.7420  205.9270  153.4890 C   0  0  0  0  0  2  0  0  0  0  0  0
  161.8080  208.8330  153.0720 C   0  0  1  0  0  3  0  0  0  0  0  0
  161.6500  208.2430  148.2300 C   0  0  0  0  0  3  0  0  0  0  0  0
  161.7560  208.4490  150.6940 N   0  0  0  0  0  0  0  0  0  0  0  0
  160.4130  209.9020  154.7170 O   0  0  0  0  0  0  0  0  0  0  0  0
  159.9930  209.3230  155.9240 C   0  0  0  0  0  2  0  0  0  0  0  0
  163.0920  210.2440  157.0530 C   0  0  0  0  0  2  0  0  0  0  0  0
  160.9780  211.3010  156.8140 C   0  0  0  0  0  2  0  0  0  0  0  0
  160.7040  209.8900  157.0710 N   0  0  0  0  0  0  0  0  0  0  0  0
  162.4060  211.5700  157.2220 C   0  0  0  0  0  2  0  0  0  0  0  0
  161.9930  209.2160  157.2240 C   0  0  0  0  0  2  0  0  0  0  0  0
  1 18  1  0  0  0  0
  1 27  1  0  0  0  0
  2 14  2  0  0  0  0
  3 19  1  0  0  0  0
  3  7  1  0  0  0  0
  4 15  2  0  0  0  0
  4 18  1  0  0  0  0
  5 19  1  0  0  0  0
  5 11  2  0  0  0  0
  7  6  1  0  0  0  0
  8 12  2  0  0  0  0
  8 16  1  0  0  0  0
  9 13  2  0  0  0  0
  9 25  1  0  0  0  0
 12 15  1  0  0  0  0
 13 24  1  0  0  0  0
 15  5  1  0  0  0  0
 16  3  2  0  0  0  0
 17 10  1  0  0  0  0
 17 28  1  1  0  0  0
 18 20  2  0  0  0  0
 19  6  1  1  0  0  0
 20 11  1  0  0  0  0
 20 13  1  0  0  0  0
 21 23  2  0  0  0  0
 21 26  1  0  0  0  0
 22 10  2  0  0  0  0
 23  4  1  0  0  0  0
 24 22  1  0  0  0  0
 25 14  1  6  0  0  0
 25 17  1  0  0  0  0
 26  1  2  0  0  0  0
 27  2  1  0  0  0  0
 27  9  1  0  0  0  0
 28 29  1  0  0  0  0
 29 32  1  0  0  0  0
 30 33  1  0  0  0  0
 30 34  1  0  0  0  0
 31 32  1  0  0  0  0
 31 33  1  0  0  0  0
 32 34  1  0  0  0  0
M  END
>  <MODEL>
6

>  <REMARK>
 VINA RESULT:      -7.9      2.871      9.180
  Name = 
  3 active torsions:
  status: ('A' for Active; 'I' for Inactive)
    1  A    between atoms: C_17  and  O_28
    2  A    between atoms: O_28  and  C_29
    3  A    between atoms: C_29  and  N_32
                            x       y       z     vdW  Elec       q    Type
                         _______ _______ _______ _____ _____    ______ ____

>  <TORSDO>
F 3

$$$$
=
 OpenBabel11122414243D

 34 41  0  0  1  0  0  0  0  0999 V2000
  160.8120  208.8140  152.9720 C   0  0  0  0  0  0  0  0  0  0  0  0
  161.0750  206.3050  153.5490 C   0  0  0  0  0  3  0  0  0  0  0  0
  160.4130  213.4840  148.5840 C   0  0  0  0  0  0  0  0  0  0  0  0
  160.6430  211.1160  152.2130 C   0  0  0  0  0  0  0  0  0  0  0  0
  161.2730  211.6500  149.9250 C   0  0  0  0  0  0  0  0  0  0  0  0
  161.4410  212.1250  147.5140 C   0  0  0  0  0  2  0  0  0  0  0  0
  160.3680  213.0030  147.2240 O   0  0  0  0  0  0  0  0  0  0  0  0
  159.9680  214.4520  150.7080 C   0  0  0  0  0  3  0  0  0  0  0  0
  161.6220  207.0770  151.3990 C   0  0  0  0  0  0  0  0  0  0  0  0
  160.8290  205.4790  148.9070 C   0  0  0  0  0  3  0  0  0  0  0  0
  161.5910  210.3380  149.7260 N   0  0  0  0  0  0  0  0  0  0  0  0
  160.4400  213.4920  151.5210 C   0  0  0  0  0  3  0  0  0  0  0  0
  161.7750  207.9710  150.4170 C   0  0  0  0  0  0  0  0  0  0  0  0
  161.6370  205.1340  152.7250 C   0  0  0  0  0  3  0  0  0  0  0  0
  160.7830  212.0770  151.1930 C   0  0  0  0  0  0  0  0  0  0  0  0
  159.7140  214.2890  149.3080 N   0  0  0  0  0  0  0  0  0  0  0  0
  160.8040  205.0090  150.3500 C   0  0  2  0  0  3  0  0  0  0  0  0
  160.9620  209.7730  151.9560 C   0  0  0  0  0  0  0  0  0  0  0  0
  161.6000  212.6390  148.8450 C   0  0  1  0  0  3  0  0  0  0  0  0
  161.4360  209.3930  150.6870 C   0  0  0  0  0  0  0  0  0  0  0  0
  160.0380  210.5500  154.4500 C   0  0  0  0  0  3  0  0  0  0  0  0
  161.4330  206.5610  148.3820 C   0  0  0  0  0  3  0  0  0  0  0  0
  160.1900  211.4640  153.4520 N   0  0  0  0  0  0  0  0  0  0  0  0
  162.3290  207.5320  149.1010 C   0  0  0  0  0  2  0  0  0  0  0  0
  161.8590  205.6210  151.2800 C   0  0  1  0  0  3  0  0  0  0  0  0
  160.3470  209.2050  154.2290 C   0  0  0  0  0  3  0  0  0  0  0  0
  161.1540  207.4540  152.6760 N   0  0  0  0  0  0  0  0  0  0  0  0
  160.8830  203.6140  150.3790 O   0  0  0  0  0  0  0  0  0  0  0  0
  161.3210  203.2480  149.0970 C   0  0  0  0  0  2  0  0  0  0  0  0
  161.0920  201.0890  146.4480 C   0  0  0  0  0  2  0  0  0  0  0  0
  161.4220  200.8880  148.7920 C   0  0  0  0  0  2  0  0  0  0  0  0
  160.5990  202.0770  148.5950 N   0  0  0  0  0  0  0  0  0  0  0  0
  161.3580  200.0730  147.5240 C   0  0  0  0  0  2  0  0  0  0  0  0
  160.3810  202.2230  147.1560 C   0  0  0  0  0  2  0  0  0  0  0  0
  1 26  1  0  0  0  0
  3 19  1  0  0  0  0
  3 16  2  0  0  0  0
  4 23  2  0  0  0  0
  5 15  2  0  0  0  0
  7  6  1  0  0  0  0
  7  3  1  0  0  0  0
  8 12  2  0  0  0  0
  9 27  1  0  0  0  0
 10 17  1  0  0  0  0
 11  5  1  0  0  0  0
 11 20  2  0  0  0  0
 13 20  1  0  0  0  0
 13  9  2  0  0  0  0
 14  2  2  0  0  0  0
 15 12  1  0  0  0  0
 15  4  1  0  0  0  0
 16  8  1  0  0  0  0
 17 28  1  6  0  0  0
 17 25  1  0  0  0  0
 18  4  1  0  0  0  0
 18  1  2  0  0  0  0
 19  6  1  6  0  0  0
 19  5  1  0  0  0  0
 20 18  1  0  0  0  0
 22 10  2  0  0  0  0
 22 24  1  0  0  0  0
 23 21  1  0  0  0  0
 24 13  1  0  0  0  0
 25  9  1  0  0  0  0
 25 14  1  1  0  0  0
 26 21  2  0  0  0  0
 27  1  1  0  0  0  0
 27  2  1  0  0  0  0
 29 28  1  0  0  0  0
 30 34  1  0  0  0  0
 30 33  1  0  0  0  0
 32 31  1  0  0  0  0
 32 29  1  0  0  0  0
 33 31  1  0  0  0  0
 34 32  1  0  0  0  0
M  END
>  <MODEL>
7

>  <REMARK>
 VINA RESULT:      -7.8      1.632      2.145
  Name = 
  3 active torsions:
  status: ('A' for Active; 'I' for Inactive)
    1  A    between atoms: C_17  and  O_28
    2  A    between atoms: O_28  and  C_29
    3  A    between atoms: C_29  and  N_32
                            x       y       z     vdW  Elec       q    Type
                         _______ _______ _______ _____ _____    ______ ____

>  <TORSDO>
F 3

$$$$
=
 OpenBabel11122414243D

 34 41  0  0  1  0  0  0  0  0999 V2000
  160.9430  204.9770  152.1280 C   0  0  0  0  0  0  0  0  0  0  0  0
  160.8840  206.3780  154.3040 C   0  0  0  0  0  3  0  0  0  0  0  0
  161.9400  204.6080  145.7970 C   0  0  0  0  0  0  0  0  0  0  0  0
  160.9960  203.8690  149.9670 C   0  0  0  0  0  0  0  0  0  0  0  0
  160.9950  205.2250  147.9480 C   0  0  0  0  0  0  0  0  0  0  0  0
  161.4750  206.5610  145.9350 C   0  0  0  0  0  2  0  0  0  0  0  0
  162.4490  205.8260  145.2150 O   0  0  0  0  0  0  0  0  0  0  0  0
  161.6000  202.3980  146.6020 C   0  0  0  0  0  3  0  0  0  0  0  0
  160.8860  207.4550  152.2170 C   0  0  0  0  0  0  0  0  0  0  0  0
  162.5950  209.9540  151.7420 C   0  0  0  0  0  3  0  0  0  0  0  0
  160.9410  206.3470  148.7240 N   0  0  0  0  0  0  0  0  0  0  0  0
  161.0520  202.6540  147.8020 C   0  0  0  0  0  3  0  0  0  0  0  0
  160.9030  207.5490  150.8840 C   0  0  0  0  0  0  0  0  0  0  0  0
  160.7610  207.8950  154.5250 C   0  0  0  0  0  3  0  0  0  0  0  0
  161.0260  203.9400  148.5600 C   0  0  0  0  0  0  0  0  0  0  0  0
  162.2740  203.3640  145.7860 N   0  0  0  0  0  0  0  0  0  0  0  0
  162.2630  209.3040  153.0720 C   0  0  2  0  0  3  0  0  0  0  0  0
  160.9620  205.0500  150.7250 C   0  0  0  0  0  0  0  0  0  0  0  0
  160.8620  205.3750  146.4610 C   0  0  1  0  0  3  0  0  0  0  0  0
  160.9410  206.2990  150.0800 C   0  0  0  0  0  0  0  0  0  0  0  0
  160.9940  202.5750  151.9710 C   0  0  0  0  0  3  0  0  0  0  0  0
  162.0240  209.7570  150.5390 C   0  0  0  0  0  3  0  0  0  0  0  0
  161.0120  202.6670  150.6130 N   0  0  0  0  0  0  0  0  0  0  0  0
  160.8270  208.8960  150.2400 C   0  0  0  0  0  2  0  0  0  0  0  0
  160.9060  208.5950  153.1590 C   0  0  1  0  0  3  0  0  0  0  0  0
  160.9580  203.7310  152.7570 C   0  0  0  0  0  3  0  0  0  0  0  0
  160.9010  206.2040  152.8690 N   0  0  0  0  0  0  0  0  0  0  0  0
  162.3800  210.2560  154.0880 O   0  0  0  0  0  0  0  0  0  0  0  0
  161.3030  211.1330  153.8910 C   0  0  0  0  0  2  0  0  0  0  0  0
  159.0470  210.6930  156.4300 C   0  0  0  0  0  2  0  0  0  0  0  0
  161.4030  210.9420  156.2630 C   0  0  0  0  0  2  0  0  0  0  0  0
  160.8310  211.7010  155.1550 N   0  0  0  0  0  0  0  0  0  0  0  0
  160.2990  210.6890  157.2600 C   0  0  0  0  0  2  0  0  0  0  0  0
  159.3770  211.5640  155.2360 C   0  0  0  0  0  2  0  0  0  0  0  0
  1 26  1  0  0  0  0
  1 27  1  0  0  0  0
  2 14  2  0  0  0  0
  3 19  1  0  0  0  0
  4 23  2  0  0  0  0
  4 18  1  0  0  0  0
  5 15  2  0  0  0  0
  5 11  1  0  0  0  0
  7  3  1  0  0  0  0
  7  6  1  0  0  0  0
  8 12  2  0  0  0  0
  9 27  1  0  0  0  0
  9 25  1  0  0  0  0
 10 17  1  0  0  0  0
 11 20  2  0  0  0  0
 12 15  1  0  0  0  0
 13  9  2  0  0  0  0
 15  4  1  0  0  0  0
 16  3  2  0  0  0  0
 16  8  1  0  0  0  0
 17 25  1  0  0  0  0
 17 28  1  1  0  0  0
 18  1  2  0  0  0  0
 19  6  1  1  0  0  0
 19  5  1  0  0  0  0
 20 18  1  0  0  0  0
 20 13  1  0  0  0  0
 21 26  2  0  0  0  0
 22 10  2  0  0  0  0
 23 21  1  0  0  0  0
 24 22  1  0  0  0  0
 24 13  1  0  0  0  0
 25 14  1  1  0  0  0
 27  2  1  0  0  0  0
 29 28  1  0  0  0  0
 29 32  1  0  0  0  0
 30 33  1  0  0  0  0
 31 33  1  0  0  0  0
 32 34  1  0  0  0  0
 32 31  1  0  0  0  0
 34 30  1  0  0  0  0
M  END
>  <MODEL>
8

>  <REMARK>
 VINA RESULT:      -7.8      2.576      8.428
  Name = 
  3 active torsions:
  status: ('A' for Active; 'I' for Inactive)
    1  A    between atoms: C_17  and  O_28
    2  A    between atoms: O_28  and  C_29
    3  A    between atoms: C_29  and  N_32
                            x       y       z     vdW  Elec       q    Type
                         _______ _______ _______ _____ _____    ______ ____

>  <TORSDO>
F 3

$$$$
=
 OpenBabel11122414243D

 34 41  0  0  1  0  0  0  0  0999 V2000
  161.6390  208.3620  149.6970 C   0  0  0  0  0  0  0  0  0  0  0  0
  161.5960  206.9500  147.5280 C   0  0  0  0  0  3  0  0  0  0  0  0
  161.5040  208.6860  156.1080 C   0  0  0  0  0  0  0  0  0  0  0  0
  161.5980  209.4950  151.8450 C   0  0  0  0  0  0  0  0  0  0  0  0
  160.8420  208.2730  153.8070 C   0  0  0  0  0  0  0  0  0  0  0  0
  160.5450  206.9350  155.8550 C   0  0  0  0  0  2  0  0  0  0  0  0
  161.5340  207.3980  156.7570 O   0  0  0  0  0  0  0  0  0  0  0  0
  161.9520  210.8700  155.2860 C   0  0  0  0  0  3  0  0  0  0  0  0
  160.9080  205.9970  149.5620 C   0  0  0  0  0  0  0  0  0  0  0  0
  161.7290  203.1410  150.3140 C   0  0  0  0  0  3  0  0  0  0  0  0
  160.6200  207.1810  153.0190 N   0  0  0  0  0  0  0  0  0  0  0  0
  161.5880  210.7300  154.0000 C   0  0  0  0  0  3  0  0  0  0  0  0
  160.6490  205.9530  150.8720 C   0  0  0  0  0  0  0  0  0  0  0  0
  161.0960  205.5190  147.2660 C   0  0  0  0  0  3  0  0  0  0  0  0
  161.3440  209.4740  153.2310 C   0  0  0  0  0  0  0  0  0  0  0  0
  162.1650  209.7880  156.2000 N   0  0  0  0  0  0  0  0  0  0  0  0
  161.8460  203.8060  148.9550 C   0  0  2  0  0  3  0  0  0  0  0  0
  161.3760  208.3420  151.0770 C   0  0  0  0  0  0  0  0  0  0  0  0
  160.3980  208.2230  155.2400 C   0  0  1  0  0  3  0  0  0  0  0  0
  160.8860  207.1740  151.6880 C   0  0  0  0  0  0  0  0  0  0  0  0
  162.3300  210.6600  149.8970 C   0  0  0  0  0  3  0  0  0  0  0  0
  161.0220  203.5360  151.3900 C   0  0  0  0  0  3  0  0  0  0  0  0
  162.0690  210.6200  151.2330 N   0  0  0  0  0  0  0  0  0  0  0  0
  160.0810  204.7060  151.4700 C   0  0  0  0  0  2  0  0  0  0  0  0
  160.7820  204.8600  148.6230 C   0  0  1  0  0  3  0  0  0  0  0  0
  162.1190  209.5300  149.1010 C   0  0  0  0  0  3  0  0  0  0  0  0
  161.3940  207.1680  148.9430 N   0  0  0  0  0  0  0  0  0  0  0  0
  161.8780  202.8200  147.9650 O   0  0  0  0  0  0  0  0  0  0  0  0
  161.5520  201.6270  148.6280 C   0  0  0  0  0  2  0  0  0  0  0  0
  160.4570  201.1190  145.4240 C   0  0  0  0  0  2  0  0  0  0  0  0
  161.5810  199.8270  147.0690 C   0  0  0  0  0  2  0  0  0  0  0  0
  160.7210  200.7560  147.7950 N   0  0  0  0  0  0  0  0  0  0  0  0
  161.0950  199.7760  145.6420 C   0  0  0  0  0  2  0  0  0  0  0  0
  160.0150  201.5650  146.8020 C   0  0  0  0  0  2  0  0  0  0  0  0
  1 18  1  0  0  0  0
  2 27  1  0  0  0  0
  3 16  2  0  0  0  0
  3  7  1  0  0  0  0
  4 15  1  0  0  0  0
  5 19  1  0  0  0  0
  6  7  1  0  0  0  0
  8 16  1  0  0  0  0
  9 13  2  0  0  0  0
 10 22  2  0  0  0  0
 11  5  1  0  0  0  0
 12  8  2  0  0  0  0
 13 24  1  0  0  0  0
 13 20  1  0  0  0  0
 14  2  2  0  0  0  0
 15  5  2  0  0  0  0
 15 12  1  0  0  0  0
 17 28  1  6  0  0  0
 17 10  1  0  0  0  0
 18 20  1  0  0  0  0
 18  4  2  0  0  0  0
 19  6  1  1  0  0  0
 19  3  1  0  0  0  0
 20 11  2  0  0  0  0
 21 23  2  0  0  0  0
 22 24  1  0  0  0  0
 23  4  1  0  0  0  0
 25 14  1  6  0  0  0
 25 17  1  0  0  0  0
 25  9  1  0  0  0  0
 26  1  2  0  0  0  0
 26 21  1  0  0  0  0
 27  9  1  0  0  0  0
 27  1  1  0  0  0  0
 28 29  1  0  0  0  0
 30 33  1  0  0  0  0
 30 34  1  0  0  0  0
 31 32  1  0  0  0  0
 32 29  1  0  0  0  0
 33 31  1  0  0  0  0
 34 32  1  0  0  0  0
M  END
>  <MODEL>
9

>  <REMARK>
 VINA RESULT:      -7.3      2.958      4.939
  Name = 
  3 active torsions:
  status: ('A' for Active; 'I' for Inactive)
    1  A    between atoms: C_17  and  O_28
    2  A    between atoms: O_28  and  C_29
    3  A    between atoms: C_29  and  N_32
                            x       y       z     vdW  Elec       q    Type
                         _______ _______ _______ _____ _____    ______ ____

>  <TORSDO>
F 3

$$$$
