=
 OpenBabel11122412553D

 32 38  0  0  1  0  0  0  0  0999 V2000
  160.1030  208.7650  156.5190 C   0  0  1  0  0  3  0  0  0  0  0  0
  161.1420  206.3210  152.1450 C   0  0  0  0  0  0  0  0  0  0  0  0
  162.0670  209.6700  148.7670 N   0  0  0  0  0  0  0  0  0  0  0  0
  162.0240  208.7310  147.7860 C   0  0  0  0  0  3  0  0  0  0  0  0
  160.8250  203.9590  151.4610 C   0  0  0  0  0  0  0  0  0  0  0  0
  160.7900  203.0530  150.4090 C   0  0  0  0  0  0  0  0  0  0  0  0
  161.1840  206.9300  154.5310 C   0  0  1  0  0  3  0  0  0  0  0  0
  161.4580  208.7360  152.8690 C   0  0  0  0  0  2  0  0  0  0  0  0
  160.9100  202.3940  148.3160 N   0  0  0  0  0  0  0  0  0  0  0  0
  160.6910  209.3500  155.2270 C   0  0  2  0  0  3  0  0  0  0  0  0
  161.8640  209.3450  150.0710 C   0  0  0  0  0  3  0  0  0  0  0  0
  161.3880  207.6720  151.7900 C   0  0  0  0  0  0  0  0  0  0  0  0
  161.6020  208.0170  150.4440 C   0  0  0  0  0  0  0  0  0  0  0  0
  161.2940  205.6880  149.7760 C   0  0  0  0  0  0  0  0  0  0  0  0
  160.6520  201.3180  149.0490 N   0  0  0  0  0  0  0  0  0  0  0  0
  159.6070  207.4300  156.3340 O   0  0  0  0  0  0  0  0  0  0  0  0
  160.6790  208.3030  154.1020 C   0  0  2  0  0  3  0  0  0  0  0  0
  160.5690  201.6870  150.3560 C   0  0  0  0  0  3  0  0  0  0  0  0
  160.5740  206.5030  155.8680 C   0  0  0  0  0  2  0  0  0  0  0  0
  161.6130  208.9930  156.3900 C   0  0  1  0  0  3  0  0  0  0  0  0
  161.7670  207.3980  148.1020 C   0  0  0  0  0  3  0  0  0  0  0  0
  161.5540  207.0270  149.4370 C   0  0  0  0  0  0  0  0  0  0  0  0
  161.2440  204.7340  148.7920 N   0  0  0  0  0  0  0  0  0  0  0  0
  160.9310  205.9890  153.4950 O   0  0  0  0  0  0  0  0  0  0  0  0
  160.6100  203.5160  152.7620 O   0  0  0  0  0  1  0  0  0  0  0  0
  161.0670  202.3870  146.8710 C   0  0  0  0  0  1  0  0  0  0  0  0
  161.0840  205.3230  151.1480 C   0  0  0  0  0  0  0  0  0  0  0  0
  160.9950  203.4500  149.1310 C   0  0  0  0  0  0  0  0  0  0  0  0
  161.9920  210.2590  157.1310 C   0  0  0  0  0  2  0  0  0  0  0  0
  163.2180  210.8510  156.5280 C   0  0  0  0  0  0  0  0  0  0  0  0
  163.4380  210.7460  155.1610 O   0  0  0  0  0  0  0  0  0  0  0  0
  164.0700  211.4170  157.2610 O   0  0  0  0  0  1  0  0  0  0  0  0
  1 16  1  6  0  0  0
  2 24  1  0  0  0  0
  3 11  2  0  0  0  0
  4 21  2  0  0  0  0
  4  3  1  0  0  0  0
  5 25  1  0  0  0  0
  6  5  2  0  0  0  0
  7 19  1  1  0  0  0
  8 17  1  0  0  0  0
  9 15  1  0  0  0  0
  9 28  1  0  0  0  0
 10 20  1  0  0  0  0
 10  1  1  0  0  0  0
 11 13  1  0  0  0  0
 12  2  1  0  0  0  0
 12  8  1  0  0  0  0
 13 12  2  0  0  0  0
 14 27  1  0  0  0  0
 15 18  2  0  0  0  0
 17  7  1  0  0  0  0
 17 10  1  0  0  0  0
 18  6  1  0  0  0  0
 19 16  1  0  0  0  0
 20  1  1  0  0  0  0
 20 29  1  0  0  0  0
 21 22  1  0  0  0  0
 22 14  2  0  0  0  0
 22 13  1  0  0  0  0
 23 28  2  0  0  0  0
 23 14  1  0  0  0  0
 24  7  1  0  0  0  0
 26  9  1  0  0  0  0
 27  5  1  0  0  0  0
 27  2  2  0  0  0  0
 28  6  1  0  0  0  0
 30 29  1  0  0  0  0
 30 32  1  0  0  0  0
 31 30  2  0  0  0  0
M  END
>  <MODEL>
1

>  <REMARK>
 VINA RESULT:      -9.7      0.000      0.000
  Name = 
  2 active torsions:
  status: ('A' for Active; 'I' for Inactive)
    1  A    between atoms: C_20  and  C_29
    2  A    between atoms: C_29  and  C_30
                            x       y       z     vdW  Elec       q    Type
                         _______ _______ _______ _____ _____    ______ ____

>  <TORSDO>
F 2

$$$$
=
 OpenBabel11122412553D

 32 38  0  0  1  0  0  0  0  0999 V2000
  160.0010  208.1340  156.0650 C   0  0  1  0  0  3  0  0  0  0  0  0
  161.4050  207.3780  151.2030 C   0  0  0  0  0  0  0  0  0  0  0  0
  162.1830  211.7200  149.1990 N   0  0  0  0  0  0  0  0  0  0  0  0
  162.2550  211.1660  147.9610 C   0  0  0  0  0  3  0  0  0  0  0  0
  161.3080  205.3690  149.7530 C   0  0  0  0  0  0  0  0  0  0  0  0
  161.3880  204.8700  148.4590 C   0  0  0  0  0  0  0  0  0  0  0  0
  161.3040  207.1490  153.6540 C   0  0  1  0  0  3  0  0  0  0  0  0
  161.4940  209.4220  152.7080 C   0  0  0  0  0  2  0  0  0  0  0  0
  161.6420  204.9630  146.2790 N   0  0  0  0  0  0  0  0  0  0  0  0
  160.5890  209.1570  155.0830 C   0  0  2  0  0  3  0  0  0  0  0  0
  161.9580  210.9630  150.3050 C   0  0  0  0  0  3  0  0  0  0  0  0
  161.5530  208.7820  151.3340 C   0  0  0  0  0  0  0  0  0  0  0  0
  161.7910  209.5730  150.1970 C   0  0  0  0  0  0  0  0  0  0  0  0
  161.7000  207.5910  148.7740 C   0  0  0  0  0  0  0  0  0  0  0  0
  161.4450  203.6900  146.5940 N   0  0  0  0  0  0  0  0  0  0  0  0
  159.6240  206.9110  155.4160 O   0  0  0  0  0  0  0  0  0  0  0  0
  160.7060  208.5510  153.6740 C   0  0  2  0  0  3  0  0  0  0  0  0
  161.2810  203.5900  147.9410 C   0  0  0  0  0  3  0  0  0  0  0  0
  160.6800  206.2590  154.7300 C   0  0  0  0  0  2  0  0  0  0  0  0
  161.4910  208.4890  156.1160 C   0  0  1  0  0  3  0  0  0  0  0  0
  162.0960  209.7910  147.7980 C   0  0  0  0  0  3  0  0  0  0  0  0
  161.8620  208.9790  148.9170 C   0  0  0  0  0  0  0  0  0  0  0  0
  161.7660  207.0230  147.5270 N   0  0  0  0  0  0  0  0  0  0  0  0
  161.1700  206.5980  152.3500 O   0  0  0  0  0  0  0  0  0  0  0  0
  161.0790  204.5010  150.8160 O   0  0  0  0  0  1  0  0  0  0  0  0
  161.8550  205.4530  144.9270 C   0  0  0  0  0  1  0  0  0  0  0  0
  161.4670  206.7720  149.9300 C   0  0  0  0  0  0  0  0  0  0  0  0
  161.6090  205.6860  147.4020 C   0  0  0  0  0  0  0  0  0  0  0  0
  161.7370  209.4520  157.2600 C   0  0  0  0  0  2  0  0  0  0  0  0
  162.2610  210.7420  156.7310 C   0  0  0  0  0  0  0  0  0  0  0  0
  163.3270  210.7450  155.8430 O   0  0  0  0  0  0  0  0  0  0  0  0
  161.7600  211.8300  157.1160 O   0  0  0  0  0  1  0  0  0  0  0  0
  1 16  1  6  0  0  0
  1 20  1  0  0  0  0
  2 12  1  0  0  0  0
  2 24  1  0  0  0  0
  3 11  2  0  0  0  0
  4  3  1  0  0  0  0
  5 27  1  0  0  0  0
  5 25  1  0  0  0  0
  6  5  2  0  0  0  0
  7 17  1  0  0  0  0
  7 19  1  1  0  0  0
  8 17  1  0  0  0  0
  9 15  1  0  0  0  0
  9 28  1  0  0  0  0
 10  1  1  0  0  0  0
 10 20  1  0  0  0  0
 12  8  1  0  0  0  0
 13 11  1  0  0  0  0
 13 12  2  0  0  0  0
 14 22  2  0  0  0  0
 14 27  1  0  0  0  0
 15 18  2  0  0  0  0
 17 10  1  0  0  0  0
 18  6  1  0  0  0  0
 19 16  1  0  0  0  0
 20 29  1  0  0  0  0
 21  4  2  0  0  0  0
 21 22  1  0  0  0  0
 22 13  1  0  0  0  0
 23 14  1  0  0  0  0
 24  7  1  0  0  0  0
 26  9  1  0  0  0  0
 27  2  2  0  0  0  0
 28 23  2  0  0  0  0
 28  6  1  0  0  0  0
 30 32  1  0  0  0  0
 30 29  1  0  0  0  0
 31 30  2  0  0  0  0
M  END
>  <MODEL>
2

>  <REMARK>
 VINA RESULT:      -8.3      1.553      2.036
  Name = 
  2 active torsions:
  status: ('A' for Active; 'I' for Inactive)
    1  A    between atoms: C_20  and  C_29
    2  A    between atoms: C_29  and  C_30
                            x       y       z     vdW  Elec       q    Type
                         _______ _______ _______ _____ _____    ______ ____

>  <TORSDO>
F 2

$$$$
=
 OpenBabel11122412553D

 32 38  0  0  1  0  0  0  0  0999 V2000
  161.5810  201.4720  148.2950 C   0  0  1  0  0  3  0  0  0  0  0  0
  161.0820  205.7660  151.0330 C   0  0  0  0  0  0  0  0  0  0  0  0
  162.2010  209.4950  148.1470 N   0  0  0  0  0  0  0  0  0  0  0  0
  162.2200  210.3440  149.2070 C   0  0  0  0  0  3  0  0  0  0  0  0
  160.8310  206.1470  153.4700 C   0  0  0  0  0  0  0  0  0  0  0  0
  160.8730  207.0690  154.5080 C   0  0  0  0  0  0  0  0  0  0  0  0
  160.5770  203.5600  150.0600 C   0  0  1  0  0  3  0  0  0  0  0  0
  161.3410  205.3500  148.5400 C   0  0  0  0  0  2  0  0  0  0  0  0
  161.1350  209.0430  155.4370 N   0  0  0  0  0  0  0  0  0  0  0  0
  161.5810  202.9200  147.7870 C   0  0  2  0  0  3  0  0  0  0  0  0
  161.9270  208.1720  148.3010 C   0  0  0  0  0  3  0  0  0  0  0  0
  161.3730  206.2760  149.7410 C   0  0  0  0  0  0  0  0  0  0  0  0
  161.6540  207.6420  149.5720 C   0  0  0  0  0  0  0  0  0  0  0  0
  161.4000  208.0140  151.9720 C   0  0  0  0  0  0  0  0  0  0  0  0
  160.8370  208.1910  156.4090 N   0  0  0  0  0  0  0  0  0  0  0  0
  161.6720  201.3980  149.7260 O   0  0  0  0  0  0  0  0  0  0  0  0
  161.5780  203.9090  148.9650 C   0  0  2  0  0  3  0  0  0  0  0  0
  160.6670  206.9530  155.8720 C   0  0  0  0  0  3  0  0  0  0  0  0
  160.6330  202.0730  150.4160 C   0  0  0  0  0  2  0  0  0  0  0  0
  160.3120  202.0790  147.6870 C   0  0  1  0  0  3  0  0  0  0  0  0
  161.9560  209.8690  150.4910 C   0  0  0  0  0  3  0  0  0  0  0  0
  161.6690  208.5110  150.6860 C   0  0  0  0  0  0  0  0  0  0  0  0
  161.4210  208.8630  153.0490 N   0  0  0  0  0  0  0  0  0  0  0  0
  160.8010  204.3970  151.1880 O   0  0  0  0  0  0  0  0  0  0  0  0
  160.5330  204.8160  153.7400 O   0  0  0  0  0  1  0  0  0  0  0  0
  161.3860  210.4610  155.6330 C   0  0  0  0  0  1  0  0  0  0  0  0
  161.1020  206.6210  152.1550 C   0  0  0  0  0  0  0  0  0  0  0  0
  161.1590  208.3730  154.2810 C   0  0  0  0  0  0  0  0  0  0  0  0
  160.1530  201.5840  146.2640 C   0  0  0  0  0  2  0  0  0  0  0  0
  160.4350  202.6910  145.3090 C   0  0  0  0  0  0  0  0  0  0  0  0
  159.4420  203.1310  144.4440 O   0  0  0  0  0  0  0  0  0  0  0  0
  161.5830  203.2040  145.2610 O   0  0  0  0  0  1  0  0  0  0  0  0
  1 16  1  1  0  0  0
  2 24  1  0  0  0  0
  2 27  1  0  0  0  0
  3 11  2  0  0  0  0
  3  4  1  0  0  0  0
  4 21  2  0  0  0  0
  5 25  1  0  0  0  0
  5  6  1  0  0  0  0
  6 18  1  0  0  0  0
  7 19  1  1  0  0  0
  7 24  1  0  0  0  0
  8 17  1  0  0  0  0
  8 12  1  0  0  0  0
  9 26  1  0  0  0  0
  9 15  1  0  0  0  0
 10  1  1  0  0  0  0
 10 17  1  0  0  0  0
 11 13  1  0  0  0  0
 12  2  2  0  0  0  0
 13 12  1  0  0  0  0
 13 22  2  0  0  0  0
 14 27  1  0  0  0  0
 14 23  2  0  0  0  0
 16 19  1  0  0  0  0
 17  7  1  0  0  0  0
 18 15  2  0  0  0  0
 20 10  1  0  0  0  0
 20  1  1  0  0  0  0
 21 22  1  0  0  0  0
 22 14  1  0  0  0  0
 23 28  1  0  0  0  0
 27  5  2  0  0  0  0
 28  6  2  0  0  0  0
 28  9  1  0  0  0  0
 29 20  1  0  0  0  0
 30 29  1  0  0  0  0
 31 30  2  0  0  0  0
 32 30  1  0  0  0  0
M  END
>  <MODEL>
3

>  <REMARK>
 VINA RESULT:      -8.2      3.087      7.852
  Name = 
  2 active torsions:
  status: ('A' for Active; 'I' for Inactive)
    1  A    between atoms: C_20  and  C_29
    2  A    between atoms: C_29  and  C_30
                            x       y       z     vdW  Elec       q    Type
                         _______ _______ _______ _____ _____    ______ ____

>  <TORSDO>
F 2

$$$$
=
 OpenBabel11122412553D

 32 38  0  0  1  0  0  0  0  0999 V2000
  161.9170  210.0150  154.1240 C   0  0  1  0  0  3  0  0  0  0  0  0
  161.0440  206.6230  150.3940 C   0  0  0  0  0  0  0  0  0  0  0  0
  160.7920  202.2290  152.4240 N   0  0  0  0  0  0  0  0  0  0  0  0
  160.8290  201.6340  151.2040 C   0  0  0  0  0  3  0  0  0  0  0  0
  161.1790  206.8160  147.9260 C   0  0  0  0  0  0  0  0  0  0  0  0
  161.2180  206.1410  146.7130 C   0  0  0  0  0  0  0  0  0  0  0  0
  160.8430  208.6410  151.7910 C   0  0  1  0  0  3  0  0  0  0  0  0
  160.9140  206.4490  152.9260 C   0  0  0  0  0  2  0  0  0  0  0  0
  161.2270  204.3930  145.3810 N   0  0  0  0  0  0  0  0  0  0  0  0
  161.5160  208.5400  154.2650 C   0  0  2  0  0  3  0  0  0  0  0  0
  160.8370  203.5810  152.5570 C   0  0  0  0  0  3  0  0  0  0  0  0
  160.9740  205.8070  151.5530 C   0  0  0  0  0  0  0  0  0  0  0  0
  160.9240  204.4080  151.4250 C   0  0  0  0  0  0  0  0  0  0  0  0
  161.0510  204.6040  148.9940 C   0  0  0  0  0  0  0  0  0  0  0  0
  161.3020  205.4710  144.6100 N   0  0  0  0  0  0  0  0  0  0  0  0
  162.2870  210.3520  152.7790 O   0  0  0  0  0  0  0  0  0  0  0  0
  161.5250  207.8420  152.8950 C   0  0  2  0  0  3  0  0  0  0  0  0
  161.3000  206.5780  145.4010 C   0  0  0  0  0  3  0  0  0  0  0  0
  161.2770  210.1080  151.8130 C   0  0  0  0  0  2  0  0  0  0  0  0
  160.4570  209.6310  154.3920 C   0  0  1  0  0  3  0  0  0  0  0  0
  160.9160  202.4080  150.0480 C   0  0  0  0  0  3  0  0  0  0  0  0
  160.9640  203.8060  150.1480 C   0  0  0  0  0  0  0  0  0  0  0  0
  161.0930  204.0110  147.7580 N   0  0  0  0  0  0  0  0  0  0  0  0
  161.0930  208.0210  150.5360 O   0  0  0  0  0  0  0  0  0  0  0  0
  161.2240  208.2060  147.9470 O   0  0  0  0  0  1  0  0  0  0  0  0
  161.2060  203.0280  144.8860 C   0  0  0  0  0  1  0  0  0  0  0  0
  161.0930  206.0340  149.1130 C   0  0  0  0  0  0  0  0  0  0  0  0
  161.1760  204.7890  146.6560 C   0  0  0  0  0  0  0  0  0  0  0  0
  160.1430  209.8520  155.8580 C   0  0  0  0  0  2  0  0  0  0  0  0
  158.9810  210.7730  155.9940 C   0  0  0  0  0  0  0  0  0  0  0  0
  158.2050  211.0780  154.8840 O   0  0  0  0  0  0  0  0  0  0  0  0
  158.7230  211.3020  157.1060 O   0  0  0  0  0  1  0  0  0  0  0  0
  1 16  1  6  0  0  0
  1 10  1  0  0  0  0
  1 20  1  0  0  0  0
  2 24  1  0  0  0  0
  2 12  1  0  0  0  0
  3 11  2  0  0  0  0
  4  3  1  0  0  0  0
  5 25  1  0  0  0  0
  5 27  1  0  0  0  0
  6  5  2  0  0  0  0
  7 19  1  6  0  0  0
  7 17  1  0  0  0  0
  9 28  1  0  0  0  0
 10 20  1  0  0  0  0
 12  8  1  0  0  0  0
 13 12  2  0  0  0  0
 13 11  1  0  0  0  0
 14 27  1  0  0  0  0
 14 22  2  0  0  0  0
 15  9  1  0  0  0  0
 15 18  2  0  0  0  0
 17  8  1  0  0  0  0
 17 10  1  0  0  0  0
 18  6  1  0  0  0  0
 19 16  1  0  0  0  0
 20 29  1  0  0  0  0
 21 22  1  0  0  0  0
 21  4  2  0  0  0  0
 22 13  1  0  0  0  0
 23 14  1  0  0  0  0
 24  7  1  0  0  0  0
 26  9  1  0  0  0  0
 27  2  2  0  0  0  0
 28  6  1  0  0  0  0
 28 23  2  0  0  0  0
 29 30  1  0  0  0  0
 30 32  1  0  0  0  0
 31 30  2  0  0  0  0
M  END
>  <MODEL>
4

>  <REMARK>
 VINA RESULT:      -8.2      2.421      4.449
  Name = 
  2 active torsions:
  status: ('A' for Active; 'I' for Inactive)
    1  A    between atoms: C_20  and  C_29
    2  A    between atoms: C_29  and  C_30
                            x       y       z     vdW  Elec       q    Type
                         _______ _______ _______ _____ _____    ______ ____

>  <TORSDO>
F 2

$$$$
