=
 OpenBabel11122413173D

 31 35  0  0  1  0  0  0  0  0999 V2000
  160.8800  202.1180  150.7990 C   0  0  0  0  0  0  0  0  0  0  0  0
  161.2780  205.5110  149.2140 C   0  0  0  0  0  0  0  0  0  0  0  0
  161.3430  205.3150  147.8040 C   0  0  0  0  0  0  0  0  0  0  0  0
  161.3330  203.9030  145.8110 C   0  0  0  0  0  0  0  0  0  0  0  0
  161.1280  204.4670  150.1770 C   0  0  0  0  0  0  0  0  0  0  0  0
  160.8340  202.4680  152.1480 C   0  0  0  0  0  3  0  0  0  0  0  0
  161.2640  204.0480  147.1980 C   0  0  0  0  0  3  0  0  0  0  0  0
  161.3130  207.1130  151.0630 C   0  0  0  0  0  0  0  0  0  0  0  0
  160.7840  200.8180  150.4320 F   0  0  0  0  0  0  0  0  0  0  0  0
  161.5760  207.6830  147.5000 N   0  0  0  0  0  0  0  0  0  0  0  0
  161.2520  202.6390  145.2420 O   0  0  0  0  0  1  0  0  0  0  0  0
  161.1720  206.0970  151.9490 N   0  0  0  0  0  0  0  0  0  0  0  0
  161.3710  206.8450  149.6890 C   0  0  0  0  0  0  0  0  0  0  0  0
  161.4120  208.4620  151.5300 N   0  0  0  0  0  2  0  0  0  0  0  0
  161.0260  203.1100  149.8260 C   0  0  0  0  0  3  0  0  0  0  0  0
  161.4830  205.0260  144.9980 C   0  0  0  0  0  3  0  0  0  0  0  0
  161.0780  204.8040  151.5540 C   0  0  0  0  0  0  0  0  0  0  0  0
  160.9330  203.8070  152.5240 C   0  0  0  0  0  3  0  0  0  0  0  0
  161.5150  207.8750  148.8150 N   0  0  0  0  0  0  0  0  0  0  0  0
  161.4950  206.4430  146.9630 C   0  0  0  0  0  0  0  0  0  0  0  0
  161.5640  206.2950  145.5740 C   0  0  0  0  0  3  0  0  0  0  0  0
  160.0680  208.5910  153.4370 O   0  0  0  0  0  1  0  0  0  0  0  0
  161.3530  208.8200  152.9410 C   0  0  2  0  0  3  0  0  0  0  0  0
  160.4880  211.8430  155.3590 C   0  0  1  0  0  3  0  0  0  0  0  0
  162.4450  210.5370  154.5060 C   0  0  0  0  0  2  0  0  0  0  0  0
  160.3290  211.6400  151.8420 O   0  0  0  0  0  0  0  0  0  0  0  0
  159.6290  212.0220  156.4410 O   0  0  0  0  0  1  0  0  0  0  0  0
  161.4500  210.6970  155.6560 C   0  0  0  0  0  2  0  0  0  0  0  0
  160.5780  211.2120  152.9570 C   0  0  0  0  0  0  0  0  0  0  0  0
  161.7460  210.2830  153.1610 C   0  0  2  0  0  3  0  0  0  0  0  0
  159.6720  211.5460  154.1050 C   0  0  0  0  0  2  0  0  0  0  0  0
  1  6  1  0  0  0  0
  2 13  1  0  0  0  0
  2  5  1  0  0  0  0
  3  2  2  0  0  0  0
  4  7  2  0  0  0  0
  5 17  2  0  0  0  0
  6 18  2  0  0  0  0
  7  3  1  0  0  0  0
  8 14  1  0  0  0  0
  8 12  2  0  0  0  0
  9  1  1  0  0  0  0
 10 19  1  0  0  0  0
 11  4  1  0  0  0  0
 13  8  1  0  0  0  0
 14 23  1  0  0  0  0
 15  5  1  0  0  0  0
 15  1  2  0  0  0  0
 16 21  2  0  0  0  0
 16  4  1  0  0  0  0
 17 12  1  0  0  0  0
 17 18  1  0  0  0  0
 19 13  2  0  0  0  0
 20 10  2  0  0  0  0
 20  3  1  0  0  0  0
 21 20  1  0  0  0  0
 23 22  1  6  0  0  0
 24 28  1  0  0  0  0
 24 27  1  1  0  0  0
 25 28  1  0  0  0  0
 26 29  2  0  0  0  0
 29 30  1  0  0  0  0
 29 31  1  0  0  0  0
 30 23  1  1  0  0  0
 30 25  1  0  0  0  0
 31 24  1  0  0  0  0
M  END
>  <MODEL>
1

>  <REMARK>
 VINA RESULT:      -9.9      0.000      0.000
  Name = 
  2 active torsions:
  status: ('A' for Active; 'I' for Inactive)
    1  A    between atoms: C_5  and  N_16
    2  A    between atoms: C_5  and  C_30
                            x       y       z     vdW  Elec       q    Type
                         _______ _______ _______ _____ _____    ______ ____

>  <TORSDO>
F 2

$$$$
=
 OpenBabel11122413173D

 31 35  0  0  1  0  0  0  0  0999 V2000
  160.9790  203.3500  151.9680 C   0  0  0  0  0  0  0  0  0  0  0  0
  161.3950  206.0990  149.4270 C   0  0  0  0  0  0  0  0  0  0  0  0
  161.4220  205.4860  148.1410 C   0  0  0  0  0  0  0  0  0  0  0  0
  161.3400  203.5400  146.6670 C   0  0  0  0  0  0  0  0  0  0  0  0
  161.2510  205.3970  150.6630 C   0  0  0  0  0  0  0  0  0  0  0  0
  160.9710  204.0910  153.1500 C   0  0  0  0  0  3  0  0  0  0  0  0
  161.3080  204.0970  147.9470 C   0  0  0  0  0  3  0  0  0  0  0  0
  161.5010  208.1820  150.7060 C   0  0  0  0  0  0  0  0  0  0  0  0
  160.8520  202.0030  152.0120 F   0  0  0  0  0  0  0  0  0  0  0  0
  161.6870  207.6470  147.1340 N   0  0  0  0  0  0  0  0  0  0  0  0
  161.2250  202.1660  146.5060 O   0  0  0  0  0  1  0  0  0  0  0  0
  161.3650  207.4820  151.8600 N   0  0  0  0  0  0  0  0  0  0  0  0
  161.5210  207.5110  149.4770 C   0  0  0  0  0  0  0  0  0  0  0  0
  161.6340  209.6060  150.7430 N   0  0  0  0  0  2  0  0  0  0  0  0
  161.1170  204.0000  150.7390 C   0  0  0  0  0  3  0  0  0  0  0  0
  161.4900  204.3630  145.5510 C   0  0  0  0  0  3  0  0  0  0  0  0
  161.2400  206.1330  151.8750 C   0  0  0  0  0  0  0  0  0  0  0  0
  161.1010  205.4780  153.1020 C   0  0  0  0  0  3  0  0  0  0  0  0
  161.6620  208.2270  148.3310 N   0  0  0  0  0  0  0  0  0  0  0  0
  161.5730  206.3050  146.9960 C   0  0  0  0  0  0  0  0  0  0  0  0
  161.6050  205.7440  145.7160 C   0  0  0  0  0  3  0  0  0  0  0  0
  162.6820  209.9900  152.7960 O   0  0  0  0  0  1  0  0  0  0  0  0
  161.6150  210.3730  151.9820 C   0  0  2  0  0  3  0  0  0  0  0  0
  159.4360  212.2010  154.7460 C   0  0  1  0  0  3  0  0  0  0  0  0
  159.2560  211.2820  152.4250 C   0  0  0  0  0  2  0  0  0  0  0  0
  160.7100  208.9140  154.6770 O   0  0  0  0  0  0  0  0  0  0  0  0
  159.5750  213.3670  155.4960 O   0  0  0  0  0  1  0  0  0  0  0  0
  159.4800  212.5440  153.2600 C   0  0  0  0  0  2  0  0  0  0  0  0
  160.5070  210.0240  154.2110 C   0  0  0  0  0  0  0  0  0  0  0  0
  160.2920  210.1900  152.7300 C   0  0  2  0  0  3  0  0  0  0  0  0
  160.5540  211.2280  155.1050 C   0  0  0  0  0  2  0  0  0  0  0  0
  1  9  1  0  0  0  0
  1  6  1  0  0  0  0
  2 13  1  0  0  0  0
  2  5  1  0  0  0  0
  3  2  2  0  0  0  0
  4  7  2  0  0  0  0
  5 15  1  0  0  0  0
  5 17  2  0  0  0  0
  7  3  1  0  0  0  0
  8 14  1  0  0  0  0
  8 12  2  0  0  0  0
 10 19  1  0  0  0  0
 11  4  1  0  0  0  0
 12 17  1  0  0  0  0
 13  8  1  0  0  0  0
 14 23  1  0  0  0  0
 15  1  2  0  0  0  0
 16 21  2  0  0  0  0
 16  4  1  0  0  0  0
 17 18  1  0  0  0  0
 18  6  2  0  0  0  0
 19 13  2  0  0  0  0
 20 10  2  0  0  0  0
 20  3  1  0  0  0  0
 21 20  1  0  0  0  0
 23 22  1  1  0  0  0
 24 31  1  0  0  0  0
 24 27  1  1  0  0  0
 25 30  1  0  0  0  0
 25 28  1  0  0  0  0
 28 24  1  0  0  0  0
 29 26  2  0  0  0  0
 29 31  1  0  0  0  0
 30 23  1  6  0  0  0
 30 29  1  0  0  0  0
M  END
>  <MODEL>
2

>  <REMARK>
 VINA RESULT:      -9.8      1.239      1.771
  Name = 
  2 active torsions:
  status: ('A' for Active; 'I' for Inactive)
    1  A    between atoms: C_5  and  N_16
    2  A    between atoms: C_5  and  C_30
                            x       y       z     vdW  Elec       q    Type
                         _______ _______ _______ _____ _____    ______ ____

>  <TORSDO>
F 2

$$$$
=
 OpenBabel11122413173D

 31 35  0  0  1  0  0  0  0  0999 V2000
  161.8060  207.1680  147.5240 C   0  0  0  0  0  0  0  0  0  0  0  0
  161.2810  204.9760  150.5400 C   0  0  0  0  0  0  0  0  0  0  0  0
  161.0920  203.6440  150.0680 C   0  0  0  0  0  0  0  0  0  0  0  0
  160.9240  201.9810  148.2880 C   0  0  0  0  0  0  0  0  0  0  0  0
  161.5120  206.1120  149.7060 C   0  0  0  0  0  0  0  0  0  0  0  0
  161.9710  208.4110  148.1340 C   0  0  0  0  0  3  0  0  0  0  0  0
  161.1140  203.3000  148.7040 C   0  0  0  0  0  3  0  0  0  0  0  0
  161.4130  206.4620  152.4790 C   0  0  0  0  0  0  0  0  0  0  0  0
  161.8660  207.0620  146.1750 F   0  0  0  0  0  0  0  0  0  0  0  0
  160.8410  202.8940  152.3320 N   0  0  0  0  0  0  0  0  0  0  0  0
  160.9500  201.6710  146.9340 O   0  0  0  0  0  1  0  0  0  0  0  0
  161.6270  207.5180  151.6560 N   0  0  0  0  0  0  0  0  0  0  0  0
  161.2340  205.1800  151.9440 C   0  0  0  0  0  0  0  0  0  0  0  0
  161.3590  206.6570  153.8950 N   0  0  0  0  0  2  0  0  0  0  0  0
  161.5790  206.0320  148.3040 C   0  0  0  0  0  3  0  0  0  0  0  0
  160.7060  200.9750  149.2290 C   0  0  0  0  0  3  0  0  0  0  0  0
  161.6820  207.3840  150.3090 C   0  0  0  0  0  0  0  0  0  0  0  0
  161.9100  208.5180  149.5230 C   0  0  0  0  0  3  0  0  0  0  0  0
  161.0170  204.1330  152.7820 N   0  0  0  0  0  0  0  0  0  0  0  0
  160.8710  202.6100  151.0090 C   0  0  0  0  0  0  0  0  0  0  0  0
  160.6800  201.2900  150.5880 C   0  0  0  0  0  3  0  0  0  0  0  0
  161.9310  207.7900  155.8570 O   0  0  0  0  0  1  0  0  0  0  0  0
  161.5430  207.9570  154.5260 C   0  0  2  0  0  3  0  0  0  0  0  0
  160.1580  211.4550  155.7810 C   0  0  1  0  0  3  0  0  0  0  0  0
  160.4370  210.1160  153.6860 C   0  0  0  0  0  2  0  0  0  0  0  0
  158.8840  208.2060  156.2810 O   0  0  0  0  0  0  0  0  0  0  0  0
  160.6790  212.5070  156.5330 O   0  0  0  0  0  1  0  0  0  0  0  0
  161.0370  211.2200  154.5570 C   0  0  0  0  0  2  0  0  0  0  0  0
  159.6660  209.0200  155.8180 C   0  0  0  0  0  0  0  0  0  0  0  0
  160.2640  208.7960  154.4550 C   0  0  2  0  0  3  0  0  0  0  0  0
  160.0920  210.1980  156.6430 C   0  0  0  0  0  2  0  0  0  0  0  0
  1  6  2  0  0  0  0
  1 15  1  0  0  0  0
  2 13  1  0  0  0  0
  3  2  2  0  0  0  0
  3 20  1  0  0  0  0
  4  7  2  0  0  0  0
  4 16  1  0  0  0  0
  5 17  1  0  0  0  0
  5  2  1  0  0  0  0
  6 18  1  0  0  0  0
  7  3  1  0  0  0  0
  8 14  1  0  0  0  0
  9  1  1  0  0  0  0
 10 19  1  0  0  0  0
 11  4  1  0  0  0  0
 12  8  2  0  0  0  0
 13  8  1  0  0  0  0
 13 19  2  0  0  0  0
 14 23  1  0  0  0  0
 15  5  2  0  0  0  0
 16 21  2  0  0  0  0
 17 12  1  0  0  0  0
 18 17  2  0  0  0  0
 20 10  2  0  0  0  0
 21 20  1  0  0  0  0
 23 22  1  1  0  0  0
 24 27  1  1  0  0  0
 24 31  1  0  0  0  0
 25 30  1  0  0  0  0
 25 28  1  0  0  0  0
 28 24  1  0  0  0  0
 29 26  2  0  0  0  0
 29 31  1  0  0  0  0
 30 23  1  1  0  0  0
 30 29  1  0  0  0  0
M  END
>  <MODEL>
3

>  <REMARK>
 VINA RESULT:      -9.6      2.372      4.131
  Name = 
  2 active torsions:
  status: ('A' for Active; 'I' for Inactive)
    1  A    between atoms: C_5  and  N_16
    2  A    between atoms: C_5  and  C_30
                            x       y       z     vdW  Elec       q    Type
                         _______ _______ _______ _____ _____    ______ ____

>  <TORSDO>
F 2

$$$$
=
 OpenBabel11122413173D

 31 35  0  0  1  0  0  0  0  0999 V2000
  161.1530  204.9670  152.5570 C   0  0  0  0  0  0  0  0  0  0  0  0
  161.4850  206.0480  148.9650 C   0  0  0  0  0  0  0  0  0  0  0  0
  161.3860  204.8770  148.1600 C   0  0  0  0  0  0  0  0  0  0  0  0
  161.1070  202.4680  147.8640 C   0  0  0  0  0  0  0  0  0  0  0  0
  161.4080  206.0660  150.3910 C   0  0  0  0  0  0  0  0  0  0  0  0
  161.2690  206.1950  153.2080 C   0  0  0  0  0  3  0  0  0  0  0  0
  161.1980  203.5890  148.6930 C   0  0  0  0  0  3  0  0  0  0  0  0
  161.7790  208.4760  149.0220 C   0  0  0  0  0  0  0  0  0  0  0  0
  160.9720  203.8340  153.2760 F   0  0  0  0  0  0  0  0  0  0  0  0
  161.6620  206.2240  146.1940 N   0  0  0  0  0  0  0  0  0  0  0  0
  160.9210  201.2090  148.4190 O   0  0  0  0  0  1  0  0  0  0  0  0
  161.7040  208.4550  150.3750 N   0  0  0  0  0  0  0  0  0  0  0  0
  161.6750  207.2840  148.2940 C   0  0  0  0  0  0  0  0  0  0  0  0
  161.9750  209.7160  148.3340 N   0  0  0  0  0  2  0  0  0  0  0  0
  161.2220  204.9070  151.1630 C   0  0  0  0  0  3  0  0  0  0  0  0
  161.2030  202.6130  146.4810 C   0  0  0  0  0  3  0  0  0  0  0  0
  161.5240  207.3060  151.0700 C   0  0  0  0  0  0  0  0  0  0  0  0
  161.4530  207.3610  152.4660 C   0  0  0  0  0  3  0  0  0  0  0  0
  161.7550  207.3220  146.9390 N   0  0  0  0  0  0  0  0  0  0  0  0
  161.4810  205.0040  146.7530 C   0  0  0  0  0  0  0  0  0  0  0  0
  161.3890  203.8800  145.9260 C   0  0  0  0  0  3  0  0  0  0  0  0
  161.9090  210.8160  150.3940 O   0  0  0  0  0  1  0  0  0  0  0  0
  162.0850  210.9960  149.0210 C   0  0  2  0  0  3  0  0  0  0  0  0
  161.8270  213.8900  146.3210 C   0  0  1  0  0  3  0  0  0  0  0  0
  160.6830  211.7750  147.0160 C   0  0  0  0  0  2  0  0  0  0  0  0
  161.2080  213.9700  149.7910 O   0  0  0  0  0  0  0  0  0  0  0  0
  162.7040  214.4530  145.3970 O   0  0  0  0  0  1  0  0  0  0  0  0
  161.6980  212.3940  146.0540 C   0  0  0  0  0  2  0  0  0  0  0  0
  161.4940  213.4230  148.7390 C   0  0  0  0  0  0  0  0  0  0  0  0
  161.0620  212.0030  148.4880 C   0  0  2  0  0  3  0  0  0  0  0  0
  162.3460  214.1400  147.7330 C   0  0  0  0  0  2  0  0  0  0  0  0
  1  6  1  0  0  0  0
  1  9  1  0  0  0  0
  2  5  1  0  0  0  0
  3  7  1  0  0  0  0
  3  2  2  0  0  0  0
  4 11  1  0  0  0  0
  4  7  2  0  0  0  0
  5 17  2  0  0  0  0
  5 15  1  0  0  0  0
  8 12  2  0  0  0  0
 10 20  2  0  0  0  0
 10 19  1  0  0  0  0
 12 17  1  0  0  0  0
 13  2  1  0  0  0  0
 13  8  1  0  0  0  0
 14 23  1  0  0  0  0
 14  8  1  0  0  0  0
 15  1  2  0  0  0  0
 16  4  1  0  0  0  0
 17 18  1  0  0  0  0
 18  6  2  0  0  0  0
 19 13  2  0  0  0  0
 20  3  1  0  0  0  0
 21 16  2  0  0  0  0
 21 20  1  0  0  0  0
 23 22  1  1  0  0  0
 24 27  1  6  0  0  0
 24 31  1  0  0  0  0
 25 30  1  0  0  0  0
 28 24  1  0  0  0  0
 28 25  1  0  0  0  0
 29 26  2  0  0  0  0
 30 29  1  0  0  0  0
 30 23  1  6  0  0  0
 31 29  1  0  0  0  0
M  END
>  <MODEL>
4

>  <REMARK>
 VINA RESULT:      -9.5      3.371      4.678
  Name = 
  2 active torsions:
  status: ('A' for Active; 'I' for Inactive)
    1  A    between atoms: C_5  and  N_16
    2  A    between atoms: C_5  and  C_30
                            x       y       z     vdW  Elec       q    Type
                         _______ _______ _______ _____ _____    ______ ____

>  <TORSDO>
F 2

$$$$
=
 OpenBabel11122413173D

 31 35  0  0  1  0  0  0  0  0999 V2000
  161.0710  206.4650  153.4080 C   0  0  0  0  0  0  0  0  0  0  0  0
  161.4950  206.8530  149.6870 C   0  0  0  0  0  0  0  0  0  0  0  0
  161.3830  205.5550  149.1100 C   0  0  0  0  0  0  0  0  0  0  0  0
  161.0510  203.1400  149.2590 C   0  0  0  0  0  0  0  0  0  0  0  0
  161.3930  207.1370  151.0820 C   0  0  0  0  0  0  0  0  0  0  0  0
  161.2050  207.7900  153.8230 C   0  0  0  0  0  3  0  0  0  0  0  0
  161.1540  204.3920  149.8680 C   0  0  0  0  0  3  0  0  0  0  0  0
  161.8470  209.2430  149.2990 C   0  0  0  0  0  0  0  0  0  0  0  0
  160.8510  205.4890  154.3200 F   0  0  0  0  0  0  0  0  0  0  0  0
  161.7270  206.5070  146.9360 N   0  0  0  0  0  0  0  0  0  0  0  0
  160.8250  202.0100  150.0340 O   0  0  0  0  0  1  0  0  0  0  0  0
  161.7460  209.4750  150.6310 N   0  0  0  0  0  0  0  0  0  0  0  0
  161.7270  207.9390  148.8030 C   0  0  0  0  0  0  0  0  0  0  0  0
  162.0850  210.3290  148.3980 N   0  0  0  0  0  2  0  0  0  0  0  0
  161.1650  206.1450  152.0520 C   0  0  0  0  0  3  0  0  0  0  0  0
  161.1760  203.0230  147.8760 C   0  0  0  0  0  3  0  0  0  0  0  0
  161.5250  208.4790  151.5220 C   0  0  0  0  0  0  0  0  0  0  0  0
  161.4310  208.7930  152.8820 C   0  0  0  0  0  3  0  0  0  0  0  0
  161.8330  207.7230  147.4660 N   0  0  0  0  0  0  0  0  0  0  0  0
  161.5060  205.4170  147.7060 C   0  0  0  0  0  0  0  0  0  0  0  0
  161.4030  204.1610  147.1000 C   0  0  0  0  0  3  0  0  0  0  0  0
  161.4660  211.9130  150.0000 O   0  0  0  0  0  1  0  0  0  0  0  0
  162.2130  211.7120  148.8380 C   0  0  2  0  0  3  0  0  0  0  0  0
  159.1700  214.1240  148.0290 C   0  0  1  0  0  3  0  0  0  0  0  0
  161.6650  214.1450  148.2270 C   0  0  0  0  0  2  0  0  0  0  0  0
  160.5260  211.4770  146.1340 O   0  0  0  0  0  0  0  0  0  0  0  0
  157.9790  214.4530  148.6710 O   0  0  0  0  0  1  0  0  0  0  0  0
  160.3470  214.4340  148.9480 C   0  0  0  0  0  2  0  0  0  0  0  0
  160.4830  212.2340  147.0900 C   0  0  0  0  0  0  0  0  0  0  0  0
  161.7590  212.6870  147.7480 C   0  0  2  0  0  3  0  0  0  0  0  0
  159.1560  212.6450  147.6570 C   0  0  0  0  0  2  0  0  0  0  0  0
  1  6  1  0  0  0  0
  1  9  1  0  0  0  0
  2  5  1  0  0  0  0
  3  2  1  0  0  0  0
  3  7  1  0  0  0  0
  4  7  2  0  0  0  0
  4 11  1  0  0  0  0
  5 17  2  0  0  0  0
  5 15  1  0  0  0  0
  8 12  2  0  0  0  0
 10 19  2  0  0  0  0
 10 20  1  0  0  0  0
 12 17  1  0  0  0  0
 13  8  1  0  0  0  0
 13  2  2  0  0  0  0
 14 23  1  0  0  0  0
 14  8  1  0  0  0  0
 15  1  2  0  0  0  0
 16  4  1  0  0  0  0
 17 18  1  0  0  0  0
 18  6  2  0  0  0  0
 19 13  1  0  0  0  0
 20  3  2  0  0  0  0
 21 20  1  0  0  0  0
 21 16  2  0  0  0  0
 23 22  1  1  0  0  0
 24 27  1  1  0  0  0
 24 28  1  0  0  0  0
 25 28  1  0  0  0  0
 26 29  2  0  0  0  0
 29 31  1  0  0  0  0
 29 30  1  0  0  0  0
 30 25  1  0  0  0  0
 30 23  1  1  0  0  0
 31 24  1  0  0  0  0
M  END
>  <MODEL>
5

>  <REMARK>
 VINA RESULT:      -9.1      3.429      4.766
  Name = 
  2 active torsions:
  status: ('A' for Active; 'I' for Inactive)
    1  A    between atoms: C_5  and  N_16
    2  A    between atoms: C_5  and  C_30
                            x       y       z     vdW  Elec       q    Type
                         _______ _______ _______ _____ _____    ______ ____

>  <TORSDO>
F 2

$$$$
=
 OpenBabel11122413173D

 31 35  0  0  1  0  0  0  0  0999 V2000
  161.9540  208.7670  148.5750 C   0  0  0  0  0  0  0  0  0  0  0  0
  161.3520  207.0010  151.8460 C   0  0  0  0  0  0  0  0  0  0  0  0
  161.2050  205.6130  151.5580 C   0  0  0  0  0  0  0  0  0  0  0  0
  161.1360  203.7160  150.0210 C   0  0  0  0  0  0  0  0  0  0  0  0
  161.5950  208.0160  150.8710 C   0  0  0  0  0  0  0  0  0  0  0  0
  162.0730  210.0850  149.0110 C   0  0  0  0  0  3  0  0  0  0  0  0
  161.2860  205.0840  150.2570 C   0  0  0  0  0  3  0  0  0  0  0  0
  161.3820  208.7440  153.5630 C   0  0  0  0  0  0  0  0  0  0  0  0
  162.0680  208.4760  147.2570 F   0  0  0  0  0  0  0  0  0  0  0  0
  160.8800  205.1780  153.8940 N   0  0  0  0  0  0  0  0  0  0  0  0
  161.2200  203.2230  148.7260 O   0  0  0  0  0  1  0  0  0  0  0  0
  161.6090  209.6810  152.6090 N   0  0  0  0  0  0  0  0  0  0  0  0
  161.2480  207.3970  153.2050 C   0  0  0  0  0  0  0  0  0  0  0  0
  161.2700  209.1320  154.9350 N   0  0  0  0  0  2  0  0  0  0  0  0
  161.7170  207.7450  149.4970 C   0  0  0  0  0  3  0  0  0  0  0  0
  160.9000  202.8460  151.0850 C   0  0  0  0  0  3  0  0  0  0  0  0
  161.7190  209.3630  151.2970 C   0  0  0  0  0  0  0  0  0  0  0  0
  161.9560  210.3820  150.3690 C   0  0  0  0  0  3  0  0  0  0  0  0
  161.0160  206.4710  154.1720 N   0  0  0  0  0  0  0  0  0  0  0  0
  160.9660  204.7140  152.6250 C   0  0  0  0  0  0  0  0  0  0  0  0
  160.8160  203.3450  152.3850 C   0  0  0  0  0  3  0  0  0  0  0  0
  162.5800  210.6560  156.1270 O   0  0  0  0  0  1  0  0  0  0  0  0
  161.4060  210.5110  155.3850 C   0  0  2  0  0  3  0  0  0  0  0  0
  158.0220  212.5370  154.9720 C   0  0  1  0  0  3  0  0  0  0  0  0
  158.8740  210.3200  155.7610 C   0  0  0  0  0  2  0  0  0  0  0  0
  160.6970  213.0320  157.2150 O   0  0  0  0  0  0  0  0  0  0  0  0
  157.3960  213.2020  153.9200 O   0  0  0  0  0  1  0  0  0  0  0  0
  158.2530  211.0790  154.5880 C   0  0  0  0  0  2  0  0  0  0  0  0
  160.1030  212.4430  156.3260 C   0  0  0  0  0  0  0  0  0  0  0  0
  160.2000  210.9450  156.2220 C   0  0  2  0  0  3  0  0  0  0  0  0
  159.3460  213.2230  155.2920 C   0  0  0  0  0  2  0  0  0  0  0  0
  1  6  2  0  0  0  0
  1 15  1  0  0  0  0
  2 13  1  0  0  0  0
  3  2  2  0  0  0  0
  3 20  1  0  0  0  0
  4  7  2  0  0  0  0
  4 16  1  0  0  0  0
  5 17  1  0  0  0  0
  5  2  1  0  0  0  0
  6 18  1  0  0  0  0
  7  3  1  0  0  0  0
  8 14  1  0  0  0  0
  9  1  1  0  0  0  0
 10 19  1  0  0  0  0
 11  4  1  0  0  0  0
 12  8  2  0  0  0  0
 13  8  1  0  0  0  0
 13 19  2  0  0  0  0
 14 23  1  0  0  0  0
 15  5  2  0  0  0  0
 16 21  2  0  0  0  0
 17 12  1  0  0  0  0
 18 17  2  0  0  0  0
 20 10  2  0  0  0  0
 21 20  1  0  0  0  0
 23 22  1  1  0  0  0
 24 27  1  6  0  0  0
 24 31  1  0  0  0  0
 25 30  1  0  0  0  0
 28 24  1  0  0  0  0
 28 25  1  0  0  0  0
 29 26  2  0  0  0  0
 30 23  1  6  0  0  0
 30 29  1  0  0  0  0
 31 29  1  0  0  0  0
M  END
>  <MODEL>
6

>  <REMARK>
 VINA RESULT:      -9.0      2.997      4.922
  Name = 
  2 active torsions:
  status: ('A' for Active; 'I' for Inactive)
    1  A    between atoms: C_5  and  N_16
    2  A    between atoms: C_5  and  C_30
                            x       y       z     vdW  Elec       q    Type
                         _______ _______ _______ _____ _____    ______ ____

>  <TORSDO>
F 2

$$$$
=
 OpenBabel11122413173D

 31 35  0  0  1  0  0  0  0  0999 V2000
  161.8100  206.6300  147.0000 C   0  0  0  0  0  0  0  0  0  0  0  0
  161.2870  205.6030  150.5850 C   0  0  0  0  0  0  0  0  0  0  0  0
  161.1390  204.1860  150.6030 C   0  0  0  0  0  0  0  0  0  0  0  0
  161.0420  202.0050  149.5080 C   0  0  0  0  0  0  0  0  0  0  0  0
  161.5040  206.3860  149.4110 C   0  0  0  0  0  0  0  0  0  0  0  0
  161.9340  208.0120  147.1430 C   0  0  0  0  0  3  0  0  0  0  0  0
  161.1930  203.3920  149.4430 C   0  0  0  0  0  3  0  0  0  0  0  0
  161.3490  207.6720  151.8900 C   0  0  0  0  0  0  0  0  0  0  0  0
  161.8960  206.0660  145.7720 F   0  0  0  0  0  0  0  0  0  0  0  0
  160.8680  204.2580  152.9850 N   0  0  0  0  0  0  0  0  0  0  0  0
  161.1000  201.2470  148.3460 O   0  0  0  0  0  1  0  0  0  0  0  0
  161.5520  208.3840  150.7540 N   0  0  0  0  0  0  0  0  0  0  0  0
  161.2110  206.2800  151.8310 C   0  0  0  0  0  0  0  0  0  0  0  0
  161.2660  208.3430  153.1510 N   0  0  0  0  0  2  0  0  0  0  0  0
  161.5970  205.8290  148.1240 C   0  0  0  0  0  3  0  0  0  0  0  0
  160.8330  201.3820  150.7370 C   0  0  0  0  0  3  0  0  0  0  0  0
  161.6330  207.7930  149.5370 C   0  0  0  0  0  0  0  0  0  0  0  0
  161.8460  208.5910  148.4090 C   0  0  0  0  0  3  0  0  0  0  0  0
  161.0050  205.5820  152.9780 N   0  0  0  0  0  0  0  0  0  0  0  0
  160.9270  203.5350  151.8420 C   0  0  0  0  0  0  0  0  0  0  0  0
  160.7760  202.1460  151.9030 C   0  0  0  0  0  3  0  0  0  0  0  0
  162.6780  210.1840  152.8740 O   0  0  0  0  0  1  0  0  0  0  0  0
  161.4070  209.7860  153.2930 C   0  0  2  0  0  3  0  0  0  0  0  0
  160.3500  208.2340  156.7860 C   0  0  1  0  0  3  0  0  0  0  0  0
  162.1600  209.6110  155.7410 C   0  0  0  0  0  2  0  0  0  0  0  0
  158.9100  210.8820  154.9580 O   0  0  0  0  0  0  0  0  0  0  0  0
  160.0110  206.9580  157.2330 O   0  0  0  0  0  1  0  0  0  0  0  0
  161.7450  208.2030  156.1710 C   0  0  0  0  0  2  0  0  0  0  0  0
  159.7420  210.0140  155.1630 C   0  0  0  0  0  0  0  0  0  0  0  0
  161.1710  210.2290  154.7400 C   0  0  2  0  0  3  0  0  0  0  0  0
  159.3230  208.7040  155.7620 C   0  0  0  0  0  2  0  0  0  0  0  0
  1  6  2  0  0  0  0
  1 15  1  0  0  0  0
  2  3  2  0  0  0  0
  2 13  1  0  0  0  0
  3 20  1  0  0  0  0
  4 16  1  0  0  0  0
  5 17  1  0  0  0  0
  5  2  1  0  0  0  0
  6 18  1  0  0  0  0
  7  4  2  0  0  0  0
  7  3  1  0  0  0  0
  8 14  1  0  0  0  0
  9  1  1  0  0  0  0
 11  4  1  0  0  0  0
 12  8  2  0  0  0  0
 13  8  1  0  0  0  0
 13 19  2  0  0  0  0
 14 23  1  0  0  0  0
 15  5  2  0  0  0  0
 16 21  2  0  0  0  0
 17 12  1  0  0  0  0
 18 17  2  0  0  0  0
 19 10  1  0  0  0  0
 20 21  1  0  0  0  0
 20 10  2  0  0  0  0
 23 22  1  1  0  0  0
 24 27  1  6  0  0  0
 25 28  1  0  0  0  0
 26 29  2  0  0  0  0
 28 24  1  0  0  0  0
 29 31  1  0  0  0  0
 30 23  1  6  0  0  0
 30 29  1  0  0  0  0
 30 25  1  0  0  0  0
 31 24  1  0  0  0  0
M  END
>  <MODEL>
7

>  <REMARK>
 VINA RESULT:      -8.1      2.183      4.286
  Name = 
  2 active torsions:
  status: ('A' for Active; 'I' for Inactive)
    1  A    between atoms: C_5  and  N_16
    2  A    between atoms: C_5  and  C_30
                            x       y       z     vdW  Elec       q    Type
                         _______ _______ _______ _____ _____    ______ ____

>  <TORSDO>
F 2

$$$$
=
 OpenBabel11122413173D

 31 35  0  0  1  0  0  0  0  0999 V2000
  160.3530  207.3170  155.9520 C   0  0  0  0  0  0  0  0  0  0  0  0
  160.4320  209.8930  153.2060 C   0  0  0  0  0  0  0  0  0  0  0  0
  159.9570  211.1180  153.7610 C   0  0  0  0  0  0  0  0  0  0  0  0
  159.0970  212.4720  155.6020 C   0  0  0  0  0  0  0  0  0  0  0  0
  160.5560  208.6660  153.9260 C   0  0  0  0  0  0  0  0  0  0  0  0
  160.8320  206.1990  155.2700 C   0  0  0  0  0  3  0  0  0  0  0  0
  159.5550  211.2510  155.1020 C   0  0  0  0  0  3  0  0  0  0  0  0
  161.2800  208.7350  151.2260 C   0  0  0  0  0  0  0  0  0  0  0  0
  160.0200  207.2210  157.2610 F   0  0  0  0  0  0  0  0  0  0  0  0
  160.2610  212.1820  151.6330 N   0  0  0  0  0  0  0  0  0  0  0  0
  158.7060  212.5730  156.9310 O   0  0  0  0  0  1  0  0  0  0  0  0
  161.3830  207.5870  151.9390 N   0  0  0  0  0  0  0  0  0  0  0  0
  160.8050  209.9020  151.8370 C   0  0  0  0  0  0  0  0  0  0  0  0
  161.6490  208.7550  149.8430 N   0  0  0  0  0  2  0  0  0  0  0  0
  160.2170  208.5360  155.2840 C   0  0  0  0  0  3  0  0  0  0  0  0
  159.0310  213.5880  154.7690 C   0  0  0  0  0  3  0  0  0  0  0  0
  161.0420  207.5190  153.2490 C   0  0  0  0  0  0  0  0  0  0  0  0
  161.1760  206.3000  153.9220 C   0  0  0  0  0  3  0  0  0  0  0  0
  160.7050  211.0430  151.1070 N   0  0  0  0  0  0  0  0  0  0  0  0
  159.8840  212.2620  152.9300 C   0  0  0  0  0  0  0  0  0  0  0  0
  159.4250  213.4830  153.4350 C   0  0  0  0  0  3  0  0  0  0  0  0
  163.1110  207.9740  148.1960 O   0  0  0  0  0  1  0  0  0  0  0  0
  162.1590  207.5850  149.1400 C   0  0  2  0  0  3  0  0  0  0  0  0
  161.0470  203.8370  148.4720 C   0  0  1  0  0  3  0  0  0  0  0  0
  160.1770  205.9790  149.4280 C   0  0  0  0  0  2  0  0  0  0  0  0
  161.6270  206.4660  146.1950 O   0  0  0  0  0  0  0  0  0  0  0  0
  161.5710  202.5850  148.7860 O   0  0  0  0  0  1  0  0  0  0  0  0
  160.8180  204.6300  149.7540 C   0  0  0  0  0  2  0  0  0  0  0  0
  161.5380  205.9780  147.3100 C   0  0  0  0  0  0  0  0  0  0  0  0
  161.0290  206.8110  148.4560 C   0  0  2  0  0  3  0  0  0  0  0  0
  162.0120  204.5750  147.5500 C   0  0  0  0  0  2  0  0  0  0  0  0
  1  9  1  0  0  0  0
  2  3  1  0  0  0  0
  2  5  1  0  0  0  0
  3  7  1  0  0  0  0
  4 11  1  0  0  0  0
  5 15  2  0  0  0  0
  6  1  2  0  0  0  0
  7  4  2  0  0  0  0
  8 13  1  0  0  0  0
  8 12  2  0  0  0  0
 10 20  1  0  0  0  0
 12 17  1  0  0  0  0
 13  2  2  0  0  0  0
 14  8  1  0  0  0  0
 15  1  1  0  0  0  0
 16  4  1  0  0  0  0
 17 18  2  0  0  0  0
 17  5  1  0  0  0  0
 18  6  1  0  0  0  0
 19 10  2  0  0  0  0
 19 13  1  0  0  0  0
 20 21  1  0  0  0  0
 20  3  2  0  0  0  0
 21 16  2  0  0  0  0
 23 22  1  6  0  0  0
 23 14  1  0  0  0  0
 24 27  1  1  0  0  0
 24 28  1  0  0  0  0
 25 28  1  0  0  0  0
 26 29  2  0  0  0  0
 29 31  1  0  0  0  0
 29 30  1  0  0  0  0
 30 23  1  1  0  0  0
 30 25  1  0  0  0  0
 31 24  1  0  0  0  0
M  END
>  <MODEL>
8

>  <REMARK>
 VINA RESULT:      -7.9      2.838      8.135
  Name = 
  2 active torsions:
  status: ('A' for Active; 'I' for Inactive)
    1  A    between atoms: C_5  and  N_16
    2  A    between atoms: C_5  and  C_30
                            x       y       z     vdW  Elec       q    Type
                         _______ _______ _______ _____ _____    ______ ____

>  <TORSDO>
F 2

$$$$
=
 OpenBabel11122413173D

 31 35  0  0  1  0  0  0  0  0999 V2000
  161.5860  210.9990  150.1950 C   0  0  0  0  0  0  0  0  0  0  0  0
  160.8260  208.8150  153.1670 C   0  0  0  0  0  0  0  0  0  0  0  0
  160.4260  209.6730  154.2320 C   0  0  0  0  0  0  0  0  0  0  0  0
  159.9560  211.8750  155.1800 C   0  0  0  0  0  0  0  0  0  0  0  0
  161.2010  209.2550  151.8610 C   0  0  0  0  0  0  0  0  0  0  0  0
  161.9570  210.0370  149.2560 C   0  0  0  0  0  3  0  0  0  0  0  0
  160.3540  211.0730  154.1080 C   0  0  0  0  0  3  0  0  0  0  0  0
  161.2360  206.5180  152.4320 C   0  0  0  0  0  0  0  0  0  0  0  0
  161.5880  212.3100  149.8580 F   0  0  0  0  0  0  0  0  0  0  0  0
  160.1350  207.7580  155.6460 N   0  0  0  0  0  0  0  0  0  0  0  0
  159.8960  213.2540  155.0280 O   0  0  0  0  0  1  0  0  0  0  0  0
  161.5880  206.9720  151.2040 N   0  0  0  0  0  0  0  0  0  0  0  0
  160.8530  207.4210  153.4310 C   0  0  0  0  0  0  0  0  0  0  0  0
  161.2640  205.1150  152.7120 N   0  0  0  0  0  2  0  0  0  0  0  0
  161.2130  210.6090  151.4830 C   0  0  0  0  0  3  0  0  0  0  0  0
  159.6210  211.2920  156.4010 C   0  0  0  0  0  3  0  0  0  0  0  0
  161.5810  208.2910  150.8930 C   0  0  0  0  0  0  0  0  0  0  0  0
  161.9540  208.6870  149.6050 C   0  0  0  0  0  3  0  0  0  0  0  0
  160.5070  206.9490  154.6580 N   0  0  0  0  0  0  0  0  0  0  0  0
  160.0810  209.1000  155.4800 C   0  0  0  0  0  0  0  0  0  0  0  0
  159.6830  209.9060  156.5510 C   0  0  0  0  0  3  0  0  0  0  0  0
  162.7060  204.5880  150.9510 O   0  0  0  0  0  1  0  0  0  0  0  0
  161.6430  204.1150  151.7220 C   0  0  2  0  0  3  0  0  0  0  0  0
  160.8100  201.7290  148.6650 C   0  0  1  0  0  3  0  0  0  0  0  0
  160.0020  202.2910  150.9660 C   0  0  0  0  0  2  0  0  0  0  0  0
  160.4570  205.2240  148.9700 O   0  0  0  0  0  0  0  0  0  0  0  0
  161.5340  200.8080  147.9110 O   0  0  0  0  0  1  0  0  0  0  0  0
  160.8520  201.3280  150.1360 C   0  0  0  0  0  2  0  0  0  0  0  0
  160.7280  204.1080  149.3810 C   0  0  0  0  0  0  0  0  0  0  0  0
  160.4620  203.7500  150.8180 C   0  0  2  0  0  3  0  0  0  0  0  0
  161.4010  203.1220  148.4720 C   0  0  0  0  0  2  0  0  0  0  0  0
  1 15  1  0  0  0  0
  2 13  2  0  0  0  0
  2  3  1  0  0  0  0
  3 20  1  0  0  0  0
  4 16  2  0  0  0  0
  5  2  1  0  0  0  0
  6 18  1  0  0  0  0
  6  1  2  0  0  0  0
  7  3  2  0  0  0  0
  7  4  1  0  0  0  0
  8 14  1  0  0  0  0
  8 13  1  0  0  0  0
  9  1  1  0  0  0  0
 11  4  1  0  0  0  0
 12  8  2  0  0  0  0
 13 19  1  0  0  0  0
 15  5  2  0  0  0  0
 16 21  1  0  0  0  0
 17 12  1  0  0  0  0
 17  5  1  0  0  0  0
 18 17  2  0  0  0  0
 19 10  2  0  0  0  0
 20 10  1  0  0  0  0
 20 21  2  0  0  0  0
 23 22  1  6  0  0  0
 23 14  1  0  0  0  0
 24 27  1  6  0  0  0
 24 28  1  0  0  0  0
 26 29  2  0  0  0  0
 28 25  1  0  0  0  0
 29 30  1  0  0  0  0
 30 25  1  0  0  0  0
 30 23  1  1  0  0  0
 31 24  1  0  0  0  0
 31 29  1  0  0  0  0
M  END
>  <MODEL>
9

>  <REMARK>
 VINA RESULT:      -7.8      3.103      8.730
  Name = 
  2 active torsions:
  status: ('A' for Active; 'I' for Inactive)
    1  A    between atoms: C_5  and  N_16
    2  A    between atoms: C_5  and  C_30
                            x       y       z     vdW  Elec       q    Type
                         _______ _______ _______ _____ _____    ______ ____

>  <TORSDO>
F 2

$$$$
