=
 OpenBabel11122413103D

 31 35  0  0  1  0  0  0  0  0999 V2000
  160.9070  206.6140  146.6850 C   0  0  0  0  0  0  0  0  0  0  0  0
  160.3050  204.9940  150.0710 C   0  0  2  0  0  3  0  0  0  0  0  0
  160.7310  203.5450  149.8980 C   0  0  0  0  0  0  0  0  0  0  0  0
  161.1410  201.7110  148.4320 C   0  0  0  0  0  0  0  0  0  0  0  0
  160.8800  205.8960  149.0050 C   0  0  0  0  0  0  0  0  0  0  0  0
  161.9770  207.4680  146.9560 C   0  0  0  0  0  3  0  0  0  0  0  0
  160.8340  203.0160  148.6460 N   0  0  0  0  0  0  0  0  0  0  0  0
  162.0640  205.8930  151.6560 C   0  0  2  0  0  3  0  0  0  0  0  0
  160.3870  206.5390  145.4000 O   0  0  0  0  0  1  0  0  0  0  0  0
  160.8330  203.2080  152.4240 C   0  0  0  0  0  2  0  0  0  0  0  0
  161.2730  201.1010  146.7970 Cl  0  0  0  0  0  0  0  0  0  0  0  0
  162.4630  206.9910  150.6740 C   0  0  0  0  0  2  0  0  0  0  0  0
  160.5750  205.5390  151.4860 C   0  0  2  0  0  3  0  0  0  0  0  0
  160.3590  205.8340  147.7050 C   0  0  0  0  0  3  0  0  0  0  0  0
  161.3460  200.8550  149.5140 C   0  0  0  0  0  3  0  0  0  0  0  0
  161.9610  206.7630  149.2780 C   0  0  0  0  0  0  0  0  0  0  0  0
  162.4950  207.5490  148.2510 C   0  0  0  0  0  3  0  0  0  0  0  0
  160.0750  204.5290  152.5230 C   0  0  0  0  0  2  0  0  0  0  0  0
  160.9000  202.6970  151.0160 C   0  0  0  0  0  0  0  0  0  0  0  0
  161.2270  201.3550  150.8090 C   0  0  0  0  0  3  0  0  0  0  0  0
  162.3470  206.3630  153.0090 N   0  0  0  0  0  2  0  0  0  0  0  0
  160.5690  206.8390  154.6030 C   0  0  0  0  0  1  0  0  0  0  0  0
  161.3290  207.3390  153.3810 C   0  0  1  0  0  3  0  0  0  0  0  0
  159.8840  210.5300  154.7850 C   0  0  1  0  0  3  0  0  0  0  0  0
  161.8090  209.0750  155.0600 O   0  0  0  0  0  0  0  0  0  0  0  0
  161.2100  209.5150  151.2430 O   0  0  0  0  0  0  0  0  0  0  0  0
  158.4920  210.7640  155.3290 C   0  0  0  0  0  1  0  0  0  0  0  0
  160.4340  209.2210  155.3490 C   0  0  0  0  0  2  0  0  0  0  0  0
  161.4610  210.0930  152.6280 S   0  0  2  0  0  0  0  0  0  0  0  0
  161.9670  208.7070  153.7010 C   0  0  2  0  0  3  0  0  0  0  0  0
  159.8200  210.4550  153.2670 C   0  0  0  0  0  2  0  0  0  0  0  0
  1  6  2  0  0  0  0
  1 14  1  0  0  0  0
  2  5  1  6  0  0  0
  2 13  1  0  0  0  0
  3  2  1  0  0  0  0
  3 19  1  0  0  0  0
  4  7  1  0  0  0  0
  4 15  2  0  0  0  0
  5 16  1  0  0  0  0
  6 17  1  0  0  0  0
  7  3  2  0  0  0  0
  8 21  1  1  0  0  0
  9  1  1  0  0  0  0
 10 18  1  0  0  0  0
 11  4  1  0  0  0  0
 12  8  1  0  0  0  0
 13  8  1  0  0  0  0
 13 18  1  1  0  0  0
 14  5  2  0  0  0  0
 15 20  1  0  0  0  0
 16 12  1  0  0  0  0
 17 16  2  0  0  0  0
 19 10  1  0  0  0  0
 20 19  2  0  0  0  0
 21 23  1  0  0  0  0
 23 22  1  1  0  0  0
 24 27  1  1  0  0  0
 24 28  1  0  0  0  0
 25 28  1  0  0  0  0
 29 26  2  6  0  0  0
 29 31  1  0  0  0  0
 29 30  1  0  0  0  0
 30 23  1  6  0  0  0
 30 25  1  0  0  0  0
 31 24  1  0  0  0  0
M  END
>  <MODEL>
1

>  <REMARK>
 VINA RESULT:      -7.8      0.000      0.000
  Name = 
  3 active torsions:
  status: ('A' for Active; 'I' for Inactive)
    1  A    between atoms: C_5  and  N_16
    2  A    between atoms: C_5  and  C_30
    3  A    between atoms: C_10  and  N_16
                            x       y       z     vdW  Elec       q    Type
                         _______ _______ _______ _____ _____    ______ ____

>  <TORSDO>
F 3

$$$$
=
 OpenBabel11122413103D

 31 35  0  0  1  0  0  0  0  0999 V2000
  160.5440  207.6380  156.2190 C   0  0  0  0  0  0  0  0  0  0  0  0
  161.8810  208.9510  152.9120 C   0  0  2  0  0  3  0  0  0  0  0  0
  161.4710  207.9140  151.8780 C   0  0  0  0  0  0  0  0  0  0  0  0
  160.8200  205.6710  151.4020 C   0  0  0  0  0  0  0  0  0  0  0  0
  161.0710  208.8520  154.1820 C   0  0  0  0  0  0  0  0  0  0  0  0
  159.5290  208.5520  156.5070 C   0  0  0  0  0  3  0  0  0  0  0  0
  161.1270  206.6580  152.2830 N   0  0  0  0  0  0  0  0  0  0  0  0
  160.4630  210.9490  152.2690 C   0  0  2  0  0  3  0  0  0  0  0  0
  160.7890  206.5770  157.0810 O   0  0  0  0  0  1  0  0  0  0  0  0
  161.9040  209.5500  149.9710 C   0  0  0  0  0  2  0  0  0  0  0  0
  160.3710  204.0860  151.9900 Cl  0  0  0  0  0  0  0  0  0  0  0  0
  159.8370  211.0180  153.6590 C   0  0  0  0  0  2  0  0  0  0  0  0
  161.8940  210.3870  152.3540 C   0  0  2  0  0  3  0  0  0  0  0  0
  161.3130  207.7890  155.0640 C   0  0  0  0  0  3  0  0  0  0  0  0
  160.8690  205.9180  150.0300 C   0  0  0  0  0  3  0  0  0  0  0  0
  160.0450  209.7770  154.4770 C   0  0  0  0  0  0  0  0  0  0  0  0
  159.2880  209.6230  155.6430 C   0  0  0  0  0  3  0  0  0  0  0  0
  162.6270  210.4040  151.0100 C   0  0  0  0  0  2  0  0  0  0  0  0
  161.5620  208.1880  150.4950 C   0  0  0  0  0  0  0  0  0  0  0  0
  161.2390  207.1840  149.5800 C   0  0  0  0  0  3  0  0  0  0  0  0
  160.4530  212.2910  151.6940 N   0  0  0  0  0  2  0  0  0  0  0  0
  158.0470  212.5120  151.9980 C   0  0  0  0  0  1  0  0  0  0  0  0
  159.1890  212.4820  150.9900 C   0  0  1  0  0  3  0  0  0  0  0  0
  157.9540  213.3370  147.5290 C   0  0  1  0  0  3  0  0  0  0  0  0
  157.8980  214.2050  149.7960 O   0  0  0  0  0  0  0  0  0  0  0  0
  161.5270  212.9950  149.0950 O   0  0  0  0  0  0  0  0  0  0  0  0
  157.1650  212.4650  146.5770 C   0  0  0  0  0  1  0  0  0  0  0  0
  157.3480  213.2360  148.9270 C   0  0  0  0  0  2  0  0  0  0  0  0
  160.3160  213.8490  148.7490 S   0  0  2  0  0  0  0  0  0  0  0  0
  159.1970  213.8000  150.1880 C   0  0  2  0  0  3  0  0  0  0  0  0
  159.4000  212.8660  147.5540 C   0  0  0  0  0  2  0  0  0  0  0  0
  1  6  1  0  0  0  0
  1  9  1  0  0  0  0
  2  3  1  6  0  0  0
  2  5  1  0  0  0  0
  3  7  1  0  0  0  0
  4 11  1  0  0  0  0
  4  7  2  0  0  0  0
  5 16  2  0  0  0  0
  5 14  1  0  0  0  0
  8 21  1  1  0  0  0
  8 13  1  0  0  0  0
  8 12  1  0  0  0  0
 10 19  1  0  0  0  0
 10 18  1  0  0  0  0
 12 16  1  0  0  0  0
 13 18  1  6  0  0  0
 13  2  1  0  0  0  0
 14  1  2  0  0  0  0
 15  4  1  0  0  0  0
 16 17  1  0  0  0  0
 17  6  2  0  0  0  0
 19  3  2  0  0  0  0
 20 15  2  0  0  0  0
 20 19  1  0  0  0  0
 23 21  1  0  0  0  0
 23 22  1  1  0  0  0
 24 27  1  6  0  0  0
 24 31  1  0  0  0  0
 24 28  1  0  0  0  0
 25 30  1  0  0  0  0
 28 25  1  0  0  0  0
 29 26  2  1  0  0  0
 29 30  1  0  0  0  0
 30 23  1  6  0  0  0
 31 29  1  0  0  0  0
M  END
>  <MODEL>
2

>  <REMARK>
 VINA RESULT:      -7.3      3.669      6.895
  Name = 
  3 active torsions:
  status: ('A' for Active; 'I' for Inactive)
    1  A    between atoms: C_5  and  N_16
    2  A    between atoms: C_5  and  C_30
    3  A    between atoms: C_10  and  N_16
                            x       y       z     vdW  Elec       q    Type
                         _______ _______ _______ _____ _____    ______ ____

>  <TORSDO>
F 3

$$$$
=
 OpenBabel11122413103D

 31 35  0  0  1  0  0  0  0  0999 V2000
  161.6580  207.6700  151.9240 C   0  0  0  0  0  0  0  0  0  0  0  0
  159.5380  210.5730  153.1610 C   0  0  2  0  0  3  0  0  0  0  0  0
  160.1450  210.9650  154.4980 C   0  0  0  0  0  0  0  0  0  0  0  0
  161.4630  210.3510  156.3880 C   0  0  0  0  0  0  0  0  0  0  0  0
  160.4880  209.7630  152.3110 C   0  0  0  0  0  0  0  0  0  0  0  0
  162.3240  208.2380  150.8360 C   0  0  0  0  0  3  0  0  0  0  0  0
  160.9500  210.0850  155.1580 N   0  0  0  0  0  0  0  0  0  0  0  0
  160.0850  212.5740  151.7080 C   0  0  2  0  0  3  0  0  0  0  0  0
  161.9070  206.3510  152.2790 O   0  0  0  0  0  1  0  0  0  0  0  0
  158.9330  213.2080  154.4620 C   0  0  0  0  0  2  0  0  0  0  0  0
  162.5030  209.1830  157.1710 Cl  0  0  0  0  0  0  0  0  0  0  0  0
  160.8210  211.7030  150.6940 C   0  0  0  0  0  2  0  0  0  0  0  0
  158.9590  211.7710  152.3860 C   0  0  2  0  0  3  0  0  0  0  0  0
  160.7430  208.4290  152.6560 C   0  0  0  0  0  3  0  0  0  0  0  0
  161.1570  211.5520  157.0280 C   0  0  0  0  0  3  0  0  0  0  0  0
  161.1610  210.3340  151.2080 C   0  0  0  0  0  0  0  0  0  0  0  0
  162.0680  209.5630  150.4740 C   0  0  0  0  0  3  0  0  0  0  0  0
  158.0990  212.6190  153.3270 C   0  0  0  0  0  2  0  0  0  0  0  0
  159.7880  212.1760  155.1340 C   0  0  0  0  0  0  0  0  0  0  0  0
  160.3180  212.4660  156.3920 C   0  0  0  0  0  3  0  0  0  0  0  0
  159.5580  213.7430  151.0110 N   0  0  0  0  0  2  0  0  0  0  0  0
  157.6030  213.0290  149.7460 C   0  0  0  0  0  1  0  0  0  0  0  0
  159.0970  213.3250  149.6920 C   0  0  1  0  0  3  0  0  0  0  0  0
  159.6790  213.1650  145.9670 C   0  0  1  0  0  3  0  0  0  0  0  0
  158.3990  214.4240  147.6010 O   0  0  0  0  0  0  0  0  0  0  0  0
  161.9970  213.9940  149.0120 O   0  0  0  0  0  0  0  0  0  0  0  0
  159.5750  211.9610  145.0570 C   0  0  0  0  0  1  0  0  0  0  0  0
  158.4690  213.2010  146.8980 C   0  0  0  0  0  2  0  0  0  0  0  0
  161.0380  214.4520  147.9230 S   0  0  2  0  0  0  0  0  0  0  0  0
  159.3610  214.4240  148.6400 C   0  0  2  0  0  3  0  0  0  0  0  0
  160.9590  213.0640  146.7820 C   0  0  0  0  0  2  0  0  0  0  0  0
  1  9  1  0  0  0  0
  1 14  1  0  0  0  0
  2  5  1  6  0  0  0
  2  3  1  0  0  0  0
  3 19  2  0  0  0  0
  3  7  1  0  0  0  0
  4 15  1  0  0  0  0
  4 11  1  0  0  0  0
  5 14  2  0  0  0  0
  6  1  2  0  0  0  0
  7  4  2  0  0  0  0
  8 21  1  6  0  0  0
  8 13  1  0  0  0  0
 10 19  1  0  0  0  0
 12 16  1  0  0  0  0
 12  8  1  0  0  0  0
 13  2  1  0  0  0  0
 13 18  1  1  0  0  0
 16  5  1  0  0  0  0
 17  6  1  0  0  0  0
 17 16  2  0  0  0  0
 18 10  1  0  0  0  0
 19 20  1  0  0  0  0
 20 15  2  0  0  0  0
 23 22  1  1  0  0  0
 23 21  1  0  0  0  0
 24 27  1  6  0  0  0
 24 31  1  0  0  0  0
 24 28  1  0  0  0  0
 25 30  1  0  0  0  0
 28 25  1  0  0  0  0
 29 30  1  0  0  0  0
 29 26  2  1  0  0  0
 30 23  1  6  0  0  0
 31 29  1  0  0  0  0
M  END
>  <MODEL>
3

>  <REMARK>
 VINA RESULT:      -6.9      4.918      8.390
  Name = 
  3 active torsions:
  status: ('A' for Active; 'I' for Inactive)
    1  A    between atoms: C_5  and  N_16
    2  A    between atoms: C_5  and  C_30
    3  A    between atoms: C_10  and  N_16
                            x       y       z     vdW  Elec       q    Type
                         _______ _______ _______ _____ _____    ______ ____

>  <TORSDO>
F 3

$$$$
=
 OpenBabel11122413103D

 31 35  0  0  1  0  0  0  0  0999 V2000
  161.0240  205.7600  145.9370 C   0  0  0  0  0  0  0  0  0  0  0  0
  160.3790  204.8690  149.5750 C   0  0  2  0  0  3  0  0  0  0  0  0
  160.7940  203.4130  149.7070 C   0  0  0  0  0  0  0  0  0  0  0  0
  161.2020  201.3150  148.6500 C   0  0  0  0  0  0  0  0  0  0  0  0
  160.9710  205.5310  148.3540 C   0  0  0  0  0  0  0  0  0  0  0  0
  162.0990  206.6450  146.0390 C   0  0  0  0  0  3  0  0  0  0  0  0
  160.9040  202.6390  148.5890 N   0  0  0  0  0  0  0  0  0  0  0  0
  162.1310  206.0610  150.9620 C   0  0  2  0  0  3  0  0  0  0  0  0
  160.5150  205.4280  144.6890 O   0  0  0  0  0  1  0  0  0  0  0  0
  160.8710  203.5970  152.2490 C   0  0  0  0  0  2  0  0  0  0  0  0
  161.3430  200.3840  147.1750 Cl  0  0  0  0  0  0  0  0  0  0  0  0
  162.5480  206.9330  149.7810 C   0  0  0  0  0  2  0  0  0  0  0  0
  160.6410  205.6890  150.8530 C   0  0  2  0  0  3  0  0  0  0  0  0
  160.4610  205.2080  147.0890 C   0  0  0  0  0  3  0  0  0  0  0  0
  161.3900  200.6960  149.8860 C   0  0  0  0  0  3  0  0  0  0  0  0
  162.0570  206.4290  148.4560 C   0  0  0  0  0  0  0  0  0  0  0  0
  162.6060  206.9850  147.2960 C   0  0  0  0  0  3  0  0  0  0  0  0
  160.1240  204.9160  152.0690 C   0  0  0  0  0  2  0  0  0  0  0  0
  160.9460  202.8090  150.9760 C   0  0  0  0  0  0  0  0  0  0  0  0
  161.2630  201.4520  151.0500 C   0  0  0  0  0  3  0  0  0  0  0  0
  162.4060  206.7950  152.1940 N   0  0  0  0  0  2  0  0  0  0  0  0
  160.5740  207.7980  153.4460 C   0  0  0  0  0  1  0  0  0  0  0  0
  161.5120  207.9470  152.2540 C   0  0  1  0  0  3  0  0  0  0  0  0
  160.4390  211.4840  153.0110 C   0  0  1  0  0  3  0  0  0  0  0  0
  162.1340  209.8700  153.6600 O   0  0  0  0  0  0  0  0  0  0  0  0
  161.7990  209.7230  149.7880 O   0  0  0  0  0  0  0  0  0  0  0  0
  159.0650  211.9790  153.4060 C   0  0  0  0  0  1  0  0  0  0  0  0
  160.7780  210.2330  153.8190 C   0  0  0  0  0  2  0  0  0  0  0  0
  162.0530  210.4930  151.0760 S   0  0  2  0  0  0  0  0  0  0  0  0
  162.3110  209.2590  152.3940 C   0  0  2  0  0  3  0  0  0  0  0  0
  160.4440  211.1600  151.5250 C   0  0  0  0  0  2  0  0  0  0  0  0
  1  6  2  0  0  0  0
  1 14  1  0  0  0  0
  2  5  1  6  0  0  0
  2  3  1  0  0  0  0
  2 13  1  0  0  0  0
  3 19  1  0  0  0  0
  4 15  2  0  0  0  0
  5 16  1  0  0  0  0
  6 17  1  0  0  0  0
  7  4  1  0  0  0  0
  7  3  2  0  0  0  0
  8 21  1  1  0  0  0
  9  1  1  0  0  0  0
 11  4  1  0  0  0  0
 12  8  1  0  0  0  0
 13  8  1  0  0  0  0
 13 18  1  1  0  0  0
 14  5  2  0  0  0  0
 15 20  1  0  0  0  0
 16 12  1  0  0  0  0
 17 16  2  0  0  0  0
 18 10  1  0  0  0  0
 19 20  2  0  0  0  0
 19 10  1  0  0  0  0
 21 23  1  0  0  0  0
 23 22  1  1  0  0  0
 24 27  1  1  0  0  0
 24 28  1  0  0  0  0
 25 28  1  0  0  0  0
 29 26  2  6  0  0  0
 29 31  1  0  0  0  0
 29 30  1  0  0  0  0
 30 23  1  6  0  0  0
 30 25  1  0  0  0  0
 31 24  1  0  0  0  0
M  END
>  <MODEL>
4

>  <REMARK>
 VINA RESULT:      -6.5      1.095      1.194
  Name = 
  3 active torsions:
  status: ('A' for Active; 'I' for Inactive)
    1  A    between atoms: C_5  and  N_16
    2  A    between atoms: C_5  and  C_30
    3  A    between atoms: C_10  and  N_16
                            x       y       z     vdW  Elec       q    Type
                         _______ _______ _______ _____ _____    ______ ____

>  <TORSDO>
F 3

$$$$
=
 OpenBabel11122413103D

 31 35  0  0  1  0  0  0  0  0999 V2000
  160.8050  206.4050  146.7210 C   0  0  0  0  0  0  0  0  0  0  0  0
  160.3260  205.5610  150.3970 C   0  0  2  0  0  3  0  0  0  0  0  0
  160.7870  204.1200  150.5360 C   0  0  0  0  0  0  0  0  0  0  0  0
  161.2130  202.0160  149.5000 C   0  0  0  0  0  0  0  0  0  0  0  0
  160.8520  206.2180  149.1430 C   0  0  0  0  0  0  0  0  0  0  0  0
  161.8580  207.3210  146.7670 C   0  0  0  0  0  3  0  0  0  0  0  0
  160.8750  203.3290  149.4290 N   0  0  0  0  0  0  0  0  0  0  0  0
  162.0950  206.8260  151.6940 C   0  0  2  0  0  3  0  0  0  0  0  0
  160.2580  206.0360  145.5000 O   0  0  0  0  0  1  0  0  0  0  0  0
  160.9560  204.3520  153.0700 C   0  0  0  0  0  2  0  0  0  0  0  0
  161.3240  201.0630  148.0370 Cl  0  0  0  0  0  0  0  0  0  0  0  0
  162.4420  207.6880  150.4830 C   0  0  0  0  0  2  0  0  0  0  0  0
  160.6130  206.4110  151.6490 C   0  0  2  0  0  3  0  0  0  0  0  0
  160.3030  205.8580  147.9040 C   0  0  0  0  0  3  0  0  0  0  0  0
  161.4660  201.4250  150.7370 C   0  0  0  0  0  3  0  0  0  0  0  0
  161.9150  207.1470  149.1870 C   0  0  0  0  0  0  0  0  0  0  0  0
  162.4030  207.6970  147.9970 C   0  0  0  0  0  3  0  0  0  0  0  0
  160.1650  205.6460  152.8970 C   0  0  0  0  0  2  0  0  0  0  0  0
  161.0040  203.5430  151.8080 C   0  0  0  0  0  0  0  0  0  0  0  0
  161.3630  202.1970  151.8930 C   0  0  0  0  0  3  0  0  0  0  0  0
  162.3960  207.5890  152.9020 N   0  0  0  0  0  2  0  0  0  0  0  0
  160.7550  208.2760  154.5660 C   0  0  0  0  0  1  0  0  0  0  0  0
  161.2890  208.5050  153.1570 C   0  0  1  0  0  3  0  0  0  0  0  0
  161.2990  211.3870  155.5920 C   0  0  1  0  0  3  0  0  0  0  0  0
  162.7440  210.3240  153.9550 O   0  0  0  0  0  0  0  0  0  0  0  0
  159.1950  210.5890  152.3870 O   0  0  0  0  0  0  0  0  0  0  0  0
  160.9670  211.3640  157.0680 C   0  0  0  0  0  1  0  0  0  0  0  0
  162.2190  210.2140  155.2620 C   0  0  0  0  0  2  0  0  0  0  0  0
  160.4160  211.2230  153.0380 S   0  0  2  0  0  0  0  0  0  0  0  0
  161.7430  209.9730  153.0160 C   0  0  2  0  0  3  0  0  0  0  0  0
  160.0120  211.2800  154.7900 C   0  0  0  0  0  2  0  0  0  0  0  0
  1  6  2  0  0  0  0
  1 14  1  0  0  0  0
  2  5  1  6  0  0  0
  2  3  1  0  0  0  0
  2 13  1  0  0  0  0
  3 19  1  0  0  0  0
  4 15  2  0  0  0  0
  5 16  1  0  0  0  0
  6 17  1  0  0  0  0
  7  4  1  0  0  0  0
  7  3  2  0  0  0  0
  8 21  1  1  0  0  0
  9  1  1  0  0  0  0
 11  4  1  0  0  0  0
 12  8  1  0  0  0  0
 13  8  1  0  0  0  0
 13 18  1  1  0  0  0
 14  5  2  0  0  0  0
 15 20  1  0  0  0  0
 16 12  1  0  0  0  0
 17 16  2  0  0  0  0
 18 10  1  0  0  0  0
 19 20  2  0  0  0  0
 19 10  1  0  0  0  0
 21 23  1  0  0  0  0
 23 22  1  1  0  0  0
 24 27  1  1  0  0  0
 25 28  1  0  0  0  0
 28 24  1  0  0  0  0
 29 26  2  6  0  0  0
 29 31  1  0  0  0  0
 30 29  1  0  0  0  0
 30 23  1  1  0  0  0
 30 25  1  0  0  0  0
 31 24  1  0  0  0  0
M  END
>  <MODEL>
5

>  <REMARK>
 VINA RESULT:      -6.1      1.218      1.342
  Name = 
  3 active torsions:
  status: ('A' for Active; 'I' for Inactive)
    1  A    between atoms: C_5  and  N_16
    2  A    between atoms: C_5  and  C_30
    3  A    between atoms: C_10  and  N_16
                            x       y       z     vdW  Elec       q    Type
                         _______ _______ _______ _____ _____    ______ ____

>  <TORSDO>
F 3

$$$$
=
 OpenBabel11122413103D

 31 35  0  0  1  0  0  0  0  0999 V2000
  162.2900  210.5570  149.3680 C   0  0  0  0  0  0  0  0  0  0  0  0
  161.9560  208.4740  152.5300 C   0  0  2  0  0  3  0  0  0  0  0  0
  160.8660  209.1550  153.3410 C   0  0  0  0  0  0  0  0  0  0  0  0
  159.6150  211.1310  153.8030 C   0  0  0  0  0  0  0  0  0  0  0  0
  161.9230  208.8660  151.0720 C   0  0  0  0  0  0  0  0  0  0  0  0
  161.7850  209.6930  148.3950 C   0  0  0  0  0  3  0  0  0  0  0  0
  160.5300  210.4480  153.0680 N   0  0  0  0  0  0  0  0  0  0  0  0
  160.8600  206.2860  151.8760 C   0  0  2  0  0  3  0  0  0  0  0  0
  162.7200  211.8280  149.0120 O   0  0  0  0  0  1  0  0  0  0  0  0
  160.5750  207.0890  154.8060 C   0  0  0  0  0  2  0  0  0  0  0  0
  159.2180  212.7830  153.3870 Cl  0  0  0  0  0  0  0  0  0  0  0  0
  161.0750  206.5630  150.3900 C   0  0  0  0  0  2  0  0  0  0  0  0
  161.9750  206.9440  152.7090 C   0  0  2  0  0  3  0  0  0  0  0  0
  162.3600  210.1440  150.7000 C   0  0  0  0  0  3  0  0  0  0  0  0
  158.9950  210.5190  154.8920 C   0  0  0  0  0  3  0  0  0  0  0  0
  161.4150  207.9920  150.0850 C   0  0  0  0  0  0  0  0  0  0  0  0
  161.3590  208.4110  148.7520 C   0  0  0  0  0  3  0  0  0  0  0  0
  161.8900  206.6050  154.2000 C   0  0  0  0  0  2  0  0  0  0  0  0
  160.2810  208.5170  154.4580 C   0  0  0  0  0  0  0  0  0  0  0  0
  159.3310  209.2050  155.2150 C   0  0  0  0  0  3  0  0  0  0  0  0
  160.8310  204.8400  152.0740 N   0  0  0  0  0  2  0  0  0  0  0  0
  161.9570  202.8400  151.2610 C   0  0  0  0  0  1  0  0  0  0  0  0
  161.3830  204.2000  150.8850 C   0  0  1  0  0  3  0  0  0  0  0  0
  160.8330  201.5090  148.2980 C   0  0  1  0  0  3  0  0  0  0  0  0
  159.5940  202.7930  149.9450 O   0  0  0  0  0  0  0  0  0  0  0  0
  161.9560  205.2530  148.0770 O   0  0  0  0  0  0  0  0  0  0  0  0
  161.5810  200.2030  148.1360 C   0  0  0  0  0  1  0  0  0  0  0  0
  160.4900  201.7140  149.7720 C   0  0  0  0  0  2  0  0  0  0  0  0
  160.8510  204.2070  148.0770 S   0  0  2  0  0  0  0  0  0  0  0  0
  160.2970  204.0140  149.8040 C   0  0  2  0  0  3  0  0  0  0  0  0
  161.7090  202.6490  147.8050 C   0  0  0  0  0  2  0  0  0  0  0  0
  1 14  1  0  0  0  0
  2  5  1  6  0  0  0
  2 13  1  0  0  0  0
  2  3  1  0  0  0  0
  3 19  1  0  0  0  0
  4 15  2  0  0  0  0
  6 17  1  0  0  0  0
  6  1  2  0  0  0  0
  7  3  2  0  0  0  0
  7  4  1  0  0  0  0
  8 21  1  6  0  0  0
  8 13  1  0  0  0  0
  9  1  1  0  0  0  0
 11  4  1  0  0  0  0
 12  8  1  0  0  0  0
 13 18  1  1  0  0  0
 14  5  2  0  0  0  0
 15 20  1  0  0  0  0
 16 12  1  0  0  0  0
 16  5  1  0  0  0  0
 17 16  2  0  0  0  0
 18 10  1  0  0  0  0
 19 10  1  0  0  0  0
 19 20  2  0  0  0  0
 23 22  1  1  0  0  0
 23 21  1  0  0  0  0
 24 27  1  1  0  0  0
 24 28  1  0  0  0  0
 28 25  1  0  0  0  0
 29 26  2  1  0  0  0
 29 30  1  0  0  0  0
 30 25  1  0  0  0  0
 30 23  1  1  0  0  0
 31 29  1  0  0  0  0
 31 24  1  0  0  0  0
M  END
>  <MODEL>
6

>  <REMARK>
 VINA RESULT:      -5.5      3.501      7.174
  Name = 
  3 active torsions:
  status: ('A' for Active; 'I' for Inactive)
    1  A    between atoms: C_5  and  N_16
    2  A    between atoms: C_5  and  C_30
    3  A    between atoms: C_10  and  N_16
                            x       y       z     vdW  Elec       q    Type
                         _______ _______ _______ _____ _____    ______ ____

>  <TORSDO>
F 3

$$$$
=
 OpenBabel11122413103D

 31 35  0  0  1  0  0  0  0  0999 V2000
  161.9950  212.9840  148.5760 C   0  0  0  0  0  0  0  0  0  0  0  0
  159.1910  214.0750  150.9000 C   0  0  2  0  0  3  0  0  0  0  0  0
  157.9460  214.1140  150.0280 C   0  0  0  0  0  0  0  0  0  0  0  0
  157.0010  214.2800  147.8460 C   0  0  0  0  0  0  0  0  0  0  0  0
  160.2960  213.2440  150.2920 C   0  0  0  0  0  0  0  0  0  0  0  0
  162.2870  211.7050  149.0510 C   0  0  0  0  0  3  0  0  0  0  0  0
  158.0740  214.1720  148.6720 N   0  0  0  0  0  0  0  0  0  0  0  0
  158.7060  212.1340  152.4530 C   0  0  2  0  0  3  0  0  0  0  0  0
  162.6870  213.4950  147.4860 O   0  0  0  0  0  1  0  0  0  0  0  0
  156.4330  214.1360  152.0800 C   0  0  0  0  0  2  0  0  0  0  0  0
  157.2350  214.3330  146.1130 Cl  0  0  0  0  0  0  0  0  0  0  0  0
  159.9820  211.4100  152.0320 C   0  0  0  0  0  2  0  0  0  0  0  0
  158.8970  213.6580  152.3530 C   0  0  2  0  0  3  0  0  0  0  0  0
  161.0060  213.7510  149.1950 C   0  0  0  0  0  3  0  0  0  0  0  0
  155.7140  214.3550  148.3780 C   0  0  0  0  0  3  0  0  0  0  0  0
  160.5950  211.9500  150.7730 C   0  0  0  0  0  0  0  0  0  0  0  0
  161.5950  211.1940  150.1530 C   0  0  0  0  0  3  0  0  0  0  0  0
  157.6960  214.4500  152.8770 C   0  0  0  0  0  2  0  0  0  0  0  0
  156.6580  214.2210  150.6000 C   0  0  0  0  0  0  0  0  0  0  0  0
  155.5470  214.3220  149.7610 C   0  0  0  0  0  3  0  0  0  0  0  0
  158.3760  211.7280  153.8160 N   0  0  0  0  0  2  0  0  0  0  0  0
  159.7160  213.0790  155.3360 C   0  0  0  0  0  1  0  0  0  0  0  0
  159.5990  211.7440  154.6110 C   0  0  1  0  0  3  0  0  0  0  0  0
  162.2580  210.4750  156.9670 C   0  0  1  0  0  3  0  0  0  0  0  0
  159.9000  211.0510  156.9550 O   0  0  0  0  0  0  0  0  0  0  0  0
  160.6230  209.0070  153.7260 O   0  0  0  0  0  0  0  0  0  0  0  0
  163.6200  211.0720  157.2480 C   0  0  0  0  0  1  0  0  0  0  0  0
  161.2080  211.5830  156.9770 C   0  0  0  0  0  2  0  0  0  0  0  0
  160.6410  209.1590  155.2400 S   0  0  2  0  0  0  0  0  0  0  0  0
  159.5990  210.5990  155.6460 C   0  0  2  0  0  3  0  0  0  0  0  0
  162.2830  209.7950  155.6080 C   0  0  0  0  0  2  0  0  0  0  0  0
  1  6  2  0  0  0  0
  1 14  1  0  0  0  0
  2  3  1  6  0  0  0
  2 13  1  0  0  0  0
  3 19  1  0  0  0  0
  4 15  2  0  0  0  0
  4  7  1  0  0  0  0
  5 16  1  0  0  0  0
  5  2  1  0  0  0  0
  6 17  1  0  0  0  0
  7  3  2  0  0  0  0
  8 21  1  1  0  0  0
  9  1  1  0  0  0  0
 10 18  1  0  0  0  0
 11  4  1  0  0  0  0
 12  8  1  0  0  0  0
 13  8  1  0  0  0  0
 13 18  1  6  0  0  0
 14  5  2  0  0  0  0
 15 20  1  0  0  0  0
 16 12  1  0  0  0  0
 17 16  2  0  0  0  0
 19 10  1  0  0  0  0
 20 19  2  0  0  0  0
 21 23  1  0  0  0  0
 23 22  1  1  0  0  0
 24 28  1  0  0  0  0
 24 27  1  6  0  0  0
 25 28  1  0  0  0  0
 29 26  2  6  0  0  0
 29 31  1  0  0  0  0
 29 30  1  0  0  0  0
 30 23  1  6  0  0  0
 30 25  1  0  0  0  0
 31 24  1  0  0  0  0
M  END
>  <MODEL>
7

>  <REMARK>
 VINA RESULT:      -5.4      6.400      8.362
  Name = 
  3 active torsions:
  status: ('A' for Active; 'I' for Inactive)
    1  A    between atoms: C_5  and  N_16
    2  A    between atoms: C_5  and  C_30
    3  A    between atoms: C_10  and  N_16
                            x       y       z     vdW  Elec       q    Type
                         _______ _______ _______ _____ _____    ______ ____

>  <TORSDO>
F 3

$$$$
=
 OpenBabel11122413103D

 31 36  0  0  1  0  0  0  0  0999 V2000
  160.8890  206.0940  146.1430 C   0  0  0  0  0  0  0  0  0  0  0  0
  160.3310  204.8660  149.6970 C   0  0  2  0  0  3  0  0  0  0  0  0
  160.7440  203.4030  149.6810 C   0  0  0  0  0  0  0  0  0  0  0  0
  161.1170  201.4130  148.4220 C   0  0  0  0  0  0  0  0  0  0  0  0
  160.8950  205.6390  148.5290 C   0  0  0  0  0  0  0  0  0  0  0  0
  161.9690  206.9630  146.3010 C   0  0  0  0  0  3  0  0  0  0  0  0
  160.8230  202.7370  148.4930 N   0  0  0  0  0  0  0  0  0  0  0  0
  162.1210  205.9200  151.1450 C   0  0  2  0  0  3  0  0  0  0  0  0
  160.3480  205.8810  144.8820 O   0  0  0  0  0  1  0  0  0  0  0  0
  160.8840  203.3480  152.2260 C   0  0  0  0  0  2  0  0  0  0  0  0
  161.2180  200.6250  146.8630 Cl  0  0  0  0  0  0  0  0  0  0  0  0
  162.5130  206.8980  150.0410 C   0  0  1  0  0  3  0  0  0  0  0  0
  160.6280  205.5620  151.0380 C   0  0  2  0  0  3  0  0  0  0  0  0
  160.3530  205.4370  147.2520 C   0  0  0  0  0  3  0  0  0  0  0  0
  161.3340  200.6810  149.5890 C   0  0  0  0  0  3  0  0  0  0  0  0
  161.9870  206.5210  148.6870 C   0  0  0  0  0  0  0  0  0  0  0  0
  162.5090  207.1830  147.5710 C   0  0  0  0  0  3  0  0  0  0  0  0
  160.1380  204.6790  152.1890 C   0  0  0  0  0  2  0  0  0  0  0  0
  160.9250  202.6830  150.8830 C   0  0  0  0  0  0  0  0  0  0  0  0
  161.2390  201.3240  150.8220 C   0  0  0  0  0  3  0  0  0  0  0  0
  162.4300  206.5350  152.4330 N   0  0  0  0  0  2  0  0  0  0  0  0
  161.8570  208.3610  150.9270 C   0  0  0  0  0  2  0  0  0  0  0  0
  162.0350  207.9390  152.3800 C   0  0  1  0  0  3  0  0  0  0  0  0
  161.2260  209.9690  155.4550 C   0  0  1  0  0  3  0  0  0  0  0  0
  160.3680  209.5420  153.2250 O   0  0  0  0  0  0  0  0  0  0  0  0
  161.4120  206.1210  154.7530 O   0  0  0  0  0  0  0  0  0  0  0  0
  162.1300  210.9170  156.2130 C   0  0  0  0  0  1  0  0  0  0  0  0
  161.3580  210.2340  153.9570 C   0  0  0  0  0  2  0  0  0  0  0  0
  160.6120  207.4150  154.8010 S   0  0  2  0  0  0  0  0  0  0  0  0
  160.7160  208.1710  153.1450 C   0  0  2  0  0  3  0  0  0  0  0  0
  161.6320  208.5370  155.7680 C   0  0  0  0  0  2  0  0  0  0  0  0
  1  6  2  0  0  0  0
  1 14  1  0  0  0  0
  2  5  1  6  0  0  0
  2 13  1  0  0  0  0
  3  2  1  0  0  0  0
  3 19  1  0  0  0  0
  4  7  1  0  0  0  0
  4 15  2  0  0  0  0
  5 16  1  0  0  0  0
  6 17  1  0  0  0  0
  7  3  2  0  0  0  0
  8 21  1  1  0  0  0
  9  1  1  0  0  0  0
 11  4  1  0  0  0  0
 12 22  1  1  0  0  0
 12  8  1  0  0  0  0
 13  8  1  0  0  0  0
 13 18  1  1  0  0  0
 14  5  2  0  0  0  0
 15 20  1  0  0  0  0
 16 12  1  0  0  0  0
 17 16  2  0  0  0  0
 18 10  1  0  0  0  0
 19 10  1  0  0  0  0
 20 19  2  0  0  0  0
 23 22  1  6  0  0  0
 23 21  1  0  0  0  0
 23 30  1  0  0  0  0
 24 31  1  0  0  0  0
 24 27  1  1  0  0  0
 25 28  1  0  0  0  0
 28 24  1  0  0  0  0
 29 26  2  6  0  0  0
 29 31  1  0  0  0  0
 30 25  1  1  0  0  0
 30 29  1  0  0  0  0
M  END
>  <MODEL>
8

>  <REMARK>
 VINA RESULT:      -5.3      1.278      1.823
  Name = 
  3 active torsions:
  status: ('A' for Active; 'I' for Inactive)
    1  A    between atoms: C_5  and  N_16
    2  A    between atoms: C_5  and  C_30
    3  A    between atoms: C_10  and  N_16
                            x       y       z     vdW  Elec       q    Type
                         _______ _______ _______ _____ _____    ______ ____

>  <TORSDO>
F 3

$$$$
=
 OpenBabel11122413103D

 31 35  0  0  1  0  0  0  0  0999 V2000
  161.1840  201.5530  150.0810 C   0  0  0  0  0  0  0  0  0  0  0  0
  162.1140  204.8250  148.3840 C   0  0  2  0  0  3  0  0  0  0  0  0
  161.4310  204.7760  147.0270 C   0  0  0  0  0  0  0  0  0  0  0  0
  160.4650  203.4640  145.2870 C   0  0  0  0  0  0  0  0  0  0  0  0
  161.5120  203.8520  149.3690 C   0  0  0  0  0  0  0  0  0  0  0  0
  160.3370  201.9850  151.1030 C   0  0  0  0  0  3  0  0  0  0  0  0
  161.0170  203.5790  146.5230 N   0  0  0  0  0  0  0  0  0  0  0  0
  160.8460  206.6710  149.5650 C   0  0  2  0  0  3  0  0  0  0  0  0
  161.4420  200.1980  149.9190 O   0  0  0  0  0  1  0  0  0  0  0  0
  161.7350  207.2880  146.7120 C   0  0  0  0  0  2  0  0  0  0  0  0
  159.9390  201.8990  144.7080 Cl  0  0  0  0  0  0  0  0  0  0  0  0
  160.4610  205.7430  150.7140 C   0  0  0  0  0  2  0  0  0  0  0  0
  162.1990  206.2480  148.9660 C   0  0  2  0  0  3  0  0  0  0  0  0
  161.7710  202.4830  149.2200 C   0  0  0  0  0  3  0  0  0  0  0  0
  160.3210  204.5910  144.4780 C   0  0  0  0  0  3  0  0  0  0  0  0
  160.6570  204.2870  150.4060 C   0  0  0  0  0  0  0  0  0  0  0  0
  160.0820  203.3490  151.2700 C   0  0  0  0  0  3  0  0  0  0  0  0
  162.7060  207.2100  147.8880 C   0  0  0  0  0  2  0  0  0  0  0  0
  161.3300  205.9320  146.2190 C   0  0  0  0  0  0  0  0  0  0  0  0
  160.7550  205.8280  144.9520 C   0  0  0  0  0  3  0  0  0  0  0  0
  160.8940  208.0370  150.0760 N   0  0  0  0  0  2  0  0  0  0  0  0
  162.4900  209.1510  151.5400 C   0  0  0  0  0  1  0  0  0  0  0  0
  161.4880  208.0110  151.4090 C   0  0  1  0  0  3  0  0  0  0  0  0
  161.4790  209.7920  154.7350 C   0  0  1  0  0  3  0  0  0  0  0  0
  160.0830  209.5080  152.7690 O   0  0  0  0  0  0  0  0  0  0  0  0
  161.4970  206.0110  153.7150 O   0  0  0  0  0  0  0  0  0  0  0  0
  162.5410  210.7030  155.3100 C   0  0  0  0  0  1  0  0  0  0  0  0
  161.2240  210.1680  153.2780 C   0  0  0  0  0  2  0  0  0  0  0  0
  160.7300  207.2780  154.0650 S   0  0  2  0  0  0  0  0  0  0  0  0
  160.4050  208.1550  152.4990 C   0  0  2  0  0  3  0  0  0  0  0  0
  161.9570  208.3510  154.8240 C   0  0  0  0  0  2  0  0  0  0  0  0
  1  6  1  0  0  0  0
  2  3  1  6  0  0  0
  2 13  1  0  0  0  0
  2  5  1  0  0  0  0
  4  7  2  0  0  0  0
  5 16  2  0  0  0  0
  6 17  2  0  0  0  0
  7  3  1  0  0  0  0
  8 21  1  1  0  0  0
  8 12  1  0  0  0  0
  9  1  1  0  0  0  0
 10 18  1  0  0  0  0
 11  4  1  0  0  0  0
 13 18  1  6  0  0  0
 13  8  1  0  0  0  0
 14  5  1  0  0  0  0
 14  1  2  0  0  0  0
 15 20  2  0  0  0  0
 15  4  1  0  0  0  0
 16 12  1  0  0  0  0
 16 17  1  0  0  0  0
 19 10  1  0  0  0  0
 19  3  2  0  0  0  0
 20 19  1  0  0  0  0
 21 23  1  0  0  0  0
 23 22  1  6  0  0  0
 24 31  1  0  0  0  0
 24 27  1  6  0  0  0
 25 28  1  0  0  0  0
 28 24  1  0  0  0  0
 29 26  2  6  0  0  0
 29 31  1  0  0  0  0
 30 23  1  6  0  0  0
 30 25  1  0  0  0  0
 30 29  1  0  0  0  0
M  END
>  <MODEL>
9

>  <REMARK>
 VINA RESULT:      -5.0      2.366      4.409
  Name = 
  3 active torsions:
  status: ('A' for Active; 'I' for Inactive)
    1  A    between atoms: C_5  and  N_16
    2  A    between atoms: C_5  and  C_30
    3  A    between atoms: C_10  and  N_16
                            x       y       z     vdW  Elec       q    Type
                         _______ _______ _______ _____ _____    ______ ____

>  <TORSDO>
F 3

$$$$
