=
 OpenBabel11122413313D

 31 35  0  0  1  0  0  0  0  0999 V2000
  161.9650  210.1390  156.3950 C   0  0  2  0  0  3  0  0  0  0  0  0
  162.1430  209.1830  152.6490 C   0  0  2  0  0  3  0  0  0  0  0  0
  161.6720  207.9580  151.8910 C   0  0  0  0  0  0  0  0  0  0  0  0
  161.0920  205.6000  151.8290 C   0  0  0  0  0  0  0  0  0  0  0  0
  161.6060  209.2350  154.0880 C   0  0  1  0  0  3  0  0  0  0  0  0
  160.5300  210.6530  156.4260 C   0  0  0  0  0  2  0  0  0  0  0  0
  161.4970  206.7280  152.5450 C   0  0  0  0  0  3  0  0  0  0  0  0
  160.3740  210.8830  151.9480 C   0  0  2  0  0  3  0  0  0  0  0  0
  162.7730  210.9640  157.1760 O   0  0  0  0  0  1  0  0  0  0  0  0
  161.6900  209.2310  149.8130 O   0  0  0  0  0  0  0  0  0  0  0  0
  160.8970  204.3060  152.5350 C   0  0  0  0  0  1  0  0  0  0  0  0
  159.9160  210.9980  153.3990 C   0  0  0  0  0  2  0  0  0  0  0  0
  161.8590  210.4970  151.8830 C   0  0  2  0  0  3  0  0  0  0  0  0
  162.4890  210.1260  154.9630 C   0  0  0  0  0  2  0  0  0  0  0  0
  160.8710  205.6850  150.4530 C   0  0  0  0  0  3  0  0  0  0  0  0
  160.1290  209.6730  154.1300 C   0  0  2  0  0  3  0  0  0  0  0  0
  159.6290  209.7610  155.5730 C   0  0  0  0  0  2  0  0  0  0  0  0
  162.3250  210.3470  150.4350 C   0  0  0  0  0  2  0  0  0  0  0  0
  161.4820  208.0290  150.4960 C   0  0  0  0  0  0  0  0  0  0  0  0
  161.0670  206.8970  149.7870 C   0  0  0  0  0  3  0  0  0  0  0  0
  157.8850  212.2690  151.7890 O   0  0  0  0  0  0  0  0  0  0  0  0
  158.8870  212.8030  151.2390 C   0  0  0  0  0  0  0  0  0  0  0  0
  160.1590  212.1560  151.2720 N   0  0  0  0  0  2  0  0  0  0  0  0
  157.6360  213.5320  148.0120 C   0  0  0  0  0  0  0  0  0  0  0  0
  157.2880  214.4390  150.2240 C   0  0  0  0  0  2  0  0  0  0  0  0
  161.0280  214.4380  149.3350 C   0  0  0  0  0  1  0  0  0  0  0  0
  157.1110  212.9110  146.7680 C   0  0  0  0  0  1  0  0  0  0  0  0
  156.8320  213.7620  149.0080 N   0  0  0  0  0  0  0  0  0  0  0  0
  159.5730  214.1370  149.2670 C   0  0  0  0  0  0  0  0  0  0  0  0
  158.7550  214.1150  150.5300 C   0  0  2  0  0  3  0  0  0  0  0  0
  159.0340  213.8290  148.1250 N   0  0  0  0  0  0  0  0  0  0  0  0
  1  6  1  0  0  0  0
  1  9  1  1  0  0  0
  2  3  1  6  0  0  0
  2  5  1  0  0  0  0
  3  7  1  0  0  0  0
  4 11  1  0  0  0  0
  4  7  2  0  0  0  0
  5 16  1  0  0  0  0
  5 14  1  1  0  0  0
  8 23  1  1  0  0  0
  8 12  1  0  0  0  0
 10 18  1  0  0  0  0
 10 19  1  0  0  0  0
 13 18  1  6  0  0  0
 13  8  1  0  0  0  0
 13  2  1  0  0  0  0
 14  1  1  0  0  0  0
 15  4  1  0  0  0  0
 16 12  1  1  0  0  0
 16 17  1  0  0  0  0
 17  6  1  0  0  0  0
 19  3  2  0  0  0  0
 20 15  2  0  0  0  0
 20 19  1  0  0  0  0
 22 23  1  0  0  0  0
 22 21  2  0  0  0  0
 24 31  1  0  0  0  0
 24 28  2  0  0  0  0
 25 30  1  0  0  0  0
 27 24  1  0  0  0  0
 28 25  1  0  0  0  0
 29 26  1  0  0  0  0
 29 30  1  0  0  0  0
 30 22  1  6  0  0  0
 31 29  2  0  0  0  0
M  END
>  <MODEL>
1

>  <REMARK>
 VINA RESULT:      -6.7      0.000      0.000
  Name = 
  2 active torsions:
  status: ('A' for Active; 'I' for Inactive)
    1  A    between atoms: C_5  and  C_30
    2  A    between atoms: C_10  and  N_16
                            x       y       z     vdW  Elec       q    Type
                         _______ _______ _______ _____ _____    ______ ____

>  <TORSDO>
F 2

$$$$
=
 OpenBabel11122413313D

 31 35  0  0  1  0  0  0  0  0999 V2000
  161.6400  208.0350  156.2470 C   0  0  2  0  0  3  0  0  0  0  0  0
  161.9840  208.1480  152.3930 C   0  0  2  0  0  3  0  0  0  0  0  0
  161.4990  207.2140  151.3040 C   0  0  0  0  0  0  0  0  0  0  0  0
  160.8120  205.0050  150.5590 C   0  0  0  0  0  0  0  0  0  0  0  0
  161.3690  207.8320  153.7660 C   0  0  1  0  0  3  0  0  0  0  0  0
  160.2320  208.6080  156.3620 C   0  0  0  0  0  2  0  0  0  0  0  0
  161.2290  205.8640  151.5780 C   0  0  0  0  0  3  0  0  0  0  0  0
  160.3410  210.0820  152.1250 C   0  0  2  0  0  3  0  0  0  0  0  0
  162.4400  208.5590  157.2610 O   0  0  0  0  0  1  0  0  0  0  0  0
  161.6960  209.0110  149.6680 O   0  0  0  0  0  0  0  0  0  0  0  0
  160.5150  203.5820  150.8640 C   0  0  0  0  0  1  0  0  0  0  0  0
  159.8080  209.8170  153.5300 C   0  0  0  0  0  2  0  0  0  0  0  0
  161.8070  209.6380  152.0160 C   0  0  2  0  0  3  0  0  0  0  0  0
  162.2430  208.3880  154.8920 C   0  0  0  0  0  2  0  0  0  0  0  0
  160.6730  205.4830  149.2530 C   0  0  0  0  0  3  0  0  0  0  0  0
  159.9150  208.3310  153.8680 C   0  0  2  0  0  3  0  0  0  0  0  0
  159.3380  208.0450  155.2560 C   0  0  0  0  0  2  0  0  0  0  0  0
  162.3480  209.8680  150.6040 C   0  0  0  0  0  2  0  0  0  0  0  0
  161.3920  207.6810  149.9780 C   0  0  0  0  0  0  0  0  0  0  0  0
  160.9650  206.8180  148.9630 C   0  0  0  0  0  3  0  0  0  0  0  0
  158.1440  211.7510  152.8540 O   0  0  0  0  0  0  0  0  0  0  0  0
  159.1020  212.2860  152.2290 C   0  0  0  0  0  0  0  0  0  0  0  0
  160.2270  211.5030  151.8260 N   0  0  0  0  0  2  0  0  0  0  0  0
  156.6160  214.1780  150.5720 C   0  0  0  0  0  0  0  0  0  0  0  0
  157.9070  214.4530  152.5950 C   0  0  0  0  0  2  0  0  0  0  0  0
  160.2230  213.8960  149.5780 C   0  0  0  0  0  1  0  0  0  0  0  0
  155.3100  214.0760  149.8720 C   0  0  0  0  0  1  0  0  0  0  0  0
  156.6480  214.2770  151.8680 N   0  0  0  0  0  0  0  0  0  0  0  0
  158.9850  213.9520  150.4010 C   0  0  0  0  0  0  0  0  0  0  0  0
  159.0670  213.7430  151.8890 C   0  0  2  0  0  3  0  0  0  0  0  0
  157.8350  214.1160  149.8190 N   0  0  0  0  0  0  0  0  0  0  0  0
  1  6  1  0  0  0  0
  1  9  1  1  0  0  0
  2  3  1  6  0  0  0
  2  5  1  0  0  0  0
  3  7  1  0  0  0  0
  4 11  1  0  0  0  0
  4  7  2  0  0  0  0
  5 16  1  0  0  0  0
  5 14  1  1  0  0  0
  8 23  1  1  0  0  0
  8 12  1  0  0  0  0
 10 19  1  0  0  0  0
 10 18  1  0  0  0  0
 13 18  1  6  0  0  0
 13  8  1  0  0  0  0
 13  2  1  0  0  0  0
 14  1  1  0  0  0  0
 15  4  1  0  0  0  0
 16 12  1  1  0  0  0
 16 17  1  0  0  0  0
 17  6  1  0  0  0  0
 19  3  2  0  0  0  0
 20 15  2  0  0  0  0
 20 19  1  0  0  0  0
 22 21  2  0  0  0  0
 23 22  1  0  0  0  0
 24 28  2  0  0  0  0
 26 29  1  0  0  0  0
 27 24  1  0  0  0  0
 28 25  1  0  0  0  0
 29 30  1  0  0  0  0
 30 22  1  6  0  0  0
 30 25  1  0  0  0  0
 31 29  2  0  0  0  0
 31 24  1  0  0  0  0
M  END
>  <MODEL>
2

>  <REMARK>
 VINA RESULT:      -6.0      1.476      1.699
  Name = 
  2 active torsions:
  status: ('A' for Active; 'I' for Inactive)
    1  A    between atoms: C_5  and  C_30
    2  A    between atoms: C_10  and  N_16
                            x       y       z     vdW  Elec       q    Type
                         _______ _______ _______ _____ _____    ______ ____

>  <TORSDO>
F 2

$$$$
=
 OpenBabel11122413313D

 31 35  0  0  1  0  0  0  0  0999 V2000
  160.9140  205.5070  145.2230 C   0  0  2  0  0  3  0  0  0  0  0  0
  160.4740  205.7510  149.0610 C   0  0  2  0  0  3  0  0  0  0  0  0
  160.7750  204.7750  150.1800 C   0  0  0  0  0  0  0  0  0  0  0  0
  161.0880  202.5030  150.9810 C   0  0  0  0  0  0  0  0  0  0  0  0
  161.0740  205.3150  147.7150 C   0  0  1  0  0  3  0  0  0  0  0  0
  162.3970  205.8530  145.1460 C   0  0  0  0  0  2  0  0  0  0  0  0
  160.8400  203.3940  149.9360 C   0  0  0  0  0  3  0  0  0  0  0  0
  162.3880  207.4130  149.3540 C   0  0  2  0  0  3  0  0  0  0  0  0
  160.2370  206.1280  144.1750 O   0  0  0  0  0  1  0  0  0  0  0  0
  160.8090  206.6140  151.7800 O   0  0  0  0  0  0  0  0  0  0  0  0
  161.1690  201.0440  150.7080 C   0  0  0  0  0  1  0  0  0  0  0  0
  162.9170  207.0400  147.9720 C   0  0  0  0  0  2  0  0  0  0  0  0
  160.8680  207.2030  149.4200 C   0  0  2  0  0  3  0  0  0  0  0  0
  160.3320  205.9770  146.5520 C   0  0  0  0  0  2  0  0  0  0  0  0
  161.2580  202.9800  152.2830 C   0  0  0  0  0  3  0  0  0  0  0  0
  162.5900  205.5820  147.6530 C   0  0  2  0  0  3  0  0  0  0  0  0
  163.1580  205.1810  146.2900 C   0  0  0  0  0  2  0  0  0  0  0  0
  160.3270  207.5430  150.8100 C   0  0  0  0  0  2  0  0  0  0  0  0
  160.9120  205.2470  151.5020 C   0  0  0  0  0  0  0  0  0  0  0  0
  161.1690  204.3500  152.5430 C   0  0  0  0  0  3  0  0  0  0  0  0
  161.3370  209.6670  147.9560 O   0  0  0  0  0  0  0  0  0  0  0  0
  162.1420  209.8900  148.9020 C   0  0  0  0  0  0  0  0  0  0  0  0
  162.7130  208.8050  149.6350 N   0  0  0  0  0  2  0  0  0  0  0  0
  160.5490  212.9500  148.1260 C   0  0  0  0  0  0  0  0  0  0  0  0
  161.4500  211.9550  150.1340 C   0  0  0  0  0  2  0  0  0  0  0  0
  164.1080  212.0410  147.3590 C   0  0  0  0  0  1  0  0  0  0  0  0
  159.4180  213.5480  147.3690 C   0  0  0  0  0  1  0  0  0  0  0  0
  160.3510  212.4850  149.3240 N   0  0  0  0  0  0  0  0  0  0  0  0
  162.7840  212.1180  148.0310 C   0  0  0  0  0  0  0  0  0  0  0  0
  162.5220  211.2920  149.2620 C   0  0  2  0  0  3  0  0  0  0  0  0
  161.8410  212.8470  147.5110 N   0  0  0  0  0  0  0  0  0  0  0  0
  1  9  1  6  0  0  0
  1 14  1  0  0  0  0
  2 13  1  0  0  0  0
  2  3  1  1  0  0  0
  3 19  1  0  0  0  0
  4 15  2  0  0  0  0
  5 14  1  6  0  0  0
  5  2  1  0  0  0  0
  6  1  1  0  0  0  0
  6 17  1  0  0  0  0
  7  3  2  0  0  0  0
  7  4  1  0  0  0  0
  8 13  1  0  0  0  0
  8 23  1  6  0  0  0
 11  4  1  0  0  0  0
 12  8  1  0  0  0  0
 13 18  1  1  0  0  0
 15 20  1  0  0  0  0
 16 17  1  6  0  0  0
 16  5  1  0  0  0  0
 16 12  1  0  0  0  0
 18 10  1  0  0  0  0
 19 10  1  0  0  0  0
 19 20  2  0  0  0  0
 21 22  2  0  0  0  0
 22 23  1  0  0  0  0
 24 28  2  0  0  0  0
 26 29  1  0  0  0  0
 27 24  1  0  0  0  0
 28 25  1  0  0  0  0
 29 30  1  0  0  0  0
 30 22  1  6  0  0  0
 30 25  1  0  0  0  0
 31 29  2  0  0  0  0
 31 24  1  0  0  0  0
M  END
>  <MODEL>
3

>  <REMARK>
 VINA RESULT:      -5.7      3.486      6.397
  Name = 
  2 active torsions:
  status: ('A' for Active; 'I' for Inactive)
    1  A    between atoms: C_5  and  C_30
    2  A    between atoms: C_10  and  N_16
                            x       y       z     vdW  Elec       q    Type
                         _______ _______ _______ _____ _____    ______ ____

>  <TORSDO>
F 2

$$$$
=
 OpenBabel11122413313D

 31 35  0  0  1  0  0  0  0  0999 V2000
  161.3980  205.2340  144.7270 C   0  0  2  0  0  3  0  0  0  0  0  0
  160.4830  205.1170  148.4870 C   0  0  2  0  0  3  0  0  0  0  0  0
  160.7140  204.0670  149.5540 C   0  0  0  0  0  0  0  0  0  0  0  0
  161.0850  201.7560  150.2060 C   0  0  0  0  0  0  0  0  0  0  0  0
  161.2700  204.8360  147.1970 C   0  0  1  0  0  3  0  0  0  0  0  0
  162.8510  205.6720  144.8650 C   0  0  0  0  0  2  0  0  0  0  0  0
  160.9040  202.7190  149.2120 C   0  0  0  0  0  3  0  0  0  0  0  0
  162.2290  206.8570  149.1480 C   0  0  2  0  0  3  0  0  0  0  0  0
  160.8090  205.9030  143.6550 O   0  0  0  0  0  1  0  0  0  0  0  0
  160.4290  205.7580  151.2860 O   0  0  0  0  0  0  0  0  0  0  0  0
  161.2990  200.3340  149.8310 C   0  0  0  0  0  1  0  0  0  0  0  0
  162.9450  206.6370  147.8180 C   0  0  0  0  0  2  0  0  0  0  0  0
  160.7300  206.5530  149.0070 C   0  0  2  0  0  3  0  0  0  0  0  0
  160.6290  205.5510  146.0060 C   0  0  0  0  0  2  0  0  0  0  0  0
  161.0650  202.1270  151.5530 C   0  0  0  0  0  3  0  0  0  0  0  0
  162.7600  205.1960  147.3470 C   0  0  2  0  0  3  0  0  0  0  0  0
  163.5140  204.9500  146.0380 C   0  0  0  0  0  2  0  0  0  0  0  0
  160.0040  206.7380  150.3400 C   0  0  0  0  0  2  0  0  0  0  0  0
  160.6590  204.4290  150.9160 C   0  0  0  0  0  0  0  0  0  0  0  0
  160.8500  203.4620  151.9070 C   0  0  0  0  0  3  0  0  0  0  0  0
  162.3650  207.7390  151.8580 O   0  0  0  0  0  0  0  0  0  0  0  0
  162.4900  208.6100  150.9540 C   0  0  0  0  0  0  0  0  0  0  0  0
  162.4200  208.2360  149.5770 N   0  0  0  0  0  2  0  0  0  0  0  0
  160.2640  210.9390  152.4120 C   0  0  0  0  0  0  0  0  0  0  0  0
  162.5520  210.2780  152.8170 C   0  0  0  0  0  2  0  0  0  0  0  0
  162.0800  211.3430  149.1540 C   0  0  0  0  0  1  0  0  0  0  0  0
  158.8650  211.1200  152.8790 C   0  0  0  0  0  1  0  0  0  0  0  0
  161.1460  210.4090  153.2070 N   0  0  0  0  0  0  0  0  0  0  0  0
  161.7520  210.9400  150.5470 C   0  0  0  0  0  0  0  0  0  0  0  0
  162.6980  210.0490  151.3080 C   0  0  2  0  0  3  0  0  0  0  0  0
  160.6210  211.3040  151.0720 N   0  0  0  0  0  0  0  0  0  0  0  0
  1  9  1  6  0  0  0
  1  6  1  0  0  0  0
  1 14  1  0  0  0  0
  2 13  1  0  0  0  0
  2  3  1  1  0  0  0
  3 19  1  0  0  0  0
  4 15  2  0  0  0  0
  5 14  1  6  0  0  0
  5 16  1  0  0  0  0
  5  2  1  0  0  0  0
  6 17  1  0  0  0  0
  7  3  2  0  0  0  0
  7  4  1  0  0  0  0
  8 23  1  6  0  0  0
 11  4  1  0  0  0  0
 12  8  1  0  0  0  0
 13  8  1  0  0  0  0
 13 18  1  1  0  0  0
 15 20  1  0  0  0  0
 16 17  1  6  0  0  0
 16 12  1  0  0  0  0
 18 10  1  0  0  0  0
 19 10  1  0  0  0  0
 19 20  2  0  0  0  0
 22 21  2  0  0  0  0
 23 22  1  0  0  0  0
 24 27  1  0  0  0  0
 24 28  2  0  0  0  0
 25 28  1  0  0  0  0
 26 29  1  0  0  0  0
 29 31  2  0  0  0  0
 29 30  1  0  0  0  0
 30 22  1  1  0  0  0
 30 25  1  0  0  0  0
 31 24  1  0  0  0  0
M  END
>  <MODEL>
4

>  <REMARK>
 VINA RESULT:      -5.5      3.244      7.128
  Name = 
  2 active torsions:
  status: ('A' for Active; 'I' for Inactive)
    1  A    between atoms: C_5  and  C_30
    2  A    between atoms: C_10  and  N_16
                            x       y       z     vdW  Elec       q    Type
                         _______ _______ _______ _____ _____    ______ ____

>  <TORSDO>
F 2

$$$$
=
 OpenBabel11122413313D

 31 35  0  0  1  0  0  0  0  0999 V2000
  162.1010  213.9600  146.8150 C   0  0  2  0  0  3  0  0  0  0  0  0
  161.7350  211.9670  150.1130 C   0  0  2  0  0  3  0  0  0  0  0  0
  160.6050  211.8670  151.1170 C   0  0  0  0  0  0  0  0  0  0  0  0
  158.6320  212.8000  152.1840 C   0  0  0  0  0  0  0  0  0  0  0  0
  161.3150  212.6720  148.8130 C   0  0  1  0  0  3  0  0  0  0  0  0
  161.3470  213.0070  145.8940 C   0  0  0  0  0  2  0  0  0  0  0  0
  159.6500  212.8900  151.2340 C   0  0  0  0  0  3  0  0  0  0  0  0
  161.5240  209.7130  148.9350 C   0  0  2  0  0  3  0  0  0  0  0  0
  163.2260  214.4530  146.1550 O   0  0  0  0  0  1  0  0  0  0  0  0
  161.5150  209.7600  151.9390 O   0  0  0  0  0  0  0  0  0  0  0  0
  157.6180  213.8820  152.2890 C   0  0  0  0  0  1  0  0  0  0  0  0
  161.2040  210.4310  147.6280 C   0  0  0  0  0  2  0  0  0  0  0  0
  162.4000  210.5990  149.8330 C   0  0  2  0  0  3  0  0  0  0  0  0
  162.5360  213.2320  148.0820 C   0  0  0  0  0  2  0  0  0  0  0  0
  158.5640  211.6950  153.0370 C   0  0  0  0  0  3  0  0  0  0  0  0
  160.4800  211.7470  147.9070 C   0  0  2  0  0  3  0  0  0  0  0  0
  160.1100  212.4540  146.6010 C   0  0  0  0  0  2  0  0  0  0  0  0
  162.7030  209.9050  151.1610 C   0  0  0  0  0  2  0  0  0  0  0  0
  160.5520  210.7730  152.0040 C   0  0  0  0  0  0  0  0  0  0  0  0
  159.5240  210.6840  152.9480 C   0  0  0  0  0  3  0  0  0  0  0  0
  160.3370  207.1190  149.0110 O   0  0  0  0  0  0  0  0  0  0  0  0
  161.5550  207.1950  148.6890 C   0  0  0  0  0  0  0  0  0  0  0  0
  162.2120  208.4630  148.6430 N   0  0  0  0  0  2  0  0  0  0  0  0
  161.2520  204.9620  145.9640 C   0  0  0  0  0  0  0  0  0  0  0  0
  163.0880  206.1050  147.0400 C   0  0  0  0  0  2  0  0  0  0  0  0
  161.0810  204.0610  149.6030 C   0  0  0  0  0  1  0  0  0  0  0  0
  160.4430  204.6590  144.7550 C   0  0  0  0  0  1  0  0  0  0  0  0
  162.2180  205.8290  145.8940 N   0  0  0  0  0  0  0  0  0  0  0  0
  161.4420  204.7460  148.3330 C   0  0  0  0  0  0  0  0  0  0  0  0
  162.3340  205.9580  148.3660 C   0  0  2  0  0  3  0  0  0  0  0  0
  160.9310  204.3320  147.2120 N   0  0  0  0  0  0  0  0  0  0  0  0
  1  9  1  6  0  0  0
  1 14  1  0  0  0  0
  2  3  1  1  0  0  0
  3  7  2  0  0  0  0
  3 19  1  0  0  0  0
  4 11  1  0  0  0  0
  4 15  2  0  0  0  0
  5 14  1  6  0  0  0
  5  2  1  0  0  0  0
  6 17  1  0  0  0  0
  6  1  1  0  0  0  0
  7  4  1  0  0  0  0
  8 23  1  6  0  0  0
  8 13  1  0  0  0  0
 10 19  1  0  0  0  0
 12 16  1  0  0  0  0
 12  8  1  0  0  0  0
 13  2  1  0  0  0  0
 13 18  1  1  0  0  0
 16 17  1  6  0  0  0
 16  5  1  0  0  0  0
 18 10  1  0  0  0  0
 19 20  2  0  0  0  0
 20 15  1  0  0  0  0
 22 21  2  0  0  0  0
 23 22  1  0  0  0  0
 24 31  1  0  0  0  0
 25 30  1  0  0  0  0
 27 24  1  0  0  0  0
 28 24  2  0  0  0  0
 28 25  1  0  0  0  0
 29 30  1  0  0  0  0
 29 26  1  0  0  0  0
 30 22  1  6  0  0  0
 31 29  2  0  0  0  0
M  END
>  <MODEL>
5

>  <REMARK>
 VINA RESULT:      -3.8      3.513      7.706
  Name = 
  2 active torsions:
  status: ('A' for Active; 'I' for Inactive)
    1  A    between atoms: C_5  and  C_30
    2  A    between atoms: C_10  and  N_16
                            x       y       z     vdW  Elec       q    Type
                         _______ _______ _______ _____ _____    ______ ____

>  <TORSDO>
F 2

$$$$
