=
 OpenBabel11062421073D

 27 30  0  0  1  0  0  0  0  0999 V2000
  183.5730  177.9700  141.8750 N   0  0  0  0  0  2  0  0  0  0  0  0
  184.9790  177.8190  145.0690 N   0  0  0  0  0  0  0  0  0  0  0  0
  185.7650  177.1960  142.2090 N   0  0  0  0  0  0  0  0  0  0  0  0
  187.0030  177.0750  142.9110 C   0  0  0  0  0  3  0  0  0  0  0  0
  187.2000  177.7080  144.0670 C   0  0  0  0  0  0  0  0  0  0  0  0
  186.1540  178.6120  144.6640 C   0  0  1  0  0  3  0  0  0  0  0  0
  184.8840  178.7290  143.9150 C   0  0  1  0  0  3  0  0  0  0  0  0
  184.7810  177.9240  142.6380 C   0  0  0  0  0  0  0  0  0  0  0  0
  185.4680  178.9730  147.1410 C   0  0  0  0  0  1  0  0  0  0  0  0
  184.3800  178.5130  146.1930 C   0  0  0  0  0  2  0  0  0  0  0  0
  188.5070  177.5680  144.7710 C   0  0  0  0  0  2  0  0  0  0  0  0
  188.2630  176.7100  146.8620 O   0  0  0  0  0  1  0  0  0  0  0  0
  188.5230  176.3550  145.5780 N   0  0  0  0  0  0  0  0  0  0  0  0
  189.8640  175.7680  145.5110 C   0  0  1  0  0  3  0  0  0  0  0  0
  192.5580  176.1520  144.6670 N   0  0  2  0  0  0  0  0  0  0  0  0
  190.3290  175.4650  144.0510 C   0  0  0  0  0  2  0  0  0  0  0  0
  190.8620  176.6230  146.3200 C   0  0  0  0  0  2  0  0  0  0  0  0
  194.7630  175.9750  143.5050 C   0  0  0  0  0  1  0  0  0  0  0  0
  192.2210  176.0150  146.0690 C   0  0  2  0  0  3  0  0  0  0  0  0
  191.8240  175.0970  143.9850 C   0  0  0  0  0  2  0  0  0  0  0  0
  193.9380  175.9250  144.6990 N   0  0  0  0  0  0  0  0  0  0  0  0
  194.4350  176.3130  145.9750 C   0  0  0  0  0  2  0  0  0  0  0  0
  193.4250  176.4610  146.8220 C   0  0  0  0  0  2  0  0  0  0  0  0
  182.5010  178.6940  142.2820 O   0  0  0  0  0  0  0  0  0  0  0  0
  181.4450  178.2650  141.4750 C   0  0  1  0  0  3  0  0  0  0  0  0
  180.3830  179.3430  141.4180 C   0  0  0  0  0  1  0  0  0  0  0  0
  181.9150  178.0090  140.1880 O   0  0  0  0  0  1  0  0  0  0  0  0
  1 24  1  0  0  0  0
  1  8  1  0  0  0  0
  2 10  1  0  0  0  0
  3  8  2  0  0  0  0
  3  4  1  0  0  0  0
  4  5  2  0  0  0  0
  5 11  1  0  0  0  0
  6  5  1  6  0  0  0
  6  2  1  0  0  0  0
  7  8  1  6  0  0  0
  7  6  1  0  0  0  0
  7  2  1  0  0  0  0
 10  9  1  0  0  0  0
 11 13  1  0  0  0  0
 13 12  1  0  0  0  0
 14 13  1  6  0  0  0
 14 17  1  0  0  0  0
 15 20  1  6  0  0  0
 15 21  1  0  0  0  0
 15 19  1  0  0  0  0
 16 14  1  0  0  0  0
 18 21  1  0  0  0  0
 19 17  1  1  0  0  0
 19 23  1  0  0  0  0
 20 16  1  0  0  0  0
 21 22  1  0  0  0  0
 22 23  1  0  0  0  0
 25 26  1  6  0  0  0
 25 24  1  0  0  0  0
 27 25  1  0  0  0  0
M  END
>  <MODEL>
1

>  <REMARK>
 VINA RESULT:      -7.0      0.000      0.000
  Name = 
  6 active torsions:
  status: ('A' for Active; 'I' for Inactive)
    1  A    between atoms: C_1  and  C_17
    2  A    between atoms: C_1  and  N_25
    3  A    between atoms: C_2  and  N_25
    4  A    between atoms: O_3  and  C_4
    5  A    between atoms: O_3  and  N_8
    6  A    between atoms: N_10  and  C_22
                            x       y       z     vdW  Elec       q    Type
                         _______ _______ _______ _____ _____    ______ ____

>  <TORSDO>
F 6

$$$$
=
 OpenBabel11062421073D

 27 30  0  0  1  0  0  0  0  0999 V2000
  184.9080  177.4930  142.2940 N   0  0  0  0  0  2  0  0  0  0  0  0
  185.4610  176.8860  145.6890 N   0  0  0  0  0  0  0  0  0  0  0  0
  186.9250  176.5610  143.0540 N   0  0  0  0  0  0  0  0  0  0  0  0
  187.9420  176.2870  144.0180 C   0  0  0  0  0  3  0  0  0  0  0  0
  187.8590  176.7670  145.2580 C   0  0  0  0  0  0  0  0  0  0  0  0
  186.7200  177.6520  145.6910 C   0  0  1  0  0  3  0  0  0  0  0  0
  185.6830  177.9290  144.6730 C   0  0  1  0  0  3  0  0  0  0  0  0
  185.8830  177.2880  143.3180 C   0  0  0  0  0  0  0  0  0  0  0  0
  183.9410  178.7120  146.1550 C   0  0  0  0  0  1  0  0  0  0  0  0
  184.6170  177.4750  146.7110 C   0  0  0  0  0  2  0  0  0  0  0  0
  188.9430  176.4700  146.2380 C   0  0  0  0  0  2  0  0  0  0  0  0
  188.8610  174.6000  147.5290 O   0  0  0  0  0  1  0  0  0  0  0  0
  189.2030  175.0370  146.2900 N   0  0  0  0  0  0  0  0  0  0  0  0
  190.6380  174.8160  146.0900 C   0  0  1  0  0  3  0  0  0  0  0  0
  192.9800  175.6790  144.7150 N   0  0  2  0  0  0  0  0  0  0  0  0
  190.9880  174.3200  144.6510 C   0  0  0  0  0  2  0  0  0  0  0  0
  191.4370  176.0600  146.5330 C   0  0  0  0  0  2  0  0  0  0  0  0
  194.9810  175.8170  143.2250 C   0  0  0  0  0  1  0  0  0  0  0  0
  192.8730  175.7810  146.1560 C   0  0  2  0  0  3  0  0  0  0  0  0
  192.5050  174.3440  144.3830 C   0  0  0  0  0  2  0  0  0  0  0  0
  194.3590  175.8290  144.5370 N   0  0  0  0  0  0  0  0  0  0  0  0
  194.8750  176.6100  145.6080 C   0  0  0  0  0  2  0  0  0  0  0  0
  193.9790  176.6810  146.5830 C   0  0  0  0  0  2  0  0  0  0  0  0
  183.7870  178.2250  142.5140 O   0  0  0  0  0  0  0  0  0  0  0  0
  182.9990  178.0330  141.3770 C   0  0  1  0  0  3  0  0  0  0  0  0
  181.6430  178.6730  141.5900 C   0  0  0  0  0  1  0  0  0  0  0  0
  183.6190  178.6190  140.2750 O   0  0  0  0  0  1  0  0  0  0  0  0
  1 24  1  0  0  0  0
  1  8  1  0  0  0  0
  2  6  1  0  0  0  0
  2 10  1  0  0  0  0
  3  8  2  0  0  0  0
  3  4  1  0  0  0  0
  4  5  2  0  0  0  0
  5 11  1  0  0  0  0
  6  5  1  6  0  0  0
  7  8  1  6  0  0  0
  7  2  1  0  0  0  0
  7  6  1  0  0  0  0
  9 10  1  0  0  0  0
 11 13  1  0  0  0  0
 13 12  1  0  0  0  0
 14 13  1  6  0  0  0
 14 17  1  0  0  0  0
 15 20  1  1  0  0  0
 15 19  1  0  0  0  0
 16 14  1  0  0  0  0
 18 21  1  0  0  0  0
 19 17  1  6  0  0  0
 19 23  1  0  0  0  0
 20 16  1  0  0  0  0
 21 15  1  0  0  0  0
 21 22  1  0  0  0  0
 22 23  1  0  0  0  0
 25 26  1  1  0  0  0
 25 24  1  0  0  0  0
 27 25  1  0  0  0  0
M  END
>  <MODEL>
2

>  <REMARK>
 VINA RESULT:      -7.0      1.234      1.385
  Name = 
  6 active torsions:
  status: ('A' for Active; 'I' for Inactive)
    1  A    between atoms: C_1  and  C_17
    2  A    between atoms: C_1  and  N_25
    3  A    between atoms: C_2  and  N_25
    4  A    between atoms: O_3  and  C_4
    5  A    between atoms: O_3  and  N_8
    6  A    between atoms: N_10  and  C_22
                            x       y       z     vdW  Elec       q    Type
                         _______ _______ _______ _____ _____    ______ ____

>  <TORSDO>
F 6

$$$$
=
 OpenBabel11062421073D

 27 30  0  0  1  0  0  0  0  0999 V2000
  186.0150  176.8050  146.8100 N   0  0  0  0  0  2  0  0  0  0  0  0
  188.1190  177.6490  144.1530 N   0  0  0  0  0  0  0  0  0  0  0  0
  188.3110  176.3180  146.8700 N   0  0  0  0  0  0  0  0  0  0  0  0
  189.5970  176.0640  146.3010 C   0  0  0  0  0  3  0  0  0  0  0  0
  189.7720  176.0580  144.9800 C   0  0  0  0  0  0  0  0  0  0  0  0
  188.6270  176.2710  144.0270 C   0  0  1  0  0  3  0  0  0  0  0  0
  187.3030  176.5230  144.6390 C   0  0  1  0  0  3  0  0  0  0  0  0
  187.2560  176.5430  146.1510 C   0  0  0  0  0  0  0  0  0  0  0  0
  186.2360  178.6740  143.0290 C   0  0  0  0  0  1  0  0  0  0  0  0
  187.5880  178.0150  142.8540 C   0  0  0  0  0  2  0  0  0  0  0  0
  191.1250  175.7800  144.4180 C   0  0  0  0  0  2  0  0  0  0  0  0
  191.8770  177.3040  142.9080 O   0  0  0  0  0  1  0  0  0  0  0  0
  191.8650  177.0210  144.2360 N   0  0  0  0  0  0  0  0  0  0  0  0
  193.2430  176.8130  144.6880 C   0  0  1  0  0  3  0  0  0  0  0  0
  195.2990  174.8970  145.1580 N   0  0  2  0  0  0  0  0  0  0  0  0
  193.3370  176.0040  146.0210 C   0  0  0  0  0  2  0  0  0  0  0  0
  194.0990  176.2310  143.5430 C   0  0  0  0  0  2  0  0  0  0  0  0
  197.0030  173.4080  146.2190 C   0  0  0  0  0  1  0  0  0  0  0  0
  195.4470  175.9280  144.1520 C   0  0  2  0  0  3  0  0  0  0  0  0
  194.7820  175.5750  146.3380 C   0  0  0  0  0  2  0  0  0  0  0  0
  196.6230  174.4740  145.3070 N   0  0  0  0  0  0  0  0  0  0  0  0
  197.3150  174.7020  144.0850 C   0  0  0  0  0  2  0  0  0  0  0  0
  196.6050  175.5130  143.3130 C   0  0  0  0  0  2  0  0  0  0  0  0
  184.8810  177.0680  146.1150 O   0  0  0  0  0  0  0  0  0  0  0  0
  184.3730  178.2410  146.6780 C   0  0  1  0  0  3  0  0  0  0  0  0
  185.5000  179.0210  147.3220 C   0  0  0  0  0  1  0  0  0  0  0  0
  183.7820  179.0180  145.6820 O   0  0  0  0  0  1  0  0  0  0  0  0
  2  7  1  0  0  0  0
  4  3  1  0  0  0  0
  5  4  2  0  0  0  0
  6  2  1  0  0  0  0
  6  7  1  0  0  0  0
  6  5  1  1  0  0  0
  7  8  1  1  0  0  0
  8  1  1  0  0  0  0
  8  3  2  0  0  0  0
 10  9  1  0  0  0  0
 10  2  1  0  0  0  0
 11  5  1  0  0  0  0
 12 13  1  0  0  0  0
 13 11  1  0  0  0  0
 14 13  1  6  0  0  0
 14 16  1  0  0  0  0
 15 21  1  0  0  0  0
 15 20  1  1  0  0  0
 16 20  1  0  0  0  0
 17 19  1  0  0  0  0
 17 14  1  0  0  0  0
 19 23  1  6  0  0  0
 19 15  1  0  0  0  0
 21 18  1  0  0  0  0
 22 21  1  0  0  0  0
 23 22  1  0  0  0  0
 24 25  1  0  0  0  0
 24  1  1  0  0  0  0
 25 26  1  6  0  0  0
 27 25  1  0  0  0  0
M  END
>  <MODEL>
3

>  <REMARK>
 VINA RESULT:      -6.9      2.661      4.472
  Name = 
  6 active torsions:
  status: ('A' for Active; 'I' for Inactive)
    1  A    between atoms: C_1  and  C_17
    2  A    between atoms: C_1  and  N_25
    3  A    between atoms: C_2  and  N_25
    4  A    between atoms: O_3  and  C_4
    5  A    between atoms: O_3  and  N_8
    6  A    between atoms: N_10  and  C_22
                            x       y       z     vdW  Elec       q    Type
                         _______ _______ _______ _____ _____    ______ ____

>  <TORSDO>
F 6

$$$$
=
 OpenBabel11062421073D

 27 30  0  0  1  0  0  0  0  0999 V2000
  182.3660  178.7070  142.1780 N   0  0  0  0  0  2  0  0  0  0  0  0
  185.8490  178.4800  142.0300 N   0  0  0  0  0  0  0  0  0  0  0  0
  183.6900  178.9680  144.1010 N   0  0  0  0  0  0  0  0  0  0  0  0
  184.8620  178.7980  144.8990 C   0  0  0  0  0  3  0  0  0  0  0  0
  185.9100  178.1150  144.4410 C   0  0  0  0  0  0  0  0  0  0  0  0
  185.8960  177.4550  143.0880 C   0  0  1  0  0  3  0  0  0  0  0  0
  184.6680  177.6370  142.2830 C   0  0  1  0  0  3  0  0  0  0  0  0
  183.5720  178.4690  142.9090 C   0  0  0  0  0  0  0  0  0  0  0  0
  187.9290  177.5060  141.2630 C   0  0  0  0  0  1  0  0  0  0  0  0
  186.5220  177.9150  140.8760 C   0  0  0  0  0  2  0  0  0  0  0  0
  187.1150  177.9480  145.3030 C   0  0  0  0  0  2  0  0  0  0  0  0
  186.7520  176.9370  147.3070 O   0  0  0  0  0  1  0  0  0  0  0  0
  187.0610  176.6750  146.0110 N   0  0  0  0  0  0  0  0  0  0  0  0
  188.3870  176.0550  145.9570 C   0  0  1  0  0  3  0  0  0  0  0  0
  191.1310  176.4270  145.2860 N   0  0  2  0  0  0  0  0  0  0  0  0
  188.9200  175.8710  144.5000 C   0  0  0  0  0  2  0  0  0  0  0  0
  189.3650  176.8000  146.8890 C   0  0  0  0  0  2  0  0  0  0  0  0
  193.3880  176.2870  144.2220 C   0  0  0  0  0  1  0  0  0  0  0  0
  190.7180  176.1730  146.6510 C   0  0  2  0  0  3  0  0  0  0  0  0
  190.4050  175.4630  144.4730 C   0  0  0  0  0  2  0  0  0  0  0  0
  192.5010  176.1550  145.3650 N   0  0  0  0  0  0  0  0  0  0  0  0
  192.9410  176.4080  146.6930 C   0  0  0  0  0  2  0  0  0  0  0  0
  191.8930  176.5100  147.5000 C   0  0  0  0  0  2  0  0  0  0  0  0
  182.1910  178.2310  140.9210 O   0  0  0  0  0  0  0  0  0  0  0  0
  180.8630  178.5240  140.6020 C   0  0  1  0  0  3  0  0  0  0  0  0
  179.9490  177.9260  141.6510 C   0  0  0  0  0  1  0  0  0  0  0  0
  180.6860  179.9060  140.5680 O   0  0  0  0  0  1  0  0  0  0  0  0
  1  8  1  0  0  0  0
  2  7  1  0  0  0  0
  2  6  1  0  0  0  0
  3  4  1  0  0  0  0
  5  4  2  0  0  0  0
  5 11  1  0  0  0  0
  6  5  1  1  0  0  0
  7  8  1  1  0  0  0
  7  6  1  0  0  0  0
  8  3  2  0  0  0  0
 10  9  1  0  0  0  0
 10  2  1  0  0  0  0
 11 13  1  0  0  0  0
 13 12  1  0  0  0  0
 14 13  1  6  0  0  0
 14 17  1  0  0  0  0
 15 20  1  6  0  0  0
 15 21  1  0  0  0  0
 15 19  1  0  0  0  0
 16 14  1  0  0  0  0
 18 21  1  0  0  0  0
 19 17  1  1  0  0  0
 19 23  1  0  0  0  0
 20 16  1  0  0  0  0
 21 22  1  0  0  0  0
 22 23  1  0  0  0  0
 24  1  1  0  0  0  0
 25 24  1  0  0  0  0
 25 26  1  1  0  0  0
 27 25  1  0  0  0  0
M  END
>  <MODEL>
4

>  <REMARK>
 VINA RESULT:      -6.8      1.399      2.482
  Name = 
  6 active torsions:
  status: ('A' for Active; 'I' for Inactive)
    1  A    between atoms: C_1  and  C_17
    2  A    between atoms: C_1  and  N_25
    3  A    between atoms: C_2  and  N_25
    4  A    between atoms: O_3  and  C_4
    5  A    between atoms: O_3  and  N_8
    6  A    between atoms: N_10  and  C_22
                            x       y       z     vdW  Elec       q    Type
                         _______ _______ _______ _____ _____    ______ ____

>  <TORSDO>
F 6

$$$$
=
 OpenBabel11062421073D

 27 30  0  0  1  0  0  0  0  0999 V2000
  194.6980  172.6490  145.2120 N   0  0  0  0  0  2  0  0  0  0  0  0
  192.9440  175.6480  144.8460 N   0  0  0  0  0  0  0  0  0  0  0  0
  192.3920  172.6690  144.7710 N   0  0  0  0  0  0  0  0  0  0  0  0
  191.0800  173.2350  144.7580 C   0  0  0  0  0  3  0  0  0  0  0  0
  190.8550  174.4550  145.2450 C   0  0  0  0  0  0  0  0  0  0  0  0
  191.9530  175.2740  145.8700 C   0  0  1  0  0  3  0  0  0  0  0  0
  193.3000  174.6630  145.8810 C   0  0  1  0  0  3  0  0  0  0  0  0
  193.4210  173.2900  145.2590 C   0  0  0  0  0  0  0  0  0  0  0  0
  194.1770  176.7460  146.6180 C   0  0  0  0  0  1  0  0  0  0  0  0
  193.5140  176.9150  145.2650 C   0  0  0  0  0  2  0  0  0  0  0  0
  189.4730  175.0130  145.2240 C   0  0  0  0  0  2  0  0  0  0  0  0
  188.5730  174.9580  147.3110 O   0  0  0  0  0  1  0  0  0  0  0  0
  189.2140  175.7760  146.4380 N   0  0  0  0  0  0  0  0  0  0  0  0
  188.3320  176.8980  146.1050 C   0  0  1  0  0  3  0  0  0  0  0  0
  185.8460  177.6680  144.9450 N   0  0  2  0  0  0  0  0  0  0  0  0
  188.1620  177.1090  144.5660 C   0  0  0  0  0  2  0  0  0  0  0  0
  186.9970  176.7730  146.8690 C   0  0  0  0  0  2  0  0  0  0  0  0
  184.0770  178.6360  143.4680 C   0  0  0  0  0  1  0  0  0  0  0  0
  186.1210  177.8870  146.3500 C   0  0  2  0  0  3  0  0  0  0  0  0
  187.0390  178.1120  144.2410 C   0  0  0  0  0  2  0  0  0  0  0  0
  184.7490  178.5140  144.7510 N   0  0  0  0  0  0  0  0  0  0  0  0
  184.0500  178.6450  145.9820 C   0  0  0  0  0  2  0  0  0  0  0  0
  184.8080  178.2020  146.9770 C   0  0  0  0  0  2  0  0  0  0  0  0
  195.8150  173.2550  145.6850 O   0  0  0  0  0  0  0  0  0  0  0  0
  196.8790  172.5290  145.1450 C   0  0  1  0  0  3  0  0  0  0  0  0
  196.9500  171.1690  145.8080 C   0  0  0  0  0  1  0  0  0  0  0  0
  196.6850  172.3670  143.7750 O   0  0  0  0  0  1  0  0  0  0  0  0
  1  8  1  0  0  0  0
  1 24  1  0  0  0  0
  2 10  1  0  0  0  0
  2  6  1  0  0  0  0
  2  7  1  0  0  0  0
  3  8  2  0  0  0  0
  4  3  1  0  0  0  0
  4  5  2  0  0  0  0
  6  5  1  6  0  0  0
  6  7  1  0  0  0  0
  7  8  1  6  0  0  0
 10  9  1  0  0  0  0
 11  5  1  0  0  0  0
 11 13  1  0  0  0  0
 13 12  1  0  0  0  0
 14 13  1  6  0  0  0
 14 17  1  0  0  0  0
 15 20  1  6  0  0  0
 15 19  1  0  0  0  0
 16 14  1  0  0  0  0
 18 21  1  0  0  0  0
 19 17  1  1  0  0  0
 19 23  1  0  0  0  0
 20 16  1  0  0  0  0
 21 15  1  0  0  0  0
 21 22  1  0  0  0  0
 22 23  1  0  0  0  0
 25 24  1  0  0  0  0
 25 26  1  1  0  0  0
 27 25  1  0  0  0  0
M  END
>  <MODEL>
5

>  <REMARK>
 VINA RESULT:      -6.7      3.266      9.545
  Name = 
  6 active torsions:
  status: ('A' for Active; 'I' for Inactive)
    1  A    between atoms: C_1  and  C_17
    2  A    between atoms: C_1  and  N_25
    3  A    between atoms: C_2  and  N_25
    4  A    between atoms: O_3  and  C_4
    5  A    between atoms: O_3  and  N_8
    6  A    between atoms: N_10  and  C_22
                            x       y       z     vdW  Elec       q    Type
                         _______ _______ _______ _____ _____    ______ ____

>  <TORSDO>
F 6

$$$$
=
 OpenBabel11062421073D

 27 30  0  0  1  0  0  0  0  0999 V2000
  183.3600  178.6850  143.0900 N   0  0  0  0  0  2  0  0  0  0  0  0
  186.8090  178.2210  143.3880 N   0  0  0  0  0  0  0  0  0  0  0  0
  184.4190  178.7200  145.1850 N   0  0  0  0  0  0  0  0  0  0  0  0
  185.4580  178.4120  146.1160 C   0  0  0  0  0  3  0  0  0  0  0  0
  186.5150  177.6890  145.7500 C   0  0  0  0  0  0  0  0  0  0  0  0
  186.6470  177.1260  144.3600 C   0  0  1  0  0  3  0  0  0  0  0  0
  185.5550  177.4490  143.4160 C   0  0  1  0  0  3  0  0  0  0  0  0
  184.4360  178.3120  143.9530 C   0  0  0  0  0  0  0  0  0  0  0  0
  187.4360  176.1850  142.2370 C   0  0  0  0  0  1  0  0  0  0  0  0
  187.5990  177.6900  142.2930 C   0  0  0  0  0  2  0  0  0  0  0  0
  187.5770  177.3790  146.7490 C   0  0  0  0  0  2  0  0  0  0  0  0
  188.2890  175.2830  147.2690 O   0  0  0  0  0  1  0  0  0  0  0  0
  188.3720  176.2390  146.3090 N   0  0  0  0  0  0  0  0  0  0  0  0
  189.7680  176.6640  146.1840 C   0  0  1  0  0  3  0  0  0  0  0  0
  192.4540  175.8160  145.7520 N   0  0  2  0  0  0  0  0  0  0  0  0
  190.6740  176.1460  147.3460 C   0  0  0  0  0  2  0  0  0  0  0  0
  190.3060  176.3290  144.7770 C   0  0  0  0  0  2  0  0  0  0  0  0
  194.8840  175.2940  146.0150 C   0  0  0  0  0  1  0  0  0  0  0  0
  191.7750  176.6760  144.8040 C   0  0  2  0  0  3  0  0  0  0  0  0
  192.1700  176.3810  147.0630 C   0  0  0  0  0  2  0  0  0  0  0  0
  193.7860  175.9850  145.3600 N   0  0  0  0  0  0  0  0  0  0  0  0
  193.8180  176.3070  143.9750 C   0  0  0  0  0  2  0  0  0  0  0  0
  192.6040  176.6540  143.5680 C   0  0  0  0  0  2  0  0  0  0  0  0
  183.3300  178.3090  141.7870 O   0  0  0  0  0  0  0  0  0  0  0  0
  181.9890  178.0250  141.5200 C   0  0  1  0  0  3  0  0  0  0  0  0
  181.1170  179.1270  142.0850 C   0  0  0  0  0  1  0  0  0  0  0  0
  181.7940  177.9400  140.1420 O   0  0  0  0  0  1  0  0  0  0  0  0
  1  8  1  0  0  0  0
  2  7  1  0  0  0  0
  2  6  1  0  0  0  0
  3  4  1  0  0  0  0
  5  4  2  0  0  0  0
  5 11  1  0  0  0  0
  6  5  1  1  0  0  0
  7  8  1  1  0  0  0
  7  6  1  0  0  0  0
  8  3  2  0  0  0  0
  9 10  1  0  0  0  0
 10  2  1  0  0  0  0
 13 11  1  0  0  0  0
 13 12  1  0  0  0  0
 14 13  1  1  0  0  0
 14 16  1  0  0  0  0
 15 20  1  1  0  0  0
 17 19  1  0  0  0  0
 17 14  1  0  0  0  0
 19 23  1  6  0  0  0
 19 15  1  0  0  0  0
 20 16  1  0  0  0  0
 21 15  1  0  0  0  0
 21 18  1  0  0  0  0
 22 21  1  0  0  0  0
 23 22  1  0  0  0  0
 24  1  1  0  0  0  0
 25 24  1  0  0  0  0
 25 26  1  6  0  0  0
 27 25  1  0  0  0  0
M  END
>  <MODEL>
6

>  <REMARK>
 VINA RESULT:      -6.7      1.211      2.518
  Name = 
  6 active torsions:
  status: ('A' for Active; 'I' for Inactive)
    1  A    between atoms: C_1  and  C_17
    2  A    between atoms: C_1  and  N_25
    3  A    between atoms: C_2  and  N_25
    4  A    between atoms: O_3  and  C_4
    5  A    between atoms: O_3  and  N_8
    6  A    between atoms: N_10  and  C_22
                            x       y       z     vdW  Elec       q    Type
                         _______ _______ _______ _____ _____    ______ ____

>  <TORSDO>
F 6

$$$$
=
 OpenBabel11062421073D

 27 30  0  0  1  0  0  0  0  0999 V2000
  186.0580  178.6710  145.5820 N   0  0  0  0  0  2  0  0  0  0  0  0
  189.2210  177.5960  144.5630 N   0  0  0  0  0  0  0  0  0  0  0  0
  187.2150  176.9970  146.7550 N   0  0  0  0  0  0  0  0  0  0  0  0
  188.1730  175.9480  146.9060 C   0  0  0  0  0  3  0  0  0  0  0  0
  188.9380  175.5670  145.8850 C   0  0  0  0  0  0  0  0  0  0  0  0
  188.8030  176.1840  144.5180 C   0  0  1  0  0  3  0  0  0  0  0  0
  187.7980  177.2610  144.3830 C   0  0  1  0  0  3  0  0  0  0  0  0
  187.0270  177.6220  145.6330 C   0  0  0  0  0  0  0  0  0  0  0  0
  191.2480  177.7590  143.2480 C   0  0  0  0  0  1  0  0  0  0  0  0
  189.7410  177.9150  143.2470 C   0  0  0  0  0  2  0  0  0  0  0  0
  189.9220  174.4620  146.0740 C   0  0  0  0  0  2  0  0  0  0  0  0
  189.6910  172.4640  145.0120 O   0  0  0  0  0  1  0  0  0  0  0  0
  190.1210  173.7390  144.8240 N   0  0  0  0  0  0  0  0  0  0  0  0
  191.5540  173.7150  144.5220 C   0  0  1  0  0  3  0  0  0  0  0  0
  193.8260  175.2680  143.7840 N   0  0  2  0  0  0  0  0  0  0  0  0
  191.8730  174.0670  143.0340 C   0  0  0  0  0  2  0  0  0  0  0  0
  192.3310  174.5700  145.5460 C   0  0  0  0  0  2  0  0  0  0  0  0
  195.7750  176.2540  142.5690 C   0  0  0  0  0  1  0  0  0  0  0  0
  193.7610  174.5910  145.0630 C   0  0  2  0  0  3  0  0  0  0  0  0
  193.3800  174.2910  142.8020 C   0  0  0  0  0  2  0  0  0  0  0  0
  195.1940  175.5460  143.6970 N   0  0  0  0  0  0  0  0  0  0  0  0
  195.7210  175.6650  145.0130 C   0  0  0  0  0  2  0  0  0  0  0  0
  194.8530  175.1750  145.8880 C   0  0  0  0  0  2  0  0  0  0  0  0
  185.8310  179.3760  144.4460 O   0  0  0  0  0  0  0  0  0  0  0  0
  184.4490  179.3160  144.2500 C   0  0  1  0  0  3  0  0  0  0  0  0
  184.1360  178.3020  143.1690 C   0  0  0  0  0  1  0  0  0  0  0  0
  183.8260  178.9350  145.4370 O   0  0  0  0  0  1  0  0  0  0  0  0
  1  8  1  0  0  0  0
  3  4  1  0  0  0  0
  5 11  1  0  0  0  0
  5  4  2  0  0  0  0
  6  2  1  0  0  0  0
  6  5  1  1  0  0  0
  7  6  1  0  0  0  0
  7  2  1  0  0  0  0
  7  8  1  1  0  0  0
  8  3  2  0  0  0  0
 10  9  1  0  0  0  0
 10  2  1  0  0  0  0
 13 12  1  0  0  0  0
 13 11  1  0  0  0  0
 14 13  1  1  0  0  0
 14 17  1  0  0  0  0
 15 20  1  6  0  0  0
 15 19  1  0  0  0  0
 16 14  1  0  0  0  0
 18 21  1  0  0  0  0
 19 17  1  1  0  0  0
 19 23  1  0  0  0  0
 20 16  1  0  0  0  0
 21 15  1  0  0  0  0
 21 22  1  0  0  0  0
 22 23  1  0  0  0  0
 24  1  1  0  0  0  0
 25 26  1  6  0  0  0
 25 24  1  0  0  0  0
 25 27  1  0  0  0  0
M  END
>  <MODEL>
7

>  <REMARK>
 VINA RESULT:      -6.7      2.550      3.818
  Name = 
  6 active torsions:
  status: ('A' for Active; 'I' for Inactive)
    1  A    between atoms: C_1  and  C_17
    2  A    between atoms: C_1  and  N_25
    3  A    between atoms: C_2  and  N_25
    4  A    between atoms: O_3  and  C_4
    5  A    between atoms: O_3  and  N_8
    6  A    between atoms: N_10  and  C_22
                            x       y       z     vdW  Elec       q    Type
                         _______ _______ _______ _____ _____    ______ ____

>  <TORSDO>
F 6

$$$$
=
 OpenBabel11062421073D

 27 30  0  0  1  0  0  0  0  0999 V2000
  185.2730  177.5860  142.2040 N   0  0  0  0  0  2  0  0  0  0  0  0
  186.1650  176.8010  145.4890 N   0  0  0  0  0  0  0  0  0  0  0  0
  187.5200  177.3000  142.8230 N   0  0  0  0  0  0  0  0  0  0  0  0
  188.6180  177.2700  143.7360 C   0  0  0  0  0  3  0  0  0  0  0  0
  188.4420  177.5430  145.0290 C   0  0  0  0  0  0  0  0  0  0  0  0
  187.0980  177.9380  145.5800 C   0  0  1  0  0  3  0  0  0  0  0  0
  185.9780  177.9710  144.6150 C   0  0  1  0  0  3  0  0  0  0  0  0
  186.3110  177.6000  143.1870 C   0  0  0  0  0  0  0  0  0  0  0  0
  184.4390  178.2300  146.4060 C   0  0  0  0  0  1  0  0  0  0  0  0
  185.2260  176.9480  146.5840 C   0  0  0  0  0  2  0  0  0  0  0  0
  189.6110  177.5120  145.9540 C   0  0  0  0  0  2  0  0  0  0  0  0
  190.0770  175.6970  147.2410 O   0  0  0  0  0  1  0  0  0  0  0  0
  190.2050  176.1820  145.9790 N   0  0  0  0  0  0  0  0  0  0  0  0
  191.6300  176.3010  145.6600 C   0  0  1  0  0  3  0  0  0  0  0  0
  194.1130  174.9200  145.4420 N   0  0  2  0  0  0  0  0  0  0  0  0
  192.5580  176.0580  146.8930 C   0  0  0  0  0  2  0  0  0  0  0  0
  191.9780  175.4280  144.4360 C   0  0  0  0  0  2  0  0  0  0  0  0
  196.4560  174.1170  145.7730 C   0  0  0  0  0  1  0  0  0  0  0  0
  193.4780  175.5130  144.2830 C   0  0  2  0  0  3  0  0  0  0  0  0
  194.0380  175.9300  146.4870 C   0  0  0  0  0  2  0  0  0  0  0  0
  195.4120  174.7220  144.9640 N   0  0  0  0  0  0  0  0  0  0  0  0
  195.3590  174.5510  143.5530 C   0  0  0  0  0  2  0  0  0  0  0  0
  194.1740  174.9400  143.0990 C   0  0  0  0  0  2  0  0  0  0  0  0
  183.9860  177.8690  142.5250 O   0  0  0  0  0  0  0  0  0  0  0  0
  183.4620  178.5090  141.4000 C   0  0  1  0  0  3  0  0  0  0  0  0
  184.2620  178.1150  140.1760 C   0  0  0  0  0  1  0  0  0  0  0  0
  182.1320  178.1320  141.2250 O   0  0  0  0  0  1  0  0  0  0  0  0
  1 24  1  0  0  0  0
  1  8  1  0  0  0  0
  2  6  1  0  0  0  0
  2 10  1  0  0  0  0
  3  8  2  0  0  0  0
  3  4  1  0  0  0  0
  4  5  2  0  0  0  0
  5 11  1  0  0  0  0
  6  5  1  6  0  0  0
  7  8  1  6  0  0  0
  7  2  1  0  0  0  0
  7  6  1  0  0  0  0
  9 10  1  0  0  0  0
 11 13  1  0  0  0  0
 13 12  1  0  0  0  0
 14 13  1  1  0  0  0
 14 16  1  0  0  0  0
 15 20  1  1  0  0  0
 17 14  1  0  0  0  0
 19 23  1  6  0  0  0
 19 17  1  0  0  0  0
 19 15  1  0  0  0  0
 20 16  1  0  0  0  0
 21 15  1  0  0  0  0
 21 18  1  0  0  0  0
 22 21  1  0  0  0  0
 23 22  1  0  0  0  0
 25 26  1  6  0  0  0
 25 24  1  0  0  0  0
 27 25  1  0  0  0  0
M  END
>  <MODEL>
8

>  <REMARK>
 VINA RESULT:      -6.4      1.511      2.359
  Name = 
  6 active torsions:
  status: ('A' for Active; 'I' for Inactive)
    1  A    between atoms: C_1  and  C_17
    2  A    between atoms: C_1  and  N_25
    3  A    between atoms: C_2  and  N_25
    4  A    between atoms: O_3  and  C_4
    5  A    between atoms: O_3  and  N_8
    6  A    between atoms: N_10  and  C_22
                            x       y       z     vdW  Elec       q    Type
                         _______ _______ _______ _____ _____    ______ ____

>  <TORSDO>
F 6

$$$$
=
 OpenBabel11062421073D

 27 30  0  0  1  0  0  0  0  0999 V2000
  187.7770  177.9240  143.4760 N   0  0  0  0  0  2  0  0  0  0  0  0
  189.8860  175.5440  144.9200 N   0  0  0  0  0  0  0  0  0  0  0  0
  190.1020  177.9990  143.1550 N   0  0  0  0  0  0  0  0  0  0  0  0
  191.4640  177.7250  143.4870 C   0  0  0  0  0  3  0  0  0  0  0  0
  191.7780  177.0450  144.5890 C   0  0  0  0  0  0  0  0  0  0  0  0
  190.7260  176.5740  145.5560 C   0  0  1  0  0  3  0  0  0  0  0  0
  189.3230  176.8770  145.1970 C   0  0  1  0  0  3  0  0  0  0  0  0
  189.1080  177.6200  143.8980 C   0  0  0  0  0  0  0  0  0  0  0  0
  189.8850  175.2180  147.3200 C   0  0  0  0  0  1  0  0  0  0  0  0
  189.4260  174.6710  145.9840 C   0  0  0  0  0  2  0  0  0  0  0  0
  193.2110  176.7850  144.9100 C   0  0  0  0  0  2  0  0  0  0  0  0
  194.0960  177.2870  146.9440 O   0  0  0  0  0  1  0  0  0  0  0  0
  193.3510  176.3550  146.2960 N   0  0  0  0  0  0  0  0  0  0  0  0
  194.0690  175.0780  146.3170 C   0  0  1  0  0  3  0  0  0  0  0  0
  195.2900  173.0410  144.7430 N   0  0  2  0  0  0  0  0  0  0  0  0
  193.2480  173.9020  145.6950 C   0  0  0  0  0  2  0  0  0  0  0  0
  195.4770  175.2450  145.7110 C   0  0  0  0  0  2  0  0  0  0  0  0
  195.8520  170.8810  143.6190 C   0  0  0  0  0  1  0  0  0  0  0  0
  196.0680  173.8570  145.6540 C   0  0  2  0  0  3  0  0  0  0  0  0
  194.1080  172.6410  145.4920 C   0  0  0  0  0  2  0  0  0  0  0  0
  196.1750  171.9830  144.5090 N   0  0  0  0  0  0  0  0  0  0  0  0
  197.5060  172.4560  144.6700 C   0  0  0  0  0  2  0  0  0  0  0  0
  197.4930  173.6310  145.2870 C   0  0  0  0  0  2  0  0  0  0  0  0
  186.6950  177.5360  144.1960 O   0  0  0  0  0  0  0  0  0  0  0  0
  186.2800  178.6840  144.8750 C   0  0  1  0  0  3  0  0  0  0  0  0
  185.4680  179.5570  143.9420 C   0  0  0  0  0  1  0  0  0  0  0  0
  185.4950  178.3200  145.9690 O   0  0  0  0  0  1  0  0  0  0  0  0
  1  8  1  0  0  0  0
  1 24  1  0  0  0  0
  2  7  1  0  0  0  0
  2  6  1  0  0  0  0
  2 10  1  0  0  0  0
  3  4  1  0  0  0  0
  3  8  2  0  0  0  0
  4  5  2  0  0  0  0
  5 11  1  0  0  0  0
  6  5  1  6  0  0  0
  7  8  1  6  0  0  0
  7  6  1  0  0  0  0
 10  9  1  0  0  0  0
 11 13  1  0  0  0  0
 13 12  1  0  0  0  0
 14 13  1  6  0  0  0
 15 20  1  1  0  0  0
 15 19  1  0  0  0  0
 16 14  1  0  0  0  0
 17 14  1  0  0  0  0
 18 21  1  0  0  0  0
 19 23  1  6  0  0  0
 19 17  1  0  0  0  0
 20 16  1  0  0  0  0
 21 22  1  0  0  0  0
 21 15  1  0  0  0  0
 22 23  1  0  0  0  0
 24 25  1  0  0  0  0
 25 26  1  6  0  0  0
 25 27  1  0  0  0  0
M  END
>  <MODEL>
9

>  <REMARK>
 VINA RESULT:      -6.4      2.910      5.024
  Name = 
  6 active torsions:
  status: ('A' for Active; 'I' for Inactive)
    1  A    between atoms: C_1  and  C_17
    2  A    between atoms: C_1  and  N_25
    3  A    between atoms: C_2  and  N_25
    4  A    between atoms: O_3  and  C_4
    5  A    between atoms: O_3  and  N_8
    6  A    between atoms: N_10  and  C_22
                            x       y       z     vdW  Elec       q    Type
                         _______ _______ _______ _____ _____    ______ ____

>  <TORSDO>
F 6

$$$$
