=
 OpenBabel11062420263D

 49 51  0  0  1  0  0  0  0  0999 V2000
  188.7450  175.2770  147.1570 S   0  0  0  0  0  0  0  0  0  0  0  0
  190.6420  173.8550  145.7110 C   0  0  0  0  0  0  0  0  0  0  0  0
  192.7250  175.4390  146.6430 C   0  0  0  0  0  3  0  0  0  0  0  0
  190.4080  174.9180  146.6010 C   0  0  0  0  0  0  0  0  0  0  0  0
  193.0020  174.3850  145.7750 C   0  0  0  0  0  3  0  0  0  0  0  0
  191.4450  175.6880  147.0270 N   0  0  0  0  0  0  0  0  0  0  0  0
  191.9590  173.5840  145.2880 C   0  0  0  0  0  0  0  0  0  0  0  0
  189.5940  173.1110  145.2610 F   0  0  0  0  0  0  0  0  0  0  0  0
  191.6620  172.6000  142.9920 N   0  0  0  0  0  2  0  0  0  0  0  0
  192.9810  171.5490  144.6120 O   0  0  0  0  0  0  0  0  0  0  0  0
  192.2590  172.5330  144.2970 C   0  0  0  0  0  0  0  0  0  0  0  0
  191.7580  171.5610  141.9670 C   0  0  1  0  0  3  0  0  0  0  0  0
  190.5220  170.6800  141.9710 C   0  0  0  0  0  1  0  0  0  0  0  0
  191.9770  172.1550  140.5760 C   0  0  0  0  0  2  0  0  0  0  0  0
  191.8380  171.1170  139.5020 C   0  0  0  0  0  0  0  0  0  0  0  0
  192.5950  170.1100  139.4990 O   0  0  0  0  0  0  0  0  0  0  0  0
  190.7920  171.2080  138.5360 N   0  0  0  0  0  2  0  0  0  0  0  0
  189.7680  172.2390  138.5940 C   0  0  0  0  0  2  0  0  0  0  0  0
  189.6890  173.1310  137.0120 P   0  0  1  0  0  0  0  0  0  0  0  0
  189.3300  172.1570  135.9090 O   0  0  0  0  0  0  0  0  0  0  0  0
  188.5160  174.3490  137.0940 O   0  0  0  0  0  1  0  0  0  0  0  0
  192.4100  174.3100  138.0110 O   0  0  0  0  0  1  0  0  0  0  0  0
  191.3630  175.3000  135.8260 O   0  0  0  0  0  1  0  0  0  0  0  0
  191.5690  174.0020  136.5730 P   0  0  0  0  0  0  0  0  0  0  0  0
  192.4680  172.9370  135.6080 O   0  0  0  0  0  0  0  0  0  0  0  0
  188.8420  177.0110  146.6110 C   0  0  0  0  0  2  0  0  0  0  0  0
  187.4770  177.5710  146.1940 C   0  0  2  0  0  3  0  0  0  0  0  0
  186.2080  178.2850  148.1310 O   0  0  0  0  0  1  0  0  0  0  0  0
  185.0520  176.9350  146.5230 C   0  0  0  0  0  1  0  0  0  0  0  0
  186.3750  177.2580  147.2000 C   0  0  1  0  0  3  0  0  0  0  0  0
  187.0700  176.9820  144.8500 C   0  0  0  0  0  2  0  0  0  0  0  0
  187.3510  177.9440  143.6960 C   0  0  1  0  0  3  0  0  0  0  0  0
  188.2180  175.7260  142.8830 C   0  0  0  0  0  2  0  0  0  0  0  0
  188.1940  177.2050  142.6440 C   0  0  2  0  0  3  0  0  0  0  0  0
  189.5170  177.6330  142.6700 O   0  0  0  0  0  0  0  0  0  0  0  0
  190.2480  176.4750  142.3760 C   0  0  2  0  0  3  0  0  0  0  0  0
  189.5540  175.3290  142.8120 O   0  0  0  0  0  0  0  0  0  0  0  0
  191.6080  176.5230  143.0530 C   0  0  0  0  0  2  0  0  0  0  0  0
  192.6390  175.6970  142.2980 C   0  0  0  0  0  2  0  0  0  0  0  0
  194.0350  176.1690  142.6860 C   0  0  0  0  0  2  0  0  0  0  0  0
  195.1140  175.2140  142.1920 C   0  0  1  0  0  3  0  0  0  0  0  0
  196.6130  176.7920  143.3830 C   0  0  0  0  0  2  0  0  0  0  0  0
  196.4610  175.6590  142.6940 C   0  0  0  0  0  3  0  0  0  0  0  0
  194.8390  173.9050  142.6150 O   0  0  0  0  0  0  0  0  0  0  0  0
  195.5890  173.0690  141.7770 C   0  0  0  0  0  1  0  0  0  0  0  0
  186.0710  178.5780  143.1030 C   0  0  0  0  0  0  0  0  0  0  0  0
  184.9300  177.6430  142.7760 C   0  0  0  0  0  2  0  0  0  0  0  0
  185.6320  179.8040  143.6190 O   0  0  0  0  0  1  0  0  0  0  0  0
  185.7030  178.3330  141.6540 C   0  0  0  0  0  2  0  0  0  0  0  0
  2  4  1  0  0  0  0
  3  6  1  0  0  0  0
  4  6  2  0  0  0  0
  4  1  1  0  0  0  0
  5  3  2  0  0  0  0
  7  2  2  0  0  0  0
  7  5  1  0  0  0  0
  8  2  1  0  0  0  0
  9 11  1  0  0  0  0
 11 10  2  0  0  0  0
 11  7  1  0  0  0  0
 12 13  1  6  0  0  0
 12  9  1  0  0  0  0
 14 12  1  0  0  0  0
 15 14  1  0  0  0  0
 16 15  2  0  0  0  0
 17 18  1  0  0  0  0
 17 15  1  0  0  0  0
 19 20  2  6  0  0  0
 19 21  1  0  0  0  0
 19 18  1  0  0  0  0
 23 24  1  0  0  0  0
 24 19  1  0  0  0  0
 24 22  1  0  0  0  0
 25 24  2  0  0  0  0
 26  1  1  0  0  0  0
 27 31  1  6  0  0  0
 27 26  1  0  0  0  0
 27 30  1  0  0  0  0
 30 29  1  6  0  0  0
 30 28  1  0  0  0  0
 32 31  1  1  0  0  0
 34 35  1  0  0  0  0
 34 33  1  0  0  0  0
 34 32  1  1  0  0  0
 36 35  1  0  0  0  0
 36 37  1  0  0  0  0
 36 38  1  1  0  0  0
 37 33  1  0  0  0  0
 39 40  1  0  0  0  0
 39 38  1  0  0  0  0
 41 44  1  0  0  0  0
 41 40  1  1  0  0  0
 41 43  1  0  0  0  0
 43 42  2  0  0  0  0
 45 44  1  0  0  0  0
 46 48  1  0  0  0  0
 46 32  1  0  0  0  0
 47 46  1  0  0  0  0
 49 47  1  0  0  0  0
 49 46  1  0  0  0  0
M  END
>  <MODEL>
1

>  <REMARK>
 VINA RESULT:      -5.7      0.000      0.000
  Name = 
  21 active torsions:
  status: ('A' for Active; 'I' for Inactive)
    1  A    between atoms: N_2  and  C_35
    2  A    between atoms: P_3  and  C_14
    3  A    between atoms: P_3  and  P_41
    4  A    between atoms: C_4  and  C_31
    5  A    between atoms: C_4  and  C_34
    6  A    between atoms: C_4  and  C_45
    7  A    between atoms: O_5  and  C_22
    8  A    between atoms: C_9  and  C_17
    9  A    between atoms: C_11  and  C_17
   10  A    between atoms: C_12  and  C_26
   11  A    between atoms: C_12  and  C_42
   12  A    between atoms: C_14  and  N_33
   13  A    between atoms: C_15  and  S_29
   14  A    between atoms: C_17  and  C_45
   15  A    between atoms: C_22  and  C_32
   16  A    between atoms: C_22  and  C_39
   17  A    between atoms: C_25  and  C_44
   18  A    between atoms: C_26  and  C_32
   19  A    between atoms: S_29  and  C_31
   20  A    between atoms: C_35  and  C_44
   21  A    between atoms: C_40  and  C_46
                            x       y       z     vdW  Elec       q    Type
                         _______ _______ _______ _____ _____    ______ ____

>  <TORSDO>
F 21

$$$$
=
 OpenBabel11062420263D

 49 51  0  0  1  0  0  0  0  0999 V2000
  190.4090  173.6400  144.8620 S   0  0  0  0  0  0  0  0  0  0  0  0
  193.1390  174.0780  145.1210 C   0  0  0  0  0  0  0  0  0  0  0  0
  192.7600  176.2060  146.8660 C   0  0  0  0  0  3  0  0  0  0  0  0
  191.8490  174.4880  145.5020 C   0  0  0  0  0  0  0  0  0  0  0  0
  194.0560  175.8200  146.5270 C   0  0  0  0  0  3  0  0  0  0  0  0
  191.6940  175.5460  146.3430 N   0  0  0  0  0  0  0  0  0  0  0  0
  194.2610  174.7550  145.6400 C   0  0  0  0  0  0  0  0  0  0  0  0
  193.2860  173.0420  144.2500 F   0  0  0  0  0  0  0  0  0  0  0  0
  195.9820  174.4720  143.8250 N   0  0  0  0  0  2  0  0  0  0  0  0
  196.4840  174.0310  146.0670 O   0  0  0  0  0  0  0  0  0  0  0  0
  195.6360  174.4210  145.2190 C   0  0  0  0  0  0  0  0  0  0  0  0
  197.2560  174.0350  143.2570 C   0  0  1  0  0  3  0  0  0  0  0  0
  197.1500  172.6220  142.7120 C   0  0  0  0  0  1  0  0  0  0  0  0
  197.7470  174.9850  142.1650 C   0  0  0  0  0  2  0  0  0  0  0  0
  196.6880  175.9720  141.7730 C   0  0  0  0  0  0  0  0  0  0  0  0
  196.5460  177.0370  142.4320 O   0  0  0  0  0  0  0  0  0  0  0  0
  195.8990  175.7650  140.6030 N   0  0  0  0  0  2  0  0  0  0  0  0
  196.1370  174.6570  139.6920 C   0  0  0  0  0  2  0  0  0  0  0  0
  194.7440  173.4900  139.7510 P   0  0  1  0  0  0  0  0  0  0  0  0
  195.2680  172.0800  139.5750 O   0  0  0  0  0  0  0  0  0  0  0  0
  193.9480  173.6150  141.2400 O   0  0  0  0  0  1  0  0  0  0  0  0
  193.6690  175.4630  137.5720 O   0  0  0  0  0  1  0  0  0  0  0  0
  191.9630  173.8470  138.7260 O   0  0  0  0  0  1  0  0  0  0  0  0
  193.3750  173.9130  138.1910 P   0  0  0  0  0  0  0  0  0  0  0  0
  193.5610  172.7660  136.9560 O   0  0  0  0  0  0  0  0  0  0  0  0
  189.5420  175.1990  144.5000 C   0  0  0  0  0  2  0  0  0  0  0  0
  190.2740  176.0470  143.4550 C   0  0  2  0  0  3  0  0  0  0  0  0
  189.6540  177.7990  145.0110 O   0  0  0  0  0  1  0  0  0  0  0  0
  191.5990  178.1910  143.6640 C   0  0  0  0  0  1  0  0  0  0  0  0
  190.2280  177.5400  143.7640 C   0  0  1  0  0  3  0  0  0  0  0  0
  189.6470  175.8300  142.0850 C   0  0  0  0  0  2  0  0  0  0  0  0
  188.2710  175.1720  142.1840 C   0  0  1  0  0  3  0  0  0  0  0  0
  187.8160  177.4520  141.2240 C   0  0  0  0  0  2  0  0  0  0  0  0
  187.2390  176.1040  141.5300 C   0  0  2  0  0  3  0  0  0  0  0  0
  186.1510  176.3190  142.3700 O   0  0  0  0  0  0  0  0  0  0  0  0
  185.7890  177.6470  142.1130 C   0  0  2  0  0  3  0  0  0  0  0  0
  186.9120  178.3970  141.7110 O   0  0  0  0  0  0  0  0  0  0  0  0
  185.1850  178.2790  143.3560 C   0  0  0  0  0  2  0  0  0  0  0  0
  186.2420  178.5490  144.4180 C   0  0  0  0  0  2  0  0  0  0  0  0
  185.5510  178.8700  145.7380 C   0  0  0  0  0  2  0  0  0  0  0  0
  185.5770  177.6840  146.6930 C   0  0  1  0  0  3  0  0  0  0  0  0
  187.4380  176.1320  147.2260 C   0  0  0  0  0  2  0  0  0  0  0  0
  186.6840  176.7390  146.3080 C   0  0  0  0  0  3  0  0  0  0  0  0
  185.7460  178.1250  148.0140 O   0  0  0  0  0  0  0  0  0  0  0  0
  186.0630  179.4880  147.9230 C   0  0  0  0  0  1  0  0  0  0  0  0
  188.2360  173.7380  141.6070 C   0  0  0  0  0  0  0  0  0  0  0  0
  189.5610  173.1200  141.2220 C   0  0  0  0  0  2  0  0  0  0  0  0
  187.3540  172.8090  142.1760 O   0  0  0  0  0  1  0  0  0  0  0  0
  188.5480  173.4990  140.1440 C   0  0  0  0  0  2  0  0  0  0  0  0
  1  4  1  0  0  0  0
  2  4  2  0  0  0  0
  2  7  1  0  0  0  0
  4  6  1  0  0  0  0
  5  3  1  0  0  0  0
  6  3  2  0  0  0  0
  7  5  2  0  0  0  0
  8  2  1  0  0  0  0
  9 11  1  0  0  0  0
 11  7  1  0  0  0  0
 11 10  2  0  0  0  0
 12 13  1  6  0  0  0
 12  9  1  0  0  0  0
 14 12  1  0  0  0  0
 15 14  1  0  0  0  0
 15 16  2  0  0  0  0
 17 15  1  0  0  0  0
 18 19  1  0  0  0  0
 18 17  1  0  0  0  0
 19 20  2  6  0  0  0
 19 21  1  0  0  0  0
 22 24  1  0  0  0  0
 24 23  1  0  0  0  0
 24 19  1  0  0  0  0
 25 24  2  0  0  0  0
 26  1  1  0  0  0  0
 27 31  1  6  0  0  0
 27 30  1  0  0  0  0
 27 26  1  0  0  0  0
 30 29  1  1  0  0  0
 30 28  1  0  0  0  0
 32 31  1  6  0  0  0
 33 34  1  0  0  0  0
 33 37  1  0  0  0  0
 34 32  1  1  0  0  0
 34 35  1  0  0  0  0
 36 35  1  0  0  0  0
 36 38  1  1  0  0  0
 37 36  1  0  0  0  0
 38 39  1  0  0  0  0
 39 40  1  0  0  0  0
 41 40  1  6  0  0  0
 41 44  1  0  0  0  0
 43 41  1  0  0  0  0
 43 42  2  0  0  0  0
 45 44  1  0  0  0  0
 46 48  1  0  0  0  0
 46 32  1  0  0  0  0
 47 46  1  0  0  0  0
 49 47  1  0  0  0  0
 49 46  1  0  0  0  0
M  END
>  <MODEL>
2

>  <REMARK>
 VINA RESULT:      -5.7      2.533      6.063
  Name = 
  21 active torsions:
  status: ('A' for Active; 'I' for Inactive)
    1  A    between atoms: N_2  and  C_35
    2  A    between atoms: P_3  and  C_14
    3  A    between atoms: P_3  and  P_41
    4  A    between atoms: C_4  and  C_31
    5  A    between atoms: C_4  and  C_34
    6  A    between atoms: C_4  and  C_45
    7  A    between atoms: O_5  and  C_22
    8  A    between atoms: C_9  and  C_17
    9  A    between atoms: C_11  and  C_17
   10  A    between atoms: C_12  and  C_26
   11  A    between atoms: C_12  and  C_42
   12  A    between atoms: C_14  and  N_33
   13  A    between atoms: C_15  and  S_29
   14  A    between atoms: C_17  and  C_45
   15  A    between atoms: C_22  and  C_32
   16  A    between atoms: C_22  and  C_39
   17  A    between atoms: C_25  and  C_44
   18  A    between atoms: C_26  and  C_32
   19  A    between atoms: S_29  and  C_31
   20  A    between atoms: C_35  and  C_44
   21  A    between atoms: C_40  and  C_46
                            x       y       z     vdW  Elec       q    Type
                         _______ _______ _______ _____ _____    ______ ____

>  <TORSDO>
F 21

$$$$
=
 OpenBabel11062420263D

 49 51  0  0  1  0  0  0  0  0999 V2000
  189.9270  174.2990  146.2340 S   0  0  0  0  0  0  0  0  0  0  0  0
  192.6630  174.4360  145.7720 C   0  0  0  0  0  0  0  0  0  0  0  0
  192.9190  176.7860  147.2290 C   0  0  0  0  0  3  0  0  0  0  0  0
  191.5500  175.0390  146.3840 C   0  0  0  0  0  0  0  0  0  0  0  0
  194.0500  176.2110  146.6530 C   0  0  0  0  0  3  0  0  0  0  0  0
  191.7030  176.2000  147.0760 N   0  0  0  0  0  0  0  0  0  0  0  0
  193.9330  175.0300  145.9060 C   0  0  0  0  0  0  0  0  0  0  0  0
  192.4960  173.2930  145.0500 F   0  0  0  0  0  0  0  0  0  0  0  0
  195.0290  174.0820  143.8490 N   0  0  0  0  0  2  0  0  0  0  0  0
  196.2000  174.3190  145.8600 O   0  0  0  0  0  0  0  0  0  0  0  0
  195.1240  174.4870  145.2240 C   0  0  0  0  0  0  0  0  0  0  0  0
  196.0820  173.4020  143.0960 C   0  0  1  0  0  3  0  0  0  0  0  0
  196.3010  171.9940  143.6210 C   0  0  0  0  0  1  0  0  0  0  0  0
  195.7770  173.3650  141.5990 C   0  0  0  0  0  2  0  0  0  0  0  0
  195.4060  174.7200  141.0760 C   0  0  0  0  0  0  0  0  0  0  0  0
  196.3050  175.5670  140.8270 O   0  0  0  0  0  0  0  0  0  0  0  0
  194.0480  175.0330  140.7680 N   0  0  0  0  0  2  0  0  0  0  0  0
  192.9860  174.0440  140.8510 C   0  0  0  0  0  2  0  0  0  0  0  0
  192.3990  173.6160  139.1830 P   0  0  1  0  0  0  0  0  0  0  0  0
  190.8860  173.6720  139.1590 O   0  0  0  0  0  1  0  0  0  0  0  0
  193.0240  174.7110  138.0530 O   0  0  0  0  0  0  0  0  0  0  0  0
  192.6550  171.3410  137.0500 O   0  0  0  0  0  0  0  0  0  0  0  0
  192.3080  170.6550  139.5520 O   0  0  0  0  0  1  0  0  0  0  0  0
  193.0220  171.6570  138.6740 P   0  0  0  0  0  0  0  0  0  0  0  0
  194.6950  171.5210  138.9130 O   0  0  0  0  0  1  0  0  0  0  0  0
  189.3520  175.5820  145.0770 C   0  0  0  0  0  2  0  0  0  0  0  0
  190.3800  175.8880  143.9830 C   0  0  2  0  0  3  0  0  0  0  0  0
  192.1050  177.5890  143.9130 O   0  0  0  0  0  1  0  0  0  0  0  0
  190.1020  178.0330  142.6740 C   0  0  0  0  0  1  0  0  0  0  0  0
  190.7260  177.3700  143.8920 C   0  0  1  0  0  3  0  0  0  0  0  0
  189.8390  175.4470  142.6310 C   0  0  0  0  0  2  0  0  0  0  0  0
  188.6620  174.4810  142.7730 C   0  0  1  0  0  3  0  0  0  0  0  0
  187.8740  175.8520  140.8160 C   0  0  0  0  0  2  0  0  0  0  0  0
  187.4570  175.0730  142.0260 C   0  0  2  0  0  3  0  0  0  0  0  0
  186.7440  175.9500  142.8370 O   0  0  0  0  0  0  0  0  0  0  0  0
  186.3030  176.9400  141.9490 C   0  0  2  0  0  3  0  0  0  0  0  0
  187.2000  177.0720  140.8700 O   0  0  0  0  0  0  0  0  0  0  0  0
  186.1840  178.2760  142.6660 C   0  0  0  0  0  2  0  0  0  0  0  0
  186.7740  178.2140  144.0670 C   0  0  0  0  0  2  0  0  0  0  0  0
  186.0890  179.2570  144.9420 C   0  0  0  0  0  2  0  0  0  0  0  0
  186.0210  178.8190  146.3990 C   0  0  1  0  0  3  0  0  0  0  0  0
  183.5680  178.7110  146.0370 C   0  0  0  0  0  2  0  0  0  0  0  0
  184.6430  178.3020  146.7150 C   0  0  0  0  0  3  0  0  0  0  0  0
  186.9860  177.8350  146.6580 O   0  0  0  0  0  0  0  0  0  0  0  0
  186.3420  176.8680  147.4430 C   0  0  0  0  0  1  0  0  0  0  0  0
  188.9970  173.0390  142.3270 C   0  0  0  0  0  0  0  0  0  0  0  0
  189.0770  171.9870  143.4080 C   0  0  0  0  0  2  0  0  0  0  0  0
  188.4210  172.5540  141.1450 O   0  0  0  0  0  1  0  0  0  0  0  0
  190.3400  172.4290  142.6710 C   0  0  0  0  0  2  0  0  0  0  0  0
  1  4  1  0  0  0  0
  2  7  2  0  0  0  0
  2  4  1  0  0  0  0
  4  6  2  0  0  0  0
  5  3  2  0  0  0  0
  6  3  1  0  0  0  0
  7  5  1  0  0  0  0
  8  2  1  0  0  0  0
  9 11  1  0  0  0  0
 11 10  2  0  0  0  0
 11  7  1  0  0  0  0
 12 13  1  1  0  0  0
 12  9  1  0  0  0  0
 14 12  1  0  0  0  0
 15 14  1  0  0  0  0
 16 15  2  0  0  0  0
 17 18  1  0  0  0  0
 17 15  1  0  0  0  0
 19 21  2  6  0  0  0
 19 18  1  0  0  0  0
 20 19  1  0  0  0  0
 22 24  2  0  0  0  0
 24 25  1  0  0  0  0
 24 19  1  0  0  0  0
 24 23  1  0  0  0  0
 26  1  1  0  0  0  0
 27 31  1  6  0  0  0
 27 26  1  0  0  0  0
 30 29  1  6  0  0  0
 30 28  1  0  0  0  0
 30 27  1  0  0  0  0
 32 31  1  6  0  0  0
 33 37  1  0  0  0  0
 33 34  1  0  0  0  0
 34 32  1  1  0  0  0
 34 35  1  0  0  0  0
 36 38  1  1  0  0  0
 36 35  1  0  0  0  0
 37 36  1  0  0  0  0
 38 39  1  0  0  0  0
 39 40  1  0  0  0  0
 41 40  1  6  0  0  0
 41 44  1  0  0  0  0
 41 43  1  0  0  0  0
 42 43  2  0  0  0  0
 44 45  1  0  0  0  0
 46 49  1  0  0  0  0
 46 32  1  0  0  0  0
 46 47  1  0  0  0  0
 48 46  1  0  0  0  0
 49 47  1  0  0  0  0
M  END
>  <MODEL>
3

>  <REMARK>
 VINA RESULT:      -5.7      2.398      5.851
  Name = 
  21 active torsions:
  status: ('A' for Active; 'I' for Inactive)
    1  A    between atoms: N_2  and  C_35
    2  A    between atoms: P_3  and  C_14
    3  A    between atoms: P_3  and  P_41
    4  A    between atoms: C_4  and  C_31
    5  A    between atoms: C_4  and  C_34
    6  A    between atoms: C_4  and  C_45
    7  A    between atoms: O_5  and  C_22
    8  A    between atoms: C_9  and  C_17
    9  A    between atoms: C_11  and  C_17
   10  A    between atoms: C_12  and  C_26
   11  A    between atoms: C_12  and  C_42
   12  A    between atoms: C_14  and  N_33
   13  A    between atoms: C_15  and  S_29
   14  A    between atoms: C_17  and  C_45
   15  A    between atoms: C_22  and  C_32
   16  A    between atoms: C_22  and  C_39
   17  A    between atoms: C_25  and  C_44
   18  A    between atoms: C_26  and  C_32
   19  A    between atoms: S_29  and  C_31
   20  A    between atoms: C_35  and  C_44
   21  A    between atoms: C_40  and  C_46
                            x       y       z     vdW  Elec       q    Type
                         _______ _______ _______ _____ _____    ______ ____

>  <TORSDO>
F 21

$$$$
=
 OpenBabel11062420263D

 49 51  0  0  1  0  0  0  0  0999 V2000
  191.2600  177.7280  143.7070 S   0  0  0  0  0  0  0  0  0  0  0  0
  193.3960  175.9750  143.9860 C   0  0  0  0  0  0  0  0  0  0  0  0
  193.5490  176.3970  146.7270 C   0  0  0  0  0  3  0  0  0  0  0  0
  192.5130  176.8530  144.6390 C   0  0  0  0  0  0  0  0  0  0  0  0
  194.4330  175.5050  146.1210 C   0  0  0  0  0  3  0  0  0  0  0  0
  192.6240  177.0530  145.9800 N   0  0  0  0  0  0  0  0  0  0  0  0
  194.3730  175.2910  144.7370 C   0  0  0  0  0  0  0  0  0  0  0  0
  193.3040  175.8060  142.6370 F   0  0  0  0  0  0  0  0  0  0  0  0
  195.4090  173.0190  144.4280 N   0  0  0  0  0  2  0  0  0  0  0  0
  196.2410  174.9030  143.3210 O   0  0  0  0  0  0  0  0  0  0  0  0
  195.3770  174.4170  144.0990 C   0  0  0  0  0  0  0  0  0  0  0  0
  196.4300  172.0710  143.9830 C   0  0  1  0  0  3  0  0  0  0  0  0
  197.3740  171.7180  145.1190 C   0  0  0  0  0  1  0  0  0  0  0  0
  195.8110  170.8020  143.3980 C   0  0  0  0  0  2  0  0  0  0  0  0
  194.4250  170.5700  143.9210 C   0  0  0  0  0  0  0  0  0  0  0  0
  194.2540  170.2300  145.1210 O   0  0  0  0  0  0  0  0  0  0  0  0
  193.2870  170.8230  143.0980 N   0  0  0  0  0  2  0  0  0  0  0  0
  193.4030  171.3970  141.7680 C   0  0  0  0  0  2  0  0  0  0  0  0
  193.1650  170.1070  140.5080 P   0  0  1  0  0  0  0  0  0  0  0  0
  193.6490  170.6250  139.1690 O   0  0  0  0  0  0  0  0  0  0  0  0
  194.0420  168.7210  140.9280 O   0  0  0  0  0  1  0  0  0  0  0  0
  190.2510  170.9260  139.7130 O   0  0  0  0  0  1  0  0  0  0  0  0
  190.5670  169.2760  141.7210 O   0  0  0  0  0  1  0  0  0  0  0  0
  191.1120  169.6130  140.3520 P   0  0  0  0  0  0  0  0  0  0  0  0
  190.9350  168.2700  139.3320 O   0  0  0  0  0  0  0  0  0  0  0  0
  190.0090  177.5060  145.0110 C   0  0  0  0  0  2  0  0  0  0  0  0
  189.0100  176.3920  144.6810 C   0  0  2  0  0  3  0  0  0  0  0  0
  190.2810  174.5180  145.5450 O   0  0  0  0  0  1  0  0  0  0  0  0
  188.8540  175.6600  147.0960 C   0  0  0  0  0  1  0  0  0  0  0  0
  189.0800  175.2230  145.6570 C   0  0  1  0  0  3  0  0  0  0  0  0
  189.2830  175.8550  143.2830 C   0  0  0  0  0  2  0  0  0  0  0  0
  188.1710  174.9240  142.8000 C   0  0  1  0  0  3  0  0  0  0  0  0
  187.9050  176.7170  141.0550 C   0  0  0  0  0  2  0  0  0  0  0  0
  187.1930  175.7420  141.9420 C   0  0  2  0  0  3  0  0  0  0  0  0
  186.3280  176.4870  142.7370 O   0  0  0  0  0  0  0  0  0  0  0  0
  186.1360  177.6660  142.0060 C   0  0  2  0  0  3  0  0  0  0  0  0
  187.2670  177.9470  141.2140 O   0  0  0  0  0  0  0  0  0  0  0  0
  185.8810  178.8340  142.9450 C   0  0  0  0  0  2  0  0  0  0  0  0
  184.6770  178.5790  143.8420 C   0  0  0  0  0  2  0  0  0  0  0  0
  184.9710  179.1210  145.2350 C   0  0  0  0  0  2  0  0  0  0  0  0
  186.0180  178.2840  145.9590 C   0  0  1  0  0  3  0  0  0  0  0  0
  186.3590  179.8260  147.8730 C   0  0  0  0  0  2  0  0  0  0  0  0
  186.0140  178.6170  147.4270 C   0  0  0  0  0  3  0  0  0  0  0  0
  185.7710  176.9170  145.7640 O   0  0  0  0  0  0  0  0  0  0  0  0
  184.9360  176.5270  146.8210 C   0  0  0  0  0  1  0  0  0  0  0  0
  188.7000  173.6650  142.0740 C   0  0  0  0  0  0  0  0  0  0  0  0
  189.0310  172.4660  142.9310 C   0  0  0  0  0  2  0  0  0  0  0  0
  188.1210  173.3080  140.8480 O   0  0  0  0  0  1  0  0  0  0  0  0
  190.1460  173.2450  142.2360 C   0  0  0  0  0  2  0  0  0  0  0  0
  1  4  1  0  0  0  0
  1 26  1  0  0  0  0
  2  4  2  0  0  0  0
  2  7  1  0  0  0  0
  4  6  1  0  0  0  0
  5  3  1  0  0  0  0
  6  3  2  0  0  0  0
  7  5  2  0  0  0  0
  8  2  1  0  0  0  0
 10 11  2  0  0  0  0
 11  9  1  0  0  0  0
 11  7  1  0  0  0  0
 12  9  1  0  0  0  0
 12 13  1  1  0  0  0
 14 15  1  0  0  0  0
 14 12  1  0  0  0  0
 15 16  2  0  0  0  0
 17 15  1  0  0  0  0
 18 17  1  0  0  0  0
 19 20  2  6  0  0  0
 19 21  1  0  0  0  0
 19 18  1  0  0  0  0
 22 24  1  0  0  0  0
 24 19  1  0  0  0  0
 24 23  1  0  0  0  0
 25 24  2  0  0  0  0
 27 31  1  6  0  0  0
 27 26  1  0  0  0  0
 27 30  1  0  0  0  0
 28 30  1  0  0  0  0
 30 29  1  1  0  0  0
 32 31  1  6  0  0  0
 33 37  1  0  0  0  0
 33 34  1  0  0  0  0
 34 35  1  0  0  0  0
 34 32  1  1  0  0  0
 36 35  1  0  0  0  0
 36 38  1  1  0  0  0
 37 36  1  0  0  0  0
 38 39  1  0  0  0  0
 39 40  1  0  0  0  0
 41 40  1  6  0  0  0
 41 43  1  0  0  0  0
 43 42  2  0  0  0  0
 44 41  1  0  0  0  0
 44 45  1  0  0  0  0
 46 49  1  0  0  0  0
 46 32  1  0  0  0  0
 46 47  1  0  0  0  0
 48 46  1  0  0  0  0
 49 47  1  0  0  0  0
M  END
>  <MODEL>
4

>  <REMARK>
 VINA RESULT:      -5.6      2.915      6.138
  Name = 
  21 active torsions:
  status: ('A' for Active; 'I' for Inactive)
    1  A    between atoms: N_2  and  C_35
    2  A    between atoms: P_3  and  C_14
    3  A    between atoms: P_3  and  P_41
    4  A    between atoms: C_4  and  C_31
    5  A    between atoms: C_4  and  C_34
    6  A    between atoms: C_4  and  C_45
    7  A    between atoms: O_5  and  C_22
    8  A    between atoms: C_9  and  C_17
    9  A    between atoms: C_11  and  C_17
   10  A    between atoms: C_12  and  C_26
   11  A    between atoms: C_12  and  C_42
   12  A    between atoms: C_14  and  N_33
   13  A    between atoms: C_15  and  S_29
   14  A    between atoms: C_17  and  C_45
   15  A    between atoms: C_22  and  C_32
   16  A    between atoms: C_22  and  C_39
   17  A    between atoms: C_25  and  C_44
   18  A    between atoms: C_26  and  C_32
   19  A    between atoms: S_29  and  C_31
   20  A    between atoms: C_35  and  C_44
   21  A    between atoms: C_40  and  C_46
                            x       y       z     vdW  Elec       q    Type
                         _______ _______ _______ _____ _____    ______ ____

>  <TORSDO>
F 21

$$$$
=
 OpenBabel11062420263D

 49 51  0  0  1  0  0  0  0  0999 V2000
  190.0910  172.3240  144.5280 S   0  0  0  0  0  0  0  0  0  0  0  0
  190.4190  171.9550  141.7950 C   0  0  0  0  0  0  0  0  0  0  0  0
  188.2540  173.5860  141.1880 C   0  0  0  0  0  3  0  0  0  0  0  0
  189.6660  172.5760  142.8080 C   0  0  0  0  0  0  0  0  0  0  0  0
  188.9840  173.0030  140.1530 C   0  0  0  0  0  3  0  0  0  0  0  0
  188.6000  173.3540  142.4810 N   0  0  0  0  0  0  0  0  0  0  0  0
  190.0720  172.1700  140.4460 C   0  0  0  0  0  0  0  0  0  0  0  0
  191.4630  171.1480  142.1320 F   0  0  0  0  0  0  0  0  0  0  0  0
  191.2460  172.2520  138.2220 N   0  0  0  0  0  2  0  0  0  0  0  0
  190.9030  170.2320  139.3510 O   0  0  0  0  0  0  0  0  0  0  0  0
  190.7750  171.4860  139.3430 C   0  0  0  0  0  0  0  0  0  0  0  0
  191.8280  171.6910  137.0030 C   0  0  1  0  0  3  0  0  0  0  0  0
  190.7790  171.5590  135.9140 C   0  0  0  0  0  1  0  0  0  0  0  0
  193.0070  172.5240  136.5020 C   0  0  0  0  0  2  0  0  0  0  0  0
  194.2470  171.6940  136.3530 C   0  0  0  0  0  0  0  0  0  0  0  0
  194.1790  170.4400  136.4410 O   0  0  0  0  0  0  0  0  0  0  0  0
  195.4930  172.3040  136.0180 N   0  0  0  0  0  2  0  0  0  0  0  0
  195.6070  173.7210  135.7150 C   0  0  0  0  0  2  0  0  0  0  0  0
  196.6550  174.5430  136.9540 P   0  0  1  0  0  0  0  0  0  0  0  0
  197.9290  173.7450  137.1350 O   0  0  0  0  0  1  0  0  0  0  0  0
  197.0370  176.1100  136.4390 O   0  0  0  0  0  0  0  0  0  0  0  0
  196.4410  175.7260  139.8440 O   0  0  0  0  0  1  0  0  0  0  0  0
  195.6070  173.2770  139.4460 O   0  0  0  0  0  1  0  0  0  0  0  0
  195.6410  174.6470  138.8100 P   0  0  0  0  0  0  0  0  0  0  0  0
  194.0530  175.1840  138.5520 O   0  0  0  0  0  0  0  0  0  0  0  0
  189.8600  174.0830  144.9350 C   0  0  0  0  0  2  0  0  0  0  0  0
  190.9230  174.6030  145.9090 C   0  0  2  0  0  3  0  0  0  0  0  0
  190.4110  176.6400  147.1190 O   0  0  0  0  0  1  0  0  0  0  0  0
  188.8870  174.8090  147.3930 C   0  0  0  0  0  1  0  0  0  0  0  0
  190.3240  175.2460  147.1550 C   0  0  1  0  0  3  0  0  0  0  0  0
  191.7910  175.6430  145.2130 C   0  0  0  0  0  2  0  0  0  0  0  0
  191.9300  175.3640  143.7170 C   0  0  1  0  0  3  0  0  0  0  0  0
  191.4340  177.8280  143.8120 C   0  0  0  0  0  2  0  0  0  0  0  0
  191.4580  176.6070  142.9460 C   0  0  2  0  0  3  0  0  0  0  0  0
  190.1640  176.4370  142.4630 O   0  0  0  0  0  0  0  0  0  0  0  0
  189.6020  177.7160  142.5610 C   0  0  2  0  0  3  0  0  0  0  0  0
  190.1940  178.4380  143.6160 O   0  0  0  0  0  0  0  0  0  0  0  0
  188.1040  177.6170  142.8020 C   0  0  0  0  0  2  0  0  0  0  0  0
  187.7870  177.4110  144.2770 C   0  0  0  0  0  2  0  0  0  0  0  0
  186.6540  178.3470  144.6780 C   0  0  0  0  0  2  0  0  0  0  0  0
  185.4090  177.5810  145.1020 C   0  0  1  0  0  3  0  0  0  0  0  0
  185.1650  178.4500  147.4140 C   0  0  0  0  0  2  0  0  0  0  0  0
  185.3930  177.4180  146.5990 C   0  0  0  0  0  3  0  0  0  0  0  0
  184.2530  178.2470  144.6690 O   0  0  0  0  0  0  0  0  0  0  0  0
  184.4420  178.4840  143.3000 C   0  0  0  0  0  1  0  0  0  0  0  0
  193.3510  174.9080  143.3100 C   0  0  0  0  0  0  0  0  0  0  0  0
  193.4650  174.0290  142.0860 C   0  0  0  0  0  2  0  0  0  0  0  0
  194.4030  175.8290  143.4120 O   0  0  0  0  0  1  0  0  0  0  0  0
  193.7610  173.4590  143.4720 C   0  0  0  0  0  2  0  0  0  0  0  0
  1 26  1  0  0  0  0
  2  8  1  0  0  0  0
  2  4  1  0  0  0  0
  3  6  1  0  0  0  0
  4  1  1  0  0  0  0
  5  7  1  0  0  0  0
  5  3  2  0  0  0  0
  6  4  2  0  0  0  0
  7  2  2  0  0  0  0
  9 11  1  0  0  0  0
 11 10  2  0  0  0  0
 11  7  1  0  0  0  0
 12 13  1  6  0  0  0
 12  9  1  0  0  0  0
 14 12  1  0  0  0  0
 15 16  2  0  0  0  0
 15 14  1  0  0  0  0
 17 15  1  0  0  0  0
 18 17  1  0  0  0  0
 18 19  1  0  0  0  0
 19 21  2  6  0  0  0
 19 20  1  0  0  0  0
 19 24  1  0  0  0  0
 24 23  1  0  0  0  0
 24 22  1  0  0  0  0
 25 24  2  0  0  0  0
 27 26  1  6  0  0  0
 27 30  1  0  0  0  0
 28 30  1  0  0  0  0
 30 29  1  6  0  0  0
 31 27  1  0  0  0  0
 32 31  1  1  0  0  0
 34 32  1  1  0  0  0
 34 33  1  0  0  0  0
 35 36  1  0  0  0  0
 35 34  1  0  0  0  0
 36 38  1  1  0  0  0
 36 37  1  0  0  0  0
 37 33  1  0  0  0  0
 38 39  1  0  0  0  0
 39 40  1  0  0  0  0
 41 40  1  1  0  0  0
 41 43  1  0  0  0  0
 43 42  2  0  0  0  0
 44 41  1  0  0  0  0
 45 44  1  0  0  0  0
 46 48  1  0  0  0  0
 46 49  1  0  0  0  0
 46 32  1  0  0  0  0
 47 46  1  0  0  0  0
 47 49  1  0  0  0  0
M  END
>  <MODEL>
5

>  <REMARK>
 VINA RESULT:      -5.4      2.835      6.592
  Name = 
  21 active torsions:
  status: ('A' for Active; 'I' for Inactive)
    1  A    between atoms: N_2  and  C_35
    2  A    between atoms: P_3  and  C_14
    3  A    between atoms: P_3  and  P_41
    4  A    between atoms: C_4  and  C_31
    5  A    between atoms: C_4  and  C_34
    6  A    between atoms: C_4  and  C_45
    7  A    between atoms: O_5  and  C_22
    8  A    between atoms: C_9  and  C_17
    9  A    between atoms: C_11  and  C_17
   10  A    between atoms: C_12  and  C_26
   11  A    between atoms: C_12  and  C_42
   12  A    between atoms: C_14  and  N_33
   13  A    between atoms: C_15  and  S_29
   14  A    between atoms: C_17  and  C_45
   15  A    between atoms: C_22  and  C_32
   16  A    between atoms: C_22  and  C_39
   17  A    between atoms: C_25  and  C_44
   18  A    between atoms: C_26  and  C_32
   19  A    between atoms: S_29  and  C_31
   20  A    between atoms: C_35  and  C_44
   21  A    between atoms: C_40  and  C_46
                            x       y       z     vdW  Elec       q    Type
                         _______ _______ _______ _____ _____    ______ ____

>  <TORSDO>
F 21

$$$$
=
 OpenBabel11062420263D

 49 51  0  0  1  0  0  0  0  0999 V2000
  190.1360  172.5580  144.6940 S   0  0  0  0  0  0  0  0  0  0  0  0
  192.0180  173.1370  142.7340 C   0  0  0  0  0  0  0  0  0  0  0  0
  194.1070  172.1350  144.2660 C   0  0  0  0  0  3  0  0  0  0  0  0
  191.7920  172.6020  144.0150 C   0  0  0  0  0  0  0  0  0  0  0  0
  194.3710  172.6400  142.9940 C   0  0  0  0  0  3  0  0  0  0  0  0
  192.8370  172.1360  144.7500 N   0  0  0  0  0  0  0  0  0  0  0  0
  193.3270  173.1580  142.2150 C   0  0  0  0  0  0  0  0  0  0  0  0
  190.9710  173.6360  142.0190 F   0  0  0  0  0  0  0  0  0  0  0  0
  194.4450  173.0570  139.9630 N   0  0  0  0  0  2  0  0  0  0  0  0
  193.2560  174.9480  140.6540 O   0  0  0  0  0  0  0  0  0  0  0  0
  193.6390  173.7750  140.9100 C   0  0  0  0  0  0  0  0  0  0  0  0
  194.9460  173.5990  138.7000 C   0  0  1  0  0  3  0  0  0  0  0  0
  196.4630  173.5530  138.6540 C   0  0  0  0  0  1  0  0  0  0  0  0
  194.3600  172.8640  137.4950 C   0  0  0  0  0  2  0  0  0  0  0  0
  193.4370  173.7440  136.7060 C   0  0  0  0  0  0  0  0  0  0  0  0
  193.7450  174.9460  136.4890 O   0  0  0  0  0  0  0  0  0  0  0  0
  192.2530  173.2100  136.1140 N   0  0  0  0  0  2  0  0  0  0  0  0
  191.9330  171.7930  136.1620 C   0  0  0  0  0  2  0  0  0  0  0  0
  190.1700  171.5640  136.5460 P   0  0  1  0  0  0  0  0  0  0  0  0
  189.3710  171.6170  135.2610 O   0  0  0  0  0  0  0  0  0  0  0  0
  189.9340  170.0650  137.2970 O   0  0  0  0  0  1  0  0  0  0  0  0
  188.1710  172.5620  138.7360 O   0  0  0  0  0  1  0  0  0  0  0  0
  189.0930  174.3070  137.0170 O   0  0  0  0  0  0  0  0  0  0  0  0
  189.5000  173.1030  137.8360 P   0  0  0  0  0  0  0  0  0  0  0  0
  190.7570  173.5400  138.8880 O   0  0  0  0  0  1  0  0  0  0  0  0
  190.1090  174.3560  144.9780 C   0  0  0  0  0  2  0  0  0  0  0  0
  191.1060  174.7940  146.0560 C   0  0  2  0  0  3  0  0  0  0  0  0
  190.8030  176.2040  148.0030 O   0  0  0  0  0  1  0  0  0  0  0  0
  188.9450  174.8290  147.3690 C   0  0  0  0  0  1  0  0  0  0  0  0
  190.4570  174.9820  147.4230 C   0  0  1  0  0  3  0  0  0  0  0  0
  191.7500  176.1140  145.6550 C   0  0  0  0  0  2  0  0  0  0  0  0
  192.5180  175.9990  144.3390 C   0  0  1  0  0  3  0  0  0  0  0  0
  191.6400  178.3240  143.9470 C   0  0  0  0  0  2  0  0  0  0  0  0
  191.9030  176.9830  143.3310 C   0  0  2  0  0  3  0  0  0  0  0  0
  190.6820  176.5180  142.8540 O   0  0  0  0  0  0  0  0  0  0  0  0
  189.9230  177.6830  142.6900 C   0  0  2  0  0  3  0  0  0  0  0  0
  190.3340  178.6750  143.6030 O   0  0  0  0  0  0  0  0  0  0  0  0
  188.4480  177.3870  142.9040 C   0  0  0  0  0  2  0  0  0  0  0  0
  188.0000  177.7590  144.3110 C   0  0  0  0  0  2  0  0  0  0  0  0
  186.5310  178.1590  144.2760 C   0  0  0  0  0  2  0  0  0  0  0  0
  185.6940  177.3260  145.2380 C   0  0  1  0  0  3  0  0  0  0  0  0
  185.9140  177.4260  147.7080 C   0  0  0  0  0  2  0  0  0  0  0  0
  186.4480  177.1170  146.5240 C   0  0  0  0  0  3  0  0  0  0  0  0
  184.4640  177.9550  145.4860 O   0  0  0  0  0  0  0  0  0  0  0  0
  184.3650  178.9830  144.5380 C   0  0  0  0  0  1  0  0  0  0  0  0
  194.0450  176.1830  144.5030 C   0  0  0  0  0  0  0  0  0  0  0  0
  194.7080  175.4310  145.6340 C   0  0  0  0  0  2  0  0  0  0  0  0
  194.8400  176.2350  143.3500 O   0  0  0  0  0  1  0  0  0  0  0  0
  194.5950  176.9530  145.6860 C   0  0  0  0  0  2  0  0  0  0  0  0
  1 26  1  0  0  0  0
  2  4  1  0  0  0  0
  3  6  1  0  0  0  0
  4  1  1  0  0  0  0
  4  6  2  0  0  0  0
  5  3  2  0  0  0  0
  7  2  2  0  0  0  0
  7  5  1  0  0  0  0
  8  2  1  0  0  0  0
  9 11  1  0  0  0  0
 10 11  2  0  0  0  0
 11  7  1  0  0  0  0
 12 13  1  1  0  0  0
 12  9  1  0  0  0  0
 14 12  1  0  0  0  0
 15 14  1  0  0  0  0
 16 15  2  0  0  0  0
 17 18  1  0  0  0  0
 17 15  1  0  0  0  0
 18 19  1  0  0  0  0
 19 20  2  6  0  0  0
 19 21  1  0  0  0  0
 19 24  1  0  0  0  0
 23 24  2  0  0  0  0
 24 22  1  0  0  0  0
 24 25  1  0  0  0  0
 27 26  1  6  0  0  0
 27 30  1  0  0  0  0
 30 29  1  6  0  0  0
 30 28  1  0  0  0  0
 31 27  1  0  0  0  0
 32 46  1  0  0  0  0
 32 31  1  1  0  0  0
 34 33  1  0  0  0  0
 34 32  1  1  0  0  0
 35 34  1  0  0  0  0
 36 35  1  0  0  0  0
 36 38  1  1  0  0  0
 36 37  1  0  0  0  0
 37 33  1  0  0  0  0
 38 39  1  0  0  0  0
 40 39  1  0  0  0  0
 41 40  1  6  0  0  0
 41 44  1  0  0  0  0
 41 43  1  0  0  0  0
 43 42  2  0  0  0  0
 45 44  1  0  0  0  0
 46 47  1  0  0  0  0
 46 49  1  0  0  0  0
 47 49  1  0  0  0  0
 48 46  1  0  0  0  0
M  END
>  <MODEL>
6

>  <REMARK>
 VINA RESULT:      -5.3      2.363      5.984
  Name = 
  21 active torsions:
  status: ('A' for Active; 'I' for Inactive)
    1  A    between atoms: N_2  and  C_35
    2  A    between atoms: P_3  and  C_14
    3  A    between atoms: P_3  and  P_41
    4  A    between atoms: C_4  and  C_31
    5  A    between atoms: C_4  and  C_34
    6  A    between atoms: C_4  and  C_45
    7  A    between atoms: O_5  and  C_22
    8  A    between atoms: C_9  and  C_17
    9  A    between atoms: C_11  and  C_17
   10  A    between atoms: C_12  and  C_26
   11  A    between atoms: C_12  and  C_42
   12  A    between atoms: C_14  and  N_33
   13  A    between atoms: C_15  and  S_29
   14  A    between atoms: C_17  and  C_45
   15  A    between atoms: C_22  and  C_32
   16  A    between atoms: C_22  and  C_39
   17  A    between atoms: C_25  and  C_44
   18  A    between atoms: C_26  and  C_32
   19  A    between atoms: S_29  and  C_31
   20  A    between atoms: C_35  and  C_44
   21  A    between atoms: C_40  and  C_46
                            x       y       z     vdW  Elec       q    Type
                         _______ _______ _______ _____ _____    ______ ____

>  <TORSDO>
F 21

$$$$
=
 OpenBabel11062420263D

 49 51  0  0  1  0  0  0  0  0999 V2000
  189.1120  173.2310  142.7730 S   0  0  0  0  0  0  0  0  0  0  0  0
  191.8060  173.5670  142.1850 C   0  0  0  0  0  0  0  0  0  0  0  0
  192.5840  171.7070  144.0950 C   0  0  0  0  0  3  0  0  0  0  0  0
  190.8580  172.8960  142.9780 C   0  0  0  0  0  0  0  0  0  0  0  0
  193.5540  172.3370  143.3180 C   0  0  0  0  0  3  0  0  0  0  0  0
  191.2700  172.0040  143.9190 N   0  0  0  0  0  0  0  0  0  0  0  0
  193.1760  173.2860  142.3580 C   0  0  0  0  0  0  0  0  0  0  0  0
  191.3880  174.4860  141.2700 F   0  0  0  0  0  0  0  0  0  0  0  0
  195.5670  173.5100  141.6070 N   0  0  0  0  0  2  0  0  0  0  0  0
  193.9510  175.1000  141.0330 O   0  0  0  0  0  0  0  0  0  0  0  0
  194.2210  174.0120  141.6100 C   0  0  0  0  0  0  0  0  0  0  0  0
  196.7220  174.1970  141.0320 C   0  0  1  0  0  3  0  0  0  0  0  0
  197.9410  174.0480  141.9230 C   0  0  0  0  0  1  0  0  0  0  0  0
  197.0360  173.6980  139.6220 C   0  0  0  0  0  2  0  0  0  0  0  0
  196.4370  174.5880  138.5730 C   0  0  0  0  0  0  0  0  0  0  0  0
  197.0220  175.6530  138.2440 O   0  0  0  0  0  0  0  0  0  0  0  0
  195.2570  174.1940  137.8740 N   0  0  0  0  0  2  0  0  0  0  0  0
  194.6370  172.8940  138.0690 C   0  0  0  0  0  2  0  0  0  0  0  0
  193.4020  172.5900  136.7690 P   0  0  1  0  0  0  0  0  0  0  0  0
  193.0650  173.9000  136.0880 O   0  0  0  0  0  1  0  0  0  0  0  0
  194.0200  171.5030  135.6280 O   0  0  0  0  0  0  0  0  0  0  0  0
  190.9210  172.9210  138.6480 O   0  0  0  0  0  1  0  0  0  0  0  0
  191.9790  170.5390  138.4050 O   0  0  0  0  0  1  0  0  0  0  0  0
  191.6380  171.7830  137.6170 P   0  0  0  0  0  0  0  0  0  0  0  0
  190.5530  171.3800  136.3770 O   0  0  0  0  0  0  0  0  0  0  0  0
  189.1980  174.7580  143.7610 C   0  0  0  0  0  2  0  0  0  0  0  0
  188.1840  175.8110  143.3010 C   0  0  2  0  0  3  0  0  0  0  0  0
  187.7420  176.0350  140.9280 O   0  0  0  0  0  1  0  0  0  0  0  0
  188.5720  177.9790  142.0590 C   0  0  0  0  0  1  0  0  0  0  0  0
  188.5640  176.4600  141.9750 C   0  0  1  0  0  3  0  0  0  0  0  0
  188.0730  176.9100  144.3480 C   0  0  0  0  0  2  0  0  0  0  0  0
  187.1910  176.4920  145.5240 C   0  0  1  0  0  3  0  0  0  0  0  0
  189.0370  177.7150  146.7180 C   0  0  0  0  0  2  0  0  0  0  0  0
  188.0090  176.6290  146.8180 C   0  0  2  0  0  3  0  0  0  0  0  0
  188.6990  175.4550  147.1040 O   0  0  0  0  0  0  0  0  0  0  0  0
  189.8970  175.9030  147.6740 C   0  0  2  0  0  3  0  0  0  0  0  0
  190.2400  177.1730  147.1690 O   0  0  0  0  0  0  0  0  0  0  0  0
  191.0220  174.9260  147.3750 C   0  0  0  0  0  2  0  0  0  0  0  0
  191.4460  174.9900  145.9150 C   0  0  0  0  0  2  0  0  0  0  0  0
  192.9540  175.2020  145.8440 C   0  0  0  0  0  2  0  0  0  0  0  0
  193.3480  176.0820  144.6650 C   0  0  1  0  0  3  0  0  0  0  0  0
  192.0690  177.3510  142.9590 C   0  0  0  0  0  2  0  0  0  0  0  0
  192.1600  176.8850  144.2060 C   0  0  0  0  0  3  0  0  0  0  0  0
  194.4070  176.9300  145.0200 O   0  0  0  0  0  0  0  0  0  0  0  0
  194.4300  176.9430  146.4210 C   0  0  0  0  0  1  0  0  0  0  0  0
  185.8460  177.2530  145.5800 C   0  0  0  0  0  0  0  0  0  0  0  0
  185.2390  177.6720  144.2620 C   0  0  0  0  0  2  0  0  0  0  0  0
  184.8820  176.8390  146.5100 O   0  0  0  0  0  1  0  0  0  0  0  0
  185.7890  178.7240  145.2230 C   0  0  0  0  0  2  0  0  0  0  0  0
  1  4  1  0  0  0  0
  1 26  1  0  0  0  0
  2  7  2  0  0  0  0
  2  4  1  0  0  0  0
  4  6  2  0  0  0  0
  5  3  2  0  0  0  0
  6  3  1  0  0  0  0
  7  5  1  0  0  0  0
  8  2  1  0  0  0  0
  9 11  1  0  0  0  0
 10 11  2  0  0  0  0
 11  7  1  0  0  0  0
 12  9  1  0  0  0  0
 12 13  1  1  0  0  0
 14 12  1  0  0  0  0
 15 14  1  0  0  0  0
 16 15  2  0  0  0  0
 17 18  1  0  0  0  0
 17 15  1  0  0  0  0
 19 21  2  6  0  0  0
 19 24  1  0  0  0  0
 19 18  1  0  0  0  0
 20 19  1  0  0  0  0
 24 23  1  0  0  0  0
 24 22  1  0  0  0  0
 25 24  2  0  0  0  0
 27 26  1  1  0  0  0
 27 31  1  0  0  0  0
 28 30  1  0  0  0  0
 30 29  1  1  0  0  0
 30 27  1  0  0  0  0
 32 31  1  6  0  0  0
 32 46  1  0  0  0  0
 33 34  1  0  0  0  0
 33 37  1  0  0  0  0
 34 32  1  6  0  0  0
 34 35  1  0  0  0  0
 35 36  1  0  0  0  0
 36 38  1  6  0  0  0
 37 36  1  0  0  0  0
 39 38  1  0  0  0  0
 40 39  1  0  0  0  0
 41 43  1  1  0  0  0
 41 44  1  0  0  0  0
 41 40  1  0  0  0  0
 42 43  2  0  0  0  0
 44 45  1  0  0  0  0
 46 48  1  0  0  0  0
 47 49  1  0  0  0  0
 47 46  1  0  0  0  0
 49 46  1  0  0  0  0
M  END
>  <MODEL>
7

>  <REMARK>
 VINA RESULT:      -5.3      2.543      4.631
  Name = 
  21 active torsions:
  status: ('A' for Active; 'I' for Inactive)
    1  A    between atoms: N_2  and  C_35
    2  A    between atoms: P_3  and  C_14
    3  A    between atoms: P_3  and  P_41
    4  A    between atoms: C_4  and  C_31
    5  A    between atoms: C_4  and  C_34
    6  A    between atoms: C_4  and  C_45
    7  A    between atoms: O_5  and  C_22
    8  A    between atoms: C_9  and  C_17
    9  A    between atoms: C_11  and  C_17
   10  A    between atoms: C_12  and  C_26
   11  A    between atoms: C_12  and  C_42
   12  A    between atoms: C_14  and  N_33
   13  A    between atoms: C_15  and  S_29
   14  A    between atoms: C_17  and  C_45
   15  A    between atoms: C_22  and  C_32
   16  A    between atoms: C_22  and  C_39
   17  A    between atoms: C_25  and  C_44
   18  A    between atoms: C_26  and  C_32
   19  A    between atoms: S_29  and  C_31
   20  A    between atoms: C_35  and  C_44
   21  A    between atoms: C_40  and  C_46
                            x       y       z     vdW  Elec       q    Type
                         _______ _______ _______ _____ _____    ______ ____

>  <TORSDO>
F 21

$$$$
=
 OpenBabel11062420263D

 49 51  0  0  1  0  0  0  0  0999 V2000
  188.8360  175.3080  146.8020 S   0  0  0  0  0  0  0  0  0  0  0  0
  191.1940  174.1340  145.9220 C   0  0  0  0  0  0  0  0  0  0  0  0
  192.7520  176.1790  146.9720 C   0  0  0  0  0  3  0  0  0  0  0  0
  190.6120  175.2190  146.6010 C   0  0  0  0  0  0  0  0  0  0  0  0
  193.3700  175.1130  146.3210 C   0  0  0  0  0  3  0  0  0  0  0  0
  191.3990  176.2160  147.0880 N   0  0  0  0  0  0  0  0  0  0  0  0
  192.5950  174.0790  145.7780 C   0  0  0  0  0  0  0  0  0  0  0  0
  190.3970  173.1580  145.4050 F   0  0  0  0  0  0  0  0  0  0  0  0
  192.7040  172.5900  143.7530 N   0  0  0  0  0  2  0  0  0  0  0  0
  194.2660  172.4150  145.4850 O   0  0  0  0  0  0  0  0  0  0  0  0
  193.2580  173.0070  145.0110 C   0  0  0  0  0  0  0  0  0  0  0  0
  193.1720  171.4530  142.9610 C   0  0  1  0  0  3  0  0  0  0  0  0
  192.0930  170.3910  142.8460 C   0  0  0  0  0  1  0  0  0  0  0  0
  193.6390  171.8830  141.5700 C   0  0  0  0  0  2  0  0  0  0  0  0
  194.8300  171.0920  141.1170 C   0  0  0  0  0  0  0  0  0  0  0  0
  195.8930  171.1140  141.7910 O   0  0  0  0  0  0  0  0  0  0  0  0
  194.7430  170.2380  139.9780 N   0  0  0  0  0  2  0  0  0  0  0  0
  193.4950  170.0180  139.2650 C   0  0  0  0  0  2  0  0  0  0  0  0
  193.5570  170.8210  137.6350 P   0  0  1  0  0  0  0  0  0  0  0  0
  194.8270  171.6380  137.5310 O   0  0  0  0  0  1  0  0  0  0  0  0
  193.5380  169.6480  136.4130 O   0  0  0  0  0  0  0  0  0  0  0  0
  192.0740  173.0250  135.9810 O   0  0  0  0  0  0  0  0  0  0  0  0
  191.7900  173.0320  138.5830 O   0  0  0  0  0  1  0  0  0  0  0  0
  191.8910  172.1060  137.3930 P   0  0  0  0  0  0  0  0  0  0  0  0
  190.4770  171.1760  137.2840 O   0  0  0  0  0  1  0  0  0  0  0  0
  188.8210  177.1230  146.6630 C   0  0  0  0  0  2  0  0  0  0  0  0
  187.4630  177.6630  146.2020 C   0  0  2  0  0  3  0  0  0  0  0  0
  186.1890  178.3550  148.1440 O   0  0  0  0  0  1  0  0  0  0  0  0
  185.0150  177.0950  146.4780 C   0  0  0  0  0  1  0  0  0  0  0  0
  186.3370  177.3530  147.1830 C   0  0  1  0  0  3  0  0  0  0  0  0
  187.0970  177.0530  144.8570 C   0  0  0  0  0  2  0  0  0  0  0  0
  187.3900  178.0050  143.6980 C   0  0  1  0  0  3  0  0  0  0  0  0
  188.4290  175.8220  143.0020 C   0  0  0  0  0  2  0  0  0  0  0  0
  188.3090  177.2850  142.6990 C   0  0  2  0  0  3  0  0  0  0  0  0
  189.5990  177.8050  142.7360 O   0  0  0  0  0  0  0  0  0  0  0  0
  190.4150  176.6900  142.5090 C   0  0  2  0  0  3  0  0  0  0  0  0
  189.7900  175.5170  142.9780 O   0  0  0  0  0  0  0  0  0  0  0  0
  191.7500  176.8610  143.2150 C   0  0  0  0  0  2  0  0  0  0  0  0
  192.7890  175.8770  142.6940 C   0  0  0  0  0  2  0  0  0  0  0  0
  194.1730  176.3340  143.1390 C   0  0  0  0  0  2  0  0  0  0  0  0
  195.2140  175.2360  142.9680 C   0  0  1  0  0  3  0  0  0  0  0  0
  196.1200  176.7930  141.2620 C   0  0  0  0  0  2  0  0  0  0  0  0
  196.1700  175.6040  141.8660 C   0  0  0  0  0  3  0  0  0  0  0  0
  195.9060  175.0270  144.1700 O   0  0  0  0  0  0  0  0  0  0  0  0
  196.9970  174.2090  143.8430 C   0  0  0  0  0  1  0  0  0  0  0  0
  186.1140  178.5760  143.0370 C   0  0  0  0  0  0  0  0  0  0  0  0
  185.0270  177.5890  142.6780 C   0  0  0  0  0  2  0  0  0  0  0  0
  185.6020  179.7920  143.5100 O   0  0  0  0  0  1  0  0  0  0  0  0
  185.8210  178.2910  141.5780 C   0  0  0  0  0  2  0  0  0  0  0  0
  2  4  1  0  0  0  0
  3  6  1  0  0  0  0
  4  1  1  0  0  0  0
  4  6  2  0  0  0  0
  5  3  2  0  0  0  0
  7  2  2  0  0  0  0
  7  5  1  0  0  0  0
  8  2  1  0  0  0  0
  9 11  1  0  0  0  0
 11 10  2  0  0  0  0
 11  7  1  0  0  0  0
 12 13  1  6  0  0  0
 12  9  1  0  0  0  0
 14 12  1  0  0  0  0
 15 14  1  0  0  0  0
 15 16  2  0  0  0  0
 17 15  1  0  0  0  0
 18 17  1  0  0  0  0
 19 21  2  6  0  0  0
 19 18  1  0  0  0  0
 20 19  1  0  0  0  0
 22 24  2  0  0  0  0
 24 19  1  0  0  0  0
 24 23  1  0  0  0  0
 25 24  1  0  0  0  0
 26  1  1  0  0  0  0
 27 31  1  6  0  0  0
 27 26  1  0  0  0  0
 27 30  1  0  0  0  0
 30 29  1  6  0  0  0
 30 28  1  0  0  0  0
 32 31  1  1  0  0  0
 34 35  1  0  0  0  0
 34 33  1  0  0  0  0
 34 32  1  1  0  0  0
 36 35  1  0  0  0  0
 36 37  1  0  0  0  0
 36 38  1  1  0  0  0
 37 33  1  0  0  0  0
 39 40  1  0  0  0  0
 39 38  1  0  0  0  0
 41 43  1  6  0  0  0
 41 40  1  0  0  0  0
 41 44  1  0  0  0  0
 42 43  2  0  0  0  0
 45 44  1  0  0  0  0
 46 48  1  0  0  0  0
 46 32  1  0  0  0  0
 47 46  1  0  0  0  0
 49 47  1  0  0  0  0
 49 46  1  0  0  0  0
M  END
>  <MODEL>
8

>  <REMARK>
 VINA RESULT:      -5.3      1.593      2.221
  Name = 
  21 active torsions:
  status: ('A' for Active; 'I' for Inactive)
    1  A    between atoms: N_2  and  C_35
    2  A    between atoms: P_3  and  C_14
    3  A    between atoms: P_3  and  P_41
    4  A    between atoms: C_4  and  C_31
    5  A    between atoms: C_4  and  C_34
    6  A    between atoms: C_4  and  C_45
    7  A    between atoms: O_5  and  C_22
    8  A    between atoms: C_9  and  C_17
    9  A    between atoms: C_11  and  C_17
   10  A    between atoms: C_12  and  C_26
   11  A    between atoms: C_12  and  C_42
   12  A    between atoms: C_14  and  N_33
   13  A    between atoms: C_15  and  S_29
   14  A    between atoms: C_17  and  C_45
   15  A    between atoms: C_22  and  C_32
   16  A    between atoms: C_22  and  C_39
   17  A    between atoms: C_25  and  C_44
   18  A    between atoms: C_26  and  C_32
   19  A    between atoms: S_29  and  C_31
   20  A    between atoms: C_35  and  C_44
   21  A    between atoms: C_40  and  C_46
                            x       y       z     vdW  Elec       q    Type
                         _______ _______ _______ _____ _____    ______ ____

>  <TORSDO>
F 21

$$$$
=
 OpenBabel11062420263D

 49 51  0  0  1  0  0  0  0  0999 V2000
  188.5740  175.2630  146.9890 S   0  0  0  0  0  0  0  0  0  0  0  0
  190.5870  173.9310  145.6150 C   0  0  0  0  0  0  0  0  0  0  0  0
  192.5840  175.4140  146.8510 C   0  0  0  0  0  3  0  0  0  0  0  0
  190.2780  174.9260  146.5600 C   0  0  0  0  0  0  0  0  0  0  0  0
  192.9340  174.4250  145.9330 C   0  0  0  0  0  3  0  0  0  0  0  0
  191.2770  175.6490  147.1350 N   0  0  0  0  0  0  0  0  0  0  0  0
  191.9360  173.6770  145.2940 C   0  0  0  0  0  0  0  0  0  0  0  0
  189.5810  173.2360  145.0160 F   0  0  0  0  0  0  0  0  0  0  0  0
  192.2440  173.0740  142.8710 N   0  0  0  0  0  2  0  0  0  0  0  0
  192.6480  171.5260  144.5780 O   0  0  0  0  0  0  0  0  0  0  0  0
  192.3190  172.7000  144.2560 C   0  0  0  0  0  0  0  0  0  0  0  0
  192.4560  172.1690  141.7410 C   0  0  1  0  0  3  0  0  0  0  0  0
  191.2330  172.1280  140.8430 C   0  0  0  0  0  1  0  0  0  0  0  0
  193.6930  172.5540  140.9310 C   0  0  0  0  0  2  0  0  0  0  0  0
  194.2790  171.3710  140.2190 C   0  0  0  0  0  0  0  0  0  0  0  0
  194.3170  170.2490  140.7910 O   0  0  0  0  0  0  0  0  0  0  0  0
  194.7080  171.4790  138.8630 N   0  0  0  0  0  2  0  0  0  0  0  0
  194.5180  172.6900  138.0830 C   0  0  0  0  0  2  0  0  0  0  0  0
  196.0680  173.6380  138.0130 P   0  0  1  0  0  0  0  0  0  0  0  0
  195.9730  174.8170  138.9580 O   0  0  0  0  0  1  0  0  0  0  0  0
  197.3680  172.6530  138.4690 O   0  0  0  0  0  0  0  0  0  0  0  0
  196.2860  176.0470  136.0280 O   0  0  0  0  0  1  0  0  0  0  0  0
  195.3520  173.7780  135.1190 O   0  0  0  0  0  0  0  0  0  0  0  0
  196.3940  174.3560  136.0480 P   0  0  0  0  0  0  0  0  0  0  0  0
  197.9360  173.8820  135.5260 O   0  0  0  0  0  1  0  0  0  0  0  0
  188.8270  177.0650  146.9510 C   0  0  0  0  0  2  0  0  0  0  0  0
  187.6570  177.8070  146.2970 C   0  0  2  0  0  3  0  0  0  0  0  0
  185.8760  179.0990  147.3140 O   0  0  0  0  0  1  0  0  0  0  0  0
  185.3350  176.8650  146.6350 C   0  0  0  0  0  1  0  0  0  0  0  0
  186.4010  177.8130  147.1610 C   0  0  1  0  0  3  0  0  0  0  0  0
  187.3110  177.1500  144.9680 C   0  0  0  0  0  2  0  0  0  0  0  0
  187.5000  178.1070  143.7910 C   0  0  1  0  0  3  0  0  0  0  0  0
  188.4830  175.9480  142.9530 C   0  0  0  0  0  2  0  0  0  0  0  0
  188.4210  177.4320  142.7610 C   0  0  2  0  0  3  0  0  0  0  0  0
  189.7260  177.9020  142.8700 O   0  0  0  0  0  0  0  0  0  0  0  0
  190.5090  176.7790  142.5780 C   0  0  2  0  0  3  0  0  0  0  0  0
  189.8330  175.5960  142.9390 O   0  0  0  0  0  0  0  0  0  0  0  0
  191.8300  176.8470  143.3270 C   0  0  0  0  0  2  0  0  0  0  0  0
  192.9750  176.2860  142.4950 C   0  0  0  0  0  2  0  0  0  0  0  0
  194.2110  176.1520  143.3770 C   0  0  0  0  0  2  0  0  0  0  0  0
  195.2840  175.2940  142.7210 C   0  0  1  0  0  3  0  0  0  0  0  0
  196.8260  177.0600  143.5360 C   0  0  0  0  0  2  0  0  0  0  0  0
  196.5970  176.0310  142.7170 C   0  0  0  0  0  3  0  0  0  0  0  0
  195.4110  174.0700  143.3950 O   0  0  0  0  0  0  0  0  0  0  0  0
  196.6620  173.5590  143.0220 C   0  0  0  0  0  1  0  0  0  0  0  0
  186.1660  178.5920  143.1770 C   0  0  0  0  0  0  0  0  0  0  0  0
  185.1350  177.5370  142.8540 C   0  0  0  0  0  2  0  0  0  0  0  0
  185.5930  179.7720  143.6720 O   0  0  0  0  0  1  0  0  0  0  0  0
  185.8410  178.2900  141.7290 C   0  0  0  0  0  2  0  0  0  0  0  0
  2  4  1  0  0  0  0
  3  6  1  0  0  0  0
  4  1  1  0  0  0  0
  4  6  2  0  0  0  0
  5  3  2  0  0  0  0
  7  2  2  0  0  0  0
  7  5  1  0  0  0  0
  8  2  1  0  0  0  0
  9 11  1  0  0  0  0
 11 10  2  0  0  0  0
 11  7  1  0  0  0  0
 12 13  1  6  0  0  0
 12  9  1  0  0  0  0
 14 12  1  0  0  0  0
 15 16  2  0  0  0  0
 15 14  1  0  0  0  0
 17 15  1  0  0  0  0
 18 17  1  0  0  0  0
 19 18  1  0  0  0  0
 19 21  2  1  0  0  0
 19 20  1  0  0  0  0
 22 24  1  0  0  0  0
 23 24  2  0  0  0  0
 24 19  1  0  0  0  0
 25 24  1  0  0  0  0
 26  1  1  0  0  0  0
 27 31  1  6  0  0  0
 27 26  1  0  0  0  0
 27 30  1  0  0  0  0
 30 29  1  6  0  0  0
 30 28  1  0  0  0  0
 32 31  1  1  0  0  0
 34 35  1  0  0  0  0
 34 33  1  0  0  0  0
 34 32  1  1  0  0  0
 36 35  1  0  0  0  0
 36 37  1  0  0  0  0
 36 38  1  1  0  0  0
 37 33  1  0  0  0  0
 39 38  1  0  0  0  0
 39 40  1  0  0  0  0
 41 43  1  1  0  0  0
 41 40  1  0  0  0  0
 41 44  1  0  0  0  0
 43 42  2  0  0  0  0
 45 44  1  0  0  0  0
 46 48  1  0  0  0  0
 46 32  1  0  0  0  0
 47 46  1  0  0  0  0
 49 47  1  0  0  0  0
 49 46  1  0  0  0  0
M  END
>  <MODEL>
9

>  <REMARK>
 VINA RESULT:      -5.3      2.162      2.666
  Name = 
  21 active torsions:
  status: ('A' for Active; 'I' for Inactive)
    1  A    between atoms: N_2  and  C_35
    2  A    between atoms: P_3  and  C_14
    3  A    between atoms: P_3  and  P_41
    4  A    between atoms: C_4  and  C_31
    5  A    between atoms: C_4  and  C_34
    6  A    between atoms: C_4  and  C_45
    7  A    between atoms: O_5  and  C_22
    8  A    between atoms: C_9  and  C_17
    9  A    between atoms: C_11  and  C_17
   10  A    between atoms: C_12  and  C_26
   11  A    between atoms: C_12  and  C_42
   12  A    between atoms: C_14  and  N_33
   13  A    between atoms: C_15  and  S_29
   14  A    between atoms: C_17  and  C_45
   15  A    between atoms: C_22  and  C_32
   16  A    between atoms: C_22  and  C_39
   17  A    between atoms: C_25  and  C_44
   18  A    between atoms: C_26  and  C_32
   19  A    between atoms: S_29  and  C_31
   20  A    between atoms: C_35  and  C_44
   21  A    between atoms: C_40  and  C_46
                            x       y       z     vdW  Elec       q    Type
                         _______ _______ _______ _____ _____    ______ ____

>  <TORSDO>
F 21

$$$$
