=
 OpenBabel11072409213D

 58 61  0  0  1  0  0  0  0  0999 V2000
  195.2710  171.9480  142.9350 C   0  0  2  0  0  3  0  0  0  0  0  0
  195.3500  170.4540  143.2740 C   0  0  0  0  0  2  0  0  0  0  0  0
  194.0030  169.8030  143.3700 C   0  0  0  0  0  0  0  0  0  0  0  0
  193.3640  169.5260  142.3180 O   0  0  0  0  0  0  0  0  0  0  0  0
  193.4370  169.5270  144.6510 N   0  0  0  0  0  2  0  0  0  0  0  0
  194.1680  169.3880  145.6540 O   0  0  0  0  0  1  0  0  0  0  0  0
  195.1890  172.1430  141.4280 C   0  0  0  0  0  2  0  0  0  0  0  0
  194.8050  173.5670  141.0520 C   0  0  0  0  0  2  0  0  0  0  0  0
  195.6060  174.0290  139.8410 C   0  0  1  0  0  3  0  0  0  0  0  0
  197.0810  173.8610  140.1390 C   0  0  0  0  0  1  0  0  0  0  0  0
  195.2690  173.2580  138.6890 O   0  0  0  0  0  0  0  0  0  0  0  0
  193.9910  173.2440  138.1180 C   0  0  0  0  0  0  0  0  0  0  0  0
  192.1450  171.9690  137.1920 C   0  0  0  0  0  3  0  0  0  0  0  0
  193.2490  174.4250  137.9460 C   0  0  0  0  0  3  0  0  0  0  0  0
  193.4390  172.0220  137.7200 C   0  0  0  0  0  3  0  0  0  0  0  0
  191.3880  173.1370  137.0590 C   0  0  0  0  0  0  0  0  0  0  0  0
  191.9550  174.3710  137.4250 C   0  0  0  0  0  3  0  0  0  0  0  0
  190.0760  173.0480  136.5820 O   0  0  0  0  0  0  0  0  0  0  0  0
  188.9590  172.8370  137.4380 C   0  0  2  0  0  3  0  0  0  0  0  0
  188.6730  173.0770  139.7380 N   0  0  1  0  0  0  0  0  0  0  0  0
  188.4860  174.3250  139.2200 O   0  0  0  0  0  0  0  0  0  0  0  0
  188.3530  174.1590  137.8260 C   0  0  0  0  0  2  0  0  0  0  0  0
  189.4080  172.2970  138.7550 C   0  0  0  0  0  2  0  0  0  0  0  0
  190.7850  172.4750  141.0870 C   0  0  2  0  0  3  0  0  0  0  0  0
  189.4170  172.9500  143.5110 C   0  0  0  0  0  2  0  0  0  0  0  0
  190.6700  173.5520  143.2880 O   0  0  0  0  0  0  0  0  0  0  0  0
  188.5410  173.0280  142.2510 C   0  0  0  0  0  2  0  0  0  0  0  0
  190.6930  170.9830  140.7980 C   0  0  0  0  0  1  0  0  0  0  0  0
  191.4070  172.6560  142.4870 C   0  0  0  0  0  2  0  0  0  0  0  0
  189.4170  173.1950  141.0030 C   0  0  2  0  0  3  0  0  0  0  0  0
  196.4270  172.7370  143.5520 C   0  0  0  0  0  2  0  0  0  0  0  0
  196.0050  173.3630  144.8760 C   0  0  1  0  0  3  0  0  0  0  0  0
  196.9130  172.8990  146.0060 C   0  0  0  0  0  2  0  0  0  0  0  0
  196.8420  171.4500  146.1380 N   0  0  0  0  0  1  0  0  0  0  0  0
  196.6990  175.5910  143.5300 S   0  0  0  0  0  0  0  0  0  0  0  0
  195.9380  174.8610  144.7750 C   0  0  0  0  0  0  0  0  0  0  0  0
  195.3000  175.6770  145.7630 N   0  0  0  0  0  2  0  0  0  0  0  0
  194.1540  176.5310  145.4930 C   0  0  0  0  0  2  0  0  0  0  0  0
  193.0710  175.7390  144.7870 C   0  0  2  0  0  3  0  0  0  0  0  0
  192.7500  176.3930  143.4540 C   0  0  0  0  0  1  0  0  0  0  0  0
  191.8330  175.7070  145.6720 C   0  0  0  0  0  2  0  0  0  0  0  0
  190.7760  176.7040  145.2070 C   0  0  0  0  0  2  0  0  0  0  0  0
  190.5480  177.1380  147.6330 C   0  0  0  0  0  1  0  0  0  0  0  0
  189.7960  177.0700  146.3190 C   0  0  2  0  0  3  0  0  0  0  0  0
  188.6550  176.0840  146.4350 C   0  0  0  0  0  0  0  0  0  0  0  0
  188.7860  175.0770  147.1180 O   0  0  0  0  0  0  0  0  0  0  0  0
  187.3100  176.3630  145.8020 C   0  0  1  0  0  3  0  0  0  0  0  0
  186.3360  176.9550  146.8270 C   0  0  2  0  0  3  0  0  0  0  0  0
  184.9370  177.0720  146.2560 C   0  0  0  0  0  2  0  0  0  0  0  0
  185.5780  178.8870  147.6380 C   0  0  0  0  0  2  0  0  0  0  0  0
  184.4260  178.3690  146.8090 C   0  0  0  0  0  2  0  0  0  0  0  0
  186.7480  178.2420  147.2160 O   0  0  0  0  0  0  0  0  0  0  0  0
  187.4290  177.2920  144.5950 C   0  0  0  0  0  2  0  0  0  0  0  0
  187.6340  176.5130  143.3100 C   0  0  0  0  0  2  0  0  0  0  0  0
  187.6100  177.4510  142.1130 C   0  0  0  0  0  2  0  0  0  0  0  0
  186.5820  178.5570  142.2880 C   0  0  0  0  0  2  0  0  0  0  0  0
  184.8180  178.2750  140.5780 C   0  0  0  0  0  1  0  0  0  0  0  0
  185.1740  178.0550  142.0320 C   0  0  0  0  0  2  0  0  0  0  0  0
  1  7  1  6  0  0  0
  1  2  1  0  0  0  0
  1 31  1  0  0  0  0
  2  3  1  0  0  0  0
  3  5  1  0  0  0  0
  4  3  2  0  0  0  0
  5  6  1  0  0  0  0
  8  7  1  0  0  0  0
  9 10  1  1  0  0  0
  9  8  1  0  0  0  0
 11  9  1  0  0  0  0
 12 11  1  0  0  0  0
 13 15  1  0  0  0  0
 14 12  1  0  0  0  0
 15 12  2  0  0  0  0
 16 13  2  0  0  0  0
 16 17  1  0  0  0  0
 17 14  2  0  0  0  0
 18 16  1  0  0  0  0
 19 18  1  6  0  0  0
 19 22  1  0  0  0  0
 19 23  1  0  0  0  0
 20 23  1  6  0  0  0
 20 30  1  0  0  0  0
 21 20  1  0  0  0  0
 22 21  1  0  0  0  0
 24 28  1  1  0  0  0
 24 29  1  0  0  0  0
 26 25  1  0  0  0  0
 27 25  1  0  0  0  0
 29 26  1  0  0  0  0
 30 24  1  0  0  0  0
 30 27  1  1  0  0  0
 32 31  1  6  0  0  0
 32 33  1  0  0  0  0
 33 34  1  0  0  0  0
 35 36  2  0  0  0  0
 36 32  1  0  0  0  0
 36 37  1  0  0  0  0
 38 37  1  0  0  0  0
 39 40  1  6  0  0  0
 39 38  1  0  0  0  0
 39 41  1  0  0  0  0
 42 41  1  0  0  0  0
 42 44  1  0  0  0  0
 44 45  1  0  0  0  0
 44 43  1  1  0  0  0
 45 46  2  0  0  0  0
 47 53  1  6  0  0  0
 47 45  1  0  0  0  0
 48 47  1  6  0  0  0
 48 52  1  0  0  0  0
 49 51  1  0  0  0  0
 49 48  1  0  0  0  0
 51 50  1  0  0  0  0
 52 50  1  0  0  0  0
 54 53  1  0  0  0  0
 55 56  1  0  0  0  0
 55 54  1  0  0  0  0
 57 58  1  0  0  0  0
 58 56  1  0  0  0  0
M  END
>  <MODEL>
1

>  <REMARK>
 VINA RESULT:      -5.6      0.000      0.000
  Name = 
  29 active torsions:
  status: ('A' for Active; 'I' for Inactive)
    1  A    between atoms: C_2  and  C_29
    2  A    between atoms: C_2  and  C_31
    3  A    between atoms: O_3  and  C_19
    4  A    between atoms: O_3  and  C_23
    5  A    between atoms: N_4  and  C_7
    6  A    between atoms: C_5  and  C_26
    7  A    between atoms: C_7  and  C_41
    8  A    between atoms: C_9  and  O_40
    9  A    between atoms: C_10  and  C_15
   10  A    between atoms: C_10  and  O_40
   11  A    between atoms: C_12  and  C_20
   12  A    between atoms: C_12  and  C_49
   13  A    between atoms: C_15  and  C_27
   14  A    between atoms: C_20  and  C_26
   15  A    between atoms: C_21  and  C_30
   16  A    between atoms: C_21  and  C_31
   17  A    between atoms: C_24  and  C_28
   18  A    between atoms: C_24  and  C_57
   19  A    between atoms: C_26  and  C_30
   20  A    between atoms: C_27  and  C_28
   21  A    between atoms: C_28  and  C_41
   22  A    between atoms: C_29  and  C_43
   23  A    between atoms: N_34  and  C_53
   24  A    between atoms: C_38  and  C_57
   25  A    between atoms: C_39  and  N_55
   26  A    between atoms: C_39  and  C_57
   27  A    between atoms: C_43  and  N_55
   28  A    between atoms: C_47  and  C_49
   29  A    between atoms: C_47  and  C_58
                            x       y       z     vdW  Elec       q    Type
                         _______ _______ _______ _____ _____    ______ ____

>  <TORSDO>
F 29

$$$$
=
 OpenBabel11072409213D

 58 61  0  0  1  0  0  0  0  0999 V2000
  195.5490  173.4760  145.0170 C   0  0  2  0  0  3  0  0  0  0  0  0
  194.8890  172.1610  145.4510 C   0  0  0  0  0  2  0  0  0  0  0  0
  195.8620  171.0240  145.5540 C   0  0  0  0  0  0  0  0  0  0  0  0
  196.8240  171.0950  146.3660 O   0  0  0  0  0  0  0  0  0  0  0  0
  195.7090  169.8810  144.7120 N   0  0  0  0  0  2  0  0  0  0  0  0
  196.6530  169.0810  144.5460 O   0  0  0  0  0  1  0  0  0  0  0  0
  194.4920  174.5480  144.7960 C   0  0  0  0  0  2  0  0  0  0  0  0
  193.4040  174.5130  145.8590 C   0  0  0  0  0  2  0  0  0  0  0  0
  193.3410  175.8450  146.5980 C   0  0  1  0  0  3  0  0  0  0  0  0
  194.3900  176.7720  146.0210 C   0  0  0  0  0  1  0  0  0  0  0  0
  192.0540  176.4420  146.4510 O   0  0  0  0  0  0  0  0  0  0  0  0
  191.2320  176.2400  145.3360 C   0  0  0  0  0  0  0  0  0  0  0  0
  190.7130  176.7470  143.0200 C   0  0  0  0  0  3  0  0  0  0  0  0
  190.1700  175.3200  145.3630 C   0  0  0  0  0  3  0  0  0  0  0  0
  191.4850  176.9640  144.1670 C   0  0  0  0  0  3  0  0  0  0  0  0
  189.6830  175.8030  143.0310 C   0  0  0  0  0  0  0  0  0  0  0  0
  189.4040  175.1000  144.2160 C   0  0  0  0  0  3  0  0  0  0  0  0
  188.9640  175.5660  141.8540 O   0  0  0  0  0  0  0  0  0  0  0  0
  187.7430  176.2310  141.5510 C   0  0  2  0  0  3  0  0  0  0  0  0
  186.1470  177.2740  142.8900 N   0  0  1  0  0  0  0  0  0  0  0  0
  187.1170  178.2130  142.6880 O   0  0  0  0  0  0  0  0  0  0  0  0
  187.9330  177.7210  141.6490 C   0  0  0  0  0  2  0  0  0  0  0  0
  186.7320  175.9710  142.6170 C   0  0  0  0  0  2  0  0  0  0  0  0
  184.5330  178.3850  144.5640 C   0  0  2  0  0  3  0  0  0  0  0  0
  186.2410  177.7170  146.7110 C   0  0  0  0  0  2  0  0  0  0  0  0
  184.8710  177.4000  146.7850 O   0  0  0  0  0  0  0  0  0  0  0  0
  186.8010  177.3940  145.3170 C   0  0  0  0  0  2  0  0  0  0  0  0
  184.8740  179.8060  144.1380 C   0  0  0  0  0  1  0  0  0  0  0  0
  184.1890  178.4040  146.0680 C   0  0  0  0  0  2  0  0  0  0  0  0
  185.6720  177.3750  144.2800 C   0  0  2  0  0  3  0  0  0  0  0  0
  196.4430  173.2910  143.7890 C   0  0  0  0  0  2  0  0  0  0  0  0
  196.0140  174.2280  142.6670 C   0  0  1  0  0  3  0  0  0  0  0  0
  197.0250  175.3510  142.4850 C   0  0  0  0  0  2  0  0  0  0  0  0
  196.3460  176.6390  142.5030 N   0  0  0  0  0  1  0  0  0  0  0  0
  195.4920  171.8670  141.4790 S   0  0  0  0  0  0  0  0  0  0  0  0
  195.7650  173.4730  141.3910 C   0  0  0  0  0  0  0  0  0  0  0  0
  195.8310  174.0880  140.1000 N   0  0  0  0  0  2  0  0  0  0  0  0
  194.6970  174.2000  139.1970 C   0  0  0  0  0  2  0  0  0  0  0  0
  195.1420  173.9520  137.7700 C   0  0  2  0  0  3  0  0  0  0  0  0
  195.1730  175.2670  137.0100 C   0  0  0  0  0  1  0  0  0  0  0  0
  194.1660  172.9850  137.1140 C   0  0  0  0  0  2  0  0  0  0  0  0
  193.7870  171.8400  138.0490 C   0  0  0  0  0  2  0  0  0  0  0  0
  193.1120  170.9760  135.8290 C   0  0  0  0  0  1  0  0  0  0  0  0
  193.0440  170.7210  137.3220 C   0  0  2  0  0  3  0  0  0  0  0  0
  191.5980  170.6080  137.7540 C   0  0  0  0  0  0  0  0  0  0  0  0
  191.0610  169.5100  137.8010 O   0  0  0  0  0  0  0  0  0  0  0  0
  190.8240  171.8180  138.2250 C   0  0  1  0  0  3  0  0  0  0  0  0
  189.9410  172.3730  137.1020 C   0  0  2  0  0  3  0  0  0  0  0  0
  189.4640  171.2710  136.1780 C   0  0  0  0  0  2  0  0  0  0  0  0
  190.0250  173.2910  135.0730 C   0  0  0  0  0  2  0  0  0  0  0  0
  189.5150  171.8930  134.8140 C   0  0  0  0  0  2  0  0  0  0  0  0
  190.6530  173.3040  136.3250 O   0  0  0  0  0  0  0  0  0  0  0  0
  189.9720  171.5080  139.4540 C   0  0  0  0  0  2  0  0  0  0  0  0
  190.2100  172.5140  140.5660 C   0  0  0  0  0  2  0  0  0  0  0  0
  191.6890  172.5780  140.9130 C   0  0  0  0  0  2  0  0  0  0  0  0
  191.9120  173.0900  142.3260 C   0  0  0  0  0  2  0  0  0  0  0  0
  190.9450  171.8420  144.2290 C   0  0  0  0  0  1  0  0  0  0  0  0
  192.1370  171.9520  143.3030 C   0  0  0  0  0  2  0  0  0  0  0  0
  1 31  1  6  0  0  0
  1  2  1  0  0  0  0
  2  3  1  0  0  0  0
  3  4  2  0  0  0  0
  5  3  1  0  0  0  0
  6  5  1  0  0  0  0
  7  1  1  0  0  0  0
  7  8  1  0  0  0  0
  8  9  1  0  0  0  0
  9 10  1  6  0  0  0
 11  9  1  0  0  0  0
 12 14  1  0  0  0  0
 12 11  1  0  0  0  0
 13 16  2  0  0  0  0
 13 15  1  0  0  0  0
 15 12  2  0  0  0  0
 16 17  1  0  0  0  0
 17 14  2  0  0  0  0
 18 16  1  0  0  0  0
 19 22  1  0  0  0  0
 19 18  1  1  0  0  0
 19 23  1  0  0  0  0
 20 23  1  1  0  0  0
 20 30  1  0  0  0  0
 21 20  1  0  0  0  0
 22 21  1  0  0  0  0
 24 28  1  1  0  0  0
 24 29  1  0  0  0  0
 25 26  1  0  0  0  0
 27 25  1  0  0  0  0
 29 26  1  0  0  0  0
 30 24  1  0  0  0  0
 30 27  1  1  0  0  0
 32 33  1  6  0  0  0
 32 31  1  0  0  0  0
 33 34  1  0  0  0  0
 36 35  2  0  0  0  0
 36 32  1  0  0  0  0
 37 36  1  0  0  0  0
 38 37  1  0  0  0  0
 39 40  1  6  0  0  0
 39 38  1  0  0  0  0
 41 39  1  0  0  0  0
 41 42  1  0  0  0  0
 44 43  1  6  0  0  0
 44 45  1  0  0  0  0
 44 42  1  0  0  0  0
 45 46  2  0  0  0  0
 45 47  1  0  0  0  0
 47 53  1  1  0  0  0
 48 47  1  1  0  0  0
 49 48  1  0  0  0  0
 50 52  1  0  0  0  0
 51 50  1  0  0  0  0
 51 49  1  0  0  0  0
 52 48  1  0  0  0  0
 53 54  1  0  0  0  0
 54 55  1  0  0  0  0
 55 56  1  0  0  0  0
 56 58  1  0  0  0  0
 58 57  1  0  0  0  0
M  END
>  <MODEL>
2

>  <REMARK>
 VINA RESULT:      -5.5      2.285      7.954
  Name = 
  29 active torsions:
  status: ('A' for Active; 'I' for Inactive)
    1  A    between atoms: C_2  and  C_29
    2  A    between atoms: C_2  and  C_31
    3  A    between atoms: O_3  and  C_19
    4  A    between atoms: O_3  and  C_23
    5  A    between atoms: N_4  and  C_7
    6  A    between atoms: C_5  and  C_26
    7  A    between atoms: C_7  and  C_41
    8  A    between atoms: C_9  and  O_40
    9  A    between atoms: C_10  and  C_15
   10  A    between atoms: C_10  and  O_40
   11  A    between atoms: C_12  and  C_20
   12  A    between atoms: C_12  and  C_49
   13  A    between atoms: C_15  and  C_27
   14  A    between atoms: C_20  and  C_26
   15  A    between atoms: C_21  and  C_30
   16  A    between atoms: C_21  and  C_31
   17  A    between atoms: C_24  and  C_28
   18  A    between atoms: C_24  and  C_57
   19  A    between atoms: C_26  and  C_30
   20  A    between atoms: C_27  and  C_28
   21  A    between atoms: C_28  and  C_41
   22  A    between atoms: C_29  and  C_43
   23  A    between atoms: N_34  and  C_53
   24  A    between atoms: C_38  and  C_57
   25  A    between atoms: C_39  and  N_55
   26  A    between atoms: C_39  and  C_57
   27  A    between atoms: C_43  and  N_55
   28  A    between atoms: C_47  and  C_49
   29  A    between atoms: C_47  and  C_58
                            x       y       z     vdW  Elec       q    Type
                         _______ _______ _______ _____ _____    ______ ____

>  <TORSDO>
F 29

$$$$
=
 OpenBabel11072409213D

 58 61  0  0  1  0  0  0  0  0999 V2000
  192.7570  171.6680  138.7500 C   0  0  2  0  0  3  0  0  0  0  0  0
  191.4850  171.1860  138.0420 C   0  0  0  0  0  2  0  0  0  0  0  0
  191.5030  169.7180  137.7380 C   0  0  0  0  0  0  0  0  0  0  0  0
  191.7110  169.3260  136.5580 O   0  0  0  0  0  0  0  0  0  0  0  0
  191.2550  168.7740  138.7790 N   0  0  0  0  0  2  0  0  0  0  0  0
  190.1450  168.7300  139.3490 O   0  0  0  0  0  1  0  0  0  0  0  0
  192.3970  172.4880  139.9800 C   0  0  0  0  0  2  0  0  0  0  0  0
  192.6670  171.7350  141.2750 C   0  0  0  0  0  2  0  0  0  0  0  0
  191.4100  171.0090  141.7380 C   0  0  1  0  0  3  0  0  0  0  0  0
  191.8160  169.7340  142.4460 C   0  0  0  0  0  1  0  0  0  0  0  0
  190.6580  171.8250  142.6350 O   0  0  0  0  0  0  0  0  0  0  0  0
  189.9260  172.9470  142.2270 C   0  0  0  0  0  0  0  0  0  0  0  0
  189.5260  175.3350  142.3870 C   0  0  0  0  0  3  0  0  0  0  0  0
  188.9280  172.8550  141.2420 C   0  0  0  0  0  3  0  0  0  0  0  0
  190.2050  174.1880  142.8080 C   0  0  0  0  0  3  0  0  0  0  0  0
  188.5620  175.2540  141.3770 C   0  0  0  0  0  0  0  0  0  0  0  0
  188.2540  174.0020  140.8170 C   0  0  0  0  0  3  0  0  0  0  0  0
  187.9390  176.4260  140.9350 O   0  0  0  0  0  0  0  0  0  0  0  0
  186.6690  176.8510  141.4170 C   0  0  2  0  0  3  0  0  0  0  0  0
  185.8700  177.2970  143.5600 N   0  0  1  0  0  0  0  0  0  0  0  0
  186.4960  178.4430  143.1630 O   0  0  0  0  0  0  0  0  0  0  0  0
  186.7200  178.3120  141.7770 C   0  0  0  0  0  2  0  0  0  0  0  0
  186.3720  176.2120  142.7320 C   0  0  0  0  0  2  0  0  0  0  0  0
  184.9940  177.2960  145.9840 C   0  0  2  0  0  3  0  0  0  0  0  0
  187.6260  177.5650  146.9730 C   0  0  0  0  0  2  0  0  0  0  0  0
  186.7870  176.5580  147.4870 O   0  0  0  0  0  0  0  0  0  0  0  0
  187.5000  177.6520  145.4440 C   0  0  0  0  0  2  0  0  0  0  0  0
  184.3960  178.6930  145.8980 C   0  0  0  0  0  1  0  0  0  0  0  0
  185.4730  177.0660  147.4320 C   0  0  0  0  0  2  0  0  0  0  0  0
  186.1570  177.0700  144.9860 C   0  0  2  0  0  3  0  0  0  0  0  0
  193.6850  172.4320  137.8040 C   0  0  0  0  0  2  0  0  0  0  0  0
  194.6200  171.4730  137.0770 C   0  0  1  0  0  3  0  0  0  0  0  0
  194.5980  171.7310  135.5780 C   0  0  0  0  0  2  0  0  0  0  0  0
  194.5590  173.1650  135.3210 N   0  0  0  0  0  1  0  0  0  0  0  0
  197.2700  171.2500  136.6490 S   0  0  0  0  0  0  0  0  0  0  0  0
  196.0100  171.5290  137.6460 C   0  0  0  0  0  0  0  0  0  0  0  0
  196.2700  171.7430  139.0380 N   0  0  0  0  0  2  0  0  0  0  0  0
  197.5840  171.6090  139.6470 C   0  0  0  0  0  2  0  0  0  0  0  0
  197.4440  171.2080  141.1010 C   0  0  2  0  0  3  0  0  0  0  0  0
  196.1190  170.4930  141.3060 C   0  0  0  0  0  1  0  0  0  0  0  0
  197.5070  172.4620  141.9620 C   0  0  0  0  0  2  0  0  0  0  0  0
  196.4060  172.4820  143.0190 C   0  0  0  0  0  2  0  0  0  0  0  0
  196.5680  173.7330  145.1480 C   0  0  0  0  0  1  0  0  0  0  0  0
  196.2550  173.8550  143.6710 C   0  0  2  0  0  3  0  0  0  0  0  0
  194.8700  174.4350  143.4890 C   0  0  0  0  0  0  0  0  0  0  0  0
  193.8860  173.7330  143.6790 O   0  0  0  0  0  0  0  0  0  0  0  0
  194.6690  175.8990  143.1710 C   0  0  1  0  0  3  0  0  0  0  0  0
  195.1820  176.2280  141.7640 C   0  0  2  0  0  3  0  0  0  0  0  0
  194.5960  175.2880  140.7300 C   0  0  0  0  0  2  0  0  0  0  0  0
  196.8690  175.8460  140.3600 C   0  0  0  0  0  2  0  0  0  0  0  0
  195.7310  175.0380  139.7820 C   0  0  0  0  0  2  0  0  0  0  0  0
  196.5810  176.1100  141.7060 O   0  0  0  0  0  0  0  0  0  0  0  0
  193.2070  176.3180  143.3060 C   0  0  0  0  0  2  0  0  0  0  0  0
  192.9350  176.9700  144.6490 C   0  0  0  0  0  2  0  0  0  0  0  0
  191.4420  177.1930  144.8350 C   0  0  0  0  0  2  0  0  0  0  0  0
  190.8460  176.2010  145.8210 C   0  0  0  0  0  2  0  0  0  0  0  0
  191.2790  175.3620  148.1060 C   0  0  0  0  0  1  0  0  0  0  0  0
  191.9000  175.6380  146.7540 C   0  0  0  0  0  2  0  0  0  0  0  0
  1 31  1  6  0  0  0
  1  7  1  0  0  0  0
  2  1  1  0  0  0  0
  3  2  1  0  0  0  0
  3  5  1  0  0  0  0
  4  3  2  0  0  0  0
  5  6  1  0  0  0  0
  7  8  1  0  0  0  0
  8  9  1  0  0  0  0
  9 10  1  1  0  0  0
  9 11  1  0  0  0  0
 12 11  1  0  0  0  0
 12 15  1  0  0  0  0
 13 15  2  0  0  0  0
 14 12  2  0  0  0  0
 16 13  1  0  0  0  0
 17 14  1  0  0  0  0
 17 16  2  0  0  0  0
 18 16  1  0  0  0  0
 19 18  1  1  0  0  0
 19 22  1  0  0  0  0
 19 23  1  0  0  0  0
 20 23  1  6  0  0  0
 20 30  1  0  0  0  0
 21 20  1  0  0  0  0
 22 21  1  0  0  0  0
 24 28  1  1  0  0  0
 24 29  1  0  0  0  0
 25 26  1  0  0  0  0
 27 25  1  0  0  0  0
 29 26  1  0  0  0  0
 30 27  1  1  0  0  0
 30 24  1  0  0  0  0
 32 33  1  6  0  0  0
 32 36  1  0  0  0  0
 32 31  1  0  0  0  0
 34 33  1  0  0  0  0
 35 36  2  0  0  0  0
 36 37  1  0  0  0  0
 37 38  1  0  0  0  0
 38 39  1  0  0  0  0
 39 40  1  6  0  0  0
 39 41  1  0  0  0  0
 41 42  1  0  0  0  0
 42 44  1  0  0  0  0
 44 43  1  1  0  0  0
 45 44  1  0  0  0  0
 45 46  2  0  0  0  0
 47 53  1  6  0  0  0
 47 45  1  0  0  0  0
 48 47  1  1  0  0  0
 49 48  1  0  0  0  0
 50 52  1  0  0  0  0
 51 50  1  0  0  0  0
 51 49  1  0  0  0  0
 52 48  1  0  0  0  0
 53 54  1  0  0  0  0
 54 55  1  0  0  0  0
 55 56  1  0  0  0  0
 56 58  1  0  0  0  0
 58 57  1  0  0  0  0
M  END
>  <MODEL>
3

>  <REMARK>
 VINA RESULT:      -5.3      2.790      7.630
  Name = 
  29 active torsions:
  status: ('A' for Active; 'I' for Inactive)
    1  A    between atoms: C_2  and  C_29
    2  A    between atoms: C_2  and  C_31
    3  A    between atoms: O_3  and  C_19
    4  A    between atoms: O_3  and  C_23
    5  A    between atoms: N_4  and  C_7
    6  A    between atoms: C_5  and  C_26
    7  A    between atoms: C_7  and  C_41
    8  A    between atoms: C_9  and  O_40
    9  A    between atoms: C_10  and  C_15
   10  A    between atoms: C_10  and  O_40
   11  A    between atoms: C_12  and  C_20
   12  A    between atoms: C_12  and  C_49
   13  A    between atoms: C_15  and  C_27
   14  A    between atoms: C_20  and  C_26
   15  A    between atoms: C_21  and  C_30
   16  A    between atoms: C_21  and  C_31
   17  A    between atoms: C_24  and  C_28
   18  A    between atoms: C_24  and  C_57
   19  A    between atoms: C_26  and  C_30
   20  A    between atoms: C_27  and  C_28
   21  A    between atoms: C_28  and  C_41
   22  A    between atoms: C_29  and  C_43
   23  A    between atoms: N_34  and  C_53
   24  A    between atoms: C_38  and  C_57
   25  A    between atoms: C_39  and  N_55
   26  A    between atoms: C_39  and  C_57
   27  A    between atoms: C_43  and  N_55
   28  A    between atoms: C_47  and  C_49
   29  A    between atoms: C_47  and  C_58
                            x       y       z     vdW  Elec       q    Type
                         _______ _______ _______ _____ _____    ______ ____

>  <TORSDO>
F 29

$$$$
=
 OpenBabel11072409213D

 58 61  0  0  1  0  0  0  0  0999 V2000
  185.8740  178.0720  142.5550 C   0  0  2  0  0  3  0  0  0  0  0  0
  184.8090  177.6290  141.5450 C   0  0  0  0  0  2  0  0  0  0  0  0
  183.4420  178.1560  141.8650 C   0  0  0  0  0  0  0  0  0  0  0  0
  183.2420  178.7610  142.9530 O   0  0  0  0  0  0  0  0  0  0  0  0
  182.3670  177.9430  140.9500 N   0  0  0  0  0  2  0  0  0  0  0  0
  181.1820  177.9590  141.3430 O   0  0  0  0  0  1  0  0  0  0  0  0
  187.2600  177.9850  141.9330 C   0  0  0  0  0  2  0  0  0  0  0  0
  187.7810  176.5560  141.8860 C   0  0  0  0  0  2  0  0  0  0  0  0
  189.2860  176.5330  142.1280 C   0  0  1  0  0  3  0  0  0  0  0  0
  189.6740  177.7710  142.9080 C   0  0  0  0  0  1  0  0  0  0  0  0
  189.6590  175.3740  142.8720 O   0  0  0  0  0  0  0  0  0  0  0  0
  190.0800  174.1790  142.2770 C   0  0  0  0  0  0  0  0  0  0  0  0
  189.6910  171.8210  141.8520 C   0  0  0  0  0  3  0  0  0  0  0  0
  191.2360  174.1220  141.4800 C   0  0  0  0  0  3  0  0  0  0  0  0
  189.3240  173.0190  142.4740 C   0  0  0  0  0  3  0  0  0  0  0  0
  190.8170  171.7710  141.0250 C   0  0  0  0  0  0  0  0  0  0  0  0
  191.5990  172.9270  140.8550 C   0  0  0  0  0  3  0  0  0  0  0  0
  191.1290  170.5750  140.3710 O   0  0  0  0  0  0  0  0  0  0  0  0
  190.8950  170.3740  138.9810 C   0  0  2  0  0  3  0  0  0  0  0  0
  189.9330  171.7190  137.3390 N   0  0  1  0  0  0  0  0  0  0  0  0
  191.2340  172.1240  137.4210 O   0  0  0  0  0  0  0  0  0  0  0  0
  191.9080  171.1420  138.1750 C   0  0  0  0  0  2  0  0  0  0  0  0
  189.6130  171.0190  138.5730 C   0  0  0  0  0  2  0  0  0  0  0  0
  189.4770  173.8860  136.0200 C   0  0  2  0  0  3  0  0  0  0  0  0
  187.9720  174.9230  138.1730 C   0  0  0  0  0  2  0  0  0  0  0  0
  187.4290  174.9330  136.8740 O   0  0  0  0  0  0  0  0  0  0  0  0
  188.6730  173.5860  138.4610 C   0  0  0  0  0  2  0  0  0  0  0  0
  190.8970  174.4160  136.1610 C   0  0  0  0  0  1  0  0  0  0  0  0
  188.5150  175.0910  135.9880 C   0  0  0  0  0  2  0  0  0  0  0  0
  189.0800  172.9030  137.1490 C   0  0  2  0  0  3  0  0  0  0  0  0
  185.7840  177.2860  143.8650 C   0  0  0  0  0  2  0  0  0  0  0  0
  186.4730  178.0420  144.9940 C   0  0  1  0  0  3  0  0  0  0  0  0
  185.5600  179.1220  145.5560 C   0  0  0  0  0  2  0  0  0  0  0  0
  185.5670  180.2840  144.6780 N   0  0  0  0  0  1  0  0  0  0  0  0
  186.2210  177.1070  147.5090 S   0  0  0  0  0  0  0  0  0  0  0  0
  186.9670  177.1010  146.0580 C   0  0  0  0  0  0  0  0  0  0  0  0
  188.1090  176.2580  145.8770 N   0  0  0  0  0  2  0  0  0  0  0  0
  189.4780  176.6830  146.1270 C   0  0  0  0  0  2  0  0  0  0  0  0
  190.2070  175.6320  146.9410 C   0  0  2  0  0  3  0  0  0  0  0  0
  191.3920  176.2700  147.6480 C   0  0  0  0  0  1  0  0  0  0  0  0
  190.6810  174.5300  146.0050 C   0  0  0  0  0  2  0  0  0  0  0  0
  192.0100  174.8800  145.3420 C   0  0  0  0  0  2  0  0  0  0  0  0
  194.4320  174.6310  145.7890 C   0  0  0  0  0  1  0  0  0  0  0  0
  193.1150  173.8880  145.7010 C   0  0  2  0  0  3  0  0  0  0  0  0
  193.2310  172.7600  144.6990 C   0  0  0  0  0  0  0  0  0  0  0  0
  192.2220  172.2100  144.2820 O   0  0  0  0  0  0  0  0  0  0  0  0
  194.5710  172.3590  144.1240 C   0  0  1  0  0  3  0  0  0  0  0  0
  194.9230  170.9190  144.5150 C   0  0  2  0  0  3  0  0  0  0  0  0
  194.7120  170.6810  145.9960 C   0  0  0  0  0  2  0  0  0  0  0  0
  196.6280  169.6100  145.1030 C   0  0  0  0  0  2  0  0  0  0  0  0
  195.8570  169.7950  146.3890 C   0  0  0  0  0  2  0  0  0  0  0  0
  196.2710  170.6410  144.2250 O   0  0  0  0  0  0  0  0  0  0  0  0
  194.6090  172.5120  142.6050 C   0  0  0  0  0  2  0  0  0  0  0  0
  195.9250  173.1060  142.1370 C   0  0  0  0  0  2  0  0  0  0  0  0
  195.6750  174.2030  141.1140 C   0  0  0  0  0  2  0  0  0  0  0  0
  196.4960  175.4470  141.4130 C   0  0  0  0  0  2  0  0  0  0  0  0
  194.1910  176.2140  141.8710 C   0  0  0  0  0  1  0  0  0  0  0  0
  195.6140  176.6630  141.6150 C   0  0  0  0  0  2  0  0  0  0  0  0
  1  2  1  6  0  0  0
  1 31  1  0  0  0  0
  2  3  1  0  0  0  0
  3  4  2  0  0  0  0
  5  6  1  0  0  0  0
  5  3  1  0  0  0  0
  7  1  1  0  0  0  0
  8  7  1  0  0  0  0
  8  9  1  0  0  0  0
  9 11  1  0  0  0  0
  9 10  1  1  0  0  0
 12 15  1  0  0  0  0
 12 11  1  0  0  0  0
 13 15  2  0  0  0  0
 14 12  2  0  0  0  0
 16 13  1  0  0  0  0
 17 16  2  0  0  0  0
 17 14  1  0  0  0  0
 18 16  1  0  0  0  0
 19 18  1  1  0  0  0
 20 21  1  0  0  0  0
 20 23  1  1  0  0  0
 21 22  1  0  0  0  0
 22 19  1  0  0  0  0
 23 19  1  0  0  0  0
 24 28  1  1  0  0  0
 24 30  1  0  0  0  0
 25 27  1  0  0  0  0
 26 25  1  0  0  0  0
 29 24  1  0  0  0  0
 29 26  1  0  0  0  0
 30 20  1  0  0  0  0
 30 27  1  1  0  0  0
 32 31  1  6  0  0  0
 32 33  1  0  0  0  0
 32 36  1  0  0  0  0
 34 33  1  0  0  0  0
 36 35  2  0  0  0  0
 37 36  1  0  0  0  0
 37 38  1  0  0  0  0
 38 39  1  0  0  0  0
 39 40  1  6  0  0  0
 41 39  1  0  0  0  0
 42 44  1  0  0  0  0
 42 41  1  0  0  0  0
 44 43  1  6  0  0  0
 45 44  1  0  0  0  0
 46 45  2  0  0  0  0
 47 53  1  6  0  0  0
 47 45  1  0  0  0  0
 48 47  1  1  0  0  0
 48 49  1  0  0  0  0
 49 51  1  0  0  0  0
 50 51  1  0  0  0  0
 52 48  1  0  0  0  0
 52 50  1  0  0  0  0
 54 53  1  0  0  0  0
 55 56  1  0  0  0  0
 55 54  1  0  0  0  0
 56 58  1  0  0  0  0
 58 57  1  0  0  0  0
M  END
>  <MODEL>
4

>  <REMARK>
 VINA RESULT:      -5.2      3.210      8.760
  Name = 
  29 active torsions:
  status: ('A' for Active; 'I' for Inactive)
    1  A    between atoms: C_2  and  C_29
    2  A    between atoms: C_2  and  C_31
    3  A    between atoms: O_3  and  C_19
    4  A    between atoms: O_3  and  C_23
    5  A    between atoms: N_4  and  C_7
    6  A    between atoms: C_5  and  C_26
    7  A    between atoms: C_7  and  C_41
    8  A    between atoms: C_9  and  O_40
    9  A    between atoms: C_10  and  C_15
   10  A    between atoms: C_10  and  O_40
   11  A    between atoms: C_12  and  C_20
   12  A    between atoms: C_12  and  C_49
   13  A    between atoms: C_15  and  C_27
   14  A    between atoms: C_20  and  C_26
   15  A    between atoms: C_21  and  C_30
   16  A    between atoms: C_21  and  C_31
   17  A    between atoms: C_24  and  C_28
   18  A    between atoms: C_24  and  C_57
   19  A    between atoms: C_26  and  C_30
   20  A    between atoms: C_27  and  C_28
   21  A    between atoms: C_28  and  C_41
   22  A    between atoms: C_29  and  C_43
   23  A    between atoms: N_34  and  C_53
   24  A    between atoms: C_38  and  C_57
   25  A    between atoms: C_39  and  N_55
   26  A    between atoms: C_39  and  C_57
   27  A    between atoms: C_43  and  N_55
   28  A    between atoms: C_47  and  C_49
   29  A    between atoms: C_47  and  C_58
                            x       y       z     vdW  Elec       q    Type
                         _______ _______ _______ _____ _____    ______ ____

>  <TORSDO>
F 29

$$$$
=
 OpenBabel11072409213D

 58 61  0  0  1  0  0  0  0  0999 V2000
  187.1990  177.1000  143.2470 C   0  0  2  0  0  3  0  0  0  0  0  0
  186.1580  176.6460  142.2170 C   0  0  0  0  0  2  0  0  0  0  0  0
  186.2300  177.4160  140.9320 C   0  0  0  0  0  0  0  0  0  0  0  0
  185.5930  178.4980  140.8140 O   0  0  0  0  0  0  0  0  0  0  0  0
  186.9940  176.9050  139.8390 N   0  0  0  0  0  2  0  0  0  0  0  0
  186.5360  176.9220  138.6780 O   0  0  0  0  0  1  0  0  0  0  0  0
  188.5440  176.4480  142.9590 C   0  0  0  0  0  2  0  0  0  0  0  0
  188.8770  175.3490  143.9580 C   0  0  0  0  0  2  0  0  0  0  0  0
  189.6060  174.2050  143.2640 C   0  0  1  0  0  3  0  0  0  0  0  0
  189.6200  173.0040  144.1850 C   0  0  0  0  0  1  0  0  0  0  0  0
  188.9500  173.8540  142.0460 O   0  0  0  0  0  0  0  0  0  0  0  0
  189.6060  173.7830  140.8100 C   0  0  0  0  0  0  0  0  0  0  0  0
  191.6760  173.5270  139.5710 C   0  0  0  0  0  3  0  0  0  0  0  0
  188.8970  173.8290  139.5980 C   0  0  0  0  0  3  0  0  0  0  0  0
  190.9980  173.6510  140.7870 C   0  0  0  0  0  3  0  0  0  0  0  0
  190.9700  173.5310  138.3650 C   0  0  0  0  0  0  0  0  0  0  0  0
  189.5740  173.6990  138.3840 C   0  0  0  0  0  3  0  0  0  0  0  0
  191.6670  173.3480  137.1660 O   0  0  0  0  0  0  0  0  0  0  0  0
  191.8520  172.0680  136.5710 C   0  0  2  0  0  3  0  0  0  0  0  0
  193.6180  170.5480  136.6260 N   0  0  1  0  0  0  0  0  0  0  0  0
  192.9000  170.3080  137.7610 O   0  0  0  0  0  0  0  0  0  0  0  0
  191.6760  170.9900  137.6080 C   0  0  0  0  0  2  0  0  0  0  0  0
  193.2750  171.8850  136.1640 C   0  0  0  0  0  2  0  0  0  0  0  0
  195.4970  170.8390  138.3660 C   0  0  2  0  0  3  0  0  0  0  0  0
  197.4270  170.9950  136.3090 C   0  0  0  0  0  2  0  0  0  0  0  0
  197.6230  170.1080  137.3840 O   0  0  0  0  0  0  0  0  0  0  0  0
  195.9690  170.9490  135.8240 C   0  0  0  0  0  2  0  0  0  0  0  0
  195.1060  172.2640  138.7310 C   0  0  0  0  0  1  0  0  0  0  0  0
  197.0270  170.7080  138.5130 C   0  0  0  0  0  2  0  0  0  0  0  0
  195.0520  170.4330  136.9390 C   0  0  2  0  0  3  0  0  0  0  0  0
  186.7350  176.8450  144.6820 C   0  0  0  0  0  2  0  0  0  0  0  0
  186.7910  178.1290  145.5010 C   0  0  1  0  0  3  0  0  0  0  0  0
  185.4490  178.8470  145.4710 C   0  0  0  0  0  2  0  0  0  0  0  0
  185.4660  179.8870  144.4520 N   0  0  0  0  0  1  0  0  0  0  0  0
  186.6510  178.7630  148.1160 S   0  0  0  0  0  0  0  0  0  0  0  0
  187.2650  177.8610  146.9030 C   0  0  0  0  0  0  0  0  0  0  0  0
  188.2830  176.9030  147.2070 N   0  0  0  0  0  2  0  0  0  0  0  0
  189.6930  177.0940  146.8990 C   0  0  0  0  0  2  0  0  0  0  0  0
  190.5450  176.2520  147.8270 C   0  0  2  0  0  3  0  0  0  0  0  0
  191.7160  177.0790  148.3320 C   0  0  0  0  0  1  0  0  0  0  0  0
  191.0480  175.0360  147.0600 C   0  0  0  0  0  2  0  0  0  0  0  0
  192.0460  175.4240  145.9730 C   0  0  0  0  0  2  0  0  0  0  0  0
  194.4520  176.0070  145.9960 C   0  0  0  0  0  1  0  0  0  0  0  0
  193.4510  174.9010  146.2640 C   0  0  2  0  0  3  0  0  0  0  0  0
  193.8020  173.6840  145.4370 C   0  0  0  0  0  0  0  0  0  0  0  0
  192.9210  172.9140  145.0820 O   0  0  0  0  0  0  0  0  0  0  0  0
  195.2140  173.4470  144.9510 C   0  0  1  0  0  3  0  0  0  0  0  0
  195.8940  172.3420  145.7670 C   0  0  2  0  0  3  0  0  0  0  0  0
  197.2770  172.0300  145.2300 C   0  0  0  0  0  2  0  0  0  0  0  0
  196.0630  170.1290  145.9560 C   0  0  0  0  0  2  0  0  0  0  0  0
  197.3900  170.5400  145.3650 C   0  0  0  0  0  2  0  0  0  0  0  0
  195.1400  171.1560  145.7230 O   0  0  0  0  0  0  0  0  0  0  0  0
  195.2570  173.1000  143.4640 C   0  0  0  0  0  2  0  0  0  0  0  0
  194.2170  173.8790  142.6800 C   0  0  0  0  0  2  0  0  0  0  0  0
  194.8660  175.0560  141.9680 C   0  0  0  0  0  2  0  0  0  0  0  0
  193.8940  176.2120  141.7940 C   0  0  0  0  0  2  0  0  0  0  0  0
  192.0720  177.3480  143.0200 C   0  0  0  0  0  1  0  0  0  0  0  0
  192.6280  176.0040  142.6020 C   0  0  0  0  0  2  0  0  0  0  0  0
  1  2  1  6  0  0  0
  1 31  1  0  0  0  0
  3  2  1  0  0  0  0
  4  3  2  0  0  0  0
  5  3  1  0  0  0  0
  6  5  1  0  0  0  0
  7  1  1  0  0  0  0
  7  8  1  0  0  0  0
  9  8  1  0  0  0  0
  9 10  1  1  0  0  0
 11  9  1  0  0  0  0
 12 11  1  0  0  0  0
 13 15  2  0  0  0  0
 14 12  2  0  0  0  0
 15 12  1  0  0  0  0
 16 17  2  0  0  0  0
 16 13  1  0  0  0  0
 17 14  1  0  0  0  0
 18 16  1  0  0  0  0
 19 18  1  1  0  0  0
 19 22  1  0  0  0  0
 20 23  1  1  0  0  0
 20 30  1  0  0  0  0
 20 21  1  0  0  0  0
 22 21  1  0  0  0  0
 23 19  1  0  0  0  0
 24 29  1  0  0  0  0
 24 28  1  6  0  0  0
 25 26  1  0  0  0  0
 26 29  1  0  0  0  0
 27 25  1  0  0  0  0
 30 27  1  6  0  0  0
 30 24  1  0  0  0  0
 32 31  1  6  0  0  0
 32 36  1  0  0  0  0
 33 32  1  0  0  0  0
 34 33  1  0  0  0  0
 36 37  1  0  0  0  0
 36 35  2  0  0  0  0
 38 37  1  0  0  0  0
 38 39  1  0  0  0  0
 39 40  1  6  0  0  0
 41 39  1  0  0  0  0
 42 44  1  0  0  0  0
 42 41  1  0  0  0  0
 44 43  1  6  0  0  0
 45 44  1  0  0  0  0
 46 45  2  0  0  0  0
 47 53  1  6  0  0  0
 47 45  1  0  0  0  0
 48 47  1  6  0  0  0
 49 51  1  0  0  0  0
 49 48  1  0  0  0  0
 51 50  1  0  0  0  0
 52 48  1  0  0  0  0
 52 50  1  0  0  0  0
 54 53  1  0  0  0  0
 55 54  1  0  0  0  0
 56 55  1  0  0  0  0
 56 58  1  0  0  0  0
 58 57  1  0  0  0  0
M  END
>  <MODEL>
5

>  <REMARK>
 VINA RESULT:      -5.1      3.256      8.362
  Name = 
  29 active torsions:
  status: ('A' for Active; 'I' for Inactive)
    1  A    between atoms: C_2  and  C_29
    2  A    between atoms: C_2  and  C_31
    3  A    between atoms: O_3  and  C_19
    4  A    between atoms: O_3  and  C_23
    5  A    between atoms: N_4  and  C_7
    6  A    between atoms: C_5  and  C_26
    7  A    between atoms: C_7  and  C_41
    8  A    between atoms: C_9  and  O_40
    9  A    between atoms: C_10  and  C_15
   10  A    between atoms: C_10  and  O_40
   11  A    between atoms: C_12  and  C_20
   12  A    between atoms: C_12  and  C_49
   13  A    between atoms: C_15  and  C_27
   14  A    between atoms: C_20  and  C_26
   15  A    between atoms: C_21  and  C_30
   16  A    between atoms: C_21  and  C_31
   17  A    between atoms: C_24  and  C_28
   18  A    between atoms: C_24  and  C_57
   19  A    between atoms: C_26  and  C_30
   20  A    between atoms: C_27  and  C_28
   21  A    between atoms: C_28  and  C_41
   22  A    between atoms: C_29  and  C_43
   23  A    between atoms: N_34  and  C_53
   24  A    between atoms: C_38  and  C_57
   25  A    between atoms: C_39  and  N_55
   26  A    between atoms: C_39  and  C_57
   27  A    between atoms: C_43  and  N_55
   28  A    between atoms: C_47  and  C_49
   29  A    between atoms: C_47  and  C_58
                            x       y       z     vdW  Elec       q    Type
                         _______ _______ _______ _____ _____    ______ ____

>  <TORSDO>
F 29

$$$$
=
 OpenBabel11072409213D

 58 61  0  0  1  0  0  0  0  0999 V2000
  187.8540  176.5060  142.7950 C   0  0  2  0  0  3  0  0  0  0  0  0
  186.8920  176.2800  141.6230 C   0  0  0  0  0  2  0  0  0  0  0  0
  186.5970  177.5350  140.8570 C   0  0  0  0  0  0  0  0  0  0  0  0
  187.4470  177.9880  140.0430 O   0  0  0  0  0  0  0  0  0  0  0  0
  185.3670  178.2280  141.0760 N   0  0  0  0  0  2  0  0  0  0  0  0
  184.3880  177.6440  141.5850 O   0  0  0  0  0  1  0  0  0  0  0  0
  189.1310  175.7030  142.5900 C   0  0  0  0  0  2  0  0  0  0  0  0
  189.2900  174.6000  143.6260 C   0  0  0  0  0  2  0  0  0  0  0  0
  189.7140  173.2990  142.9540 C   0  0  1  0  0  3  0  0  0  0  0  0
  189.6770  172.1850  143.9790 C   0  0  0  0  0  1  0  0  0  0  0  0
  188.8330  172.9760  141.8790 O   0  0  0  0  0  0  0  0  0  0  0  0
  189.2210  172.9890  140.5330 C   0  0  0  0  0  0  0  0  0  0  0  0
  190.9710  173.2980  138.8810 C   0  0  0  0  0  3  0  0  0  0  0  0
  188.3210  172.6620  139.5050 C   0  0  0  0  0  3  0  0  0  0  0  0
  190.5390  173.3250  140.2110 C   0  0  0  0  0  3  0  0  0  0  0  0
  190.0890  172.9320  137.8600 C   0  0  0  0  0  0  0  0  0  0  0  0
  188.7530  172.6290  138.1780 C   0  0  0  0  0  3  0  0  0  0  0  0
  190.5620  172.8570  136.5450 O   0  0  0  0  0  0  0  0  0  0  0  0
  191.6990  172.0830  136.1790 C   0  0  2  0  0  3  0  0  0  0  0  0
  193.5520  171.3440  137.3840 N   0  0  1  0  0  0  0  0  0  0  0  0
  192.5700  170.4290  137.6340 O   0  0  0  0  0  0  0  0  0  0  0  0
  191.5490  170.6770  136.6950 C   0  0  0  0  0  2  0  0  0  0  0  0
  192.9090  172.5600  136.9100 C   0  0  0  0  0  2  0  0  0  0  0  0
  195.1400  172.8820  138.7080 C   0  0  2  0  0  3  0  0  0  0  0  0
  195.9730  170.7080  140.3060 C   0  0  0  0  0  2  0  0  0  0  0  0
  195.5520  171.9030  140.9190 O   0  0  0  0  0  0  0  0  0  0  0  0
  195.0400  170.3330  139.1430 C   0  0  0  0  0  2  0  0  0  0  0  0
  196.1450  173.0240  137.5740 C   0  0  0  0  0  1  0  0  0  0  0  0
  195.9090  172.9490  140.0430 C   0  0  0  0  0  2  0  0  0  0  0  0
  194.3090  171.5780  138.6240 C   0  0  2  0  0  3  0  0  0  0  0  0
  187.1970  176.2020  144.1430 C   0  0  0  0  0  2  0  0  0  0  0  0
  187.0580  177.4730  144.9710 C   0  0  1  0  0  3  0  0  0  0  0  0
  185.6590  178.0570  144.8340 C   0  0  0  0  0  2  0  0  0  0  0  0
  185.7310  179.3810  144.2310 N   0  0  0  0  0  1  0  0  0  0  0  0
  186.5760  177.9800  147.5730 S   0  0  0  0  0  0  0  0  0  0  0  0
  187.4380  177.2340  146.4060 C   0  0  0  0  0  0  0  0  0  0  0  0
  188.5670  176.4410  146.7870 N   0  0  0  0  0  2  0  0  0  0  0  0
  189.9460  176.8980  146.6960 C   0  0  0  0  0  2  0  0  0  0  0  0
  190.7660  176.3020  147.8220 C   0  0  2  0  0  3  0  0  0  0  0  0
  191.3690  177.4190  148.6580 C   0  0  0  0  0  1  0  0  0  0  0  0
  191.8660  175.4380  147.2220 C   0  0  0  0  0  2  0  0  0  0  0  0
  191.8440  175.4700  145.6960 C   0  0  0  0  0  2  0  0  0  0  0  0
  192.5750  176.7260  143.6920 C   0  0  0  0  0  1  0  0  0  0  0  0
  192.9330  176.3730  145.1210 C   0  0  2  0  0  3  0  0  0  0  0  0
  194.3020  175.7300  145.1600 C   0  0  0  0  0  0  0  0  0  0  0  0
  195.1660  176.1800  145.8980 O   0  0  0  0  0  0  0  0  0  0  0  0
  194.5990  174.4730  144.3730 C   0  0  1  0  0  3  0  0  0  0  0  0
  195.5940  174.7600  143.2420 C   0  0  2  0  0  3  0  0  0  0  0  0
  196.9200  174.0660  143.4840 C   0  0  0  0  0  2  0  0  0  0  0  0
  197.1130  176.2360  142.5510 C   0  0  0  0  0  2  0  0  0  0  0  0
  197.9400  175.0590  143.0120 C   0  0  0  0  0  2  0  0  0  0  0  0
  195.8450  176.1400  143.1400 O   0  0  0  0  0  0  0  0  0  0  0  0
  195.1300  173.3530  145.2640 C   0  0  0  0  0  2  0  0  0  0  0  0
  194.1290  172.2200  145.3920 C   0  0  0  0  0  2  0  0  0  0  0  0
  193.2830  172.1180  144.1320 C   0  0  0  0  0  2  0  0  0  0  0  0
  193.3830  170.7400  143.4980 C   0  0  0  0  0  2  0  0  0  0  0  0
  194.0460  168.6260  144.5950 C   0  0  0  0  0  1  0  0  0  0  0  0
  192.9410  169.6510  144.4570 C   0  0  0  0  0  2  0  0  0  0  0  0
  1  2  1  6  0  0  0
  1 31  1  0  0  0  0
  3  5  1  0  0  0  0
  3  2  1  0  0  0  0
  4  3  2  0  0  0  0
  5  6  1  0  0  0  0
  7  1  1  0  0  0  0
  7  8  1  0  0  0  0
  9  8  1  0  0  0  0
  9 10  1  1  0  0  0
 11  9  1  0  0  0  0
 12 11  1  0  0  0  0
 13 15  2  0  0  0  0
 14 12  2  0  0  0  0
 15 12  1  0  0  0  0
 16 17  2  0  0  0  0
 16 13  1  0  0  0  0
 17 14  1  0  0  0  0
 18 16  1  0  0  0  0
 19 18  1  1  0  0  0
 19 22  1  0  0  0  0
 19 23  1  0  0  0  0
 20 23  1  1  0  0  0
 20 21  1  0  0  0  0
 20 30  1  0  0  0  0
 22 21  1  0  0  0  0
 24 28  1  6  0  0  0
 24 29  1  0  0  0  0
 25 26  1  0  0  0  0
 27 25  1  0  0  0  0
 29 26  1  0  0  0  0
 30 24  1  0  0  0  0
 30 27  1  6  0  0  0
 32 31  1  6  0  0  0
 32 36  1  0  0  0  0
 33 32  1  0  0  0  0
 34 33  1  0  0  0  0
 36 37  1  0  0  0  0
 36 35  2  0  0  0  0
 38 37  1  0  0  0  0
 38 39  1  0  0  0  0
 39 40  1  6  0  0  0
 41 39  1  0  0  0  0
 42 41  1  0  0  0  0
 44 43  1  6  0  0  0
 44 45  1  0  0  0  0
 44 42  1  0  0  0  0
 45 46  2  0  0  0  0
 47 45  1  0  0  0  0
 47 53  1  1  0  0  0
 48 49  1  0  0  0  0
 48 47  1  1  0  0  0
 50 51  1  0  0  0  0
 50 52  1  0  0  0  0
 51 49  1  0  0  0  0
 52 48  1  0  0  0  0
 53 54  1  0  0  0  0
 55 54  1  0  0  0  0
 56 55  1  0  0  0  0
 56 58  1  0  0  0  0
 58 57  1  0  0  0  0
M  END
>  <MODEL>
6

>  <REMARK>
 VINA RESULT:      -5.1      3.171      8.214
  Name = 
  29 active torsions:
  status: ('A' for Active; 'I' for Inactive)
    1  A    between atoms: C_2  and  C_29
    2  A    between atoms: C_2  and  C_31
    3  A    between atoms: O_3  and  C_19
    4  A    between atoms: O_3  and  C_23
    5  A    between atoms: N_4  and  C_7
    6  A    between atoms: C_5  and  C_26
    7  A    between atoms: C_7  and  C_41
    8  A    between atoms: C_9  and  O_40
    9  A    between atoms: C_10  and  C_15
   10  A    between atoms: C_10  and  O_40
   11  A    between atoms: C_12  and  C_20
   12  A    between atoms: C_12  and  C_49
   13  A    between atoms: C_15  and  C_27
   14  A    between atoms: C_20  and  C_26
   15  A    between atoms: C_21  and  C_30
   16  A    between atoms: C_21  and  C_31
   17  A    between atoms: C_24  and  C_28
   18  A    between atoms: C_24  and  C_57
   19  A    between atoms: C_26  and  C_30
   20  A    between atoms: C_27  and  C_28
   21  A    between atoms: C_28  and  C_41
   22  A    between atoms: C_29  and  C_43
   23  A    between atoms: N_34  and  C_53
   24  A    between atoms: C_38  and  C_57
   25  A    between atoms: C_39  and  N_55
   26  A    between atoms: C_39  and  C_57
   27  A    between atoms: C_43  and  N_55
   28  A    between atoms: C_47  and  C_49
   29  A    between atoms: C_47  and  C_58
                            x       y       z     vdW  Elec       q    Type
                         _______ _______ _______ _____ _____    ______ ____

>  <TORSDO>
F 29

$$$$
=
 OpenBabel11072409213D

 58 61  0  0  1  0  0  0  0  0999 V2000
  195.4780  171.6720  143.2830 C   0  0  2  0  0  3  0  0  0  0  0  0
  195.8560  170.4900  144.1840 C   0  0  0  0  0  2  0  0  0  0  0  0
  194.7070  169.9890  145.0070 C   0  0  0  0  0  0  0  0  0  0  0  0
  194.3760  170.6000  146.0580 O   0  0  0  0  0  0  0  0  0  0  0  0
  194.0140  168.8040  144.6120 N   0  0  0  0  0  2  0  0  0  0  0  0
  192.7820  168.6990  144.7840 O   0  0  0  0  0  1  0  0  0  0  0  0
  195.5350  171.2590  141.8200 C   0  0  0  0  0  2  0  0  0  0  0  0
  195.2520  172.4220  140.8810 C   0  0  0  0  0  2  0  0  0  0  0  0
  196.3820  172.5730  139.8690 C   0  0  1  0  0  3  0  0  0  0  0  0
  197.6030  171.8440  140.3880 C   0  0  0  0  0  1  0  0  0  0  0  0
  196.0060  172.0200  138.6080 O   0  0  0  0  0  0  0  0  0  0  0  0
  194.7370  172.1870  138.0410 C   0  0  0  0  0  0  0  0  0  0  0  0
  192.7450  171.1890  137.0810 C   0  0  0  0  0  3  0  0  0  0  0  0
  194.1530  173.4580  137.9080 C   0  0  0  0  0  3  0  0  0  0  0  0
  194.0340  171.0590  137.6060 C   0  0  0  0  0  3  0  0  0  0  0  0
  192.1440  172.4480  136.9860 C   0  0  0  0  0  0  0  0  0  0  0  0
  192.8630  173.5870  137.3890 C   0  0  0  0  0  3  0  0  0  0  0  0
  190.8320  172.5420  136.5100 O   0  0  0  0  0  0  0  0  0  0  0  0
  189.6960  172.4390  137.3610 C   0  0  2  0  0  3  0  0  0  0  0  0
  189.4720  172.3130  139.6770 N   0  0  1  0  0  0  0  0  0  0  0  0
  189.5810  173.6450  139.3970 O   0  0  0  0  0  0  0  0  0  0  0  0
  189.4130  173.7710  138.0040 C   0  0  0  0  0  2  0  0  0  0  0  0
  190.0060  171.5800  138.5400 C   0  0  0  0  0  2  0  0  0  0  0  0
  191.3030  170.9180  140.8360 C   0  0  2  0  0  3  0  0  0  0  0  0
  190.1580  171.4480  143.3630 C   0  0  0  0  0  2  0  0  0  0  0  0
  191.5340  171.6660  143.1610 O   0  0  0  0  0  0  0  0  0  0  0  0
  189.3430  171.9610  142.1660 C   0  0  0  0  0  2  0  0  0  0  0  0
  190.7550  169.5800  140.3610 C   0  0  0  0  0  1  0  0  0  0  0  0
  191.9560  170.7070  142.2170 C   0  0  0  0  0  2  0  0  0  0  0  0
  190.2220  172.0250  140.9100 C   0  0  2  0  0  3  0  0  0  0  0  0
  196.3400  172.9050  143.5640 C   0  0  0  0  0  2  0  0  0  0  0  0
  195.5950  173.8900  144.4560 C   0  0  1  0  0  3  0  0  0  0  0  0
  196.3690  174.1450  145.7410 C   0  0  0  0  0  2  0  0  0  0  0  0
  196.9600  172.9030  146.2200 N   0  0  0  0  0  1  0  0  0  0  0  0
  196.2080  175.5740  142.4440 S   0  0  0  0  0  0  0  0  0  0  0  0
  195.2770  175.1610  143.7180 C   0  0  0  0  0  0  0  0  0  0  0  0
  194.2420  176.0580  144.1320 N   0  0  0  0  0  2  0  0  0  0  0  0
  193.0370  176.3180  143.3580 C   0  0  0  0  0  2  0  0  0  0  0  0
  192.3790  175.0110  142.9670 C   0  0  2  0  0  3  0  0  0  0  0  0
  192.4980  174.8120  141.4650 C   0  0  0  0  0  1  0  0  0  0  0  0
  190.9140  175.0590  143.3790 C   0  0  0  0  0  2  0  0  0  0  0  0
  190.0210  175.5600  142.2480 C   0  0  0  0  0  2  0  0  0  0  0  0
  187.6100  175.5360  141.6880 C   0  0  0  0  0  1  0  0  0  0  0  0
  188.6250  175.9400  142.7380 C   0  0  2  0  0  3  0  0  0  0  0  0
  188.4950  177.4180  143.0310 C   0  0  0  0  0  0  0  0  0  0  0  0
  188.7300  178.2360  142.1530 O   0  0  0  0  0  0  0  0  0  0  0  0
  187.9820  177.9100  144.3660 C   0  0  1  0  0  3  0  0  0  0  0  0
  186.4490  177.9130  144.3940 C   0  0  2  0  0  3  0  0  0  0  0  0
  185.8820  178.9790  143.4780 C   0  0  0  0  0  2  0  0  0  0  0  0
  184.7000  178.7190  145.5150 C   0  0  0  0  0  2  0  0  0  0  0  0
  184.7010  179.5150  144.2320 C   0  0  0  0  0  2  0  0  0  0  0  0
  185.9770  178.1700  145.6930 O   0  0  0  0  0  0  0  0  0  0  0  0
  188.5240  177.0810  145.5280 C   0  0  0  0  0  2  0  0  0  0  0  0
  189.9900  177.3770  145.7880 C   0  0  0  0  0  2  0  0  0  0  0  0
  190.5700  176.3590  146.7580 C   0  0  0  0  0  2  0  0  0  0  0  0
  191.7980  176.9010  147.4710 C   0  0  0  0  0  2  0  0  0  0  0  0
  191.5010  178.1290  149.5960 C   0  0  0  0  0  1  0  0  0  0  0  0
  191.6780  176.7600  148.9760 C   0  0  0  0  0  2  0  0  0  0  0  0
  1  7  1  6  0  0  0
  1 31  1  0  0  0  0
  1  2  1  0  0  0  0
  2  3  1  0  0  0  0
  3  4  2  0  0  0  0
  5  6  1  0  0  0  0
  5  3  1  0  0  0  0
  8  7  1  0  0  0  0
  9 10  1  1  0  0  0
  9  8  1  0  0  0  0
 11  9  1  0  0  0  0
 12 11  1  0  0  0  0
 13 15  1  0  0  0  0
 14 12  1  0  0  0  0
 15 12  2  0  0  0  0
 16 13  2  0  0  0  0
 16 17  1  0  0  0  0
 17 14  2  0  0  0  0
 18 16  1  0  0  0  0
 19 18  1  6  0  0  0
 19 22  1  0  0  0  0
 19 23  1  0  0  0  0
 20 23  1  6  0  0  0
 20 30  1  0  0  0  0
 21 20  1  0  0  0  0
 22 21  1  0  0  0  0
 24 28  1  1  0  0  0
 24 30  1  0  0  0  0
 24 29  1  0  0  0  0
 26 25  1  0  0  0  0
 27 25  1  0  0  0  0
 29 26  1  0  0  0  0
 30 27  1  1  0  0  0
 32 31  1  6  0  0  0
 32 33  1  0  0  0  0
 33 34  1  0  0  0  0
 35 36  2  0  0  0  0
 36 37  1  0  0  0  0
 36 32  1  0  0  0  0
 38 37  1  0  0  0  0
 39 40  1  6  0  0  0
 39 38  1  0  0  0  0
 39 41  1  0  0  0  0
 42 44  1  0  0  0  0
 42 41  1  0  0  0  0
 44 43  1  6  0  0  0
 44 45  1  0  0  0  0
 45 47  1  0  0  0  0
 46 45  2  0  0  0  0
 47 53  1  1  0  0  0
 48 47  1  1  0  0  0
 48 52  1  0  0  0  0
 49 51  1  0  0  0  0
 49 48  1  0  0  0  0
 50 52  1  0  0  0  0
 51 50  1  0  0  0  0
 53 54  1  0  0  0  0
 54 55  1  0  0  0  0
 55 56  1  0  0  0  0
 56 58  1  0  0  0  0
 58 57  1  0  0  0  0
M  END
>  <MODEL>
7

>  <REMARK>
 VINA RESULT:      -5.0      1.566      3.185
  Name = 
  29 active torsions:
  status: ('A' for Active; 'I' for Inactive)
    1  A    between atoms: C_2  and  C_29
    2  A    between atoms: C_2  and  C_31
    3  A    between atoms: O_3  and  C_19
    4  A    between atoms: O_3  and  C_23
    5  A    between atoms: N_4  and  C_7
    6  A    between atoms: C_5  and  C_26
    7  A    between atoms: C_7  and  C_41
    8  A    between atoms: C_9  and  O_40
    9  A    between atoms: C_10  and  C_15
   10  A    between atoms: C_10  and  O_40
   11  A    between atoms: C_12  and  C_20
   12  A    between atoms: C_12  and  C_49
   13  A    between atoms: C_15  and  C_27
   14  A    between atoms: C_20  and  C_26
   15  A    between atoms: C_21  and  C_30
   16  A    between atoms: C_21  and  C_31
   17  A    between atoms: C_24  and  C_28
   18  A    between atoms: C_24  and  C_57
   19  A    between atoms: C_26  and  C_30
   20  A    between atoms: C_27  and  C_28
   21  A    between atoms: C_28  and  C_41
   22  A    between atoms: C_29  and  C_43
   23  A    between atoms: N_34  and  C_53
   24  A    between atoms: C_38  and  C_57
   25  A    between atoms: C_39  and  N_55
   26  A    between atoms: C_39  and  C_57
   27  A    between atoms: C_43  and  N_55
   28  A    between atoms: C_47  and  C_49
   29  A    between atoms: C_47  and  C_58
                            x       y       z     vdW  Elec       q    Type
                         _______ _______ _______ _____ _____    ______ ____

>  <TORSDO>
F 29

$$$$
=
 OpenBabel11072409213D

 58 61  0  0  1  0  0  0  0  0999 V2000
  193.6320  170.4680  140.7120 C   0  0  2  0  0  3  0  0  0  0  0  0
  193.8220  169.0950  141.3690 C   0  0  0  0  0  2  0  0  0  0  0  0
  193.5310  169.1040  142.8400 C   0  0  0  0  0  0  0  0  0  0  0  0
  192.4080  168.7120  143.2590 O   0  0  0  0  0  0  0  0  0  0  0  0
  194.5160  169.5840  143.7560 N   0  0  0  0  0  2  0  0  0  0  0  0
  194.7110  170.8090  143.8980 O   0  0  0  0  0  1  0  0  0  0  0  0
  192.2580  170.5550  140.0640 C   0  0  0  0  0  2  0  0  0  0  0  0
  192.3120  170.3080  138.5630 C   0  0  0  0  0  2  0  0  0  0  0  0
  191.6220  171.4410  137.8140 C   0  0  1  0  0  3  0  0  0  0  0  0
  191.9470  171.3210  136.3400 C   0  0  0  0  0  1  0  0  0  0  0  0
  190.2070  171.3740  137.9890 O   0  0  0  0  0  0  0  0  0  0  0  0
  189.4610  172.3730  138.6260 C   0  0  0  0  0  0  0  0  0  0  0  0
  188.4190  174.5630  138.5350 C   0  0  0  0  0  3  0  0  0  0  0  0
  188.9590  172.1990  139.9270 C   0  0  0  0  0  3  0  0  0  0  0  0
  189.2030  173.5660  137.9440 C   0  0  0  0  0  3  0  0  0  0  0  0
  187.8830  174.3760  139.8120 C   0  0  0  0  0  0  0  0  0  0  0  0
  188.1710  173.1920  140.5140 C   0  0  0  0  0  3  0  0  0  0  0  0
  187.0560  175.3640  140.3550 O   0  0  0  0  0  0  0  0  0  0  0  0
  187.5660  176.5330  140.9860 C   0  0  2  0  0  3  0  0  0  0  0  0
  187.2610  177.4330  143.1140 N   0  0  1  0  0  0  0  0  0  0  0  0
  188.2470  176.4990  143.2550 O   0  0  0  0  0  0  0  0  0  0  0  0
  188.6600  176.1590  141.9510 C   0  0  0  0  0  2  0  0  0  0  0  0
  186.5380  177.1280  141.8890 C   0  0  0  0  0  2  0  0  0  0  0  0
  185.1660  178.3350  144.3120 C   0  0  2  0  0  3  0  0  0  0  0  0
  186.1660  177.4540  146.8020 C   0  0  0  0  0  2  0  0  0  0  0  0
  184.8550  177.1150  146.4180 O   0  0  0  0  0  0  0  0  0  0  0  0
  187.1390  177.2930  145.6230 C   0  0  0  0  0  2  0  0  0  0  0  0
  185.5570  179.7980  144.1580 C   0  0  0  0  0  1  0  0  0  0  0  0
  184.3800  178.1850  145.6310 C   0  0  0  0  0  2  0  0  0  0  0  0
  186.3810  177.3760  144.2920 C   0  0  2  0  0  3  0  0  0  0  0  0
  194.7530  170.7900  139.7230 C   0  0  0  0  0  2  0  0  0  0  0  0
  195.8090  171.6730  140.3760 C   0  0  1  0  0  3  0  0  0  0  0  0
  197.1690  170.9900  140.3610 C   0  0  0  0  0  2  0  0  0  0  0  0
  197.4170  170.3490  141.6450 N   0  0  0  0  0  1  0  0  0  0  0  0
  194.9460  173.3000  138.4100 S   0  0  0  0  0  0  0  0  0  0  0  0
  195.8480  173.0370  139.7440 C   0  0  0  0  0  0  0  0  0  0  0  0
  196.6980  174.0860  140.2170 N   0  0  0  0  0  2  0  0  0  0  0  0
  196.7730  174.5030  141.6090 C   0  0  0  0  0  2  0  0  0  0  0  0
  195.4610  175.1330  142.0340 C   0  0  2  0  0  3  0  0  0  0  0  0
  195.4310  176.5870  141.5950 C   0  0  0  0  0  1  0  0  0  0  0  0
  195.3400  175.0350  143.5480 C   0  0  0  0  0  2  0  0  0  0  0  0
  194.1060  175.7680  144.0670 C   0  0  0  0  0  2  0  0  0  0  0  0
  195.2720  175.3120  146.2030 C   0  0  0  0  0  1  0  0  0  0  0  0
  193.9240  175.5980  145.5740 C   0  0  2  0  0  3  0  0  0  0  0  0
  192.9550  174.4880  145.9200 C   0  0  0  0  0  0  0  0  0  0  0  0
  193.2590  173.3240  145.7020 O   0  0  0  0  0  0  0  0  0  0  0  0
  191.6480  174.7800  146.6230 C   0  0  1  0  0  3  0  0  0  0  0  0
  191.4730  176.2860  146.8470 C   0  0  2  0  0  3  0  0  0  0  0  0
  192.1620  176.7400  148.1190 C   0  0  0  0  0  2  0  0  0  0  0  0
  190.0820  177.7980  147.7090 C   0  0  0  0  0  2  0  0  0  0  0  0
  191.2270  177.7620  148.6930 C   0  0  0  0  0  2  0  0  0  0  0  0
  190.1110  176.6160  146.9570 O   0  0  0  0  0  0  0  0  0  0  0  0
  190.4500  174.2220  145.8580 C   0  0  0  0  0  2  0  0  0  0  0  0
  190.6170  174.3930  144.3600 C   0  0  0  0  0  2  0  0  0  0  0  0
  190.0850  173.1720  143.6260 C   0  0  0  0  0  2  0  0  0  0  0  0
  191.1330  172.5700  142.7050 C   0  0  0  0  0  2  0  0  0  0  0  0
  191.8980  174.0620  140.8880 C   0  0  0  0  0  1  0  0  0  0  0  0
  192.1760  173.5930  142.3000 C   0  0  0  0  0  2  0  0  0  0  0  0
  1 31  1  6  0  0  0
  1  2  1  0  0  0  0
  2  3  1  0  0  0  0
  3  4  2  0  0  0  0
  3  5  1  0  0  0  0
  5  6  1  0  0  0  0
  7  1  1  0  0  0  0
  8  7  1  0  0  0  0
  9 10  1  6  0  0  0
  9 11  1  0  0  0  0
  9  8  1  0  0  0  0
 11 12  1  0  0  0  0
 12 14  1  0  0  0  0
 13 16  2  0  0  0  0
 14 17  2  0  0  0  0
 15 13  1  0  0  0  0
 15 12  2  0  0  0  0
 16 18  1  0  0  0  0
 16 17  1  0  0  0  0
 19 18  1  1  0  0  0
 19 23  1  0  0  0  0
 19 22  1  0  0  0  0
 20 23  1  6  0  0  0
 20 21  1  0  0  0  0
 20 30  1  0  0  0  0
 22 21  1  0  0  0  0
 24 28  1  1  0  0  0
 24 29  1  0  0  0  0
 26 25  1  0  0  0  0
 27 25  1  0  0  0  0
 29 26  1  0  0  0  0
 30 24  1  0  0  0  0
 30 27  1  1  0  0  0
 32 31  1  6  0  0  0
 33 32  1  0  0  0  0
 33 34  1  0  0  0  0
 35 36  2  0  0  0  0
 36 37  1  0  0  0  0
 36 32  1  0  0  0  0
 37 38  1  0  0  0  0
 38 39  1  0  0  0  0
 39 40  1  1  0  0  0
 39 41  1  0  0  0  0
 41 42  1  0  0  0  0
 42 44  1  0  0  0  0
 44 45  1  0  0  0  0
 44 43  1  1  0  0  0
 45 47  1  0  0  0  0
 46 45  2  0  0  0  0
 47 53  1  6  0  0  0
 48 47  1  1  0  0  0
 48 52  1  0  0  0  0
 48 49  1  0  0  0  0
 49 51  1  0  0  0  0
 50 51  1  0  0  0  0
 52 50  1  0  0  0  0
 54 53  1  0  0  0  0
 55 54  1  0  0  0  0
 56 55  1  0  0  0  0
 57 58  1  0  0  0  0
 58 56  1  0  0  0  0
M  END
>  <MODEL>
8

>  <REMARK>
 VINA RESULT:      -4.8      2.346      5.490
  Name = 
  29 active torsions:
  status: ('A' for Active; 'I' for Inactive)
    1  A    between atoms: C_2  and  C_29
    2  A    between atoms: C_2  and  C_31
    3  A    between atoms: O_3  and  C_19
    4  A    between atoms: O_3  and  C_23
    5  A    between atoms: N_4  and  C_7
    6  A    between atoms: C_5  and  C_26
    7  A    between atoms: C_7  and  C_41
    8  A    between atoms: C_9  and  O_40
    9  A    between atoms: C_10  and  C_15
   10  A    between atoms: C_10  and  O_40
   11  A    between atoms: C_12  and  C_20
   12  A    between atoms: C_12  and  C_49
   13  A    between atoms: C_15  and  C_27
   14  A    between atoms: C_20  and  C_26
   15  A    between atoms: C_21  and  C_30
   16  A    between atoms: C_21  and  C_31
   17  A    between atoms: C_24  and  C_28
   18  A    between atoms: C_24  and  C_57
   19  A    between atoms: C_26  and  C_30
   20  A    between atoms: C_27  and  C_28
   21  A    between atoms: C_28  and  C_41
   22  A    between atoms: C_29  and  C_43
   23  A    between atoms: N_34  and  C_53
   24  A    between atoms: C_38  and  C_57
   25  A    between atoms: C_39  and  N_55
   26  A    between atoms: C_39  and  C_57
   27  A    between atoms: C_43  and  N_55
   28  A    between atoms: C_47  and  C_49
   29  A    between atoms: C_47  and  C_58
                            x       y       z     vdW  Elec       q    Type
                         _______ _______ _______ _____ _____    ______ ____

>  <TORSDO>
F 29

$$$$
=
 OpenBabel11072409213D

 58 61  0  0  1  0  0  0  0  0999 V2000
  187.4610  178.2800  144.7430 C   0  0  2  0  0  3  0  0  0  0  0  0
  186.3440  178.8620  145.6170 C   0  0  0  0  0  2  0  0  0  0  0  0
  185.1280  177.9860  145.6750 C   0  0  0  0  0  0  0  0  0  0  0  0
  185.2220  176.8140  146.1320 O   0  0  0  0  0  0  0  0  0  0  0  0
  183.8780  178.4720  145.1860 N   0  0  0  0  0  2  0  0  0  0  0  0
  183.8200  179.1230  144.1220 O   0  0  0  0  0  1  0  0  0  0  0  0
  186.9570  178.0550  143.3240 C   0  0  0  0  0  2  0  0  0  0  0  0
  186.9150  176.5800  142.9550 C   0  0  0  0  0  2  0  0  0  0  0  0
  186.7200  176.4150  141.4520 C   0  0  1  0  0  3  0  0  0  0  0  0
  186.5260  177.7820  140.8320 C   0  0  0  0  0  1  0  0  0  0  0  0
  187.8590  175.7900  140.8620 O   0  0  0  0  0  0  0  0  0  0  0  0
  188.5220  174.6980  141.4350 C   0  0  0  0  0  0  0  0  0  0  0  0
  188.4670  172.3810  142.1550 C   0  0  0  0  0  3  0  0  0  0  0  0
  189.8750  174.7710  141.8060 C   0  0  0  0  0  3  0  0  0  0  0  0
  187.8200  173.5040  141.6310 C   0  0  0  0  0  3  0  0  0  0  0  0
  189.8240  172.4380  142.4860 C   0  0  0  0  0  0  0  0  0  0  0  0
  190.5230  173.6470  142.3230 C   0  0  0  0  0  3  0  0  0  0  0  0
  190.4610  171.2840  142.9540 O   0  0  0  0  0  0  0  0  0  0  0  0
  191.2670  170.4580  142.1210 C   0  0  2  0  0  3  0  0  0  0  0  0
  191.8500  170.5890  139.8680 N   0  0  1  0  0  0  0  0  0  0  0  0
  192.7330  171.4020  140.5180 O   0  0  0  0  0  0  0  0  0  0  0  0
  192.6040  171.1120  141.8910 C   0  0  0  0  0  2  0  0  0  0  0  0
  190.7020  170.4020  140.7420 C   0  0  0  0  0  2  0  0  0  0  0  0
  191.7230  170.4170  137.3000 C   0  0  2  0  0  3  0  0  0  0  0  0
  191.6250  173.2310  137.0800 C   0  0  0  0  0  2  0  0  0  0  0  0
  190.6700  172.4460  136.4080 O   0  0  0  0  0  0  0  0  0  0  0  0
  191.8620  172.7040  138.5040 C   0  0  0  0  0  2  0  0  0  0  0  0
  193.1770  169.9990  137.1340 C   0  0  0  0  0  1  0  0  0  0  0  0
  191.3150  171.2410  136.0610 C   0  0  0  0  0  2  0  0  0  0  0  0
  191.4670  171.2250  138.5970 C   0  0  2  0  0  3  0  0  0  0  0  0
  188.0580  177.0070  145.3470 C   0  0  0  0  0  2  0  0  0  0  0  0
  189.4150  177.2960  145.9750 C   0  0  1  0  0  3  0  0  0  0  0  0
  189.2670  177.6220  147.4540 C   0  0  0  0  0  2  0  0  0  0  0  0
  190.5770  177.6480  148.0910 N   0  0  0  0  0  1  0  0  0  0  0  0
  189.8510  174.6370  145.9340 S   0  0  0  0  0  0  0  0  0  0  0  0
  190.3800  176.1680  145.7330 C   0  0  0  0  0  0  0  0  0  0  0  0
  191.7570  176.3820  145.4080 N   0  0  0  0  0  2  0  0  0  0  0  0
  192.5500  175.4700  144.5980 C   0  0  0  0  0  2  0  0  0  0  0  0
  193.5500  176.2500  143.7670 C   0  0  2  0  0  3  0  0  0  0  0  0
  193.0270  176.3960  142.3480 C   0  0  0  0  0  1  0  0  0  0  0  0
  194.8750  175.5000  143.7680 C   0  0  0  0  0  2  0  0  0  0  0  0
  194.6830  174.0080  144.0250 C   0  0  0  0  0  2  0  0  0  0  0  0
  195.8150  174.6250  146.1380 C   0  0  0  0  0  1  0  0  0  0  0  0
  195.5730  173.4970  145.1570 C   0  0  2  0  0  3  0  0  0  0  0  0
  196.8970  172.9620  144.6580 C   0  0  0  0  0  0  0  0  0  0  0  0
  197.9410  173.4730  145.0350 O   0  0  0  0  0  0  0  0  0  0  0  0
  196.9640  171.7360  143.7750 C   0  0  1  0  0  3  0  0  0  0  0  0
  197.5000  172.0950  142.3840 C   0  0  2  0  0  3  0  0  0  0  0  0
  197.6000  173.5960  142.2000 C   0  0  0  0  0  2  0  0  0  0  0  0
  196.8680  172.4270  140.2730 C   0  0  0  0  0  2  0  0  0  0  0  0
  197.1800  173.8160  140.7770 C   0  0  0  0  0  2  0  0  0  0  0  0
  196.6510  171.5960  141.3810 O   0  0  0  0  0  0  0  0  0  0  0  0
  197.8160  170.6310  144.3940 C   0  0  0  0  0  2  0  0  0  0  0  0
  196.9830  169.4090  144.7360 C   0  0  0  0  0  2  0  0  0  0  0  0
  195.6640  169.8290  145.3660 C   0  0  0  0  0  2  0  0  0  0  0  0
  194.9810  168.6650  146.0660 C   0  0  0  0  0  2  0  0  0  0  0  0
  196.4080  168.1820  148.0250 C   0  0  0  0  0  1  0  0  0  0  0  0
  195.0920  168.7770  147.5730 C   0  0  0  0  0  2  0  0  0  0  0  0
  1  7  1  6  0  0  0
  1 31  1  0  0  0  0
  1  2  1  0  0  0  0
  2  3  1  0  0  0  0
  3  4  2  0  0  0  0
  5  3  1  0  0  0  0
  6  5  1  0  0  0  0
  8  7  1  0  0  0  0
  9 10  1  6  0  0  0
  9  8  1  0  0  0  0
 11 12  1  0  0  0  0
 11  9  1  0  0  0  0
 12 15  2  0  0  0  0
 12 14  1  0  0  0  0
 13 16  2  0  0  0  0
 14 17  2  0  0  0  0
 15 13  1  0  0  0  0
 16 18  1  0  0  0  0
 17 16  1  0  0  0  0
 19 18  1  1  0  0  0
 20 21  1  0  0  0  0
 20 23  1  1  0  0  0
 21 22  1  0  0  0  0
 22 19  1  0  0  0  0
 23 19  1  0  0  0  0
 24 28  1  6  0  0  0
 24 30  1  0  0  0  0
 25 27  1  0  0  0  0
 26 25  1  0  0  0  0
 29 26  1  0  0  0  0
 29 24  1  0  0  0  0
 30 27  1  6  0  0  0
 30 20  1  0  0  0  0
 32 31  1  1  0  0  0
 32 33  1  0  0  0  0
 33 34  1  0  0  0  0
 36 35  2  0  0  0  0
 36 32  1  0  0  0  0
 37 36  1  0  0  0  0
 38 37  1  0  0  0  0
 39 40  1  6  0  0  0
 39 41  1  0  0  0  0
 39 38  1  0  0  0  0
 41 42  1  0  0  0  0
 42 44  1  0  0  0  0
 44 43  1  1  0  0  0
 45 46  2  0  0  0  0
 45 44  1  0  0  0  0
 47 53  1  1  0  0  0
 47 45  1  0  0  0  0
 48 47  1  1  0  0  0
 49 48  1  0  0  0  0
 50 51  1  0  0  0  0
 50 52  1  0  0  0  0
 51 49  1  0  0  0  0
 52 48  1  0  0  0  0
 53 54  1  0  0  0  0
 54 55  1  0  0  0  0
 55 56  1  0  0  0  0
 56 58  1  0  0  0  0
 58 57  1  0  0  0  0
M  END
>  <MODEL>
9

>  <REMARK>
 VINA RESULT:      -4.6      2.721      9.208
  Name = 
  29 active torsions:
  status: ('A' for Active; 'I' for Inactive)
    1  A    between atoms: C_2  and  C_29
    2  A    between atoms: C_2  and  C_31
    3  A    between atoms: O_3  and  C_19
    4  A    between atoms: O_3  and  C_23
    5  A    between atoms: N_4  and  C_7
    6  A    between atoms: C_5  and  C_26
    7  A    between atoms: C_7  and  C_41
    8  A    between atoms: C_9  and  O_40
    9  A    between atoms: C_10  and  C_15
   10  A    between atoms: C_10  and  O_40
   11  A    between atoms: C_12  and  C_20
   12  A    between atoms: C_12  and  C_49
   13  A    between atoms: C_15  and  C_27
   14  A    between atoms: C_20  and  C_26
   15  A    between atoms: C_21  and  C_30
   16  A    between atoms: C_21  and  C_31
   17  A    between atoms: C_24  and  C_28
   18  A    between atoms: C_24  and  C_57
   19  A    between atoms: C_26  and  C_30
   20  A    between atoms: C_27  and  C_28
   21  A    between atoms: C_28  and  C_41
   22  A    between atoms: C_29  and  C_43
   23  A    between atoms: N_34  and  C_53
   24  A    between atoms: C_38  and  C_57
   25  A    between atoms: C_39  and  N_55
   26  A    between atoms: C_39  and  C_57
   27  A    between atoms: C_43  and  N_55
   28  A    between atoms: C_47  and  C_49
   29  A    between atoms: C_47  and  C_58
                            x       y       z     vdW  Elec       q    Type
                         _______ _______ _______ _____ _____    ______ ____

>  <TORSDO>
F 29

$$$$
