=
 OpenBabel11072409333D

 58 64  0  0  1  0  0  0  0  0999 V2000
  188.9600  176.7600  142.5420 C   0  0  0  0  0  2  0  0  0  0  0  0
  193.0550  174.7170  143.5280 C   0  0  1  0  0  3  0  0  0  0  0  0
  191.7230  175.4750  143.5320 C   0  0  1  0  0  3  0  0  0  0  0  0
  189.5360  176.5760  145.0660 C   0  0  1  0  0  3  0  0  0  0  0  0
  191.3400  177.5470  142.8500 C   0  0  0  0  0  2  0  0  0  0  0  0
  193.2430  173.7080  144.6530 C   0  0  1  0  0  3  0  0  0  0  0  0
  190.0240  172.1200  141.2770 O   0  0  0  0  0  1  0  0  0  0  0  0
  190.0290  174.0000  142.5340 O   0  0  0  0  0  0  0  0  0  0  0  0
  191.6350  176.2660  142.3820 O   0  0  0  0  0  0  0  0  0  0  0  0
  190.4770  174.5960  143.7300 C   0  0  2  0  0  3  0  0  0  0  0  0
  191.3610  173.4500  139.4860 O   0  0  0  0  0  0  0  0  0  0  0  0
  192.0960  173.1770  141.7030 N   0  0  0  0  0  0  0  0  0  0  0  0
  190.7540  172.8220  142.2480 C   0  0  2  0  0  0  0  0  0  0  0  0
  189.2870  175.1690  144.5550 C   0  0  2  0  0  3  0  0  0  0  0  0
  193.6220  172.6290  143.6090 C   0  0  1  0  0  3  0  0  0  0  0  0
  188.5160  176.3620  143.9550 C   0  0  2  0  0  3  0  0  0  0  0  0
  193.2740  173.6020  142.4970 C   0  0  2  0  0  3  0  0  0  0  0  0
  189.9220  177.9430  142.4560 C   0  0  0  0  0  2  0  0  0  0  0  0
  192.3200  173.2490  140.2800 C   0  0  0  0  0  0  0  0  0  0  0  0
  196.1140  170.2100  142.6350 C   0  0  1  0  0  3  0  0  0  0  0  0
  195.5340  171.4550  144.6700 C   0  0  0  0  0  2  0  0  0  0  0  0
  196.1950  170.2560  144.1100 C   0  0  0  0  0  0  0  0  0  0  0  0
  196.5870  169.3250  144.7970 O   0  0  0  0  0  0  0  0  0  0  0  0
  195.2160  171.3910  142.3100 C   0  0  0  0  0  2  0  0  0  0  0  0
  197.4940  170.4180  142.0260 C   0  0  0  0  0  1  0  0  0  0  0  0
  195.0390  172.2110  143.5160 N   0  0  1  0  0  0  0  0  0  0  0  0
  187.5780  177.6960  146.0770 N   0  0  0  0  0  2  0  0  0  0  0  0
  188.7610  176.8980  146.3410 C   0  0  1  0  0  3  0  0  0  0  0  0
  188.2740  175.6180  146.9840 C   0  0  0  0  0  2  0  0  0  0  0  0
  186.9630  176.0010  147.6320 C   0  0  0  0  0  2  0  0  0  0  0  0
  186.7560  177.4640  147.2560 C   0  0  2  0  0  3  0  0  0  0  0  0
  185.2870  177.7850  146.9600 C   0  0  1  0  0  3  0  0  0  0  0  0
  184.8770  178.9410  147.6270 O   0  0  0  0  0  1  0  0  0  0  0  0
  183.7560  179.0890  143.7950 N   0  0  0  0  0  0  0  0  0  0  0  0
  183.7840  178.4960  141.1590 Cl  0  0  0  0  0  0  0  0  0  0  0  0
  184.2430  178.2600  142.8370 C   0  0  0  0  0  0  0  0  0  0  0  0
  184.0610  178.9140  145.1050 C   0  0  0  0  0  3  0  0  0  0  0  0
  185.4110  177.0020  144.5300 C   0  0  0  0  0  3  0  0  0  0  0  0
  185.0680  177.1880  143.1900 C   0  0  0  0  0  3  0  0  0  0  0  0
  184.9070  177.8730  145.5050 C   0  0  0  0  0  0  0  0  0  0  0  0
  189.5590  171.5530  143.9270 O   0  0  0  0  0  1  0  0  0  0  0  0
  190.8340  171.8720  143.4600 C   0  0  0  0  0  2  0  0  0  0  0  0
  193.6200  173.1010  139.7870 O   0  0  0  0  0  0  0  0  0  0  0  0
  194.1800  173.9790  138.8180 C   0  0  0  0  0  2  0  0  0  0  0  0
  194.5960  175.2670  139.5070 C   0  0  0  0  0  2  0  0  0  0  0  0
  196.9120  175.4400  139.0220 O   0  0  0  0  0  0  0  0  0  0  0  0
  196.0530  175.2480  139.8710 C   0  0  0  0  0  0  0  0  0  0  0  0
  197.9410  175.2030  141.4810 C   0  0  0  0  0  1  0  0  0  0  0  0
  196.4570  174.9200  141.2750 C   0  0  0  0  0  2  0  0  0  0  0  0
  194.2950  174.0860  145.5100 O   0  0  0  0  0  0  0  0  0  0  0  0
  194.4720  175.4780  145.3940 C   0  0  2  0  0  3  0  0  0  0  0  0
  195.6940  175.7980  144.8010 O   0  0  0  0  0  1  0  0  0  0  0  0
  194.2520  176.1830  146.7330 C   0  0  1  0  0  3  0  0  0  0  0  0
  194.9630  177.3700  146.7750 F   0  0  0  0  0  0  0  0  0  0  0  0
  192.6030  177.2340  148.0940 F   0  0  0  0  0  0  0  0  0  0  0  0
  192.7630  176.4590  146.9620 C   0  0  0  0  0  0  0  0  0  0  0  0
  192.0710  175.2810  147.1590 F   0  0  0  0  0  0  0  0  0  0  0  0
  192.2340  177.1210  145.8670 F   0  0  0  0  0  0  0  0  0  0  0  0
  1 16  1  0  0  0  0
  2  3  1  0  0  0  0
  2  6  1  0  0  0  0
  3 10  1  0  0  0  0
  4 28  1  0  0  0  0
  6 50  1  0  0  0  0
  7 13  1  0  0  0  0
  8 10  1  0  0  0  0
  9  5  1  0  0  0  0
  9  3  1  0  0  0  0
 10 14  1  0  0  0  0
 11 19  2  0  0  0  0
 12 13  1  0  0  0  0
 12 17  1  0  0  0  0
 13  8  1  0  0  0  0
 13 42  1  0  0  0  0
 14  4  1  0  0  0  0
 15  6  1  0  0  0  0
 16 14  1  0  0  0  0
 16  4  1  0  0  0  0
 17  2  1  0  0  0  0
 17 15  1  0  0  0  0
 18  1  1  0  0  0  0
 18  5  1  0  0  0  0
 19 12  1  0  0  0  0
 20 22  1  0  0  0  0
 22 21  1  0  0  0  0
 22 23  2  0  0  0  0
 24 20  1  0  0  0  0
 24 26  1  0  0  0  0
 25 20  1  0  0  0  0
 26 15  1  0  0  0  0
 26 21  1  0  0  0  0
 27 28  1  0  0  0  0
 27 31  1  0  0  0  0
 28 29  1  0  0  0  0
 29 30  1  0  0  0  0
 31 30  1  0  0  0  0
 32 31  1  0  0  0  0
 32 33  1  0  0  0  0
 34 37  1  0  0  0  0
 35 36  1  0  0  0  0
 36 39  1  0  0  0  0
 36 34  2  0  0  0  0
 37 40  2  0  0  0  0
 38 40  1  0  0  0  0
 39 38  2  0  0  0  0
 40 32  1  0  0  0  0
 42 41  1  0  0  0  0
 43 19  1  0  0  0  0
 44 45  1  0  0  0  0
 44 43  1  0  0  0  0
 45 47  1  0  0  0  0
 46 47  2  0  0  0  0
 47 49  1  0  0  0  0
 49 48  1  0  0  0  0
 51 50  1  0  0  0  0
 51 53  1  0  0  0  0
 52 51  1  0  0  0  0
 53 54  1  0  0  0  0
 53 56  1  0  0  0  0
 56 57  1  0  0  0  0
 56 55  1  0  0  0  0
 58 56  1  0  0  0  0
M  END
>  <MODEL>
1

>  <REMARK>
 VINA RESULT:      -7.7      0.000      0.000
  Name = 
  14 active torsions:
  status: ('A' for Active; 'I' for Inactive)
    1  A    between atoms: C_3  and  C_13
    2  A    between atoms: C_3  and  C_50
    3  A    between atoms: C_12  and  C_49
    4  A    between atoms: C_13  and  O_32
    5  A    between atoms: C_16  and  C_35
    6  A    between atoms: C_19  and  C_39
    7  A    between atoms: O_21  and  C_47
    8  A    between atoms: O_21  and  C_55
    9  A    between atoms: C_22  and  O_32
   10  A    between atoms: C_31  and  C_42
   11  A    between atoms: C_31  and  C_58
   12  A    between atoms: C_41  and  N_57
   13  A    between atoms: C_47  and  C_53
   14  A    between atoms: C_49  and  C_53
                            x       y       z     vdW  Elec       q    Type
                         _______ _______ _______ _____ _____    ______ ____

>  <TORSDO>
F 14

$$$$
=
 OpenBabel11072409333D

 58 64  0  0  1  0  0  0  0  0999 V2000
  189.9770  176.1720  145.1590 C   0  0  0  0  0  2  0  0  0  0  0  0
  191.7940  172.3700  143.1190 C   0  0  1  0  0  3  0  0  0  0  0  0
  190.9450  173.5640  143.5690 C   0  0  1  0  0  3  0  0  0  0  0  0
  188.8100  175.4150  142.9680 C   0  0  1  0  0  3  0  0  0  0  0  0
  189.5860  173.6820  145.3130 C   0  0  0  0  0  2  0  0  0  0  0  0
  192.0100  172.2420  141.6170 C   0  0  1  0  0  3  0  0  0  0  0  0
  194.6270  175.9460  143.5460 O   0  0  0  0  0  1  0  0  0  0  0  0
  192.4010  175.5440  143.5800 O   0  0  0  0  0  0  0  0  0  0  0  0
  190.9360  173.6290  144.9660 O   0  0  0  0  0  0  0  0  0  0  0  0
  191.3260  174.9080  142.9270 C   0  0  2  0  0  3  0  0  0  0  0  0
  194.7920  174.5800  145.7530 O   0  0  0  0  0  0  0  0  0  0  0  0
  193.8960  173.7070  143.7620 N   0  0  0  0  0  0  0  0  0  0  0  0
  193.6410  175.0350  143.1330 C   0  0  2  0  0  0  0  0  0  0  0  0
  190.1910  175.9210  142.5930 C   0  0  2  0  0  3  0  0  0  0  0  0
  193.5360  172.1250  141.8560 C   0  0  1  0  0  3  0  0  0  0  0  0
  189.4280  176.5490  143.7770 C   0  0  2  0  0  3  0  0  0  0  0  0
  193.3130  172.4140  143.3300 C   0  0  2  0  0  3  0  0  0  0  0  0
  189.2380  175.0510  145.8850 C   0  0  0  0  0  2  0  0  0  0  0  0
  194.6770  173.5990  144.9700 C   0  0  0  0  0  0  0  0  0  0  0  0
  196.4920  170.1190  141.3560 C   0  0  1  0  0  3  0  0  0  0  0  0
  194.3010  170.3700  140.2780 C   0  0  0  0  0  2  0  0  0  0  0  0
  195.7080  169.9450  140.1150 C   0  0  0  0  0  0  0  0  0  0  0  0
  196.2040  169.6700  139.0330 O   0  0  0  0  0  0  0  0  0  0  0  0
  195.5140  170.8310  142.2750 C   0  0  0  0  0  2  0  0  0  0  0  0
  196.8620  168.7620  141.9380 C   0  0  0  0  0  1  0  0  0  0  0  0
  194.1740  170.8020  141.6720 N   0  0  1  0  0  0  0  0  0  0  0  0
  186.5710  176.4620  142.9150 N   0  0  0  0  0  2  0  0  0  0  0  0
  187.6980  176.0190  142.1150 C   0  0  1  0  0  3  0  0  0  0  0  0
  188.2110  177.2450  141.3910 C   0  0  0  0  0  2  0  0  0  0  0  0
  187.0090  178.1560  141.3010 C   0  0  0  0  0  2  0  0  0  0  0  0
  185.9010  177.4150  142.0410 C   0  0  2  0  0  3  0  0  0  0  0  0
  185.0130  178.3610  142.8550 C   0  0  1  0  0  3  0  0  0  0  0  0
  183.6590  178.0900  142.6470 O   0  0  0  0  0  1  0  0  0  0  0  0
  184.4090  178.4760  146.5540 N   0  0  0  0  0  0  0  0  0  0  0  0
  185.8680  178.4330  148.8280 Cl  0  0  0  0  0  0  0  0  0  0  0  0
  185.6570  178.4100  147.0860 C   0  0  0  0  0  0  0  0  0  0  0  0
  184.2110  178.4950  145.2120 C   0  0  0  0  0  3  0  0  0  0  0  0
  186.5930  178.3730  144.8650 C   0  0  0  0  0  3  0  0  0  0  0  0
  186.7760  178.3740  146.2480 C   0  0  0  0  0  3  0  0  0  0  0  0
  185.2980  178.4320  144.3320 C   0  0  0  0  0  0  0  0  0  0  0  0
  194.3660  176.1470  141.1100 O   0  0  0  0  0  1  0  0  0  0  0  0
  193.7430  174.9980  141.5960 C   0  0  0  0  0  2  0  0  0  0  0  0
  195.3010  172.3840  145.2700 O   0  0  0  0  0  0  0  0  0  0  0  0
  196.5860  172.3080  145.8750 C   0  0  0  0  0  2  0  0  0  0  0  0
  197.2190  170.9760  145.5150 C   0  0  0  0  0  2  0  0  0  0  0  0
  196.6100  169.7110  147.4270 O   0  0  0  0  0  0  0  0  0  0  0  0
  196.5340  169.8360  146.2130 C   0  0  0  0  0  0  0  0  0  0  0  0
  194.3140  169.0890  145.3950 C   0  0  0  0  0  1  0  0  0  0  0  0
  195.8120  168.8040  145.4030 C   0  0  0  0  0  2  0  0  0  0  0  0
  191.4070  171.0750  141.1100 O   0  0  0  0  0  0  0  0  0  0  0  0
  190.6950  171.4230  139.9460 C   0  0  2  0  0  3  0  0  0  0  0  0
  191.3850  171.0630  138.7880 O   0  0  0  0  0  1  0  0  0  0  0  0
  190.2780  172.8930  139.9640 C   0  0  1  0  0  3  0  0  0  0  0  0
  190.8260  173.5630  138.8840 F   0  0  0  0  0  0  0  0  0  0  0  0
  188.4020  174.2970  139.5330 F   0  0  0  0  0  0  0  0  0  0  0  0
  188.7530  173.0240  139.9410 C   0  0  0  0  0  0  0  0  0  0  0  0
  188.2250  172.8280  141.2010 F   0  0  0  0  0  0  0  0  0  0  0  0
  188.2140  172.0920  139.0700 F   0  0  0  0  0  0  0  0  0  0  0  0
  1 18  1  0  0  0  0
  2 17  1  0  0  0  0
  2  3  1  0  0  0  0
  3  9  1  0  0  0  0
  4 16  1  0  0  0  0
  5 18  1  0  0  0  0
  6 15  1  0  0  0  0
  6  2  1  0  0  0  0
  9  5  1  0  0  0  0
 10  3  1  0  0  0  0
 10  8  1  0  0  0  0
 12 19  1  0  0  0  0
 13  7  1  0  0  0  0
 13  8  1  0  0  0  0
 13 12  1  0  0  0  0
 14 10  1  0  0  0  0
 14  4  1  0  0  0  0
 14 16  1  0  0  0  0
 15 17  1  0  0  0  0
 16  1  1  0  0  0  0
 17 12  1  0  0  0  0
 19 43  1  0  0  0  0
 19 11  2  0  0  0  0
 20 25  1  0  0  0  0
 20 24  1  0  0  0  0
 21 26  1  0  0  0  0
 22 21  1  0  0  0  0
 22 20  1  0  0  0  0
 23 22  2  0  0  0  0
 26 15  1  0  0  0  0
 26 24  1  0  0  0  0
 28 27  1  0  0  0  0
 28  4  1  0  0  0  0
 29 28  1  0  0  0  0
 30 29  1  0  0  0  0
 30 31  1  0  0  0  0
 31 32  1  0  0  0  0
 31 27  1  0  0  0  0
 32 40  1  0  0  0  0
 33 32  1  0  0  0  0
 34 36  1  0  0  0  0
 36 35  1  0  0  0  0
 37 34  2  0  0  0  0
 38 39  1  0  0  0  0
 39 36  2  0  0  0  0
 40 38  2  0  0  0  0
 40 37  1  0  0  0  0
 41 42  1  0  0  0  0
 42 13  1  0  0  0  0
 43 44  1  0  0  0  0
 45 44  1  0  0  0  0
 45 47  1  0  0  0  0
 47 46  2  0  0  0  0
 48 49  1  0  0  0  0
 49 47  1  0  0  0  0
 50  6  1  0  0  0  0
 51 53  1  0  0  0  0
 51 50  1  0  0  0  0
 52 51  1  0  0  0  0
 54 53  1  0  0  0  0
 55 56  1  0  0  0  0
 56 53  1  0  0  0  0
 56 57  1  0  0  0  0
 58 56  1  0  0  0  0
M  END
>  <MODEL>
2

>  <REMARK>
 VINA RESULT:      -7.6      3.218      5.605
  Name = 
  14 active torsions:
  status: ('A' for Active; 'I' for Inactive)
    1  A    between atoms: C_3  and  C_13
    2  A    between atoms: C_3  and  C_50
    3  A    between atoms: C_12  and  C_49
    4  A    between atoms: C_13  and  O_32
    5  A    between atoms: C_16  and  C_35
    6  A    between atoms: C_19  and  C_39
    7  A    between atoms: O_21  and  C_47
    8  A    between atoms: O_21  and  C_55
    9  A    between atoms: C_22  and  O_32
   10  A    between atoms: C_31  and  C_42
   11  A    between atoms: C_31  and  C_58
   12  A    between atoms: C_41  and  N_57
   13  A    between atoms: C_47  and  C_53
   14  A    between atoms: C_49  and  C_53
                            x       y       z     vdW  Elec       q    Type
                         _______ _______ _______ _____ _____    ______ ____

>  <TORSDO>
F 14

$$$$
=
 OpenBabel11072409333D

 58 64  0  0  1  0  0  0  0  0999 V2000
  191.3810  173.8300  140.9330 C   0  0  0  0  0  2  0  0  0  0  0  0
  189.1860  175.0610  144.8800 C   0  0  1  0  0  3  0  0  0  0  0  0
  190.1570  174.5750  143.7980 C   0  0  1  0  0  3  0  0  0  0  0  0
  192.8760  173.9470  143.0510 C   0  0  1  0  0  3  0  0  0  0  0  0
  190.1860  172.6040  142.7890 C   0  0  0  0  0  2  0  0  0  0  0  0
  189.7660  176.0350  145.8980 C   0  0  1  0  0  3  0  0  0  0  0  0
  189.0870  178.1530  141.5000 O   0  0  0  0  0  1  0  0  0  0  0  0
  190.2930  176.3310  142.0840 O   0  0  0  0  0  0  0  0  0  0  0  0
  189.4630  173.7950  142.8680 O   0  0  0  0  0  0  0  0  0  0  0  0
  190.9850  175.6820  143.1260 C   0  0  2  0  0  3  0  0  0  0  0  0
  187.0690  176.5570  141.1260 O   0  0  0  0  0  0  0  0  0  0  0  0
  188.2180  176.7230  143.1710 N   0  0  0  0  0  0  0  0  0  0  0  0
  189.4440  177.3410  142.5880 C   0  0  2  0  0  0  0  0  0  0  0  0
  192.4540  175.3660  142.7160 C   0  0  2  0  0  3  0  0  0  0  0  0
  188.5850  177.0020  145.6310 C   0  0  1  0  0  3  0  0  0  0  0  0
  192.6720  174.3340  141.5920 C   0  0  2  0  0  3  0  0  0  0  0  0
  188.1130  176.0930  144.5100 C   0  0  2  0  0  3  0  0  0  0  0  0
  190.8630  172.4830  141.4290 C   0  0  0  0  0  2  0  0  0  0  0  0
  187.0160  176.5830  142.3860 C   0  0  0  0  0  0  0  0  0  0  0  0
  185.7030  178.7070  146.9720 C   0  0  1  0  0  3  0  0  0  0  0  0
  187.9030  177.9990  147.7980 C   0  0  0  0  0  2  0  0  0  0  0  0
  186.7690  178.9320  147.9710 C   0  0  0  0  0  0  0  0  0  0  0  0
  186.8000  179.8930  148.7250 O   0  0  0  0  0  0  0  0  0  0  0  0
  186.3170  177.6640  146.0540 C   0  0  0  0  0  2  0  0  0  0  0  0
  184.4600  178.1440  147.6450 C   0  0  0  0  0  1  0  0  0  0  0  0
  187.5410  177.1360  146.6720 N   0  0  1  0  0  0  0  0  0  0  0  0
  195.0000  172.9250  142.3060 N   0  0  0  0  0  2  0  0  0  0  0  0
  194.3780  173.8050  143.2780 C   0  0  1  0  0  3  0  0  0  0  0  0
  195.0530  175.1500  143.1230 C   0  0  0  0  0  2  0  0  0  0  0  0
  196.4140  174.8240  142.5560 C   0  0  0  0  0  2  0  0  0  0  0  0
  196.4030  173.3110  142.3620 C   0  0  2  0  0  3  0  0  0  0  0  0
  197.1310  172.8830  141.0850 C   0  0  1  0  0  3  0  0  0  0  0  0
  196.8880  171.5410  140.7870 O   0  0  0  0  0  1  0  0  0  0  0  0
  197.7960  175.2090  138.2190 N   0  0  0  0  0  0  0  0  0  0  0  0
  196.4660  176.1930  136.0830 Cl  0  0  0  0  0  0  0  0  0  0  0  0
  196.6240  175.2190  137.5340 C   0  0  0  0  0  0  0  0  0  0  0  0
  197.9410  174.4950  139.3630 C   0  0  0  0  0  3  0  0  0  0  0  0
  195.6620  173.7360  139.1740 C   0  0  0  0  0  3  0  0  0  0  0  0
  195.5270  174.4940  138.0100 C   0  0  0  0  0  3  0  0  0  0  0  0
  196.8820  173.7300  139.8640 C   0  0  0  0  0  0  0  0  0  0  0  0
  191.3860  178.7090  143.0500 O   0  0  0  0  0  1  0  0  0  0  0  0
  190.1660  178.2800  143.5740 C   0  0  0  0  0  2  0  0  0  0  0  0
  185.7860  176.4670  143.0400 O   0  0  0  0  0  0  0  0  0  0  0  0
  184.9570  177.5880  143.3230 C   0  0  0  0  0  2  0  0  0  0  0  0
  184.9630  178.5170  142.1220 C   0  0  0  0  0  2  0  0  0  0  0  0
  184.0500  178.0410  139.9850 O   0  0  0  0  0  0  0  0  0  0  0  0
  183.8380  178.2010  141.1780 C   0  0  0  0  0  0  0  0  0  0  0  0
  181.4420  178.4100  140.5680 C   0  0  0  0  0  1  0  0  0  0  0  0
  182.4340  178.1540  141.6970 C   0  0  0  0  0  2  0  0  0  0  0  0
  189.7830  175.4770  147.1900 O   0  0  0  0  0  0  0  0  0  0  0  0
  191.1240  175.3920  147.6110 C   0  0  2  0  0  3  0  0  0  0  0  0
  191.2250  175.0260  148.9530 O   0  0  0  0  0  1  0  0  0  0  0  0
  191.8970  176.6680  147.2760 C   0  0  1  0  0  3  0  0  0  0  0  0
  192.2360  177.3440  148.4350 F   0  0  0  0  0  0  0  0  0  0  0  0
  193.1360  177.0210  145.2720 F   0  0  0  0  0  0  0  0  0  0  0  0
  193.1600  176.3410  146.4740 C   0  0  0  0  0  0  0  0  0  0  0  0
  193.2250  174.9920  146.1910 F   0  0  0  0  0  0  0  0  0  0  0  0
  194.2830  176.7110  147.1950 F   0  0  0  0  0  0  0  0  0  0  0  0
  1 18  1  0  0  0  0
  1 16  1  0  0  0  0
  2  6  1  0  0  0  0
  3  2  1  0  0  0  0
  4 28  1  0  0  0  0
  5  9  1  0  0  0  0
  6 50  1  0  0  0  0
  7 13  1  0  0  0  0
  8 13  1  0  0  0  0
  8 10  1  0  0  0  0
  9  3  1  0  0  0  0
 10  3  1  0  0  0  0
 11 19  2  0  0  0  0
 12 17  1  0  0  0  0
 13 12  1  0  0  0  0
 13 42  1  0  0  0  0
 14  4  1  0  0  0  0
 14 10  1  0  0  0  0
 15  6  1  0  0  0  0
 15 26  1  0  0  0  0
 16 14  1  0  0  0  0
 16  4  1  0  0  0  0
 17  2  1  0  0  0  0
 17 15  1  0  0  0  0
 18  5  1  0  0  0  0
 19 43  1  0  0  0  0
 19 12  1  0  0  0  0
 20 25  1  0  0  0  0
 20 22  1  0  0  0  0
 21 22  1  0  0  0  0
 22 23  2  0  0  0  0
 24 26  1  0  0  0  0
 24 20  1  0  0  0  0
 26 21  1  0  0  0  0
 27 31  1  0  0  0  0
 27 28  1  0  0  0  0
 29 28  1  0  0  0  0
 30 29  1  0  0  0  0
 31 30  1  0  0  0  0
 32 31  1  0  0  0  0
 33 32  1  0  0  0  0
 34 37  1  0  0  0  0
 35 36  1  0  0  0  0
 36 39  1  0  0  0  0
 36 34  2  0  0  0  0
 37 40  2  0  0  0  0
 38 40  1  0  0  0  0
 39 38  2  0  0  0  0
 40 32  1  0  0  0  0
 41 42  1  0  0  0  0
 43 44  1  0  0  0  0
 45 44  1  0  0  0  0
 46 47  2  0  0  0  0
 47 49  1  0  0  0  0
 47 45  1  0  0  0  0
 48 49  1  0  0  0  0
 50 51  1  0  0  0  0
 51 52  1  0  0  0  0
 53 51  1  0  0  0  0
 53 54  1  0  0  0  0
 55 56  1  0  0  0  0
 56 58  1  0  0  0  0
 56 53  1  0  0  0  0
 57 56  1  0  0  0  0
M  END
>  <MODEL>
3

>  <REMARK>
 VINA RESULT:      -7.6      3.011      9.501
  Name = 
  14 active torsions:
  status: ('A' for Active; 'I' for Inactive)
    1  A    between atoms: C_3  and  C_13
    2  A    between atoms: C_3  and  C_50
    3  A    between atoms: C_12  and  C_49
    4  A    between atoms: C_13  and  O_32
    5  A    between atoms: C_16  and  C_35
    6  A    between atoms: C_19  and  C_39
    7  A    between atoms: O_21  and  C_47
    8  A    between atoms: O_21  and  C_55
    9  A    between atoms: C_22  and  O_32
   10  A    between atoms: C_31  and  C_42
   11  A    between atoms: C_31  and  C_58
   12  A    between atoms: C_41  and  N_57
   13  A    between atoms: C_47  and  C_53
   14  A    between atoms: C_49  and  C_53
                            x       y       z     vdW  Elec       q    Type
                         _______ _______ _______ _____ _____    ______ ____

>  <TORSDO>
F 14

$$$$
=
 OpenBabel11072409333D

 58 64  0  0  1  0  0  0  0  0999 V2000
  188.9170  172.9270  142.8400 C   0  0  0  0  0  2  0  0  0  0  0  0
  192.9740  174.2200  140.8960 C   0  0  1  0  0  3  0  0  0  0  0  0
  191.6930  174.0730  141.7230 C   0  0  1  0  0  3  0  0  0  0  0  0
  190.2260  174.7710  144.1120 C   0  0  1  0  0  3  0  0  0  0  0  0
  189.6360  174.6650  141.1550 C   0  0  0  0  0  2  0  0  0  0  0  0
  194.2490  174.4650  141.6920 C   0  0  1  0  0  3  0  0  0  0  0  0
  192.6700  169.8170  142.1280 O   0  0  0  0  0  1  0  0  0  0  0  0
  191.6300  171.7720  142.5870 O   0  0  0  0  0  0  0  0  0  0  0  0
  190.6320  173.7270  140.8790 O   0  0  0  0  0  0  0  0  0  0  0  0
  191.8060  173.1270  142.9310 C   0  0  2  0  0  3  0  0  0  0  0  0
  191.7040  169.9990  139.7200 O   0  0  0  0  0  0  0  0  0  0  0  0
  193.0590  171.6570  140.6930 N   0  0  0  0  0  0  0  0  0  0  0  0
  192.8310  171.2110  142.0980 C   0  0  2  0  0  0  0  0  0  0  0  0
  191.0250  173.4850  144.2300 C   0  0  2  0  0  3  0  0  0  0  0  0
  194.9330  173.2970  140.9380 C   0  0  1  0  0  3  0  0  0  0  0  0
  189.4850  173.4410  144.1690 C   0  0  2  0  0  3  0  0  0  0  0  0
  193.6080  172.9690  140.2740 C   0  0  2  0  0  3  0  0  0  0  0  0
  188.4570  173.9980  141.8540 C   0  0  0  0  0  2  0  0  0  0  0  0
  192.6290  170.8440  139.5810 C   0  0  0  0  0  0  0  0  0  0  0  0
  196.2070  173.0310  137.5740 C   0  0  1  0  0  3  0  0  0  0  0  0
  197.0700  172.6700  139.8440 C   0  0  0  0  0  2  0  0  0  0  0  0
  197.2100  172.3380  138.4090 C   0  0  0  0  0  0  0  0  0  0  0  0
  197.9400  171.4510  137.9950 O   0  0  0  0  0  0  0  0  0  0  0  0
  195.3200  173.7080  138.6050 C   0  0  0  0  0  2  0  0  0  0  0  0
  196.8830  174.0770  136.6990 C   0  0  0  0  0  1  0  0  0  0  0  0
  195.9610  173.6240  139.9250 N   0  0  1  0  0  0  0  0  0  0  0  0
  188.9740  176.4810  145.3850 N   0  0  0  0  0  2  0  0  0  0  0  0
  190.0110  175.4680  145.4530 C   0  0  1  0  0  3  0  0  0  0  0  0
  189.5560  174.4640  146.4890 C   0  0  0  0  0  2  0  0  0  0  0  0
  188.6410  175.2530  147.3970 C   0  0  0  0  0  2  0  0  0  0  0  0
  188.5830  176.6450  146.7770 C   0  0  2  0  0  3  0  0  0  0  0  0
  187.1860  177.2660  146.8750 C   0  0  1  0  0  3  0  0  0  0  0  0
  187.2070  178.4450  147.6220 O   0  0  0  0  0  1  0  0  0  0  0  0
  185.4990  179.0870  144.0640 N   0  0  0  0  0  0  0  0  0  0  0  0
  184.5000  178.5200  141.6190 Cl  0  0  0  0  0  0  0  0  0  0  0  0
  185.2840  178.1190  143.1370 C   0  0  0  0  0  0  0  0  0  0  0  0
  186.0700  178.8060  145.2620 C   0  0  0  0  0  3  0  0  0  0  0  0
  186.2480  176.4880  144.6280 C   0  0  0  0  0  3  0  0  0  0  0  0
  185.6400  176.7940  143.4100 C   0  0  0  0  0  3  0  0  0  0  0  0
  186.4720  177.5010  145.5700 C   0  0  0  0  0  0  0  0  0  0  0  0
  194.0240  170.6560  144.1290 O   0  0  0  0  0  1  0  0  0  0  0  0
  194.0330  171.5000  143.0180 C   0  0  0  0  0  2  0  0  0  0  0  0
  193.2480  171.0090  138.3380 O   0  0  0  0  0  0  0  0  0  0  0  0
  192.5160  171.1390  137.1260 C   0  0  0  0  0  2  0  0  0  0  0  0
  191.8600  172.5080  137.0950 C   0  0  0  0  0  2  0  0  0  0  0  0
  189.8140  171.3140  137.2290 O   0  0  0  0  0  0  0  0  0  0  0  0
  190.3620  172.3980  137.0910 C   0  0  0  0  0  0  0  0  0  0  0  0
  188.4030  173.7120  137.8610 C   0  0  0  0  0  1  0  0  0  0  0  0
  189.5350  173.6220  136.8450 C   0  0  0  0  0  2  0  0  0  0  0  0
  194.7910  175.7350  141.4150 O   0  0  0  0  0  0  0  0  0  0  0  0
  195.2350  176.2930  142.6290 C   0  0  2  0  0  3  0  0  0  0  0  0
  196.6120  176.5190  142.6230 O   0  0  0  0  0  1  0  0  0  0  0  0
  194.7660  175.4690  143.8280 C   0  0  1  0  0  3  0  0  0  0  0  0
  195.8520  175.0280  144.5630 F   0  0  0  0  0  0  0  0  0  0  0  0
  194.5430  177.3200  145.3110 F   0  0  0  0  0  0  0  0  0  0  0  0
  193.8330  176.2930  144.7200 C   0  0  0  0  0  0  0  0  0  0  0  0
  193.3050  175.5140  145.7290 F   0  0  0  0  0  0  0  0  0  0  0  0
  192.8000  176.8190  143.9610 F   0  0  0  0  0  0  0  0  0  0  0  0
  1 16  1  0  0  0  0
  2  6  1  0  0  0  0
  2  3  1  0  0  0  0
  3 10  1  0  0  0  0
  4 16  1  0  0  0  0
  4 14  1  0  0  0  0
  4 28  1  0  0  0  0
  5 18  1  0  0  0  0
  8 10  1  0  0  0  0
  9  5  1  0  0  0  0
  9  3  1  0  0  0  0
 10 14  1  0  0  0  0
 12 13  1  0  0  0  0
 13  7  1  0  0  0  0
 13  8  1  0  0  0  0
 13 42  1  0  0  0  0
 15  6  1  0  0  0  0
 16 14  1  0  0  0  0
 17 12  1  0  0  0  0
 17  2  1  0  0  0  0
 17 15  1  0  0  0  0
 18  1  1  0  0  0  0
 19 11  2  0  0  0  0
 19 12  1  0  0  0  0
 20 22  1  0  0  0  0
 20 24  1  0  0  0  0
 21 26  1  0  0  0  0
 22 21  1  0  0  0  0
 23 22  2  0  0  0  0
 24 26  1  0  0  0  0
 25 20  1  0  0  0  0
 26 15  1  0  0  0  0
 27 28  1  0  0  0  0
 27 31  1  0  0  0  0
 28 29  1  0  0  0  0
 29 30  1  0  0  0  0
 31 32  1  0  0  0  0
 31 30  1  0  0  0  0
 32 33  1  0  0  0  0
 34 37  1  0  0  0  0
 35 36  1  0  0  0  0
 36 39  1  0  0  0  0
 36 34  2  0  0  0  0
 37 40  2  0  0  0  0
 38 40  1  0  0  0  0
 39 38  2  0  0  0  0
 40 32  1  0  0  0  0
 42 41  1  0  0  0  0
 43 19  1  0  0  0  0
 44 43  1  0  0  0  0
 45 44  1  0  0  0  0
 47 45  1  0  0  0  0
 47 46  2  0  0  0  0
 49 47  1  0  0  0  0
 49 48  1  0  0  0  0
 50  6  1  0  0  0  0
 50 51  1  0  0  0  0
 51 53  1  0  0  0  0
 52 51  1  0  0  0  0
 53 54  1  0  0  0  0
 53 56  1  0  0  0  0
 56 55  1  0  0  0  0
 56 57  1  0  0  0  0
 58 56  1  0  0  0  0
M  END
>  <MODEL>
4

>  <REMARK>
 VINA RESULT:      -7.1      2.410      3.910
  Name = 
  14 active torsions:
  status: ('A' for Active; 'I' for Inactive)
    1  A    between atoms: C_3  and  C_13
    2  A    between atoms: C_3  and  C_50
    3  A    between atoms: C_12  and  C_49
    4  A    between atoms: C_13  and  O_32
    5  A    between atoms: C_16  and  C_35
    6  A    between atoms: C_19  and  C_39
    7  A    between atoms: O_21  and  C_47
    8  A    between atoms: O_21  and  C_55
    9  A    between atoms: C_22  and  O_32
   10  A    between atoms: C_31  and  C_42
   11  A    between atoms: C_31  and  C_58
   12  A    between atoms: C_41  and  N_57
   13  A    between atoms: C_47  and  C_53
   14  A    between atoms: C_49  and  C_53
                            x       y       z     vdW  Elec       q    Type
                         _______ _______ _______ _____ _____    ______ ____

>  <TORSDO>
F 14

$$$$
=
 OpenBabel11072409333D

 58 64  0  0  1  0  0  0  0  0999 V2000
  193.3630  176.3910  146.1500 C   0  0  0  0  0  2  0  0  0  0  0  0
  193.8440  172.9680  142.9940 C   0  0  1  0  0  3  0  0  0  0  0  0
  193.3810  174.1250  143.8850 C   0  0  1  0  0  3  0  0  0  0  0  0
  191.5610  176.3330  144.2830 C   0  0  1  0  0  3  0  0  0  0  0  0
  192.5520  174.0100  145.9350 C   0  0  0  0  0  2  0  0  0  0  0  0
  193.6490  173.1690  141.4970 C   0  0  1  0  0  3  0  0  0  0  0  0
  197.3270  175.9330  143.2610 O   0  0  0  0  0  1  0  0  0  0  0  0
  195.1470  175.8350  143.8540 O   0  0  0  0  0  0  0  0  0  0  0  0
  193.7360  173.8600  145.2120 O   0  0  0  0  0  0  0  0  0  0  0  0
  193.8410  175.5190  143.4280 C   0  0  2  0  0  3  0  0  0  0  0  0
  197.7740  174.0780  145.0270 O   0  0  0  0  0  0  0  0  0  0  0  0
  196.2570  173.8240  143.2490 N   0  0  0  0  0  0  0  0  0  0  0  0
  196.1140  175.2850  142.9830 C   0  0  2  0  0  0  0  0  0  0  0  0
  192.8750  176.7240  143.6310 C   0  0  2  0  0  3  0  0  0  0  0  0
  195.1340  172.7960  141.2620 C   0  0  1  0  0  3  0  0  0  0  0  0
  192.5680  177.1520  145.0800 C   0  0  2  0  0  3  0  0  0  0  0  0
  195.3470  172.7580  142.7650 C   0  0  2  0  0  3  0  0  0  0  0  0
  192.6280  175.2400  146.8320 C   0  0  0  0  0  2  0  0  0  0  0  0
  197.2800  173.3320  144.1390 C   0  0  0  0  0  0  0  0  0  0  0  0
  197.4940  170.5020  139.7860 C   0  0  1  0  0  3  0  0  0  0  0  0
  195.2980  171.4290  139.1980 C   0  0  0  0  0  2  0  0  0  0  0  0
  196.5480  170.8180  138.6960 C   0  0  0  0  0  0  0  0  0  0  0  0
  196.8370  170.7620  137.5100 O   0  0  0  0  0  0  0  0  0  0  0  0
  196.8150  171.1030  141.0060 C   0  0  0  0  0  2  0  0  0  0  0  0
  197.6250  168.9950  139.9500 C   0  0  0  0  0  1  0  0  0  0  0  0
  195.4390  171.4810  140.6560 N   0  0  1  0  0  0  0  0  0  0  0  0
  189.8060  176.9140  142.6420 N   0  0  0  0  0  2  0  0  0  0  0  0
  190.4080  177.2630  143.9150 C   0  0  1  0  0  3  0  0  0  0  0  0
  189.3080  177.1540  144.9480 C   0  0  0  0  0  2  0  0  0  0  0  0
  188.0360  177.3790  144.1640 C   0  0  0  0  0  2  0  0  0  0  0  0
  188.4920  177.5360  142.7180 C   0  0  2  0  0  3  0  0  0  0  0  0
  187.5260  176.8770  141.7290 C   0  0  1  0  0  3  0  0  0  0  0  0
  187.4980  175.4910  141.8940 O   0  0  0  0  0  1  0  0  0  0  0  0
  184.2800  178.2090  140.4040 N   0  0  0  0  0  0  0  0  0  0  0  0
  181.8410  178.8690  141.3620 Cl  0  0  0  0  0  0  0  0  0  0  0  0
  183.4900  178.2850  141.5060 C   0  0  0  0  0  0  0  0  0  0  0  0
  185.5690  177.7960  140.4850 C   0  0  0  0  0  3  0  0  0  0  0  0
  185.3210  177.4990  142.8630 C   0  0  0  0  0  3  0  0  0  0  0  0
  184.0030  177.9470  142.7620 C   0  0  0  0  0  3  0  0  0  0  0  0
  186.1200  177.4180  141.7150 C   0  0  0  0  0  0  0  0  0  0  0  0
  196.8690  176.3060  140.9230 O   0  0  0  0  0  1  0  0  0  0  0  0
  195.8180  175.5970  141.5030 C   0  0  0  0  0  2  0  0  0  0  0  0
  197.7130  172.0090  144.0120 O   0  0  0  0  0  0  0  0  0  0  0  0
  197.6580  171.0750  145.0830 C   0  0  0  0  0  2  0  0  0  0  0  0
  196.2780  170.4420  145.1100 C   0  0  0  0  0  2  0  0  0  0  0  0
  196.8930  169.6640  147.2650 O   0  0  0  0  0  0  0  0  0  0  0  0
  196.0600  169.6540  146.3700 C   0  0  0  0  0  0  0  0  0  0  0  0
  194.7510  168.2050  147.9000 C   0  0  0  0  0  1  0  0  0  0  0  0
  194.8420  168.7910  146.4960 C   0  0  0  0  0  2  0  0  0  0  0  0
  192.7250  172.2440  140.9720 O   0  0  0  0  0  0  0  0  0  0  0  0
  191.9190  172.9180  140.0340 C   0  0  2  0  0  3  0  0  0  0  0  0
  192.4580  174.1550  139.6800 O   0  0  0  0  0  1  0  0  0  0  0  0
  190.4680  173.0080  140.5070 C   0  0  1  0  0  3  0  0  0  0  0  0
  190.3110  174.0720  141.3790 F   0  0  0  0  0  0  0  0  0  0  0  0
  188.8690  174.3820  139.3980 F   0  0  0  0  0  0  0  0  0  0  0  0
  189.5190  173.1660  139.3160 C   0  0  0  0  0  0  0  0  0  0  0  0
  188.5570  172.1760  139.3220 F   0  0  0  0  0  0  0  0  0  0  0  0
  190.2350  173.1000  138.1320 F   0  0  0  0  0  0  0  0  0  0  0  0
  1 18  1  0  0  0  0
  2  3  1  0  0  0  0
  3  9  1  0  0  0  0
  4 16  1  0  0  0  0
  5 18  1  0  0  0  0
  6  2  1  0  0  0  0
  9  5  1  0  0  0  0
 10 14  1  0  0  0  0
 10  8  1  0  0  0  0
 10  3  1  0  0  0  0
 12 19  1  0  0  0  0
 13 12  1  0  0  0  0
 13  7  1  0  0  0  0
 13  8  1  0  0  0  0
 14  4  1  0  0  0  0
 14 16  1  0  0  0  0
 15  6  1  0  0  0  0
 15 17  1  0  0  0  0
 16  1  1  0  0  0  0
 17  2  1  0  0  0  0
 17 12  1  0  0  0  0
 19 11  2  0  0  0  0
 20 25  1  0  0  0  0
 20 24  1  0  0  0  0
 21 26  1  0  0  0  0
 22 21  1  0  0  0  0
 22 20  1  0  0  0  0
 23 22  2  0  0  0  0
 26 24  1  0  0  0  0
 26 15  1  0  0  0  0
 27 31  1  0  0  0  0
 27 28  1  0  0  0  0
 28  4  1  0  0  0  0
 28 29  1  0  0  0  0
 30 29  1  0  0  0  0
 31 30  1  0  0  0  0
 32 33  1  0  0  0  0
 32 31  1  0  0  0  0
 34 37  2  0  0  0  0
 34 36  1  0  0  0  0
 35 36  1  0  0  0  0
 36 39  2  0  0  0  0
 37 40  1  0  0  0  0
 39 38  1  0  0  0  0
 40 32  1  0  0  0  0
 40 38  2  0  0  0  0
 41 42  1  0  0  0  0
 42 13  1  0  0  0  0
 43 19  1  0  0  0  0
 43 44  1  0  0  0  0
 44 45  1  0  0  0  0
 45 47  1  0  0  0  0
 47 49  1  0  0  0  0
 47 46  2  0  0  0  0
 49 48  1  0  0  0  0
 50  6  1  0  0  0  0
 51 53  1  0  0  0  0
 51 50  1  0  0  0  0
 52 51  1  0  0  0  0
 53 54  1  0  0  0  0
 56 57  1  0  0  0  0
 56 55  1  0  0  0  0
 56 53  1  0  0  0  0
 58 56  1  0  0  0  0
M  END
>  <MODEL>
5

>  <REMARK>
 VINA RESULT:      -7.1      2.966      5.909
  Name = 
  14 active torsions:
  status: ('A' for Active; 'I' for Inactive)
    1  A    between atoms: C_3  and  C_13
    2  A    between atoms: C_3  and  C_50
    3  A    between atoms: C_12  and  C_49
    4  A    between atoms: C_13  and  O_32
    5  A    between atoms: C_16  and  C_35
    6  A    between atoms: C_19  and  C_39
    7  A    between atoms: O_21  and  C_47
    8  A    between atoms: O_21  and  C_55
    9  A    between atoms: C_22  and  O_32
   10  A    between atoms: C_31  and  C_42
   11  A    between atoms: C_31  and  C_58
   12  A    between atoms: C_41  and  N_57
   13  A    between atoms: C_47  and  C_53
   14  A    between atoms: C_49  and  C_53
                            x       y       z     vdW  Elec       q    Type
                         _______ _______ _______ _____ _____    ______ ____

>  <TORSDO>
F 14

$$$$
=
 OpenBabel11072409333D

 58 64  0  0  1  0  0  0  0  0999 V2000
  188.5740  172.2790  142.6350 C   0  0  0  0  0  2  0  0  0  0  0  0
  191.9830  173.7000  139.7590 C   0  0  1  0  0  3  0  0  0  0  0  0
  190.9730  173.4930  140.8930 C   0  0  1  0  0  3  0  0  0  0  0  0
  190.2410  173.9940  143.6420 C   0  0  1  0  0  3  0  0  0  0  0  0
  188.8590  174.1500  140.9630 C   0  0  0  0  0  2  0  0  0  0  0  0
  193.4350  173.8640  140.1900 C   0  0  1  0  0  3  0  0  0  0  0  0
  191.8870  169.2100  140.6670 O   0  0  0  0  0  1  0  0  0  0  0  0
  191.0760  171.1270  141.5510 O   0  0  0  0  0  0  0  0  0  0  0  0
  189.7110  173.2310  140.3490 O   0  0  0  0  0  0  0  0  0  0  0  0
  191.3830  172.4460  141.9420 C   0  0  2  0  0  3  0  0  0  0  0  0
  190.3040  169.6080  138.6420 O   0  0  0  0  0  0  0  0  0  0  0  0
  191.9270  171.1630  139.3340 N   0  0  0  0  0  0  0  0  0  0  0  0
  192.0780  170.6000  140.7060 C   0  0  2  0  0  0  0  0  0  0  0  0
  190.9990  172.6960  143.4300 C   0  0  2  0  0  3  0  0  0  0  0  0
  193.8480  172.7600  139.1850 C   0  0  1  0  0  3  0  0  0  0  0  0
  189.5010  172.6710  143.7920 C   0  0  2  0  0  3  0  0  0  0  0  0
  192.3810  172.5020  138.8870 C   0  0  2  0  0  3  0  0  0  0  0  0
  187.8970  173.4350  141.9040 C   0  0  0  0  0  2  0  0  0  0  0  0
  191.1830  170.4530  138.3220 C   0  0  0  0  0  0  0  0  0  0  0  0
  195.4870  171.8970  136.0900 C   0  0  1  0  0  3  0  0  0  0  0  0
  196.0270  173.2150  138.0890 C   0  0  0  0  0  2  0  0  0  0  0  0
  196.5610  172.4540  136.9380 C   0  0  0  0  0  0  0  0  0  0  0  0
  197.7410  172.1620  136.8180 O   0  0  0  0  0  0  0  0  0  0  0  0
  194.2300  172.2300  136.8750 C   0  0  0  0  0  2  0  0  0  0  0  0
  195.4630  172.6010  134.7410 C   0  0  0  0  0  1  0  0  0  0  0  0
  194.5690  173.1650  137.9570 N   0  0  1  0  0  0  0  0  0  0  0  0
  189.7910  175.8730  145.1840 N   0  0  0  0  0  2  0  0  0  0  0  0
  190.4230  174.5750  145.0410 C   0  0  1  0  0  3  0  0  0  0  0  0
  189.7710  173.6710  146.0640 C   0  0  0  0  0  2  0  0  0  0  0  0
  189.2840  174.6130  147.1400 C   0  0  0  0  0  2  0  0  0  0  0  0
  189.6340  176.0060  146.6250 C   0  0  2  0  0  3  0  0  0  0  0  0
  188.5510  177.0370  146.9570 C   0  0  1  0  0  3  0  0  0  0  0  0
  189.1110  178.2520  147.3530 O   0  0  0  0  0  1  0  0  0  0  0  0
  185.2050  177.1650  145.2670 N   0  0  0  0  0  0  0  0  0  0  0  0
  184.1620  178.0800  142.9480 Cl  0  0  0  0  0  0  0  0  0  0  0  0
  185.4630  177.7920  144.0900 C   0  0  0  0  0  0  0  0  0  0  0  0
  186.1930  176.8960  146.1570 C   0  0  0  0  0  3  0  0  0  0  0  0
  187.7980  177.9160  144.6780 C   0  0  0  0  0  3  0  0  0  0  0  0
  186.7710  178.1660  143.7660 C   0  0  0  0  0  3  0  0  0  0  0  0
  187.5140  177.2760  145.8910 C   0  0  0  0  0  0  0  0  0  0  0  0
  194.0100  169.5940  141.7610 O   0  0  0  0  0  1  0  0  0  0  0  0
  193.4950  170.7970  141.2800 C   0  0  0  0  0  2  0  0  0  0  0  0
  191.4430  170.7200  136.9740 O   0  0  0  0  0  0  0  0  0  0  0  0
  190.4430  170.6310  135.9660 C   0  0  0  0  0  2  0  0  0  0  0  0
  189.4950  171.8080  136.1120 C   0  0  0  0  0  2  0  0  0  0  0  0
  190.9240  173.1500  134.7770 O   0  0  0  0  0  0  0  0  0  0  0  0
  190.1600  173.0990  135.7290 C   0  0  0  0  0  0  0  0  0  0  0  0
  188.5630  174.2640  137.2290 C   0  0  0  0  0  1  0  0  0  0  0  0
  189.9360  174.3190  136.5690 C   0  0  0  0  0  2  0  0  0  0  0  0
  193.9200  175.1490  139.8780 O   0  0  0  0  0  0  0  0  0  0  0  0
  194.7240  175.5830  140.9490 C   0  0  2  0  0  3  0  0  0  0  0  0
  196.0540  175.7490  140.5650 O   0  0  0  0  0  1  0  0  0  0  0  0
  194.5590  174.6810  142.1720 C   0  0  1  0  0  3  0  0  0  0  0  0
  195.7880  174.1920  142.5780 F   0  0  0  0  0  0  0  0  0  0  0  0
  194.7470  176.4340  143.7760 F   0  0  0  0  0  0  0  0  0  0  0  0
  193.8960  175.4440  143.3220 C   0  0  0  0  0  0  0  0  0  0  0  0
  193.6330  174.6000  144.3830 F   0  0  0  0  0  0  0  0  0  0  0  0
  192.7110  176.0140  142.8870 F   0  0  0  0  0  0  0  0  0  0  0  0
  1 16  1  0  0  0  0
  2  6  1  0  0  0  0
  2  3  1  0  0  0  0
  3 10  1  0  0  0  0
  4 16  1  0  0  0  0
  4 28  1  0  0  0  0
  5 18  1  0  0  0  0
  7 13  1  0  0  0  0
  8 10  1  0  0  0  0
  9  3  1  0  0  0  0
  9  5  1  0  0  0  0
 10 14  1  0  0  0  0
 12 13  1  0  0  0  0
 13 42  1  0  0  0  0
 13  8  1  0  0  0  0
 14  4  1  0  0  0  0
 14 16  1  0  0  0  0
 15  6  1  0  0  0  0
 17 15  1  0  0  0  0
 17 12  1  0  0  0  0
 17  2  1  0  0  0  0
 18  1  1  0  0  0  0
 19 11  2  0  0  0  0
 19 12  1  0  0  0  0
 20 24  1  0  0  0  0
 20 22  1  0  0  0  0
 22 21  1  0  0  0  0
 23 22  2  0  0  0  0
 24 26  1  0  0  0  0
 25 20  1  0  0  0  0
 26 21  1  0  0  0  0
 26 15  1  0  0  0  0
 27 31  1  0  0  0  0
 28 27  1  0  0  0  0
 28 29  1  0  0  0  0
 29 30  1  0  0  0  0
 31 32  1  0  0  0  0
 31 30  1  0  0  0  0
 32 33  1  0  0  0  0
 34 37  1  0  0  0  0
 35 36  1  0  0  0  0
 36 34  2  0  0  0  0
 38 40  1  0  0  0  0
 39 36  1  0  0  0  0
 39 38  2  0  0  0  0
 40 37  2  0  0  0  0
 40 32  1  0  0  0  0
 42 41  1  0  0  0  0
 43 19  1  0  0  0  0
 44 45  1  0  0  0  0
 44 43  1  0  0  0  0
 46 47  2  0  0  0  0
 47 45  1  0  0  0  0
 47 49  1  0  0  0  0
 49 48  1  0  0  0  0
 50  6  1  0  0  0  0
 50 51  1  0  0  0  0
 51 53  1  0  0  0  0
 52 51  1  0  0  0  0
 53 54  1  0  0  0  0
 53 56  1  0  0  0  0
 56 55  1  0  0  0  0
 56 57  1  0  0  0  0
 58 56  1  0  0  0  0
M  END
>  <MODEL>
6

>  <REMARK>
 VINA RESULT:      -7.1      2.945      4.835
  Name = 
  14 active torsions:
  status: ('A' for Active; 'I' for Inactive)
    1  A    between atoms: C_3  and  C_13
    2  A    between atoms: C_3  and  C_50
    3  A    between atoms: C_12  and  C_49
    4  A    between atoms: C_13  and  O_32
    5  A    between atoms: C_16  and  C_35
    6  A    between atoms: C_19  and  C_39
    7  A    between atoms: O_21  and  C_47
    8  A    between atoms: O_21  and  C_55
    9  A    between atoms: C_22  and  O_32
   10  A    between atoms: C_31  and  C_42
   11  A    between atoms: C_31  and  C_58
   12  A    between atoms: C_41  and  N_57
   13  A    between atoms: C_47  and  C_53
   14  A    between atoms: C_49  and  C_53
                            x       y       z     vdW  Elec       q    Type
                         _______ _______ _______ _____ _____    ______ ____

>  <TORSDO>
F 14

$$$$
=
 OpenBabel11072409333D

 58 64  0  0  1  0  0  0  0  0999 V2000
  190.6370  173.7620  140.2580 C   0  0  0  0  0  2  0  0  0  0  0  0
  188.6770  174.8800  144.3590 C   0  0  1  0  0  3  0  0  0  0  0  0
  189.5630  174.3830  143.2120 C   0  0  1  0  0  3  0  0  0  0  0  0
  192.1730  173.5120  142.3340 C   0  0  1  0  0  3  0  0  0  0  0  0
  189.3390  172.5220  142.0330 C   0  0  0  0  0  2  0  0  0  0  0  0
  189.3870  175.6840  145.4410 C   0  0  1  0  0  3  0  0  0  0  0  0
  188.8840  178.2540  141.2660 O   0  0  0  0  0  1  0  0  0  0  0  0
  189.8750  176.2590  141.6540 O   0  0  0  0  0  0  0  0  0  0  0  0
  188.7640  173.7770  142.2370 O   0  0  0  0  0  0  0  0  0  0  0  0
  190.5040  175.4430  142.6150 C   0  0  2  0  0  3  0  0  0  0  0  0
  186.6830  176.9450  140.8130 O   0  0  0  0  0  0  0  0  0  0  0  0
  187.8820  176.7910  142.8310 N   0  0  0  0  0  0  0  0  0  0  0  0
  189.1610  177.3120  142.2680 C   0  0  2  0  0  0  0  0  0  0  0  0
  191.9170  174.9950  142.1370 C   0  0  2  0  0  3  0  0  0  0  0  0
  188.3240  176.8020  145.2940 C   0  0  1  0  0  3  0  0  0  0  0  0
  191.9900  174.0500  140.9210 C   0  0  2  0  0  3  0  0  0  0  0  0
  187.7270  176.0600  144.1110 C   0  0  2  0  0  3  0  0  0  0  0  0
  189.9710  172.4450  140.6490 C   0  0  0  0  0  2  0  0  0  0  0  0
  186.6580  176.8640  142.0710 C   0  0  0  0  0  0  0  0  0  0  0  0
  185.7500  178.7440  146.9100 C   0  0  1  0  0  3  0  0  0  0  0  0
  187.8240  177.6160  147.5840 C   0  0  0  0  0  2  0  0  0  0  0  0
  186.8460  178.6810  147.8990 C   0  0  0  0  0  0  0  0  0  0  0  0
  187.0310  179.5260  148.7610 O   0  0  0  0  0  0  0  0  0  0  0  0
  186.1880  177.7410  145.8560 C   0  0  0  0  0  2  0  0  0  0  0  0
  184.4410  178.2960  147.5450 C   0  0  0  0  0  1  0  0  0  0  0  0
  187.3230  176.9630  146.3720 N   0  0  1  0  0  0  0  0  0  0  0  0
  193.8530  171.9170  143.1980 N   0  0  0  0  0  2  0  0  0  0  0  0
  193.6520  173.1750  142.5050 C   0  0  1  0  0  3  0  0  0  0  0  0
  194.3050  173.0200  141.1490 C   0  0  0  0  0  2  0  0  0  0  0  0
  195.3690  171.9690  141.3640 C   0  0  0  0  0  2  0  0  0  0  0  0
  195.2080  171.5450  142.8200 C   0  0  2  0  0  3  0  0  0  0  0  0
  195.4290  170.0420  143.0140 C   0  0  1  0  0  3  0  0  0  0  0  0
  196.3560  169.5420  142.0970 O   0  0  0  0  0  1  0  0  0  0  0  0
  197.5480  169.1740  145.9840 N   0  0  0  0  0  0  0  0  0  0  0  0
  197.1910  168.5040  148.5770 Cl  0  0  0  0  0  0  0  0  0  0  0  0
  196.6430  168.9490  146.9710 C   0  0  0  0  0  0  0  0  0  0  0  0
  197.1580  169.4860  144.7230 C   0  0  0  0  0  3  0  0  0  0  0  0
  194.8520  169.3620  145.4090 C   0  0  0  0  0  3  0  0  0  0  0  0
  195.2740  169.0230  146.6960 C   0  0  0  0  0  3  0  0  0  0  0  0
  195.8000  169.6000  144.4050 C   0  0  0  0  0  0  0  0  0  0  0  0
  191.2340  178.4570  142.7700 O   0  0  0  0  0  1  0  0  0  0  0  0
  190.0090  178.0670  143.3110 C   0  0  0  0  0  2  0  0  0  0  0  0
  185.4340  176.8340  142.7480 O   0  0  0  0  0  0  0  0  0  0  0  0
  184.5630  177.9570  142.8110 C   0  0  0  0  0  2  0  0  0  0  0  0
  184.2590  178.4200  141.3980 C   0  0  0  0  0  2  0  0  0  0  0  0
  182.5620  177.5420  139.9920 O   0  0  0  0  0  0  0  0  0  0  0  0
  182.8320  178.1400  141.0230 C   0  0  0  0  0  0  0  0  0  0  0  0
  180.6980  179.4080  141.0440 C   0  0  0  0  0  1  0  0  0  0  0  0
  181.7280  178.6650  141.8890 C   0  0  0  0  0  2  0  0  0  0  0  0
  189.3610  175.0130  146.6790 O   0  0  0  0  0  0  0  0  0  0  0  0
  190.6800  174.9420  147.1630 C   0  0  2  0  0  3  0  0  0  0  0  0
  190.7540  175.2610  148.5190 O   0  0  0  0  0  1  0  0  0  0  0  0
  191.6380  175.7640  146.3000 C   0  0  1  0  0  3  0  0  0  0  0  0
  192.0800  176.8750  146.9960 F   0  0  0  0  0  0  0  0  0  0  0  0
  193.7520  174.8350  146.8890 F   0  0  0  0  0  0  0  0  0  0  0  0
  192.8340  174.9150  145.8590 C   0  0  0  0  0  0  0  0  0  0  0  0
  193.4690  175.4890  144.7760 F   0  0  0  0  0  0  0  0  0  0  0  0
  192.4070  173.6430  145.5170 F   0  0  0  0  0  0  0  0  0  0  0  0
  1 18  1  0  0  0  0
  1 16  1  0  0  0  0
  2  6  1  0  0  0  0
  3  2  1  0  0  0  0
  4 28  1  0  0  0  0
  5  9  1  0  0  0  0
  6 50  1  0  0  0  0
  7 13  1  0  0  0  0
  8 13  1  0  0  0  0
  8 10  1  0  0  0  0
  9  3  1  0  0  0  0
 10  3  1  0  0  0  0
 11 19  2  0  0  0  0
 12 17  1  0  0  0  0
 13 12  1  0  0  0  0
 13 42  1  0  0  0  0
 14  4  1  0  0  0  0
 14 10  1  0  0  0  0
 15  6  1  0  0  0  0
 15 26  1  0  0  0  0
 16 14  1  0  0  0  0
 16  4  1  0  0  0  0
 17  2  1  0  0  0  0
 17 15  1  0  0  0  0
 18  5  1  0  0  0  0
 19 43  1  0  0  0  0
 19 12  1  0  0  0  0
 20 25  1  0  0  0  0
 20 22  1  0  0  0  0
 21 22  1  0  0  0  0
 22 23  2  0  0  0  0
 24 26  1  0  0  0  0
 24 20  1  0  0  0  0
 26 21  1  0  0  0  0
 28 27  1  0  0  0  0
 29 30  1  0  0  0  0
 29 28  1  0  0  0  0
 30 31  1  0  0  0  0
 31 32  1  0  0  0  0
 31 27  1  0  0  0  0
 32 40  1  0  0  0  0
 33 32  1  0  0  0  0
 34 36  1  0  0  0  0
 36 35  1  0  0  0  0
 37 34  2  0  0  0  0
 38 39  1  0  0  0  0
 39 36  2  0  0  0  0
 40 37  1  0  0  0  0
 40 38  2  0  0  0  0
 41 42  1  0  0  0  0
 43 44  1  0  0  0  0
 45 44  1  0  0  0  0
 46 47  2  0  0  0  0
 47 45  1  0  0  0  0
 47 49  1  0  0  0  0
 48 49  1  0  0  0  0
 50 51  1  0  0  0  0
 51 52  1  0  0  0  0
 53 54  1  0  0  0  0
 53 51  1  0  0  0  0
 56 53  1  0  0  0  0
 56 55  1  0  0  0  0
 57 56  1  0  0  0  0
 58 56  1  0  0  0  0
M  END
>  <MODEL>
7

>  <REMARK>
 VINA RESULT:      -7.0      3.445      9.921
  Name = 
  14 active torsions:
  status: ('A' for Active; 'I' for Inactive)
    1  A    between atoms: C_3  and  C_13
    2  A    between atoms: C_3  and  C_50
    3  A    between atoms: C_12  and  C_49
    4  A    between atoms: C_13  and  O_32
    5  A    between atoms: C_16  and  C_35
    6  A    between atoms: C_19  and  C_39
    7  A    between atoms: O_21  and  C_47
    8  A    between atoms: O_21  and  C_55
    9  A    between atoms: C_22  and  O_32
   10  A    between atoms: C_31  and  C_42
   11  A    between atoms: C_31  and  C_58
   12  A    between atoms: C_41  and  N_57
   13  A    between atoms: C_47  and  C_53
   14  A    between atoms: C_49  and  C_53
                            x       y       z     vdW  Elec       q    Type
                         _______ _______ _______ _____ _____    ______ ____

>  <TORSDO>
F 14

$$$$
=
 OpenBabel11072409333D

 58 64  0  0  1  0  0  0  0  0999 V2000
  189.3050  177.2010  142.5020 C   0  0  0  0  0  2  0  0  0  0  0  0
  192.7190  174.0700  143.1730 C   0  0  1  0  0  3  0  0  0  0  0  0
  191.6270  175.1400  143.2890 C   0  0  1  0  0  3  0  0  0  0  0  0
  189.7750  176.5760  144.9770 C   0  0  1  0  0  3  0  0  0  0  0  0
  191.8010  177.3060  142.8640 C   0  0  0  0  0  2  0  0  0  0  0  0
  192.6230  172.9200  144.1680 C   0  0  1  0  0  3  0  0  0  0  0  0
  189.1570  172.6280  140.6770 O   0  0  0  0  0  1  0  0  0  0  0  0
  189.6260  174.2800  142.1480 O   0  0  0  0  0  0  0  0  0  0  0  0
  191.7640  176.0570  142.2420 O   0  0  0  0  0  0  0  0  0  0  0  0
  190.1940  174.5940  143.4000 C   0  0  2  0  0  3  0  0  0  0  0  0
  190.8180  173.7720  139.0360 O   0  0  0  0  0  0  0  0  0  0  0  0
  191.4240  173.0570  141.1940 N   0  0  0  0  0  0  0  0  0  0  0  0
  190.0280  172.9980  141.7140 C   0  0  2  0  0  0  0  0  0  0  0  0
  189.1780  175.3510  144.3060 C   0  0  2  0  0  3  0  0  0  0  0  0
  192.7270  171.9110  142.9970 C   0  0  1  0  0  3  0  0  0  0  0  0
  188.7500  176.7650  143.8650 C   0  0  2  0  0  3  0  0  0  0  0  0
  192.6600  173.0670  142.0140 C   0  0  2  0  0  3  0  0  0  0  0  0
  190.5390  178.0980  142.5430 C   0  0  0  0  0  2  0  0  0  0  0  0
  191.6810  173.2380  139.7860 C   0  0  0  0  0  0  0  0  0  0  0  0
  195.2420  170.4430  140.8670 C   0  0  1  0  0  3  0  0  0  0  0  0
  193.8300  169.7040  142.7340 C   0  0  0  0  0  2  0  0  0  0  0  0
  194.6100  169.2930  141.5460 C   0  0  0  0  0  0  0  0  0  0  0  0
  194.5720  168.1660  141.0770 O   0  0  0  0  0  0  0  0  0  0  0  0
  194.6770  171.6340  141.6240 C   0  0  0  0  0  2  0  0  0  0  0  0
  196.7540  170.3880  141.0350 C   0  0  0  0  0  1  0  0  0  0  0  0
  193.9900  171.1570  142.8320 N   0  0  1  0  0  0  0  0  0  0  0  0
  187.9860  177.8570  146.1040 N   0  0  0  0  0  2  0  0  0  0  0  0
  189.0880  176.9330  146.2930 C   0  0  1  0  0  3  0  0  0  0  0  0
  188.4960  175.6890  146.9190 C   0  0  0  0  0  2  0  0  0  0  0  0
  187.2600  176.1820  147.6330 C   0  0  0  0  0  2  0  0  0  0  0  0
  187.1910  177.6710  147.3100 C   0  0  2  0  0  3  0  0  0  0  0  0
  185.7540  178.1520  147.0880 C   0  0  1  0  0  3  0  0  0  0  0  0
  185.5560  179.4240  147.6270 O   0  0  0  0  0  1  0  0  0  0  0  0
  184.0380  179.2280  143.9320 N   0  0  0  0  0  0  0  0  0  0  0  0
  183.7970  178.3640  141.3830 Cl  0  0  0  0  0  0  0  0  0  0  0  0
  184.3850  178.2700  143.0340 C   0  0  0  0  0  0  0  0  0  0  0  0
  184.4450  179.1680  145.2250 C   0  0  0  0  0  3  0  0  0  0  0  0
  185.6140  177.1140  144.7560 C   0  0  0  0  0  3  0  0  0  0  0  0
  185.1680  177.1830  143.4350 C   0  0  0  0  0  3  0  0  0  0  0  0
  185.2550  178.1150  145.6670 C   0  0  0  0  0  0  0  0  0  0  0  0
  188.4940  171.7740  143.1300 O   0  0  0  0  0  1  0  0  0  0  0  0
  189.8410  171.9220  142.8020 C   0  0  0  0  0  2  0  0  0  0  0  0
  192.9070  172.8200  139.2580 O   0  0  0  0  0  0  0  0  0  0  0  0
  193.0660  172.4270  137.9000 C   0  0  0  0  0  2  0  0  0  0  0  0
  193.3790  170.9420  137.8540 C   0  0  0  0  0  2  0  0  0  0  0  0
  192.1940  168.9150  137.5140 O   0  0  0  0  0  0  0  0  0  0  0  0
  192.1700  170.1370  137.4740 C   0  0  0  0  0  0  0  0  0  0  0  0
  189.7410  170.4920  137.8420 C   0  0  0  0  0  1  0  0  0  0  0  0
  190.9450  170.8410  136.9740 C   0  0  0  0  0  2  0  0  0  0  0  0
  193.7230  172.9100  145.0470 O   0  0  0  0  0  0  0  0  0  0  0  0
  194.4650  174.0860  144.8300 C   0  0  2  0  0  3  0  0  0  0  0  0
  195.6740  173.8270  144.1840 O   0  0  0  0  0  1  0  0  0  0  0  0
  194.6350  174.8860  146.1220 C   0  0  1  0  0  3  0  0  0  0  0  0
  195.9730  174.9680  146.4660 F   0  0  0  0  0  0  0  0  0  0  0  0
  194.5620  177.1180  146.9520 F   0  0  0  0  0  0  0  0  0  0  0  0
  194.0480  176.2920  145.9700 C   0  0  0  0  0  0  0  0  0  0  0  0
  192.6760  176.2690  146.1180 F   0  0  0  0  0  0  0  0  0  0  0  0
  194.3650  176.8010  144.7220 F   0  0  0  0  0  0  0  0  0  0  0  0
  1 18  1  0  0  0  0
  1 16  1  0  0  0  0
  2  3  1  0  0  0  0
  2  6  1  0  0  0  0
  3 10  1  0  0  0  0
  4 28  1  0  0  0  0
  6 50  1  0  0  0  0
  7 13  1  0  0  0  0
  8 10  1  0  0  0  0
  9  5  1  0  0  0  0
  9  3  1  0  0  0  0
 10 14  1  0  0  0  0
 11 19  2  0  0  0  0
 12 13  1  0  0  0  0
 12 17  1  0  0  0  0
 13  8  1  0  0  0  0
 13 42  1  0  0  0  0
 14  4  1  0  0  0  0
 15  6  1  0  0  0  0
 16 14  1  0  0  0  0
 16  4  1  0  0  0  0
 17 15  1  0  0  0  0
 17  2  1  0  0  0  0
 18  5  1  0  0  0  0
 19 12  1  0  0  0  0
 20 25  1  0  0  0  0
 20 22  1  0  0  0  0
 20 24  1  0  0  0  0
 21 26  1  0  0  0  0
 22 21  1  0  0  0  0
 23 22  2  0  0  0  0
 24 26  1  0  0  0  0
 26 15  1  0  0  0  0
 27 28  1  0  0  0  0
 27 31  1  0  0  0  0
 28 29  1  0  0  0  0
 29 30  1  0  0  0  0
 31 30  1  0  0  0  0
 32 31  1  0  0  0  0
 32 33  1  0  0  0  0
 34 37  1  0  0  0  0
 35 36  1  0  0  0  0
 36 39  1  0  0  0  0
 36 34  2  0  0  0  0
 37 40  2  0  0  0  0
 38 40  1  0  0  0  0
 39 38  2  0  0  0  0
 40 32  1  0  0  0  0
 42 41  1  0  0  0  0
 43 19  1  0  0  0  0
 44 43  1  0  0  0  0
 45 44  1  0  0  0  0
 47 46  2  0  0  0  0
 47 45  1  0  0  0  0
 49 47  1  0  0  0  0
 49 48  1  0  0  0  0
 51 50  1  0  0  0  0
 51 53  1  0  0  0  0
 52 51  1  0  0  0  0
 53 54  1  0  0  0  0
 56 57  1  0  0  0  0
 56 53  1  0  0  0  0
 56 55  1  0  0  0  0
 58 56  1  0  0  0  0
M  END
>  <MODEL>
8

>  <REMARK>
 VINA RESULT:      -7.0      1.738      2.655
  Name = 
  14 active torsions:
  status: ('A' for Active; 'I' for Inactive)
    1  A    between atoms: C_3  and  C_13
    2  A    between atoms: C_3  and  C_50
    3  A    between atoms: C_12  and  C_49
    4  A    between atoms: C_13  and  O_32
    5  A    between atoms: C_16  and  C_35
    6  A    between atoms: C_19  and  C_39
    7  A    between atoms: O_21  and  C_47
    8  A    between atoms: O_21  and  C_55
    9  A    between atoms: C_22  and  O_32
   10  A    between atoms: C_31  and  C_42
   11  A    between atoms: C_31  and  C_58
   12  A    between atoms: C_41  and  N_57
   13  A    between atoms: C_47  and  C_53
   14  A    between atoms: C_49  and  C_53
                            x       y       z     vdW  Elec       q    Type
                         _______ _______ _______ _____ _____    ______ ____

>  <TORSDO>
F 14

$$$$
=
 OpenBabel11072409333D

 58 64  0  0  1  0  0  0  0  0999 V2000
  189.7960  177.3220  145.4450 C   0  0  0  0  0  2  0  0  0  0  0  0
  191.5740  173.2030  144.1110 C   0  0  1  0  0  3  0  0  0  0  0  0
  190.7330  174.4610  144.3480 C   0  0  1  0  0  3  0  0  0  0  0  0
  188.5800  176.1710  143.4620 C   0  0  1  0  0  3  0  0  0  0  0  0
  189.4140  174.9050  146.0710 C   0  0  0  0  0  2  0  0  0  0  0  0
  191.7560  172.7960  142.6540 C   0  0  1  0  0  3  0  0  0  0  0  0
  194.4070  176.7910  143.7960 O   0  0  0  0  0  1  0  0  0  0  0  0
  192.1840  176.4060  143.9560 O   0  0  0  0  0  0  0  0  0  0  0  0
  190.7560  174.7860  145.7090 O   0  0  0  0  0  0  0  0  0  0  0  0
  191.0960  175.6610  143.4580 C   0  0  2  0  0  3  0  0  0  0  0  0
  194.6270  175.8610  146.2150 O   0  0  0  0  0  0  0  0  0  0  0  0
  193.6870  174.6330  144.4430 N   0  0  0  0  0  0  0  0  0  0  0  0
  193.4150  175.8210  143.5840 C   0  0  2  0  0  0  0  0  0  0  0  0
  189.9510  176.5960  142.9670 C   0  0  2  0  0  3  0  0  0  0  0  0
  193.2880  172.7230  142.8760 C   0  0  1  0  0  3  0  0  0  0  0  0
  189.2140  177.4350  144.0300 C   0  0  2  0  0  3  0  0  0  0  0  0
  193.0980  173.2830  144.2740 C   0  0  2  0  0  3  0  0  0  0  0  0
  189.0760  176.3580  146.3850 C   0  0  0  0  0  2  0  0  0  0  0  0
  194.4960  174.7510  145.6320 C   0  0  0  0  0  0  0  0  0  0  0  0
  193.8960  169.4870  141.4040 C   0  0  1  0  0  3  0  0  0  0  0  0
  193.1190  170.3460  143.5680 C   0  0  0  0  0  2  0  0  0  0  0  0
  193.1290  169.1990  142.6340 C   0  0  0  0  0  0  0  0  0  0  0  0
  192.4270  168.2100  142.7800 O   0  0  0  0  0  0  0  0  0  0  0  0
  194.2410  170.9580  141.5580 C   0  0  0  0  0  2  0  0  0  0  0  0
  195.1680  168.6520  141.3690 C   0  0  0  0  0  1  0  0  0  0  0  0
  193.9250  171.3880  142.9270 N   0  0  1  0  0  0  0  0  0  0  0  0
  186.1730  176.6830  143.2270 N   0  0  0  0  0  2  0  0  0  0  0  0
  187.4470  176.6070  142.5370 C   0  0  1  0  0  3  0  0  0  0  0  0
  187.7220  177.9960  142.0030 C   0  0  0  0  0  2  0  0  0  0  0  0
  186.3530  178.6160  141.8490 C   0  0  0  0  0  2  0  0  0  0  0  0
  185.3860  177.5590  142.3700 C   0  0  2  0  0  3  0  0  0  0  0  0
  184.2210  178.1730  143.1520 C   0  0  1  0  0  3  0  0  0  0  0  0
  184.6060  179.3490  143.7980 O   0  0  0  0  0  1  0  0  0  0  0  0
  181.7350  178.0380  140.3470 N   0  0  0  0  0  0  0  0  0  0  0  0
  179.1810  178.7930  139.8910 Cl  0  0  0  0  0  0  0  0  0  0  0  0
  180.6290  178.6300  140.8680 C   0  0  0  0  0  0  0  0  0  0  0  0
  182.8820  177.9270  141.0620 C   0  0  0  0  0  3  0  0  0  0  0  0
  181.8240  179.0310  142.9240 C   0  0  0  0  0  3  0  0  0  0  0  0
  180.6590  179.1540  142.1640 C   0  0  0  0  0  3  0  0  0  0  0  0
  182.9520  178.4090  142.3740 C   0  0  0  0  0  0  0  0  0  0  0  0
  194.3890  176.3330  141.4280 O   0  0  0  0  0  1  0  0  0  0  0  0
  193.4810  175.4970  142.0790 C   0  0  0  0  0  2  0  0  0  0  0  0
  195.1300  173.6120  146.1390 O   0  0  0  0  0  0  0  0  0  0  0  0
  196.5450  173.4880  146.2100 C   0  0  0  0  0  2  0  0  0  0  0  0
  197.0420  172.8110  144.9450 C   0  0  0  0  0  2  0  0  0  0  0  0
  197.9410  170.6560  144.5280 O   0  0  0  0  0  0  0  0  0  0  0  0
  197.0910  171.3180  145.1050 C   0  0  0  0  0  0  0  0  0  0  0  0
  196.3490  169.1420  146.0370 C   0  0  0  0  0  1  0  0  0  0  0  0
  196.0420  170.6300  145.9230 C   0  0  0  0  0  2  0  0  0  0  0  0
  191.1450  171.5560  142.3870 O   0  0  0  0  0  0  0  0  0  0  0  0
  190.4550  171.6640  141.1650 C   0  0  2  0  0  3  0  0  0  0  0  0
  191.0860  170.9490  140.1470 O   0  0  0  0  0  1  0  0  0  0  0  0
  190.1920  173.1250  140.7990 C   0  0  1  0  0  3  0  0  0  0  0  0
  190.7950  173.4350  139.5930 F   0  0  0  0  0  0  0  0  0  0  0  0
  188.1010  172.5160  139.8320 F   0  0  0  0  0  0  0  0  0  0  0  0
  188.6880  173.4000  140.7170 C   0  0  0  0  0  0  0  0  0  0  0  0
  188.4480  174.6780  140.2520 F   0  0  0  0  0  0  0  0  0  0  0  0
  188.1130  173.2540  141.9690 F   0  0  0  0  0  0  0  0  0  0  0  0
  1 18  1  0  0  0  0
  2 17  1  0  0  0  0
  2  3  1  0  0  0  0
  3  9  1  0  0  0  0
  4 16  1  0  0  0  0
  5 18  1  0  0  0  0
  6 15  1  0  0  0  0
  6  2  1  0  0  0  0
  9  5  1  0  0  0  0
 10  8  1  0  0  0  0
 10  3  1  0  0  0  0
 12 19  1  0  0  0  0
 13  7  1  0  0  0  0
 13  8  1  0  0  0  0
 13 12  1  0  0  0  0
 14 10  1  0  0  0  0
 14  4  1  0  0  0  0
 14 16  1  0  0  0  0
 15 26  1  0  0  0  0
 15 17  1  0  0  0  0
 16  1  1  0  0  0  0
 17 12  1  0  0  0  0
 19 43  1  0  0  0  0
 19 11  2  0  0  0  0
 20 24  1  0  0  0  0
 20 22  1  0  0  0  0
 22 23  2  0  0  0  0
 22 21  1  0  0  0  0
 24 26  1  0  0  0  0
 25 20  1  0  0  0  0
 26 21  1  0  0  0  0
 28 27  1  0  0  0  0
 28  4  1  0  0  0  0
 29 28  1  0  0  0  0
 30 29  1  0  0  0  0
 30 31  1  0  0  0  0
 31 32  1  0  0  0  0
 31 27  1  0  0  0  0
 32 33  1  0  0  0  0
 34 36  2  0  0  0  0
 34 37  1  0  0  0  0
 35 36  1  0  0  0  0
 36 39  1  0  0  0  0
 37 40  2  0  0  0  0
 39 38  2  0  0  0  0
 40 38  1  0  0  0  0
 40 32  1  0  0  0  0
 41 42  1  0  0  0  0
 42 13  1  0  0  0  0
 43 44  1  0  0  0  0
 45 47  1  0  0  0  0
 45 44  1  0  0  0  0
 46 47  2  0  0  0  0
 47 49  1  0  0  0  0
 49 48  1  0  0  0  0
 50  6  1  0  0  0  0
 51 50  1  0  0  0  0
 52 51  1  0  0  0  0
 53 51  1  0  0  0  0
 54 53  1  0  0  0  0
 55 56  1  0  0  0  0
 56 53  1  0  0  0  0
 56 58  1  0  0  0  0
 57 56  1  0  0  0  0
M  END
>  <MODEL>
9

>  <REMARK>
 VINA RESULT:      -7.0      3.060      5.288
  Name = 
  14 active torsions:
  status: ('A' for Active; 'I' for Inactive)
    1  A    between atoms: C_3  and  C_13
    2  A    between atoms: C_3  and  C_50
    3  A    between atoms: C_12  and  C_49
    4  A    between atoms: C_13  and  O_32
    5  A    between atoms: C_16  and  C_35
    6  A    between atoms: C_19  and  C_39
    7  A    between atoms: O_21  and  C_47
    8  A    between atoms: O_21  and  C_55
    9  A    between atoms: C_22  and  O_32
   10  A    between atoms: C_31  and  C_42
   11  A    between atoms: C_31  and  C_58
   12  A    between atoms: C_41  and  N_57
   13  A    between atoms: C_47  and  C_53
   14  A    between atoms: C_49  and  C_53
                            x       y       z     vdW  Elec       q    Type
                         _______ _______ _______ _____ _____    ______ ____

>  <TORSDO>
F 14

$$$$
