=
 OpenBabel11062422333D

 43 49  0  0  1  0  0  0  0  0999 V2000
  190.4720  172.2460  142.1450 O   0  0  0  0  0  1  0  0  0  0  0  0
  188.4530  177.1390  145.3890 C   0  0  0  0  0  0  0  0  0  0  0  0
  193.4550  173.4090  144.1310 C   0  0  2  0  0  3  0  0  0  0  0  0
  190.7010  174.2580  143.6340 C   0  0  2  0  0  3  0  0  0  0  0  0
  185.5290  178.6410  146.9000 O   0  0  0  0  0  0  0  0  0  0  0  0
  190.7630  176.2190  147.0200 C   0  0  0  0  0  2  0  0  0  0  0  0
  192.5150  172.6200  143.2420 C   0  0  0  0  0  3  0  0  0  0  0  0
  191.9810  177.7200  145.0820 O   0  0  0  0  0  0  0  0  0  0  0  0
  187.6340  176.1860  143.5290 N   0  0  0  0  0  0  0  0  0  0  0  0
  186.6720  178.4430  147.6800 C   0  0  0  0  0  0  0  0  0  0  0  0
  185.3810  178.2360  145.5340 C   0  0  2  0  0  3  0  0  0  0  0  0
  191.2720  173.0290  142.9690 C   0  0  0  0  0  0  0  0  0  0  0  0
  187.4160  177.2300  147.5950 N   0  0  0  0  0  2  0  0  0  0  0  0
  187.2990  176.7780  144.6980 C   0  0  0  0  0  0  0  0  0  0  0  0
  188.6780  177.1720  146.8810 C   0  0  1  0  0  3  0  0  0  0  0  0
  189.7410  175.0760  142.7940 C   0  0  0  0  0  0  0  0  0  0  0  0
  189.5610  174.8420  141.5690 O   0  0  0  0  0  0  0  0  0  0  0  0
  191.8070  175.1290  144.2460 C   0  0  1  0  0  3  0  0  0  0  0  0
  191.1160  176.4920  145.2390 P   0  0  1  0  0  0  0  0  0  0  0  0
  192.7140  174.3020  145.0350 N   0  0  0  0  0  2  0  0  0  0  0  0
  185.8910  176.8180  145.2320 C   0  0  0  0  0  2  0  0  0  0  0  0
  186.9980  179.3110  148.5310 O   0  0  0  0  0  0  0  0  0  0  0  0
  188.9830  176.1420  143.4740 C   0  0  0  0  0  0  0  0  0  0  0  0
  189.3830  176.0030  147.2550 O   0  0  0  0  0  0  0  0  0  0  0  0
  189.5000  176.7990  144.5700 C   0  0  0  0  0  0  0  0  0  0  0  0
  195.8610  174.7380  144.3030 S   0  0  0  0  0  0  0  0  0  0  0  0
  196.1310  176.2010  144.0880 O   0  0  0  0  0  0  0  0  0  0  0  0
  194.4930  174.1900  143.3070 C   0  0  1  0  0  3  0  0  0  0  0  0
  196.4110  172.6890  142.7840 C   0  0  0  0  0  2  0  0  0  0  0  0
  197.1430  173.7480  143.5890 C   0  0  2  0  0  3  0  0  0  0  0  0
  195.1290  173.3100  142.2320 C   0  0  0  0  0  2  0  0  0  0  0  0
  195.6800  174.4440  145.7670 O   0  0  0  0  0  0  0  0  0  0  0  0
  197.9410  173.1120  144.6240 N   0  0  0  0  0  2  0  0  0  0  0  0
  197.5510  171.7130  144.6660 C   0  0  0  0  0  2  0  0  0  0  0  0
  195.5610  170.7590  145.7660 C   0  0  0  0  0  2  0  0  0  0  0  0
  196.7530  169.9080  146.1480 C   0  0  0  0  0  2  0  0  0  0  0  0
  196.9080  171.4070  146.0030 C   0  0  0  0  0  3  0  0  0  0  0  0
  186.7050  176.1380  141.3930 O   0  0  0  0  0  1  0  0  0  0  0  0
  186.7160  175.4980  142.6320 C   0  0  0  0  0  2  0  0  0  0  0  0
  185.8960  179.3050  144.5700 C   0  0  0  0  0  2  0  0  0  0  0  0
  184.1030  178.7050  142.9470 O   0  0  0  0  0  1  0  0  0  0  0  0
  186.2490  179.0620  142.2270 O   0  0  0  0  0  0  0  0  0  0  0  0
  185.4310  179.0300  143.1830 C   0  0  0  0  0  0  0  0  0  0  0  0
  1 12  1  0  0  0  0
  3  7  1  6  0  0  0
  3 20  1  0  0  0  0
  4 16  1  6  0  0  0
  4 18  1  0  0  0  0
  5 10  1  0  0  0  0
  6 24  1  0  0  0  0
  9 14  1  0  0  0  0
 10 22  2  0  0  0  0
 11 40  1  6  0  0  0
 11  5  1  0  0  0  0
 12  7  2  0  0  0  0
 12  4  1  0  0  0  0
 13 10  1  0  0  0  0
 14 21  1  0  0  0  0
 14  2  2  0  0  0  0
 15  2  1  6  0  0  0
 15 24  1  0  0  0  0
 15 13  1  0  0  0  0
 16 23  1  0  0  0  0
 17 16  2  0  0  0  0
 18 20  1  1  0  0  0
 18 19  1  0  0  0  0
 19  8  2  6  0  0  0
 19  6  1  0  0  0  0
 21 11  1  0  0  0  0
 23  9  1  0  0  0  0
 23 25  2  0  0  0  0
 25 19  1  0  0  0  0
 25  2  1  0  0  0  0
 26 32  2  0  0  0  0
 27 26  2  0  0  0  0
 28 31  1  6  0  0  0
 28  3  1  0  0  0  0
 28 26  1  0  0  0  0
 29 30  1  0  0  0  0
 30 26  1  0  0  0  0
 30 33  1  1  0  0  0
 31 29  1  0  0  0  0
 33 34  1  0  0  0  0
 34 37  1  0  0  0  0
 35 37  1  0  0  0  0
 35 36  1  0  0  0  0
 37 36  1  0  0  0  0
 38 39  1  0  0  0  0
 39  9  1  0  0  0  0
 41 43  1  0  0  0  0
 42 43  2  0  0  0  0
 43 40  1  0  0  0  0
M  END
>  <MODEL>
1

>  <REMARK>
 VINA RESULT:      -8.1      0.000      0.000
  Name = 
  7 active torsions:
  status: ('A' for Active; 'I' for Inactive)
    1  A    between atoms: C_4  and  C_19
    2  A    between atoms: C_12  and  C_17
    3  A    between atoms: C_12  and  C_42
    4  A    between atoms: N_15  and  C_24
    5  A    between atoms: C_33  and  N_43
    6  A    between atoms: C_34  and  C_40
    7  A    between atoms: C_34  and  N_43
                            x       y       z     vdW  Elec       q    Type
                         _______ _______ _______ _____ _____    ______ ____

>  <TORSDO>
F 7

$$$$
=
 OpenBabel11062422333D

 43 49  0  0  1  0  0  0  0  0999 V2000
  193.3810  175.4640  143.2890 O   0  0  0  0  0  1  0  0  0  0  0  0
  187.2450  176.3860  143.0960 C   0  0  0  0  0  0  0  0  0  0  0  0
  192.1370  173.2270  140.5250 C   0  0  2  0  0  3  0  0  0  0  0  0
  191.0210  175.0120  142.5550 C   0  0  2  0  0  3  0  0  0  0  0  0
  184.6260  178.7900  143.7680 O   0  0  0  0  0  0  0  0  0  0  0  0
  187.8180  175.4180  140.3430 C   0  0  0  0  0  2  0  0  0  0  0  0
  193.0130  174.0050  141.4860 C   0  0  0  0  0  3  0  0  0  0  0  0
  187.6510  173.0800  141.7580 O   0  0  0  0  0  0  0  0  0  0  0  0
  188.7250  176.7710  144.7400 N   0  0  0  0  0  0  0  0  0  0  0  0
  184.6990  178.1970  142.5030 C   0  0  0  0  0  0  0  0  0  0  0  0
  185.5570  178.5740  144.8350 C   0  0  2  0  0  3  0  0  0  0  0  0
  192.5090  174.7830  142.4500 C   0  0  0  0  0  0  0  0  0  0  0  0
  185.9510  178.0300  141.8440 N   0  0  0  0  0  2  0  0  0  0  0  0
  187.6150  177.2440  144.1290 C   0  0  0  0  0  0  0  0  0  0  0  0
  186.5980  176.7320  141.7780 C   0  0  1  0  0  3  0  0  0  0  0  0
  190.4780  175.1800  143.9600 C   0  0  0  0  0  0  0  0  0  0  0  0
  191.1900  174.9740  144.9790 O   0  0  0  0  0  0  0  0  0  0  0  0
  190.2340  173.9600  141.7620 C   0  0  1  0  0  3  0  0  0  0  0  0
  188.4560  174.3580  141.6990 P   0  0  1  0  0  0  0  0  0  0  0  0
  190.7950  173.8220  140.4220 N   0  0  0  0  0  2  0  0  0  0  0  0
  187.0330  178.6050  144.4090 C   0  0  0  0  0  2  0  0  0  0  0  0
  183.6370  177.8890  141.9040 O   0  0  0  0  0  0  0  0  0  0  0  0
  189.0830  175.6370  144.0980 C   0  0  0  0  0  0  0  0  0  0  0  0
  187.5970  176.7490  140.7770 O   0  0  0  0  0  0  0  0  0  0  0  0
  188.1350  175.3420  143.1410 C   0  0  0  0  0  0  0  0  0  0  0  0
  191.8660  170.6910  139.4850 S   0  0  0  0  0  0  0  0  0  0  0  0
  190.7290  169.7270  139.6750 O   0  0  0  0  0  0  0  0  0  0  0  0
  192.0560  171.7390  140.9090 C   0  0  1  0  0  3  0  0  0  0  0  0
  194.2700  170.6730  140.5000 C   0  0  0  0  0  2  0  0  0  0  0  0
  193.4230  169.8510  139.5450 C   0  0  2  0  0  3  0  0  0  0  0  0
  193.3490  171.2620  141.5680 C   0  0  0  0  0  2  0  0  0  0  0  0
  191.6970  171.4610  138.2040 O   0  0  0  0  0  0  0  0  0  0  0  0
  194.0480  169.8290  138.2320 N   0  0  0  0  0  2  0  0  0  0  0  0
  195.1840  170.7350  138.2840 C   0  0  0  0  0  2  0  0  0  0  0  0
  194.7910  173.0960  137.6930 C   0  0  0  0  0  2  0  0  0  0  0  0
  196.2040  172.7450  137.2790 C   0  0  0  0  0  2  0  0  0  0  0  0
  195.0970  171.7210  137.1380 C   0  0  0  0  0  3  0  0  0  0  0  0
  189.3060  176.9390  146.9900 O   0  0  0  0  0  1  0  0  0  0  0  0
  189.5220  177.4870  145.7260 C   0  0  0  0  0  2  0  0  0  0  0  0
  185.1740  177.3580  145.6790 C   0  0  0  0  0  2  0  0  0  0  0  0
  185.1830  178.7720  147.7310 O   0  0  0  0  0  0  0  0  0  0  0  0
  186.1590  176.6980  147.7460 O   0  0  0  0  0  1  0  0  0  0  0  0
  185.5240  177.5800  147.1090 C   0  0  0  0  0  0  0  0  0  0  0  0
  2 25  1  0  0  0  0
  2 14  2  0  0  0  0
  3 28  1  0  0  0  0
  3  7  1  1  0  0  0
  4 12  1  1  0  0  0
  4 16  1  0  0  0  0
  5 11  1  0  0  0  0
  6 24  1  0  0  0  0
  6 19  1  0  0  0  0
  7 12  2  0  0  0  0
  9 39  1  0  0  0  0
 10  5  1  0  0  0  0
 11 40  1  6  0  0  0
 12  1  1  0  0  0  0
 13 10  1  0  0  0  0
 14 21  1  0  0  0  0
 14  9  1  0  0  0  0
 15 24  1  6  0  0  0
 15 13  1  0  0  0  0
 15  2  1  0  0  0  0
 16 23  1  0  0  0  0
 16 17  2  0  0  0  0
 18 20  1  6  0  0  0
 18  4  1  0  0  0  0
 19  8  2  1  0  0  0
 19 18  1  0  0  0  0
 19 25  1  0  0  0  0
 20  3  1  0  0  0  0
 21 11  1  0  0  0  0
 22 10  2  0  0  0  0
 23  9  1  0  0  0  0
 25 23  2  0  0  0  0
 26 30  1  0  0  0  0
 26 27  2  0  0  0  0
 26 28  1  0  0  0  0
 28 31  1  6  0  0  0
 29 31  1  0  0  0  0
 30 33  1  6  0  0  0
 30 29  1  0  0  0  0
 32 26  2  0  0  0  0
 33 34  1  0  0  0  0
 36 35  1  0  0  0  0
 37 36  1  0  0  0  0
 37 35  1  0  0  0  0
 37 34  1  0  0  0  0
 39 38  1  0  0  0  0
 40 43  1  0  0  0  0
 43 41  2  0  0  0  0
 43 42  1  0  0  0  0
M  END
>  <MODEL>
2

>  <REMARK>
 VINA RESULT:      -7.4      3.199      5.440
  Name = 
  7 active torsions:
  status: ('A' for Active; 'I' for Inactive)
    1  A    between atoms: C_4  and  C_19
    2  A    between atoms: C_12  and  C_17
    3  A    between atoms: C_12  and  C_42
    4  A    between atoms: N_15  and  C_24
    5  A    between atoms: C_33  and  N_43
    6  A    between atoms: C_34  and  C_40
    7  A    between atoms: C_34  and  N_43
                            x       y       z     vdW  Elec       q    Type
                         _______ _______ _______ _____ _____    ______ ____

>  <TORSDO>
F 7

$$$$
=
 OpenBabel11062422333D

 43 49  0  0  1  0  0  0  0  0999 V2000
  191.8070  171.1550  142.5930 O   0  0  0  0  0  1  0  0  0  0  0  0
  188.7140  176.3470  144.0140 C   0  0  0  0  0  0  0  0  0  0  0  0
  193.9500  172.9080  145.1480 C   0  0  2  0  0  3  0  0  0  0  0  0
  191.4860  173.4100  143.6540 C   0  0  2  0  0  3  0  0  0  0  0  0
  185.4190  177.8290  144.2050 O   0  0  0  0  0  0  0  0  0  0  0  0
  190.3920  175.9370  146.4350 C   0  0  0  0  0  2  0  0  0  0  0  0
  193.3710  171.8950  144.1800 C   0  0  0  0  0  3  0  0  0  0  0  0
  192.1340  177.1730  144.7240 O   0  0  0  0  0  0  0  0  0  0  0  0
  188.5700  175.0120  142.2150 N   0  0  0  0  0  0  0  0  0  0  0  0
  186.2520  177.8730  145.3270 C   0  0  0  0  0  0  0  0  0  0  0  0
  185.7350  177.1780  142.9690 C   0  0  2  0  0  3  0  0  0  0  0  0
  192.2740  172.1380  143.4560 C   0  0  0  0  0  0  0  0  0  0  0  0
  187.0140  176.7350  145.7190 N   0  0  0  0  0  2  0  0  0  0  0  0
  187.8580  175.7690  143.0800 C   0  0  0  0  0  0  0  0  0  0  0  0
  188.4410  176.6620  145.4640 C   0  0  1  0  0  3  0  0  0  0  0  0
  190.8300  173.9790  142.4120 C   0  0  0  0  0  0  0  0  0  0  0  0
  191.0650  173.5170  141.2630 O   0  0  0  0  0  0  0  0  0  0  0  0
  192.3090  174.4690  144.3990 C   0  0  1  0  0  3  0  0  0  0  0  0
  191.2970  175.9200  144.8380 P   0  0  1  0  0  0  0  0  0  0  0  0
  192.9320  173.8790  145.5800 N   0  0  0  0  0  2  0  0  0  0  0  0
  186.3520  175.7790  143.1250 C   0  0  0  0  0  2  0  0  0  0  0  0
  186.2600  178.9030  146.0500 O   0  0  0  0  0  0  0  0  0  0  0  0
  189.8640  175.0780  142.5970 C   0  0  0  0  0  0  0  0  0  0  0  0
  189.0160  175.6450  146.2620 O   0  0  0  0  0  0  0  0  0  0  0  0
  189.9790  175.9620  143.6490 C   0  0  0  0  0  0  0  0  0  0  0  0
  196.7010  172.9960  145.2310 S   0  0  0  0  0  0  0  0  0  0  0  0
  197.5800  174.1190  145.7030 O   0  0  0  0  0  0  0  0  0  0  0  0
  195.1790  173.6200  144.5560 C   0  0  1  0  0  3  0  0  0  0  0  0
  196.1970  172.1640  142.8090 C   0  0  0  0  0  2  0  0  0  0  0  0
  197.3670  172.2430  143.7730 C   0  0  2  0  0  3  0  0  0  0  0  0
  195.2950  173.3730  143.0520 C   0  0  0  0  0  2  0  0  0  0  0  0
  196.4910  171.9920  146.3300 O   0  0  0  0  0  0  0  0  0  0  0  0
  197.8560  170.9050  144.0610 N   0  0  0  0  0  2  0  0  0  0  0  0
  197.0230  169.9750  143.3170 C   0  0  0  0  0  2  0  0  0  0  0  0
  195.4980  169.0250  145.0060 C   0  0  0  0  0  2  0  0  0  0  0  0
  195.4000  168.1700  143.7610 C   0  0  0  0  0  2  0  0  0  0  0  0
  196.7330  168.7600  144.1710 C   0  0  0  0  0  3  0  0  0  0  0  0
  188.2820  174.5730  139.9450 O   0  0  0  0  0  1  0  0  0  0  0  0
  188.0120  174.0980  141.2270 C   0  0  0  0  0  2  0  0  0  0  0  0
  186.5070  178.1010  142.0260 C   0  0  0  0  0  2  0  0  0  0  0  0
  186.7270  177.4880  139.6210 O   0  0  0  0  0  0  0  0  0  0  0  0
  184.8050  178.4650  140.3980 O   0  0  0  0  0  1  0  0  0  0  0  0
  185.9570  178.0210  140.6440 C   0  0  0  0  0  0  0  0  0  0  0  0
  1 12  1  0  0  0  0
  3  7  1  6  0  0  0
  3 20  1  0  0  0  0
  4 16  1  6  0  0  0
  4 18  1  0  0  0  0
  5 10  1  0  0  0  0
  9 23  1  0  0  0  0
  9 14  1  0  0  0  0
 10 13  1  0  0  0  0
 10 22  2  0  0  0  0
 11 40  1  1  0  0  0
 11 21  1  0  0  0  0
 11  5  1  0  0  0  0
 12  4  1  0  0  0  0
 12  7  2  0  0  0  0
 14 21  1  0  0  0  0
 14  2  2  0  0  0  0
 15  2  1  6  0  0  0
 15 13  1  0  0  0  0
 15 24  1  0  0  0  0
 16 23  1  0  0  0  0
 17 16  2  0  0  0  0
 18 19  1  0  0  0  0
 18 20  1  1  0  0  0
 19  8  2  6  0  0  0
 19  6  1  0  0  0  0
 23 25  2  0  0  0  0
 24  6  1  0  0  0  0
 25  2  1  0  0  0  0
 25 19  1  0  0  0  0
 26 27  2  0  0  0  0
 26 32  2  0  0  0  0
 28 31  1  6  0  0  0
 28  3  1  0  0  0  0
 28 26  1  0  0  0  0
 29 31  1  0  0  0  0
 29 30  1  0  0  0  0
 30 33  1  1  0  0  0
 30 26  1  0  0  0  0
 34 33  1  0  0  0  0
 34 37  1  0  0  0  0
 36 37  1  0  0  0  0
 36 35  1  0  0  0  0
 37 35  1  0  0  0  0
 38 39  1  0  0  0  0
 39  9  1  0  0  0  0
 41 43  2  0  0  0  0
 42 43  1  0  0  0  0
 43 40  1  0  0  0  0
M  END
>  <MODEL>
3

>  <REMARK>
 VINA RESULT:      -7.3      1.663      2.111
  Name = 
  7 active torsions:
  status: ('A' for Active; 'I' for Inactive)
    1  A    between atoms: C_4  and  C_19
    2  A    between atoms: C_12  and  C_17
    3  A    between atoms: C_12  and  C_42
    4  A    between atoms: N_15  and  C_24
    5  A    between atoms: C_33  and  N_43
    6  A    between atoms: C_34  and  C_40
    7  A    between atoms: C_34  and  N_43
                            x       y       z     vdW  Elec       q    Type
                         _______ _______ _______ _____ _____    ______ ____

>  <TORSDO>
F 7

$$$$
=
 OpenBabel11062422333D

 43 49  0  0  1  0  0  0  0  0999 V2000
  188.5560  175.5570  141.8040 O   0  0  0  0  0  1  0  0  0  0  0  0
  193.3730  173.8270  145.3170 C   0  0  0  0  0  0  0  0  0  0  0  0
  188.5280  177.9160  144.7420 C   0  0  2  0  0  3  0  0  0  0  0  0
  190.0130  175.5580  143.8520 C   0  0  2  0  0  3  0  0  0  0  0  0
  196.6410  172.2750  145.2410 O   0  0  0  0  0  0  0  0  0  0  0  0
  193.0040  176.6670  146.1180 C   0  0  0  0  0  2  0  0  0  0  0  0
  188.2390  177.2300  143.4210 C   0  0  0  0  0  3  0  0  0  0  0  0
  191.1350  175.3840  147.6510 O   0  0  0  0  0  0  0  0  0  0  0  0
  192.2340  172.6960  143.7480 N   0  0  0  0  0  0  0  0  0  0  0  0
  196.4960  173.5290  145.8430 C   0  0  0  0  0  0  0  0  0  0  0  0
  195.5970  171.5540  144.5770 C   0  0  2  0  0  3  0  0  0  0  0  0
  188.8790  176.1220  143.0310 C   0  0  0  0  0  0  0  0  0  0  0  0
  195.7030  174.5450  145.2370 N   0  0  0  0  0  2  0  0  0  0  0  0
  193.4630  172.9160  144.2680 C   0  0  0  0  0  0  0  0  0  0  0  0
  194.3800  174.8670  145.7420 C   0  0  1  0  0  3  0  0  0  0  0  0
  190.1430  174.0480  143.8460 C   0  0  0  0  0  0  0  0  0  0  0  0
  189.2650  173.3060  143.3300 O   0  0  0  0  0  0  0  0  0  0  0  0
  190.0090  176.1240  145.2780 C   0  0  1  0  0  3  0  0  0  0  0  0
  191.4970  175.6230  146.2040 P   0  0  1  0  0  0  0  0  0  0  0  0
  189.8710  177.5760  145.2390 N   0  0  0  0  0  2  0  0  0  0  0  0
  194.7320  172.4070  143.6350 C   0  0  0  0  0  2  0  0  0  0  0  0
  197.1460  173.7910  146.8880 O   0  0  0  0  0  0  0  0  0  0  0  0
  191.3650  173.4700  144.4340 C   0  0  0  0  0  0  0  0  0  0  0  0
  193.9710  176.1230  145.2360 O   0  0  0  0  0  0  0  0  0  0  0  0
  192.0370  174.1060  145.4560 C   0  0  0  0  0  0  0  0  0  0  0  0
  186.1070  178.7610  145.7450 S   0  0  0  0  0  0  0  0  0  0  0  0
  185.8050  179.2910  147.1180 O   0  0  0  0  0  0  0  0  0  0  0  0
  187.4510  177.5970  145.7930 C   0  0  1  0  0  3  0  0  0  0  0  0
  185.5430  176.4480  144.6780 C   0  0  0  0  0  2  0  0  0  0  0  0
  184.8200  177.6810  145.1880 C   0  0  2  0  0  3  0  0  0  0  0  0
  186.7960  176.2420  145.5280 C   0  0  0  0  0  2  0  0  0  0  0  0
  186.3400  179.8920  144.7820 O   0  0  0  0  0  0  0  0  0  0  0  0
  184.0660  178.2910  144.1050 N   0  0  0  0  0  2  0  0  0  0  0  0
  184.4560  177.6140  142.8790 C   0  0  0  0  0  2  0  0  0  0  0  0
  185.7220  177.9500  140.7900 C   0  0  0  0  0  2  0  0  0  0  0  0
  184.2740  178.2910  140.5130 C   0  0  0  0  0  2  0  0  0  0  0  0
  184.8900  178.6380  141.8520 C   0  0  0  0  0  3  0  0  0  0  0  0
  191.3630  170.7390  142.8310 O   0  0  0  0  0  1  0  0  0  0  0  0
  191.9490  171.9650  142.5210 C   0  0  0  0  0  2  0  0  0  0  0  0
  194.7960  170.6930  145.5540 C   0  0  0  0  0  2  0  0  0  0  0  0
  195.9050  168.5220  145.0380 O   0  0  0  0  0  0  0  0  0  0  0  0
  195.9260  169.3580  147.1720 O   0  0  0  0  0  1  0  0  0  0  0  0
  195.5820  169.4990  145.9690 C   0  0  0  0  0  0  0  0  0  0  0  0
  1 12  1  0  0  0  0
  2 25  1  0  0  0  0
  2 15  1  0  0  0  0
  3  7  1  6  0  0  0
  3 20  1  0  0  0  0
  3 28  1  0  0  0  0
  4 12  1  1  0  0  0
  4 18  1  0  0  0  0
  5 10  1  0  0  0  0
  6 19  1  0  0  0  0
  9 14  1  0  0  0  0
  9 23  1  0  0  0  0
 10 22  2  0  0  0  0
 11  5  1  0  0  0  0
 11 40  1  1  0  0  0
 12  7  2  0  0  0  0
 13 15  1  0  0  0  0
 13 10  1  0  0  0  0
 14  2  2  0  0  0  0
 15 24  1  6  0  0  0
 16  4  1  0  0  0  0
 16 23  1  0  0  0  0
 17 16  2  0  0  0  0
 18 20  1  6  0  0  0
 18 19  1  0  0  0  0
 19  8  2  1  0  0  0
 21 14  1  0  0  0  0
 21 11  1  0  0  0  0
 23 25  2  0  0  0  0
 24  6  1  0  0  0  0
 25 19  1  0  0  0  0
 26 28  1  0  0  0  0
 26 27  2  0  0  0  0
 28 31  1  6  0  0  0
 29 30  1  0  0  0  0
 29 31  1  0  0  0  0
 30 33  1  6  0  0  0
 30 26  1  0  0  0  0
 32 26  2  0  0  0  0
 34 33  1  0  0  0  0
 35 37  1  0  0  0  0
 36 35  1  0  0  0  0
 36 37  1  0  0  0  0
 37 34  1  0  0  0  0
 39 38  1  0  0  0  0
 39  9  1  0  0  0  0
 40 43  1  0  0  0  0
 41 43  2  0  0  0  0
 43 42  1  0  0  0  0
M  END
>  <MODEL>
4

>  <REMARK>
 VINA RESULT:      -7.1      2.710      9.576
  Name = 
  7 active torsions:
  status: ('A' for Active; 'I' for Inactive)
    1  A    between atoms: C_4  and  C_19
    2  A    between atoms: C_12  and  C_17
    3  A    between atoms: C_12  and  C_42
    4  A    between atoms: N_15  and  C_24
    5  A    between atoms: C_33  and  N_43
    6  A    between atoms: C_34  and  C_40
    7  A    between atoms: C_34  and  N_43
                            x       y       z     vdW  Elec       q    Type
                         _______ _______ _______ _____ _____    ______ ____

>  <TORSDO>
F 7

$$$$
=
 OpenBabel11062422333D

 43 49  0  0  1  0  0  0  0  0999 V2000
  189.5780  177.6600  147.6880 O   0  0  0  0  0  1  0  0  0  0  0  0
  192.0220  173.4540  143.8310 C   0  0  0  0  0  0  0  0  0  0  0  0
  186.9770  177.1540  145.0090 C   0  0  2  0  0  3  0  0  0  0  0  0
  189.7040  176.2740  145.5960 C   0  0  2  0  0  3  0  0  0  0  0  0
  194.3110  170.6600  143.6210 O   0  0  0  0  0  0  0  0  0  0  0  0
  189.1070  173.1330  143.3390 C   0  0  0  0  0  2  0  0  0  0  0  0
  187.7130  177.5830  146.2630 C   0  0  0  0  0  3  0  0  0  0  0  0
  189.7300  175.2790  141.7570 O   0  0  0  0  0  0  0  0  0  0  0  0
  193.0100  174.8130  145.3200 N   0  0  0  0  0  0  0  0  0  0  0  0
  193.0020  170.5050  143.1560 C   0  0  0  0  0  0  0  0  0  0  0  0
  194.8290  171.8390  144.2480 C   0  0  2  0  0  3  0  0  0  0  0  0
  188.9770  177.2260  146.5130 C   0  0  0  0  0  0  0  0  0  0  0  0
  191.8970  171.0190  143.8930 N   0  0  0  0  0  2  0  0  0  0  0  0
  193.0360  173.5740  144.7780 C   0  0  0  0  0  0  0  0  0  0  0  0
  191.2140  172.2300  143.4750 C   0  0  1  0  0  3  0  0  0  0  0  0
  191.1930  176.5140  145.4430 C   0  0  0  0  0  0  0  0  0  0  0  0
  191.7550  177.5390  145.9150 O   0  0  0  0  0  0  0  0  0  0  0  0
  189.0030  176.1590  144.2360 C   0  0  1  0  0  3  0  0  0  0  0  0
  189.7430  174.8500  143.2060 P   0  0  1  0  0  0  0  0  0  0  0  0
  187.5730  175.9400  144.4280 N   0  0  0  0  0  2  0  0  0  0  0  0
  193.9000  172.4580  145.3060 C   0  0  0  0  0  2  0  0  0  0  0  0
  192.7920  169.8240  142.1180 O   0  0  0  0  0  0  0  0  0  0  0  0
  191.9810  175.4770  144.7510 C   0  0  0  0  0  0  0  0  0  0  0  0
  189.9590  172.3160  144.1220 O   0  0  0  0  0  0  0  0  0  0  0  0
  191.4170  174.6840  143.7740 C   0  0  0  0  0  0  0  0  0  0  0  0
  186.2130  177.7490  142.4310 S   0  0  0  0  0  0  0  0  0  0  0  0
  187.0840  178.1530  141.2750 O   0  0  0  0  0  0  0  0  0  0  0  0
  186.9120  178.2900  143.9740 C   0  0  1  0  0  3  0  0  0  0  0  0
  184.5860  179.1770  143.8870 C   0  0  0  0  0  2  0  0  0  0  0  0
  184.7160  178.6920  142.4550 C   0  0  2  0  0  3  0  0  0  0  0  0
  185.9900  179.4170  144.4390 C   0  0  0  0  0  2  0  0  0  0  0  0
  185.9400  176.2700  142.3940 O   0  0  0  0  0  0  0  0  0  0  0  0
  183.5740  177.8580  142.1150 N   0  0  0  0  0  2  0  0  0  0  0  0
  182.9400  178.4550  140.9510 C   0  0  0  0  0  2  0  0  0  0  0  0
  180.8030  179.0440  142.0310 C   0  0  0  0  0  2  0  0  0  0  0  0
  180.6980  179.4130  140.5670 C   0  0  0  0  0  2  0  0  0  0  0  0
  181.4530  178.1680  140.9820 C   0  0  0  0  0  3  0  0  0  0  0  0
  194.9310  175.9100  146.0510 O   0  0  0  0  0  1  0  0  0  0  0  0
  193.7790  175.2500  146.4770 C   0  0  0  0  0  2  0  0  0  0  0  0
  195.3610  172.8380  143.2210 C   0  0  0  0  0  2  0  0  0  0  0  0
  197.4010  172.9240  144.6510 O   0  0  0  0  0  1  0  0  0  0  0  0
  196.7720  174.7480  143.4140 O   0  0  0  0  0  0  0  0  0  0  0  0
  196.5520  173.5560  143.7530 C   0  0  0  0  0  0  0  0  0  0  0  0
  2 14  2  0  0  0  0
  3  7  1  1  0  0  0
  4 16  1  6  0  0  0
  4 12  1  0  0  0  0
  5 11  1  0  0  0  0
  6 24  1  0  0  0  0
  7 12  2  0  0  0  0
  9 39  1  0  0  0  0
 10  5  1  0  0  0  0
 10 13  1  0  0  0  0
 11 40  1  6  0  0  0
 11 21  1  0  0  0  0
 12  1  1  0  0  0  0
 14 21  1  0  0  0  0
 14  9  1  0  0  0  0
 15  2  1  1  0  0  0
 15 13  1  0  0  0  0
 15 24  1  0  0  0  0
 16 17  2  0  0  0  0
 18 20  1  1  0  0  0
 18  4  1  0  0  0  0
 19  8  2  6  0  0  0
 19  6  1  0  0  0  0
 19 25  1  0  0  0  0
 19 18  1  0  0  0  0
 20  3  1  0  0  0  0
 22 10  2  0  0  0  0
 23  9  1  0  0  0  0
 23 16  1  0  0  0  0
 25  2  1  0  0  0  0
 25 23  2  0  0  0  0
 26 30  1  0  0  0  0
 26 28  1  0  0  0  0
 27 26  2  0  0  0  0
 28 31  1  1  0  0  0
 28  3  1  0  0  0  0
 29 31  1  0  0  0  0
 30 33  1  1  0  0  0
 30 29  1  0  0  0  0
 32 26  2  0  0  0  0
 34 37  1  0  0  0  0
 34 33  1  0  0  0  0
 36 37  1  0  0  0  0
 36 35  1  0  0  0  0
 37 35  1  0  0  0  0
 38 39  1  0  0  0  0
 40 43  1  0  0  0  0
 42 43  2  0  0  0  0
 43 41  1  0  0  0  0
M  END
>  <MODEL>
5

>  <REMARK>
 VINA RESULT:      -6.9      2.774     10.150
  Name = 
  7 active torsions:
  status: ('A' for Active; 'I' for Inactive)
    1  A    between atoms: C_4  and  C_19
    2  A    between atoms: C_12  and  C_17
    3  A    between atoms: C_12  and  C_42
    4  A    between atoms: N_15  and  C_24
    5  A    between atoms: C_33  and  N_43
    6  A    between atoms: C_34  and  C_40
    7  A    between atoms: C_34  and  N_43
                            x       y       z     vdW  Elec       q    Type
                         _______ _______ _______ _____ _____    ______ ____

>  <TORSDO>
F 7

$$$$
=
 OpenBabel11062422333D

 43 49  0  0  1  0  0  0  0  0999 V2000
  188.4910  176.2950  146.2160 O   0  0  0  0  0  1  0  0  0  0  0  0
  192.7640  172.7860  143.3920 C   0  0  0  0  0  0  0  0  0  0  0  0
  187.0870  175.6030  142.7890 C   0  0  2  0  0  3  0  0  0  0  0  0
  189.5530  175.0970  144.2780 C   0  0  2  0  0  3  0  0  0  0  0  0
  195.4120  170.3850  143.9520 O   0  0  0  0  0  0  0  0  0  0  0  0
  190.2880  172.0730  141.9060 C   0  0  0  0  0  2  0  0  0  0  0  0
  187.2670  176.0450  144.2280 C   0  0  0  0  0  3  0  0  0  0  0  0
  191.0550  174.3950  140.6770 O   0  0  0  0  0  0  0  0  0  0  0  0
  192.9440  174.1660  145.1540 N   0  0  0  0  0  0  0  0  0  0  0  0
  194.3860  170.0710  143.0560 C   0  0  0  0  0  0  0  0  0  0  0  0
  195.4820  171.5790  144.7390 C   0  0  2  0  0  3  0  0  0  0  0  0
  188.4090  175.8620  144.8980 C   0  0  0  0  0  0  0  0  0  0  0  0
  193.0260  170.3610  143.3680 N   0  0  0  0  0  2  0  0  0  0  0  0
  193.3570  172.9870  144.6360 C   0  0  0  0  0  0  0  0  0  0  0  0
  192.3390  171.4850  142.7570 C   0  0  1  0  0  3  0  0  0  0  0  0
  190.9420  175.5660  144.6600 C   0  0  0  0  0  0  0  0  0  0  0  0
  191.1320  176.6260  145.3140 O   0  0  0  0  0  0  0  0  0  0  0  0
  189.3890  174.9780  142.7580 C   0  0  1  0  0  3  0  0  0  0  0  0
  190.6410  173.8700  142.0320 P   0  0  1  0  0  0  0  0  0  0  0  0
  188.0360  174.5360  142.4340 N   0  0  0  0  0  2  0  0  0  0  0  0
  194.1590  171.9760  145.4150 C   0  0  0  0  0  2  0  0  0  0  0  0
  194.6580  169.4430  142.0000 O   0  0  0  0  0  0  0  0  0  0  0  0
  192.0780  174.7090  144.2710 C   0  0  0  0  0  0  0  0  0  0  0  0
  190.9420  171.3370  142.9250 O   0  0  0  0  0  0  0  0  0  0  0  0
  192.0220  173.9140  143.1460 C   0  0  0  0  0  0  0  0  0  0  0  0
  185.7040  177.7570  141.7740 S   0  0  0  0  0  0  0  0  0  0  0  0
  185.2500  177.9860  140.3610 O   0  0  0  0  0  0  0  0  0  0  0  0
  187.1950  176.7890  141.8140 C   0  0  1  0  0  3  0  0  0  0  0  0
  187.6530  178.8660  143.1110 C   0  0  0  0  0  2  0  0  0  0  0  0
  186.3240  179.2540  142.4890 C   0  0  2  0  0  3  0  0  0  0  0  0
  188.2810  177.7710  142.2500 C   0  0  0  0  0  2  0  0  0  0  0  0
  184.5940  177.1650  142.5970 O   0  0  0  0  0  0  0  0  0  0  0  0
  185.4240  179.7440  143.5210 N   0  0  0  0  0  2  0  0  0  0  0  0
  185.9410  179.2760  144.7960 C   0  0  0  0  0  2  0  0  0  0  0  0
  184.8160  177.6000  146.2110 C   0  0  0  0  0  2  0  0  0  0  0  0
  185.3440  178.6910  147.1180 C   0  0  0  0  0  2  0  0  0  0  0  0
  184.7910  179.0420  145.7530 C   0  0  0  0  0  3  0  0  0  0  0  0
  194.1530  175.6330  146.5000 O   0  0  0  0  0  1  0  0  0  0  0  0
  193.1880  174.6280  146.5140 C   0  0  0  0  0  2  0  0  0  0  0  0
  196.1630  172.7170  143.9790 C   0  0  0  0  0  2  0  0  0  0  0  0
  197.1910  173.2860  146.1770 O   0  0  0  0  0  1  0  0  0  0  0  0
  196.8370  174.9150  144.6030 O   0  0  0  0  0  0  0  0  0  0  0  0
  196.7570  173.7010  144.9260 C   0  0  0  0  0  0  0  0  0  0  0  0
  2 14  2  0  0  0  0
  3  7  1  1  0  0  0
  4 16  1  6  0  0  0
  4 12  1  0  0  0  0
  5 11  1  0  0  0  0
  6 19  1  0  0  0  0
  6 24  1  0  0  0  0
  7 12  2  0  0  0  0
  9 39  1  0  0  0  0
 10 13  1  0  0  0  0
 10  5  1  0  0  0  0
 11 40  1  6  0  0  0
 11 21  1  0  0  0  0
 12  1  1  0  0  0  0
 14  9  1  0  0  0  0
 14 21  1  0  0  0  0
 15 24  1  1  0  0  0
 15 13  1  0  0  0  0
 15  2  1  0  0  0  0
 16 17  2  0  0  0  0
 18 20  1  1  0  0  0
 18  4  1  0  0  0  0
 19  8  2  6  0  0  0
 19 18  1  0  0  0  0
 19 25  1  0  0  0  0
 20  3  1  0  0  0  0
 22 10  2  0  0  0  0
 23 16  1  0  0  0  0
 23  9  1  0  0  0  0
 25  2  1  0  0  0  0
 25 23  2  0  0  0  0
 26 28  1  0  0  0  0
 26 30  1  0  0  0  0
 26 32  2  0  0  0  0
 27 26  2  0  0  0  0
 28 31  1  1  0  0  0
 28  3  1  0  0  0  0
 30 29  1  0  0  0  0
 30 33  1  1  0  0  0
 31 29  1  0  0  0  0
 33 34  1  0  0  0  0
 34 37  1  0  0  0  0
 35 36  1  0  0  0  0
 37 35  1  0  0  0  0
 37 36  1  0  0  0  0
 38 39  1  0  0  0  0
 40 43  1  0  0  0  0
 42 43  2  0  0  0  0
 43 41  1  0  0  0  0
M  END
>  <MODEL>
6

>  <REMARK>
 VINA RESULT:      -6.6      2.694      9.613
  Name = 
  7 active torsions:
  status: ('A' for Active; 'I' for Inactive)
    1  A    between atoms: C_4  and  C_19
    2  A    between atoms: C_12  and  C_17
    3  A    between atoms: C_12  and  C_42
    4  A    between atoms: N_15  and  C_24
    5  A    between atoms: C_33  and  N_43
    6  A    between atoms: C_34  and  C_40
    7  A    between atoms: C_34  and  N_43
                            x       y       z     vdW  Elec       q    Type
                         _______ _______ _______ _____ _____    ______ ____

>  <TORSDO>
F 7

$$$$
=
 OpenBabel11062422333D

 43 49  0  0  1  0  0  0  0  0999 V2000
  193.0400  174.7670  144.4280 O   0  0  0  0  0  1  0  0  0  0  0  0
  187.2430  176.2990  142.8170 C   0  0  0  0  0  0  0  0  0  0  0  0
  192.0710  172.2850  141.7640 C   0  0  2  0  0  3  0  0  0  0  0  0
  190.8300  174.4640  143.2700 C   0  0  2  0  0  3  0  0  0  0  0  0
  184.8940  179.0420  142.6080 O   0  0  0  0  0  0  0  0  0  0  0  0
  188.2090  174.8730  140.3930 C   0  0  0  0  0  2  0  0  0  0  0  0
  192.8380  173.1010  142.7850 C   0  0  0  0  0  3  0  0  0  0  0  0
  187.4520  172.8060  142.0200 O   0  0  0  0  0  0  0  0  0  0  0  0
  188.4100  176.7660  144.6770 N   0  0  0  0  0  0  0  0  0  0  0  0
  185.1330  178.2620  141.4730 C   0  0  0  0  0  0  0  0  0  0  0  0
  185.5590  178.8900  143.8680 C   0  0  2  0  0  3  0  0  0  0  0  0
  192.2650  174.0640  143.5140 C   0  0  0  0  0  0  0  0  0  0  0  0
  186.4560  177.8650  141.1220 N   0  0  0  0  0  2  0  0  0  0  0  0
  187.5160  177.2570  143.7890 C   0  0  0  0  0  0  0  0  0  0  0  0
  186.9210  176.5100  141.3590 C   0  0  1  0  0  3  0  0  0  0  0  0
  190.0500  174.8980  144.4940 C   0  0  0  0  0  0  0  0  0  0  0  0
  190.5130  174.7730  145.6600 O   0  0  0  0  0  0  0  0  0  0  0  0
  190.0790  173.3950  142.4650 C   0  0  1  0  0  3  0  0  0  0  0  0
  188.4190  173.9660  141.9750 P   0  0  1  0  0  0  0  0  0  0  0  0
  190.8690  172.9980  141.3030 N   0  0  0  0  0  2  0  0  0  0  0  0
  187.0810  178.7000  143.7660 C   0  0  0  0  0  2  0  0  0  0  0  0
  184.1770  177.9820  140.7040 O   0  0  0  0  0  0  0  0  0  0  0  0
  188.7300  175.5170  144.2740 C   0  0  0  0  0  0  0  0  0  0  0  0
  188.0900  176.2700  140.6000 O   0  0  0  0  0  0  0  0  0  0  0  0
  187.9580  175.1850  143.1810 C   0  0  0  0  0  0  0  0  0  0  0  0
  192.8120  169.6340  141.6860 S   0  0  0  0  0  0  0  0  0  0  0  0
  192.0400  168.4700  141.1320 O   0  0  0  0  0  0  0  0  0  0  0  0
  191.7150  170.8890  142.3050 C   0  0  1  0  0  3  0  0  0  0  0  0
  193.2730  170.3170  144.1620 C   0  0  0  0  0  2  0  0  0  0  0  0
  193.6180  169.1950  143.2000 C   0  0  2  0  0  3  0  0  0  0  0  0
  191.8720  170.8230  143.8230 C   0  0  0  0  0  2  0  0  0  0  0  0
  193.7880  170.1540  140.6660 O   0  0  0  0  0  0  0  0  0  0  0  0
  195.0590  169.1310  143.0180 N   0  0  0  0  0  2  0  0  0  0  0  0
  195.6540  169.0340  144.3410 C   0  0  0  0  0  2  0  0  0  0  0  0
  197.2700  170.8640  143.9980 C   0  0  0  0  0  2  0  0  0  0  0  0
  197.4770  170.3200  145.3950 C   0  0  0  0  0  2  0  0  0  0  0  0
  197.1250  169.3810  144.2610 C   0  0  0  0  0  3  0  0  0  0  0  0
  188.3440  177.4860  146.8920 O   0  0  0  0  0  1  0  0  0  0  0  0
  189.0870  177.5330  145.7140 C   0  0  0  0  0  2  0  0  0  0  0  0
  184.8570  177.8630  144.7560 C   0  0  0  0  0  2  0  0  0  0  0  0
  185.5830  179.4110  146.5690 O   0  0  0  0  0  0  0  0  0  0  0  0
  184.0710  177.7440  147.0020 O   0  0  0  0  0  1  0  0  0  0  0  0
  184.8020  178.3370  146.1670 C   0  0  0  0  0  0  0  0  0  0  0  0
  2 25  1  0  0  0  0
  2 14  2  0  0  0  0
  3 28  1  0  0  0  0
  3  7  1  1  0  0  0
  4 12  1  1  0  0  0
  4 16  1  0  0  0  0
  5 11  1  0  0  0  0
  6 24  1  0  0  0  0
  6 19  1  0  0  0  0
  7 12  2  0  0  0  0
  9 39  1  0  0  0  0
 10  5  1  0  0  0  0
 11 40  1  6  0  0  0
 12  1  1  0  0  0  0
 13 15  1  0  0  0  0
 13 10  1  0  0  0  0
 14  9  1  0  0  0  0
 15 24  1  6  0  0  0
 15  2  1  0  0  0  0
 16 17  2  0  0  0  0
 18 20  1  6  0  0  0
 18  4  1  0  0  0  0
 19  8  2  1  0  0  0
 19 18  1  0  0  0  0
 19 25  1  0  0  0  0
 20  3  1  0  0  0  0
 21 14  1  0  0  0  0
 21 11  1  0  0  0  0
 22 10  2  0  0  0  0
 23 16  1  0  0  0  0
 23  9  1  0  0  0  0
 25 23  2  0  0  0  0
 26 28  1  0  0  0  0
 26 30  1  0  0  0  0
 27 26  2  0  0  0  0
 28 31  1  1  0  0  0
 30 33  1  6  0  0  0
 30 29  1  0  0  0  0
 31 29  1  0  0  0  0
 32 26  2  0  0  0  0
 33 34  1  0  0  0  0
 35 37  1  0  0  0  0
 35 36  1  0  0  0  0
 37 34  1  0  0  0  0
 37 36  1  0  0  0  0
 39 38  1  0  0  0  0
 40 43  1  0  0  0  0
 43 41  2  0  0  0  0
 43 42  1  0  0  0  0
M  END
>  <MODEL>
7

>  <REMARK>
 VINA RESULT:      -6.5      2.512      4.634
  Name = 
  7 active torsions:
  status: ('A' for Active; 'I' for Inactive)
    1  A    between atoms: C_4  and  C_19
    2  A    between atoms: C_12  and  C_17
    3  A    between atoms: C_12  and  C_42
    4  A    between atoms: N_15  and  C_24
    5  A    between atoms: C_33  and  N_43
    6  A    between atoms: C_34  and  C_40
    7  A    between atoms: C_34  and  N_43
                            x       y       z     vdW  Elec       q    Type
                         _______ _______ _______ _____ _____    ______ ____

>  <TORSDO>
F 7

$$$$
=
 OpenBabel11062422333D

 43 49  0  0  1  0  0  0  0  0999 V2000
  191.4020  176.9580  146.7130 O   0  0  0  0  0  1  0  0  0  0  0  0
  193.5830  172.0650  143.5760 C   0  0  0  0  0  0  0  0  0  0  0  0
  188.5920  175.9230  144.4270 C   0  0  2  0  0  3  0  0  0  0  0  0
  191.3740  175.1810  144.9370 C   0  0  2  0  0  3  0  0  0  0  0  0
  195.8960  169.2870  143.7290 O   0  0  0  0  0  0  0  0  0  0  0  0
  190.6420  171.6510  143.4140 C   0  0  0  0  0  2  0  0  0  0  0  0
  189.4240  176.5960  145.5010 C   0  0  0  0  0  3  0  0  0  0  0  0
  191.0900  173.4360  141.3880 O   0  0  0  0  0  0  0  0  0  0  0  0
  194.6700  173.6960  144.6710 N   0  0  0  0  0  0  0  0  0  0  0  0
  194.5550  169.0410  143.4200 C   0  0  0  0  0  0  0  0  0  0  0  0
  196.4440  170.5680  144.0600 C   0  0  2  0  0  3  0  0  0  0  0  0
  190.7110  176.2970  145.7060 C   0  0  0  0  0  0  0  0  0  0  0  0
  193.5070  169.6920  144.1340 N   0  0  0  0  0  2  0  0  0  0  0  0
  194.6720  172.3730  144.3870 C   0  0  0  0  0  0  0  0  0  0  0  0
  192.7700  170.7950  143.5440 C   0  0  1  0  0  3  0  0  0  0  0  0
  192.8400  175.3860  144.6100 C   0  0  0  0  0  0  0  0  0  0  0  0
  193.4210  176.4850  144.8160 O   0  0  0  0  0  0  0  0  0  0  0  0
  190.5620  174.7950  143.6940 C   0  0  1  0  0  3  0  0  0  0  0  0
  191.2340  173.3060  142.8860 P   0  0  1  0  0  0  0  0  0  0  0  0
  189.1570  174.6180  144.0500 N   0  0  0  0  0  2  0  0  0  0  0  0
  195.5980  171.3870  145.0500 C   0  0  0  0  0  2  0  0  0  0  0  0
  194.2690  168.1660  142.5620 O   0  0  0  0  0  0  0  0  0  0  0  0
  193.5840  174.2320  144.0730 C   0  0  0  0  0  0  0  0  0  0  0  0
  191.5730  171.0080  144.2680 O   0  0  0  0  0  0  0  0  0  0  0  0
  192.9530  173.2590  143.3270 C   0  0  0  0  0  0  0  0  0  0  0  0
  186.7880  176.6980  142.4950 S   0  0  0  0  0  0  0  0  0  0  0  0
  186.8570  176.4620  141.0130 O   0  0  0  0  0  0  0  0  0  0  0  0
  188.4180  176.8290  143.1960 C   0  0  1  0  0  3  0  0  0  0  0  0
  187.1790  178.8830  143.8670 C   0  0  0  0  0  2  0  0  0  0  0  0
  186.1990  178.3300  142.8480 C   0  0  2  0  0  3  0  0  0  0  0  0
  188.5600  178.3050  143.5640 C   0  0  0  0  0  2  0  0  0  0  0  0
  185.9440  175.6450  143.1590 O   0  0  0  0  0  0  0  0  0  0  0  0
  184.8660  178.2830  143.4260 N   0  0  0  0  0  2  0  0  0  0  0  0
  184.8540  179.2050  144.5500 C   0  0  0  0  0  2  0  0  0  0  0  0
  184.8070  177.3810  146.2070 C   0  0  0  0  0  2  0  0  0  0  0  0
  184.8910  178.6900  146.9630 C   0  0  0  0  0  2  0  0  0  0  0  0
  184.0700  178.5990  145.6940 C   0  0  0  0  0  3  0  0  0  0  0  0
  196.4450  175.1710  144.9850 O   0  0  0  0  0  1  0  0  0  0  0  0
  195.5270  174.3570  145.6460 C   0  0  0  0  0  2  0  0  0  0  0  0
  196.8680  171.3410  142.8120 C   0  0  0  0  0  2  0  0  0  0  0  0
  195.9390  170.4610  140.6730 O   0  0  0  0  0  0  0  0  0  0  0  0
  197.8970  169.6230  141.5200 O   0  0  0  0  0  1  0  0  0  0  0  0
  196.9420  170.4350  141.6320 C   0  0  0  0  0  0  0  0  0  0  0  0
  2 14  2  0  0  0  0
  3  7  1  1  0  0  0
  4 16  1  6  0  0  0
  4 12  1  0  0  0  0
  5 11  1  0  0  0  0
  6 24  1  0  0  0  0
  7 12  2  0  0  0  0
  9 39  1  0  0  0  0
 10  5  1  0  0  0  0
 10 13  1  0  0  0  0
 11 40  1  6  0  0  0
 11 21  1  0  0  0  0
 12  1  1  0  0  0  0
 14  9  1  0  0  0  0
 14 21  1  0  0  0  0
 15  2  1  1  0  0  0
 15 13  1  0  0  0  0
 15 24  1  0  0  0  0
 16 17  2  0  0  0  0
 18 20  1  1  0  0  0
 18  4  1  0  0  0  0
 19  8  2  6  0  0  0
 19 25  1  0  0  0  0
 19  6  1  0  0  0  0
 19 18  1  0  0  0  0
 20  3  1  0  0  0  0
 22 10  2  0  0  0  0
 23 16  1  0  0  0  0
 23  9  1  0  0  0  0
 25  2  1  0  0  0  0
 25 23  2  0  0  0  0
 26 30  1  0  0  0  0
 26 32  2  0  0  0  0
 26 28  1  0  0  0  0
 27 26  2  0  0  0  0
 28 31  1  1  0  0  0
 28  3  1  0  0  0  0
 30 33  1  1  0  0  0
 30 29  1  0  0  0  0
 31 29  1  0  0  0  0
 33 34  1  0  0  0  0
 34 37  1  0  0  0  0
 35 36  1  0  0  0  0
 37 35  1  0  0  0  0
 37 36  1  0  0  0  0
 38 39  1  0  0  0  0
 41 43  2  0  0  0  0
 42 43  1  0  0  0  0
 43 40  1  0  0  0  0
M  END
>  <MODEL>
8

>  <REMARK>
 VINA RESULT:      -6.4      2.961     10.022
  Name = 
  7 active torsions:
  status: ('A' for Active; 'I' for Inactive)
    1  A    between atoms: C_4  and  C_19
    2  A    between atoms: C_12  and  C_17
    3  A    between atoms: C_12  and  C_42
    4  A    between atoms: N_15  and  C_24
    5  A    between atoms: C_33  and  N_43
    6  A    between atoms: C_34  and  C_40
    7  A    between atoms: C_34  and  N_43
                            x       y       z     vdW  Elec       q    Type
                         _______ _______ _______ _____ _____    ______ ____

>  <TORSDO>
F 7

$$$$
=
 OpenBabel11062422333D

 43 49  0  0  1  0  0  0  0  0999 V2000
  186.9720  176.7930  147.8340 O   0  0  0  0  0  1  0  0  0  0  0  0
  191.8190  175.3480  144.2350 C   0  0  0  0  0  0  0  0  0  0  0  0
  185.6370  176.8640  144.3120 C   0  0  2  0  0  3  0  0  0  0  0  0
  188.2050  176.5030  145.6640 C   0  0  2  0  0  3  0  0  0  0  0  0
  194.9560  173.5500  144.1380 O   0  0  0  0  0  0  0  0  0  0  0  0
  189.5150  174.5770  142.5200 C   0  0  0  0  0  2  0  0  0  0  0  0
  185.7640  176.8830  145.8220 C   0  0  0  0  0  3  0  0  0  0  0  0
  189.6960  177.2710  142.0710 O   0  0  0  0  0  0  0  0  0  0  0  0
  191.7480  176.1400  146.3350 N   0  0  0  0  0  0  0  0  0  0  0  0
  193.9960  173.2970  143.1540 C   0  0  0  0  0  0  0  0  0  0  0  0
  194.7850  174.4370  145.2490 C   0  0  2  0  0  3  0  0  0  0  0  0
  186.9410  176.7690  146.4460 C   0  0  0  0  0  0  0  0  0  0  0  0
  192.6170  173.1670  143.4930 N   0  0  0  0  0  2  0  0  0  0  0  0
  192.3960  175.2950  145.5010 C   0  0  0  0  0  0  0  0  0  0  0  0
  191.6740  174.2370  143.2240 C   0  0  1  0  0  3  0  0  0  0  0  0
  189.4660  177.1350  146.2160 C   0  0  0  0  0  0  0  0  0  0  0  0
  189.4370  177.9650  147.1640 O   0  0  0  0  0  0  0  0  0  0  0  0
  188.0170  176.8120  144.1730 C   0  0  1  0  0  3  0  0  0  0  0  0
  189.4590  176.2840  143.1910 P   0  0  1  0  0  0  0  0  0  0  0  0
  186.7880  176.1950  143.6850 N   0  0  0  0  0  2  0  0  0  0  0  0
  193.4320  174.3050  145.9670 C   0  0  0  0  0  2  0  0  0  0  0  0
  194.3640  173.0930  141.9690 O   0  0  0  0  0  0  0  0  0  0  0  0
  190.7510  176.7130  145.6270 C   0  0  0  0  0  0  0  0  0  0  0  0
  190.3540  173.7360  143.2930 O   0  0  0  0  0  0  0  0  0  0  0  0
  190.8340  176.3010  144.3140 C   0  0  0  0  0  0  0  0  0  0  0  0
  185.0910  178.2560  141.9990 S   0  0  0  0  0  0  0  0  0  0  0  0
  185.9830  179.2120  141.2590 O   0  0  0  0  0  0  0  0  0  0  0  0
  185.4410  178.2800  143.7430 C   0  0  1  0  0  3  0  0  0  0  0  0
  183.0020  178.7240  143.4920 C   0  0  0  0  0  2  0  0  0  0  0  0
  183.4240  178.8510  142.0390 C   0  0  2  0  0  3  0  0  0  0  0  0
  184.2290  178.9700  144.3680 C   0  0  0  0  0  2  0  0  0  0  0  0
  185.1780  176.8800  141.3990 O   0  0  0  0  0  0  0  0  0  0  0  0
  182.5630  178.0280  141.2050 N   0  0  0  0  0  2  0  0  0  0  0  0
  181.1910  178.3890  141.5200 C   0  0  0  0  0  2  0  0  0  0  0  0
  178.9200  178.0540  140.6200 C   0  0  0  0  0  2  0  0  0  0  0  0
  179.3350  179.4760  140.3110 C   0  0  0  0  0  2  0  0  0  0  0  0
  180.3570  178.3600  140.2570 C   0  0  0  0  0  3  0  0  0  0  0  0
  191.1810  175.2160  148.3960 O   0  0  0  0  0  1  0  0  0  0  0  0
  191.9300  176.2150  147.7780 C   0  0  0  0  0  2  0  0  0  0  0  0
  195.1650  175.8730  144.8890 C   0  0  0  0  0  2  0  0  0  0  0  0
  195.6880  176.3300  142.4960 O   0  0  0  0  0  0  0  0  0  0  0  0
  197.2960  175.4870  143.8960 O   0  0  0  0  0  1  0  0  0  0  0  0
  196.1150  175.8940  143.7430 C   0  0  0  0  0  0  0  0  0  0  0  0
  2 25  1  0  0  0  0
  2 14  2  0  0  0  0
  3  7  1  1  0  0  0
  4 16  1  1  0  0  0
  4 12  1  0  0  0  0
  5 11  1  0  0  0  0
  6 19  1  0  0  0  0
  6 24  1  0  0  0  0
  7 12  2  0  0  0  0
  9 39  1  0  0  0  0
 10 13  1  0  0  0  0
 10  5  1  0  0  0  0
 11 40  1  6  0  0  0
 11 21  1  0  0  0  0
 12  1  1  0  0  0  0
 14 21  1  0  0  0  0
 14  9  1  0  0  0  0
 15 24  1  1  0  0  0
 15 13  1  0  0  0  0
 15  2  1  0  0  0  0
 16 17  2  0  0  0  0
 18 20  1  6  0  0  0
 18  4  1  0  0  0  0
 19  8  2  6  0  0  0
 19 18  1  0  0  0  0
 19 25  1  0  0  0  0
 20  3  1  0  0  0  0
 22 10  2  0  0  0  0
 23 16  1  0  0  0  0
 23  9  1  0  0  0  0
 25 23  2  0  0  0  0
 26 30  1  0  0  0  0
 26 28  1  0  0  0  0
 27 26  2  0  0  0  0
 28  3  1  0  0  0  0
 28 31  1  1  0  0  0
 29 31  1  0  0  0  0
 30 33  1  6  0  0  0
 30 29  1  0  0  0  0
 32 26  2  0  0  0  0
 33 34  1  0  0  0  0
 36 35  1  0  0  0  0
 37 36  1  0  0  0  0
 37 35  1  0  0  0  0
 37 34  1  0  0  0  0
 39 38  1  0  0  0  0
 41 43  2  0  0  0  0
 43 42  1  0  0  0  0
 43 40  1  0  0  0  0
M  END
>  <MODEL>
9

>  <REMARK>
 VINA RESULT:      -6.4      3.207     10.325
  Name = 
  7 active torsions:
  status: ('A' for Active; 'I' for Inactive)
    1  A    between atoms: C_4  and  C_19
    2  A    between atoms: C_12  and  C_17
    3  A    between atoms: C_12  and  C_42
    4  A    between atoms: N_15  and  C_24
    5  A    between atoms: C_33  and  N_43
    6  A    between atoms: C_34  and  C_40
    7  A    between atoms: C_34  and  N_43
                            x       y       z     vdW  Elec       q    Type
                         _______ _______ _______ _____ _____    ______ ____

>  <TORSDO>
F 7

$$$$
