=
 OpenBabel11062421073D

 27 29  0  0  1  0  0  0  0  0999 V2000
  189.8080  176.7930  145.4190 C   0  0  2  0  0  3  0  0  0  0  0  0
  190.8980  176.0450  144.7170 C   0  0  0  0  0  0  0  0  0  0  0  0
  190.6480  174.9170  144.2150 O   0  0  0  0  0  0  0  0  0  0  0  0
  192.2080  176.6100  144.6170 N   0  0  0  0  0  2  0  0  0  0  0  0
  193.5670  176.2920  142.7660 O   0  0  0  0  0  1  0  0  0  0  0  0
  193.3370  175.8680  144.0760 C   0  0  1  0  0  3  0  0  0  0  0  0
  194.5860  176.1010  144.9360 C   0  0  2  0  0  3  0  0  0  0  0  0
  194.6670  173.6550  145.3830 C   0  0  0  0  0  2  0  0  0  0  0  0
  194.7280  175.0320  146.0170 C   0  0  0  0  0  3  0  0  0  0  0  0
  196.0010  174.2370  145.7920 C   0  0  0  0  0  2  0  0  0  0  0  0
  194.4960  177.4150  146.9570 O   0  0  0  0  0  1  0  0  0  0  0  0
  194.5860  177.4960  145.5650 C   0  0  0  0  0  2  0  0  0  0  0  0
  190.1030  176.8950  146.9060 C   0  0  0  0  0  2  0  0  0  0  0  0
  189.3680  177.9370  147.4700 O   0  0  0  0  0  1  0  0  0  0  0  0
  188.5290  176.1240  145.2250 N   0  0  0  0  0  2  0  0  0  0  0  0
  186.4930  177.4820  144.9350 C   0  0  0  0  0  0  0  0  0  0  0  0
  186.7230  176.5710  142.0230 C   0  0  0  0  0  3  0  0  0  0  0  0
  185.7730  178.4840  144.2600 C   0  0  0  0  0  0  0  0  0  0  0  0
  184.5960  178.9960  144.8150 C   0  0  0  0  0  3  0  0  0  0  0  0
  184.1300  178.5120  146.0400 C   0  0  0  0  0  3  0  0  0  0  0  0
  185.5010  178.1860  140.8220 O   0  0  0  0  0  0  0  0  0  0  0  0
  187.4180  176.1190  143.0740 C   0  0  0  0  0  3  0  0  0  0  0  0
  187.7420  176.9260  144.2950 C   0  0  2  0  0  3  0  0  0  0  0  0
  186.2410  178.9840  142.9300 C   0  0  0  0  0  2  0  0  0  0  0  0
  186.1250  177.9170  141.8810 C   0  0  0  0  0  0  0  0  0  0  0  0
  186.0100  176.9930  146.1590 C   0  0  0  0  0  3  0  0  0  0  0  0
  184.8360  177.5100  146.7110 C   0  0  0  0  0  3  0  0  0  0  0  0
  1 13  1  1  0  0  0
  2  1  1  0  0  0  0
  3  2  2  0  0  0  0
  4  2  1  0  0  0  0
  6  5  1  6  0  0  0
  6  4  1  0  0  0  0
  6  7  1  0  0  0  0
  7 12  1  1  0  0  0
  7  9  1  0  0  0  0
  8 10  1  0  0  0  0
  8  9  1  0  0  0  0
 10  9  1  0  0  0  0
 12 11  1  0  0  0  0
 13 14  1  0  0  0  0
 15  1  1  0  0  0  0
 16 26  1  0  0  0  0
 17 22  2  0  0  0  0
 18 19  1  0  0  0  0
 18 16  2  0  0  0  0
 19 20  2  0  0  0  0
 20 27  1  0  0  0  0
 21 25  2  0  0  0  0
 22 23  1  0  0  0  0
 23 16  1  0  0  0  0
 23 15  1  1  0  0  0
 24 18  1  0  0  0  0
 25 17  1  0  0  0  0
 25 24  1  0  0  0  0
 26 27  2  0  0  0  0
M  END
>  <MODEL>
1

>  <REMARK>
 VINA RESULT:      -7.0      0.000      0.000
  Name = 
  8 active torsions:
  status: ('A' for Active; 'I' for Inactive)
    1  A    between atoms: C_3  and  CA_13
    2  A    between atoms: N_4  and  CA_13
    3  A    between atoms: N_4  and  C_17
    4  A    between atoms: C_8  and  CA_13
    5  A    between atoms: C_9  and  C_12
    6  A    between atoms: C_10  and  C_12
    7  A    between atoms: C_10  and  N_24
    8  A    between atoms: C_12  and  C_25
                            x       y       z     vdW  Elec       q    Type
                         _______ _______ _______ _____ _____    ______ ____

>  <TORSDO>
F 8

$$$$
=
 OpenBabel11062421073D

 27 29  0  0  1  0  0  0  0  0999 V2000
  187.0050  176.8770  141.9470 C   0  0  2  0  0  3  0  0  0  0  0  0
  187.6720  175.5370  141.9560 C   0  0  0  0  0  0  0  0  0  0  0  0
  187.0470  174.5390  142.4030 O   0  0  0  0  0  0  0  0  0  0  0  0
  189.0050  175.3950  141.4570 N   0  0  0  0  0  2  0  0  0  0  0  0
  190.2430  173.8020  140.3150 O   0  0  0  0  0  1  0  0  0  0  0  0
  189.7520  174.1520  141.5750 C   0  0  1  0  0  3  0  0  0  0  0  0
  190.9110  174.3200  142.5670 C   0  0  2  0  0  3  0  0  0  0  0  0
  189.6860  172.8470  144.1540 C   0  0  0  0  0  2  0  0  0  0  0  0
  190.4380  174.1560  144.0090 C   0  0  0  0  0  3  0  0  0  0  0  0
  191.1140  172.9520  144.6390 C   0  0  0  0  0  2  0  0  0  0  0  0
  192.9200  175.4900  141.9230 O   0  0  0  0  0  1  0  0  0  0  0  0
  191.6140  175.6670  142.3880 C   0  0  0  0  0  2  0  0  0  0  0  0
  186.7310  177.3270  140.5210 C   0  0  0  0  0  2  0  0  0  0  0  0
  185.6850  178.2490  140.5030 O   0  0  0  0  0  1  0  0  0  0  0  0
  187.8430  177.8640  142.6130 N   0  0  0  0  0  2  0  0  0  0  0  0
  187.1120  177.7200  144.9620 C   0  0  0  0  0  0  0  0  0  0  0  0
  190.1150  177.5290  145.5190 C   0  0  0  0  0  3  0  0  0  0  0  0
  187.1340  177.0850  146.2170 C   0  0  0  0  0  0  0  0  0  0  0  0
  186.1920  177.4270  147.1920 C   0  0  0  0  0  3  0  0  0  0  0  0
  185.2270  178.4010  146.9240 C   0  0  0  0  0  3  0  0  0  0  0  0
  190.2380  176.5050  147.6350 O   0  0  0  0  0  0  0  0  0  0  0  0
  189.5210  177.8350  144.3580 C   0  0  0  0  0  3  0  0  0  0  0  0
  188.1630  177.3550  143.9420 C   0  0  2  0  0  3  0  0  0  0  0  0
  188.1860  176.0680  146.5300 C   0  0  0  0  0  2  0  0  0  0  0  0
  189.5440  176.7010  146.6040 C   0  0  0  0  0  0  0  0  0  0  0  0
  186.1470  178.7070  144.7070 C   0  0  0  0  0  3  0  0  0  0  0  0
  185.2050  179.0410  145.6830 C   0  0  0  0  0  3  0  0  0  0  0  0
  1 13  1  6  0  0  0
  1  2  1  0  0  0  0
  1 15  1  0  0  0  0
  2  3  2  0  0  0  0
  4  6  1  0  0  0  0
  4  2  1  0  0  0  0
  6  5  1  6  0  0  0
  6  7  1  0  0  0  0
  7 12  1  1  0  0  0
  7  9  1  0  0  0  0
  8 10  1  0  0  0  0
  9  8  1  0  0  0  0
  9 10  1  0  0  0  0
 11 12  1  0  0  0  0
 14 13  1  0  0  0  0
 16 18  1  0  0  0  0
 17 25  1  0  0  0  0
 18 24  1  0  0  0  0
 18 19  2  0  0  0  0
 20 19  1  0  0  0  0
 22 17  2  0  0  0  0
 23 15  1  6  0  0  0
 23 22  1  0  0  0  0
 23 16  1  0  0  0  0
 24 25  1  0  0  0  0
 25 21  2  0  0  0  0
 26 16  2  0  0  0  0
 26 27  1  0  0  0  0
 27 20  2  0  0  0  0
M  END
>  <MODEL>
2

>  <REMARK>
 VINA RESULT:      -6.8      2.624      4.696
  Name = 
  8 active torsions:
  status: ('A' for Active; 'I' for Inactive)
    1  A    between atoms: C_3  and  CA_13
    2  A    between atoms: N_4  and  CA_13
    3  A    between atoms: N_4  and  C_17
    4  A    between atoms: C_8  and  CA_13
    5  A    between atoms: C_9  and  C_12
    6  A    between atoms: C_10  and  C_12
    7  A    between atoms: C_10  and  N_24
    8  A    between atoms: C_12  and  C_25
                            x       y       z     vdW  Elec       q    Type
                         _______ _______ _______ _____ _____    ______ ____

>  <TORSDO>
F 8

$$$$
=
 OpenBabel11062421073D

 27 29  0  0  1  0  0  0  0  0999 V2000
  189.5180  176.7480  143.5720 C   0  0  2  0  0  3  0  0  0  0  0  0
  190.2280  175.5540  144.1270 C   0  0  0  0  0  0  0  0  0  0  0  0
  189.6280  174.7990  144.9380 O   0  0  0  0  0  0  0  0  0  0  0  0
  191.5740  175.2720  143.7340 N   0  0  0  0  0  2  0  0  0  0  0  0
  192.6790  173.2650  143.3750 O   0  0  0  0  0  1  0  0  0  0  0  0
  192.3600  174.2130  144.3500 C   0  0  1  0  0  3  0  0  0  0  0  0
  193.6410  174.7910  144.9660 C   0  0  2  0  0  3  0  0  0  0  0  0
  192.8110  176.3170  146.7470 C   0  0  0  0  0  2  0  0  0  0  0  0
  193.4540  176.2500  145.3750 C   0  0  0  0  0  3  0  0  0  0  0  0
  194.2970  176.5530  146.6000 C   0  0  0  0  0  2  0  0  0  0  0  0
  194.9770  175.7950  143.2260 O   0  0  0  0  0  1  0  0  0  0  0  0
  194.8340  174.6530  144.0180 C   0  0  0  0  0  2  0  0  0  0  0  0
  190.4860  177.6400  142.8130 C   0  0  0  0  0  2  0  0  0  0  0  0
  191.0190  178.6040  143.6680 O   0  0  0  0  0  1  0  0  0  0  0  0
  188.8970  177.5120  144.6460 N   0  0  0  0  0  2  0  0  0  0  0  0
  186.6070  178.0770  145.3560 C   0  0  0  0  0  0  0  0  0  0  0  0
  185.8580  176.9960  142.5940 C   0  0  0  0  0  3  0  0  0  0  0  0
  185.3700  178.7070  145.1240 C   0  0  0  0  0  0  0  0  0  0  0  0
  184.4510  178.8530  146.1680 C   0  0  0  0  0  3  0  0  0  0  0  0
  184.7570  178.3720  147.4440 C   0  0  0  0  0  3  0  0  0  0  0  0
  183.7660  177.9780  142.1450 O   0  0  0  0  0  0  0  0  0  0  0  0
  187.0460  176.9130  143.2050 C   0  0  0  0  0  3  0  0  0  0  0  0
  187.5650  177.9040  144.2030 C   0  0  2  0  0  3  0  0  0  0  0  0
  185.0160  179.1920  143.7540 C   0  0  0  0  0  2  0  0  0  0  0  0
  184.8350  178.0440  142.8050 C   0  0  0  0  0  0  0  0  0  0  0  0
  186.8990  177.5860  146.6380 C   0  0  0  0  0  3  0  0  0  0  0  0
  185.9790  177.7380  147.6780 C   0  0  0  0  0  3  0  0  0  0  0  0
  1 13  1  1  0  0  0
  1  2  1  0  0  0  0
  1 15  1  0  0  0  0
  2  3  2  0  0  0  0
  4  2  1  0  0  0  0
  4  6  1  0  0  0  0
  6  5  1  6  0  0  0
  6  7  1  0  0  0  0
  7 12  1  6  0  0  0
  7  9  1  0  0  0  0
  9 10  1  0  0  0  0
  9  8  1  0  0  0  0
 10  8  1  0  0  0  0
 11 12  1  0  0  0  0
 13 14  1  0  0  0  0
 16 26  1  0  0  0  0
 17 25  1  0  0  0  0
 17 22  2  0  0  0  0
 18 16  2  0  0  0  0
 18 19  1  0  0  0  0
 19 20  2  0  0  0  0
 20 27  1  0  0  0  0
 21 25  2  0  0  0  0
 22 23  1  0  0  0  0
 23 15  1  1  0  0  0
 23 16  1  0  0  0  0
 24 18  1  0  0  0  0
 25 24  1  0  0  0  0
 26 27  2  0  0  0  0
M  END
>  <MODEL>
3

>  <REMARK>
 VINA RESULT:      -6.7      1.787      2.256
  Name = 
  8 active torsions:
  status: ('A' for Active; 'I' for Inactive)
    1  A    between atoms: C_3  and  CA_13
    2  A    between atoms: N_4  and  CA_13
    3  A    between atoms: N_4  and  C_17
    4  A    between atoms: C_8  and  CA_13
    5  A    between atoms: C_9  and  C_12
    6  A    between atoms: C_10  and  C_12
    7  A    between atoms: C_10  and  N_24
    8  A    between atoms: C_12  and  C_25
                            x       y       z     vdW  Elec       q    Type
                         _______ _______ _______ _____ _____    ______ ____

>  <TORSDO>
F 8

$$$$
=
 OpenBabel11062421073D

 27 29  0  0  1  0  0  0  0  0999 V2000
  189.9160  176.5080  143.9510 C   0  0  2  0  0  3  0  0  0  0  0  0
  190.4120  175.0960  143.9200 C   0  0  0  0  0  0  0  0  0  0  0  0
  191.6280  174.8740  143.6780 O   0  0  0  0  0  0  0  0  0  0  0  0
  189.5110  174.0130  144.1690 N   0  0  0  0  0  2  0  0  0  0  0  0
  189.4550  171.8980  145.1150 O   0  0  0  0  0  1  0  0  0  0  0  0
  189.9050  172.6210  144.0090 C   0  0  1  0  0  3  0  0  0  0  0  0
  189.3050  172.0440  142.7200 C   0  0  2  0  0  3  0  0  0  0  0  0
  191.6640  171.4500  142.1960 C   0  0  0  0  0  2  0  0  0  0  0  0
  190.3540  171.9440  141.6140 C   0  0  0  0  0  3  0  0  0  0  0  0
  190.7740  170.4970  141.4320 C   0  0  0  0  0  2  0  0  0  0  0  0
  188.3730  173.4720  141.0130 O   0  0  0  0  0  1  0  0  0  0  0  0
  188.1040  172.8620  142.2410 C   0  0  0  0  0  2  0  0  0  0  0  0
  190.9990  177.4430  144.4640 C   0  0  0  0  0  2  0  0  0  0  0  0
  191.1730  178.5050  143.5780 O   0  0  0  0  0  1  0  0  0  0  0  0
  188.7410  176.6130  144.8050 N   0  0  0  0  0  2  0  0  0  0  0  0
  186.5220  177.6760  144.9290 C   0  0  0  0  0  0  0  0  0  0  0  0
  186.4190  177.0030  141.9470 C   0  0  0  0  0  3  0  0  0  0  0  0
  185.5780  178.6050  144.4550 C   0  0  0  0  0  0  0  0  0  0  0  0
  184.4430  178.9020  145.2160 C   0  0  0  0  0  3  0  0  0  0  0  0
  184.2410  178.2750  146.4480 C   0  0  0  0  0  3  0  0  0  0  0  0
  184.8210  178.4980  141.0790 O   0  0  0  0  0  0  0  0  0  0  0  0
  187.3230  176.5880  142.8430 C   0  0  0  0  0  3  0  0  0  0  0  0
  187.7200  177.3520  144.0710 C   0  0  2  0  0  3  0  0  0  0  0  0
  185.7630  179.2540  143.1200 C   0  0  0  0  0  2  0  0  0  0  0  0
  185.6320  178.2540  142.0100 C   0  0  0  0  0  0  0  0  0  0  0  0
  186.3040  177.0420  146.1630 C   0  0  0  0  0  3  0  0  0  0  0  0
  185.1700  177.3450  146.9200 C   0  0  0  0  0  3  0  0  0  0  0  0
  1 13  1  1  0  0  0
  1 15  1  0  0  0  0
  2  1  1  0  0  0  0
  2  4  1  0  0  0  0
  3  2  2  0  0  0  0
  6  4  1  0  0  0  0
  6  5  1  1  0  0  0
  7 12  1  6  0  0  0
  7  6  1  0  0  0  0
  9  8  1  0  0  0  0
  9  7  1  0  0  0  0
 10  9  1  0  0  0  0
 10  8  1  0  0  0  0
 11 12  1  0  0  0  0
 14 13  1  0  0  0  0
 16 26  1  0  0  0  0
 17 25  1  0  0  0  0
 17 22  2  0  0  0  0
 18 16  2  0  0  0  0
 18 19  1  0  0  0  0
 19 20  2  0  0  0  0
 20 27  1  0  0  0  0
 21 25  2  0  0  0  0
 22 23  1  0  0  0  0
 23 15  1  1  0  0  0
 23 16  1  0  0  0  0
 24 18  1  0  0  0  0
 25 24  1  0  0  0  0
 26 27  2  0  0  0  0
M  END
>  <MODEL>
4

>  <REMARK>
 VINA RESULT:      -6.6      2.679      4.116
  Name = 
  8 active torsions:
  status: ('A' for Active; 'I' for Inactive)
    1  A    between atoms: C_3  and  CA_13
    2  A    between atoms: N_4  and  CA_13
    3  A    between atoms: N_4  and  C_17
    4  A    between atoms: C_8  and  CA_13
    5  A    between atoms: C_9  and  C_12
    6  A    between atoms: C_10  and  C_12
    7  A    between atoms: C_10  and  N_24
    8  A    between atoms: C_12  and  C_25
                            x       y       z     vdW  Elec       q    Type
                         _______ _______ _______ _____ _____    ______ ____

>  <TORSDO>
F 8

$$$$
=
 OpenBabel11062421073D

 27 29  0  0  1  0  0  0  0  0999 V2000
  189.7570  176.6050  144.9320 C   0  0  2  0  0  3  0  0  0  0  0  0
  190.6520  175.8510  143.9990 C   0  0  0  0  0  0  0  0  0  0  0  0
  191.7410  176.3680  143.6350 O   0  0  0  0  0  0  0  0  0  0  0  0
  190.2720  174.5540  143.5300 N   0  0  0  0  0  2  0  0  0  0  0  0
  192.1440  173.2510  143.1140 O   0  0  0  0  0  1  0  0  0  0  0  0
  191.0300  173.8410  142.5130 C   0  0  1  0  0  3  0  0  0  0  0  0
  190.1540  172.7670  141.8530 C   0  0  2  0  0  3  0  0  0  0  0  0
  188.9000  174.2400  140.2870 C   0  0  0  0  0  2  0  0  0  0  0  0
  188.7770  173.3180  141.4860 C   0  0  0  0  0  3  0  0  0  0  0  0
  188.3800  172.8320  140.1050 C   0  0  0  0  0  2  0  0  0  0  0  0
  190.3480  170.3700  142.0410 O   0  0  0  0  0  1  0  0  0  0  0  0
  190.0110  171.5300  142.7430 C   0  0  0  0  0  2  0  0  0  0  0  0
  190.2950  176.5450  146.3520 C   0  0  0  0  0  2  0  0  0  0  0  0
  190.2570  175.2330  146.8230 O   0  0  0  0  0  1  0  0  0  0  0  0
  188.4110  176.0490  144.9010 N   0  0  0  0  0  2  0  0  0  0  0  0
  186.3980  177.4720  144.8960 C   0  0  0  0  0  0  0  0  0  0  0  0
  186.3670  176.8140  141.9080 C   0  0  0  0  0  3  0  0  0  0  0  0
  185.6560  178.5450  144.3700 C   0  0  0  0  0  0  0  0  0  0  0  0
  184.5420  179.0320  145.0620 C   0  0  0  0  0  3  0  0  0  0  0  0
  184.1620  178.4530  146.2760 C   0  0  0  0  0  3  0  0  0  0  0  0
  185.1000  178.5530  140.9540 O   0  0  0  0  0  0  0  0  0  0  0  0
  187.1320  176.2560  142.8560 C   0  0  0  0  0  3  0  0  0  0  0  0
  187.5750  176.9460  144.1100 C   0  0  2  0  0  3  0  0  0  0  0  0
  186.0300  179.1480  143.0540 C   0  0  0  0  0  2  0  0  0  0  0  0
  185.8000  178.1800  141.9310 C   0  0  0  0  0  0  0  0  0  0  0  0
  186.0010  176.8880  146.1090 C   0  0  0  0  0  3  0  0  0  0  0  0
  184.8910  177.3810  146.7980 C   0  0  0  0  0  3  0  0  0  0  0  0
  1 13  1  1  0  0  0
  2  1  1  0  0  0  0
  3  2  2  0  0  0  0
  4  2  1  0  0  0  0
  6  5  1  1  0  0  0
  6  4  1  0  0  0  0
  7  6  1  0  0  0  0
  7 12  1  1  0  0  0
  8  9  1  0  0  0  0
  9  7  1  0  0  0  0
 10  8  1  0  0  0  0
 10  9  1  0  0  0  0
 11 12  1  0  0  0  0
 13 14  1  0  0  0  0
 15  1  1  0  0  0  0
 16 26  1  0  0  0  0
 17 25  1  0  0  0  0
 17 22  2  0  0  0  0
 18 16  2  0  0  0  0
 18 19  1  0  0  0  0
 19 20  2  0  0  0  0
 20 27  1  0  0  0  0
 21 25  2  0  0  0  0
 22 23  1  0  0  0  0
 23 16  1  0  0  0  0
 23 15  1  1  0  0  0
 24 18  1  0  0  0  0
 25 24  1  0  0  0  0
 26 27  2  0  0  0  0
M  END
>  <MODEL>
5

>  <REMARK>
 VINA RESULT:      -6.5      2.499      4.100
  Name = 
  8 active torsions:
  status: ('A' for Active; 'I' for Inactive)
    1  A    between atoms: C_3  and  CA_13
    2  A    between atoms: N_4  and  CA_13
    3  A    between atoms: N_4  and  C_17
    4  A    between atoms: C_8  and  CA_13
    5  A    between atoms: C_9  and  C_12
    6  A    between atoms: C_10  and  C_12
    7  A    between atoms: C_10  and  N_24
    8  A    between atoms: C_12  and  C_25
                            x       y       z     vdW  Elec       q    Type
                         _______ _______ _______ _____ _____    ______ ____

>  <TORSDO>
F 8

$$$$
=
 OpenBabel11062421073D

 27 29  0  0  1  0  0  0  0  0999 V2000
  189.4750  175.1950  142.5350 C   0  0  2  0  0  3  0  0  0  0  0  0
  188.9710  176.5900  142.7380 C   0  0  0  0  0  0  0  0  0  0  0  0
  189.7580  177.5610  142.5800 O   0  0  0  0  0  0  0  0  0  0  0  0
  187.6060  176.8150  143.1020 N   0  0  0  0  0  2  0  0  0  0  0  0
  186.7630  178.8120  142.2790 O   0  0  0  0  0  1  0  0  0  0  0  0
  187.1010  178.1340  143.4520 C   0  0  1  0  0  3  0  0  0  0  0  0
  185.8720  178.0070  144.3630 C   0  0  2  0  0  3  0  0  0  0  0  0
  186.5490  177.1460  146.5970 C   0  0  0  0  0  2  0  0  0  0  0  0
  185.9610  176.7680  145.2510 C   0  0  0  0  0  3  0  0  0  0  0  0
  185.0580  176.9350  146.4590 C   0  0  0  0  0  2  0  0  0  0  0  0
  183.7480  179.0600  143.9160 O   0  0  0  0  0  1  0  0  0  0  0  0
  184.5720  177.9910  143.5560 C   0  0  0  0  0  2  0  0  0  0  0  0
  188.8070  174.5560  141.3290 C   0  0  0  0  0  2  0  0  0  0  0  0
  188.0220  173.4770  141.7330 O   0  0  0  0  0  1  0  0  0  0  0  0
  189.2140  174.3870  143.7180 N   0  0  0  0  0  2  0  0  0  0  0  0
  191.3410  174.0730  144.9210 C   0  0  0  0  0  0  0  0  0  0  0  0
  189.8020  175.3160  147.2540 C   0  0  0  0  0  3  0  0  0  0  0  0
  192.3840  174.5750  145.7210 C   0  0  0  0  0  0  0  0  0  0  0  0
  193.5610  173.8370  145.8820 C   0  0  0  0  0  3  0  0  0  0  0  0
  193.7050  172.5990  145.2510 C   0  0  0  0  0  3  0  0  0  0  0  0
  191.4890  176.1500  148.6700 O   0  0  0  0  0  0  0  0  0  0  0  0
  189.3060  174.9010  146.0820 C   0  0  0  0  0  3  0  0  0  0  0  0
  190.0700  174.8760  144.7920 C   0  0  2  0  0  3  0  0  0  0  0  0
  192.2270  175.8810  146.4320 C   0  0  0  0  0  2  0  0  0  0  0  0
  191.1810  175.7910  147.5040 C   0  0  0  0  0  0  0  0  0  0  0  0
  191.4900  172.8220  144.3010 C   0  0  0  0  0  3  0  0  0  0  0  0
  192.6690  172.0910  144.4620 C   0  0  0  0  0  3  0  0  0  0  0  0
  1 13  1  6  0  0  0
  1  2  1  0  0  0  0
  1 15  1  0  0  0  0
  2  4  1  0  0  0  0
  3  2  2  0  0  0  0
  4  6  1  0  0  0  0
  6  5  1  6  0  0  0
  6  7  1  0  0  0  0
  7 12  1  6  0  0  0
  7  9  1  0  0  0  0
  9 10  1  0  0  0  0
  9  8  1  0  0  0  0
 10  8  1  0  0  0  0
 12 11  1  0  0  0  0
 13 14  1  0  0  0  0
 16 18  1  0  0  0  0
 17 25  1  0  0  0  0
 18 19  2  0  0  0  0
 18 24  1  0  0  0  0
 20 19  1  0  0  0  0
 22 17  2  0  0  0  0
 23 15  1  6  0  0  0
 23 16  1  0  0  0  0
 23 22  1  0  0  0  0
 24 25  1  0  0  0  0
 25 21  2  0  0  0  0
 26 27  1  0  0  0  0
 26 16  2  0  0  0  0
 27 20  2  0  0  0  0
M  END
>  <MODEL>
6

>  <REMARK>
 VINA RESULT:      -6.4      2.260      7.722
  Name = 
  8 active torsions:
  status: ('A' for Active; 'I' for Inactive)
    1  A    between atoms: C_3  and  CA_13
    2  A    between atoms: N_4  and  CA_13
    3  A    between atoms: N_4  and  C_17
    4  A    between atoms: C_8  and  CA_13
    5  A    between atoms: C_9  and  C_12
    6  A    between atoms: C_10  and  C_12
    7  A    between atoms: C_10  and  N_24
    8  A    between atoms: C_12  and  C_25
                            x       y       z     vdW  Elec       q    Type
                         _______ _______ _______ _____ _____    ______ ____

>  <TORSDO>
F 8

$$$$
=
 OpenBabel11062421073D

 27 29  0  0  1  0  0  0  0  0999 V2000
  189.9650  177.3250  145.5800 C   0  0  2  0  0  3  0  0  0  0  0  0
  191.1960  177.2480  144.7320 C   0  0  0  0  0  0  0  0  0  0  0  0
  191.2110  177.8230  143.6110 O   0  0  0  0  0  0  0  0  0  0  0  0
  192.3430  176.5300  145.1950 N   0  0  0  0  0  2  0  0  0  0  0  0
  194.6430  176.7620  145.0250 O   0  0  0  0  0  1  0  0  0  0  0  0
  193.5090  176.3000  144.3550 C   0  0  1  0  0  3  0  0  0  0  0  0
  193.6520  174.8050  144.0410 C   0  0  2  0  0  3  0  0  0  0  0  0
  193.8390  175.3860  141.6290 C   0  0  0  0  0  2  0  0  0  0  0  0
  193.1540  174.4800  142.6340 C   0  0  0  0  0  3  0  0  0  0  0  0
  194.3020  173.9560  141.7910 C   0  0  0  0  0  2  0  0  0  0  0  0
  193.8150  173.0690  145.7090 O   0  0  0  0  0  1  0  0  0  0  0  0
  192.9260  173.9400  145.0750 C   0  0  0  0  0  2  0  0  0  0  0  0
  190.2950  177.0080  147.0290 C   0  0  0  0  0  2  0  0  0  0  0  0
  189.6990  175.8040  147.4030 O   0  0  0  0  0  1  0  0  0  0  0  0
  188.9590  176.3890  145.0970 N   0  0  0  0  0  2  0  0  0  0  0  0
  186.7780  177.5320  145.0110 C   0  0  0  0  0  0  0  0  0  0  0  0
  186.8710  176.7390  142.0580 C   0  0  0  0  0  3  0  0  0  0  0  0
  185.9070  178.4730  144.4310 C   0  0  0  0  0  0  0  0  0  0  0  0
  184.7310  178.8400  145.0920 C   0  0  0  0  0  3  0  0  0  0  0  0
  184.4150  178.2730  146.3280 C   0  0  0  0  0  3  0  0  0  0  0  0
  185.4000  178.2520  141.0140 O   0  0  0  0  0  0  0  0  0  0  0  0
  187.6900  176.3310  143.0360 C   0  0  0  0  0  3  0  0  0  0  0  0
  188.0230  177.1310  144.2600 C   0  0  2  0  0  3  0  0  0  0  0  0
  186.2160  179.0590  143.0900 C   0  0  0  0  0  2  0  0  0  0  0  0
  186.1300  178.0180  142.0120 C   0  0  0  0  0  0  0  0  0  0  0  0
  186.4450  176.9580  146.2490 C   0  0  0  0  0  3  0  0  0  0  0  0
  185.2700  177.3310  146.9060 C   0  0  0  0  0  3  0  0  0  0  0  0
  1 13  1  1  0  0  0
  2  4  1  0  0  0  0
  2  1  1  0  0  0  0
  3  2  2  0  0  0  0
  6  5  1  1  0  0  0
  6  4  1  0  0  0  0
  7  6  1  0  0  0  0
  7 12  1  1  0  0  0
  8 10  1  0  0  0  0
  8  9  1  0  0  0  0
  9  7  1  0  0  0  0
 10  9  1  0  0  0  0
 12 11  1  0  0  0  0
 13 14  1  0  0  0  0
 15  1  1  0  0  0  0
 16 26  1  0  0  0  0
 17 22  2  0  0  0  0
 18 16  2  0  0  0  0
 18 19  1  0  0  0  0
 19 20  2  0  0  0  0
 20 27  1  0  0  0  0
 21 25  2  0  0  0  0
 22 23  1  0  0  0  0
 23 16  1  0  0  0  0
 23 15  1  1  0  0  0
 24 18  1  0  0  0  0
 25 17  1  0  0  0  0
 25 24  1  0  0  0  0
 26 27  2  0  0  0  0
M  END
>  <MODEL>
7

>  <REMARK>
 VINA RESULT:      -6.3      1.516      2.067
  Name = 
  8 active torsions:
  status: ('A' for Active; 'I' for Inactive)
    1  A    between atoms: C_3  and  CA_13
    2  A    between atoms: N_4  and  CA_13
    3  A    between atoms: N_4  and  C_17
    4  A    between atoms: C_8  and  CA_13
    5  A    between atoms: C_9  and  C_12
    6  A    between atoms: C_10  and  C_12
    7  A    between atoms: C_10  and  N_24
    8  A    between atoms: C_12  and  C_25
                            x       y       z     vdW  Elec       q    Type
                         _______ _______ _______ _____ _____    ______ ____

>  <TORSDO>
F 8

$$$$
=
 OpenBabel11062421073D

 27 29  0  0  1  0  0  0  0  0999 V2000
  190.1740  175.7120  145.7540 C   0  0  2  0  0  3  0  0  0  0  0  0
  191.4380  175.2090  145.1290 C   0  0  0  0  0  0  0  0  0  0  0  0
  191.5970  173.9700  144.9680 O   0  0  0  0  0  0  0  0  0  0  0  0
  192.4500  176.1310  144.7150 N   0  0  0  0  0  2  0  0  0  0  0  0
  194.0690  176.4030  143.0770 O   0  0  0  0  0  1  0  0  0  0  0  0
  193.7530  175.6930  144.2370 C   0  0  1  0  0  3  0  0  0  0  0  0
  194.8220  175.9340  145.3120 C   0  0  2  0  0  3  0  0  0  0  0  0
  195.2930  173.4940  145.1770 C   0  0  0  0  0  2  0  0  0  0  0  0
  195.0970  174.6660  146.1190 C   0  0  0  0  0  3  0  0  0  0  0  0
  196.4930  174.1560  145.8160 C   0  0  0  0  0  2  0  0  0  0  0  0
  194.9320  178.3000  145.7690 O   0  0  0  0  0  1  0  0  0  0  0  0
  194.4350  177.0840  146.2440 C   0  0  0  0  0  2  0  0  0  0  0  0
  189.3210  174.5510  146.2380 C   0  0  0  0  0  2  0  0  0  0  0  0
  189.2750  174.5400  147.6320 O   0  0  0  0  0  1  0  0  0  0  0  0
  189.4160  176.5040  144.7960 N   0  0  0  0  0  2  0  0  0  0  0  0
  187.1340  177.3290  144.3630 C   0  0  0  0  0  0  0  0  0  0  0  0
  187.2340  178.1140  147.3180 C   0  0  0  0  0  3  0  0  0  0  0  0
  185.7680  177.3880  144.6930 C   0  0  0  0  0  0  0  0  0  0  0  0
  184.8510  177.9260  143.7850 C   0  0  0  0  0  3  0  0  0  0  0  0
  185.2870  178.4070  142.5480 C   0  0  0  0  0  3  0  0  0  0  0  0
  184.9700  178.2750  147.9420 O   0  0  0  0  0  0  0  0  0  0  0  0
  188.2490  177.6890  146.5550 C   0  0  0  0  0  3  0  0  0  0  0  0
  188.1050  176.7740  145.3760 C   0  0  2  0  0  3  0  0  0  0  0  0
  185.2940  176.9110  146.0290 C   0  0  0  0  0  2  0  0  0  0  0  0
  185.8020  177.7940  147.1300 C   0  0  0  0  0  0  0  0  0  0  0  0
  187.5650  177.8260  143.1230 C   0  0  0  0  0  3  0  0  0  0  0  0
  186.6440  178.3580  142.2180 C   0  0  0  0  0  3  0  0  0  0  0  0
  1 13  1  6  0  0  0
  2  1  1  0  0  0  0
  3  2  2  0  0  0  0
  4  2  1  0  0  0  0
  6  5  1  6  0  0  0
  6  4  1  0  0  0  0
  6  7  1  0  0  0  0
  7  9  1  0  0  0  0
  7 12  1  1  0  0  0
  8 10  1  0  0  0  0
  8  9  1  0  0  0  0
 10  9  1  0  0  0  0
 11 12  1  0  0  0  0
 13 14  1  0  0  0  0
 15  1  1  0  0  0  0
 16 18  1  0  0  0  0
 16 23  1  0  0  0  0
 18 24  1  0  0  0  0
 19 18  2  0  0  0  0
 20 19  1  0  0  0  0
 22 17  2  0  0  0  0
 23 15  1  6  0  0  0
 23 22  1  0  0  0  0
 24 25  1  0  0  0  0
 25 17  1  0  0  0  0
 25 21  2  0  0  0  0
 26 16  2  0  0  0  0
 27 20  2  0  0  0  0
 27 26  1  0  0  0  0
M  END
>  <MODEL>
8

>  <REMARK>
 VINA RESULT:      -6.3      1.872      2.884
  Name = 
  8 active torsions:
  status: ('A' for Active; 'I' for Inactive)
    1  A    between atoms: C_3  and  CA_13
    2  A    between atoms: N_4  and  CA_13
    3  A    between atoms: N_4  and  C_17
    4  A    between atoms: C_8  and  CA_13
    5  A    between atoms: C_9  and  C_12
    6  A    between atoms: C_10  and  C_12
    7  A    between atoms: C_10  and  N_24
    8  A    between atoms: C_12  and  C_25
                            x       y       z     vdW  Elec       q    Type
                         _______ _______ _______ _____ _____    ______ ____

>  <TORSDO>
F 8

$$$$
=
 OpenBabel11062421073D

 27 29  0  0  1  0  0  0  0  0999 V2000
  190.1430  175.9790  145.5970 C   0  0  2  0  0  3  0  0  0  0  0  0
  191.4930  176.5330  145.2630 C   0  0  0  0  0  0  0  0  0  0  0  0
  191.5870  177.4710  144.4280 O   0  0  0  0  0  0  0  0  0  0  0  0
  192.6630  176.0010  145.8910 N   0  0  0  0  0  2  0  0  0  0  0  0
  194.5430  177.2150  146.4970 O   0  0  0  0  0  1  0  0  0  0  0  0
  194.0060  176.3990  145.4990 C   0  0  1  0  0  3  0  0  0  0  0  0
  194.8890  175.1600  145.2970 C   0  0  2  0  0  3  0  0  0  0  0  0
  196.0740  176.4160  143.5050 C   0  0  0  0  0  2  0  0  0  0  0  0
  195.4340  175.0910  143.8710 C   0  0  0  0  0  3  0  0  0  0  0  0
  196.9440  175.2420  143.8890 C   0  0  0  0  0  2  0  0  0  0  0  0
  194.9720  172.7580  145.4990 O   0  0  0  0  0  1  0  0  0  0  0  0
  194.1410  173.8710  145.6430 C   0  0  0  0  0  2  0  0  0  0  0  0
  190.2050  174.4660  145.7300 C   0  0  0  0  0  2  0  0  0  0  0  0
  189.3190  174.0370  146.7170 O   0  0  0  0  0  1  0  0  0  0  0  0
  189.1810  176.3360  144.5640 N   0  0  0  0  0  2  0  0  0  0  0  0
  186.9560  177.3580  144.2850 C   0  0  0  0  0  0  0  0  0  0  0  0
  187.2560  177.9850  147.2640 C   0  0  0  0  0  3  0  0  0  0  0  0
  185.6160  177.5080  144.6860 C   0  0  0  0  0  0  0  0  0  0  0  0
  184.7030  178.1600  143.8510 C   0  0  0  0  0  3  0  0  0  0  0  0
  185.1200  178.6670  142.6170 C   0  0  0  0  0  3  0  0  0  0  0  0
  185.0440  178.2910  148.0080 O   0  0  0  0  0  0  0  0  0  0  0  0
  188.1970  177.5200  146.4320 C   0  0  0  0  0  3  0  0  0  0  0  0
  187.9250  176.6780  145.2210 C   0  0  2  0  0  3  0  0  0  0  0  0
  185.1670  177.0030  146.0210 C   0  0  0  0  0  2  0  0  0  0  0  0
  185.7960  177.7880  147.1340 C   0  0  0  0  0  0  0  0  0  0  0  0
  187.3680  177.8810  143.0490 C   0  0  0  0  0  3  0  0  0  0  0  0
  186.4510  178.5290  142.2170 C   0  0  0  0  0  3  0  0  0  0  0  0
  1 13  1  6  0  0  0
  2  1  1  0  0  0  0
  2  4  1  0  0  0  0
  3  2  2  0  0  0  0
  6  4  1  0  0  0  0
  6  5  1  1  0  0  0
  7  6  1  0  0  0  0
  7 12  1  6  0  0  0
  8  9  1  0  0  0  0
  8 10  1  0  0  0  0
  9 10  1  0  0  0  0
  9  7  1  0  0  0  0
 11 12  1  0  0  0  0
 13 14  1  0  0  0  0
 15  1  1  0  0  0  0
 16 18  1  0  0  0  0
 16 23  1  0  0  0  0
 18 24  1  0  0  0  0
 19 18  2  0  0  0  0
 20 19  1  0  0  0  0
 22 17  2  0  0  0  0
 23 15  1  6  0  0  0
 23 22  1  0  0  0  0
 24 25  1  0  0  0  0
 25 17  1  0  0  0  0
 25 21  2  0  0  0  0
 26 16  2  0  0  0  0
 27 20  2  0  0  0  0
 27 26  1  0  0  0  0
M  END
>  <MODEL>
9

>  <REMARK>
 VINA RESULT:      -6.3      2.048      3.373
  Name = 
  8 active torsions:
  status: ('A' for Active; 'I' for Inactive)
    1  A    between atoms: C_3  and  CA_13
    2  A    between atoms: N_4  and  CA_13
    3  A    between atoms: N_4  and  C_17
    4  A    between atoms: C_8  and  CA_13
    5  A    between atoms: C_9  and  C_12
    6  A    between atoms: C_10  and  C_12
    7  A    between atoms: C_10  and  N_24
    8  A    between atoms: C_12  and  C_25
                            x       y       z     vdW  Elec       q    Type
                         _______ _______ _______ _____ _____    ______ ____

>  <TORSDO>
F 8

$$$$
