=
 OpenBabel11062419263D

 38 43  0  0  1  0  0  0  0  0999 V2000
  189.7080  174.9450  147.5180 N   0  0  0  0  0  0  0  0  0  0  0  0
  188.9380  175.4060  146.5280 N   0  0  0  0  0  0  0  0  0  0  0  0
  191.5760  176.1350  146.6600 C   0  0  0  0  0  0  0  0  0  0  0  0
  191.0190  175.2820  147.6110 C   0  0  0  0  0  3  0  0  0  0  0  0
  190.7710  176.6210  145.6320 C   0  0  0  0  0  3  0  0  0  0  0  0
  189.4270  176.2400  145.5700 C   0  0  0  0  0  0  0  0  0  0  0  0
  187.8410  176.5940  142.1480 C   0  0  0  0  0  0  0  0  0  0  0  0
  186.9070  177.6320  142.3840 C   0  0  0  0  0  0  0  0  0  0  0  0
  188.6510  176.1560  143.1990 C   0  0  0  0  0  3  0  0  0  0  0  0
  187.6230  177.7410  144.6980 C   0  0  0  0  0  3  0  0  0  0  0  0
  186.8170  178.2150  143.6630 C   0  0  0  0  0  0  0  0  0  0  0  0
  186.0520  178.0650  141.3780 O   0  0  0  0  0  1  0  0  0  0  0  0
  188.5500  176.7150  144.4780 C   0  0  0  0  0  0  0  0  0  0  0  0
  188.4830  174.6320  140.7320 C   0  0  0  0  0  1  0  0  0  0  0  0
  188.0070  175.9590  140.9070 O   0  0  0  0  0  0  0  0  0  0  0  0
  185.9080  179.2410  143.9480 O   0  0  0  0  0  0  0  0  0  0  0  0
  184.6160  179.0390  144.4520 C   0  0  0  0  0  0  0  0  0  0  0  0
  183.6720  178.8160  143.6500 O   0  0  0  0  0  0  0  0  0  0  0  0
  184.4900  177.5750  146.4280 C   0  0  0  0  0  1  0  0  0  0  0  0
  184.3400  178.9940  145.9210 C   0  0  0  0  0  2  0  0  0  0  0  0
  193.0080  176.5400  146.7530 C   0  0  0  0  0  2  0  0  0  0  0  0
  193.9180  175.3870  146.3550 C   0  0  0  0  0  2  0  0  0  0  0  0
  196.2490  172.3970  145.3830 C   0  0  0  0  0  2  0  0  0  0  0  0
  195.4630  171.1220  145.0900 C   0  0  2  0  0  3  0  0  0  0  0  0
  194.7550  175.7690  140.4640 O   0  0  0  0  0  0  0  0  0  0  0  0
  194.8720  175.8600  141.7140 C   0  0  0  0  0  0  0  0  0  0  0  0
  193.9890  171.3920  145.0740 C   0  0  2  0  0  3  0  0  0  0  0  0
  193.7290  175.0500  144.8790 C   0  0  1  0  0  3  0  0  0  0  0  0
  195.7530  173.4890  144.4420 C   0  0  1  0  0  3  0  0  0  0  0  0
  194.3830  176.1210  144.0000 C   0  0  1  0  0  3  0  0  0  0  0  0
  193.6380  172.7070  145.4520 O   0  0  0  0  0  0  0  0  0  0  0  0
  196.1120  175.7130  142.3710 N   0  0  0  0  0  2  0  0  0  0  0  0
  194.2070  173.6260  144.5400 C   0  0  1  0  0  3  0  0  0  0  0  0
  194.6290  170.7800  146.1680 O   0  0  0  0  0  0  0  0  0  0  0  0
  195.9120  175.9350  143.7940 C   0  0  2  0  0  3  0  0  0  0  0  0
  197.8640  174.6230  144.2840 O   0  0  0  0  0  1  0  0  0  0  0  0
  196.5210  174.8010  144.6310 C   0  0  2  0  0  3  0  0  0  0  0  0
  193.7380  176.1340  142.6150 C   0  0  0  0  0  2  0  0  0  0  0  0
  1  4  1  0  0  0  0
  2  1  2  0  0  0  0
  3 21  1  0  0  0  0
  3  4  2  0  0  0  0
  5  3  1  0  0  0  0
  6  5  2  0  0  0  0
  6  2  1  0  0  0  0
  7  8  2  0  0  0  0
  7  9  1  0  0  0  0
  8 11  1  0  0  0  0
  9 13  2  0  0  0  0
 11 16  1  0  0  0  0
 11 10  2  0  0  0  0
 12  8  1  0  0  0  0
 13 10  1  0  0  0  0
 13  6  1  0  0  0  0
 14 15  1  0  0  0  0
 15  7  1  0  0  0  0
 16 17  1  0  0  0  0
 17 20  1  0  0  0  0
 18 17  2  0  0  0  0
 20 19  1  0  0  0  0
 22 21  1  0  0  0  0
 24 23  1  1  0  0  0
 24 34  1  0  0  0  0
 25 26  2  0  0  0  0
 26 32  1  0  0  0  0
 26 38  1  0  0  0  0
 27 24  1  0  0  0  0
 27 31  1  1  0  0  0
 27 34  1  0  0  0  0
 28 22  1  1  0  0  0
 29 33  1  0  0  0  0
 29 37  1  0  0  0  0
 29 23  1  1  0  0  0
 30 38  1  6  0  0  0
 30 28  1  0  0  0  0
 33 28  1  0  0  0  0
 33 31  1  1  0  0  0
 35 32  1  6  0  0  0
 35 30  1  0  0  0  0
 35 37  1  0  0  0  0
 37 36  1  6  0  0  0
M  END
>  <MODEL>
1

>  <REMARK>
 VINA RESULT:      -8.4      0.000      0.000
  Name = 
  8 active torsions:
  status: ('A' for Active; 'I' for Inactive)
    1  A    between atoms: C_1  and  O_34
    2  A    between atoms: C_6  and  C_17
    3  A    between atoms: C_6  and  C_36
    4  A    between atoms: O_10  and  C_22
    5  A    between atoms: O_10  and  C_27
    6  A    between atoms: C_14  and  C_22
    7  A    between atoms: C_23  and  C_36
    8  A    between atoms: C_33  and  C_38
                            x       y       z     vdW  Elec       q    Type
                         _______ _______ _______ _____ _____    ______ ____

>  <TORSDO>
F 8

$$$$
=
 OpenBabel11062419263D

 38 43  0  0  1  0  0  0  0  0999 V2000
  190.0840  175.3040  147.5710 N   0  0  0  0  0  0  0  0  0  0  0  0
  189.4390  175.5190  146.4210 N   0  0  0  0  0  0  0  0  0  0  0  0
  192.1240  176.0370  146.5980 C   0  0  0  0  0  0  0  0  0  0  0  0
  191.4140  175.5450  147.6920 C   0  0  0  0  0  3  0  0  0  0  0  0
  191.4500  176.2670  145.4010 C   0  0  0  0  0  3  0  0  0  0  0  0
  190.0800  175.9950  145.3180 C   0  0  0  0  0  0  0  0  0  0  0  0
  188.7830  175.4660  141.8000 C   0  0  0  0  0  0  0  0  0  0  0  0
  187.9530  176.6020  141.6380 C   0  0  0  0  0  0  0  0  0  0  0  0
  189.4660  175.2870  143.0060 C   0  0  0  0  0  3  0  0  0  0  0  0
  188.5150  177.3220  143.8840 C   0  0  0  0  0  3  0  0  0  0  0  0
  187.8390  177.5390  142.6830 C   0  0  0  0  0  0  0  0  0  0  0  0
  187.2220  176.7920  140.4720 O   0  0  0  0  0  1  0  0  0  0  0  0
  189.3380  176.2020  144.0570 C   0  0  0  0  0  0  0  0  0  0  0  0
  190.0560  173.5760  140.7630 C   0  0  0  0  0  1  0  0  0  0  0  0
  188.9640  174.4840  140.8130 O   0  0  0  0  0  0  0  0  0  0  0  0
  187.0290  178.6770  142.5750 O   0  0  0  0  0  0  0  0  0  0  0  0
  185.7230  178.7700  143.0730 C   0  0  0  0  0  0  0  0  0  0  0  0
  184.8510  177.9570  142.6680 O   0  0  0  0  0  0  0  0  0  0  0  0
  185.6850  179.1850  145.5010 C   0  0  0  0  0  1  0  0  0  0  0  0
  185.3530  179.7540  144.1360 C   0  0  0  0  0  2  0  0  0  0  0  0
  193.5810  176.3330  146.7140 C   0  0  0  0  0  2  0  0  0  0  0  0
  194.1880  176.5750  145.3400 C   0  0  0  0  0  2  0  0  0  0  0  0
  193.9980  174.9910  141.7660 C   0  0  0  0  0  2  0  0  0  0  0  0
  195.0830  175.5270  140.8360 C   0  0  2  0  0  3  0  0  0  0  0  0
  197.3940  171.5520  145.5660 O   0  0  0  0  0  0  0  0  0  0  0  0
  196.4620  172.3980  145.5800 C   0  0  0  0  0  0  0  0  0  0  0  0
  196.0550  176.3870  141.5860 C   0  0  2  0  0  3  0  0  0  0  0  0
  195.3870  175.6560  145.1230 C   0  0  1  0  0  3  0  0  0  0  0  0
  194.6760  174.3740  142.9840 C   0  0  1  0  0  3  0  0  0  0  0  0
  195.2230  174.3660  145.9340 C   0  0  1  0  0  3  0  0  0  0  0  0
  195.6990  176.6220  142.9330 O   0  0  0  0  0  0  0  0  0  0  0  0
  195.1980  172.1410  145.0090 N   0  0  0  0  0  2  0  0  0  0  0  0
  195.6570  175.3920  143.6300 C   0  0  1  0  0  3  0  0  0  0  0  0
  195.0460  176.9300  140.7670 O   0  0  0  0  0  0  0  0  0  0  0  0
  194.3370  173.2880  145.2500 C   0  0  2  0  0  3  0  0  0  0  0  0
  192.9970  172.6960  143.3470 O   0  0  0  0  0  1  0  0  0  0  0  0
  193.6600  173.7640  143.9560 C   0  0  2  0  0  3  0  0  0  0  0  0
  196.5870  173.7310  146.1970 C   0  0  0  0  0  2  0  0  0  0  0  0
  1  4  1  0  0  0  0
  2  1  2  0  0  0  0
  3 21  1  0  0  0  0
  3  4  2  0  0  0  0
  5  3  1  0  0  0  0
  6  5  2  0  0  0  0
  6  2  1  0  0  0  0
  7  9  1  0  0  0  0
  8  7  2  0  0  0  0
  8 11  1  0  0  0  0
  9 13  2  0  0  0  0
 10 13  1  0  0  0  0
 11 10  2  0  0  0  0
 12  8  1  0  0  0  0
 13  6  1  0  0  0  0
 14 15  1  0  0  0  0
 15  7  1  0  0  0  0
 16 11  1  0  0  0  0
 16 17  1  0  0  0  0
 17 20  1  0  0  0  0
 18 17  2  0  0  0  0
 20 19  1  0  0  0  0
 22 21  1  0  0  0  0
 24 27  1  0  0  0  0
 24 23  1  1  0  0  0
 25 26  2  0  0  0  0
 26 38  1  0  0  0  0
 27 34  1  6  0  0  0
 27 31  1  0  0  0  0
 28 22  1  6  0  0  0
 28 30  1  0  0  0  0
 29 23  1  6  0  0  0
 29 33  1  0  0  0  0
 29 37  1  0  0  0  0
 30 38  1  6  0  0  0
 32 26  1  0  0  0  0
 33 31  1  6  0  0  0
 33 28  1  0  0  0  0
 34 24  1  0  0  0  0
 35 32  1  6  0  0  0
 35 30  1  0  0  0  0
 37 36  1  6  0  0  0
 37 35  1  0  0  0  0
M  END
>  <MODEL>
2

>  <REMARK>
 VINA RESULT:      -8.3      1.601      3.409
  Name = 
  8 active torsions:
  status: ('A' for Active; 'I' for Inactive)
    1  A    between atoms: C_1  and  O_34
    2  A    between atoms: C_6  and  C_17
    3  A    between atoms: C_6  and  C_36
    4  A    between atoms: O_10  and  C_22
    5  A    between atoms: O_10  and  C_27
    6  A    between atoms: C_14  and  C_22
    7  A    between atoms: C_23  and  C_36
    8  A    between atoms: C_33  and  C_38
                            x       y       z     vdW  Elec       q    Type
                         _______ _______ _______ _____ _____    ______ ____

>  <TORSDO>
F 8

$$$$
=
 OpenBabel11062419263D

 38 43  0  0  1  0  0  0  0  0999 V2000
  188.8810  173.8930  139.4390 N   0  0  0  0  0  0  0  0  0  0  0  0
  188.1700  174.8860  139.9800 N   0  0  0  0  0  0  0  0  0  0  0  0
  190.0850  173.6110  141.4670 C   0  0  0  0  0  0  0  0  0  0  0  0
  189.8400  173.2430  140.1450 C   0  0  0  0  0  3  0  0  0  0  0  0
  189.3390  174.6420  142.0330 C   0  0  0  0  0  3  0  0  0  0  0  0
  188.3660  175.2900  141.2650 C   0  0  0  0  0  0  0  0  0  0  0  0
  185.8740  178.1300  141.5310 C   0  0  0  0  0  0  0  0  0  0  0  0
  186.0810  178.5530  142.8670 C   0  0  0  0  0  0  0  0  0  0  0  0
  186.6280  177.0660  141.0290 C   0  0  0  0  0  3  0  0  0  0  0  0
  187.7690  176.8340  143.1420 C   0  0  0  0  0  3  0  0  0  0  0  0
  187.0470  177.9090  143.6630 C   0  0  0  0  0  0  0  0  0  0  0  0
  185.3190  179.5770  143.4170 O   0  0  0  0  0  1  0  0  0  0  0  0
  187.5730  176.4060  141.8230 C   0  0  0  0  0  0  0  0  0  0  0  0
  183.5920  178.2940  140.5160 C   0  0  0  0  0  1  0  0  0  0  0  0
  184.9400  178.7160  140.6610 O   0  0  0  0  0  0  0  0  0  0  0  0
  187.2870  178.2870  144.9900 O   0  0  0  0  0  0  0  0  0  0  0  0
  186.8660  177.5570  146.1100 C   0  0  0  0  0  0  0  0  0  0  0  0
  187.5770  177.5640  147.1500 O   0  0  0  0  0  0  0  0  0  0  0  0
  184.4370  177.8230  146.4150 C   0  0  0  0  0  1  0  0  0  0  0  0
  185.5560  176.8390  146.1370 C   0  0  0  0  0  2  0  0  0  0  0  0
  191.1160  172.8950  142.2730 C   0  0  0  0  0  2  0  0  0  0  0  0
  191.0660  173.3430  143.7260 C   0  0  0  0  0  2  0  0  0  0  0  0
  190.8140  176.8000  145.5430 C   0  0  0  0  0  2  0  0  0  0  0  0
  191.0740  176.6860  147.0430 C   0  0  2  0  0  3  0  0  0  0  0  0
  196.4790  175.8180  143.3640 O   0  0  0  0  0  0  0  0  0  0  0  0
  195.2820  175.4850  143.1640 C   0  0  0  0  0  0  0  0  0  0  0  0
  191.5370  175.3080  147.4040 C   0  0  2  0  0  3  0  0  0  0  0  0
  192.4520  173.7780  144.1930 C   0  0  1  0  0  3  0  0  0  0  0  0
  192.0360  176.2620  144.8070 C   0  0  1  0  0  3  0  0  0  0  0  0
  193.3000  174.2290  142.9990 C   0  0  1  0  0  3  0  0  0  0  0  0
  191.5120  174.3900  146.3300 O   0  0  0  0  0  0  0  0  0  0  0  0
  194.2980  176.4080  142.7520 N   0  0  0  0  0  2  0  0  0  0  0  0
  192.3860  174.8340  145.3110 C   0  0  1  0  0  3  0  0  0  0  0  0
  190.2180  175.7430  147.6360 O   0  0  0  0  0  0  0  0  0  0  0  0
  193.0470  175.6950  142.5510 C   0  0  2  0  0  3  0  0  0  0  0  0
  191.8180  177.7270  142.9160 O   0  0  0  0  0  1  0  0  0  0  0  0
  191.8860  176.3810  143.2860 C   0  0  2  0  0  3  0  0  0  0  0  0
  194.7860  174.1060  143.3300 C   0  0  0  0  0  2  0  0  0  0  0  0
  1  2  2  0  0  0  0
  1  4  1  0  0  0  0
  2  6  1  0  0  0  0
  3  5  1  0  0  0  0
  3 21  1  0  0  0  0
  4  3  2  0  0  0  0
  6 13  1  0  0  0  0
  6  5  2  0  0  0  0
  7  8  1  0  0  0  0
  8 12  1  0  0  0  0
  8 11  2  0  0  0  0
  9  7  2  0  0  0  0
  9 13  1  0  0  0  0
 10 11  1  0  0  0  0
 11 16  1  0  0  0  0
 13 10  2  0  0  0  0
 14 15  1  0  0  0  0
 15  7  1  0  0  0  0
 16 17  1  0  0  0  0
 17 20  1  0  0  0  0
 17 18  2  0  0  0  0
 20 19  1  0  0  0  0
 21 22  1  0  0  0  0
 24 23  1  6  0  0  0
 24 27  1  0  0  0  0
 24 34  1  0  0  0  0
 26 38  1  0  0  0  0
 26 25  2  0  0  0  0
 27 31  1  6  0  0  0
 27 34  1  0  0  0  0
 28 22  1  6  0  0  0
 28 33  1  0  0  0  0
 29 33  1  0  0  0  0
 29 23  1  1  0  0  0
 30 38  1  1  0  0  0
 30 28  1  0  0  0  0
 32 26  1  0  0  0  0
 33 31  1  1  0  0  0
 35 32  1  1  0  0  0
 35 30  1  0  0  0  0
 35 37  1  0  0  0  0
 37 36  1  1  0  0  0
 37 29  1  0  0  0  0
M  END
>  <MODEL>
3

>  <REMARK>
 VINA RESULT:      -8.2      2.615      4.505
  Name = 
  8 active torsions:
  status: ('A' for Active; 'I' for Inactive)
    1  A    between atoms: C_1  and  O_34
    2  A    between atoms: C_6  and  C_17
    3  A    between atoms: C_6  and  C_36
    4  A    between atoms: O_10  and  C_22
    5  A    between atoms: O_10  and  C_27
    6  A    between atoms: C_14  and  C_22
    7  A    between atoms: C_23  and  C_36
    8  A    between atoms: C_33  and  C_38
                            x       y       z     vdW  Elec       q    Type
                         _______ _______ _______ _____ _____    ______ ____

>  <TORSDO>
F 8

$$$$
=
 OpenBabel11062419263D

 38 43  0  0  1  0  0  0  0  0999 V2000
  185.3740  177.6930  146.9620 N   0  0  0  0  0  0  0  0  0  0  0  0
  185.2870  177.7820  145.6320 N   0  0  0  0  0  0  0  0  0  0  0  0
  187.3100  176.3300  146.7740 C   0  0  0  0  0  0  0  0  0  0  0  0
  186.3600  176.9790  147.5610 C   0  0  0  0  0  3  0  0  0  0  0  0
  187.2230  176.4280  145.3880 C   0  0  0  0  0  3  0  0  0  0  0  0
  186.1840  177.1680  144.8130 C   0  0  0  0  0  0  0  0  0  0  0  0
  186.9030  176.7950  141.1130 C   0  0  0  0  0  0  0  0  0  0  0  0
  185.8060  177.4930  140.5480 C   0  0  0  0  0  0  0  0  0  0  0  0
  187.0060  176.7010  142.5030 C   0  0  0  0  0  3  0  0  0  0  0  0
  184.9670  177.9600  142.7740 C   0  0  0  0  0  3  0  0  0  0  0  0
  184.8490  178.0900  141.3900 C   0  0  0  0  0  0  0  0  0  0  0  0
  185.6430  177.5690  139.1700 O   0  0  0  0  0  1  0  0  0  0  0  0
  186.0450  177.2730  143.3450 C   0  0  0  0  0  0  0  0  0  0  0  0
  188.2730  174.8060  140.4560 C   0  0  0  0  0  1  0  0  0  0  0  0
  187.9090  176.1750  140.3550 O   0  0  0  0  0  0  0  0  0  0  0  0
  183.7450  178.7870  140.8820 O   0  0  0  0  0  0  0  0  0  0  0  0
  182.4920  178.2130  140.6320 C   0  0  0  0  0  0  0  0  0  0  0  0
  182.3700  177.3910  139.6860 O   0  0  0  0  0  0  0  0  0  0  0  0
  180.0330  178.3200  140.7140 C   0  0  0  0  0  1  0  0  0  0  0  0
  181.3120  178.4820  141.5090 C   0  0  0  0  0  2  0  0  0  0  0  0
  188.4180  175.5590  147.4080 C   0  0  0  0  0  2  0  0  0  0  0  0
  189.7550  175.9300  146.7830 C   0  0  0  0  0  2  0  0  0  0  0  0
  192.8820  176.9560  144.6650 C   0  0  0  0  0  2  0  0  0  0  0  0
  194.1930  176.6270  145.3720 C   0  0  2  0  0  3  0  0  0  0  0  0
  190.9530  171.2990  143.2220 O   0  0  0  0  0  0  0  0  0  0  0  0
  190.5320  172.3860  143.6990 C   0  0  0  0  0  0  0  0  0  0  0  0
  193.9470  175.8290  146.6160 C   0  0  2  0  0  3  0  0  0  0  0  0
  190.4750  174.6770  146.2930 C   0  0  1  0  0  3  0  0  0  0  0  0
  192.0840  175.6660  144.5170 C   0  0  1  0  0  3  0  0  0  0  0  0
  189.6730  174.0050  145.1720 C   0  0  1  0  0  3  0  0  0  0  0  0
  192.5800  175.6650  146.9360 O   0  0  0  0  0  0  0  0  0  0  0  0
  190.4910  173.5780  142.9470 N   0  0  0  0  0  2  0  0  0  0  0  0
  191.9340  174.9610  145.8940 C   0  0  1  0  0  3  0  0  0  0  0  0
  194.2410  177.2060  146.6510 O   0  0  0  0  0  0  0  0  0  0  0  0
  189.8980  174.6240  143.7650 C   0  0  2  0  0  3  0  0  0  0  0  0
  191.0200  176.2980  142.4580 O   0  0  0  0  0  1  0  0  0  0  0  0
  190.7640  175.8910  143.7710 C   0  0  2  0  0  3  0  0  0  0  0  0
  190.0340  172.5240  145.0800 C   0  0  0  0  0  2  0  0  0  0  0  0
  1  4  1  0  0  0  0
  2  1  2  0  0  0  0
  3 21  1  0  0  0  0
  3  4  2  0  0  0  0
  5  3  1  0  0  0  0
  6  5  2  0  0  0  0
  6  2  1  0  0  0  0
  7  9  1  0  0  0  0
  8  7  2  0  0  0  0
  8 11  1  0  0  0  0
  9 13  2  0  0  0  0
 10 13  1  0  0  0  0
 11 10  2  0  0  0  0
 12  8  1  0  0  0  0
 13  6  1  0  0  0  0
 15 14  1  0  0  0  0
 15  7  1  0  0  0  0
 16 11  1  0  0  0  0
 17 16  1  0  0  0  0
 17 20  1  0  0  0  0
 18 17  2  0  0  0  0
 19 20  1  0  0  0  0
 22 21  1  0  0  0  0
 24 23  1  6  0  0  0
 24 27  1  0  0  0  0
 24 34  1  0  0  0  0
 25 26  2  0  0  0  0
 26 38  1  0  0  0  0
 27 34  1  1  0  0  0
 27 31  1  0  0  0  0
 28 22  1  6  0  0  0
 29 23  1  1  0  0  0
 29 33  1  0  0  0  0
 30 38  1  6  0  0  0
 30 28  1  0  0  0  0
 32 26  1  0  0  0  0
 33 28  1  0  0  0  0
 33 31  1  1  0  0  0
 35 32  1  6  0  0  0
 35 37  1  0  0  0  0
 35 30  1  0  0  0  0
 37 36  1  6  0  0  0
 37 29  1  0  0  0  0
M  END
>  <MODEL>
4

>  <REMARK>
 VINA RESULT:      -8.1      3.015      4.627
  Name = 
  8 active torsions:
  status: ('A' for Active; 'I' for Inactive)
    1  A    between atoms: C_1  and  O_34
    2  A    between atoms: C_6  and  C_17
    3  A    between atoms: C_6  and  C_36
    4  A    between atoms: O_10  and  C_22
    5  A    between atoms: O_10  and  C_27
    6  A    between atoms: C_14  and  C_22
    7  A    between atoms: C_23  and  C_36
    8  A    between atoms: C_33  and  C_38
                            x       y       z     vdW  Elec       q    Type
                         _______ _______ _______ _____ _____    ______ ____

>  <TORSDO>
F 8

$$$$
=
 OpenBabel11062419263D

 38 43  0  0  1  0  0  0  0  0999 V2000
  188.9200  173.9340  139.5710 N   0  0  0  0  0  0  0  0  0  0  0  0
  188.1860  174.9100  140.1140 N   0  0  0  0  0  0  0  0  0  0  0  0
  190.2380  173.7890  141.5420 C   0  0  0  0  0  0  0  0  0  0  0  0
  189.9460  173.3600  140.2480 C   0  0  0  0  0  3  0  0  0  0  0  0
  189.4690  174.8010  142.1100 C   0  0  0  0  0  3  0  0  0  0  0  0
  188.4260  175.3710  141.3720 C   0  0  0  0  0  0  0  0  0  0  0  0
  185.8810  178.1630  141.6350 C   0  0  0  0  0  0  0  0  0  0  0  0
  186.0610  178.5740  142.9790 C   0  0  0  0  0  0  0  0  0  0  0  0
  186.6610  177.1190  141.1320 C   0  0  0  0  0  3  0  0  0  0  0  0
  187.7750  176.8820  143.2580 C   0  0  0  0  0  3  0  0  0  0  0  0
  187.0270  177.9370  143.7810 C   0  0  0  0  0  0  0  0  0  0  0  0
  185.2730  179.5780  143.5300 O   0  0  0  0  0  1  0  0  0  0  0  0
  187.6060  176.4660  141.9320 C   0  0  0  0  0  0  0  0  0  0  0  0
  183.6470  178.2340  140.5070 C   0  0  0  0  0  1  0  0  0  0  0  0
  184.9500  178.7430  140.7590 O   0  0  0  0  0  0  0  0  0  0  0  0
  187.2410  178.3030  145.1160 O   0  0  0  0  0  0  0  0  0  0  0  0
  186.7560  177.5910  146.2210 C   0  0  0  0  0  0  0  0  0  0  0  0
  187.4410  177.5530  147.2770 O   0  0  0  0  0  0  0  0  0  0  0  0
  184.3480  177.9610  146.5800 C   0  0  0  0  0  1  0  0  0  0  0  0
  185.4090  176.9440  146.2120 C   0  0  0  0  0  2  0  0  0  0  0  0
  191.3450  173.1570  142.3160 C   0  0  0  0  0  2  0  0  0  0  0  0
  192.0390  174.1860  143.1960 C   0  0  0  0  0  2  0  0  0  0  0  0
  192.8940  176.7830  145.9970 C   0  0  0  0  0  2  0  0  0  0  0  0
  192.1010  176.5360  147.2770 C   0  0  2  0  0  3  0  0  0  0  0  0
  196.7380  171.9860  146.1360 O   0  0  0  0  0  0  0  0  0  0  0  0
  195.9890  172.6180  145.3450 C   0  0  0  0  0  0  0  0  0  0  0  0
  191.3320  175.2520  147.1930 C   0  0  2  0  0  3  0  0  0  0  0  0
  192.8000  173.4920  144.3220 C   0  0  1  0  0  3  0  0  0  0  0  0
  193.6840  175.5200  145.6750 C   0  0  1  0  0  3  0  0  0  0  0  0
  194.2340  173.1770  143.8830 C   0  0  1  0  0  3  0  0  0  0  0  0
  191.3970  174.6210  145.9300 O   0  0  0  0  0  0  0  0  0  0  0  0
  196.2270  173.9620  144.9870 N   0  0  0  0  0  2  0  0  0  0  0  0
  192.7400  174.2850  145.6410 C   0  0  1  0  0  3  0  0  0  0  0  0
  190.7190  176.5080  147.0210 O   0  0  0  0  0  0  0  0  0  0  0  0
  195.2210  174.3690  144.0190 C   0  0  2  0  0  3  0  0  0  0  0  0
  195.5290  176.6660  144.6500 O   0  0  0  0  0  1  0  0  0  0  0  0
  194.5530  175.6910  144.4250 C   0  0  2  0  0  3  0  0  0  0  0  0
  194.7980  172.0240  144.7100 C   0  0  0  0  0  2  0  0  0  0  0  0
  1  2  2  0  0  0  0
  1  4  1  0  0  0  0
  2  6  1  0  0  0  0
  3  5  1  0  0  0  0
  3 21  1  0  0  0  0
  4  3  2  0  0  0  0
  6 13  1  0  0  0  0
  6  5  2  0  0  0  0
  7  8  1  0  0  0  0
  8 12  1  0  0  0  0
  8 11  2  0  0  0  0
  9  7  2  0  0  0  0
  9 13  1  0  0  0  0
 10 11  1  0  0  0  0
 11 16  1  0  0  0  0
 13 10  2  0  0  0  0
 14 15  1  0  0  0  0
 15  7  1  0  0  0  0
 16 17  1  0  0  0  0
 17 18  2  0  0  0  0
 20 17  1  0  0  0  0
 20 19  1  0  0  0  0
 21 22  1  0  0  0  0
 24 23  1  6  0  0  0
 26 25  2  0  0  0  0
 27 31  1  6  0  0  0
 27 24  1  0  0  0  0
 28 22  1  6  0  0  0
 28 33  1  0  0  0  0
 29 23  1  6  0  0  0
 30 35  1  0  0  0  0
 30 28  1  0  0  0  0
 30 38  1  1  0  0  0
 32 26  1  0  0  0  0
 33 29  1  0  0  0  0
 33 31  1  6  0  0  0
 34 27  1  0  0  0  0
 34 24  1  0  0  0  0
 35 37  1  0  0  0  0
 35 32  1  1  0  0  0
 37 36  1  1  0  0  0
 37 29  1  0  0  0  0
 38 26  1  0  0  0  0
M  END
>  <MODEL>
5

>  <REMARK>
 VINA RESULT:      -7.9      2.527      4.395
  Name = 
  8 active torsions:
  status: ('A' for Active; 'I' for Inactive)
    1  A    between atoms: C_1  and  O_34
    2  A    between atoms: C_6  and  C_17
    3  A    between atoms: C_6  and  C_36
    4  A    between atoms: O_10  and  C_22
    5  A    between atoms: O_10  and  C_27
    6  A    between atoms: C_14  and  C_22
    7  A    between atoms: C_23  and  C_36
    8  A    between atoms: C_33  and  C_38
                            x       y       z     vdW  Elec       q    Type
                         _______ _______ _______ _____ _____    ______ ____

>  <TORSDO>
F 8

$$$$
=
 OpenBabel11062419263D

 38 43  0  0  1  0  0  0  0  0999 V2000
  189.1570  173.9860  139.9860 N   0  0  0  0  0  0  0  0  0  0  0  0
  188.3270  174.9250  140.4500 N   0  0  0  0  0  0  0  0  0  0  0  0
  190.5220  174.1940  141.9180 C   0  0  0  0  0  0  0  0  0  0  0  0
  190.2550  173.6040  140.6840 C   0  0  0  0  0  3  0  0  0  0  0  0
  189.6540  175.1680  142.4050 C   0  0  0  0  0  3  0  0  0  0  0  0
  188.5380  175.5380  141.6470 C   0  0  0  0  0  0  0  0  0  0  0  0
  185.8140  178.1690  141.6550 C   0  0  0  0  0  0  0  0  0  0  0  0
  185.8570  178.6060  143.0020 C   0  0  0  0  0  0  0  0  0  0  0  0
  186.6950  177.1690  141.2350 C   0  0  0  0  0  3  0  0  0  0  0  0
  187.6430  177.0280  143.4490 C   0  0  0  0  0  3  0  0  0  0  0  0
  186.7910  178.0410  143.8910 C   0  0  0  0  0  0  0  0  0  0  0  0
  184.9670  179.5660  143.4690 O   0  0  0  0  0  1  0  0  0  0  0  0
  187.6090  176.5860  142.1200 C   0  0  0  0  0  0  0  0  0  0  0  0
  183.5860  178.2390  140.5170 C   0  0  0  0  0  1  0  0  0  0  0  0
  184.9240  178.6790  140.6960 O   0  0  0  0  0  0  0  0  0  0  0  0
  186.8720  178.4350  145.2320 O   0  0  0  0  0  0  0  0  0  0  0  0
  186.4900  177.6360  146.3180 C   0  0  0  0  0  0  0  0  0  0  0  0
  187.3260  177.3960  147.2290 O   0  0  0  0  0  0  0  0  0  0  0  0
  184.1280  178.2960  146.5460 C   0  0  0  0  0  1  0  0  0  0  0  0
  185.0920  177.1290  146.4700 C   0  0  0  0  0  2  0  0  0  0  0  0
  191.7090  173.7730  142.7170 C   0  0  0  0  0  2  0  0  0  0  0  0
  192.9890  174.3250  142.1070 C   0  0  0  0  0  2  0  0  0  0  0  0
  196.9010  174.3560  142.2100 C   0  0  0  0  0  2  0  0  0  0  0  0
  197.4940  175.4920  141.3820 C   0  0  2  0  0  3  0  0  0  0  0  0
  194.5080  177.5340  146.8980 O   0  0  0  0  0  0  0  0  0  0  0  0
  194.2270  176.5990  146.1040 C   0  0  0  0  0  0  0  0  0  0  0  0
  196.4190  176.4140  140.8900 C   0  0  2  0  0  3  0  0  0  0  0  0
  193.4710  175.5390  142.8970 C   0  0  1  0  0  3  0  0  0  0  0  0
  195.9730  174.9630  143.2560 C   0  0  1  0  0  3  0  0  0  0  0  0
  193.2220  175.3320  144.3950 C   0  0  1  0  0  3  0  0  0  0  0  0
  195.1070  175.9770  141.1770 O   0  0  0  0  0  0  0  0  0  0  0  0
  194.9230  175.3720  146.1010 N   0  0  0  0  0  2  0  0  0  0  0  0
  194.9340  175.8990  142.5780 C   0  0  1  0  0  3  0  0  0  0  0  0
  197.0260  175.4540  140.0580 O   0  0  0  0  0  0  0  0  0  0  0  0
  194.3140  174.4940  145.1150 C   0  0  2  0  0  3  0  0  0  0  0  0
  196.3720  173.2720  144.9150 O   0  0  0  0  0  1  0  0  0  0  0  0
  195.3650  173.8940  144.1710 C   0  0  2  0  0  3  0  0  0  0  0  0
  193.1430  176.6810  145.1080 C   0  0  0  0  0  2  0  0  0  0  0  0
  1  2  2  0  0  0  0
  1  4  1  0  0  0  0
  2  6  1  0  0  0  0
  3  5  1  0  0  0  0
  3 21  1  0  0  0  0
  4  3  2  0  0  0  0
  6 13  1  0  0  0  0
  6  5  2  0  0  0  0
  7  8  1  0  0  0  0
  8 12  1  0  0  0  0
  8 11  2  0  0  0  0
  9  7  2  0  0  0  0
  9 13  1  0  0  0  0
 10 11  1  0  0  0  0
 11 16  1  0  0  0  0
 13 10  2  0  0  0  0
 14 15  1  0  0  0  0
 15  7  1  0  0  0  0
 16 17  1  0  0  0  0
 17 20  1  0  0  0  0
 17 18  2  0  0  0  0
 20 19  1  0  0  0  0
 22 21  1  0  0  0  0
 24 23  1  1  0  0  0
 26 25  2  0  0  0  0
 27 34  1  6  0  0  0
 27 31  1  0  0  0  0
 27 24  1  0  0  0  0
 28 22  1  6  0  0  0
 28 30  1  0  0  0  0
 29 23  1  6  0  0  0
 29 37  1  0  0  0  0
 30 38  1  1  0  0  0
 30 35  1  0  0  0  0
 32 26  1  0  0  0  0
 33 31  1  6  0  0  0
 33 28  1  0  0  0  0
 33 29  1  0  0  0  0
 34 24  1  0  0  0  0
 35 32  1  1  0  0  0
 37 36  1  1  0  0  0
 37 35  1  0  0  0  0
 38 26  1  0  0  0  0
M  END
>  <MODEL>
6

>  <REMARK>
 VINA RESULT:      -7.9      2.499      4.292
  Name = 
  8 active torsions:
  status: ('A' for Active; 'I' for Inactive)
    1  A    between atoms: C_1  and  O_34
    2  A    between atoms: C_6  and  C_17
    3  A    between atoms: C_6  and  C_36
    4  A    between atoms: O_10  and  C_22
    5  A    between atoms: O_10  and  C_27
    6  A    between atoms: C_14  and  C_22
    7  A    between atoms: C_23  and  C_36
    8  A    between atoms: C_33  and  C_38
                            x       y       z     vdW  Elec       q    Type
                         _______ _______ _______ _____ _____    ______ ____

>  <TORSDO>
F 8

$$$$
=
 OpenBabel11062419263D

 38 43  0  0  1  0  0  0  0  0999 V2000
  190.5870  176.8830  147.8530 N   0  0  0  0  0  0  0  0  0  0  0  0
  189.8760  176.8390  146.7230 N   0  0  0  0  0  0  0  0  0  0  0  0
  192.6050  176.6110  146.6300 C   0  0  0  0  0  0  0  0  0  0  0  0
  191.9390  176.7680  147.8440 C   0  0  0  0  0  3  0  0  0  0  0  0
  191.8640  176.5720  145.4510 C   0  0  0  0  0  3  0  0  0  0  0  0
  190.4710  176.6850  145.5080 C   0  0  0  0  0  0  0  0  0  0  0  0
  187.8190  177.4970  142.9290 C   0  0  0  0  0  0  0  0  0  0  0  0
  188.0600  176.4910  141.9610 C   0  0  0  0  0  0  0  0  0  0  0  0
  188.6160  177.5420  144.0760 C   0  0  0  0  0  3  0  0  0  0  0  0
  189.8780  175.6330  143.3160 C   0  0  0  0  0  3  0  0  0  0  0  0
  189.0840  175.5480  142.1710 C   0  0  0  0  0  0  0  0  0  0  0  0
  187.3200  176.4410  140.7850 O   0  0  0  0  0  1  0  0  0  0  0  0
  189.6500  176.6220  144.2810 C   0  0  0  0  0  0  0  0  0  0  0  0
  185.4450  178.2690  143.1140 C   0  0  0  0  0  1  0  0  0  0  0  0
  186.8170  178.4730  142.8090 O   0  0  0  0  0  0  0  0  0  0  0  0
  189.3650  174.5380  141.2440 O   0  0  0  0  0  0  0  0  0  0  0  0
  188.9240  173.2130  141.3570 C   0  0  0  0  0  0  0  0  0  0  0  0
  187.8170  172.8890  140.8510 O   0  0  0  0  0  0  0  0  0  0  0  0
  189.3160  171.9170  143.4130 C   0  0  0  0  0  1  0  0  0  0  0  0
  189.7670  172.1520  141.9860 C   0  0  0  0  0  2  0  0  0  0  0  0
  194.0920  176.5070  146.5900 C   0  0  0  0  0  2  0  0  0  0  0  0
  194.5960  176.5840  145.1570 C   0  0  0  0  0  2  0  0  0  0  0  0
  193.8850  174.6860  141.8090 C   0  0  0  0  0  2  0  0  0  0  0  0
  194.9050  175.0210  140.7250 C   0  0  2  0  0  3  0  0  0  0  0  0
  197.3670  171.3220  145.5990 O   0  0  0  0  0  0  0  0  0  0  0  0
  196.5170  172.2500  145.6150 C   0  0  0  0  0  0  0  0  0  0  0  0
  196.0220  175.8520  141.2780 C   0  0  2  0  0  3  0  0  0  0  0  0
  195.6820  175.5370  144.9210 C   0  0  1  0  0  3  0  0  0  0  0  0
  194.6360  174.1280  143.0130 C   0  0  1  0  0  3  0  0  0  0  0  0
  195.4970  174.3530  145.8780 C   0  0  1  0  0  3  0  0  0  0  0  0
  195.8360  176.2510  142.6210 O   0  0  0  0  0  0  0  0  0  0  0  0
  195.1810  172.0620  145.2030 N   0  0  0  0  0  2  0  0  0  0  0  0
  195.7640  175.1050  143.4460 C   0  0  1  0  0  3  0  0  0  0  0  0
  194.9810  176.4080  140.5100 O   0  0  0  0  0  0  0  0  0  0  0  0
  194.4530  173.3050  145.4040 C   0  0  2  0  0  3  0  0  0  0  0  0
  192.8680  172.6620  143.7170 O   0  0  0  0  0  1  0  0  0  0  0  0
  193.6830  173.7150  144.1400 C   0  0  2  0  0  3  0  0  0  0  0  0
  196.8220  173.6190  146.0710 C   0  0  0  0  0  2  0  0  0  0  0  0
  2  1  2  0  0  0  0
  3  4  2  0  0  0  0
  4  1  1  0  0  0  0
  5  6  2  0  0  0  0
  5  3  1  0  0  0  0
  6  2  1  0  0  0  0
  7  9  1  0  0  0  0
  8 11  1  0  0  0  0
  8  7  2  0  0  0  0
  9 13  2  0  0  0  0
 10 13  1  0  0  0  0
 11 10  2  0  0  0  0
 12  8  1  0  0  0  0
 13  6  1  0  0  0  0
 15  7  1  0  0  0  0
 15 14  1  0  0  0  0
 16 17  1  0  0  0  0
 16 11  1  0  0  0  0
 17 20  1  0  0  0  0
 18 17  2  0  0  0  0
 20 19  1  0  0  0  0
 21  3  1  0  0  0  0
 22 21  1  0  0  0  0
 24 27  1  0  0  0  0
 24 23  1  1  0  0  0
 25 26  2  0  0  0  0
 26 38  1  0  0  0  0
 27 34  1  6  0  0  0
 27 31  1  0  0  0  0
 28 22  1  6  0  0  0
 28 30  1  0  0  0  0
 29 23  1  6  0  0  0
 29 33  1  0  0  0  0
 29 37  1  0  0  0  0
 30 38  1  6  0  0  0
 32 26  1  0  0  0  0
 33 31  1  6  0  0  0
 33 28  1  0  0  0  0
 34 24  1  0  0  0  0
 35 32  1  6  0  0  0
 35 30  1  0  0  0  0
 37 36  1  6  0  0  0
 37 35  1  0  0  0  0
M  END
>  <MODEL>
7

>  <REMARK>
 VINA RESULT:      -7.6      1.853      4.613
  Name = 
  8 active torsions:
  status: ('A' for Active; 'I' for Inactive)
    1  A    between atoms: C_1  and  O_34
    2  A    between atoms: C_6  and  C_17
    3  A    between atoms: C_6  and  C_36
    4  A    between atoms: O_10  and  C_22
    5  A    between atoms: O_10  and  C_27
    6  A    between atoms: C_14  and  C_22
    7  A    between atoms: C_23  and  C_36
    8  A    between atoms: C_33  and  C_38
                            x       y       z     vdW  Elec       q    Type
                         _______ _______ _______ _____ _____    ______ ____

>  <TORSDO>
F 8

$$$$
=
 OpenBabel11062419263D

 38 43  0  0  1  0  0  0  0  0999 V2000
  190.8400  175.1460  147.8990 N   0  0  0  0  0  0  0  0  0  0  0  0
  189.8240  175.7390  147.2660 N   0  0  0  0  0  0  0  0  0  0  0  0
  192.4040  176.3770  146.6020 C   0  0  0  0  0  0  0  0  0  0  0  0
  192.1300  175.4350  147.5910 C   0  0  0  0  0  3  0  0  0  0  0  0
  191.3440  177.0000  145.9470 C   0  0  0  0  0  3  0  0  0  0  0  0
  190.0300  176.6650  146.2900 C   0  0  0  0  0  0  0  0  0  0  0  0
  186.6670  178.3020  145.6980 C   0  0  0  0  0  0  0  0  0  0  0  0
  186.6720  178.4410  144.2880 C   0  0  0  0  0  0  0  0  0  0  0  0
  187.7700  177.7220  146.3290 C   0  0  0  0  0  3  0  0  0  0  0  0
  188.8740  177.4280  144.2050 C   0  0  0  0  0  3  0  0  0  0  0  0
  187.7770  177.9830  143.5450 C   0  0  0  0  0  0  0  0  0  0  0  0
  185.6150  179.0550  143.6270 O   0  0  0  0  0  1  0  0  0  0  0  0
  188.8810  177.2860  145.5980 C   0  0  0  0  0  0  0  0  0  0  0  0
  184.3240  178.1180  146.5600 C   0  0  0  0  0  1  0  0  0  0  0  0
  185.6090  178.7220  146.5200 O   0  0  0  0  0  0  0  0  0  0  0  0
  187.8330  178.1000  142.1500 O   0  0  0  0  0  0  0  0  0  0  0  0
  187.2450  177.1980  141.2550 C   0  0  0  0  0  0  0  0  0  0  0  0
  187.1410  175.9860  141.5830 O   0  0  0  0  0  0  0  0  0  0  0  0
  185.1770  177.9090  140.1220 C   0  0  0  0  0  1  0  0  0  0  0  0
  186.6600  177.6450  139.9540 C   0  0  0  0  0  2  0  0  0  0  0  0
  193.8130  176.7300  146.2630 C   0  0  0  0  0  2  0  0  0  0  0  0
  194.1040  176.4260  144.8010 C   0  0  0  0  0  2  0  0  0  0  0  0
  193.5500  174.1370  141.6750 C   0  0  0  0  0  2  0  0  0  0  0  0
  194.5620  174.4150  140.5670 C   0  0  2  0  0  3  0  0  0  0  0  0
  197.1790  171.4210  145.8290 O   0  0  0  0  0  0  0  0  0  0  0  0
  196.2750  172.2920  145.7390 C   0  0  0  0  0  0  0  0  0  0  0  0
  195.6200  175.3670  141.0330 C   0  0  2  0  0  3  0  0  0  0  0  0
  195.2530  175.4280  144.6870 C   0  0  1  0  0  3  0  0  0  0  0  0
  194.3180  173.7590  142.9360 C   0  0  1  0  0  3  0  0  0  0  0  0
  195.1270  174.3460  145.7650 C   0  0  1  0  0  3  0  0  0  0  0  0
  195.3940  175.8970  142.3230 O   0  0  0  0  0  0  0  0  0  0  0  0
  194.9580  171.9790  145.3420 N   0  0  0  0  0  2  0  0  0  0  0  0
  195.3800  174.8440  143.2680 C   0  0  1  0  0  3  0  0  0  0  0  0
  194.5570  175.7720  140.2030 O   0  0  0  0  0  0  0  0  0  0  0  0
  194.1540  173.1900  145.4020 C   0  0  2  0  0  3  0  0  0  0  0  0
  192.6320  172.2730  143.7850 O   0  0  0  0  0  1  0  0  0  0  0  0
  193.3780  173.4140  144.0970 C   0  0  2  0  0  3  0  0  0  0  0  0
  196.4920  173.7180  146.0450 C   0  0  0  0  0  2  0  0  0  0  0  0
  2  1  2  0  0  0  0
  3  4  2  0  0  0  0
  4  1  1  0  0  0  0
  5  6  2  0  0  0  0
  5  3  1  0  0  0  0
  6  2  1  0  0  0  0
  7  9  1  0  0  0  0
  7 15  1  0  0  0  0
  8  7  2  0  0  0  0
 10 13  1  0  0  0  0
 11 10  2  0  0  0  0
 11  8  1  0  0  0  0
 12  8  1  0  0  0  0
 13  6  1  0  0  0  0
 13  9  2  0  0  0  0
 15 14  1  0  0  0  0
 16 11  1  0  0  0  0
 17 18  2  0  0  0  0
 17 16  1  0  0  0  0
 20 19  1  0  0  0  0
 20 17  1  0  0  0  0
 21  3  1  0  0  0  0
 22 21  1  0  0  0  0
 24 27  1  0  0  0  0
 24 23  1  1  0  0  0
 26 25  2  0  0  0  0
 26 38  1  0  0  0  0
 27 34  1  6  0  0  0
 27 31  1  0  0  0  0
 28 22  1  6  0  0  0
 28 30  1  0  0  0  0
 29 23  1  6  0  0  0
 29 33  1  0  0  0  0
 29 37  1  0  0  0  0
 30 38  1  6  0  0  0
 32 26  1  0  0  0  0
 33 31  1  6  0  0  0
 33 28  1  0  0  0  0
 34 24  1  0  0  0  0
 35 32  1  6  0  0  0
 35 30  1  0  0  0  0
 37 36  1  6  0  0  0
 37 35  1  0  0  0  0
M  END
>  <MODEL>
8

>  <REMARK>
 VINA RESULT:      -7.5      1.693      4.247
  Name = 
  8 active torsions:
  status: ('A' for Active; 'I' for Inactive)
    1  A    between atoms: C_1  and  O_34
    2  A    between atoms: C_6  and  C_17
    3  A    between atoms: C_6  and  C_36
    4  A    between atoms: O_10  and  C_22
    5  A    between atoms: O_10  and  C_27
    6  A    between atoms: C_14  and  C_22
    7  A    between atoms: C_23  and  C_36
    8  A    between atoms: C_33  and  C_38
                            x       y       z     vdW  Elec       q    Type
                         _______ _______ _______ _____ _____    ______ ____

>  <TORSDO>
F 8

$$$$
=
 OpenBabel11062419263D

 38 43  0  0  1  0  0  0  0  0999 V2000
  189.8640  177.5120  147.7570 N   0  0  0  0  0  0  0  0  0  0  0  0
  189.1110  177.5500  146.6540 N   0  0  0  0  0  0  0  0  0  0  0  0
  191.5870  176.3800  146.5780 C   0  0  0  0  0  0  0  0  0  0  0  0
  191.0920  176.9360  147.7560 C   0  0  0  0  0  3  0  0  0  0  0  0
  190.8050  176.4250  145.4270 C   0  0  0  0  0  3  0  0  0  0  0  0
  189.5410  177.0210  145.4750 C   0  0  0  0  0  0  0  0  0  0  0  0
  186.7310  177.9820  143.1240 C   0  0  0  0  0  0  0  0  0  0  0  0
  186.9930  177.1320  142.0210 C   0  0  0  0  0  0  0  0  0  0  0  0
  187.5740  177.9300  144.2380 C   0  0  0  0  0  3  0  0  0  0  0  0
  188.9200  176.2290  143.1840 C   0  0  0  0  0  3  0  0  0  0  0  0
  188.0830  176.2420  142.0670 C   0  0  0  0  0  0  0  0  0  0  0  0
  186.2070  177.1860  140.8760 O   0  0  0  0  0  1  0  0  0  0  0  0
  188.6720  177.0640  144.2800 C   0  0  0  0  0  0  0  0  0  0  0  0
  185.4150  179.7930  144.2430 C   0  0  0  0  0  1  0  0  0  0  0  0
  185.6660  178.8940  143.1720 O   0  0  0  0  0  0  0  0  0  0  0  0
  188.3860  175.3840  141.0020 O   0  0  0  0  0  0  0  0  0  0  0  0
  188.6810  174.0210  141.1410 C   0  0  0  0  0  0  0  0  0  0  0  0
  187.8100  173.2510  141.6250 O   0  0  0  0  0  0  0  0  0  0  0  0
  191.1140  173.9340  141.5130 C   0  0  0  0  0  1  0  0  0  0  0  0
  189.9680  173.4390  140.6540 C   0  0  0  0  0  2  0  0  0  0  0  0
  192.9450  175.7630  146.5450 C   0  0  0  0  0  2  0  0  0  0  0  0
  192.8950  174.3930  145.8860 C   0  0  0  0  0  2  0  0  0  0  0  0
  195.0490  171.1580  145.4230 C   0  0  0  0  0  2  0  0  0  0  0  0
  194.4790  170.2300  144.3550 C   0  0  2  0  0  3  0  0  0  0  0  0
  197.1170  175.7540  141.9000 O   0  0  0  0  0  0  0  0  0  0  0  0
  196.4720  175.5470  142.9610 C   0  0  0  0  0  0  0  0  0  0  0  0
  193.3400  170.8810  143.6310 C   0  0  2  0  0  3  0  0  0  0  0  0
  193.5940  174.4340  144.5300 C   0  0  1  0  0  3  0  0  0  0  0  0
  195.3200  172.5140  144.7800 C   0  0  1  0  0  3  0  0  0  0  0  0
  194.7420  175.4490  144.5520 C   0  0  1  0  0  3  0  0  0  0  0  0
  192.9580  172.1340  144.1610 O   0  0  0  0  0  0  0  0  0  0  0  0
  197.0530  174.9410  144.0950 N   0  0  0  0  0  2  0  0  0  0  0  0
  194.0430  173.0360  144.0630 C   0  0  1  0  0  3  0  0  0  0  0  0
  193.1380  169.9070  144.6270 O   0  0  0  0  0  0  0  0  0  0  0  0
  196.0650  174.9070  145.1610 C   0  0  2  0  0  3  0  0  0  0  0  0
  197.2020  173.0490  146.1720 O   0  0  0  0  0  1  0  0  0  0  0  0
  195.9430  173.5030  145.7710 C   0  0  2  0  0  3  0  0  0  0  0  0
  195.0560  175.9220  143.1340 C   0  0  0  0  0  2  0  0  0  0  0  0
  2  1  2  0  0  0  0
  3  4  2  0  0  0  0
  4  1  1  0  0  0  0
  5  6  2  0  0  0  0
  5  3  1  0  0  0  0
  6  2  1  0  0  0  0
  7 15  1  0  0  0  0
  7  9  1  0  0  0  0
  8 11  1  0  0  0  0
  8  7  2  0  0  0  0
  9 13  2  0  0  0  0
 10 13  1  0  0  0  0
 11 10  2  0  0  0  0
 12  8  1  0  0  0  0
 13  6  1  0  0  0  0
 15 14  1  0  0  0  0
 16 17  1  0  0  0  0
 16 11  1  0  0  0  0
 17 18  2  0  0  0  0
 20 17  1  0  0  0  0
 20 19  1  0  0  0  0
 21  3  1  0  0  0  0
 22 21  1  0  0  0  0
 24 34  1  0  0  0  0
 24 23  1  1  0  0  0
 25 26  2  0  0  0  0
 26 38  1  0  0  0  0
 26 32  1  0  0  0  0
 27 31  1  1  0  0  0
 27 24  1  0  0  0  0
 27 34  1  0  0  0  0
 28 30  1  0  0  0  0
 28 22  1  1  0  0  0
 29 23  1  1  0  0  0
 29 37  1  0  0  0  0
 30 38  1  6  0  0  0
 30 35  1  0  0  0  0
 33 31  1  1  0  0  0
 33 28  1  0  0  0  0
 33 29  1  0  0  0  0
 35 32  1  6  0  0  0
 35 37  1  0  0  0  0
 37 36  1  6  0  0  0
M  END
>  <MODEL>
9

>  <REMARK>
 VINA RESULT:      -7.4      1.460      3.506
  Name = 
  8 active torsions:
  status: ('A' for Active; 'I' for Inactive)
    1  A    between atoms: C_1  and  O_34
    2  A    between atoms: C_6  and  C_17
    3  A    between atoms: C_6  and  C_36
    4  A    between atoms: O_10  and  C_22
    5  A    between atoms: O_10  and  C_27
    6  A    between atoms: C_14  and  C_22
    7  A    between atoms: C_23  and  C_36
    8  A    between atoms: C_33  and  C_38
                            x       y       z     vdW  Elec       q    Type
                         _______ _______ _______ _____ _____    ______ ____

>  <TORSDO>
F 8

$$$$
