=
 OpenBabel11062421013D

 38 43  0  0  1  0  0  0  0  0999 V2000
  195.1670  175.5500  143.6630 C   0  0  1  0  0  3  0  0  0  0  0  0
  193.1150  176.3000  144.8360 C   0  0  0  0  0  2  0  0  0  0  0  0
  195.0020  173.5410  144.6210 C   0  0  2  0  0  3  0  0  0  0  0  0
  194.5470  175.8360  145.0140 C   0  0  1  0  0  3  0  0  0  0  0  0
  192.2510  175.1370  144.9870 N   0  0  1  0  0  0  0  0  0  0  0  0
  196.2170  176.5960  143.3480 C   0  0  0  0  0  1  0  0  0  0  0  0
  192.9790  174.2420  145.8740 C   0  0  0  0  0  2  0  0  0  0  0  0
  195.7610  174.2800  143.6970 O   0  0  0  0  0  0  0  0  0  0  0  0
  194.4570  174.4940  145.6670 C   0  0  1  0  0  3  0  0  0  0  0  0
  195.8510  170.1290  146.4670 C   0  0  2  0  0  3  0  0  0  0  0  0
  197.8280  170.8280  144.8720 C   0  0  1  0  0  3  0  0  0  0  0  0
  195.0770  168.8230  146.5200 C   0  0  0  0  0  1  0  0  0  0  0  0
  195.8100  172.4130  145.2780 C   0  0  2  0  0  0  0  0  0  0  0  0
  197.2410  172.2510  144.7730 C   0  0  1  0  0  3  0  0  0  0  0  0
  195.0540  171.1270  145.6350 C   0  0  0  0  0  2  0  0  0  0  0  0
  197.2340  169.9090  145.9130 C   0  0  0  0  0  0  0  0  0  0  0  0
  196.9710  172.8500  146.1580 C   0  0  0  0  0  2  0  0  0  0  0  0
  197.9200  169.0010  146.3550 O   0  0  0  0  0  0  0  0  0  0  0  0
  197.8910  170.1580  143.5040 C   0  0  0  0  0  2  0  0  0  0  0  0
  196.8100  169.2920  143.3260 O   0  0  0  0  0  1  0  0  0  0  0  0
  190.2580  176.3620  144.8410 O   0  0  0  0  0  0  0  0  0  0  0  0
  189.7800  175.0620  145.0900 C   0  0  2  0  0  3  0  0  0  0  0  0
  191.0520  175.5720  145.6960 C   0  0  1  0  0  3  0  0  0  0  0  0
  188.4380  173.0710  142.3130 C   0  0  2  0  0  3  0  0  0  0  0  0
  189.9510  174.2060  143.8370 C   0  0  2  0  0  3  0  0  0  0  0  0
  188.9720  172.1470  143.3510 C   0  0  0  0  0  2  0  0  0  0  0  0
  189.2430  172.6810  140.7610 Cl  0  0  0  0  0  0  0  0  0  0  0  0
  188.8090  174.4540  142.8650 C   0  0  1  0  0  3  0  0  0  0  0  0
  189.8030  172.7650  144.1790 C   0  0  0  0  0  2  0  0  0  0  0  0
  189.1790  175.4940  141.8070 C   0  0  0  0  0  2  0  0  0  0  0  0
  188.2810  176.7270  141.8720 C   0  0  2  0  0  3  0  0  0  0  0  0
  189.0450  177.8750  142.0910 O   0  0  0  0  0  1  0  0  0  0  0  0
  187.2050  176.6090  142.9470 C   0  0  0  0  0  2  0  0  0  0  0  0
  187.0330  177.8780  143.6570 N   0  0  0  0  0  0  0  0  0  0  0  0
  186.8920  177.5990  145.0800 C   0  0  0  0  0  1  0  0  0  0  0  0
  185.8230  178.5750  143.1950 C   0  0  2  0  0  3  0  0  0  0  0  0
  185.3940  179.7300  144.1010 C   0  0  0  0  0  1  0  0  0  0  0  0
  184.7700  177.6710  143.0480 O   0  0  0  0  0  1  0  0  0  0  0  0
  1  6  1  1  0  0  0
  1  8  1  0  0  0  0
  1  4  1  0  0  0  0
  3  8  1  6  0  0  0
  3 13  1  0  0  0  0
  3  9  1  0  0  0  0
  4  2  1  6  0  0  0
  4  9  1  0  0  0  0
  5  2  1  1  0  0  0
  5 23  1  0  0  0  0
  5  7  1  0  0  0  0
  9  7  1  6  0  0  0
 10 12  1  6  0  0  0
 11 19  1  6  0  0  0
 11 16  1  0  0  0  0
 13 15  1  1  0  0  0
 13 17  1  0  0  0  0
 14 11  1  0  0  0  0
 14 13  1  0  0  0  0
 14 17  1  1  0  0  0
 15 10  1  0  0  0  0
 16 18  2  0  0  0  0
 16 10  1  0  0  0  0
 20 19  1  0  0  0  0
 22 21  1  6  0  0  0
 22 23  1  0  0  0  0
 23 21  1  6  0  0  0
 24 27  1  6  0  0  0
 24 28  1  0  0  0  0
 24 26  1  0  0  0  0
 25 29  1  1  0  0  0
 25 22  1  0  0  0  0
 26 29  1  0  0  0  0
 28 30  1  6  0  0  0
 28 25  1  0  0  0  0
 30 31  1  0  0  0  0
 31 32  1  1  0  0  0
 31 33  1  0  0  0  0
 33 34  1  0  0  0  0
 34 35  1  0  0  0  0
 36 34  1  0  0  0  0
 36 37  1  1  0  0  0
 38 36  1  0  0  0  0
M  END
>  <MODEL>
1

>  <REMARK>
 VINA RESULT:      -7.3      0.000      0.000
  Name = 
  9 active torsions:
  status: ('A' for Active; 'I' for Inactive)
    1  A    between atoms: C_5  and  C_24
    2  A    between atoms: C_6  and  C_8
    3  A    between atoms: C_6  and  C_14
    4  A    between atoms: C_8  and  C_32
    5  A    between atoms: N_9  and  C_36
    6  A    between atoms: C_11  and  C_21
    7  A    between atoms: C_14  and  N_23
    8  A    between atoms: C_15  and  N_23
    9  A    between atoms: C_16  and  C_17
                            x       y       z     vdW  Elec       q    Type
                         _______ _______ _______ _____ _____    ______ ____

>  <TORSDO>
F 9

$$$$
=
 OpenBabel11062421013D

 38 43  0  0  1  0  0  0  0  0999 V2000
  192.4490  171.7700  142.7120 C   0  0  1  0  0  3  0  0  0  0  0  0
  192.6270  174.2160  142.3460 C   0  0  0  0  0  2  0  0  0  0  0  0
  193.7640  171.9260  144.5090 C   0  0  2  0  0  3  0  0  0  0  0  0
  193.3920  172.9070  142.3820 C   0  0  1  0  0  3  0  0  0  0  0  0
  192.7610  174.8430  143.6530 N   0  0  1  0  0  0  0  0  0  0  0  0
  192.2580  170.8900  141.4940 C   0  0  0  0  0  1  0  0  0  0  0  0
  194.0370  174.3670  144.1680 C   0  0  0  0  0  2  0  0  0  0  0  0
  193.0000  171.0150  143.7580 O   0  0  0  0  0  0  0  0  0  0  0  0
  194.2890  172.9980  143.5740 C   0  0  1  0  0  3  0  0  0  0  0  0
  195.6990  169.5210  147.0080 C   0  0  2  0  0  3  0  0  0  0  0  0
  197.1770  170.0210  144.8850 C   0  0  1  0  0  3  0  0  0  0  0  0
  195.2890  168.1830  147.5970 C   0  0  0  0  0  1  0  0  0  0  0  0
  194.9160  171.2450  145.2620 C   0  0  2  0  0  0  0  0  0  0  0  0
  196.2490  171.1990  144.5200 C   0  0  1  0  0  3  0  0  0  0  0  0
  194.5640  170.0270  146.1250 C   0  0  0  0  0  2  0  0  0  0  0  0
  196.9930  169.3960  146.2480 C   0  0  0  0  0  0  0  0  0  0  0  0
  196.0540  172.1530  145.7030 C   0  0  0  0  0  2  0  0  0  0  0  0
  197.9410  168.8270  146.7640 O   0  0  0  0  0  0  0  0  0  0  0  0
  197.1940  168.9680  143.7830 C   0  0  0  0  0  2  0  0  0  0  0  0
  196.4670  169.4010  142.6720 O   0  0  0  0  0  1  0  0  0  0  0  0
  191.6600  176.8010  142.9840 O   0  0  0  0  0  0  0  0  0  0  0  0
  191.9940  177.0990  144.3190 C   0  0  2  0  0  3  0  0  0  0  0  0
  192.8880  176.2810  143.4390 C   0  0  1  0  0  3  0  0  0  0  0  0
  189.3130  176.8520  146.8150 C   0  0  2  0  0  3  0  0  0  0  0  0
  191.0960  176.3000  145.2610 C   0  0  2  0  0  3  0  0  0  0  0  0
  190.6250  176.7160  147.5050 C   0  0  0  0  0  2  0  0  0  0  0  0
  188.3260  175.4130  147.2190 Cl  0  0  0  0  0  0  0  0  0  0  0  0
  189.7130  176.9260  145.3350 C   0  0  1  0  0  3  0  0  0  0  0  0
  191.5980  176.4080  146.6590 C   0  0  0  0  0  2  0  0  0  0  0  0
  188.7350  176.2600  144.3670 C   0  0  0  0  0  2  0  0  0  0  0  0
  187.8680  177.2800  143.6320 C   0  0  2  0  0  3  0  0  0  0  0  0
  188.6440  178.0260  142.7430 O   0  0  0  0  0  1  0  0  0  0  0  0
  187.1310  178.2140  144.5860 C   0  0  0  0  0  2  0  0  0  0  0  0
  185.6830  178.1310  144.3860 N   0  0  0  0  0  0  0  0  0  0  0  0
  185.2200  179.3910  143.8200 C   0  0  0  0  0  1  0  0  0  0  0  0
  184.9900  177.9110  145.6650 C   0  0  2  0  0  3  0  0  0  0  0  0
  185.3730  178.9150  146.7540 C   0  0  0  0  0  1  0  0  0  0  0  0
  185.2140  176.6100  146.1190 O   0  0  0  0  0  1  0  0  0  0  0  0
  1  6  1  6  0  0  0
  1  8  1  0  0  0  0
  3  8  1  6  0  0  0
  3 13  1  0  0  0  0
  4  2  1  1  0  0  0
  4  1  1  0  0  0  0
  4  9  1  0  0  0  0
  5  2  1  6  0  0  0
  5  7  1  0  0  0  0
  9  7  1  1  0  0  0
  9  3  1  0  0  0  0
 10 12  1  6  0  0  0
 11 19  1  6  0  0  0
 11 16  1  0  0  0  0
 13 17  1  1  0  0  0
 13 15  1  0  0  0  0
 14 11  1  0  0  0  0
 14 13  1  0  0  0  0
 14 17  1  1  0  0  0
 15 10  1  0  0  0  0
 16 18  2  0  0  0  0
 16 10  1  0  0  0  0
 20 19  1  0  0  0  0
 22 21  1  6  0  0  0
 22 25  1  0  0  0  0
 23 21  1  6  0  0  0
 23  5  1  0  0  0  0
 23 22  1  0  0  0  0
 24 27  1  6  0  0  0
 24 26  1  0  0  0  0
 25 28  1  0  0  0  0
 25 29  1  1  0  0  0
 28 30  1  6  0  0  0
 28 24  1  0  0  0  0
 29 26  1  0  0  0  0
 31 32  1  6  0  0  0
 31 30  1  0  0  0  0
 31 33  1  0  0  0  0
 34 33  1  0  0  0  0
 34 36  1  0  0  0  0
 35 34  1  0  0  0  0
 36 38  1  0  0  0  0
 36 37  1  1  0  0  0
M  END
>  <MODEL>
2

>  <REMARK>
 VINA RESULT:      -6.6      2.259      3.234
  Name = 
  9 active torsions:
  status: ('A' for Active; 'I' for Inactive)
    1  A    between atoms: C_5  and  C_24
    2  A    between atoms: C_6  and  C_8
    3  A    between atoms: C_6  and  C_14
    4  A    between atoms: C_8  and  C_32
    5  A    between atoms: N_9  and  C_36
    6  A    between atoms: C_11  and  C_21
    7  A    between atoms: C_14  and  N_23
    8  A    between atoms: C_15  and  N_23
    9  A    between atoms: C_16  and  C_17
                            x       y       z     vdW  Elec       q    Type
                         _______ _______ _______ _____ _____    ______ ____

>  <TORSDO>
F 9

$$$$
=
 OpenBabel11062421013D

 38 43  0  0  1  0  0  0  0  0999 V2000
  189.6230  173.4840  142.8610 C   0  0  1  0  0  3  0  0  0  0  0  0
  191.2790  173.0190  144.6460 C   0  0  0  0  0  2  0  0  0  0  0  0
  189.5650  175.6370  143.4510 C   0  0  2  0  0  3  0  0  0  0  0  0
  189.8600  173.4630  144.3560 C   0  0  1  0  0  3  0  0  0  0  0  0
  192.0940  174.2160  144.8070 N   0  0  1  0  0  0  0  0  0  0  0  0
  188.6760  172.3670  142.4750 C   0  0  0  0  0  1  0  0  0  0  0  0
  191.1730  175.2330  145.2960 C   0  0  0  0  0  2  0  0  0  0  0  0
  189.0630  174.7210  142.5090 O   0  0  0  0  0  0  0  0  0  0  0  0
  189.7980  174.9020  144.7570 C   0  0  1  0  0  3  0  0  0  0  0  0
  186.7500  178.3510  142.7630 C   0  0  2  0  0  3  0  0  0  0  0  0
  186.9370  177.8560  145.3440 C   0  0  1  0  0  3  0  0  0  0  0  0
  185.5290  178.2920  141.8620 C   0  0  0  0  0  1  0  0  0  0  0  0
  188.6310  176.8370  143.6580 C   0  0  2  0  0  0  0  0  0  0  0  0
  188.2990  177.1680  145.1100 C   0  0  1  0  0  3  0  0  0  0  0  0
  187.5110  177.0370  142.6300 C   0  0  0  0  0  2  0  0  0  0  0  0
  186.3490  178.6300  144.1870 C   0  0  0  0  0  0  0  0  0  0  0  0
  189.2540  178.0620  144.3120 C   0  0  0  0  0  2  0  0  0  0  0  0
  185.5730  179.5420  144.4260 O   0  0  0  0  0  0  0  0  0  0  0  0
  185.9240  176.8880  145.9440 C   0  0  0  0  0  2  0  0  0  0  0  0
  186.1420  176.7270  147.3140 O   0  0  0  0  0  1  0  0  0  0  0  0
  194.0090  173.0160  145.4270 O   0  0  0  0  0  0  0  0  0  0  0  0
  194.4580  174.3460  145.5240 C   0  0  2  0  0  3  0  0  0  0  0  0
  193.0560  173.9530  145.8730 C   0  0  1  0  0  3  0  0  0  0  0  0
  196.5340  175.2280  142.6270 C   0  0  2  0  0  3  0  0  0  0  0  0
  194.6450  174.9260  144.1240 C   0  0  2  0  0  3  0  0  0  0  0  0
  196.2370  176.4660  143.3990 C   0  0  0  0  0  2  0  0  0  0  0  0
  195.9970  175.4900  140.9380 Cl  0  0  0  0  0  0  0  0  0  0  0  0
  195.7210  174.1600  143.3710 C   0  0  1  0  0  3  0  0  0  0  0  0
  195.2020  176.3040  144.2110 C   0  0  0  0  0  2  0  0  0  0  0  0
  195.1250  173.0670  142.4830 C   0  0  0  0  0  2  0  0  0  0  0  0
  196.0820  171.8920  142.2960 C   0  0  2  0  0  3  0  0  0  0  0  0
  195.8510  171.2680  141.0690 O   0  0  0  0  0  1  0  0  0  0  0  0
  195.9790  170.8700  143.4240 C   0  0  0  0  0  2  0  0  0  0  0  0
  197.2840  170.6480  144.0490 N   0  0  0  0  0  0  0  0  0  0  0  0
  197.7040  169.2800  143.7730 C   0  0  0  0  0  1  0  0  0  0  0  0
  197.2010  170.8260  145.5070 C   0  0  2  0  0  3  0  0  0  0  0  0
  195.9890  170.1450  146.1440 C   0  0  0  0  0  1  0  0  0  0  0  0
  197.2070  172.1840  145.8300 O   0  0  0  0  0  1  0  0  0  0  0  0
  1  6  1  1  0  0  0
  1  4  1  0  0  0  0
  3  8  1  6  0  0  0
  3 13  1  0  0  0  0
  3  9  1  0  0  0  0
  4  2  1  6  0  0  0
  4  9  1  0  0  0  0
  5  2  1  1  0  0  0
  5  7  1  0  0  0  0
  5 23  1  0  0  0  0
  8  1  1  0  0  0  0
  9  7  1  6  0  0  0
 10 12  1  6  0  0  0
 10 16  1  0  0  0  0
 11 19  1  6  0  0  0
 13 15  1  6  0  0  0
 13 17  1  0  0  0  0
 13 14  1  0  0  0  0
 14 17  1  6  0  0  0
 14 11  1  0  0  0  0
 15 10  1  0  0  0  0
 16 18  2  0  0  0  0
 16 11  1  0  0  0  0
 19 20  1  0  0  0  0
 22 21  1  6  0  0  0
 22 23  1  0  0  0  0
 23 21  1  6  0  0  0
 24 27  1  6  0  0  0
 24 28  1  0  0  0  0
 24 26  1  0  0  0  0
 25 29  1  1  0  0  0
 25 22  1  0  0  0  0
 26 29  1  0  0  0  0
 28 30  1  6  0  0  0
 28 25  1  0  0  0  0
 31 32  1  6  0  0  0
 31 30  1  0  0  0  0
 31 33  1  0  0  0  0
 33 34  1  0  0  0  0
 34 36  1  0  0  0  0
 35 34  1  0  0  0  0
 36 38  1  0  0  0  0
 36 37  1  6  0  0  0
M  END
>  <MODEL>
3

>  <REMARK>
 VINA RESULT:      -6.6      2.390      9.790
  Name = 
  9 active torsions:
  status: ('A' for Active; 'I' for Inactive)
    1  A    between atoms: C_5  and  C_24
    2  A    between atoms: C_6  and  C_8
    3  A    between atoms: C_6  and  C_14
    4  A    between atoms: C_8  and  C_32
    5  A    between atoms: N_9  and  C_36
    6  A    between atoms: C_11  and  C_21
    7  A    between atoms: C_14  and  N_23
    8  A    between atoms: C_15  and  N_23
    9  A    between atoms: C_16  and  C_17
                            x       y       z     vdW  Elec       q    Type
                         _______ _______ _______ _____ _____    ______ ____

>  <TORSDO>
F 9

$$$$
=
 OpenBabel11062421013D

 38 43  0  0  1  0  0  0  0  0999 V2000
  190.0890  176.1890  146.2290 C   0  0  1  0  0  3  0  0  0  0  0  0
  191.9690  176.4550  144.6340 C   0  0  0  0  0  2  0  0  0  0  0  0
  188.6270  176.2560  144.5430 C   0  0  2  0  0  3  0  0  0  0  0  0
  190.7340  177.1120  145.2170 C   0  0  1  0  0  3  0  0  0  0  0  0
  191.5800  175.8060  143.3890 N   0  0  1  0  0  0  0  0  0  0  0  0
  190.2690  176.7500  147.6250 C   0  0  0  0  0  1  0  0  0  0  0  0
  190.4530  176.5860  142.8970 C   0  0  0  0  0  2  0  0  0  0  0  0
  188.7220  176.0800  145.9350 O   0  0  0  0  0  0  0  0  0  0  0  0
  189.7460  177.1770  144.0980 C   0  0  1  0  0  3  0  0  0  0  0  0
  185.5370  178.7190  144.1590 C   0  0  2  0  0  3  0  0  0  0  0  0
  185.7700  177.1980  142.0200 C   0  0  1  0  0  3  0  0  0  0  0  0
  185.4710  180.2330  144.2550 C   0  0  0  0  0  1  0  0  0  0  0  0
  187.2610  176.8060  144.1120 C   0  0  2  0  0  0  0  0  0  0  0  0
  186.7160  176.2580  142.7970 C   0  0  1  0  0  3  0  0  0  0  0  0
  186.9740  178.2820  144.4160 C   0  0  0  0  0  2  0  0  0  0  0  0
  185.0340  178.2470  142.8200 C   0  0  0  0  0  0  0  0  0  0  0  0
  186.1060  175.8160  144.1310 C   0  0  0  0  0  2  0  0  0  0  0  0
  183.9750  178.6760  142.3900 O   0  0  0  0  0  0  0  0  0  0  0  0
  186.4640  177.8030  140.8060 C   0  0  0  0  0  2  0  0  0  0  0  0
  187.8200  178.0170  141.0650 O   0  0  0  0  0  1  0  0  0  0  0  0
  193.6540  174.9910  142.6650 O   0  0  0  0  0  0  0  0  0  0  0  0
  192.8590  174.8170  141.5170 C   0  0  2  0  0  3  0  0  0  0  0  0
  192.6760  175.9810  142.4420 C   0  0  1  0  0  3  0  0  0  0  0  0
  192.0280  171.2410  141.4700 C   0  0  2  0  0  3  0  0  0  0  0  0
  191.8950  173.6520  141.7350 C   0  0  2  0  0  3  0  0  0  0  0  0
  191.4050  171.8940  140.2860 C   0  0  0  0  0  2  0  0  0  0  0  0
  190.7330  170.4090  142.3860 Cl  0  0  0  0  0  0  0  0  0  0  0  0
  192.6480  172.4250  142.2240 C   0  0  1  0  0  3  0  0  0  0  0  0
  191.3260  173.2090  140.4320 C   0  0  0  0  0  2  0  0  0  0  0  0
  192.6170  172.3090  143.7480 C   0  0  0  0  0  2  0  0  0  0  0  0
  193.9300  171.7690  144.3120 C   0  0  2  0  0  3  0  0  0  0  0  0
  193.7130  170.5610  144.9760 O   0  0  0  0  0  1  0  0  0  0  0  0
  194.6130  172.7600  145.2480 C   0  0  0  0  0  2  0  0  0  0  0  0
  195.8850  173.2180  144.6860 N   0  0  0  0  0  0  0  0  0  0  0  0
  196.9150  172.2390  145.0090 C   0  0  0  0  0  1  0  0  0  0  0  0
  196.2750  174.5140  145.2650 C   0  0  2  0  0  3  0  0  0  0  0  0
  195.1470  175.2140  146.0240 C   0  0  0  0  0  1  0  0  0  0  0  0
  196.7730  175.3580  144.2710 O   0  0  0  0  0  1  0  0  0  0  0  0
  1  6  1  1  0  0  0
  3  8  1  1  0  0  0
  4  2  1  6  0  0  0
  4  1  1  0  0  0  0
  5  7  1  6  0  0  0
  5  2  1  0  0  0  0
  8  1  1  0  0  0  0
  9  7  1  6  0  0  0
  9  3  1  0  0  0  0
  9  4  1  0  0  0  0
 10 12  1  6  0  0  0
 10 15  1  0  0  0  0
 11 19  1  6  0  0  0
 11 14  1  0  0  0  0
 11 16  1  0  0  0  0
 13 17  1  1  0  0  0
 13 15  1  0  0  0  0
 13  3  1  0  0  0  0
 14 13  1  0  0  0  0
 14 17  1  1  0  0  0
 16 10  1  0  0  0  0
 18 16  2  0  0  0  0
 19 20  1  0  0  0  0
 22 25  1  0  0  0  0
 22 23  1  0  0  0  0
 22 21  1  1  0  0  0
 23 21  1  1  0  0  0
 23  5  1  0  0  0  0
 24 28  1  0  0  0  0
 24 27  1  1  0  0  0
 25 29  1  6  0  0  0
 25 28  1  0  0  0  0
 26 29  1  0  0  0  0
 26 24  1  0  0  0  0
 28 30  1  1  0  0  0
 30 31  1  0  0  0  0
 31 32  1  1  0  0  0
 31 33  1  0  0  0  0
 34 35  1  0  0  0  0
 34 33  1  0  0  0  0
 34 36  1  0  0  0  0
 36 37  1  6  0  0  0
 38 36  1  0  0  0  0
M  END
>  <MODEL>
4

>  <REMARK>
 VINA RESULT:      -6.5      2.377      9.254
  Name = 
  9 active torsions:
  status: ('A' for Active; 'I' for Inactive)
    1  A    between atoms: C_5  and  C_24
    2  A    between atoms: C_6  and  C_8
    3  A    between atoms: C_6  and  C_14
    4  A    between atoms: C_8  and  C_32
    5  A    between atoms: N_9  and  C_36
    6  A    between atoms: C_11  and  C_21
    7  A    between atoms: C_14  and  N_23
    8  A    between atoms: C_15  and  N_23
    9  A    between atoms: C_16  and  C_17
                            x       y       z     vdW  Elec       q    Type
                         _______ _______ _______ _____ _____    ______ ____

>  <TORSDO>
F 9

$$$$
=
 OpenBabel11062421013D

 38 43  0  0  1  0  0  0  0  0999 V2000
  194.4610  177.0390  145.2730 C   0  0  1  0  0  3  0  0  0  0  0  0
  192.4560  176.4230  146.5960 C   0  0  0  0  0  2  0  0  0  0  0  0
  194.7130  174.9150  144.6330 C   0  0  2  0  0  3  0  0  0  0  0  0
  193.9540  176.2370  146.4520 C   0  0  1  0  0  3  0  0  0  0  0  0
  191.8030  175.3180  145.9080 N   0  0  1  0  0  0  0  0  0  0  0  0
  195.2960  178.2040  145.7650 C   0  0  0  0  0  1  0  0  0  0  0  0
  192.7530  174.2170  145.9840 C   0  0  0  0  0  2  0  0  0  0  0  0
  195.2450  176.2060  144.4620 O   0  0  0  0  0  0  0  0  0  0  0  0
  194.1430  174.8140  146.0350 C   0  0  1  0  0  3  0  0  0  0  0  0
  197.0090  171.7310  145.2320 C   0  0  2  0  0  3  0  0  0  0  0  0
  196.4350  171.9820  142.6720 C   0  0  1  0  0  3  0  0  0  0  0  0
  196.8090  170.5350  146.1460 C   0  0  0  0  0  1  0  0  0  0  0  0
  195.7520  173.8140  144.3840 C   0  0  2  0  0  0  0  0  0  0  0  0
  195.9670  173.4320  142.9230 C   0  0  1  0  0  3  0  0  0  0  0  0
  195.8290  172.6790  145.4130 C   0  0  0  0  0  2  0  0  0  0  0  0
  197.1630  171.2890  143.8000 C   0  0  0  0  0  0  0  0  0  0  0  0
  197.0260  174.2460  143.6730 C   0  0  0  0  0  2  0  0  0  0  0  0
  197.9380  170.3870  143.5300 O   0  0  0  0  0  0  0  0  0  0  0  0
  195.3020  171.1220  142.1230 C   0  0  0  0  0  2  0  0  0  0  0  0
  194.6200  170.4800  143.1590 O   0  0  0  0  0  1  0  0  0  0  0  0
  189.5940  175.8620  146.4710 O   0  0  0  0  0  0  0  0  0  0  0  0
  189.4360  174.6020  145.8650 C   0  0  2  0  0  3  0  0  0  0  0  0
  190.6350  174.9390  146.6970 C   0  0  1  0  0  3  0  0  0  0  0  0
  188.1830  174.5290  142.4150 C   0  0  2  0  0  3  0  0  0  0  0  0
  189.6300  174.7320  144.3560 C   0  0  2  0  0  3  0  0  0  0  0  0
  188.9330  173.2710  142.6790 C   0  0  0  0  0  2  0  0  0  0  0  0
  188.9080  175.3100  140.9740 Cl  0  0  0  0  0  0  0  0  0  0  0  0
  188.3880  175.3260  143.7100 C   0  0  1  0  0  3  0  0  0  0  0  0
  189.7280  173.3830  143.7350 C   0  0  0  0  0  2  0  0  0  0  0  0
  188.5100  176.8390  143.5270 C   0  0  0  0  0  2  0  0  0  0  0  0
  187.1550  177.5030  143.2960 C   0  0  2  0  0  3  0  0  0  0  0  0
  187.2050  178.3320  142.1740 O   0  0  0  0  0  1  0  0  0  0  0  0
  186.6810  178.2990  144.5070 C   0  0  0  0  0  2  0  0  0  0  0  0
  185.3420  177.8750  144.9210 N   0  0  0  0  0  0  0  0  0  0  0  0
  184.4120  178.9700  144.6780 C   0  0  0  0  0  1  0  0  0  0  0  0
  185.3180  177.5510  146.3560 C   0  0  2  0  0  3  0  0  0  0  0  0
  185.5740  178.7550  147.2640 C   0  0  0  0  0  1  0  0  0  0  0  0
  186.2350  176.5380  146.6400 O   0  0  0  0  0  1  0  0  0  0  0  0
  1  6  1  1  0  0  0
  1  4  1  0  0  0  0
  3  8  1  1  0  0  0
  3  9  1  0  0  0  0
  4  2  1  6  0  0  0
  5  7  1  1  0  0  0
  5  2  1  0  0  0  0
  5 23  1  0  0  0  0
  8  1  1  0  0  0  0
  9  7  1  6  0  0  0
  9  4  1  0  0  0  0
 10 15  1  0  0  0  0
 10 12  1  1  0  0  0
 11 19  1  1  0  0  0
 11 14  1  0  0  0  0
 11 16  1  0  0  0  0
 13 17  1  1  0  0  0
 13  3  1  0  0  0  0
 13 15  1  0  0  0  0
 14 17  1  1  0  0  0
 14 13  1  0  0  0  0
 16 10  1  0  0  0  0
 18 16  2  0  0  0  0
 19 20  1  0  0  0  0
 22 21  1  1  0  0  0
 22 23  1  0  0  0  0
 23 21  1  1  0  0  0
 24 27  1  6  0  0  0
 24 26  1  0  0  0  0
 24 28  1  0  0  0  0
 25 29  1  6  0  0  0
 25 22  1  0  0  0  0
 26 29  1  0  0  0  0
 28 30  1  6  0  0  0
 28 25  1  0  0  0  0
 31 32  1  6  0  0  0
 31 30  1  0  0  0  0
 31 33  1  0  0  0  0
 33 34  1  0  0  0  0
 34 36  1  0  0  0  0
 35 34  1  0  0  0  0
 36 38  1  0  0  0  0
 36 37  1  1  0  0  0
M  END
>  <MODEL>
5

>  <REMARK>
 VINA RESULT:      -6.5      1.751      2.236
  Name = 
  9 active torsions:
  status: ('A' for Active; 'I' for Inactive)
    1  A    between atoms: C_5  and  C_24
    2  A    between atoms: C_6  and  C_8
    3  A    between atoms: C_6  and  C_14
    4  A    between atoms: C_8  and  C_32
    5  A    between atoms: N_9  and  C_36
    6  A    between atoms: C_11  and  C_21
    7  A    between atoms: C_14  and  N_23
    8  A    between atoms: C_15  and  N_23
    9  A    between atoms: C_16  and  C_17
                            x       y       z     vdW  Elec       q    Type
                         _______ _______ _______ _____ _____    ______ ____

>  <TORSDO>
F 9

$$$$
=
 OpenBabel11062421013D

 38 43  0  0  1  0  0  0  0  0999 V2000
  190.0140  172.9430  142.7450 C   0  0  1  0  0  3  0  0  0  0  0  0
  189.8020  175.3460  142.1740 C   0  0  0  0  0  2  0  0  0  0  0  0
  191.9480  173.3420  143.7850 C   0  0  2  0  0  3  0  0  0  0  0  0
  190.6220  174.0890  141.9650 C   0  0  1  0  0  3  0  0  0  0  0  0
  190.4220  176.1060  143.2520 N   0  0  1  0  0  0  0  0  0  0  0  0
  189.4020  171.9380  141.7900 C   0  0  0  0  0  1  0  0  0  0  0  0
  191.8330  175.7490  143.1970 C   0  0  0  0  0  2  0  0  0  0  0  0
  191.0210  172.3240  143.5000 O   0  0  0  0  0  0  0  0  0  0  0  0
  191.9280  174.3430  142.6460 C   0  0  1  0  0  3  0  0  0  0  0  0
  195.6530  172.1250  143.0390 C   0  0  2  0  0  3  0  0  0  0  0  0
  195.4940  173.1520  145.4600 C   0  0  1  0  0  3  0  0  0  0  0  0
  196.5950  172.4870  141.9040 C   0  0  0  0  0  1  0  0  0  0  0  0
  193.3660  172.7990  144.0120 C   0  0  2  0  0  0  0  0  0  0  0  0
  193.9550  173.0570  145.3950 C   0  0  1  0  0  3  0  0  0  0  0  0
  194.3360  172.8620  142.8250 C   0  0  0  0  0  2  0  0  0  0  0  0
  196.2730  172.4510  144.3720 C   0  0  0  0  0  0  0  0  0  0  0  0
  193.4910  171.6510  145.0010 C   0  0  0  0  0  2  0  0  0  0  0  0
  197.4150  172.0910  144.6080 O   0  0  0  0  0  0  0  0  0  0  0  0
  195.9530  174.5940  145.6380 C   0  0  0  0  0  2  0  0  0  0  0  0
  194.9140  175.3880  146.1290 O   0  0  0  0  0  1  0  0  0  0  0  0
  189.0390  177.7840  142.3780 O   0  0  0  0  0  0  0  0  0  0  0  0
  189.2670  178.2500  143.6860 C   0  0  2  0  0  3  0  0  0  0  0  0
  190.3180  177.5200  142.9070 C   0  0  1  0  0  3  0  0  0  0  0  0
  186.9390  177.8600  146.4980 C   0  0  2  0  0  3  0  0  0  0  0  0
  188.4780  177.3960  144.6770 C   0  0  2  0  0  3  0  0  0  0  0  0
  188.3260  177.6380  146.9900 C   0  0  0  0  0  2  0  0  0  0  0  0
  185.9680  176.4140  146.9200 Cl  0  0  0  0  0  0  0  0  0  0  0  0
  187.1390  178.0450  144.9880 C   0  0  1  0  0  3  0  0  0  0  0  0
  189.1660  177.3790  145.9970 C   0  0  0  0  0  2  0  0  0  0  0  0
  186.0170  177.4820  144.1140 C   0  0  0  0  0  2  0  0  0  0  0  0
  185.5200  178.5000  143.0900 C   0  0  2  0  0  3  0  0  0  0  0  0
  185.7420  179.7990  143.5490 O   0  0  0  0  0  1  0  0  0  0  0  0
  184.0440  178.3150  142.7540 C   0  0  0  0  0  2  0  0  0  0  0  0
  183.8760  177.8370  141.3810 N   0  0  0  0  0  0  0  0  0  0  0  0
  185.0090  178.2940  140.5880 C   0  0  0  0  0  1  0  0  0  0  0  0
  182.6420  178.3750  140.7860 C   0  0  2  0  0  3  0  0  0  0  0  0
  181.5210  178.6100  141.8010 C   0  0  0  0  0  1  0  0  0  0  0  0
  182.1910  177.5380  139.7650 O   0  0  0  0  0  1  0  0  0  0  0  0
  1  6  1  6  0  0  0
  1  8  1  0  0  0  0
  3  8  1  6  0  0  0
  3 13  1  0  0  0  0
  4  2  1  1  0  0  0
  4  9  1  0  0  0  0
  4  1  1  0  0  0  0
  5  2  1  6  0  0  0
  7  5  1  0  0  0  0
  9  7  1  1  0  0  0
  9  3  1  0  0  0  0
 10 12  1  6  0  0  0
 10 16  1  0  0  0  0
 11 19  1  6  0  0  0
 13 15  1  6  0  0  0
 13 17  1  0  0  0  0
 13 14  1  0  0  0  0
 14 17  1  1  0  0  0
 14 11  1  0  0  0  0
 15 10  1  0  0  0  0
 16 18  2  0  0  0  0
 16 11  1  0  0  0  0
 19 20  1  0  0  0  0
 22 21  1  6  0  0  0
 22 25  1  0  0  0  0
 23 21  1  6  0  0  0
 23  5  1  0  0  0  0
 23 22  1  0  0  0  0
 24 27  1  6  0  0  0
 24 26  1  0  0  0  0
 25 28  1  0  0  0  0
 25 29  1  1  0  0  0
 28 30  1  6  0  0  0
 28 24  1  0  0  0  0
 29 26  1  0  0  0  0
 31 32  1  1  0  0  0
 31 30  1  0  0  0  0
 33 31  1  0  0  0  0
 34 33  1  0  0  0  0
 35 34  1  0  0  0  0
 36 34  1  0  0  0  0
 36 37  1  1  0  0  0
 38 36  1  0  0  0  0
M  END
>  <MODEL>
6

>  <REMARK>
 VINA RESULT:      -6.5      2.694      4.667
  Name = 
  9 active torsions:
  status: ('A' for Active; 'I' for Inactive)
    1  A    between atoms: C_5  and  C_24
    2  A    between atoms: C_6  and  C_8
    3  A    between atoms: C_6  and  C_14
    4  A    between atoms: C_8  and  C_32
    5  A    between atoms: N_9  and  C_36
    6  A    between atoms: C_11  and  C_21
    7  A    between atoms: C_14  and  N_23
    8  A    between atoms: C_15  and  N_23
    9  A    between atoms: C_16  and  C_17
                            x       y       z     vdW  Elec       q    Type
                         _______ _______ _______ _____ _____    ______ ____

>  <TORSDO>
F 9

$$$$
=
 OpenBabel11062421013D

 38 43  0  0  1  0  0  0  0  0999 V2000
  191.0720  173.3070  143.3650 C   0  0  1  0  0  3  0  0  0  0  0  0
  192.9120  173.2590  145.0270 C   0  0  0  0  0  2  0  0  0  0  0  0
  190.6810  175.4550  143.8340 C   0  0  2  0  0  3  0  0  0  0  0  0
  191.4180  173.4330  144.8330 C   0  0  1  0  0  3  0  0  0  0  0  0
  193.5140  174.5850  145.0490 N   0  0  1  0  0  0  0  0  0  0  0  0
  190.3090  172.0210  143.1260 C   0  0  0  0  0  1  0  0  0  0  0  0
  192.4680  175.4620  145.5550 C   0  0  0  0  0  2  0  0  0  0  0  0
  190.2790  174.4030  142.9920 O   0  0  0  0  0  0  0  0  0  0  0  0
  191.1360  174.8650  145.1550 C   0  0  1  0  0  3  0  0  0  0  0  0
  187.2700  177.4350  143.3790 C   0  0  2  0  0  3  0  0  0  0  0  0
  188.0580  177.5270  145.8920 C   0  0  1  0  0  3  0  0  0  0  0  0
  185.9390  176.9780  142.8090 C   0  0  0  0  0  1  0  0  0  0  0  0
  189.5700  176.4910  144.0510 C   0  0  2  0  0  0  0  0  0  0  0  0
  189.4630  177.0540  145.4650 C   0  0  1  0  0  3  0  0  0  0  0  0
  188.2550  176.2750  143.2920 C   0  0  0  0  0  2  0  0  0  0  0  0
  187.1040  177.9300  144.7920 C   0  0  0  0  0  0  0  0  0  0  0  0
  190.0300  177.9140  144.3310 C   0  0  0  0  0  2  0  0  0  0  0  0
  186.2120  178.7220  145.0510 O   0  0  0  0  0  0  0  0  0  0  0  0
  187.4130  176.5440  146.8620 C   0  0  0  0  0  2  0  0  0  0  0  0
  188.2870  175.4960  147.1600 O   0  0  0  0  0  1  0  0  0  0  0  0
  195.4840  173.5230  145.7440 O   0  0  0  0  0  0  0  0  0  0  0  0
  195.9410  174.8240  145.4650 C   0  0  2  0  0  3  0  0  0  0  0  0
  194.5830  174.5650  146.0420 C   0  0  1  0  0  3  0  0  0  0  0  0
  197.7090  175.5800  142.3370 C   0  0  2  0  0  3  0  0  0  0  0  0
  195.9770  175.0390  143.9530 C   0  0  2  0  0  3  0  0  0  0  0  0
  196.9570  176.7900  142.7670 C   0  0  0  0  0  2  0  0  0  0  0  0
  197.1960  175.1770  140.6680 Cl  0  0  0  0  0  0  0  0  0  0  0  0
  197.2890  174.5320  143.3760 C   0  0  1  0  0  3  0  0  0  0  0  0
  196.0080  176.4950  143.6450 C   0  0  0  0  0  2  0  0  0  0  0  0
  197.1610  173.1050  142.8410 C   0  0  0  0  0  2  0  0  0  0  0  0
  195.7050  172.6530  142.7480 C   0  0  2  0  0  3  0  0  0  0  0  0
  195.5360  171.4240  143.3870 O   0  0  0  0  0  1  0  0  0  0  0  0
  195.2130  172.5600  141.3070 C   0  0  0  0  0  2  0  0  0  0  0  0
  193.7630  172.7430  141.2360 N   0  0  0  0  0  0  0  0  0  0  0  0
  193.1820  171.5890  140.5620 C   0  0  0  0  0  1  0  0  0  0  0  0
  193.4250  173.9520  140.4680 C   0  0  2  0  0  3  0  0  0  0  0  0
  193.4300  175.2330  141.3040 C   0  0  0  0  0  1  0  0  0  0  0  0
  192.1880  173.7970  139.8410 O   0  0  0  0  0  1  0  0  0  0  0  0
  1  6  1  1  0  0  0
  1  4  1  0  0  0  0
  3  8  1  6  0  0  0
  3 13  1  0  0  0  0
  3  9  1  0  0  0  0
  4  2  1  6  0  0  0
  4  9  1  0  0  0  0
  5  2  1  1  0  0  0
  5  7  1  0  0  0  0
  5 23  1  0  0  0  0
  8  1  1  0  0  0  0
  9  7  1  6  0  0  0
 10 12  1  1  0  0  0
 10 16  1  0  0  0  0
 11 19  1  6  0  0  0
 13 15  1  6  0  0  0
 13 17  1  0  0  0  0
 13 14  1  0  0  0  0
 14 17  1  6  0  0  0
 14 11  1  0  0  0  0
 15 10  1  0  0  0  0
 16 18  2  0  0  0  0
 16 11  1  0  0  0  0
 19 20  1  0  0  0  0
 22 21  1  6  0  0  0
 22 23  1  0  0  0  0
 23 21  1  6  0  0  0
 24 27  1  6  0  0  0
 24 26  1  0  0  0  0
 24 28  1  0  0  0  0
 25 29  1  1  0  0  0
 25 22  1  0  0  0  0
 26 29  1  0  0  0  0
 28 30  1  6  0  0  0
 28 25  1  0  0  0  0
 31 30  1  0  0  0  0
 31 32  1  6  0  0  0
 33 31  1  0  0  0  0
 34 33  1  0  0  0  0
 35 34  1  0  0  0  0
 36 34  1  0  0  0  0
 36 37  1  1  0  0  0
 38 36  1  0  0  0  0
M  END
>  <MODEL>
7

>  <REMARK>
 VINA RESULT:      -6.5      3.000      8.646
  Name = 
  9 active torsions:
  status: ('A' for Active; 'I' for Inactive)
    1  A    between atoms: C_5  and  C_24
    2  A    between atoms: C_6  and  C_8
    3  A    between atoms: C_6  and  C_14
    4  A    between atoms: C_8  and  C_32
    5  A    between atoms: N_9  and  C_36
    6  A    between atoms: C_11  and  C_21
    7  A    between atoms: C_14  and  N_23
    8  A    between atoms: C_15  and  N_23
    9  A    between atoms: C_16  and  C_17
                            x       y       z     vdW  Elec       q    Type
                         _______ _______ _______ _____ _____    ______ ____

>  <TORSDO>
F 9

$$$$
=
 OpenBabel11062421013D

 38 43  0  0  1  0  0  0  0  0999 V2000
  190.5590  173.5120  144.4610 C   0  0  1  0  0  3  0  0  0  0  0  0
  192.5860  174.1550  145.7370 C   0  0  0  0  0  2  0  0  0  0  0  0
  190.3320  175.6090  143.7300 C   0  0  2  0  0  3  0  0  0  0  0  0
  191.0900  174.3580  145.5980 C   0  0  1  0  0  3  0  0  0  0  0  0
  193.2480  175.2190  144.9950 N   0  0  1  0  0  0  0  0  0  0  0  0
  189.7120  172.3830  145.0120 C   0  0  0  0  0  1  0  0  0  0  0  0
  192.3150  176.3370  145.0300 C   0  0  0  0  0  2  0  0  0  0  0  0
  189.7800  174.3210  143.6210 O   0  0  0  0  0  0  0  0  0  0  0  0
  190.9170  175.7640  145.1210 C   0  0  1  0  0  3  0  0  0  0  0  0
  187.7020  177.8590  141.7850 C   0  0  2  0  0  3  0  0  0  0  0  0
  187.1140  177.7700  144.3520 C   0  0  1  0  0  3  0  0  0  0  0  0
  186.8250  177.5310  140.5890 C   0  0  0  0  0  1  0  0  0  0  0  0
  189.3070  176.7140  143.4420 C   0  0  2  0  0  0  0  0  0  0  0  0
  188.5220  177.2140  144.6510 C   0  0  1  0  0  3  0  0  0  0  0  0
  188.5480  176.6340  142.1110 C   0  0  0  0  0  2  0  0  0  0  0  0
  186.8640  178.2950  142.9570 C   0  0  0  0  0  0  0  0  0  0  0  0
  189.6190  178.0830  144.0270 C   0  0  0  0  0  2  0  0  0  0  0  0
  185.9970  179.1390  142.7960 O   0  0  0  0  0  0  0  0  0  0  0  0
  186.0290  176.7920  144.7860 C   0  0  0  0  0  2  0  0  0  0  0  0
  185.1510  177.3950  145.6900 O   0  0  0  0  0  1  0  0  0  0  0  0
  195.3530  174.5500  145.7790 O   0  0  0  0  0  0  0  0  0  0  0  0
  195.6870  175.6310  144.9410 C   0  0  2  0  0  3  0  0  0  0  0  0
  194.4290  175.6150  145.7550 C   0  0  1  0  0  3  0  0  0  0  0  0
  197.0310  174.9510  141.5930 C   0  0  2  0  0  3  0  0  0  0  0  0
  195.5250  175.2140  143.4810 C   0  0  2  0  0  3  0  0  0  0  0  0
  196.3500  176.2750  141.5770 C   0  0  0  0  0  2  0  0  0  0  0  0
  196.3000  173.9400  140.3080 Cl  0  0  0  0  0  0  0  0  0  0  0  0
  196.7460  174.4400  143.0120 C   0  0  1  0  0  3  0  0  0  0  0  0
  195.5230  176.4170  142.6040 C   0  0  0  0  0  2  0  0  0  0  0  0
  196.5400  172.9290  143.1250 C   0  0  0  0  0  2  0  0  0  0  0  0
  195.0860  172.5660  143.4170 C   0  0  2  0  0  3  0  0  0  0  0  0
  195.0130  171.6880  144.5000 O   0  0  0  0  0  1  0  0  0  0  0  0
  194.3810  171.9590  142.2090 C   0  0  0  0  0  2  0  0  0  0  0  0
  192.9320  172.1470  142.2980 N   0  0  0  0  0  0  0  0  0  0  0  0
  192.2930  170.8380  142.2990 C   0  0  0  0  0  1  0  0  0  0  0  0
  192.4320  172.9110  141.1440 C   0  0  2  0  0  3  0  0  0  0  0  0
  192.6860  174.4160  141.2450 C   0  0  0  0  0  1  0  0  0  0  0  0
  191.0710  172.6700  140.9570 O   0  0  0  0  0  1  0  0  0  0  0  0
  1  6  1  1  0  0  0
  1  4  1  0  0  0  0
  3  8  1  1  0  0  0
  3  9  1  0  0  0  0
  4  2  1  6  0  0  0
  5  7  1  1  0  0  0
  5  2  1  0  0  0  0
  5 23  1  0  0  0  0
  8  1  1  0  0  0  0
  9  7  1  6  0  0  0
  9  4  1  0  0  0  0
 10 12  1  6  0  0  0
 10 15  1  0  0  0  0
 10 16  1  0  0  0  0
 11 14  1  0  0  0  0
 11 19  1  6  0  0  0
 13 15  1  6  0  0  0
 13  3  1  0  0  0  0
 13 17  1  0  0  0  0
 13 14  1  0  0  0  0
 14 17  1  6  0  0  0
 16 11  1  0  0  0  0
 18 16  2  0  0  0  0
 19 20  1  0  0  0  0
 22 23  1  0  0  0  0
 22 21  1  1  0  0  0
 23 21  1  1  0  0  0
 24 27  1  6  0  0  0
 24 28  1  0  0  0  0
 25 29  1  6  0  0  0
 25 22  1  0  0  0  0
 26 24  1  0  0  0  0
 26 29  1  0  0  0  0
 28 30  1  6  0  0  0
 28 25  1  0  0  0  0
 30 31  1  0  0  0  0
 31 32  1  1  0  0  0
 33 34  1  0  0  0  0
 33 31  1  0  0  0  0
 34 35  1  0  0  0  0
 36 37  1  1  0  0  0
 36 34  1  0  0  0  0
 38 36  1  0  0  0  0
M  END
>  <MODEL>
8

>  <REMARK>
 VINA RESULT:      -6.5      2.783      8.817
  Name = 
  9 active torsions:
  status: ('A' for Active; 'I' for Inactive)
    1  A    between atoms: C_5  and  C_24
    2  A    between atoms: C_6  and  C_8
    3  A    between atoms: C_6  and  C_14
    4  A    between atoms: C_8  and  C_32
    5  A    between atoms: N_9  and  C_36
    6  A    between atoms: C_11  and  C_21
    7  A    between atoms: C_14  and  N_23
    8  A    between atoms: C_15  and  N_23
    9  A    between atoms: C_16  and  C_17
                            x       y       z     vdW  Elec       q    Type
                         _______ _______ _______ _____ _____    ______ ____

>  <TORSDO>
F 9

$$$$
=
 OpenBabel11062421013D

 38 43  0  0  1  0  0  0  0  0999 V2000
  191.5390  172.0520  141.9550 C   0  0  1  0  0  3  0  0  0  0  0  0
  191.7960  174.5110  141.7610 C   0  0  0  0  0  2  0  0  0  0  0  0
  193.0710  172.0030  143.5780 C   0  0  2  0  0  3  0  0  0  0  0  0
  192.4910  173.1740  141.5980 C   0  0  1  0  0  3  0  0  0  0  0  0
  192.1210  175.0210  143.0860 N   0  0  1  0  0  0  0  0  0  0  0  0
  191.1550  171.2860  140.7050 C   0  0  0  0  0  1  0  0  0  0  0  0
  193.4250  174.4510  143.3970 C   0  0  0  0  0  2  0  0  0  0  0  0
  192.1740  171.1910  142.8610 O   0  0  0  0  0  0  0  0  0  0  0  0
  193.5310  173.1270  142.6710 C   0  0  1  0  0  3  0  0  0  0  0  0
  196.3070  169.7040  143.6750 C   0  0  2  0  0  3  0  0  0  0  0  0
  196.3590  171.4480  145.6500 C   0  0  1  0  0  3  0  0  0  0  0  0
  197.3520  169.4350  142.6060 C   0  0  0  0  0  1  0  0  0  0  0  0
  194.2700  171.2150  144.1230 C   0  0  2  0  0  0  0  0  0  0  0  0
  194.8590  171.7360  145.4300 C   0  0  1  0  0  3  0  0  0  0  0  0
  195.2590  170.6480  143.0970 C   0  0  0  0  0  2  0  0  0  0  0  0
  196.9470  170.2640  144.9180 C   0  0  0  0  0  0  0  0  0  0  0  0
  194.0320  170.4470  145.4150 C   0  0  0  0  0  2  0  0  0  0  0  0
  197.9330  169.7170  145.3860 O   0  0  0  0  0  0  0  0  0  0  0  0
  197.1990  172.7040  145.4490 C   0  0  0  0  0  2  0  0  0  0  0  0
  197.1780  173.5040  146.5940 O   0  0  0  0  0  1  0  0  0  0  0  0
  191.0420  177.0760  142.7620 O   0  0  0  0  0  0  0  0  0  0  0  0
  191.5970  177.2400  144.0450 C   0  0  2  0  0  3  0  0  0  0  0  0
  192.2950  176.4650  142.9700 C   0  0  1  0  0  3  0  0  0  0  0  0
  189.1150  176.8660  146.7240 C   0  0  2  0  0  3  0  0  0  0  0  0
  190.8140  176.4000  145.0520 C   0  0  2  0  0  3  0  0  0  0  0  0
  190.4770  176.8100  147.3210 C   0  0  0  0  0  2  0  0  0  0  0  0
  188.2410  175.3770  147.2030 Cl  0  0  0  0  0  0  0  0  0  0  0  0
  189.4060  176.9480  145.2200 C   0  0  1  0  0  3  0  0  0  0  0  0
  191.4050  176.5490  146.4100 C   0  0  0  0  0  2  0  0  0  0  0  0
  188.4010  176.2200  144.3260 C   0  0  0  0  0  2  0  0  0  0  0  0
  187.3770  177.1740  143.7150 C   0  0  2  0  0  3  0  0  0  0  0  0
  187.8660  177.7130  142.5230 O   0  0  0  0  0  1  0  0  0  0  0  0
  186.9840  178.2970  144.6690 C   0  0  0  0  0  2  0  0  0  0  0  0
  185.5310  178.4710  144.7020 N   0  0  0  0  0  0  0  0  0  0  0  0
  185.2040  179.7650  144.1170 C   0  0  0  0  0  1  0  0  0  0  0  0
  185.0330  178.4450  146.0860 C   0  0  2  0  0  3  0  0  0  0  0  0
  185.2090  177.0920  146.7790 C   0  0  0  0  0  1  0  0  0  0  0  0
  183.6920  178.8280  146.1260 O   0  0  0  0  0  1  0  0  0  0  0  0
  1  6  1  6  0  0  0
  1  8  1  0  0  0  0
  3  8  1  6  0  0  0
  3 13  1  0  0  0  0
  4  2  1  1  0  0  0
  4  1  1  0  0  0  0
  4  9  1  0  0  0  0
  5  2  1  6  0  0  0
  5  7  1  0  0  0  0
  9  7  1  1  0  0  0
  9  3  1  0  0  0  0
 10 12  1  6  0  0  0
 10 16  1  0  0  0  0
 11 19  1  6  0  0  0
 13 15  1  6  0  0  0
 13 17  1  0  0  0  0
 13 14  1  0  0  0  0
 14 17  1  1  0  0  0
 14 11  1  0  0  0  0
 15 10  1  0  0  0  0
 16 18  2  0  0  0  0
 16 11  1  0  0  0  0
 19 20  1  0  0  0  0
 22 21  1  6  0  0  0
 22 25  1  0  0  0  0
 23 21  1  6  0  0  0
 23  5  1  0  0  0  0
 23 22  1  0  0  0  0
 24 27  1  6  0  0  0
 24 26  1  0  0  0  0
 25 28  1  0  0  0  0
 25 29  1  1  0  0  0
 28 30  1  6  0  0  0
 28 24  1  0  0  0  0
 29 26  1  0  0  0  0
 31 32  1  6  0  0  0
 31 30  1  0  0  0  0
 31 33  1  0  0  0  0
 33 34  1  0  0  0  0
 34 36  1  0  0  0  0
 35 34  1  0  0  0  0
 36 38  1  0  0  0  0
 36 37  1  6  0  0  0
M  END
>  <MODEL>
9

>  <REMARK>
 VINA RESULT:      -6.4      2.465      3.776
  Name = 
  9 active torsions:
  status: ('A' for Active; 'I' for Inactive)
    1  A    between atoms: C_5  and  C_24
    2  A    between atoms: C_6  and  C_8
    3  A    between atoms: C_6  and  C_14
    4  A    between atoms: C_8  and  C_32
    5  A    between atoms: N_9  and  C_36
    6  A    between atoms: C_11  and  C_21
    7  A    between atoms: C_14  and  N_23
    8  A    between atoms: C_15  and  N_23
    9  A    between atoms: C_16  and  C_17
                            x       y       z     vdW  Elec       q    Type
                         _______ _______ _______ _____ _____    ______ ____

>  <TORSDO>
F 9

$$$$
