=
 OpenBabel11062418483D

 37 42  0  0  1  0  0  0  0  0999 V2000
  194.9160  175.4190  140.1490 C   0  0  0  0  0  3  0  0  0  0  0  0
  197.7930  174.1170  145.2390 O   0  0  0  0  0  0  0  0  0  0  0  0
  195.0520  175.4730  144.7280 C   0  0  0  0  0  3  0  0  0  0  0  0
  195.7650  175.1800  142.7150 C   0  0  0  0  0  0  0  0  0  0  0  0
  197.2730  174.4020  144.1280 C   0  0  0  0  0  0  0  0  0  0  0  0
  194.5550  175.7130  142.5200 C   0  0  0  0  0  0  0  0  0  0  0  0
  196.0820  175.0190  143.9800 N   0  0  0  0  0  0  0  0  0  0  0  0
  197.9310  174.0460  142.5820 S   0  0  0  0  0  0  0  0  0  0  0  0
  194.0700  175.8570  141.2140 C   0  0  0  0  0  3  0  0  0  0  0  0
  196.2090  174.8530  140.4020 C   0  0  0  0  0  0  0  0  0  0  0  0
  196.6070  174.7360  141.7480 C   0  0  0  0  0  0  0  0  0  0  0  0
  194.0710  175.9290  143.8120 C   0  0  0  0  0  0  0  0  0  0  0  0
  197.0310  174.3860  139.3220 N   0  0  0  0  0  0  0  0  0  0  0  0
  197.9410  175.3190  138.6720 C   0  0  0  0  0  1  0  0  0  0  0  0
  197.0520  173.0040  138.9300 C   0  0  0  0  0  0  0  0  0  0  0  0
  196.7480  170.8910  139.0030 N   0  0  0  0  0  0  0  0  0  0  0  0
  196.5050  172.0120  139.6580 N   0  0  0  0  0  0  0  0  0  0  0  0
  197.4400  171.2330  137.9010 C   0  0  0  0  0  0  0  0  0  0  0  0
  197.9140  170.2510  136.8910 C   0  0  0  0  0  1  0  0  0  0  0  0
  197.6620  172.5580  137.8130 N   0  0  0  0  0  2  0  0  0  0  0  0
  191.7040  176.9170  144.4430 C   0  0  0  0  0  0  0  0  0  0  0  0
  192.7850  176.4660  144.1570 C   0  0  0  0  0  0  0  0  0  0  0  0
  186.1460  177.6530  145.2860 C   0  0  1  0  0  3  0  0  0  0  0  0
  190.3880  177.4640  144.7920 C   0  0  2  0  0  3  0  0  0  0  0  0
  186.0350  176.9310  146.6380 C   0  0  0  0  0  2  0  0  0  0  0  0
  189.7180  176.5950  145.8760 C   0  0  2  0  0  3  0  0  0  0  0  0
  187.4410  176.5140  146.9490 C   0  0  0  0  0  3  0  0  0  0  0  0
  188.2420  176.8850  145.9650 C   0  0  0  0  0  0  0  0  0  0  0  0
  187.5350  177.4910  144.9010 N   0  0  0  0  0  0  0  0  0  0  0  0
  188.1990  178.2200  143.8290 C   0  0  0  0  0  2  0  0  0  0  0  0
  189.5420  177.5660  143.5210 C   0  0  0  0  0  2  0  0  0  0  0  0
  185.8590  176.1400  143.4240 O   0  0  0  0  0  1  0  0  0  0  0  0
  185.2020  177.0830  144.2180 C   0  0  2  0  0  3  0  0  0  0  0  0
  184.8170  177.9580  141.9460 N   0  0  0  0  0  1  0  0  0  0  0  0
  184.5040  178.1370  143.3550 C   0  0  0  0  0  2  0  0  0  0  0  0
  190.3750  176.8280  147.1730 C   0  0  0  0  0  0  0  0  0  0  0  0
  190.8930  177.0100  148.1920 N   0  0  0  0  0  0  0  0  0  0  0  0
  1 10  2  0  0  0  0
  1  9  1  0  0  0  0
  4  7  1  0  0  0  0
  5  2  2  0  0  0  0
  6  4  1  0  0  0  0
  6 12  1  0  0  0  0
  7  5  1  0  0  0  0
  7  3  1  0  0  0  0
  8  5  1  0  0  0  0
  9  6  2  0  0  0  0
 10 11  1  0  0  0  0
 11  8  1  0  0  0  0
 11  4  2  0  0  0  0
 12 22  1  0  0  0  0
 12  3  2  0  0  0  0
 13 10  1  0  0  0  0
 14 13  1  0  0  0  0
 15 13  1  0  0  0  0
 15 17  2  0  0  0  0
 16 17  1  0  0  0  0
 18 16  2  0  0  0  0
 19 18  1  0  0  0  0
 20 18  1  0  0  0  0
 20 15  1  0  0  0  0
 22 21  3  0  0  0  0
 23 33  1  6  0  0  0
 23 25  1  0  0  0  0
 24 21  1  6  0  0  0
 24 26  1  0  0  0  0
 25 27  1  0  0  0  0
 26 28  1  0  0  0  0
 26 36  1  1  0  0  0
 28 27  2  0  0  0  0
 29 23  1  0  0  0  0
 29 28  1  0  0  0  0
 30 29  1  0  0  0  0
 31 30  1  0  0  0  0
 31 24  1  0  0  0  0
 33 32  1  6  0  0  0
 34 35  1  0  0  0  0
 35 33  1  0  0  0  0
 36 37  3  0  0  0  0
M  END
>  <MODEL>
1

>  <REMARK>
 VINA RESULT:      -7.0      0.000      0.000
  Name = 
  6 active torsions:
  status: ('A' for Active; 'I' for Inactive)
    1  A    between atoms: C_3  and  C_21
    2  A    between atoms: N_4  and  C_31
    3  A    between atoms: C_5  and  C_13
    4  A    between atoms: C_7  and  C_11
    5  A    between atoms: C_21  and  C_24
    6  A    between atoms: C_34  and  C_35
                            x       y       z     vdW  Elec       q    Type
                         _______ _______ _______ _____ _____    ______ ____

>  <TORSDO>
F 6

$$$$
=
 OpenBabel11062418483D

 37 42  0  0  1  0  0  0  0  0999 V2000
  193.8190  173.3950  144.6060 C   0  0  0  0  0  3  0  0  0  0  0  0
  191.0870  168.9070  141.7300 O   0  0  0  0  0  0  0  0  0  0  0  0
  190.1510  171.7900  142.3800 C   0  0  0  0  0  3  0  0  0  0  0  0
  192.0800  171.7410  143.3410 C   0  0  0  0  0  0  0  0  0  0  0  0
  191.7060  169.7860  142.3870 C   0  0  0  0  0  0  0  0  0  0  0  0
  191.6790  172.9980  143.5580 C   0  0  0  0  0  0  0  0  0  0  0  0
  191.2240  171.0170  142.6550 N   0  0  0  0  0  0  0  0  0  0  0  0
  193.2850  169.6310  143.0460 S   0  0  0  0  0  0  0  0  0  0  0  0
  192.5400  173.8920  144.2070 C   0  0  0  0  0  3  0  0  0  0  0  0
  194.2110  172.0390  144.3530 C   0  0  0  0  0  0  0  0  0  0  0  0
  193.2830  171.2170  143.6840 C   0  0  0  0  0  0  0  0  0  0  0  0
  190.4190  173.0570  142.9590 C   0  0  0  0  0  0  0  0  0  0  0  0
  195.5130  171.5670  144.7300 N   0  0  0  0  0  0  0  0  0  0  0  0
  196.6890  172.2230  144.1770 C   0  0  0  0  0  1  0  0  0  0  0  0
  195.6880  170.5330  145.7110 C   0  0  0  0  0  0  0  0  0  0  0  0
  195.2410  169.1700  147.2940 N   0  0  0  0  0  0  0  0  0  0  0  0
  194.7010  170.0880  146.5130 N   0  0  0  0  0  0  0  0  0  0  0  0
  196.5390  169.0890  146.9510 C   0  0  0  0  0  0  0  0  0  0  0  0
  197.5050  168.1660  147.6020 C   0  0  0  0  0  1  0  0  0  0  0  0
  196.8710  169.9360  145.9580 N   0  0  0  0  0  2  0  0  0  0  0  0
  188.8540  175.1810  142.8270 C   0  0  0  0  0  0  0  0  0  0  0  0
  189.5670  174.2100  142.8870 C   0  0  0  0  0  0  0  0  0  0  0  0
  184.3960  178.6710  142.5340 C   0  0  1  0  0  3  0  0  0  0  0  0
  187.9860  176.3610  142.7500 C   0  0  2  0  0  3  0  0  0  0  0  0
  184.0450  178.6980  144.0300 C   0  0  0  0  0  2  0  0  0  0  0  0
  187.0580  176.4230  143.9790 C   0  0  2  0  0  3  0  0  0  0  0  0
  185.0970  177.8450  144.6710 C   0  0  0  0  0  3  0  0  0  0  0  0
  185.9090  177.3700  143.7420 C   0  0  0  0  0  0  0  0  0  0  0  0
  185.5090  177.7450  142.4400 N   0  0  0  0  0  0  0  0  0  0  0  0
  186.3660  177.5810  141.2730 C   0  0  0  0  0  2  0  0  0  0  0  0
  187.2090  176.3200  141.4320 C   0  0  0  0  0  2  0  0  0  0  0  0
  183.4500  178.5750  140.3130 O   0  0  0  0  0  1  0  0  0  0  0  0
  183.2250  178.2260  141.6460 C   0  0  2  0  0  3  0  0  0  0  0  0
  180.8000  178.2800  141.2040 N   0  0  0  0  0  1  0  0  0  0  0  0
  181.8500  178.7070  142.1160 C   0  0  0  0  0  2  0  0  0  0  0  0
  187.8320  176.8270  145.1650 C   0  0  0  0  0  0  0  0  0  0  0  0
  188.4410  177.1440  146.0960 N   0  0  0  0  0  0  0  0  0  0  0  0
  2  5  2  0  0  0  0
  3  7  1  0  0  0  0
  3 12  2  0  0  0  0
  4  6  2  0  0  0  0
  4 11  1  0  0  0  0
  5  7  1  0  0  0  0
  5  8  1  0  0  0  0
  6  9  1  0  0  0  0
  7  4  1  0  0  0  0
  8 11  1  0  0  0  0
  9  1  2  0  0  0  0
 10  1  1  0  0  0  0
 10 13  1  0  0  0  0
 11 10  2  0  0  0  0
 12  6  1  0  0  0  0
 13 15  1  0  0  0  0
 14 13  1  0  0  0  0
 15 20  1  0  0  0  0
 15 17  2  0  0  0  0
 17 16  1  0  0  0  0
 18 16  2  0  0  0  0
 18 19  1  0  0  0  0
 20 18  1  0  0  0  0
 21 22  3  0  0  0  0
 22 12  1  0  0  0  0
 23 33  1  6  0  0  0
 23 25  1  0  0  0  0
 24 21  1  1  0  0  0
 24 26  1  0  0  0  0
 25 27  1  0  0  0  0
 26 36  1  1  0  0  0
 28 26  1  0  0  0  0
 28 27  2  0  0  0  0
 29 23  1  0  0  0  0
 29 28  1  0  0  0  0
 30 31  1  0  0  0  0
 30 29  1  0  0  0  0
 31 24  1  0  0  0  0
 33 32  1  6  0  0  0
 33 35  1  0  0  0  0
 34 35  1  0  0  0  0
 36 37  3  0  0  0  0
M  END
>  <MODEL>
2

>  <REMARK>
 VINA RESULT:      -6.9      4.278      5.651
  Name = 
  6 active torsions:
  status: ('A' for Active; 'I' for Inactive)
    1  A    between atoms: C_3  and  C_21
    2  A    between atoms: N_4  and  C_31
    3  A    between atoms: C_5  and  C_13
    4  A    between atoms: C_7  and  C_11
    5  A    between atoms: C_21  and  C_24
    6  A    between atoms: C_34  and  C_35
                            x       y       z     vdW  Elec       q    Type
                         _______ _______ _______ _____ _____    ______ ____

>  <TORSDO>
F 6

$$$$
=
 OpenBabel11062418483D

 37 42  0  0  1  0  0  0  0  0999 V2000
  193.4800  171.4120  143.5530 C   0  0  0  0  0  3  0  0  0  0  0  0
  196.2890  176.5610  142.3370 O   0  0  0  0  0  0  0  0  0  0  0  0
  193.2750  175.8910  142.6100 C   0  0  0  0  0  3  0  0  0  0  0  0
  194.1700  173.9480  142.8770 C   0  0  0  0  0  0  0  0  0  0  0  0
  195.7700  175.4330  142.5480 C   0  0  0  0  0  0  0  0  0  0  0  0
  192.8690  173.6950  143.0490 C   0  0  0  0  0  0  0  0  0  0  0  0
  194.4420  175.2100  142.6310 N   0  0  0  0  0  0  0  0  0  0  0  0
  196.6170  173.9620  142.8120 S   0  0  0  0  0  0  0  0  0  0  0  0
  192.4610  172.4020  143.3990 C   0  0  0  0  0  3  0  0  0  0  0  0
  194.8660  171.7260  143.3590 C   0  0  0  0  0  0  0  0  0  0  0  0
  195.1830  173.0570  143.0200 C   0  0  0  0  0  0  0  0  0  0  0  0
  192.2580  174.9360  142.8660 C   0  0  0  0  0  0  0  0  0  0  0  0
  195.8800  170.7280  143.5520 N   0  0  0  0  0  0  0  0  0  0  0  0
  196.6360  170.2570  142.4000 C   0  0  0  0  0  1  0  0  0  0  0  0
  196.2350  170.2540  144.8600 C   0  0  0  0  0  0  0  0  0  0  0  0
  196.3810  170.1540  146.9890 N   0  0  0  0  0  0  0  0  0  0  0  0
  195.8370  170.8440  146.0040 N   0  0  0  0  0  0  0  0  0  0  0  0
  197.0990  169.1700  146.4180 C   0  0  0  0  0  0  0  0  0  0  0  0
  197.8760  168.1660  147.1900 C   0  0  0  0  0  1  0  0  0  0  0  0
  197.0430  169.1950  145.0730 N   0  0  0  0  0  2  0  0  0  0  0  0
  189.6740  175.4520  143.0660 C   0  0  0  0  0  0  0  0  0  0  0  0
  190.8530  175.2150  142.9740 C   0  0  0  0  0  0  0  0  0  0  0  0
  184.6450  178.0200  143.5730 C   0  0  1  0  0  3  0  0  0  0  0  0
  188.2410  175.7410  143.1760 C   0  0  2  0  0  3  0  0  0  0  0  0
  184.4590  178.4210  142.1010 C   0  0  0  0  0  2  0  0  0  0  0  0
  187.7850  176.6360  142.0060 C   0  0  2  0  0  3  0  0  0  0  0  0
  185.6670  177.8640  141.4110 C   0  0  0  0  0  3  0  0  0  0  0  0
  186.4470  177.2670  142.2960 C   0  0  0  0  0  0  0  0  0  0  0  0
  185.9520  177.3900  143.6140 N   0  0  0  0  0  0  0  0  0  0  0  0
  186.4700  176.6070  144.7280 C   0  0  0  0  0  2  0  0  0  0  0  0
  187.9670  176.3800  144.5390 C   0  0  0  0  0  2  0  0  0  0  0  0
  185.7350  179.9780  144.4750 O   0  0  0  0  0  1  0  0  0  0  0  0
  184.5700  179.2110  144.5380 C   0  0  2  0  0  3  0  0  0  0  0  0
  185.3980  178.9690  146.8470 N   0  0  0  0  0  1  0  0  0  0  0  0
  184.2340  178.8390  145.9850 C   0  0  0  0  0  2  0  0  0  0  0  0
  187.7290  175.8410  140.7670 C   0  0  0  0  0  0  0  0  0  0  0  0
  187.6860  175.2180  139.7930 N   0  0  0  0  0  0  0  0  0  0  0  0
  2  5  2  0  0  0  0
  3  7  1  0  0  0  0
  3 12  2  0  0  0  0
  4 11  2  0  0  0  0
  4  6  1  0  0  0  0
  5  7  1  0  0  0  0
  5  8  1  0  0  0  0
  6  9  2  0  0  0  0
  7  4  1  0  0  0  0
  8 11  1  0  0  0  0
  9  1  1  0  0  0  0
 10 13  1  0  0  0  0
 10  1  2  0  0  0  0
 11 10  1  0  0  0  0
 12 22  1  0  0  0  0
 12  6  1  0  0  0  0
 13 15  1  0  0  0  0
 14 13  1  0  0  0  0
 15 20  1  0  0  0  0
 15 17  2  0  0  0  0
 17 16  1  0  0  0  0
 18 16  2  0  0  0  0
 18 19  1  0  0  0  0
 20 18  1  0  0  0  0
 22 21  3  0  0  0  0
 23 29  1  0  0  0  0
 23 33  1  1  0  0  0
 24 21  1  6  0  0  0
 24 31  1  0  0  0  0
 25 23  1  0  0  0  0
 26 36  1  6  0  0  0
 26 28  1  0  0  0  0
 26 24  1  0  0  0  0
 27 25  1  0  0  0  0
 27 28  2  0  0  0  0
 28 29  1  0  0  0  0
 29 30  1  0  0  0  0
 31 30  1  0  0  0  0
 33 32  1  1  0  0  0
 33 35  1  0  0  0  0
 35 34  1  0  0  0  0
 37 36  3  0  0  0  0
M  END
>  <MODEL>
3

>  <REMARK>
 VINA RESULT:      -6.7      3.413      5.023
  Name = 
  6 active torsions:
  status: ('A' for Active; 'I' for Inactive)
    1  A    between atoms: C_3  and  C_21
    2  A    between atoms: N_4  and  C_31
    3  A    between atoms: C_5  and  C_13
    4  A    between atoms: C_7  and  C_11
    5  A    between atoms: C_21  and  C_24
    6  A    between atoms: C_34  and  C_35
                            x       y       z     vdW  Elec       q    Type
                         _______ _______ _______ _____ _____    ______ ____

>  <TORSDO>
F 6

$$$$
=
 OpenBabel11062418483D

 37 42  0  0  1  0  0  0  0  0999 V2000
  191.1290  177.3760  144.2990 C   0  0  0  0  0  3  0  0  0  0  0  0
  189.9660  171.8230  142.3760 O   0  0  0  0  0  0  0  0  0  0  0  0
  188.2190  174.3840  142.4100 C   0  0  0  0  0  3  0  0  0  0  0  0
  190.0130  175.0790  143.3810 C   0  0  0  0  0  0  0  0  0  0  0  0
  190.2670  172.9520  142.8460 C   0  0  0  0  0  0  0  0  0  0  0  0
  189.2630  176.1840  143.3310 C   0  0  0  0  0  0  0  0  0  0  0  0
  189.4440  174.0200  142.8490 N   0  0  0  0  0  0  0  0  0  0  0  0
  191.7770  173.3880  143.5410 S   0  0  0  0  0  0  0  0  0  0  0  0
  189.7930  177.3960  143.7910 C   0  0  0  0  0  3  0  0  0  0  0  0
  191.9000  176.1670  144.3350 C   0  0  0  0  0  0  0  0  0  0  0  0
  191.2880  174.9990  143.8390 C   0  0  0  0  0  0  0  0  0  0  0  0
  188.0820  175.7610  142.7180 C   0  0  0  0  0  0  0  0  0  0  0  0
  193.2530  176.1720  144.8150 N   0  0  0  0  0  0  0  0  0  0  0  0
  193.4970  176.0100  146.2410 C   0  0  0  0  0  1  0  0  0  0  0  0
  194.3730  176.2340  143.9180 C   0  0  0  0  0  0  0  0  0  0  0  0
  195.5030  176.1550  142.1070 N   0  0  0  0  0  0  0  0  0  0  0  0
  194.2760  176.0620  142.5860 N   0  0  0  0  0  0  0  0  0  0  0  0
  196.3100  176.3730  143.1600 C   0  0  0  0  0  0  0  0  0  0  0  0
  197.7840  176.5350  143.0460 C   0  0  0  0  0  1  0  0  0  0  0  0
  195.6430  176.4260  144.3290 N   0  0  0  0  0  2  0  0  0  0  0  0
  185.9990  177.2770  142.1320 C   0  0  0  0  0  0  0  0  0  0  0  0
  186.9490  176.5840  142.4010 C   0  0  0  0  0  0  0  0  0  0  0  0
  180.7620  179.2240  141.1710 C   0  0  1  0  0  3  0  0  0  0  0  0
  184.8430  178.1170  141.8030 C   0  0  2  0  0  3  0  0  0  0  0  0
  180.3720  179.5210  142.6270 C   0  0  0  0  0  2  0  0  0  0  0  0
  183.8960  178.2210  143.0150 C   0  0  2  0  0  3  0  0  0  0  0  0
  181.5990  179.1750  143.4150 C   0  0  0  0  0  3  0  0  0  0  0  0
  182.5380  178.7280  142.6000 C   0  0  0  0  0  0  0  0  0  0  0  0
  182.0900  178.6470  141.2620 N   0  0  0  0  0  0  0  0  0  0  0  0
  182.9950  178.4430  140.1380 C   0  0  0  0  0  2  0  0  0  0  0  0
  184.1470  177.5410  140.5670 C   0  0  0  0  0  2  0  0  0  0  0  0
  179.0970  178.9290  139.4450 O   0  0  0  0  0  1  0  0  0  0  0  0
  179.7870  178.2710  140.4660 C   0  0  2  0  0  3  0  0  0  0  0  0
  177.7640  176.8760  140.6550 N   0  0  0  0  0  1  0  0  0  0  0  0
  178.8200  177.5420  141.4020 C   0  0  0  0  0  2  0  0  0  0  0  0
  184.4920  179.1010  144.0360 C   0  0  0  0  0  0  0  0  0  0  0  0
  184.9610  179.7910  144.8360 N   0  0  0  0  0  0  0  0  0  0  0  0
  1 10  1  0  0  0  0
  2  5  2  0  0  0  0
  3 12  2  0  0  0  0
  3  7  1  0  0  0  0
  4 11  1  0  0  0  0
  5  7  1  0  0  0  0
  5  8  1  0  0  0  0
  6  4  2  0  0  0  0
  6  9  1  0  0  0  0
  7  4  1  0  0  0  0
  8 11  1  0  0  0  0
  9  1  2  0  0  0  0
 10 13  1  0  0  0  0
 11 10  2  0  0  0  0
 12  6  1  0  0  0  0
 13 14  1  0  0  0  0
 15 20  1  0  0  0  0
 15 13  1  0  0  0  0
 16 17  1  0  0  0  0
 16 18  2  0  0  0  0
 17 15  2  0  0  0  0
 18 20  1  0  0  0  0
 19 18  1  0  0  0  0
 21 22  3  0  0  0  0
 22 12  1  0  0  0  0
 23 33  1  1  0  0  0
 23 29  1  0  0  0  0
 23 25  1  0  0  0  0
 24 21  1  1  0  0  0
 24 26  1  0  0  0  0
 25 27  1  0  0  0  0
 26 36  1  1  0  0  0
 28 26  1  0  0  0  0
 28 27  2  0  0  0  0
 29 28  1  0  0  0  0
 30 31  1  0  0  0  0
 30 29  1  0  0  0  0
 31 24  1  0  0  0  0
 33 32  1  6  0  0  0
 33 35  1  0  0  0  0
 34 35  1  0  0  0  0
 36 37  3  0  0  0  0
M  END
>  <MODEL>
4

>  <REMARK>
 VINA RESULT:      -6.5      4.028      6.822
  Name = 
  6 active torsions:
  status: ('A' for Active; 'I' for Inactive)
    1  A    between atoms: C_3  and  C_21
    2  A    between atoms: N_4  and  C_31
    3  A    between atoms: C_5  and  C_13
    4  A    between atoms: C_7  and  C_11
    5  A    between atoms: C_21  and  C_24
    6  A    between atoms: C_34  and  C_35
                            x       y       z     vdW  Elec       q    Type
                         _______ _______ _______ _____ _____    ______ ____

>  <TORSDO>
F 6

$$$$
=
 OpenBabel11062418483D

 37 42  0  0  1  0  0  0  0  0999 V2000
  194.3330  175.1330  140.2830 C   0  0  0  0  0  3  0  0  0  0  0  0
  196.5730  174.4790  145.8000 O   0  0  0  0  0  0  0  0  0  0  0  0
  193.6930  175.0770  144.8190 C   0  0  0  0  0  3  0  0  0  0  0  0
  194.7800  175.0470  142.9580 C   0  0  0  0  0  0  0  0  0  0  0  0
  196.1860  174.6520  144.6140 C   0  0  0  0  0  0  0  0  0  0  0  0
  193.5210  175.2460  142.5560 C   0  0  0  0  0  0  0  0  0  0  0  0
  194.9150  174.9360  144.2610 N   0  0  0  0  0  0  0  0  0  0  0  0
  197.1610  174.5310  143.2040 S   0  0  0  0  0  0  0  0  0  0  0  0
  193.2370  175.2980  141.1860 C   0  0  0  0  0  3  0  0  0  0  0  0
  195.6700  174.9220  140.7560 C   0  0  0  0  0  0  0  0  0  0  0  0
  195.8570  174.8720  142.1520 C   0  0  0  0  0  0  0  0  0  0  0  0
  192.7910  175.2860  143.7450 C   0  0  0  0  0  0  0  0  0  0  0  0
  196.7530  174.7230  139.8350 N   0  0  0  0  0  0  0  0  0  0  0  0
  197.9280  175.5770  139.9320 C   0  0  0  0  0  1  0  0  0  0  0  0
  196.7510  173.6440  138.8870 C   0  0  0  0  0  0  0  0  0  0  0  0
  196.2050  171.8170  137.9250 N   0  0  0  0  0  0  0  0  0  0  0  0
  195.8820  172.6160  138.9250 N   0  0  0  0  0  0  0  0  0  0  0  0
  197.2650  172.3770  137.3140 C   0  0  0  0  0  0  0  0  0  0  0  0
  197.9410  171.7800  136.1320 C   0  0  0  0  0  1  0  0  0  0  0  0
  197.6510  173.5310  137.8890 N   0  0  0  0  0  2  0  0  0  0  0  0
  190.1750  175.5890  143.9600 C   0  0  0  0  0  0  0  0  0  0  0  0
  191.3700  175.4520  143.8630 C   0  0  0  0  0  0  0  0  0  0  0  0
  184.9220  177.7060  144.2160 C   0  0  1  0  0  3  0  0  0  0  0  0
  188.7230  175.7530  144.0790 C   0  0  2  0  0  3  0  0  0  0  0  0
  184.6570  177.8070  142.7060 C   0  0  0  0  0  2  0  0  0  0  0  0
  188.1460  176.3660  142.7870 C   0  0  2  0  0  3  0  0  0  0  0  0
  185.8970  177.2510  142.0750 C   0  0  0  0  0  3  0  0  0  0  0  0
  186.7580  176.9070  143.0180 C   0  0  0  0  0  0  0  0  0  0  0  0
  186.2870  177.2240  144.3130 N   0  0  0  0  0  0  0  0  0  0  0  0
  186.9130  176.7160  145.5260 C   0  0  0  0  0  2  0  0  0  0  0  0
  188.4200  176.6040  145.3150 C   0  0  0  0  0  2  0  0  0  0  0  0
  185.7860  179.9230  144.6350 O   0  0  0  0  0  1  0  0  0  0  0  0
  184.7490  179.0420  144.9520 C   0  0  2  0  0  3  0  0  0  0  0  0
  185.7280  179.4530  147.1760 N   0  0  0  0  0  1  0  0  0  0  0  0
  184.5760  178.9180  146.4670 C   0  0  0  0  0  2  0  0  0  0  0  0
  188.1400  175.3540  141.7180 C   0  0  0  0  0  0  0  0  0  0  0  0
  188.1380  174.5590  140.8770 N   0  0  0  0  0  0  0  0  0  0  0  0
  1 10  2  0  0  0  0
  1  9  1  0  0  0  0
  4  7  1  0  0  0  0
  5  2  2  0  0  0  0
  6  4  1  0  0  0  0
  6 12  1  0  0  0  0
  7  5  1  0  0  0  0
  7  3  1  0  0  0  0
  8  5  1  0  0  0  0
  9  6  2  0  0  0  0
 10 11  1  0  0  0  0
 11  4  2  0  0  0  0
 11  8  1  0  0  0  0
 12 22  1  0  0  0  0
 12  3  2  0  0  0  0
 13 14  1  0  0  0  0
 13 10  1  0  0  0  0
 15 17  2  0  0  0  0
 15 13  1  0  0  0  0
 16 17  1  0  0  0  0
 18 20  1  0  0  0  0
 18 16  2  0  0  0  0
 19 18  1  0  0  0  0
 20 15  1  0  0  0  0
 22 21  3  0  0  0  0
 23 29  1  0  0  0  0
 23 33  1  1  0  0  0
 24 21  1  6  0  0  0
 24 31  1  0  0  0  0
 25 23  1  0  0  0  0
 26 36  1  6  0  0  0
 26 28  1  0  0  0  0
 26 24  1  0  0  0  0
 27 25  1  0  0  0  0
 27 28  2  0  0  0  0
 28 29  1  0  0  0  0
 29 30  1  0  0  0  0
 31 30  1  0  0  0  0
 33 32  1  1  0  0  0
 33 35  1  0  0  0  0
 35 34  1  0  0  0  0
 37 36  3  0  0  0  0
M  END
>  <MODEL>
5

>  <REMARK>
 VINA RESULT:      -6.5      1.836      2.801
  Name = 
  6 active torsions:
  status: ('A' for Active; 'I' for Inactive)
    1  A    between atoms: C_3  and  C_21
    2  A    between atoms: N_4  and  C_31
    3  A    between atoms: C_5  and  C_13
    4  A    between atoms: C_7  and  C_11
    5  A    between atoms: C_21  and  C_24
    6  A    between atoms: C_34  and  C_35
                            x       y       z     vdW  Elec       q    Type
                         _______ _______ _______ _____ _____    ______ ____

>  <TORSDO>
F 6

$$$$
=
 OpenBabel11062418483D

 37 42  0  0  1  0  0  0  0  0999 V2000
  194.1630  173.2380  140.2630 C   0  0  0  0  0  3  0  0  0  0  0  0
  197.3620  177.1250  143.5100 O   0  0  0  0  0  0  0  0  0  0  0  0
  194.3700  176.3240  143.6430 C   0  0  0  0  0  3  0  0  0  0  0  0
  195.0470  175.1670  141.9550 C   0  0  0  0  0  0  0  0  0  0  0  0
  196.7460  176.3280  142.7540 C   0  0  0  0  0  0  0  0  0  0  0  0
  193.7680  174.7940  142.0700 C   0  0  0  0  0  0  0  0  0  0  0  0
  195.4320  176.0450  142.8550 N   0  0  0  0  0  0  0  0  0  0  0  0
  197.4350  175.4120  141.4740 S   0  0  0  0  0  0  0  0  0  0  0  0
  193.2630  173.8010  141.2210 C   0  0  0  0  0  3  0  0  0  0  0  0
  195.5280  173.6680  140.1740 C   0  0  0  0  0  0  0  0  0  0  0  0
  195.9500  174.6630  141.0780 C   0  0  0  0  0  0  0  0  0  0  0  0
  193.2960  175.5410  143.1500 C   0  0  0  0  0  0  0  0  0  0  0  0
  196.4270  173.0670  139.2290 N   0  0  0  0  0  0  0  0  0  0  0  0
  197.1740  171.8800  139.6210 C   0  0  0  0  0  1  0  0  0  0  0  0
  196.5360  173.5450  137.8790 C   0  0  0  0  0  0  0  0  0  0  0  0
  196.0720  174.5920  136.0750 N   0  0  0  0  0  0  0  0  0  0  0  0
  195.6720  174.4150  137.3210 N   0  0  0  0  0  0  0  0  0  0  0  0
  197.1620  173.8200  135.9100 C   0  0  0  0  0  0  0  0  0  0  0  0
  197.9180  173.7310  134.6330 C   0  0  0  0  0  1  0  0  0  0  0  0
  197.4920  173.1350  137.0200 N   0  0  0  0  0  2  0  0  0  0  0  0
  190.8620  175.4430  144.1740 C   0  0  0  0  0  0  0  0  0  0  0  0
  191.9730  175.4870  143.7050 C   0  0  0  0  0  0  0  0  0  0  0  0
  185.8580  176.7660  146.4870 C   0  0  1  0  0  3  0  0  0  0  0  0
  189.5120  175.3920  144.7430 C   0  0  2  0  0  3  0  0  0  0  0  0
  185.1360  177.2040  145.2030 C   0  0  0  0  0  2  0  0  0  0  0  0
  188.5390  176.2290  143.8890 C   0  0  2  0  0  3  0  0  0  0  0  0
  186.1450  176.9780  144.1180 C   0  0  0  0  0  3  0  0  0  0  0  0
  187.2680  176.5210  144.6450 C   0  0  0  0  0  0  0  0  0  0  0  0
  187.2060  176.4480  146.0550 N   0  0  0  0  0  0  0  0  0  0  0  0
  188.1970  175.7370  146.8520 C   0  0  0  0  0  2  0  0  0  0  0  0
  189.5680  175.8670  146.1970 C   0  0  0  0  0  2  0  0  0  0  0  0
  184.6290  178.4980  147.6370 O   0  0  0  0  0  1  0  0  0  0  0  0
  185.8630  177.8470  147.5770 C   0  0  2  0  0  3  0  0  0  0  0  0
  187.3310  179.4290  148.7690 N   0  0  0  0  0  1  0  0  0  0  0  0
  187.0110  178.8540  147.4710 C   0  0  0  0  0  2  0  0  0  0  0  0
  188.2470  175.5190  142.6310 C   0  0  0  0  0  0  0  0  0  0  0  0
  188.0170  174.9630  141.6430 N   0  0  0  0  0  0  0  0  0  0  0  0
  1  9  1  0  0  0  0
  4  6  1  0  0  0  0
  4  7  1  0  0  0  0
  5  7  1  0  0  0  0
  5  2  2  0  0  0  0
  6 12  1  0  0  0  0
  7  3  1  0  0  0  0
  8  5  1  0  0  0  0
  9  6  2  0  0  0  0
 10  1  2  0  0  0  0
 10 11  1  0  0  0  0
 11  8  1  0  0  0  0
 11  4  2  0  0  0  0
 12  3  2  0  0  0  0
 12 22  1  0  0  0  0
 13 14  1  0  0  0  0
 13 10  1  0  0  0  0
 15 13  1  0  0  0  0
 16 17  1  0  0  0  0
 17 15  2  0  0  0  0
 18 16  2  0  0  0  0
 18 20  1  0  0  0  0
 19 18  1  0  0  0  0
 20 15  1  0  0  0  0
 22 21  3  0  0  0  0
 23 33  1  1  0  0  0
 24 21  1  6  0  0  0
 24 31  1  0  0  0  0
 25 23  1  0  0  0  0
 26 36  1  6  0  0  0
 26 28  1  0  0  0  0
 26 24  1  0  0  0  0
 27 28  2  0  0  0  0
 27 25  1  0  0  0  0
 28 29  1  0  0  0  0
 29 23  1  0  0  0  0
 29 30  1  0  0  0  0
 31 30  1  0  0  0  0
 33 32  1  6  0  0  0
 35 33  1  0  0  0  0
 35 34  1  0  0  0  0
 37 36  3  0  0  0  0
M  END
>  <MODEL>
6

>  <REMARK>
 VINA RESULT:      -6.3      2.204      3.219
  Name = 
  6 active torsions:
  status: ('A' for Active; 'I' for Inactive)
    1  A    between atoms: C_3  and  C_21
    2  A    between atoms: N_4  and  C_31
    3  A    between atoms: C_5  and  C_13
    4  A    between atoms: C_7  and  C_11
    5  A    between atoms: C_21  and  C_24
    6  A    between atoms: C_34  and  C_35
                            x       y       z     vdW  Elec       q    Type
                         _______ _______ _______ _____ _____    ______ ____

>  <TORSDO>
F 6

$$$$
=
 OpenBabel11062418483D

 37 42  0  0  1  0  0  0  0  0999 V2000
  187.7150  177.6170  142.1100 C   0  0  0  0  0  3  0  0  0  0  0  0
  188.4280  175.3710  147.6170 O   0  0  0  0  0  0  0  0  0  0  0  0
  190.1610  175.1060  145.0600 C   0  0  0  0  0  3  0  0  0  0  0  0
  188.4980  176.2690  144.3300 C   0  0  0  0  0  0  0  0  0  0  0  0
  188.1840  175.8380  146.4730 C   0  0  0  0  0  0  0  0  0  0  0  0
  189.2910  176.1900  143.2570 C   0  0  0  0  0  0  0  0  0  0  0  0
  188.9740  175.6610  145.3940 N   0  0  0  0  0  0  0  0  0  0  0  0
  186.8380  176.8160  146.0450 S   0  0  0  0  0  0  0  0  0  0  0  0
  188.9320  176.8690  142.0860 C   0  0  0  0  0  3  0  0  0  0  0  0
  186.8930  177.6760  143.2840 C   0  0  0  0  0  0  0  0  0  0  0  0
  187.3410  176.9710  144.4190 C   0  0  0  0  0  0  0  0  0  0  0  0
  190.3740  175.4260  143.6950 C   0  0  0  0  0  0  0  0  0  0  0  0
  185.6910  178.4620  143.3010 N   0  0  0  0  0  0  0  0  0  0  0  0
  185.5670  179.5410  144.2700 C   0  0  0  0  0  1  0  0  0  0  0  0
  184.6530  178.2760  142.3270 C   0  0  0  0  0  0  0  0  0  0  0  0
  183.6560  177.6290  140.5510 N   0  0  0  0  0  0  0  0  0  0  0  0
  184.7990  177.5410  141.2070 N   0  0  0  0  0  0  0  0  0  0  0  0
  182.8520  178.4180  141.2850 C   0  0  0  0  0  0  0  0  0  0  0  0
  181.4640  178.7730  140.8880 C   0  0  0  0  0  1  0  0  0  0  0  0
  183.4390  178.8570  142.4150 N   0  0  0  0  0  2  0  0  0  0  0  0
  192.5020  174.7780  142.2700 C   0  0  0  0  0  0  0  0  0  0  0  0
  191.5310  175.0720  142.9210 C   0  0  0  0  0  0  0  0  0  0  0  0
  196.6850  174.6700  138.4440 C   0  0  1  0  0  3  0  0  0  0  0  0
  193.6860  174.4210  141.4800 C   0  0  2  0  0  3  0  0  0  0  0  0
  197.6310  175.6660  139.1320 C   0  0  0  0  0  2  0  0  0  0  0  0
  194.7370  175.5460  141.5530 C   0  0  2  0  0  3  0  0  0  0  0  0
  196.9250  176.0280  140.4030 C   0  0  0  0  0  3  0  0  0  0  0  0
  195.7650  175.3980  140.4610 C   0  0  0  0  0  0  0  0  0  0  0  0
  195.5110  174.6390  139.2960 N   0  0  0  0  0  0  0  0  0  0  0  0
  194.4430  173.6510  139.2160 C   0  0  0  0  0  2  0  0  0  0  0  0
  193.2510  174.1200  140.0440 C   0  0  0  0  0  2  0  0  0  0  0  0
  196.0140  173.9510  136.2370 O   0  0  0  0  0  1  0  0  0  0  0  0
  196.3210  175.0740  137.0090 C   0  0  2  0  0  3  0  0  0  0  0  0
  196.7390  176.8440  135.3440 N   0  0  0  0  0  1  0  0  0  0  0  0
  197.3620  175.9530  136.3100 C   0  0  0  0  0  2  0  0  0  0  0  0
  195.3780  175.5410  142.8780 C   0  0  0  0  0  0  0  0  0  0  0  0
  195.8810  175.5360  143.9200 N   0  0  0  0  0  0  0  0  0  0  0  0
  1 10  1  0  0  0  0
  3  7  1  0  0  0  0
  4 11  1  0  0  0  0
  4  7  1  0  0  0  0
  5  2  2  0  0  0  0
  6 12  1  0  0  0  0
  6  4  2  0  0  0  0
  7  5  1  0  0  0  0
  8  5  1  0  0  0  0
  9  1  2  0  0  0  0
  9  6  1  0  0  0  0
 10 13  1  0  0  0  0
 10 11  2  0  0  0  0
 11  8  1  0  0  0  0
 12  3  2  0  0  0  0
 13 14  1  0  0  0  0
 15 20  1  0  0  0  0
 15 13  1  0  0  0  0
 16 17  1  0  0  0  0
 16 18  2  0  0  0  0
 17 15  2  0  0  0  0
 18 20  1  0  0  0  0
 19 18  1  0  0  0  0
 21 22  3  0  0  0  0
 22 12  1  0  0  0  0
 23 33  1  6  0  0  0
 23 25  1  0  0  0  0
 23 29  1  0  0  0  0
 24 26  1  0  0  0  0
 24 21  1  1  0  0  0
 25 27  1  0  0  0  0
 26 36  1  1  0  0  0
 27 28  2  0  0  0  0
 28 26  1  0  0  0  0
 29 28  1  0  0  0  0
 30 29  1  0  0  0  0
 30 31  1  0  0  0  0
 31 24  1  0  0  0  0
 33 32  1  6  0  0  0
 34 35  1  0  0  0  0
 35 33  1  0  0  0  0
 36 37  3  0  0  0  0
M  END
>  <MODEL>
7

>  <REMARK>
 VINA RESULT:      -6.2      3.337     10.866
  Name = 
  6 active torsions:
  status: ('A' for Active; 'I' for Inactive)
    1  A    between atoms: C_3  and  C_21
    2  A    between atoms: N_4  and  C_31
    3  A    between atoms: C_5  and  C_13
    4  A    between atoms: C_7  and  C_11
    5  A    between atoms: C_21  and  C_24
    6  A    between atoms: C_34  and  C_35
                            x       y       z     vdW  Elec       q    Type
                         _______ _______ _______ _____ _____    ______ ____

>  <TORSDO>
F 6

$$$$
=
 OpenBabel11062418483D

 37 42  0  0  1  0  0  0  0  0999 V2000
  187.4060  178.1000  143.2600 C   0  0  0  0  0  3  0  0  0  0  0  0
  186.3170  175.9050  148.7260 O   0  0  0  0  0  0  0  0  0  0  0  0
  188.7960  175.6620  146.8820 C   0  0  0  0  0  3  0  0  0  0  0  0
  187.4440  176.7840  145.6320 C   0  0  0  0  0  0  0  0  0  0  0  0
  186.4530  176.3590  147.5590 C   0  0  0  0  0  0  0  0  0  0  0  0
  188.5460  176.7150  144.8790 C   0  0  0  0  0  0  0  0  0  0  0  0
  187.5560  176.1930  146.8010 N   0  0  0  0  0  0  0  0  0  0  0  0
  185.3030  177.3040  146.7010 S   0  0  0  0  0  0  0  0  0  0  0  0
  188.5780  177.3780  143.6460 C   0  0  0  0  0  3  0  0  0  0  0  0
  186.2440  178.1480  144.0990 C   0  0  0  0  0  0  0  0  0  0  0  0
  186.3090  177.4610  145.3270 C   0  0  0  0  0  0  0  0  0  0  0  0
  189.4400  175.9780  145.6580 C   0  0  0  0  0  0  0  0  0  0  0  0
  185.0880  178.9070  143.7110 N   0  0  0  0  0  0  0  0  0  0  0  0
  184.8160  180.1710  144.3800 C   0  0  0  0  0  1  0  0  0  0  0  0
  184.2500  178.5020  142.6170 C   0  0  0  0  0  0  0  0  0  0  0  0
  183.5920  177.4710  140.8650 N   0  0  0  0  0  0  0  0  0  0  0  0
  184.5840  177.5410  141.7340 N   0  0  0  0  0  0  0  0  0  0  0  0
  182.6890  178.3950  141.2400 C   0  0  0  0  0  0  0  0  0  0  0  0
  181.4160  178.6410  140.5130 C   0  0  0  0  0  1  0  0  0  0  0  0
  183.0620  179.0770  142.3390 N   0  0  0  0  0  2  0  0  0  0  0  0
  191.9290  175.3620  145.0210 C   0  0  0  0  0  0  0  0  0  0  0  0
  190.7920  175.6450  145.3110 C   0  0  0  0  0  0  0  0  0  0  0  0
  196.8880  174.7500  142.3440 C   0  0  1  0  0  3  0  0  0  0  0  0
  193.3090  175.0170  144.6660 C   0  0  2  0  0  3  0  0  0  0  0  0
  197.4760  176.1340  142.6600 C   0  0  0  0  0  2  0  0  0  0  0  0
  194.1280  176.2950  144.3980 C   0  0  2  0  0  3  0  0  0  0  0  0
  196.4340  176.7910  143.5130 C   0  0  0  0  0  3  0  0  0  0  0  0
  195.4030  175.9770  143.6600 C   0  0  0  0  0  0  0  0  0  0  0  0
  195.5600  174.7790  142.9260 N   0  0  0  0  0  0  0  0  0  0  0  0
  194.7060  173.6150  143.1240 C   0  0  0  0  0  2  0  0  0  0  0  0
  193.2900  174.0730  143.4620 C   0  0  0  0  0  2  0  0  0  0  0  0
  197.7050  173.4100  140.5070 O   0  0  0  0  0  1  0  0  0  0  0  0
  196.8310  174.4470  140.8400 C   0  0  2  0  0  3  0  0  0  0  0  0
  197.1300  175.2730  138.5370 N   0  0  0  0  0  1  0  0  0  0  0  0
  197.0510  175.6630  139.9360 C   0  0  0  0  0  2  0  0  0  0  0  0
  194.4180  176.9750  145.6720 C   0  0  0  0  0  0  0  0  0  0  0  0
  194.6450  177.5070  146.6740 N   0  0  0  0  0  0  0  0  0  0  0  0
  1  9  2  0  0  0  0
  1 10  1  0  0  0  0
  4  7  1  0  0  0  0
  5  2  2  0  0  0  0
  6  4  2  0  0  0  0
  6 12  1  0  0  0  0
  7  3  1  0  0  0  0
  7  5  1  0  0  0  0
  8  5  1  0  0  0  0
  9  6  1  0  0  0  0
 10 11  2  0  0  0  0
 11  4  1  0  0  0  0
 11  8  1  0  0  0  0
 12  3  2  0  0  0  0
 13 10  1  0  0  0  0
 13 14  1  0  0  0  0
 15 13  1  0  0  0  0
 16 18  2  0  0  0  0
 16 17  1  0  0  0  0
 17 15  2  0  0  0  0
 18 20  1  0  0  0  0
 19 18  1  0  0  0  0
 20 15  1  0  0  0  0
 21 22  3  0  0  0  0
 22 12  1  0  0  0  0
 23 33  1  6  0  0  0
 23 25  1  0  0  0  0
 23 29  1  0  0  0  0
 24 21  1  6  0  0  0
 25 27  1  0  0  0  0
 26 24  1  0  0  0  0
 26 36  1  1  0  0  0
 27 28  2  0  0  0  0
 28 26  1  0  0  0  0
 29 30  1  0  0  0  0
 29 28  1  0  0  0  0
 30 31  1  0  0  0  0
 31 24  1  0  0  0  0
 33 32  1  6  0  0  0
 34 35  1  0  0  0  0
 35 33  1  0  0  0  0
 36 37  3  0  0  0  0
M  END
>  <MODEL>
8

>  <REMARK>
 VINA RESULT:      -6.2      3.314     10.857
  Name = 
  6 active torsions:
  status: ('A' for Active; 'I' for Inactive)
    1  A    between atoms: C_3  and  C_21
    2  A    between atoms: N_4  and  C_31
    3  A    between atoms: C_5  and  C_13
    4  A    between atoms: C_7  and  C_11
    5  A    between atoms: C_21  and  C_24
    6  A    between atoms: C_34  and  C_35
                            x       y       z     vdW  Elec       q    Type
                         _______ _______ _______ _____ _____    ______ ____

>  <TORSDO>
F 6

$$$$
=
 OpenBabel11062418483D

 37 42  0  0  1  0  0  0  0  0999 V2000
  191.4200  171.4220  144.2630 C   0  0  0  0  0  3  0  0  0  0  0  0
  193.2220  171.6350  138.5540 O   0  0  0  0  0  0  0  0  0  0  0  0
  191.1400  173.3280  140.1060 C   0  0  0  0  0  3  0  0  0  0  0  0
  191.7510  171.9150  141.6160 C   0  0  0  0  0  0  0  0  0  0  0  0
  192.8600  171.4960  139.7530 C   0  0  0  0  0  0  0  0  0  0  0  0
  190.8930  172.6960  142.2790 C   0  0  0  0  0  0  0  0  0  0  0  0
  191.9250  172.2570  140.3580 N   0  0  0  0  0  0  0  0  0  0  0  0
  193.4870  170.3560  140.8740 S   0  0  0  0  0  0  0  0  0  0  0  0
  190.6870  172.4830  143.6470 C   0  0  0  0  0  3  0  0  0  0  0  0
  192.3310  170.6070  143.5140 C   0  0  0  0  0  0  0  0  0  0  0  0
  192.4830  170.9030  142.1450 C   0  0  0  0  0  0  0  0  0  0  0  0
  190.4660  173.6160  141.3200 C   0  0  0  0  0  0  0  0  0  0  0  0
  193.0860  169.5670  144.1560 N   0  0  0  0  0  0  0  0  0  0  0  0
  192.7590  168.1780  143.8710 C   0  0  0  0  0  1  0  0  0  0  0  0
  194.2150  169.8600  144.9930 C   0  0  0  0  0  0  0  0  0  0  0  0
  195.8120  170.9490  145.9050 N   0  0  0  0  0  0  0  0  0  0  0  0
  194.7980  171.0720  145.0670 N   0  0  0  0  0  0  0  0  0  0  0  0
  195.8200  169.6660  146.3100 C   0  0  0  0  0  0  0  0  0  0  0  0
  196.8170  169.1130  147.2640 C   0  0  0  0  0  1  0  0  0  0  0  0
  194.8330  168.9360  145.7570 N   0  0  0  0  0  2  0  0  0  0  0  0
  188.7800  175.6130  141.7100 C   0  0  0  0  0  0  0  0  0  0  0  0
  189.5500  174.7010  141.5330 C   0  0  0  0  0  0  0  0  0  0  0  0
  184.1380  178.7400  142.6100 C   0  0  1  0  0  3  0  0  0  0  0  0
  187.8420  176.7200  141.9240 C   0  0  2  0  0  3  0  0  0  0  0  0
  184.0660  178.5840  144.1370 C   0  0  0  0  0  2  0  0  0  0  0  0
  187.1530  176.5800  143.2950 C   0  0  2  0  0  3  0  0  0  0  0  0
  185.2680  177.7590  144.4800 C   0  0  0  0  0  3  0  0  0  0  0  0
  185.9240  177.4490  143.3750 C   0  0  0  0  0  0  0  0  0  0  0  0
  185.2700  177.9230  142.2150 N   0  0  0  0  0  0  0  0  0  0  0  0
  185.9070  177.9500  140.9060 C   0  0  0  0  0  2  0  0  0  0  0  0
  186.8400  176.7510  140.7670 C   0  0  0  0  0  2  0  0  0  0  0  0
  182.9870  178.4140  140.5110 O   0  0  0  0  0  1  0  0  0  0  0  0
  182.8530  178.2950  141.8960 C   0  0  2  0  0  3  0  0  0  0  0  0
  180.5620  179.0200  141.3480 N   0  0  0  0  0  1  0  0  0  0  0  0
  181.5790  178.9850  142.3880 C   0  0  0  0  0  2  0  0  0  0  0  0
  188.1050  176.9210  144.3660 C   0  0  0  0  0  0  0  0  0  0  0  0
  188.8520  177.1870  145.2080 N   0  0  0  0  0  0  0  0  0  0  0  0
  2  5  2  0  0  0  0
  3  7  1  0  0  0  0
  3 12  2  0  0  0  0
  4 11  2  0  0  0  0
  4  6  1  0  0  0  0
  5  7  1  0  0  0  0
  5  8  1  0  0  0  0
  6  9  2  0  0  0  0
  7  4  1  0  0  0  0
  8 11  1  0  0  0  0
  9  1  1  0  0  0  0
 10 13  1  0  0  0  0
 10  1  2  0  0  0  0
 11 10  1  0  0  0  0
 12 22  1  0  0  0  0
 12  6  1  0  0  0  0
 13 15  1  0  0  0  0
 14 13  1  0  0  0  0
 15 17  2  0  0  0  0
 15 20  1  0  0  0  0
 16 18  2  0  0  0  0
 17 16  1  0  0  0  0
 18 19  1  0  0  0  0
 20 18  1  0  0  0  0
 22 21  3  0  0  0  0
 23 33  1  6  0  0  0
 23 25  1  0  0  0  0
 24 21  1  6  0  0  0
 24 26  1  0  0  0  0
 25 27  1  0  0  0  0
 26 28  1  0  0  0  0
 26 36  1  1  0  0  0
 28 27  2  0  0  0  0
 29 23  1  0  0  0  0
 29 28  1  0  0  0  0
 30 29  1  0  0  0  0
 31 30  1  0  0  0  0
 31 24  1  0  0  0  0
 33 32  1  6  0  0  0
 33 35  1  0  0  0  0
 34 35  1  0  0  0  0
 36 37  3  0  0  0  0
M  END
>  <MODEL>
9

>  <REMARK>
 VINA RESULT:      -6.1      4.424      5.882
  Name = 
  6 active torsions:
  status: ('A' for Active; 'I' for Inactive)
    1  A    between atoms: C_3  and  C_21
    2  A    between atoms: N_4  and  C_31
    3  A    between atoms: C_5  and  C_13
    4  A    between atoms: C_7  and  C_11
    5  A    between atoms: C_21  and  C_24
    6  A    between atoms: C_34  and  C_35
                            x       y       z     vdW  Elec       q    Type
                         _______ _______ _______ _____ _____    ______ ____

>  <TORSDO>
F 6

$$$$
