=
 OpenBabel11062419243D

 38 42  0  0  1  0  0  0  0  0999 V2000
  193.1040  176.5330  146.1370 C   0  0  0  0  0  2  0  0  0  0  0  0
  191.6640  176.0240  145.9300 C   0  0  2  0  0  3  0  0  0  0  0  0
  192.2620  174.2660  144.0860 C   0  0  1  0  0  3  0  0  0  0  0  0
  194.3700  174.8200  144.7080 C   0  0  2  0  0  3  0  0  0  0  0  0
  193.3220  175.1520  143.8280 O   0  0  0  0  0  0  0  0  0  0  0  0
  191.5730  174.5560  145.4490 C   0  0  2  0  0  3  0  0  0  0  0  0
  191.2540  174.3350  142.9390 C   0  0  0  0  0  2  0  0  0  0  0  0
  194.1830  175.4450  146.1040 C   0  0  0  0  0  2  0  0  0  0  0  0
  190.1530  173.9880  145.5750 C   0  0  0  0  0  2  0  0  0  0  0  0
  190.0650  173.3810  143.1240 C   0  0  1  0  0  3  0  0  0  0  0  0
  189.9060  172.8710  144.5660 C   0  0  0  0  0  2  0  0  0  0  0  0
  197.3330  176.4700  143.3470 O   0  0  0  0  0  0  0  0  0  0  0  0
  196.0430  176.4840  143.8710 C   0  0  0  0  0  3  0  0  0  0  0  0
  196.6100  172.9000  143.6760 C   0  0  0  0  0  1  0  0  0  0  0  0
  196.7330  174.3420  143.8040 N   0  0  0  0  0  0  0  0  0  0  0  0
  195.6830  175.2390  144.1230 C   0  0  0  0  0  0  0  0  0  0  0  0
  197.8160  175.1350  143.2510 C   0  0  0  0  0  2  0  0  0  0  0  0
  190.9340  176.9890  144.9980 C   0  0  0  0  0  2  0  0  0  0  0  0
  189.5150  177.2600  145.4730 C   0  0  0  0  0  2  0  0  0  0  0  0
  189.4530  177.3300  146.9910 C   0  0  0  0  0  2  0  0  0  0  0  0
  188.2190  177.9750  147.4160 N   0  0  0  0  0  2  0  0  0  0  0  0
  186.0440  177.3320  147.7690 O   0  0  0  0  0  0  0  0  0  0  0  0
  187.1160  177.1490  146.9560 C   0  0  1  0  0  3  0  0  0  0  0  0
  186.0180  177.9920  146.5510 N   0  0  0  0  0  0  0  0  0  0  0  0
  185.1840  177.1980  145.6660 C   0  0  0  0  0  2  0  0  0  0  0  0
  185.0600  177.6120  143.1260 C   0  0  2  0  0  3  0  0  0  0  0  0
  185.5800  179.6350  144.4550 S   0  0  0  0  0  0  0  0  0  0  0  0
  185.8740  178.8540  142.8390 C   0  0  0  0  0  2  0  0  0  0  0  0
  184.6580  178.0700  144.5290 C   0  0  2  0  0  3  0  0  0  0  0  0
  185.9390  176.4500  143.1370 N   0  0  0  0  0  1  0  0  0  0  0  0
  188.8000  174.0870  142.6650 C   0  0  0  0  0  2  0  0  0  0  0  0
  188.0150  173.2170  141.7000 C   0  0  0  0  0  2  0  0  0  0  0  0
  188.8870  172.6660  140.7620 O   0  0  0  0  0  0  0  0  0  0  0  0
  188.0600  172.8960  138.7030 O   0  0  0  0  0  0  0  0  0  0  0  0
  190.7930  171.6710  138.9500 O   0  0  0  0  0  0  0  0  0  0  0  0
  189.7490  172.8190  138.2740 P   0  0  0  0  0  0  0  0  0  0  0  0
  188.7940  173.5030  139.6500 C   0  0  0  0  0  2  0  0  0  0  0  0
  190.3790  173.9990  137.5720 O   0  0  0  0  0  0  0  0  0  0  0  0
  2 18  1  6  0  0  0
  2  1  1  0  0  0  0
  3  7  1  6  0  0  0
  3  6  1  0  0  0  0
  4 16  1  6  0  0  0
  4  8  1  0  0  0  0
  5  3  1  0  0  0  0
  5  4  1  0  0  0  0
  6  9  1  6  0  0  0
  6  2  1  0  0  0  0
  7 10  1  0  0  0  0
  8  1  1  0  0  0  0
 10 31  1  1  0  0  0
 10 11  1  0  0  0  0
 11  9  1  0  0  0  0
 12 13  1  0  0  0  0
 13 16  2  0  0  0  0
 14 15  1  0  0  0  0
 15 16  1  0  0  0  0
 17 12  1  0  0  0  0
 17 15  1  0  0  0  0
 18 19  1  0  0  0  0
 19 20  1  0  0  0  0
 20 21  1  0  0  0  0
 23 21  1  1  0  0  0
 23 22  1  0  0  0  0
 24 23  1  0  0  0  0
 24 22  1  0  0  0  0
 25 24  1  0  0  0  0
 26 30  1  1  0  0  0
 26 29  1  0  0  0  0
 27 29  1  0  0  0  0
 28 26  1  0  0  0  0
 28 27  1  0  0  0  0
 29 25  1  1  0  0  0
 32 31  1  0  0  0  0
 33 32  1  0  0  0  0
 34 37  1  0  0  0  0
 36 34  1  0  0  0  0
 36 35  2  0  0  0  0
 37 33  1  0  0  0  0
 38 36  2  0  0  0  0
M  END
>  <MODEL>
1

>  <REMARK>
 VINA RESULT:      -7.0      0.000      0.000
  Name = 
  12 active torsions:
  status: ('A' for Active; 'I' for Inactive)
    1  A    between atoms: O_1  and  C_16
    2  A    between atoms: O_1  and  C_34
    3  A    between atoms: C_3  and  C_8
    4  A    between atoms: C_8  and  C_12
    5  A    between atoms: C_10  and  C_30
    6  A    between atoms: C_12  and  C_17
    7  A    between atoms: C_16  and  C_27
    8  A    between atoms: C_17  and  N_24
    9  A    between atoms: C_20  and  N_24
   10  A    between atoms: N_23  and  C_37
   11  A    between atoms: C_27  and  C_29
   12  A    between atoms: C_35  and  C_37
                            x       y       z     vdW  Elec       q    Type
                         _______ _______ _______ _____ _____    ______ ____

>  <TORSDO>
F 12

$$$$
=
 OpenBabel11062419243D

 38 42  0  0  1  0  0  0  0  0999 V2000
  194.5280  176.3550  144.4040 C   0  0  0  0  0  2  0  0  0  0  0  0
  193.1770  176.8190  144.9820 C   0  0  2  0  0  3  0  0  0  0  0  0
  192.4350  174.4670  145.8590 C   0  0  1  0  0  3  0  0  0  0  0  0
  194.5720  173.9540  145.3050 C   0  0  2  0  0  3  0  0  0  0  0  0
  193.2540  174.0100  144.8130 O   0  0  0  0  0  0  0  0  0  0  0  0
  192.6710  175.9710  146.1740 C   0  0  2  0  0  3  0  0  0  0  0  0
  190.9710  174.2070  145.5060 C   0  0  0  0  0  2  0  0  0  0  0  0
  195.2750  175.3250  145.2600 C   0  0  0  0  0  2  0  0  0  0  0  0
  191.5170  176.6500  146.9240 C   0  0  0  0  0  2  0  0  0  0  0  0
  189.9980  174.6570  146.6060 C   0  0  1  0  0  3  0  0  0  0  0  0
  190.6240  175.6280  147.6200 C   0  0  0  0  0  2  0  0  0  0  0  0
  196.6940  172.0060  143.0570 O   0  0  0  0  0  0  0  0  0  0  0  0
  196.1050  173.1940  143.4770 C   0  0  0  0  0  3  0  0  0  0  0  0
  194.5710  170.8690  145.8090 C   0  0  0  0  0  1  0  0  0  0  0  0
  195.4520  171.5700  144.8910 N   0  0  0  0  0  0  0  0  0  0  0  0
  195.3640  172.9400  144.5400 C   0  0  0  0  0  0  0  0  0  0  0  0
  196.2940  170.9280  143.8980 C   0  0  0  0  0  2  0  0  0  0  0  0
  192.1590  176.8920  143.8460 C   0  0  0  0  0  2  0  0  0  0  0  0
  191.4200  178.2210  143.8410 C   0  0  0  0  0  2  0  0  0  0  0  0
  189.9150  178.0070  143.7670 C   0  0  0  0  0  2  0  0  0  0  0  0
  189.5390  177.5130  142.4510 N   0  0  0  0  0  2  0  0  0  0  0  0
  187.6930  176.4220  141.6310 O   0  0  0  0  0  0  0  0  0  0  0  0
  188.5930  176.4280  142.6480 C   0  0  1  0  0  3  0  0  0  0  0  0
  188.7090  175.4830  141.5650 N   0  0  0  0  0  0  0  0  0  0  0  0
  188.1490  174.2300  142.0390 C   0  0  0  0  0  2  0  0  0  0  0  0
  189.5340  172.2440  141.1560 C   0  0  2  0  0  3  0  0  0  0  0  0
  188.9000  173.8870  139.4150 S   0  0  0  0  0  0  0  0  0  0  0  0
  190.1990  172.7020  139.8770 C   0  0  0  0  0  2  0  0  0  0  0  0
  188.3160  173.1510  140.9720 C   0  0  2  0  0  3  0  0  0  0  0  0
  190.3600  172.6250  142.2940 N   0  0  0  0  0  1  0  0  0  0  0  0
  188.7810  175.2850  145.9470 C   0  0  0  0  0  2  0  0  0  0  0  0
  187.9240  176.0060  146.9730 C   0  0  0  0  0  2  0  0  0  0  0  0
  187.7300  177.3260  146.5670 O   0  0  0  0  0  0  0  0  0  0  0  0
  186.6030  178.3090  144.9110 O   0  0  0  0  0  0  0  0  0  0  0  0
  186.0610  179.2820  147.7020 O   0  0  0  0  0  0  0  0  0  0  0  0
  185.5090  178.7020  146.2120 P   0  0  0  0  0  0  0  0  0  0  0  0
  186.5690  177.2970  145.7940 C   0  0  0  0  0  2  0  0  0  0  0  0
  184.0880  178.1900  146.1520 O   0  0  0  0  0  0  0  0  0  0  0  0
  1  2  1  0  0  0  0
  1  8  1  0  0  0  0
  2 18  1  6  0  0  0
  2  6  1  0  0  0  0
  3  7  1  6  0  0  0
  3  6  1  0  0  0  0
  4 16  1  6  0  0  0
  5  4  1  0  0  0  0
  5  3  1  0  0  0  0
  6  9  1  6  0  0  0
  7 10  1  0  0  0  0
  8  4  1  0  0  0  0
  9 11  1  0  0  0  0
 10 31  1  6  0  0  0
 10 11  1  0  0  0  0
 12 13  1  0  0  0  0
 12 17  1  0  0  0  0
 13 16  2  0  0  0  0
 15 14  1  0  0  0  0
 16 15  1  0  0  0  0
 17 15  1  0  0  0  0
 19 18  1  0  0  0  0
 20 19  1  0  0  0  0
 21 20  1  0  0  0  0
 22 23  1  0  0  0  0
 23 21  1  6  0  0  0
 24 22  1  0  0  0  0
 24 25  1  0  0  0  0
 24 23  1  0  0  0  0
 26 30  1  1  0  0  0
 27 28  1  0  0  0  0
 27 29  1  0  0  0  0
 28 26  1  0  0  0  0
 29 26  1  0  0  0  0
 29 25  1  1  0  0  0
 31 32  1  0  0  0  0
 33 32  1  0  0  0  0
 34 37  1  0  0  0  0
 34 36  1  0  0  0  0
 36 35  2  0  0  0  0
 37 33  1  0  0  0  0
 38 36  2  0  0  0  0
M  END
>  <MODEL>
2

>  <REMARK>
 VINA RESULT:      -6.8      3.541      5.706
  Name = 
  12 active torsions:
  status: ('A' for Active; 'I' for Inactive)
    1  A    between atoms: O_1  and  C_16
    2  A    between atoms: O_1  and  C_34
    3  A    between atoms: C_3  and  C_8
    4  A    between atoms: C_8  and  C_12
    5  A    between atoms: C_10  and  C_30
    6  A    between atoms: C_12  and  C_17
    7  A    between atoms: C_16  and  C_27
    8  A    between atoms: C_17  and  N_24
    9  A    between atoms: C_20  and  N_24
   10  A    between atoms: N_23  and  C_37
   11  A    between atoms: C_27  and  C_29
   12  A    between atoms: C_35  and  C_37
                            x       y       z     vdW  Elec       q    Type
                         _______ _______ _______ _____ _____    ______ ____

>  <TORSDO>
F 12

$$$$
=
 OpenBabel11062419243D

 38 42  0  0  1  0  0  0  0  0999 V2000
  192.0410  176.2920  146.1250 C   0  0  0  0  0  2  0  0  0  0  0  0
  190.7390  175.5210  145.8310 C   0  0  2  0  0  3  0  0  0  0  0  0
  191.7520  173.9780  143.9760 C   0  0  1  0  0  3  0  0  0  0  0  0
  193.6810  174.9080  144.7200 C   0  0  2  0  0  3  0  0  0  0  0  0
  192.6290  175.0610  143.7960 O   0  0  0  0  0  0  0  0  0  0  0  0
  190.9580  174.0810  145.3090 C   0  0  2  0  0  3  0  0  0  0  0  0
  190.8030  173.8920  142.7810 C   0  0  0  0  0  2  0  0  0  0  0  0
  193.3120  175.4350  146.1210 C   0  0  0  0  0  2  0  0  0  0  0  0
  189.6720  173.2450  145.3470 C   0  0  0  0  0  2  0  0  0  0  0  0
  189.8160  172.7190  142.8800 C   0  0  1  0  0  3  0  0  0  0  0  0
  189.6940  172.1380  144.2980 C   0  0  0  0  0  2  0  0  0  0  0  0
  196.4820  177.0970  143.8740 O   0  0  0  0  0  0  0  0  0  0  0  0
  195.2820  176.8220  144.5240 C   0  0  0  0  0  3  0  0  0  0  0  0
  195.6710  173.7670  142.5980 C   0  0  0  0  0  1  0  0  0  0  0  0
  195.8690  174.9850  143.3650 N   0  0  0  0  0  0  0  0  0  0  0  0
  194.9120  175.5930  144.2150 C   0  0  0  0  0  0  0  0  0  0  0  0
  196.8930  175.9780  143.0960 C   0  0  0  0  0  2  0  0  0  0  0  0
  189.8790  176.3590  144.8880 C   0  0  0  0  0  2  0  0  0  0  0  0
  190.4960  177.7250  144.6310 C   0  0  0  0  0  2  0  0  0  0  0  0
  190.5770  178.0150  143.1400 C   0  0  0  0  0  2  0  0  0  0  0  0
  189.5800  177.2380  142.4200 N   0  0  0  0  0  2  0  0  0  0  0  0
  187.8410  177.6640  140.9820 O   0  0  0  0  0  0  0  0  0  0  0  0
  188.4930  178.1400  142.0740 C   0  0  1  0  0  3  0  0  0  0  0  0
  187.2330  177.4520  142.2090 N   0  0  0  0  0  0  0  0  0  0  0  0
  186.2100  178.4730  142.3480 C   0  0  0  0  0  2  0  0  0  0  0  0
  184.6070  179.0130  144.2930 C   0  0  2  0  0  3  0  0  0  0  0  0
  185.7980  176.8550  144.5340 S   0  0  0  0  0  0  0  0  0  0  0  0
  185.0860  178.2260  145.4930 C   0  0  0  0  0  2  0  0  0  0  0  0
  185.1080  177.9790  143.2820 C   0  0  2  0  0  3  0  0  0  0  0  0
  185.3310  180.2750  144.2220 N   0  0  0  0  0  1  0  0  0  0  0  0
  188.4600  173.1830  142.3750 C   0  0  0  0  0  2  0  0  0  0  0  0
  188.6060  173.9760  141.0880 C   0  0  0  0  0  2  0  0  0  0  0  0
  188.8300  173.0980  140.0280 O   0  0  0  0  0  0  0  0  0  0  0  0
  188.1520  173.3020  137.9120 O   0  0  0  0  0  0  0  0  0  0  0  0
  190.8090  171.9770  138.3760 O   0  0  0  0  0  0  0  0  0  0  0  0
  189.8610  173.1460  137.6010 P   0  0  0  0  0  0  0  0  0  0  0  0
  188.8450  173.9060  138.8900 C   0  0  0  0  0  2  0  0  0  0  0  0
  190.5850  174.2780  136.9120 O   0  0  0  0  0  0  0  0  0  0  0  0
  2 18  1  6  0  0  0
  2  1  1  0  0  0  0
  3  7  1  6  0  0  0
  3  6  1  0  0  0  0
  4 16  1  6  0  0  0
  4  8  1  0  0  0  0
  5  3  1  0  0  0  0
  5  4  1  0  0  0  0
  6  9  1  6  0  0  0
  6  2  1  0  0  0  0
  7 10  1  0  0  0  0
  8  1  1  0  0  0  0
 10 31  1  1  0  0  0
 10 11  1  0  0  0  0
 11  9  1  0  0  0  0
 12 13  1  0  0  0  0
 14 15  1  0  0  0  0
 15 16  1  0  0  0  0
 16 13  2  0  0  0  0
 17 15  1  0  0  0  0
 17 12  1  0  0  0  0
 19 18  1  0  0  0  0
 20 19  1  0  0  0  0
 21 20  1  0  0  0  0
 22 23  1  0  0  0  0
 22 24  1  0  0  0  0
 23 24  1  0  0  0  0
 23 21  1  1  0  0  0
 24 25  1  0  0  0  0
 26 30  1  6  0  0  0
 26 28  1  0  0  0  0
 27 28  1  0  0  0  0
 29 25  1  6  0  0  0
 29 26  1  0  0  0  0
 29 27  1  0  0  0  0
 32 31  1  0  0  0  0
 33 32  1  0  0  0  0
 34 37  1  0  0  0  0
 36 34  1  0  0  0  0
 36 35  2  0  0  0  0
 37 33  1  0  0  0  0
 38 36  2  0  0  0  0
M  END
>  <MODEL>
3

>  <REMARK>
 VINA RESULT:      -6.8      1.881      2.393
  Name = 
  12 active torsions:
  status: ('A' for Active; 'I' for Inactive)
    1  A    between atoms: O_1  and  C_16
    2  A    between atoms: O_1  and  C_34
    3  A    between atoms: C_3  and  C_8
    4  A    between atoms: C_8  and  C_12
    5  A    between atoms: C_10  and  C_30
    6  A    between atoms: C_12  and  C_17
    7  A    between atoms: C_16  and  C_27
    8  A    between atoms: C_17  and  N_24
    9  A    between atoms: C_20  and  N_24
   10  A    between atoms: N_23  and  C_37
   11  A    between atoms: C_27  and  C_29
   12  A    between atoms: C_35  and  C_37
                            x       y       z     vdW  Elec       q    Type
                         _______ _______ _______ _____ _____    ______ ____

>  <TORSDO>
F 12

$$$$
=
 OpenBabel11062419243D

 38 42  0  0  1  0  0  0  0  0999 V2000
  190.2720  174.5360  144.5680 C   0  0  0  0  0  2  0  0  0  0  0  0
  188.9520  175.3260  144.6410 C   0  0  2  0  0  3  0  0  0  0  0  0
  189.0740  176.2810  142.2070 C   0  0  1  0  0  3  0  0  0  0  0  0
  190.7990  174.8170  142.0730 C   0  0  2  0  0  3  0  0  0  0  0  0
  190.4580  176.1420  142.4060 O   0  0  0  0  0  0  0  0  0  0  0  0
  188.2470  175.5130  143.2750 C   0  0  2  0  0  3  0  0  0  0  0  0
  188.7110  177.7660  142.2000 C   0  0  0  0  0  2  0  0  0  0  0  0
  190.5300  173.8340  143.2290 C   0  0  0  0  0  2  0  0  0  0  0  0
  186.8000  176.0000  143.4280 C   0  0  0  0  0  2  0  0  0  0  0  0
  187.2140  178.0180  141.9670 C   0  0  1  0  0  3  0  0  0  0  0  0
  186.3390  176.7760  142.1990 C   0  0  0  0  0  2  0  0  0  0  0  0
  194.3930  175.1410  141.4990 O   0  0  0  0  0  0  0  0  0  0  0  0
  193.2020  175.5170  142.1140 C   0  0  0  0  0  3  0  0  0  0  0  0
  191.9590  172.9900  139.8190 C   0  0  0  0  0  1  0  0  0  0  0  0
  192.7470  173.8000  140.7320 N   0  0  0  0  0  0  0  0  0  0  0  0
  192.2340  174.7460  141.6540 C   0  0  0  0  0  0  0  0  0  0  0  0
  194.1650  174.0730  140.5860 C   0  0  0  0  0  2  0  0  0  0  0  0
  189.2170  176.6550  145.3450 C   0  0  0  0  0  2  0  0  0  0  0  0
  190.6970  176.8470  145.6390 C   0  0  0  0  0  2  0  0  0  0  0  0
  190.9780  176.7210  147.1290 C   0  0  0  0  0  2  0  0  0  0  0  0
  192.2100  175.9790  147.3490 N   0  0  0  0  0  2  0  0  0  0  0  0
  194.1630  177.0780  146.8520 O   0  0  0  0  0  0  0  0  0  0  0  0
  193.1440  176.3680  146.3050 C   0  0  1  0  0  3  0  0  0  0  0  0
  194.4250  175.7520  146.5490 N   0  0  0  0  0  0  0  0  0  0  0  0
  195.1360  175.7470  145.2830 C   0  0  0  0  0  2  0  0  0  0  0  0
  197.2560  174.7250  144.2330 C   0  0  2  0  0  3  0  0  0  0  0  0
  195.3620  173.1430  144.4280 S   0  0  0  0  0  0  0  0  0  0  0  0
  196.8130  173.5390  143.4060 C   0  0  0  0  0  2  0  0  0  0  0  0
  196.1190  174.5800  145.2450 C   0  0  2  0  0  3  0  0  0  0  0  0
  197.1520  175.9380  143.4320 N   0  0  0  0  0  1  0  0  0  0  0  0
  186.7690  179.1600  142.8660 C   0  0  0  0  0  2  0  0  0  0  0  0
  185.2620  179.1470  143.0490 C   0  0  0  0  0  2  0  0  0  0  0  0
  184.9530  179.5290  144.3540 O   0  0  0  0  0  0  0  0  0  0  0  0
  183.5710  178.8490  145.9690 O   0  0  0  0  0  0  0  0  0  0  0  0
  186.5180  178.6810  146.5310 O   0  0  0  0  0  0  0  0  0  0  0  0
  184.9850  177.9650  146.4780 P   0  0  0  0  0  0  0  0  0  0  0  0
  184.2600  178.4420  144.8910 C   0  0  0  0  0  2  0  0  0  0  0  0
  184.9240  176.4570  146.5330 O   0  0  0  0  0  0  0  0  0  0  0  0
  1  2  1  0  0  0  0
  2 18  1  6  0  0  0
  3  7  1  1  0  0  0
  3  5  1  0  0  0  0
  3  6  1  0  0  0  0
  4 16  1  1  0  0  0
  4  5  1  0  0  0  0
  4  8  1  0  0  0  0
  6  9  1  1  0  0  0
  6  2  1  0  0  0  0
  8  1  1  0  0  0  0
 10 11  1  0  0  0  0
 10  7  1  0  0  0  0
 10 31  1  1  0  0  0
 11  9  1  0  0  0  0
 12 13  1  0  0  0  0
 14 15  1  0  0  0  0
 15 16  1  0  0  0  0
 16 13  2  0  0  0  0
 17 15  1  0  0  0  0
 17 12  1  0  0  0  0
 18 19  1  0  0  0  0
 19 20  1  0  0  0  0
 20 21  1  0  0  0  0
 23 24  1  0  0  0  0
 23 22  1  0  0  0  0
 23 21  1  1  0  0  0
 24 22  1  0  0  0  0
 25 24  1  0  0  0  0
 26 30  1  6  0  0  0
 26 29  1  0  0  0  0
 27 29  1  0  0  0  0
 28 26  1  0  0  0  0
 28 27  1  0  0  0  0
 29 25  1  6  0  0  0
 31 32  1  0  0  0  0
 32 33  1  0  0  0  0
 33 37  1  0  0  0  0
 34 36  1  0  0  0  0
 36 35  2  0  0  0  0
 36 38  2  0  0  0  0
 37 34  1  0  0  0  0
M  END
>  <MODEL>
4

>  <REMARK>
 VINA RESULT:      -6.7      3.875      7.356
  Name = 
  12 active torsions:
  status: ('A' for Active; 'I' for Inactive)
    1  A    between atoms: O_1  and  C_16
    2  A    between atoms: O_1  and  C_34
    3  A    between atoms: C_3  and  C_8
    4  A    between atoms: C_8  and  C_12
    5  A    between atoms: C_10  and  C_30
    6  A    between atoms: C_12  and  C_17
    7  A    between atoms: C_16  and  C_27
    8  A    between atoms: C_17  and  N_24
    9  A    between atoms: C_20  and  N_24
   10  A    between atoms: N_23  and  C_37
   11  A    between atoms: C_27  and  C_29
   12  A    between atoms: C_35  and  C_37
                            x       y       z     vdW  Elec       q    Type
                         _______ _______ _______ _____ _____    ______ ____

>  <TORSDO>
F 12

$$$$
=
 OpenBabel11062419243D

 38 42  0  0  1  0  0  0  0  0999 V2000
  192.7160  177.0870  143.3570 C   0  0  0  0  0  2  0  0  0  0  0  0
  191.8610  177.3470  144.6120 C   0  0  2  0  0  3  0  0  0  0  0  0
  191.2510  174.8390  145.0470 C   0  0  1  0  0  3  0  0  0  0  0  0
  192.8010  174.5240  143.4230 C   0  0  2  0  0  3  0  0  0  0  0  0
  191.4290  174.7330  143.6570 O   0  0  0  0  0  0  0  0  0  0  0  0
  191.8280  176.1670  145.6130 C   0  0  2  0  0  3  0  0  0  0  0  0
  189.7660  174.7030  145.3790 C   0  0  0  0  0  2  0  0  0  0  0  0
  193.6050  175.8390  143.4290 C   0  0  0  0  0  2  0  0  0  0  0  0
  191.2560  176.5750  146.9770 C   0  0  0  0  0  2  0  0  0  0  0  0
  189.4760  174.7850  146.8850 C   0  0  1  0  0  3  0  0  0  0  0  0
  190.6320  175.3860  147.7010 C   0  0  0  0  0  2  0  0  0  0  0  0
  192.9660  173.2970  139.9850 O   0  0  0  0  0  0  0  0  0  0  0  0
  192.5880  174.2300  140.9460 C   0  0  0  0  0  3  0  0  0  0  0  0
  194.0330  171.6720  143.0830 C   0  0  0  0  0  1  0  0  0  0  0  0
  193.6930  172.5750  141.9970 N   0  0  0  0  0  0  0  0  0  0  0  0
  192.9970  173.8030  142.1270 C   0  0  0  0  0  0  0  0  0  0  0  0
  193.6470  172.2050  140.5940 C   0  0  0  0  0  2  0  0  0  0  0  0
  190.4630  177.7750  144.1700 C   0  0  0  0  0  2  0  0  0  0  0  0
  190.2140  177.4440  142.7060 C   0  0  0  0  0  2  0  0  0  0  0  0
  189.0000  178.1930  142.1780 C   0  0  0  0  0  2  0  0  0  0  0  0
  188.0280  177.2570  141.6300 N   0  0  0  0  0  2  0  0  0  0  0  0
  187.5540  175.0420  141.9980 O   0  0  0  0  0  0  0  0  0  0  0  0
  188.5710  175.9190  141.8000 C   0  0  1  0  0  3  0  0  0  0  0  0
  188.1080  175.0720  140.7290 N   0  0  0  0  0  0  0  0  0  0  0  0
  189.0310  173.9530  140.6510 C   0  0  0  0  0  2  0  0  0  0  0  0
  189.3390  171.7100  139.4200 C   0  0  2  0  0  3  0  0  0  0  0  0
  189.6730  173.7020  137.9880 S   0  0  0  0  0  0  0  0  0  0  0  0
  190.2140  171.9810  138.2170 C   0  0  0  0  0  2  0  0  0  0  0  0
  188.7190  173.1080  139.4180 C   0  0  2  0  0  3  0  0  0  0  0  0
  190.1790  171.4620  140.5840 N   0  0  0  0  0  1  0  0  0  0  0  0
  188.2030  175.5900  147.0900 C   0  0  0  0  0  2  0  0  0  0  0  0
  187.7420  176.2140  145.7850 C   0  0  0  0  0  2  0  0  0  0  0  0
  186.3920  176.5460  145.8840 O   0  0  0  0  0  0  0  0  0  0  0  0
  186.6130  178.5170  144.8620 O   0  0  0  0  0  0  0  0  0  0  0  0
  184.1530  178.1150  146.5390 O   0  0  0  0  0  0  0  0  0  0  0  0
  184.8830  178.5520  145.0770 P   0  0  0  0  0  0  0  0  0  0  0  0
  186.1160  177.2760  144.7280 C   0  0  0  0  0  2  0  0  0  0  0  0
  183.9960  178.6260  143.8560 O   0  0  0  0  0  0  0  0  0  0  0  0
  1  8  1  0  0  0  0
  1  2  1  0  0  0  0
  2 18  1  6  0  0  0
  2  6  1  0  0  0  0
  3  7  1  6  0  0  0
  3  6  1  0  0  0  0
  4 16  1  6  0  0  0
  4  8  1  0  0  0  0
  4  5  1  0  0  0  0
  5  3  1  0  0  0  0
  6  9  1  1  0  0  0
  7 10  1  0  0  0  0
  9 11  1  0  0  0  0
 10 31  1  6  0  0  0
 10 11  1  0  0  0  0
 12 17  1  0  0  0  0
 12 13  1  0  0  0  0
 13 16  2  0  0  0  0
 15 16  1  0  0  0  0
 15 14  1  0  0  0  0
 17 15  1  0  0  0  0
 19 18  1  0  0  0  0
 20 19  1  0  0  0  0
 21 20  1  0  0  0  0
 23 21  1  6  0  0  0
 23 22  1  0  0  0  0
 24 23  1  0  0  0  0
 24 22  1  0  0  0  0
 25 24  1  0  0  0  0
 26 30  1  1  0  0  0
 27 28  1  0  0  0  0
 27 29  1  0  0  0  0
 28 26  1  0  0  0  0
 29 26  1  0  0  0  0
 29 25  1  1  0  0  0
 32 33  1  0  0  0  0
 32 31  1  0  0  0  0
 34 36  1  0  0  0  0
 36 35  2  0  0  0  0
 37 34  1  0  0  0  0
 37 33  1  0  0  0  0
 38 36  2  0  0  0  0
M  END
>  <MODEL>
5

>  <REMARK>
 VINA RESULT:      -6.7      3.525      6.032
  Name = 
  12 active torsions:
  status: ('A' for Active; 'I' for Inactive)
    1  A    between atoms: O_1  and  C_16
    2  A    between atoms: O_1  and  C_34
    3  A    between atoms: C_3  and  C_8
    4  A    between atoms: C_8  and  C_12
    5  A    between atoms: C_10  and  C_30
    6  A    between atoms: C_12  and  C_17
    7  A    between atoms: C_16  and  C_27
    8  A    between atoms: C_17  and  N_24
    9  A    between atoms: C_20  and  N_24
   10  A    between atoms: N_23  and  C_37
   11  A    between atoms: C_27  and  C_29
   12  A    between atoms: C_35  and  C_37
                            x       y       z     vdW  Elec       q    Type
                         _______ _______ _______ _____ _____    ______ ____

>  <TORSDO>
F 12

$$$$
=
 OpenBabel11062419243D

 38 42  0  0  1  0  0  0  0  0999 V2000
  191.8320  177.2580  144.6340 C   0  0  0  0  0  2  0  0  0  0  0  0
  193.2060  176.7170  145.0730 C   0  0  2  0  0  3  0  0  0  0  0  0
  193.0890  174.5120  143.6690 C   0  0  1  0  0  3  0  0  0  0  0  0
  191.2640  175.5450  142.8110 C   0  0  2  0  0  3  0  0  0  0  0  0
  191.7050  174.6830  143.8330 O   0  0  0  0  0  0  0  0  0  0  0  0
  193.8870  175.7950  144.0340 C   0  0  2  0  0  3  0  0  0  0  0  0
  193.5560  173.3220  144.5080 C   0  0  0  0  0  2  0  0  0  0  0  0
  191.4920  177.0290  143.1560 C   0  0  0  0  0  2  0  0  0  0  0  0
  195.3680  175.5510  144.3530 C   0  0  0  0  0  2  0  0  0  0  0  0
  195.0600  173.0440  144.3740 C   0  0  1  0  0  3  0  0  0  0  0  0
  195.8520  174.2210  143.7830 C   0  0  0  0  0  2  0  0  0  0  0  0
  187.6950  175.6110  142.0310 O   0  0  0  0  0  0  0  0  0  0  0  0
  188.9180  176.2310  142.2670 C   0  0  0  0  0  3  0  0  0  0  0  0
  189.8240  172.7730  142.9140 C   0  0  0  0  0  1  0  0  0  0  0  0
  189.2330  174.0080  142.4310 N   0  0  0  0  0  0  0  0  0  0  0  0
  189.8170  175.2970  142.5180 C   0  0  0  0  0  0  0  0  0  0  0  0
  187.8220  174.1980  142.1500 C   0  0  0  0  0  2  0  0  0  0  0  0
  193.0520  176.0440  146.4360 C   0  0  0  0  0  2  0  0  0  0  0  0
  191.7650  176.4690  147.1270 C   0  0  0  0  0  2  0  0  0  0  0  0
  191.1740  175.3200  147.9300 C   0  0  0  0  0  2  0  0  0  0  0  0
  189.8800  174.9360  147.3840 N   0  0  0  0  0  2  0  0  0  0  0  0
  188.6350  175.8720  145.6980 O   0  0  0  0  0  0  0  0  0  0  0  0
  189.2460  176.1430  146.8800 C   0  0  1  0  0  3  0  0  0  0  0  0
  187.8190  175.9470  146.8150 N   0  0  0  0  0  0  0  0  0  0  0  0
  187.2140  177.2670  146.8000 C   0  0  0  0  0  2  0  0  0  0  0  0
  185.4520  177.6850  144.9670 C   0  0  2  0  0  3  0  0  0  0  0  0
  184.7540  178.4210  147.2250 S   0  0  0  0  0  0  0  0  0  0  0  0
  184.5580  178.8010  145.4580 C   0  0  0  0  0  2  0  0  0  0  0  0
  185.7520  177.1630  146.3730 C   0  0  2  0  0  3  0  0  0  0  0  0
  186.6210  178.2550  144.3100 N   0  0  0  0  0  1  0  0  0  0  0  0
  195.6060  172.6670  145.7420 C   0  0  0  0  0  2  0  0  0  0  0  0
  196.9100  171.9000  145.6100 C   0  0  0  0  0  2  0  0  0  0  0  0
  196.6330  170.5470  145.4240 O   0  0  0  0  0  0  0  0  0  0  0  0
  197.0190  168.8180  146.7810 O   0  0  0  0  0  0  0  0  0  0  0  0
  194.4610  168.7750  145.2060 O   0  0  0  0  0  0  0  0  0  0  0  0
  195.2860  168.6590  146.6790 P   0  0  0  0  0  0  0  0  0  0  0  0
  196.4580  170.0360  146.7100 C   0  0  0  0  0  2  0  0  0  0  0  0
  194.4650  168.7740  147.9420 O   0  0  0  0  0  0  0  0  0  0  0  0
  1  2  1  0  0  0  0
  2 18  1  1  0  0  0
  3  5  1  0  0  0  0
  3  6  1  0  0  0  0
  3  7  1  1  0  0  0
  4 16  1  1  0  0  0
  4  8  1  0  0  0  0
  4  5  1  0  0  0  0
  6  9  1  1  0  0  0
  6  2  1  0  0  0  0
  8  1  1  0  0  0  0
 10  7  1  0  0  0  0
 10 31  1  1  0  0  0
 11  9  1  0  0  0  0
 11 10  1  0  0  0  0
 12 17  1  0  0  0  0
 12 13  1  0  0  0  0
 13 16  2  0  0  0  0
 15 16  1  0  0  0  0
 15 14  1  0  0  0  0
 17 15  1  0  0  0  0
 18 19  1  0  0  0  0
 19 20  1  0  0  0  0
 21 20  1  0  0  0  0
 22 24  1  0  0  0  0
 22 23  1  0  0  0  0
 23 21  1  1  0  0  0
 24 23  1  0  0  0  0
 25 24  1  0  0  0  0
 26 30  1  1  0  0  0
 26 28  1  0  0  0  0
 26 29  1  0  0  0  0
 28 27  1  0  0  0  0
 29 25  1  1  0  0  0
 29 27  1  0  0  0  0
 32 31  1  0  0  0  0
 33 32  1  0  0  0  0
 33 37  1  0  0  0  0
 35 36  2  0  0  0  0
 36 34  1  0  0  0  0
 36 38  2  0  0  0  0
 37 34  1  0  0  0  0
M  END
>  <MODEL>
6

>  <REMARK>
 VINA RESULT:      -6.6      3.479      6.291
  Name = 
  12 active torsions:
  status: ('A' for Active; 'I' for Inactive)
    1  A    between atoms: O_1  and  C_16
    2  A    between atoms: O_1  and  C_34
    3  A    between atoms: C_3  and  C_8
    4  A    between atoms: C_8  and  C_12
    5  A    between atoms: C_10  and  C_30
    6  A    between atoms: C_12  and  C_17
    7  A    between atoms: C_16  and  C_27
    8  A    between atoms: C_17  and  N_24
    9  A    between atoms: C_20  and  N_24
   10  A    between atoms: N_23  and  C_37
   11  A    between atoms: C_27  and  C_29
   12  A    between atoms: C_35  and  C_37
                            x       y       z     vdW  Elec       q    Type
                         _______ _______ _______ _____ _____    ______ ____

>  <TORSDO>
F 12

$$$$
=
 OpenBabel11062419243D

 38 42  0  0  1  0  0  0  0  0999 V2000
  189.3060  174.0770  146.3430 C   0  0  0  0  0  2  0  0  0  0  0  0
  190.8240  174.0180  146.0880 C   0  0  2  0  0  3  0  0  0  0  0  0
  191.1830  176.6090  145.9950 C   0  0  1  0  0  3  0  0  0  0  0  0
  189.0360  176.6000  146.7210 C   0  0  2  0  0  3  0  0  0  0  0  0
  189.8440  176.6060  145.5680 O   0  0  0  0  0  0  0  0  0  0  0  0
  191.6050  175.2470  146.6140 C   0  0  2  0  0  3  0  0  0  0  0  0
  192.0880  176.9780  144.8200 C   0  0  0  0  0  2  0  0  0  0  0  0
  188.8560  175.1850  147.3040 C   0  0  0  0  0  2  0  0  0  0  0  0
  193.1200  175.0060  146.6440 C   0  0  0  0  0  2  0  0  0  0  0  0
  193.5760  177.0270  145.1990 C   0  0  1  0  0  3  0  0  0  0  0  0
  193.8960  176.3130  146.5220 C   0  0  0  0  0  2  0  0  0  0  0  0
  185.7970  177.6920  145.4280 O   0  0  0  0  0  0  0  0  0  0  0  0
  186.9700  176.9470  145.3500 C   0  0  0  0  0  3  0  0  0  0  0  0
  187.6320  178.8530  148.3710 C   0  0  0  0  0  1  0  0  0  0  0  0
  187.0320  178.1220  147.2690 N   0  0  0  0  0  0  0  0  0  0  0  0
  187.7030  177.2090  146.4170 C   0  0  0  0  0  0  0  0  0  0  0  0
  185.7890  178.4840  146.6120 C   0  0  0  0  0  2  0  0  0  0  0  0
  191.0590  173.7730  144.5990 C   0  0  0  0  0  2  0  0  0  0  0  0
  189.7900  173.3090  143.9010 C   0  0  0  0  0  2  0  0  0  0  0  0
  189.9910  173.2360  142.3950 C   0  0  0  0  0  2  0  0  0  0  0  0
  188.7830  173.6610  141.7040 N   0  0  0  0  0  2  0  0  0  0  0  0
  188.9570  175.9320  141.9890 O   0  0  0  0  0  0  0  0  0  0  0  0
  188.2740  174.8330  142.3980 C   0  0  1  0  0  3  0  0  0  0  0  0
  187.6970  175.7470  141.4440 N   0  0  0  0  0  0  0  0  0  0  0  0
  186.7920  176.6100  142.1830 C   0  0  0  0  0  2  0  0  0  0  0  0
  185.1870  178.5470  141.6240 C   0  0  2  0  0  3  0  0  0  0  0  0
  186.2820  177.5390  139.6450 S   0  0  0  0  0  0  0  0  0  0  0  0
  184.7540  178.3620  140.1870 C   0  0  0  0  0  2  0  0  0  0  0  0
  186.5570  177.9020  141.4050 C   0  0  2  0  0  3  0  0  0  0  0  0
  184.3220  177.7620  142.4950 N   0  0  0  0  0  1  0  0  0  0  0  0
  194.3850  176.4300  144.0600 C   0  0  0  0  0  2  0  0  0  0  0  0
  193.5010  176.1480  142.8580 C   0  0  0  0  0  2  0  0  0  0  0  0
  194.2020  176.4410  141.6900 O   0  0  0  0  0  0  0  0  0  0  0  0
  196.2630  177.1670  141.2380 O   0  0  0  0  0  0  0  0  0  0  0  0
  195.3600  174.6620  139.8460 O   0  0  0  0  0  0  0  0  0  0  0  0
  196.4930  175.4980  140.7840 P   0  0  0  0  0  0  0  0  0  0  0  0
  195.5480  176.3750  142.0530 C   0  0  0  0  0  2  0  0  0  0  0  0
  197.5250  174.6760  141.5190 O   0  0  0  0  0  0  0  0  0  0  0  0
  1  8  1  0  0  0  0
  2 18  1  6  0  0  0
  2  1  1  0  0  0  0
  2  6  1  0  0  0  0
  3  7  1  6  0  0  0
  3  6  1  0  0  0  0
  4 16  1  6  0  0  0
  4  8  1  0  0  0  0
  5  3  1  0  0  0  0
  5  4  1  0  0  0  0
  6  9  1  6  0  0  0
  7 10  1  0  0  0  0
 10 31  1  6  0  0  0
 10 11  1  0  0  0  0
 11  9  1  0  0  0  0
 12 17  1  0  0  0  0
 13 12  1  0  0  0  0
 13 16  2  0  0  0  0
 15 14  1  0  0  0  0
 16 15  1  0  0  0  0
 17 15  1  0  0  0  0
 19 18  1  0  0  0  0
 20 19  1  0  0  0  0
 21 20  1  0  0  0  0
 22 23  1  0  0  0  0
 23 21  1  6  0  0  0
 24 22  1  0  0  0  0
 24 25  1  0  0  0  0
 24 23  1  0  0  0  0
 26 30  1  1  0  0  0
 27 28  1  0  0  0  0
 27 29  1  0  0  0  0
 28 26  1  0  0  0  0
 29 26  1  0  0  0  0
 29 25  1  1  0  0  0
 32 31  1  0  0  0  0
 33 37  1  0  0  0  0
 33 32  1  0  0  0  0
 34 37  1  0  0  0  0
 35 36  2  0  0  0  0
 36 34  1  0  0  0  0
 36 38  2  0  0  0  0
M  END
>  <MODEL>
7

>  <REMARK>
 VINA RESULT:      -6.5      3.017      6.595
  Name = 
  12 active torsions:
  status: ('A' for Active; 'I' for Inactive)
    1  A    between atoms: O_1  and  C_16
    2  A    between atoms: O_1  and  C_34
    3  A    between atoms: C_3  and  C_8
    4  A    between atoms: C_8  and  C_12
    5  A    between atoms: C_10  and  C_30
    6  A    between atoms: C_12  and  C_17
    7  A    between atoms: C_16  and  C_27
    8  A    between atoms: C_17  and  N_24
    9  A    between atoms: C_20  and  N_24
   10  A    between atoms: N_23  and  C_37
   11  A    between atoms: C_27  and  C_29
   12  A    between atoms: C_35  and  C_37
                            x       y       z     vdW  Elec       q    Type
                         _______ _______ _______ _____ _____    ______ ____

>  <TORSDO>
F 12

$$$$
=
 OpenBabel11062419243D

 38 42  0  0  1  0  0  0  0  0999 V2000
  189.0450  175.2560  146.5410 C   0  0  0  0  0  2  0  0  0  0  0  0
  190.5690  175.0490  146.6300 C   0  0  2  0  0  3  0  0  0  0  0  0
  191.1900  176.8340  144.8200 C   0  0  1  0  0  3  0  0  0  0  0  0
  188.9840  177.3170  145.0150 C   0  0  2  0  0  3  0  0  0  0  0  0
  189.9140  176.5210  144.3210 O   0  0  0  0  0  0  0  0  0  0  0  0
  191.4020  176.3010  146.2650 C   0  0  2  0  0  3  0  0  0  0  0  0
  192.2540  176.2820  143.8730 C   0  0  0  0  0  2  0  0  0  0  0  0
  188.6000  176.7150  146.3820 C   0  0  0  0  0  2  0  0  0  0  0  0
  192.8730  176.1640  146.6800 C   0  0  0  0  0  2  0  0  0  0  0  0
  193.6870  176.5960  144.3280 C   0  0  1  0  0  3  0  0  0  0  0  0
  193.7830  177.0180  145.8030 C   0  0  0  0  0  2  0  0  0  0  0  0
  185.6630  177.6100  143.5210 O   0  0  0  0  0  0  0  0  0  0  0  0
  186.5210  177.2800  144.5650 C   0  0  0  0  0  3  0  0  0  0  0  0
  188.9450  178.1800  142.0120 C   0  0  0  0  0  1  0  0  0  0  0  0
  187.7760  178.0590  142.8660 N   0  0  0  0  0  0  0  0  0  0  0  0
  187.7600  177.5250  144.1790 C   0  0  0  0  0  0  0  0  0  0  0  0
  186.4020  178.0840  142.4000 C   0  0  0  0  0  2  0  0  0  0  0  0
  190.9460  173.8320  145.7870 C   0  0  0  0  0  2  0  0  0  0  0  0
  189.7150  173.1440  145.2160 C   0  0  0  0  0  2  0  0  0  0  0  0
  190.1080  172.0740  144.2090 C   0  0  0  0  0  2  0  0  0  0  0  0
  189.1060  171.9770  143.1580 N   0  0  0  0  0  2  0  0  0  0  0  0
  190.5790  172.9570  141.6950 O   0  0  0  0  0  0  0  0  0  0  0  0
  189.3380  173.0760  142.2340 C   0  0  1  0  0  3  0  0  0  0  0  0
  189.5170  172.5550  140.9010 N   0  0  0  0  0  0  0  0  0  0  0  0
  189.2460  173.6480  139.9840 C   0  0  0  0  0  2  0  0  0  0  0  0
  189.3830  173.9550  137.4300 C   0  0  2  0  0  3  0  0  0  0  0  0
  190.1000  171.7210  138.2180 S   0  0  0  0  0  0  0  0  0  0  0  0
  189.3230  172.5750  136.8140 C   0  0  0  0  0  2  0  0  0  0  0  0
  190.0660  173.4710  138.7090 C   0  0  2  0  0  3  0  0  0  0  0  0
  188.0280  174.4420  137.6570 N   0  0  0  0  0  1  0  0  0  0  0  0
  194.5570  175.3790  144.0630 C   0  0  0  0  0  2  0  0  0  0  0  0
  196.0290  175.7320  144.1830 C   0  0  0  0  0  2  0  0  0  0  0  0
  196.7660  174.5680  144.4030 O   0  0  0  0  0  0  0  0  0  0  0  0
  197.0040  173.6200  146.4090 O   0  0  0  0  0  0  0  0  0  0  0  0
  197.2960  171.8360  144.0080 O   0  0  0  0  0  0  0  0  0  0  0  0
  196.5980  172.1810  145.5100 P   0  0  0  0  0  0  0  0  0  0  0  0
  196.1110  173.9220  145.4520 C   0  0  0  0  0  2  0  0  0  0  0  0
  195.3560  171.4090  145.8890 O   0  0  0  0  0  0  0  0  0  0  0  0
  1  2  1  0  0  0  0
  2 18  1  6  0  0  0
  3  7  1  6  0  0  0
  3  6  1  0  0  0  0
  4 16  1  6  0  0  0
  4  8  1  0  0  0  0
  5  3  1  0  0  0  0
  5  4  1  0  0  0  0
  6  2  1  0  0  0  0
  6  9  1  6  0  0  0
  7 10  1  0  0  0  0
  8  1  1  0  0  0  0
 10 31  1  1  0  0  0
 10 11  1  0  0  0  0
 11  9  1  0  0  0  0
 12 13  1  0  0  0  0
 14 15  1  0  0  0  0
 15 16  1  0  0  0  0
 16 13  2  0  0  0  0
 17 15  1  0  0  0  0
 17 12  1  0  0  0  0
 19 18  1  0  0  0  0
 20 19  1  0  0  0  0
 21 20  1  0  0  0  0
 22 23  1  0  0  0  0
 23 21  1  1  0  0  0
 24 22  1  0  0  0  0
 24 23  1  0  0  0  0
 25 24  1  0  0  0  0
 26 30  1  1  0  0  0
 26 29  1  0  0  0  0
 27 29  1  0  0  0  0
 28 26  1  0  0  0  0
 28 27  1  0  0  0  0
 29 25  1  1  0  0  0
 31 32  1  0  0  0  0
 32 33  1  0  0  0  0
 33 37  1  0  0  0  0
 35 36  2  0  0  0  0
 36 38  2  0  0  0  0
 36 34  1  0  0  0  0
 37 34  1  0  0  0  0
M  END
>  <MODEL>
8

>  <REMARK>
 VINA RESULT:      -6.4      3.606      7.733
  Name = 
  12 active torsions:
  status: ('A' for Active; 'I' for Inactive)
    1  A    between atoms: O_1  and  C_16
    2  A    between atoms: O_1  and  C_34
    3  A    between atoms: C_3  and  C_8
    4  A    between atoms: C_8  and  C_12
    5  A    between atoms: C_10  and  C_30
    6  A    between atoms: C_12  and  C_17
    7  A    between atoms: C_16  and  C_27
    8  A    between atoms: C_17  and  N_24
    9  A    between atoms: C_20  and  N_24
   10  A    between atoms: N_23  and  C_37
   11  A    between atoms: C_27  and  C_29
   12  A    between atoms: C_35  and  C_37
                            x       y       z     vdW  Elec       q    Type
                         _______ _______ _______ _____ _____    ______ ____

>  <TORSDO>
F 12

$$$$
=
 OpenBabel11062419243D

 38 42  0  0  1  0  0  0  0  0999 V2000
  191.8590  173.8300  142.7320 C   0  0  0  0  0  2  0  0  0  0  0  0
  190.6620  174.7170  143.1260 C   0  0  2  0  0  3  0  0  0  0  0  0
  191.4790  175.2070  145.5630 C   0  0  1  0  0  3  0  0  0  0  0  0
  193.3530  174.1970  144.7850 C   0  0  2  0  0  3  0  0  0  0  0  0
  192.1160  173.9630  145.4160 O   0  0  0  0  0  0  0  0  0  0  0  0
  190.9860  175.7780  144.2040 C   0  0  2  0  0  3  0  0  0  0  0  0
  190.3200  175.0690  146.5500 C   0  0  0  0  0  2  0  0  0  0  0  0
  193.2180  174.3120  143.2540 C   0  0  0  0  0  2  0  0  0  0  0  0
  189.8860  176.8410  144.3250 C   0  0  0  0  0  2  0  0  0  0  0  0
  189.5740  176.3890  146.7910 C   0  0  1  0  0  3  0  0  0  0  0  0
  189.8540  177.4560  145.7200 C   0  0  0  0  0  2  0  0  0  0  0  0
  195.1750  171.1560  145.6720 O   0  0  0  0  0  0  0  0  0  0  0  0
  194.0050  171.8590  145.4000 C   0  0  0  0  0  3  0  0  0  0  0  0
  196.4200  174.5690  145.2550 C   0  0  0  0  0  1  0  0  0  0  0  0
  195.7280  173.2930  145.2000 N   0  0  0  0  0  0  0  0  0  0  0  0
  194.3230  173.1140  145.1400 C   0  0  0  0  0  0  0  0  0  0  0  0
  196.3040  172.0190  145.5900 C   0  0  0  0  0  2  0  0  0  0  0  0
  189.4980  173.8140  143.5280 C   0  0  0  0  0  2  0  0  0  0  0  0
  188.5890  173.5130  142.3470 C   0  0  0  0  0  2  0  0  0  0  0  0
  187.9930  174.7920  141.7780 C   0  0  0  0  0  2  0  0  0  0  0  0
  188.1950  174.8460  140.3380 N   0  0  0  0  0  2  0  0  0  0  0  0
  188.1330  173.1020  138.8480 O   0  0  0  0  0  0  0  0  0  0  0  0
  188.7890  173.5830  139.9340 C   0  0  1  0  0  3  0  0  0  0  0  0
  189.3530  173.7140  138.6130 N   0  0  0  0  0  0  0  0  0  0  0  0
  190.3310  172.6510  138.4670 C   0  0  0  0  0  2  0  0  0  0  0  0
  192.5280  173.5530  137.4670 C   0  0  2  0  0  3  0  0  0  0  0  0
  190.4950  174.2750  136.2530 S   0  0  0  0  0  0  0  0  0  0  0  0
  192.1800  174.8010  136.6860 C   0  0  0  0  0  2  0  0  0  0  0  0
  191.1730  172.8900  137.2160 C   0  0  2  0  0  3  0  0  0  0  0  0
  192.7410  173.9010  138.8660 N   0  0  0  0  0  1  0  0  0  0  0  0
  188.0860  176.0960  146.8760 C   0  0  0  0  0  2  0  0  0  0  0  0
  187.2780  177.3800  146.8140 C   0  0  0  0  0  2  0  0  0  0  0  0
  185.9830  177.0900  146.3830 O   0  0  0  0  0  0  0  0  0  0  0  0
  186.5260  178.5520  144.7870 O   0  0  0  0  0  0  0  0  0  0  0  0
  183.7500  178.7350  145.9240 O   0  0  0  0  0  0  0  0  0  0  0  0
  184.7940  178.6220  144.5970 P   0  0  0  0  0  0  0  0  0  0  0  0
  185.9980  177.3380  145.0100 C   0  0  0  0  0  2  0  0  0  0  0  0
  184.1870  178.2210  143.2720 O   0  0  0  0  0  0  0  0  0  0  0  0
  1  2  1  0  0  0  0
  1  8  1  0  0  0  0
  2 18  1  1  0  0  0
  2  6  1  0  0  0  0
  3  7  1  1  0  0  0
  4 16  1  6  0  0  0
  4  5  1  0  0  0  0
  5  3  1  0  0  0  0
  6  9  1  1  0  0  0
  6  3  1  0  0  0  0
  7 10  1  0  0  0  0
  8  4  1  0  0  0  0
  9 11  1  0  0  0  0
 10 31  1  6  0  0  0
 11 10  1  0  0  0  0
 13 12  1  0  0  0  0
 15 14  1  0  0  0  0
 15 17  1  0  0  0  0
 16 15  1  0  0  0  0
 16 13  2  0  0  0  0
 17 12  1  0  0  0  0
 19 18  1  0  0  0  0
 20 19  1  0  0  0  0
 21 20  1  0  0  0  0
 22 23  1  0  0  0  0
 23 21  1  6  0  0  0
 24 22  1  0  0  0  0
 24 23  1  0  0  0  0
 25 24  1  0  0  0  0
 26 30  1  1  0  0  0
 27 28  1  0  0  0  0
 27 29  1  0  0  0  0
 28 26  1  0  0  0  0
 29 26  1  0  0  0  0
 29 25  1  1  0  0  0
 32 31  1  0  0  0  0
 33 32  1  0  0  0  0
 34 37  1  0  0  0  0
 36 34  1  0  0  0  0
 36 35  2  0  0  0  0
 37 33  1  0  0  0  0
 38 36  2  0  0  0  0
M  END
>  <MODEL>
9

>  <REMARK>
 VINA RESULT:      -6.3      3.585      6.908
  Name = 
  12 active torsions:
  status: ('A' for Active; 'I' for Inactive)
    1  A    between atoms: O_1  and  C_16
    2  A    between atoms: O_1  and  C_34
    3  A    between atoms: C_3  and  C_8
    4  A    between atoms: C_8  and  C_12
    5  A    between atoms: C_10  and  C_30
    6  A    between atoms: C_12  and  C_17
    7  A    between atoms: C_16  and  C_27
    8  A    between atoms: C_17  and  N_24
    9  A    between atoms: C_20  and  N_24
   10  A    between atoms: N_23  and  C_37
   11  A    between atoms: C_27  and  C_29
   12  A    between atoms: C_35  and  C_37
                            x       y       z     vdW  Elec       q    Type
                         _______ _______ _______ _____ _____    ______ ____

>  <TORSDO>
F 12

$$$$
