=
 OpenBabel11062419273D

 38 42  0  0  1  0  0  0  0  0999 V2000
  191.3040  172.9410  139.6640 C   0  0  0  0  0  3  0  0  0  0  0  0
  187.7270  172.8020  141.8990 C   0  0  0  0  0  1  0  0  0  0  0  0
  189.0580  174.0400  140.1220 C   0  0  2  0  0  3  0  0  0  0  0  0
  190.9710  174.1730  141.7310 C   0  0  0  0  0  0  0  0  0  0  0  0
  193.1270  173.1750  141.2340 C   0  0  0  0  0  3  0  0  0  0  0  0
  192.6250  172.6840  140.0280 C   0  0  0  0  0  3  0  0  0  0  0  0
  190.0960  174.8950  142.6100 N   0  0  0  0  0  0  0  0  0  0  0  0
  192.3180  173.9360  142.0930 C   0  0  0  0  0  0  0  0  0  0  0  0
  188.8060  174.9540  142.4530 C   0  0  0  0  0  0  0  0  0  0  0  0
  188.4570  173.1460  139.0430 C   0  0  0  0  0  1  0  0  0  0  0  0
  190.4670  173.6680  140.5170 C   0  0  0  0  0  0  0  0  0  0  0  0
  188.1380  174.1630  141.3500 C   0  0  2  0  0  3  0  0  0  0  0  0
  192.8760  174.4620  143.3150 N   0  0  0  0  0  0  0  0  0  0  0  0
  193.1890  175.8870  143.4110 C   0  0  0  0  0  2  0  0  0  0  0  0
  194.4420  176.1320  142.8480 O   0  0  0  0  0  1  0  0  0  0  0  0
  192.8670  173.6510  144.5350 C   0  0  2  0  0  3  0  0  0  0  0  0
  192.4640  175.0300  146.6160 C   0  0  0  0  0  3  0  0  0  0  0  0
  190.6190  174.0360  145.4690 N   0  0  0  0  0  0  0  0  0  0  0  0
  190.2110  175.3450  147.4250 C   0  0  0  0  0  3  0  0  0  0  0  0
  191.9590  174.2410  145.5730 C   0  0  0  0  0  0  0  0  0  0  0  0
  189.7430  174.5620  146.3660 C   0  0  0  0  0  3  0  0  0  0  0  0
  191.5800  175.5790  147.5460 C   0  0  0  0  0  3  0  0  0  0  0  0
  194.2790  173.3800  145.0550 C   0  0  1  0  0  3  0  0  0  0  0  0
  194.3550  172.0430  145.6360 C   0  0  0  0  0  2  0  0  0  0  0  0
  194.8720  172.2780  144.2810 N   0  0  0  0  0  2  0  0  0  0  0  0
  188.0620  175.6810  143.3880 O   0  0  0  0  0  0  0  0  0  0  0  0
  188.2110  177.0490  143.6590 C   0  0  0  0  0  0  0  0  0  0  0  0
  189.2730  177.5050  144.1590 O   0  0  0  0  0  0  0  0  0  0  0  0
  187.0930  177.9920  143.3370 C   0  0  2  0  0  3  0  0  0  0  0  0
  184.4420  178.2270  146.8010 C   0  0  0  0  0  2  0  0  0  0  0  0
  185.1050  176.8890  146.4730 C   0  0  0  0  0  2  0  0  0  0  0  0
  185.2550  179.1550  144.6260 C   0  0  0  0  0  2  0  0  0  0  0  0
  186.3170  177.1070  145.5730 C   0  0  0  0  0  2  0  0  0  0  0  0
  184.0370  178.9450  145.5160 C   0  0  0  0  0  2  0  0  0  0  0  0
  185.8950  177.8060  144.2780 C   0  0  0  0  0  3  0  0  0  0  0  0
  186.7080  177.8050  141.9010 C   0  0  0  0  0  0  0  0  0  0  0  0
  187.6630  177.8950  140.8960 O   0  0  0  0  0  0  0  0  0  0  0  0
  185.5000  177.6230  141.5990 O   0  0  0  0  0  1  0  0  0  0  0  0
  1  6  2  0  0  0  0
  1 11  1  0  0  0  0
  3 10  1  6  0  0  0
  3 11  1  0  0  0  0
  3 12  1  0  0  0  0
  4  8  1  0  0  0  0
  4  7  1  0  0  0  0
  5  8  2  0  0  0  0
  6  5  1  0  0  0  0
  8 13  1  0  0  0  0
  9  7  2  0  0  0  0
  9 26  1  0  0  0  0
 11  4  2  0  0  0  0
 12  2  1  1  0  0  0
 12  9  1  0  0  0  0
 13 14  1  0  0  0  0
 15 14  1  0  0  0  0
 16 13  1  6  0  0  0
 16 20  1  0  0  0  0
 17 22  1  0  0  0  0
 18 20  1  0  0  0  0
 18 21  2  0  0  0  0
 19 22  2  0  0  0  0
 20 17  2  0  0  0  0
 21 19  1  0  0  0  0
 23 16  1  6  0  0  0
 23 24  1  0  0  0  0
 25 23  1  0  0  0  0
 25 24  1  0  0  0  0
 26 27  1  0  0  0  0
 27 28  2  0  0  0  0
 29 36  1  6  0  0  0
 29 27  1  0  0  0  0
 29 35  1  0  0  0  0
 31 30  1  0  0  0  0
 32 34  1  0  0  0  0
 33 31  1  0  0  0  0
 34 30  1  0  0  0  0
 35 32  1  0  0  0  0
 35 33  1  0  0  0  0
 37 36  2  0  0  0  0
 38 36  1  0  0  0  0
M  END
>  <MODEL>
1

>  <REMARK>
 VINA RESULT:      -7.6      0.000      0.000
  Name = 
  10 active torsions:
  status: ('A' for Active; 'I' for Inactive)
    1  A    between atoms: C_3  and  C_7
    2  A    between atoms: C_3  and  N_10
    3  A    between atoms: C_3  and  C_31
    4  A    between atoms: N_10  and  C_13
    5  A    between atoms: N_10  and  C_21
    6  A    between atoms: C_14  and  O_26
    7  A    between atoms: C_14  and  C_30
    8  A    between atoms: C_23  and  C_30
    9  A    between atoms: C_25  and  C_30
   10  A    between atoms: O_26  and  C_28
                            x       y       z     vdW  Elec       q    Type
                         _______ _______ _______ _____ _____    ______ ____

>  <TORSDO>
F 10

$$$$
=
 OpenBabel11062419273D

 38 42  0  0  1  0  0  0  0  0999 V2000
  192.1550  172.9020  140.5040 C   0  0  0  0  0  3  0  0  0  0  0  0
  188.3760  172.7730  142.3790 C   0  0  0  0  0  1  0  0  0  0  0  0
  189.9450  174.1000  140.8840 C   0  0  2  0  0  3  0  0  0  0  0  0
  191.6980  173.9190  142.6620 C   0  0  0  0  0  0  0  0  0  0  0  0
  193.8270  172.8310  142.2490 C   0  0  0  0  0  3  0  0  0  0  0  0
  193.4160  172.5120  140.9540 C   0  0  0  0  0  3  0  0  0  0  0  0
  190.7860  174.6010  143.5370 N   0  0  0  0  0  0  0  0  0  0  0  0
  192.9860  173.5490  143.1140 C   0  0  0  0  0  0  0  0  0  0  0  0
  189.5240  174.7680  143.2720 C   0  0  0  0  0  0  0  0  0  0  0  0
  189.3990  173.3750  139.6580 C   0  0  0  0  0  1  0  0  0  0  0  0
  191.2840  173.5880  141.3580 C   0  0  0  0  0  0  0  0  0  0  0  0
  188.9190  174.1520  142.0300 C   0  0  2  0  0  3  0  0  0  0  0  0
  193.4540  173.8960  144.4340 N   0  0  0  0  0  0  0  0  0  0  0  0
  193.6320  172.8460  145.4350 C   0  0  0  0  0  2  0  0  0  0  0  0
  194.8570  172.2090  145.2360 O   0  0  0  0  0  1  0  0  0  0  0  0
  194.0130  175.2260  144.6890 C   0  0  2  0  0  3  0  0  0  0  0  0
  195.2710  176.2480  142.7480 C   0  0  0  0  0  3  0  0  0  0  0  0
  196.4300  174.8940  144.3390 N   0  0  0  0  0  0  0  0  0  0  0  0
  197.6430  175.8600  142.5230 C   0  0  0  0  0  3  0  0  0  0  0  0
  195.2680  175.4490  143.9000 C   0  0  0  0  0  0  0  0  0  0  0  0
  197.6040  175.0780  143.6800 C   0  0  0  0  0  3  0  0  0  0  0  0
  196.4660  176.4480  142.0580 C   0  0  0  0  0  3  0  0  0  0  0  0
  194.1850  175.4990  146.1830 C   0  0  1  0  0  3  0  0  0  0  0  0
  194.3370  176.9310  146.4210 C   0  0  0  0  0  2  0  0  0  0  0  0
  193.0390  176.2870  146.6630 N   0  0  0  0  0  2  0  0  0  0  0  0
  188.7380  175.4400  144.2150 O   0  0  0  0  0  0  0  0  0  0  0  0
  188.9050  176.7740  144.6100 C   0  0  0  0  0  0  0  0  0  0  0  0
  189.8180  177.1100  145.4110 O   0  0  0  0  0  0  0  0  0  0  0  0
  187.9920  177.8280  144.0630 C   0  0  2  0  0  3  0  0  0  0  0  0
  184.3520  178.2230  146.4460 C   0  0  0  0  0  2  0  0  0  0  0  0
  185.1040  176.8930  146.4700 C   0  0  0  0  0  2  0  0  0  0  0  0
  185.8180  179.0110  144.5790 C   0  0  0  0  0  2  0  0  0  0  0  0
  186.5410  177.0890  145.9950 C   0  0  0  0  0  2  0  0  0  0  0  0
  184.3790  178.8210  145.0410 C   0  0  0  0  0  2  0  0  0  0  0  0
  186.5550  177.6670  144.5780 C   0  0  0  0  0  3  0  0  0  0  0  0
  188.0560  177.7860  142.5660 C   0  0  0  0  0  0  0  0  0  0  0  0
  187.0390  177.1880  141.8330 O   0  0  0  0  0  0  0  0  0  0  0  0
  189.0660  178.2440  141.9730 O   0  0  0  0  0  1  0  0  0  0  0  0
  1  6  2  0  0  0  0
  1 11  1  0  0  0  0
  3 10  1  6  0  0  0
  3 11  1  0  0  0  0
  3 12  1  0  0  0  0
  4  8  1  0  0  0  0
  4  7  1  0  0  0  0
  5  8  2  0  0  0  0
  6  5  1  0  0  0  0
  8 13  1  0  0  0  0
  9  7  2  0  0  0  0
  9 26  1  0  0  0  0
 11  4  2  0  0  0  0
 12  2  1  1  0  0  0
 12  9  1  0  0  0  0
 13 14  1  0  0  0  0
 15 14  1  0  0  0  0
 16 13  1  1  0  0  0
 17 20  1  0  0  0  0
 19 21  2  0  0  0  0
 20 18  2  0  0  0  0
 20 16  1  0  0  0  0
 21 18  1  0  0  0  0
 22 19  1  0  0  0  0
 22 17  2  0  0  0  0
 23 16  1  6  0  0  0
 23 24  1  0  0  0  0
 23 25  1  0  0  0  0
 24 25  1  0  0  0  0
 26 27  1  0  0  0  0
 27 28  2  0  0  0  0
 29 36  1  6  0  0  0
 29 35  1  0  0  0  0
 29 27  1  0  0  0  0
 30 31  1  0  0  0  0
 32 34  1  0  0  0  0
 33 31  1  0  0  0  0
 34 30  1  0  0  0  0
 35 32  1  0  0  0  0
 35 33  1  0  0  0  0
 37 36  2  0  0  0  0
 38 36  1  0  0  0  0
M  END
>  <MODEL>
2

>  <REMARK>
 VINA RESULT:      -7.6      1.938      3.308
  Name = 
  10 active torsions:
  status: ('A' for Active; 'I' for Inactive)
    1  A    between atoms: C_3  and  C_7
    2  A    between atoms: C_3  and  N_10
    3  A    between atoms: C_3  and  C_31
    4  A    between atoms: N_10  and  C_13
    5  A    between atoms: N_10  and  C_21
    6  A    between atoms: C_14  and  O_26
    7  A    between atoms: C_14  and  C_30
    8  A    between atoms: C_23  and  C_30
    9  A    between atoms: C_25  and  C_30
   10  A    between atoms: O_26  and  C_28
                            x       y       z     vdW  Elec       q    Type
                         _______ _______ _______ _____ _____    ______ ____

>  <TORSDO>
F 10

$$$$
=
 OpenBabel11062419273D

 38 42  0  0  1  0  0  0  0  0999 V2000
  187.5470  176.0910  140.5100 C   0  0  0  0  0  3  0  0  0  0  0  0
  191.0680  173.7920  140.1560 C   0  0  0  0  0  1  0  0  0  0  0  0
  188.5490  173.7540  140.4890 C   0  0  2  0  0  3  0  0  0  0  0  0
  188.8390  175.3240  142.4180 C   0  0  0  0  0  0  0  0  0  0  0  0
  187.8110  177.5220  142.4400 C   0  0  0  0  0  3  0  0  0  0  0  0
  187.3010  177.2990  141.1600 C   0  0  0  0  0  3  0  0  0  0  0  0
  189.6620  174.3180  143.0270 N   0  0  0  0  0  0  0  0  0  0  0  0
  188.5710  176.5380  143.0920 C   0  0  0  0  0  0  0  0  0  0  0  0
  190.1340  173.2890  142.3860 C   0  0  0  0  0  0  0  0  0  0  0  0
  188.3440  173.7350  138.9780 C   0  0  0  0  0  1  0  0  0  0  0  0
  188.3300  175.1070  141.1230 C   0  0  0  0  0  0  0  0  0  0  0  0
  189.9030  173.1480  140.8970 C   0  0  2  0  0  3  0  0  0  0  0  0
  189.0530  176.7830  144.4300 N   0  0  0  0  0  0  0  0  0  0  0  0
  189.9500  177.9110  144.6780 C   0  0  0  0  0  2  0  0  0  0  0  0
  190.9190  177.9710  143.6770 O   0  0  0  0  0  1  0  0  0  0  0  0
  188.4390  176.0970  145.5690 C   0  0  2  0  0  3  0  0  0  0  0  0
  185.9880  176.7150  145.6040 C   0  0  0  0  0  3  0  0  0  0  0  0
  187.4950  177.7300  147.1550 N   0  0  0  0  0  0  0  0  0  0  0  0
  185.1820  178.3210  147.2170 C   0  0  0  0  0  3  0  0  0  0  0  0
  187.2820  176.8790  146.1160 C   0  0  0  0  0  0  0  0  0  0  0  0
  186.4830  178.4500  147.7080 C   0  0  0  0  0  3  0  0  0  0  0  0
  184.9370  177.4460  146.1590 C   0  0  0  0  0  3  0  0  0  0  0  0
  189.4690  175.7200  146.6350 C   0  0  1  0  0  3  0  0  0  0  0  0
  188.9720  174.6150  147.4480 C   0  0  0  0  0  2  0  0  0  0  0  0
  189.9460  174.3520  146.3800 N   0  0  0  0  0  2  0  0  0  0  0  0
  190.9360  172.3850  143.0920 O   0  0  0  0  0  0  0  0  0  0  0  0
  192.3170  172.5130  143.2960 C   0  0  0  0  0  0  0  0  0  0  0  0
  193.1270  172.4790  142.3330 O   0  0  0  0  0  0  0  0  0  0  0  0
  192.8440  172.7040  144.6850 C   0  0  2  0  0  3  0  0  0  0  0  0
  193.8250  176.9040  145.3810 C   0  0  0  0  0  2  0  0  0  0  0  0
  193.9260  176.3530  143.9600 C   0  0  0  0  0  2  0  0  0  0  0  0
  193.4870  174.5840  146.2500 C   0  0  0  0  0  2  0  0  0  0  0  0
  193.1130  175.0670  143.8320 C   0  0  0  0  0  2  0  0  0  0  0  0
  194.3040  175.8610  146.3880 C   0  0  0  0  0  2  0  0  0  0  0  0
  193.6180  174.0220  144.8300 C   0  0  0  0  0  3  0  0  0  0  0  0
  193.6890  171.5200  145.0440 C   0  0  0  0  0  0  0  0  0  0  0  0
  193.2730  170.2340  144.7270 O   0  0  0  0  0  0  0  0  0  0  0  0
  194.7550  171.6890  145.6900 O   0  0  0  0  0  1  0  0  0  0  0  0
  1 11  2  0  0  0  0
  1  6  1  0  0  0  0
  3 10  1  6  0  0  0
  3 12  1  0  0  0  0
  3 11  1  0  0  0  0
  4  7  1  0  0  0  0
  4  8  2  0  0  0  0
  5  8  1  0  0  0  0
  6  5  2  0  0  0  0
  8 13  1  0  0  0  0
  9  7  2  0  0  0  0
  9 26  1  0  0  0  0
 11  4  1  0  0  0  0
 12  2  1  6  0  0  0
 12  9  1  0  0  0  0
 13 14  1  0  0  0  0
 15 14  1  0  0  0  0
 16 13  1  6  0  0  0
 16 20  1  0  0  0  0
 17 20  2  0  0  0  0
 17 22  1  0  0  0  0
 18 21  2  0  0  0  0
 19 21  1  0  0  0  0
 20 18  1  0  0  0  0
 22 19  2  0  0  0  0
 23 16  1  6  0  0  0
 23 24  1  0  0  0  0
 25 23  1  0  0  0  0
 25 24  1  0  0  0  0
 26 27  1  0  0  0  0
 28 27  2  0  0  0  0
 29 27  1  6  0  0  0
 29 35  1  0  0  0  0
 29 36  1  0  0  0  0
 30 34  1  0  0  0  0
 31 30  1  0  0  0  0
 32 34  1  0  0  0  0
 33 31  1  0  0  0  0
 33 35  1  0  0  0  0
 35 32  1  0  0  0  0
 36 38  1  0  0  0  0
 37 36  2  0  0  0  0
M  END
>  <MODEL>
3

>  <REMARK>
 VINA RESULT:      -7.5      2.258      6.480
  Name = 
  10 active torsions:
  status: ('A' for Active; 'I' for Inactive)
    1  A    between atoms: C_3  and  C_7
    2  A    between atoms: C_3  and  N_10
    3  A    between atoms: C_3  and  C_31
    4  A    between atoms: N_10  and  C_13
    5  A    between atoms: N_10  and  C_21
    6  A    between atoms: C_14  and  O_26
    7  A    between atoms: C_14  and  C_30
    8  A    between atoms: C_23  and  C_30
    9  A    between atoms: C_25  and  C_30
   10  A    between atoms: O_26  and  C_28
                            x       y       z     vdW  Elec       q    Type
                         _______ _______ _______ _____ _____    ______ ____

>  <TORSDO>
F 10

$$$$
=
 OpenBabel11062419273D

 38 42  0  0  1  0  0  0  0  0999 V2000
  195.2990  174.4700  144.9670 C   0  0  0  0  0  3  0  0  0  0  0  0
  191.8730  176.9110  144.6220 C   0  0  0  0  0  1  0  0  0  0  0  0
  193.2890  175.4660  146.1620 C   0  0  2  0  0  3  0  0  0  0  0  0
  193.0780  173.5990  144.5080 C   0  0  0  0  0  0  0  0  0  0  0  0
  195.0230  172.6200  143.4360 C   0  0  0  0  0  3  0  0  0  0  0  0
  195.8490  173.5320  144.0940 C   0  0  0  0  0  3  0  0  0  0  0  0
  191.6580  173.6790  144.6980 N   0  0  0  0  0  0  0  0  0  0  0  0
  193.6340  172.6280  143.6420 C   0  0  0  0  0  0  0  0  0  0  0  0
  191.0660  174.6740  145.2900 C   0  0  0  0  0  0  0  0  0  0  0  0
  194.1550  176.6740  146.5060 C   0  0  0  0  0  1  0  0  0  0  0  0
  193.9150  174.5220  145.1640 C   0  0  0  0  0  0  0  0  0  0  0  0
  191.8660  175.8770  145.7410 C   0  0  2  0  0  3  0  0  0  0  0  0
  192.8100  171.6490  142.9750 N   0  0  0  0  0  0  0  0  0  0  0  0
  192.3390  170.4800  143.7150 C   0  0  0  0  0  2  0  0  0  0  0  0
  193.3990  169.5990  143.9290 O   0  0  0  0  0  1  0  0  0  0  0  0
  192.2170  171.9540  141.6710 C   0  0  2  0  0  3  0  0  0  0  0  0
  190.7740  174.0270  141.5440 C   0  0  0  0  0  3  0  0  0  0  0  0
  189.8100  171.9420  142.2010 N   0  0  0  0  0  0  0  0  0  0  0  0
  188.4230  173.8820  142.0750 C   0  0  0  0  0  3  0  0  0  0  0  0
  190.9020  172.6590  141.8240 C   0  0  0  0  0  0  0  0  0  0  0  0
  188.5870  172.5200  142.3350 C   0  0  0  0  0  3  0  0  0  0  0  0
  189.5260  174.6370  141.6760 C   0  0  0  0  0  3  0  0  0  0  0  0
  192.1370  170.7190  140.7740 C   0  0  1  0  0  3  0  0  0  0  0  0
  191.8720  171.1130  139.3940 C   0  0  0  0  0  2  0  0  0  0  0  0
  193.2390  170.7600  139.8010 N   0  0  0  0  0  2  0  0  0  0  0  0
  189.6720  174.6390  145.4010 O   0  0  0  0  0  0  0  0  0  0  0  0
  188.9280  175.1470  146.4750 C   0  0  0  0  0  0  0  0  0  0  0  0
  189.1500  174.7760  147.6580 O   0  0  0  0  0  0  0  0  0  0  0  0
  187.8570  176.1620  146.2180 C   0  0  2  0  0  3  0  0  0  0  0  0
  186.8250  178.0780  142.4300 C   0  0  0  0  0  2  0  0  0  0  0  0
  186.0280  176.8520  142.8740 C   0  0  0  0  0  2  0  0  0  0  0  0
  188.4520  177.6840  144.2880 C   0  0  0  0  0  2  0  0  0  0  0  0
  186.1930  176.6280  144.3740 C   0  0  0  0  0  2  0  0  0  0  0  0
  188.2990  177.9080  142.7890 C   0  0  0  0  0  2  0  0  0  0  0  0
  187.6720  176.4360  144.7190 C   0  0  0  0  0  3  0  0  0  0  0  0
  188.1890  177.4110  146.9760 C   0  0  0  0  0  0  0  0  0  0  0  0
  189.5110  177.7540  147.2280 O   0  0  0  0  0  0  0  0  0  0  0  0
  187.2610  178.1240  147.4370 O   0  0  0  0  0  1  0  0  0  0  0  0
  1 11  1  0  0  0  0
  3 10  1  6  0  0  0
  4  7  1  0  0  0  0
  4 11  2  0  0  0  0
  5  8  2  0  0  0  0
  5  6  1  0  0  0  0
  6  1  2  0  0  0  0
  7  9  2  0  0  0  0
  8  4  1  0  0  0  0
  9 26  1  0  0  0  0
  9 12  1  0  0  0  0
 11  3  1  0  0  0  0
 12  2  1  6  0  0  0
 12  3  1  0  0  0  0
 13  8  1  0  0  0  0
 13 14  1  0  0  0  0
 14 15  1  0  0  0  0
 16 20  1  0  0  0  0
 16 13  1  1  0  0  0
 17 22  2  0  0  0  0
 17 20  1  0  0  0  0
 18 21  1  0  0  0  0
 19 21  2  0  0  0  0
 20 18  2  0  0  0  0
 22 19  1  0  0  0  0
 23 16  1  1  0  0  0
 24 25  1  0  0  0  0
 24 23  1  0  0  0  0
 25 23  1  0  0  0  0
 26 27  1  0  0  0  0
 27 28  2  0  0  0  0
 29 27  1  6  0  0  0
 29 36  1  0  0  0  0
 30 34  1  0  0  0  0
 30 31  1  0  0  0  0
 31 33  1  0  0  0  0
 32 35  1  0  0  0  0
 33 35  1  0  0  0  0
 34 32  1  0  0  0  0
 35 29  1  0  0  0  0
 36 37  2  0  0  0  0
 36 38  1  0  0  0  0
M  END
>  <MODEL>
4

>  <REMARK>
 VINA RESULT:      -7.4      2.470      5.106
  Name = 
  10 active torsions:
  status: ('A' for Active; 'I' for Inactive)
    1  A    between atoms: C_3  and  C_7
    2  A    between atoms: C_3  and  N_10
    3  A    between atoms: C_3  and  C_31
    4  A    between atoms: N_10  and  C_13
    5  A    between atoms: N_10  and  C_21
    6  A    between atoms: C_14  and  O_26
    7  A    between atoms: C_14  and  C_30
    8  A    between atoms: C_23  and  C_30
    9  A    between atoms: C_25  and  C_30
   10  A    between atoms: O_26  and  C_28
                            x       y       z     vdW  Elec       q    Type
                         _______ _______ _______ _____ _____    ______ ____

>  <TORSDO>
F 10

$$$$
=
 OpenBabel11062419273D

 38 42  0  0  1  0  0  0  0  0999 V2000
  193.5950  176.4410  146.8880 C   0  0  0  0  0  3  0  0  0  0  0  0
  189.7200  177.9160  146.0980 C   0  0  0  0  0  1  0  0  0  0  0  0
  191.1010  176.1350  147.2740 C   0  0  2  0  0  3  0  0  0  0  0  0
  192.1940  175.6190  145.0820 C   0  0  0  0  0  0  0  0  0  0  0  0
  194.5890  175.8530  144.7640 C   0  0  0  0  0  3  0  0  0  0  0  0
  194.7180  176.3280  146.0700 C   0  0  0  0  0  3  0  0  0  0  0  0
  190.8870  175.3040  144.5790 N   0  0  0  0  0  0  0  0  0  0  0  0
  193.3350  175.4780  144.2570 C   0  0  0  0  0  0  0  0  0  0  0  0
  189.7850  175.6190  145.1930 C   0  0  0  0  0  0  0  0  0  0  0  0
  191.2310  177.0360  148.4980 C   0  0  0  0  0  1  0  0  0  0  0  0
  192.3290  176.1070  146.3960 C   0  0  0  0  0  0  0  0  0  0  0  0
  189.8290  176.4410  146.4630 C   0  0  2  0  0  3  0  0  0  0  0  0
  193.2380  174.9550  142.9150 N   0  0  0  0  0  0  0  0  0  0  0  0
  193.4000  175.8570  141.7760 C   0  0  0  0  0  2  0  0  0  0  0  0
  194.5810  175.5520  141.0990 O   0  0  0  0  0  1  0  0  0  0  0  0
  193.2620  173.5090  142.6880 C   0  0  2  0  0  3  0  0  0  0  0  0
  191.2680  172.3410  143.7130 C   0  0  0  0  0  3  0  0  0  0  0  0
  191.1830  173.0700  141.4390 N   0  0  0  0  0  0  0  0  0  0  0  0
  189.2810  171.9810  142.3880 C   0  0  0  0  0  3  0  0  0  0  0  0
  191.8740  172.9470  142.6040 C   0  0  0  0  0  0  0  0  0  0  0  0
  189.9140  172.6010  141.3080 C   0  0  0  0  0  3  0  0  0  0  0  0
  189.9650  171.8540  143.5970 C   0  0  0  0  0  3  0  0  0  0  0  0
  194.1440  172.7820  143.7040 C   0  0  1  0  0  3  0  0  0  0  0  0
  194.6590  171.5430  143.1310 C   0  0  0  0  0  2  0  0  0  0  0  0
  195.5230  172.7290  143.1920 N   0  0  0  0  0  2  0  0  0  0  0  0
  188.5720  175.2650  144.5910 O   0  0  0  0  0  0  0  0  0  0  0  0
  188.0180  175.8790  143.4590 C   0  0  0  0  0  0  0  0  0  0  0  0
  187.8060  175.2290  142.4000 O   0  0  0  0  0  0  0  0  0  0  0  0
  187.6560  177.3310  143.5070 C   0  0  2  0  0  3  0  0  0  0  0  0
  184.4630  178.6520  146.1800 C   0  0  0  0  0  2  0  0  0  0  0  0
  184.8170  177.1670  146.1370 C   0  0  0  0  0  2  0  0  0  0  0  0
  185.9410  179.0540  144.2030 C   0  0  0  0  0  2  0  0  0  0  0  0
  186.2110  176.9710  145.5480 C   0  0  0  0  0  2  0  0  0  0  0  0
  184.5470  179.2560  144.7800 C   0  0  0  0  0  2  0  0  0  0  0  0
  186.2750  177.5600  144.1370 C   0  0  0  0  0  3  0  0  0  0  0  0
  187.7360  177.8910  142.1200 C   0  0  0  0  0  0  0  0  0  0  0  0
  186.6130  177.9130  141.3020 O   0  0  0  0  0  0  0  0  0  0  0  0
  188.8420  178.2910  141.6720 O   0  0  0  0  0  1  0  0  0  0  0  0
  3 10  1  1  0  0  0
  4 11  2  0  0  0  0
  5  6  1  0  0  0  0
  6  1  2  0  0  0  0
  7  4  1  0  0  0  0
  7  9  2  0  0  0  0
  8  5  2  0  0  0  0
  8  4  1  0  0  0  0
  9 12  1  0  0  0  0
 11  1  1  0  0  0  0
 11  3  1  0  0  0  0
 12  2  1  6  0  0  0
 12  3  1  0  0  0  0
 13  8  1  0  0  0  0
 14 13  1  0  0  0  0
 15 14  1  0  0  0  0
 16 13  1  1  0  0  0
 18 20  1  0  0  0  0
 19 22  2  0  0  0  0
 20 16  1  0  0  0  0
 20 17  2  0  0  0  0
 21 18  2  0  0  0  0
 21 19  1  0  0  0  0
 22 17  1  0  0  0  0
 23 16  1  6  0  0  0
 24 25  1  0  0  0  0
 24 23  1  0  0  0  0
 25 23  1  0  0  0  0
 26  9  1  0  0  0  0
 27 29  1  0  0  0  0
 27 26  1  0  0  0  0
 28 27  2  0  0  0  0
 29 36  1  6  0  0  0
 29 35  1  0  0  0  0
 31 30  1  0  0  0  0
 32 34  1  0  0  0  0
 33 31  1  0  0  0  0
 34 30  1  0  0  0  0
 35 32  1  0  0  0  0
 35 33  1  0  0  0  0
 37 36  2  0  0  0  0
 38 36  1  0  0  0  0
M  END
>  <MODEL>
5

>  <REMARK>
 VINA RESULT:      -7.3      1.582      4.218
  Name = 
  10 active torsions:
  status: ('A' for Active; 'I' for Inactive)
    1  A    between atoms: C_3  and  C_7
    2  A    between atoms: C_3  and  N_10
    3  A    between atoms: C_3  and  C_31
    4  A    between atoms: N_10  and  C_13
    5  A    between atoms: N_10  and  C_21
    6  A    between atoms: C_14  and  O_26
    7  A    between atoms: C_14  and  C_30
    8  A    between atoms: C_23  and  C_30
    9  A    between atoms: C_25  and  C_30
   10  A    between atoms: O_26  and  C_28
                            x       y       z     vdW  Elec       q    Type
                         _______ _______ _______ _____ _____    ______ ____

>  <TORSDO>
F 10

$$$$
=
 OpenBabel11062419273D

 38 42  0  0  1  0  0  0  0  0999 V2000
  192.4730  175.1570  146.5200 C   0  0  0  0  0  3  0  0  0  0  0  0
  190.4140  178.2940  144.5890 C   0  0  0  0  0  1  0  0  0  0  0  0
  190.2100  176.1970  146.0100 C   0  0  2  0  0  3  0  0  0  0  0  0
  191.5430  174.9680  144.2840 C   0  0  0  0  0  0  0  0  0  0  0  0
  193.6680  173.9240  144.8180 C   0  0  0  0  0  3  0  0  0  0  0  0
  193.5790  174.4050  146.1250 C   0  0  0  0  0  3  0  0  0  0  0  0
  190.5130  175.3050  143.3440 N   0  0  0  0  0  0  0  0  0  0  0  0
  192.6510  174.1830  143.8860 C   0  0  0  0  0  0  0  0  0  0  0  0
  189.5950  176.1990  143.5710 C   0  0  0  0  0  0  0  0  0  0  0  0
  190.3660  177.0340  147.2760 C   0  0  0  0  0  1  0  0  0  0  0  0
  191.4620  175.4580  145.6010 C   0  0  0  0  0  0  0  0  0  0  0  0
  189.6270  177.0150  144.8440 C   0  0  2  0  0  3  0  0  0  0  0  0
  192.7530  173.6400  142.5530 N   0  0  0  0  0  0  0  0  0  0  0  0
  193.7210  174.2080  141.6150 C   0  0  0  0  0  2  0  0  0  0  0  0
  193.5830  175.5960  141.5800 O   0  0  0  0  0  1  0  0  0  0  0  0
  192.1100  172.3660  142.2270 C   0  0  2  0  0  3  0  0  0  0  0  0
  189.5920  172.2680  142.4330 C   0  0  0  0  0  3  0  0  0  0  0  0
  190.5920  173.1150  140.4360 N   0  0  0  0  0  0  0  0  0  0  0  0
  188.2110  173.0460  140.6120 C   0  0  0  0  0  3  0  0  0  0  0  0
  190.7310  172.5760  141.6770 C   0  0  0  0  0  0  0  0  0  0  0  0
  189.3690  173.3500  139.8920 C   0  0  0  0  0  3  0  0  0  0  0  0
  188.3280  172.5030  141.8910 C   0  0  0  0  0  3  0  0  0  0  0  0
  192.1460  171.3880  143.4020 C   0  0  1  0  0  3  0  0  0  0  0  0
  192.1790  170.0130  142.9150 C   0  0  0  0  0  2  0  0  0  0  0  0
  193.4190  170.6520  143.3770 N   0  0  0  0  0  2  0  0  0  0  0  0
  188.6530  176.4440  142.5660 O   0  0  0  0  0  0  0  0  0  0  0  0
  187.2610  176.4010  142.7290 C   0  0  0  0  0  0  0  0  0  0  0  0
  186.6350  175.3080  142.7180 O   0  0  0  0  0  0  0  0  0  0  0  0
  186.5010  177.6750  142.9320 C   0  0  2  0  0  3  0  0  0  0  0  0
  184.8170  178.1870  146.9310 C   0  0  0  0  0  2  0  0  0  0  0  0
  185.2920  176.7980  146.5070 C   0  0  0  0  0  2  0  0  0  0  0  0
  185.1190  178.9990  144.5850 C   0  0  0  0  0  2  0  0  0  0  0  0
  186.2530  176.9050  145.3260 C   0  0  0  0  0  2  0  0  0  0  0  0
  184.1510  178.8990  145.7560 C   0  0  0  0  0  2  0  0  0  0  0  0
  185.5660  177.6000  144.1470 C   0  0  0  0  0  3  0  0  0  0  0  0
  185.7530  177.9930  141.6730 C   0  0  0  0  0  0  0  0  0  0  0  0
  184.3650  177.9380  141.6430 O   0  0  0  0  0  1  0  0  0  0  0  0
  186.3900  178.2530  140.6200 O   0  0  0  0  0  0  0  0  0  0  0  0
  3 10  1  1  0  0  0
  4 11  1  0  0  0  0
  5  6  2  0  0  0  0
  6  1  1  0  0  0  0
  7  9  2  0  0  0  0
  7  4  1  0  0  0  0
  8  4  2  0  0  0  0
  8  5  1  0  0  0  0
  9 12  1  0  0  0  0
 11  3  1  0  0  0  0
 11  1  2  0  0  0  0
 12  2  1  6  0  0  0
 12  3  1  0  0  0  0
 13  8  1  0  0  0  0
 14 13  1  0  0  0  0
 15 14  1  0  0  0  0
 16 13  1  1  0  0  0
 18 20  1  0  0  0  0
 19 22  2  0  0  0  0
 20 16  1  0  0  0  0
 20 17  2  0  0  0  0
 21 18  2  0  0  0  0
 21 19  1  0  0  0  0
 22 17  1  0  0  0  0
 23 16  1  6  0  0  0
 24 25  1  0  0  0  0
 24 23  1  0  0  0  0
 25 23  1  0  0  0  0
 26 27  1  0  0  0  0
 26  9  1  0  0  0  0
 27 29  1  0  0  0  0
 28 27  2  0  0  0  0
 29 36  1  6  0  0  0
 29 35  1  0  0  0  0
 31 30  1  0  0  0  0
 32 34  1  0  0  0  0
 33 31  1  0  0  0  0
 34 30  1  0  0  0  0
 35 32  1  0  0  0  0
 35 33  1  0  0  0  0
 37 36  1  0  0  0  0
 38 36  2  0  0  0  0
M  END
>  <MODEL>
6

>  <REMARK>
 VINA RESULT:      -7.3      1.548      4.174
  Name = 
  10 active torsions:
  status: ('A' for Active; 'I' for Inactive)
    1  A    between atoms: C_3  and  C_7
    2  A    between atoms: C_3  and  N_10
    3  A    between atoms: C_3  and  C_31
    4  A    between atoms: N_10  and  C_13
    5  A    between atoms: N_10  and  C_21
    6  A    between atoms: C_14  and  O_26
    7  A    between atoms: C_14  and  C_30
    8  A    between atoms: C_23  and  C_30
    9  A    between atoms: C_25  and  C_30
   10  A    between atoms: O_26  and  C_28
                            x       y       z     vdW  Elec       q    Type
                         _______ _______ _______ _____ _____    ______ ____

>  <TORSDO>
F 10

$$$$
=
 OpenBabel11062419273D

 38 42  0  0  1  0  0  0  0  0999 V2000
  189.4130  172.9270  142.0270 C   0  0  0  0  0  3  0  0  0  0  0  0
  193.1390  174.4730  140.7870 C   0  0  0  0  0  1  0  0  0  0  0  0
  191.8870  173.1550  142.5640 C   0  0  2  0  0  3  0  0  0  0  0  0
  190.2850  175.0690  142.7710 C   0  0  0  0  0  0  0  0  0  0  0  0
  187.9160  174.8020  142.3200 C   0  0  0  0  0  3  0  0  0  0  0  0
  188.1290  173.4680  141.9690 C   0  0  0  0  0  3  0  0  0  0  0  0
  191.4090  175.8840  143.1350 N   0  0  0  0  0  0  0  0  0  0  0  0
  188.9810  175.6150  142.7380 C   0  0  0  0  0  0  0  0  0  0  0  0
  192.6460  175.5190  142.9690 C   0  0  0  0  0  0  0  0  0  0  0  0
  192.1240  171.8670  141.7830 C   0  0  0  0  0  1  0  0  0  0  0  0
  190.4970  173.7240  142.4080 C   0  0  0  0  0  0  0  0  0  0  0  0
  192.9690  174.2130  142.2790 C   0  0  2  0  0  3  0  0  0  0  0  0
  188.7230  176.9800  143.1300 N   0  0  0  0  0  0  0  0  0  0  0  0
  188.8190  178.0460  142.1350 C   0  0  0  0  0  2  0  0  0  0  0  0
  187.8030  177.9010  141.1900 O   0  0  0  0  0  1  0  0  0  0  0  0
  188.0990  177.2670  144.4240 C   0  0  2  0  0  3  0  0  0  0  0  0
  188.5330  175.4320  146.1090 C   0  0  0  0  0  3  0  0  0  0  0  0
  189.9840  177.3270  146.0100 N   0  0  0  0  0  0  0  0  0  0  0  0
  190.4240  175.6020  147.6010 C   0  0  0  0  0  3  0  0  0  0  0  0
  188.8860  176.6690  145.5520 C   0  0  0  0  0  0  0  0  0  0  0  0
  190.7510  176.8260  147.0150 C   0  0  0  0  0  3  0  0  0  0  0  0
  189.3080  174.9020  147.1410 C   0  0  0  0  0  3  0  0  0  0  0  0
  186.6210  176.8760  144.4480 C   0  0  1  0  0  3  0  0  0  0  0  0
  185.9080  177.6580  145.4520 C   0  0  0  0  0  2  0  0  0  0  0  0
  185.8110  178.0320  144.0340 N   0  0  0  0  0  2  0  0  0  0  0  0
  193.6520  176.4120  143.3550 O   0  0  0  0  0  0  0  0  0  0  0  0
  195.0110  176.0950  143.4940 C   0  0  0  0  0  0  0  0  0  0  0  0
  195.8070  176.1820  142.5220 O   0  0  0  0  0  0  0  0  0  0  0  0
  195.5340  175.6560  144.8270 C   0  0  2  0  0  3  0  0  0  0  0  0
  197.1420  171.5960  144.7290 C   0  0  0  0  0  2  0  0  0  0  0  0
  196.1200  172.0060  143.6700 C   0  0  0  0  0  2  0  0  0  0  0  0
  196.7090  173.7270  145.9640 C   0  0  0  0  0  2  0  0  0  0  0  0
  196.0460  173.5270  143.5670 C   0  0  0  0  0  2  0  0  0  0  0  0
  196.7800  172.2100  146.0790 C   0  0  0  0  0  2  0  0  0  0  0  0
  195.6600  174.1290  144.9210 C   0  0  0  0  0  3  0  0  0  0  0  0
  194.6420  176.2080  145.8970 C   0  0  0  0  0  0  0  0  0  0  0  0
  194.7250  177.5440  146.2660 O   0  0  0  0  0  0  0  0  0  0  0  0
  193.8520  175.4400  146.5060 O   0  0  0  0  0  1  0  0  0  0  0  0
  1 11  1  0  0  0  0
  3 10  1  6  0  0  0
  4  7  1  0  0  0  0
  5  8  2  0  0  0  0
  6  1  2  0  0  0  0
  6  5  1  0  0  0  0
  8  4  1  0  0  0  0
  8 13  1  0  0  0  0
  9  7  2  0  0  0  0
  9 26  1  0  0  0  0
 11  3  1  0  0  0  0
 11  4  2  0  0  0  0
 12  2  1  6  0  0  0
 12  3  1  0  0  0  0
 12  9  1  0  0  0  0
 14 13  1  0  0  0  0
 15 14  1  0  0  0  0
 16 13  1  6  0  0  0
 16 20  1  0  0  0  0
 17 22  1  0  0  0  0
 18 21  2  0  0  0  0
 20 18  1  0  0  0  0
 20 17  2  0  0  0  0
 21 19  1  0  0  0  0
 22 19  2  0  0  0  0
 23 16  1  1  0  0  0
 23 24  1  0  0  0  0
 25 23  1  0  0  0  0
 25 24  1  0  0  0  0
 26 27  1  0  0  0  0
 28 27  2  0  0  0  0
 29 27  1  6  0  0  0
 29 35  1  0  0  0  0
 29 36  1  0  0  0  0
 30 34  1  0  0  0  0
 31 30  1  0  0  0  0
 32 34  1  0  0  0  0
 33 31  1  0  0  0  0
 33 35  1  0  0  0  0
 35 32  1  0  0  0  0
 36 37  2  0  0  0  0
 36 38  1  0  0  0  0
M  END
>  <MODEL>
7

>  <REMARK>
 VINA RESULT:      -7.3      2.097      7.426
  Name = 
  10 active torsions:
  status: ('A' for Active; 'I' for Inactive)
    1  A    between atoms: C_3  and  C_7
    2  A    between atoms: C_3  and  N_10
    3  A    between atoms: C_3  and  C_31
    4  A    between atoms: N_10  and  C_13
    5  A    between atoms: N_10  and  C_21
    6  A    between atoms: C_14  and  O_26
    7  A    between atoms: C_14  and  C_30
    8  A    between atoms: C_23  and  C_30
    9  A    between atoms: C_25  and  C_30
   10  A    between atoms: O_26  and  C_28
                            x       y       z     vdW  Elec       q    Type
                         _______ _______ _______ _____ _____    ______ ____

>  <TORSDO>
F 10

$$$$
=
 OpenBabel11062419273D

 38 42  0  0  1  0  0  0  0  0999 V2000
  185.5040  178.1350  145.6810 C   0  0  0  0  0  3  0  0  0  0  0  0
  187.2750  178.2960  141.8540 C   0  0  0  0  0  1  0  0  0  0  0  0
  185.5260  177.1830  143.3240 C   0  0  2  0  0  3  0  0  0  0  0  0
  187.3280  176.6870  144.9900 C   0  0  0  0  0  0  0  0  0  0  0  0
  187.2430  177.5520  147.2560 C   0  0  0  0  0  3  0  0  0  0  0  0
  186.0620  178.2320  146.9550 C   0  0  0  0  0  3  0  0  0  0  0  0
  187.9850  175.9370  143.9570 N   0  0  0  0  0  0  0  0  0  0  0  0
  187.8830  176.7610  146.2890 C   0  0  0  0  0  0  0  0  0  0  0  0
  187.6610  176.0080  142.7000 C   0  0  0  0  0  0  0  0  0  0  0  0
  184.5110  178.2540  142.9370 C   0  0  0  0  0  1  0  0  0  0  0  0
  186.1400  177.3810  144.6890 C   0  0  0  0  0  0  0  0  0  0  0  0
  186.6010  176.9860  142.2410 C   0  0  2  0  0  3  0  0  0  0  0  0
  189.0830  176.0400  146.6400 N   0  0  0  0  0  0  0  0  0  0  0  0
  189.0420  174.5830  146.7520 C   0  0  0  0  0  2  0  0  0  0  0  0
  188.5650  174.2210  148.0120 O   0  0  0  0  0  1  0  0  0  0  0  0
  190.3820  176.7150  146.6070 C   0  0  2  0  0  3  0  0  0  0  0  0
  190.8960  177.9140  144.4400 C   0  0  0  0  0  3  0  0  0  0  0  0
  191.5430  175.6310  144.7230 N   0  0  0  0  0  0  0  0  0  0  0  0
  192.0520  176.7450  142.6720 C   0  0  0  0  0  3  0  0  0  0  0  0
  190.9430  176.7470  145.2160 C   0  0  0  0  0  0  0  0  0  0  0  0
  192.0900  175.6050  143.4780 C   0  0  0  0  0  3  0  0  0  0  0  0
  191.4510  177.9050  143.1600 C   0  0  0  0  0  3  0  0  0  0  0  0
  191.3560  176.1390  147.6350 C   0  0  1  0  0  3  0  0  0  0  0  0
  192.5970  176.9050  147.6400 C   0  0  0  0  0  2  0  0  0  0  0  0
  191.5930  177.1400  148.6870 N   0  0  0  0  0  2  0  0  0  0  0  0
  188.3890  175.2350  141.7890 O   0  0  0  0  0  0  0  0  0  0  0  0
  188.4550  173.8350  141.7820 C   0  0  0  0  0  0  0  0  0  0  0  0
  187.4110  173.1300  141.8190 O   0  0  0  0  0  0  0  0  0  0  0  0
  189.7890  173.1580  141.7160 C   0  0  2  0  0  3  0  0  0  0  0  0
  190.9880  173.6530  137.5450 C   0  0  0  0  0  2  0  0  0  0  0  0
  189.6080  173.0710  137.8470 C   0  0  0  0  0  2  0  0  0  0  0  0
  191.5860  173.4770  139.9660 C   0  0  0  0  0  2  0  0  0  0  0  0
  189.1910  173.4150  139.2750 C   0  0  0  0  0  2  0  0  0  0  0  0
  192.0140  173.1290  138.5470 C   0  0  0  0  0  2  0  0  0  0  0  0
  190.2140  172.8640  140.2710 C   0  0  0  0  0  3  0  0  0  0  0  0
  189.7340  171.9110  142.5450 C   0  0  0  0  0  0  0  0  0  0  0  0
  189.3020  171.9580  143.8640 O   0  0  0  0  0  1  0  0  0  0  0  0
  190.1380  170.8220  142.0590 O   0  0  0  0  0  0  0  0  0  0  0  0
  1  6  1  0  0  0  0
  3 10  1  6  0  0  0
  3 11  1  0  0  0  0
  4  8  2  0  0  0  0
  6  5  2  0  0  0  0
  7  4  1  0  0  0  0
  8 13  1  0  0  0  0
  8  5  1  0  0  0  0
  9  7  2  0  0  0  0
 11  4  1  0  0  0  0
 11  1  2  0  0  0  0
 12  2  1  1  0  0  0
 12  9  1  0  0  0  0
 12  3  1  0  0  0  0
 13 14  1  0  0  0  0
 14 15  1  0  0  0  0
 16 13  1  6  0  0  0
 17 20  1  0  0  0  0
 18 20  2  0  0  0  0
 19 22  1  0  0  0  0
 19 21  2  0  0  0  0
 20 16  1  0  0  0  0
 21 18  1  0  0  0  0
 22 17  2  0  0  0  0
 23 16  1  6  0  0  0
 23 24  1  0  0  0  0
 23 25  1  0  0  0  0
 24 25  1  0  0  0  0
 26  9  1  0  0  0  0
 27 26  1  0  0  0  0
 27 28  2  0  0  0  0
 29 27  1  6  0  0  0
 29 36  1  0  0  0  0
 30 31  1  0  0  0  0
 30 34  1  0  0  0  0
 31 33  1  0  0  0  0
 32 35  1  0  0  0  0
 33 35  1  0  0  0  0
 34 32  1  0  0  0  0
 35 29  1  0  0  0  0
 36 37  1  0  0  0  0
 38 36  2  0  0  0  0
M  END
>  <MODEL>
8

>  <REMARK>
 VINA RESULT:      -7.2      2.320      6.836
  Name = 
  10 active torsions:
  status: ('A' for Active; 'I' for Inactive)
    1  A    between atoms: C_3  and  C_7
    2  A    between atoms: C_3  and  N_10
    3  A    between atoms: C_3  and  C_31
    4  A    between atoms: N_10  and  C_13
    5  A    between atoms: N_10  and  C_21
    6  A    between atoms: C_14  and  O_26
    7  A    between atoms: C_14  and  C_30
    8  A    between atoms: C_23  and  C_30
    9  A    between atoms: C_25  and  C_30
   10  A    between atoms: O_26  and  C_28
                            x       y       z     vdW  Elec       q    Type
                         _______ _______ _______ _____ _____    ______ ____

>  <TORSDO>
F 10

$$$$
=
 OpenBabel11062419273D

 38 42  0  0  1  0  0  0  0  0999 V2000
  189.6920  172.9280  141.0980 C   0  0  0  0  0  3  0  0  0  0  0  0
  193.4290  174.8230  140.5910 C   0  0  0  0  0  1  0  0  0  0  0  0
  192.1050  173.0820  141.8860 C   0  0  2  0  0  3  0  0  0  0  0  0
  190.4060  174.8470  142.4060 C   0  0  0  0  0  0  0  0  0  0  0  0
  188.0930  174.6370  141.7020 C   0  0  0  0  0  3  0  0  0  0  0  0
  188.3940  173.4340  141.0620 C   0  0  0  0  0  3  0  0  0  0  0  0
  191.4600  175.5780  143.0500 N   0  0  0  0  0  0  0  0  0  0  0  0
  189.0850  175.3510  142.3930 C   0  0  0  0  0  0  0  0  0  0  0  0
  192.7220  175.2960  142.9090 C   0  0  0  0  0  0  0  0  0  0  0  0
  192.4600  172.0290  140.8420 C   0  0  0  0  0  1  0  0  0  0  0  0
  190.7070  173.6370  141.7510 C   0  0  0  0  0  0  0  0  0  0  0  0
  193.1560  174.2050  141.9560 C   0  0  2  0  0  3  0  0  0  0  0  0
  188.7350  176.5730  143.0760 N   0  0  0  0  0  0  0  0  0  0  0  0
  188.9960  177.8600  142.4320 C   0  0  0  0  0  2  0  0  0  0  0  0
  188.2710  177.9460  141.2430 O   0  0  0  0  0  1  0  0  0  0  0  0
  187.8780  176.5320  144.2630 C   0  0  2  0  0  3  0  0  0  0  0  0
  185.6050  177.0630  143.2890 C   0  0  0  0  0  3  0  0  0  0  0  0
  186.6430  178.5950  144.8010 N   0  0  0  0  0  0  0  0  0  0  0  0
  184.4900  179.1140  143.9060 C   0  0  0  0  0  3  0  0  0  0  0  0
  186.6860  177.4280  144.1050 C   0  0  0  0  0  0  0  0  0  0  0  0
  185.5800  179.4390  144.7160 C   0  0  0  0  0  3  0  0  0  0  0  0
  184.5060  177.9170  143.1900 C   0  0  0  0  0  3  0  0  0  0  0  0
  188.6630  176.7960  145.5480 C   0  0  1  0  0  3  0  0  0  0  0  0
  188.0050  176.1560  146.6820 C   0  0  0  0  0  2  0  0  0  0  0  0
  189.1780  175.5200  146.0680 N   0  0  0  0  0  2  0  0  0  0  0  0
  193.6530  176.0950  143.5820 O   0  0  0  0  0  0  0  0  0  0  0  0
  194.9530  175.7060  143.9340 C   0  0  0  0  0  0  0  0  0  0  0  0
  195.8350  175.5010  143.0580 O   0  0  0  0  0  0  0  0  0  0  0  0
  195.3090  175.5420  145.3790 C   0  0  2  0  0  3  0  0  0  0  0  0
  195.8580  171.2080  145.3040 C   0  0  0  0  0  2  0  0  0  0  0  0
  194.4390  171.7670  145.3970 C   0  0  0  0  0  2  0  0  0  0  0  0
  196.7790  173.5040  145.6710 C   0  0  0  0  0  2  0  0  0  0  0  0
  194.4120  173.2220  144.9370 C   0  0  0  0  0  2  0  0  0  0  0  0
  196.8150  172.0550  146.1390 C   0  0  0  0  0  2  0  0  0  0  0  0
  195.3570  174.0650  145.7960 C   0  0  0  0  0  3  0  0  0  0  0  0
  194.3320  176.3210  146.2050 C   0  0  0  0  0  0  0  0  0  0  0  0
  193.1700  175.7240  146.6770 O   0  0  0  0  0  1  0  0  0  0  0  0
  194.5380  177.5430  146.4250 O   0  0  0  0  0  0  0  0  0  0  0  0
  1 11  1  0  0  0  0
  3 10  1  6  0  0  0
  3 12  1  0  0  0  0
  4  7  1  0  0  0  0
  5  8  2  0  0  0  0
  6  1  2  0  0  0  0
  6  5  1  0  0  0  0
  8  4  1  0  0  0  0
  8 13  1  0  0  0  0
  9  7  2  0  0  0  0
  9 26  1  0  0  0  0
 11  3  1  0  0  0  0
 11  4  2  0  0  0  0
 12  2  1  6  0  0  0
 12  9  1  0  0  0  0
 14 13  1  0  0  0  0
 15 14  1  0  0  0  0
 16 13  1  6  0  0  0
 17 20  1  0  0  0  0
 19 21  2  0  0  0  0
 20 16  1  0  0  0  0
 20 18  2  0  0  0  0
 21 18  1  0  0  0  0
 22 17  2  0  0  0  0
 22 19  1  0  0  0  0
 23 16  1  6  0  0  0
 23 25  1  0  0  0  0
 23 24  1  0  0  0  0
 25 24  1  0  0  0  0
 26 27  1  0  0  0  0
 28 27  2  0  0  0  0
 29 27  1  6  0  0  0
 29 35  1  0  0  0  0
 29 36  1  0  0  0  0
 30 31  1  0  0  0  0
 30 34  1  0  0  0  0
 32 35  1  0  0  0  0
 32 34  1  0  0  0  0
 33 31  1  0  0  0  0
 33 35  1  0  0  0  0
 36 38  2  0  0  0  0
 36 37  1  0  0  0  0
M  END
>  <MODEL>
9

>  <REMARK>
 VINA RESULT:      -7.2      1.959      7.410
  Name = 
  10 active torsions:
  status: ('A' for Active; 'I' for Inactive)
    1  A    between atoms: C_3  and  C_7
    2  A    between atoms: C_3  and  N_10
    3  A    between atoms: C_3  and  C_31
    4  A    between atoms: N_10  and  C_13
    5  A    between atoms: N_10  and  C_21
    6  A    between atoms: C_14  and  O_26
    7  A    between atoms: C_14  and  C_30
    8  A    between atoms: C_23  and  C_30
    9  A    between atoms: C_25  and  C_30
   10  A    between atoms: O_26  and  C_28
                            x       y       z     vdW  Elec       q    Type
                         _______ _______ _______ _____ _____    ______ ____

>  <TORSDO>
F 10

$$$$
