=
 OpenBabel11072409143D

 39 43  0  0  1  0  0  0  0  0999 V2000
  192.3440  173.1280  144.9090 C   0  0  0  0  0  2  0  0  0  0  0  0
  193.3520  173.3570  143.8740 N   0  0  0  0  0  0  0  0  0  0  0  0
  195.3100  173.2380  145.3850 C   0  0  0  0  0  3  0  0  0  0  0  0
  196.6190  173.5970  145.7010 C   0  0  0  0  0  0  0  0  0  0  0  0
  195.4540  174.5670  143.3820 C   0  0  0  0  0  3  0  0  0  0  0  0
  196.7290  174.9060  143.7100 N   0  0  0  0  0  0  0  0  0  0  0  0
  194.7050  173.7200  144.2150 C   0  0  0  0  0  0  0  0  0  0  0  0
  197.2020  173.1310  146.8310 F   0  0  0  0  0  0  0  0  0  0  0  0
  197.3220  174.4420  144.8410 C   0  0  0  0  0  3  0  0  0  0  0  0
  192.9140  173.3600  142.4820 C   0  0  0  0  0  2  0  0  0  0  0  0
  190.6940  170.6660  140.9440 C   0  0  0  0  0  3  0  0  0  0  0  0
  192.3260  172.0330  142.1120 C   0  0  0  0  0  0  0  0  0  0  0  0
  191.3150  169.5110  141.4240 C   0  0  0  0  0  3  0  0  0  0  0  0
  191.1910  171.9370  141.2800 C   0  0  0  0  0  0  0  0  0  0  0  0
  192.9420  170.8700  142.5860 C   0  0  0  0  0  3  0  0  0  0  0  0
  192.4390  169.6130  142.2440 C   0  0  0  0  0  3  0  0  0  0  0  0
  190.5310  173.1560  140.7740 C   0  0  0  0  0  3  0  0  0  0  0  0
  189.2270  173.2330  140.5430 C   0  0  0  0  0  3  0  0  0  0  0  0
  188.6760  174.4140  140.0660 O   0  0  0  0  0  0  0  0  0  0  0  0
  188.1590  175.3710  140.9720 C   0  0  0  0  0  1  0  0  0  0  0  0
  191.7670  174.4540  145.4140 C   0  0  2  0  0  3  0  0  0  0  0  0
  193.2210  176.8070  145.2830 O   0  0  0  0  0  1  0  0  0  0  0  0
  193.2230  176.2940  146.5830 C   0  0  1  0  0  3  0  0  0  0  0  0
  191.8230  176.3790  147.1530 C   0  0  0  0  0  2  0  0  0  0  0  0
  192.3670  175.0260  146.7270 C   0  0  1  0  0  3  0  0  0  0  0  0
  189.7030  173.7470  144.2140 C   0  0  0  0  0  2  0  0  0  0  0  0
  190.2450  174.4050  145.4660 C   0  0  2  0  0  3  0  0  0  0  0  0
  189.6760  175.2550  144.3470 C   0  0  2  0  0  3  0  0  0  0  0  0
  188.3370  175.6820  144.7150 N   0  0  0  0  0  2  0  0  0  0  0  0
  188.5260  177.7560  143.6570 O   0  0  0  0  0  0  0  0  0  0  0  0
  187.8200  176.9570  144.3320 C   0  0  0  0  0  0  0  0  0  0  0  0
  186.4360  177.3360  144.7510 C   0  0  1  0  0  3  0  0  0  0  0  0
  185.3300  179.1530  145.8850 N   0  0  0  0  0  0  0  0  0  0  0  0
  185.7350  180.5350  144.0620 F   0  0  0  0  0  0  0  0  0  0  0  0
  186.4560  178.2150  145.9800 C   0  0  1  0  0  3  0  0  0  0  0  0
  185.7660  178.1890  143.6990 C   0  0  0  0  0  2  0  0  0  0  0  0
  186.5080  177.4150  147.2810 C   0  0  0  0  0  1  0  0  0  0  0  0
  185.1320  179.3530  144.4510 C   0  0  1  0  0  3  0  0  0  0  0  0
  184.0910  178.5570  146.3810 C   0  0  0  0  0  1  0  0  0  0  0  0
  2  7  1  0  0  0  0
  2  1  1  0  0  0  0
  3  4  1  0  0  0  0
  4  8  1  0  0  0  0
  5  6  2  0  0  0  0
  5  7  1  0  0  0  0
  6  9  1  0  0  0  0
  7  3  2  0  0  0  0
  9  4  2  0  0  0  0
 10  2  1  0  0  0  0
 11 14  2  0  0  0  0
 11 13  1  0  0  0  0
 12 10  1  0  0  0  0
 12 15  2  0  0  0  0
 13 16  2  0  0  0  0
 14 12  1  0  0  0  0
 16 15  1  0  0  0  0
 17 14  1  0  0  0  0
 18 17  2  0  0  0  0
 19 18  1  0  0  0  0
 19 20  1  0  0  0  0
 21  1  1  1  0  0  0
 23 22  1  6  0  0  0
 23 25  1  0  0  0  0
 23 24  1  0  0  0  0
 25 21  1  6  0  0  0
 25 24  1  0  0  0  0
 26 28  1  0  0  0  0
 26 27  1  0  0  0  0
 27 21  1  6  0  0  0
 28 29  1  1  0  0  0
 28 27  1  0  0  0  0
 30 31  2  0  0  0  0
 31 29  1  0  0  0  0
 32 31  1  6  0  0  0
 32 35  1  0  0  0  0
 33 35  1  0  0  0  0
 33 39  1  0  0  0  0
 35 37  1  1  0  0  0
 36 38  1  0  0  0  0
 36 32  1  0  0  0  0
 38 34  1  6  0  0  0
 38 33  1  0  0  0  0
M  END
>  <MODEL>
1

>  <REMARK>
 VINA RESULT:      -7.1      0.000      0.000
  Name = 
  11 active torsions:
  status: ('A' for Active; 'I' for Inactive)
    1  A    between atoms: N_1  and  C_32
    2  A    between atoms: C_6  and  C_23
    3  A    between atoms: O_7  and  C_35
    4  A    between atoms: C_8  and  C_30
    5  A    between atoms: C_10  and  C_21
    6  A    between atoms: C_20  and  N_26
    7  A    between atoms: C_23  and  N_26
    8  A    between atoms: N_26  and  C_37
    9  A    between atoms: C_31  and  C_39
   10  A    between atoms: C_34  and  C_39
   11  A    between atoms: C_37  and  C_39
                            x       y       z     vdW  Elec       q    Type
                         _______ _______ _______ _____ _____    ______ ____

>  <TORSDO>
F 11

$$$$
=
 OpenBabel11072409143D

 39 43  0  0  1  0  0  0  0  0999 V2000
  192.3800  172.3940  144.6830 C   0  0  0  0  0  2  0  0  0  0  0  0
  193.1260  172.2740  143.4310 N   0  0  0  0  0  0  0  0  0  0  0  0
  191.5090  171.9290  141.5880 C   0  0  0  0  0  3  0  0  0  0  0  0
  190.9570  172.3250  140.3710 C   0  0  0  0  0  0  0  0  0  0  0  0
  193.0030  173.8150  141.4970 C   0  0  0  0  0  3  0  0  0  0  0  0
  192.4520  174.1830  140.3110 N   0  0  0  0  0  0  0  0  0  0  0  0
  192.5450  172.6710  142.1720 C   0  0  0  0  0  0  0  0  0  0  0  0
  189.9560  171.6070  139.8080 F   0  0  0  0  0  0  0  0  0  0  0  0
  191.4460  173.4690  139.7390 C   0  0  0  0  0  3  0  0  0  0  0  0
  194.4190  171.5980  143.4680 C   0  0  0  0  0  2  0  0  0  0  0  0
  196.9160  172.7570  146.1090 C   0  0  0  0  0  3  0  0  0  0  0  0
  195.4190  172.4150  144.2280 C   0  0  0  0  0  0  0  0  0  0  0  0
  197.3220  173.9780  145.5670 C   0  0  0  0  0  3  0  0  0  0  0  0
  195.9630  171.9630  145.4490 C   0  0  0  0  0  0  0  0  0  0  0  0
  195.8340  173.6390  143.6920 C   0  0  0  0  0  3  0  0  0  0  0  0
  196.7810  174.4180  144.3580 C   0  0  0  0  0  3  0  0  0  0  0  0
  195.5330  170.6740  146.0250 C   0  0  0  0  0  3  0  0  0  0  0  0
  196.3790  169.7940  146.5450 C   0  0  0  0  0  3  0  0  0  0  0  0
  195.9020  168.6000  147.0690 O   0  0  0  0  0  0  0  0  0  0  0  0
  194.6200  168.5530  147.6690 C   0  0  0  0  0  1  0  0  0  0  0  0
  192.1310  173.8640  145.0320 C   0  0  2  0  0  3  0  0  0  0  0  0
  193.1860  176.3650  144.4840 O   0  0  0  0  0  1  0  0  0  0  0  0
  193.6930  175.8640  145.6860 C   0  0  1  0  0  3  0  0  0  0  0  0
  192.5770  175.7960  146.7070 C   0  0  0  0  0  2  0  0  0  0  0  0
  193.0830  174.5100  146.0760 C   0  0  1  0  0  3  0  0  0  0  0  0
  189.7730  173.3030  144.4590 C   0  0  0  0  0  2  0  0  0  0  0  0
  190.6680  174.1030  145.3840 C   0  0  2  0  0  3  0  0  0  0  0  0
  189.9750  174.7840  144.2190 C   0  0  2  0  0  3  0  0  0  0  0  0
  188.8230  175.5140  144.7170 N   0  0  0  0  0  2  0  0  0  0  0  0
  189.6640  177.6020  144.0930 O   0  0  0  0  0  0  0  0  0  0  0  0
  188.7300  176.9350  144.6200 C   0  0  0  0  0  0  0  0  0  0  0  0
  187.5190  177.6240  145.1610 C   0  0  1  0  0  3  0  0  0  0  0  0
  185.3500  177.0380  146.0340 N   0  0  0  0  0  0  0  0  0  0  0  0
  186.3550  176.1530  147.9320 F   0  0  0  0  0  0  0  0  0  0  0  0
  186.2680  176.8150  144.9090 C   0  0  1  0  0  3  0  0  0  0  0  0
  187.5880  177.7380  146.6660 C   0  0  0  0  0  2  0  0  0  0  0  0
  185.6600  177.0740  143.5320 C   0  0  0  0  0  1  0  0  0  0  0  0
  186.2190  177.3040  147.1770 C   0  0  1  0  0  3  0  0  0  0  0  0
  184.5540  178.2500  145.8460 C   0  0  0  0  0  1  0  0  0  0  0  0
  2 10  1  0  0  0  0
  2  1  1  0  0  0  0
  3  7  1  0  0  0  0
  4  3  2  0  0  0  0
  5  7  2  0  0  0  0
  6  5  1  0  0  0  0
  7  2  1  0  0  0  0
  8  4  1  0  0  0  0
  9  6  2  0  0  0  0
  9  4  1  0  0  0  0
 10 12  1  0  0  0  0
 12 14  1  0  0  0  0
 13 11  1  0  0  0  0
 14 17  1  0  0  0  0
 14 11  2  0  0  0  0
 15 12  2  0  0  0  0
 15 16  1  0  0  0  0
 16 13  2  0  0  0  0
 17 18  2  0  0  0  0
 18 19  1  0  0  0  0
 19 20  1  0  0  0  0
 21  1  1  1  0  0  0
 23 22  1  6  0  0  0
 23 25  1  0  0  0  0
 23 24  1  0  0  0  0
 25 21  1  6  0  0  0
 25 24  1  0  0  0  0
 26 27  1  0  0  0  0
 27 21  1  6  0  0  0
 28 26  1  0  0  0  0
 28 29  1  1  0  0  0
 28 27  1  0  0  0  0
 30 31  2  0  0  0  0
 31 29  1  0  0  0  0
 32 31  1  1  0  0  0
 32 36  1  0  0  0  0
 33 38  1  0  0  0  0
 35 37  1  6  0  0  0
 35 32  1  0  0  0  0
 35 33  1  0  0  0  0
 36 38  1  0  0  0  0
 38 34  1  6  0  0  0
 39 33  1  0  0  0  0
M  END
>  <MODEL>
2

>  <REMARK>
 VINA RESULT:      -7.0      2.842      5.303
  Name = 
  11 active torsions:
  status: ('A' for Active; 'I' for Inactive)
    1  A    between atoms: N_1  and  C_32
    2  A    between atoms: C_6  and  C_23
    3  A    between atoms: O_7  and  C_35
    4  A    between atoms: C_8  and  C_30
    5  A    between atoms: C_10  and  C_21
    6  A    between atoms: C_20  and  N_26
    7  A    between atoms: C_23  and  N_26
    8  A    between atoms: N_26  and  C_37
    9  A    between atoms: C_31  and  C_39
   10  A    between atoms: C_34  and  C_39
   11  A    between atoms: C_37  and  C_39
                            x       y       z     vdW  Elec       q    Type
                         _______ _______ _______ _____ _____    ______ ____

>  <TORSDO>
F 11

$$$$
=
 OpenBabel11072409143D

 39 43  0  0  1  0  0  0  0  0999 V2000
  192.2000  173.2640  144.8580 C   0  0  0  0  0  2  0  0  0  0  0  0
  193.2620  173.3340  143.8560 N   0  0  0  0  0  0  0  0  0  0  0  0
  195.2380  172.9740  145.3040 C   0  0  0  0  0  3  0  0  0  0  0  0
  196.5550  173.2700  145.6510 C   0  0  0  0  0  0  0  0  0  0  0  0
  195.3720  174.5840  143.5180 C   0  0  0  0  0  3  0  0  0  0  0  0
  196.6550  174.8590  143.8730 N   0  0  0  0  0  0  0  0  0  0  0  0
  194.6240  173.6290  144.2270 C   0  0  0  0  0  0  0  0  0  0  0  0
  197.1480  172.6370  146.6910 F   0  0  0  0  0  0  0  0  0  0  0  0
  197.2570  174.2260  144.9150 C   0  0  0  0  0  3  0  0  0  0  0  0
  192.8810  173.2490  142.4500 C   0  0  0  0  0  2  0  0  0  0  0  0
  190.5300  170.5540  141.1220 C   0  0  0  0  0  3  0  0  0  0  0  0
  192.2490  171.9230  142.1550 C   0  0  0  0  0  0  0  0  0  0  0  0
  191.1550  169.4020  141.6030 C   0  0  0  0  0  3  0  0  0  0  0  0
  191.0680  171.8240  141.3900 C   0  0  0  0  0  0  0  0  0  0  0  0
  192.8700  170.7630  142.6300 C   0  0  0  0  0  3  0  0  0  0  0  0
  192.3250  169.5070  142.3570 C   0  0  0  0  0  3  0  0  0  0  0  0
  190.4040  173.0410  140.8830 C   0  0  0  0  0  3  0  0  0  0  0  0
  189.1600  173.0490  140.4200 C   0  0  0  0  0  3  0  0  0  0  0  0
  188.6000  174.2320  139.9580 O   0  0  0  0  0  0  0  0  0  0  0  0
  188.2030  175.2340  140.8760 C   0  0  0  0  0  1  0  0  0  0  0  0
  191.8480  174.6610  145.3800 C   0  0  2  0  0  3  0  0  0  0  0  0
  193.4540  176.9160  145.3630 O   0  0  0  0  0  1  0  0  0  0  0  0
  193.4510  176.3180  146.6260 C   0  0  1  0  0  3  0  0  0  0  0  0
  192.0730  176.4580  147.2390 C   0  0  0  0  0  2  0  0  0  0  0  0
  192.5150  175.1030  146.7110 C   0  0  1  0  0  3  0  0  0  0  0  0
  189.6790  174.0550  144.3170 C   0  0  0  0  0  2  0  0  0  0  0  0
  190.3390  174.8690  145.4120 C   0  0  2  0  0  3  0  0  0  0  0  0
  189.8960  175.5410  144.1260 C   0  0  2  0  0  3  0  0  0  0  0  0
  188.6500  176.2460  144.3670 N   0  0  0  0  0  2  0  0  0  0  0  0
  189.2650  178.1120  143.1040 O   0  0  0  0  0  0  0  0  0  0  0  0
  188.3960  177.5400  143.8190 C   0  0  0  0  0  0  0  0  0  0  0  0
  187.0950  178.2130  144.1150 C   0  0  1  0  0  3  0  0  0  0  0  0
  184.7500  177.6590  144.1670 N   0  0  0  0  0  0  0  0  0  0  0  0
  185.1050  176.3350  146.0420 F   0  0  0  0  0  0  0  0  0  0  0  0
  185.9610  177.5810  143.3410 C   0  0  1  0  0  3  0  0  0  0  0  0
  186.7030  178.0240  145.5620 C   0  0  0  0  0  2  0  0  0  0  0  0
  185.8100  178.1560  141.9340 C   0  0  0  0  0  1  0  0  0  0  0  0
  185.2340  177.6190  145.5440 C   0  0  1  0  0  3  0  0  0  0  0  0
  184.0780  178.9490  144.0160 C   0  0  0  0  0  1  0  0  0  0  0  0
  2  7  1  0  0  0  0
  2  1  1  0  0  0  0
  3  4  1  0  0  0  0
  4  8  1  0  0  0  0
  5  6  2  0  0  0  0
  5  7  1  0  0  0  0
  6  9  1  0  0  0  0
  7  3  2  0  0  0  0
  9  4  2  0  0  0  0
 10  2  1  0  0  0  0
 11 14  2  0  0  0  0
 11 13  1  0  0  0  0
 12 10  1  0  0  0  0
 12 15  2  0  0  0  0
 13 16  2  0  0  0  0
 14 12  1  0  0  0  0
 16 15  1  0  0  0  0
 17 14  1  0  0  0  0
 18 17  2  0  0  0  0
 19 18  1  0  0  0  0
 19 20  1  0  0  0  0
 21  1  1  1  0  0  0
 23 22  1  6  0  0  0
 23 25  1  0  0  0  0
 23 24  1  0  0  0  0
 25 21  1  6  0  0  0
 25 24  1  0  0  0  0
 26 27  1  0  0  0  0
 27 21  1  6  0  0  0
 28 26  1  0  0  0  0
 28 29  1  1  0  0  0
 28 27  1  0  0  0  0
 30 31  2  0  0  0  0
 31 29  1  0  0  0  0
 32 31  1  1  0  0  0
 32 36  1  0  0  0  0
 33 38  1  0  0  0  0
 35 37  1  6  0  0  0
 35 32  1  0  0  0  0
 35 33  1  0  0  0  0
 38 36  1  0  0  0  0
 38 34  1  6  0  0  0
 39 33  1  0  0  0  0
M  END
>  <MODEL>
3

>  <REMARK>
 VINA RESULT:      -6.9      1.032      1.476
  Name = 
  11 active torsions:
  status: ('A' for Active; 'I' for Inactive)
    1  A    between atoms: N_1  and  C_32
    2  A    between atoms: C_6  and  C_23
    3  A    between atoms: O_7  and  C_35
    4  A    between atoms: C_8  and  C_30
    5  A    between atoms: C_10  and  C_21
    6  A    between atoms: C_20  and  N_26
    7  A    between atoms: C_23  and  N_26
    8  A    between atoms: N_26  and  C_37
    9  A    between atoms: C_31  and  C_39
   10  A    between atoms: C_34  and  C_39
   11  A    between atoms: C_37  and  C_39
                            x       y       z     vdW  Elec       q    Type
                         _______ _______ _______ _____ _____    ______ ____

>  <TORSDO>
F 11

$$$$
=
 OpenBabel11072409143D

 39 43  0  0  1  0  0  0  0  0999 V2000
  192.6870  172.7470  144.7890 C   0  0  0  0  0  2  0  0  0  0  0  0
  193.2170  172.5620  143.4390 N   0  0  0  0  0  0  0  0  0  0  0  0
  191.3870  171.9970  141.8690 C   0  0  0  0  0  3  0  0  0  0  0  0
  190.6250  172.2950  140.7410 C   0  0  0  0  0  0  0  0  0  0  0  0
  192.6560  174.0130  141.5130 C   0  0  0  0  0  3  0  0  0  0  0  0
  191.9020  174.2840  140.4150 N   0  0  0  0  0  0  0  0  0  0  0  0
  192.4190  172.8560  142.2740 C   0  0  0  0  0  0  0  0  0  0  0  0
  189.6280  171.4650  140.3510 F   0  0  0  0  0  0  0  0  0  0  0  0
  190.8990  173.4570  140.0180 C   0  0  0  0  0  3  0  0  0  0  0  0
  194.5230  171.9260  143.2990 C   0  0  0  0  0  2  0  0  0  0  0  0
  197.0980  174.4400  144.5640 C   0  0  0  0  0  3  0  0  0  0  0  0
  195.5420  172.6230  144.1480 C   0  0  0  0  0  0  0  0  0  0  0  0
  197.4010  173.8960  145.8140 C   0  0  0  0  0  3  0  0  0  0  0  0
  196.1670  173.8130  143.7190 C   0  0  0  0  0  0  0  0  0  0  0  0
  195.8510  172.0880  145.4030 C   0  0  0  0  0  3  0  0  0  0  0  0
  196.7780  172.7200  146.2330 C   0  0  0  0  0  3  0  0  0  0  0  0
  195.8490  174.3880  142.3980 C   0  0  0  0  0  3  0  0  0  0  0  0
  195.9840  175.6780  142.1160 C   0  0  0  0  0  3  0  0  0  0  0  0
  195.6650  176.1480  140.8500 O   0  0  0  0  0  0  0  0  0  0  0  0
  195.7610  175.2880  139.7300 C   0  0  0  0  0  1  0  0  0  0  0  0
  192.3990  174.2270  145.0650 C   0  0  2  0  0  3  0  0  0  0  0  0
  193.2930  176.6860  144.1620 O   0  0  0  0  0  1  0  0  0  0  0  0
  193.9510  176.3210  145.3400 C   0  0  1  0  0  3  0  0  0  0  0  0
  192.9600  176.3250  146.4840 C   0  0  0  0  0  2  0  0  0  0  0  0
  193.4390  174.9960  145.9250 C   0  0  1  0  0  3  0  0  0  0  0  0
  190.0530  173.3950  144.9720 C   0  0  0  0  0  2  0  0  0  0  0  0
  190.9820  174.4200  145.5910 C   0  0  2  0  0  3  0  0  0  0  0  0
  190.0700  174.8140  144.4450 C   0  0  2  0  0  3  0  0  0  0  0  0
  188.9300  175.5390  144.9780 N   0  0  0  0  0  2  0  0  0  0  0  0
  189.5090  177.5500  143.9410 O   0  0  0  0  0  0  0  0  0  0  0  0
  188.7070  176.9180  144.6820 C   0  0  0  0  0  0  0  0  0  0  0  0
  187.5170  177.6060  145.2710 C   0  0  1  0  0  3  0  0  0  0  0  0
  185.3590  177.0220  146.1710 N   0  0  0  0  0  0  0  0  0  0  0  0
  186.3910  176.0600  148.0170 F   0  0  0  0  0  0  0  0  0  0  0  0
  186.2490  176.8230  145.0200 C   0  0  1  0  0  3  0  0  0  0  0  0
  187.6190  177.6690  146.7770 C   0  0  0  0  0  2  0  0  0  0  0  0
  185.6170  177.1350  143.6650 C   0  0  0  0  0  1  0  0  0  0  0  0
  186.2560  177.2370  147.3030 C   0  0  1  0  0  3  0  0  0  0  0  0
  184.5780  178.2500  146.0400 C   0  0  0  0  0  1  0  0  0  0  0  0
  2  1  1  0  0  0  0
  3  7  1  0  0  0  0
  4  3  2  0  0  0  0
  5  7  2  0  0  0  0
  6  5  1  0  0  0  0
  7  2  1  0  0  0  0
  8  4  1  0  0  0  0
  9  6  2  0  0  0  0
  9  4  1  0  0  0  0
 10  2  1  0  0  0  0
 10 12  1  0  0  0  0
 11 13  1  0  0  0  0
 12 15  2  0  0  0  0
 13 16  2  0  0  0  0
 14 12  1  0  0  0  0
 14 11  2  0  0  0  0
 15 16  1  0  0  0  0
 17 14  1  0  0  0  0
 18 17  2  0  0  0  0
 19 18  1  0  0  0  0
 20 19  1  0  0  0  0
 21  1  1  1  0  0  0
 23 22  1  6  0  0  0
 23 25  1  0  0  0  0
 23 24  1  0  0  0  0
 25 21  1  6  0  0  0
 25 24  1  0  0  0  0
 26 27  1  0  0  0  0
 27 21  1  6  0  0  0
 28 26  1  0  0  0  0
 28 29  1  1  0  0  0
 28 27  1  0  0  0  0
 30 31  2  0  0  0  0
 31 29  1  0  0  0  0
 32 31  1  1  0  0  0
 32 36  1  0  0  0  0
 33 38  1  0  0  0  0
 35 37  1  6  0  0  0
 35 32  1  0  0  0  0
 35 33  1  0  0  0  0
 36 38  1  0  0  0  0
 38 34  1  6  0  0  0
 39 33  1  0  0  0  0
M  END
>  <MODEL>
4

>  <REMARK>
 VINA RESULT:      -6.7      2.523      4.732
  Name = 
  11 active torsions:
  status: ('A' for Active; 'I' for Inactive)
    1  A    between atoms: N_1  and  C_32
    2  A    between atoms: C_6  and  C_23
    3  A    between atoms: O_7  and  C_35
    4  A    between atoms: C_8  and  C_30
    5  A    between atoms: C_10  and  C_21
    6  A    between atoms: C_20  and  N_26
    7  A    between atoms: C_23  and  N_26
    8  A    between atoms: N_26  and  C_37
    9  A    between atoms: C_31  and  C_39
   10  A    between atoms: C_34  and  C_39
   11  A    between atoms: C_37  and  C_39
                            x       y       z     vdW  Elec       q    Type
                         _______ _______ _______ _____ _____    ______ ____

>  <TORSDO>
F 11

$$$$
=
 OpenBabel11072409143D

 39 43  0  0  1  0  0  0  0  0999 V2000
  192.2700  174.3560  141.8350 C   0  0  0  0  0  2  0  0  0  0  0  0
  193.3130  173.7430  142.6550 N   0  0  0  0  0  0  0  0  0  0  0  0
  194.9550  171.8890  142.6830 C   0  0  0  0  0  3  0  0  0  0  0  0
  196.0110  171.1980  142.0910 C   0  0  0  0  0  0  0  0  0  0  0  0
  194.9530  173.4250  140.8270 C   0  0  0  0  0  3  0  0  0  0  0  0
  195.9840  172.7380  140.2690 N   0  0  0  0  0  0  0  0  0  0  0  0
  194.4070  173.0180  142.0560 C   0  0  0  0  0  0  0  0  0  0  0  0
  196.5400  170.1080  142.6970 F   0  0  0  0  0  0  0  0  0  0  0  0
  196.5190  171.6420  140.8700 C   0  0  0  0  0  3  0  0  0  0  0  0
  193.1370  173.7520  144.1030 C   0  0  0  0  0  2  0  0  0  0  0  0
  193.6410  176.7880  146.3580 C   0  0  0  0  0  3  0  0  0  0  0  0
  193.6710  175.0230  144.6910 C   0  0  0  0  0  0  0  0  0  0  0  0
  194.7590  177.3740  145.7600 C   0  0  0  0  0  3  0  0  0  0  0  0
  193.0860  175.6080  145.8330 C   0  0  0  0  0  0  0  0  0  0  0  0
  194.7920  175.6170  144.1010 C   0  0  0  0  0  3  0  0  0  0  0  0
  195.3340  176.7880  144.6320 C   0  0  0  0  0  3  0  0  0  0  0  0
  191.9040  174.9920  146.4650 C   0  0  0  0  0  3  0  0  0  0  0  0
  191.2380  175.5560  147.4650 C   0  0  0  0  0  3  0  0  0  0  0  0
  190.1340  174.9160  148.0110 O   0  0  0  0  0  0  0  0  0  0  0  0
  189.0420  174.5580  147.1830 C   0  0  0  0  0  1  0  0  0  0  0  0
  190.8770  173.9980  142.3630 C   0  0  2  0  0  3  0  0  0  0  0  0
  189.8420  172.0100  143.9880 O   0  0  0  0  0  1  0  0  0  0  0  0
  189.6680  171.6890  142.6390 C   0  0  1  0  0  3  0  0  0  0  0  0
  188.6820  172.6580  142.0210 C   0  0  0  0  0  2  0  0  0  0  0  0
  190.1590  172.7950  141.6930 C   0  0  1  0  0  3  0  0  0  0  0  0
  190.7780  176.4340  142.8730 C   0  0  0  0  0  2  0  0  0  0  0  0
  189.9800  175.2280  142.4190 C   0  0  2  0  0  3  0  0  0  0  0  0
  189.8780  175.7120  143.8530 C   0  0  2  0  0  3  0  0  0  0  0  0
  188.6420  176.4570  144.0120 N   0  0  0  0  0  2  0  0  0  0  0  0
  189.5280  177.9140  145.6080 O   0  0  0  0  0  0  0  0  0  0  0  0
  188.5350  177.5590  144.9130 C   0  0  0  0  0  0  0  0  0  0  0  0
  187.2300  178.2780  145.0340 C   0  0  1  0  0  3  0  0  0  0  0  0
  184.9020  177.8800  144.5530 N   0  0  0  0  0  0  0  0  0  0  0  0
  184.8150  176.3210  146.2730 F   0  0  0  0  0  0  0  0  0  0  0  0
  186.2510  177.8210  143.9770 C   0  0  1  0  0  3  0  0  0  0  0  0
  186.5460  177.9430  146.3390 C   0  0  0  0  0  2  0  0  0  0  0  0
  186.4120  178.5690  142.6550 C   0  0  0  0  0  1  0  0  0  0  0  0
  185.0960  177.6430  145.9810 C   0  0  1  0  0  3  0  0  0  0  0  0
  184.3300  179.2210  144.4440 C   0  0  0  0  0  1  0  0  0  0  0  0
  1  2  1  0  0  0  0
  2 10  1  0  0  0  0
  4  3  1  0  0  0  0
  4  8  1  0  0  0  0
  5  7  1  0  0  0  0
  6  5  2  0  0  0  0
  6  9  1  0  0  0  0
  7  2  1  0  0  0  0
  7  3  2  0  0  0  0
  9  4  2  0  0  0  0
 10 12  1  0  0  0  0
 12 14  2  0  0  0  0
 13 11  2  0  0  0  0
 14 11  1  0  0  0  0
 14 17  1  0  0  0  0
 15 16  2  0  0  0  0
 15 12  1  0  0  0  0
 16 13  1  0  0  0  0
 17 18  2  0  0  0  0
 18 19  1  0  0  0  0
 20 19  1  0  0  0  0
 21  1  1  6  0  0  0
 23 22  1  1  0  0  0
 24 23  1  0  0  0  0
 25 24  1  0  0  0  0
 25 21  1  1  0  0  0
 25 23  1  0  0  0  0
 26 28  1  0  0  0  0
 27 21  1  1  0  0  0
 27 26  1  0  0  0  0
 27 28  1  0  0  0  0
 28 29  1  6  0  0  0
 29 31  1  0  0  0  0
 31 30  2  0  0  0  0
 32 31  1  6  0  0  0
 32 36  1  0  0  0  0
 33 38  1  0  0  0  0
 35 37  1  6  0  0  0
 35 33  1  0  0  0  0
 35 32  1  0  0  0  0
 38 34  1  6  0  0  0
 38 36  1  0  0  0  0
 39 33  1  0  0  0  0
M  END
>  <MODEL>
5

>  <REMARK>
 VINA RESULT:      -6.6      2.357      4.869
  Name = 
  11 active torsions:
  status: ('A' for Active; 'I' for Inactive)
    1  A    between atoms: N_1  and  C_32
    2  A    between atoms: C_6  and  C_23
    3  A    between atoms: O_7  and  C_35
    4  A    between atoms: C_8  and  C_30
    5  A    between atoms: C_10  and  C_21
    6  A    between atoms: C_20  and  N_26
    7  A    between atoms: C_23  and  N_26
    8  A    between atoms: N_26  and  C_37
    9  A    between atoms: C_31  and  C_39
   10  A    between atoms: C_34  and  C_39
   11  A    between atoms: C_37  and  C_39
                            x       y       z     vdW  Elec       q    Type
                         _______ _______ _______ _____ _____    ______ ____

>  <TORSDO>
F 11

$$$$
=
 OpenBabel11072409143D

 39 43  0  0  1  0  0  0  0  0999 V2000
  191.0540  174.7990  142.3160 C   0  0  0  0  0  2  0  0  0  0  0  0
  192.1530  174.1610  143.0390 N   0  0  0  0  0  0  0  0  0  0  0  0
  194.0210  175.5500  142.1950 C   0  0  0  0  0  3  0  0  0  0  0  0
  195.3440  175.6750  141.7770 C   0  0  0  0  0  0  0  0  0  0  0  0
  194.3860  173.2000  142.5730 C   0  0  0  0  0  3  0  0  0  0  0  0
  195.6730  173.3430  142.1600 N   0  0  0  0  0  0  0  0  0  0  0  0
  193.5200  174.3050  142.6020 C   0  0  0  0  0  0  0  0  0  0  0  0
  195.8270  176.8770  141.3840 F   0  0  0  0  0  0  0  0  0  0  0  0
  196.1660  174.5470  141.7660 C   0  0  0  0  0  3  0  0  0  0  0  0
  191.8160  173.2450  144.1240 C   0  0  0  0  0  2  0  0  0  0  0  0
  191.5790  175.3180  147.3180 C   0  0  0  0  0  3  0  0  0  0  0  0
  191.2780  174.0000  145.3010 C   0  0  0  0  0  0  0  0  0  0  0  0
  190.1940  175.4390  147.4480 C   0  0  0  0  0  3  0  0  0  0  0  0
  192.1360  174.6000  146.2460 C   0  0  0  0  0  0  0  0  0  0  0  0
  189.8910  174.1300  145.4390 C   0  0  0  0  0  3  0  0  0  0  0  0
  189.3500  174.8450  146.5080 C   0  0  0  0  0  3  0  0  0  0  0  0
  193.6000  174.4710  146.1130 C   0  0  0  0  0  3  0  0  0  0  0  0
  194.4000  175.5010  145.8690 C   0  0  0  0  0  3  0  0  0  0  0  0
  195.7690  175.3040  145.7550 O   0  0  0  0  0  0  0  0  0  0  0  0
  196.3010  173.9920  145.7910 C   0  0  0  0  0  1  0  0  0  0  0  0
  190.1170  173.7510  141.7070 C   0  0  2  0  0  3  0  0  0  0  0  0
  191.3720  171.3080  141.3560 O   0  0  0  0  0  1  0  0  0  0  0  0
  191.1920  171.9540  140.1300 C   0  0  1  0  0  3  0  0  0  0  0  0
  189.7120  172.0210  139.8160 C   0  0  0  0  0  2  0  0  0  0  0  0
  190.4320  173.2830  140.2600 C   0  0  1  0  0  3  0  0  0  0  0  0
  188.2080  174.9390  140.6370 C   0  0  0  0  0  2  0  0  0  0  0  0
  188.6590  174.1660  141.8590 C   0  0  2  0  0  3  0  0  0  0  0  0
  188.5690  175.6790  141.9080 C   0  0  2  0  0  3  0  0  0  0  0  0
  187.3530  176.0560  142.6070 N   0  0  0  0  0  2  0  0  0  0  0  0
  188.4640  177.3970  144.1640 O   0  0  0  0  0  0  0  0  0  0  0  0
  187.3720  176.9280  143.7370 C   0  0  0  0  0  0  0  0  0  0  0  0
  186.0840  177.2690  144.4160 C   0  0  1  0  0  3  0  0  0  0  0  0
  185.2310  178.9370  145.9320 N   0  0  0  0  0  0  0  0  0  0  0  0
  185.3940  180.5390  144.2570 F   0  0  0  0  0  0  0  0  0  0  0  0
  186.3250  177.9790  145.7280 C   0  0  1  0  0  3  0  0  0  0  0  0
  185.2880  178.2610  143.6000 C   0  0  0  0  0  2  0  0  0  0  0  0
  186.5520  177.0160  146.8910 C   0  0  0  0  0  1  0  0  0  0  0  0
  184.8200  179.3250  144.5850 C   0  0  1  0  0  3  0  0  0  0  0  0
  184.0650  178.2990  146.5390 C   0  0  0  0  0  1  0  0  0  0  0  0
  1  2  1  0  0  0  0
  2 10  1  0  0  0  0
  3  7  1  0  0  0  0
  4  3  2  0  0  0  0
  5  7  2  0  0  0  0
  6  5  1  0  0  0  0
  7  2  1  0  0  0  0
  8  4  1  0  0  0  0
  9  4  1  0  0  0  0
  9  6  2  0  0  0  0
 10 12  1  0  0  0  0
 11 13  1  0  0  0  0
 12 15  2  0  0  0  0
 12 14  1  0  0  0  0
 14 11  2  0  0  0  0
 15 16  1  0  0  0  0
 16 13  2  0  0  0  0
 17 14  1  0  0  0  0
 18 17  2  0  0  0  0
 19 20  1  0  0  0  0
 19 18  1  0  0  0  0
 21  1  1  6  0  0  0
 23 25  1  0  0  0  0
 23 22  1  1  0  0  0
 24 23  1  0  0  0  0
 24 25  1  0  0  0  0
 25 21  1  1  0  0  0
 26 27  1  0  0  0  0
 26 28  1  0  0  0  0
 27 21  1  6  0  0  0
 27 28  1  0  0  0  0
 28 29  1  1  0  0  0
 29 31  1  0  0  0  0
 31 30  2  0  0  0  0
 32 31  1  6  0  0  0
 32 35  1  0  0  0  0
 33 39  1  0  0  0  0
 35 33  1  0  0  0  0
 35 37  1  1  0  0  0
 36 32  1  0  0  0  0
 36 38  1  0  0  0  0
 38 34  1  6  0  0  0
 38 33  1  0  0  0  0
M  END
>  <MODEL>
6

>  <REMARK>
 VINA RESULT:      -6.6      1.956      4.993
  Name = 
  11 active torsions:
  status: ('A' for Active; 'I' for Inactive)
    1  A    between atoms: N_1  and  C_32
    2  A    between atoms: C_6  and  C_23
    3  A    between atoms: O_7  and  C_35
    4  A    between atoms: C_8  and  C_30
    5  A    between atoms: C_10  and  C_21
    6  A    between atoms: C_20  and  N_26
    7  A    between atoms: C_23  and  N_26
    8  A    between atoms: N_26  and  C_37
    9  A    between atoms: C_31  and  C_39
   10  A    between atoms: C_34  and  C_39
   11  A    between atoms: C_37  and  C_39
                            x       y       z     vdW  Elec       q    Type
                         _______ _______ _______ _____ _____    ______ ____

>  <TORSDO>
F 11

$$$$
=
 OpenBabel11072409143D

 39 43  0  0  1  0  0  0  0  0999 V2000
  193.3170  176.4830  145.0470 C   0  0  0  0  0  2  0  0  0  0  0  0
  193.5890  175.3020  144.2290 N   0  0  0  0  0  0  0  0  0  0  0  0
  195.6150  174.3570  145.2950 C   0  0  0  0  0  3  0  0  0  0  0  0
  196.3210  173.2670  145.8000 C   0  0  0  0  0  0  0  0  0  0  0  0
  193.7900  172.8880  144.7380 C   0  0  0  0  0  3  0  0  0  0  0  0
  194.4960  171.8370  145.2340 N   0  0  0  0  0  0  0  0  0  0  0  0
  194.3330  174.1840  144.7550 C   0  0  0  0  0  0  0  0  0  0  0  0
  197.5590  173.4360  146.3220 F   0  0  0  0  0  0  0  0  0  0  0  0
  195.7390  171.9990  145.7610 C   0  0  0  0  0  3  0  0  0  0  0  0
  193.2230  175.3480  142.8180 C   0  0  0  0  0  2  0  0  0  0  0  0
  195.8510  174.3140  140.2530 C   0  0  0  0  0  3  0  0  0  0  0  0
  194.4480  175.3290  141.9550 C   0  0  0  0  0  0  0  0  0  0  0  0
  196.7360  175.3910  140.3380 C   0  0  0  0  0  3  0  0  0  0  0  0
  194.7000  174.2710  141.0570 C   0  0  0  0  0  0  0  0  0  0  0  0
  195.3390  176.4050  142.0300 C   0  0  0  0  0  3  0  0  0  0  0  0
  196.4790  176.4370  141.2260 C   0  0  0  0  0  3  0  0  0  0  0  0
  193.7670  173.1300  140.9690 C   0  0  0  0  0  3  0  0  0  0  0  0
  192.8640  173.0040  140.0050 C   0  0  0  0  0  3  0  0  0  0  0  0
  192.0190  171.9030  139.9860 O   0  0  0  0  0  0  0  0  0  0  0  0
  190.6680  172.0410  140.3860 C   0  0  0  0  0  1  0  0  0  0  0  0
  191.9010  176.4300  145.6300 C   0  0  2  0  0  3  0  0  0  0  0  0
  191.2030  176.8330  148.2780 O   0  0  0  0  0  1  0  0  0  0  0  0
  191.2340  175.4700  147.9760 C   0  0  1  0  0  3  0  0  0  0  0  0
  190.1140  175.1490  147.0090 C   0  0  0  0  0  2  0  0  0  0  0  0
  191.5440  175.1920  146.4970 C   0  0  1  0  0  3  0  0  0  0  0  0
  191.1050  178.0170  143.8840 C   0  0  0  0  0  2  0  0  0  0  0  0
  190.8550  176.6800  144.5510 C   0  0  2  0  0  3  0  0  0  0  0  0
  190.0190  177.8880  144.9300 C   0  0  2  0  0  3  0  0  0  0  0  0
  188.7270  177.7920  144.2750 N   0  0  0  0  0  2  0  0  0  0  0  0
  187.5480  177.4990  146.2700 O   0  0  0  0  0  0  0  0  0  0  0  0
  187.5200  177.5970  145.0120 C   0  0  0  0  0  0  0  0  0  0  0  0
  186.2240  177.4990  144.2730 C   0  0  1  0  0  3  0  0  0  0  0  0
  185.1820  178.4620  142.3250 N   0  0  0  0  0  0  0  0  0  0  0  0
  186.6650  177.3050  140.9620 F   0  0  0  0  0  0  0  0  0  0  0  0
  185.8950  178.7930  143.5650 C   0  0  1  0  0  3  0  0  0  0  0  0
  186.3110  176.4820  143.1590 C   0  0  0  0  0  2  0  0  0  0  0  0
  185.1760  179.7960  144.4640 C   0  0  0  0  0  1  0  0  0  0  0  0
  185.6960  177.1520  141.9370 C   0  0  1  0  0  3  0  0  0  0  0  0
  183.7510  178.2770  142.5610 C   0  0  0  0  0  1  0  0  0  0  0  0
  2  7  1  0  0  0  0
  2  1  1  0  0  0  0
  3  4  1  0  0  0  0
  4  8  1  0  0  0  0
  5  7  1  0  0  0  0
  5  6  2  0  0  0  0
  6  9  1  0  0  0  0
  7  3  2  0  0  0  0
  9  4  2  0  0  0  0
 10  2  1  0  0  0  0
 11 13  2  0  0  0  0
 11 14  1  0  0  0  0
 12 15  1  0  0  0  0
 12 10  1  0  0  0  0
 13 16  1  0  0  0  0
 14 12  2  0  0  0  0
 16 15  2  0  0  0  0
 17 14  1  0  0  0  0
 18 17  2  0  0  0  0
 19 18  1  0  0  0  0
 19 20  1  0  0  0  0
 21  1  1  6  0  0  0
 23 22  1  6  0  0  0
 24 23  1  0  0  0  0
 25 21  1  6  0  0  0
 25 24  1  0  0  0  0
 25 23  1  0  0  0  0
 26 27  1  0  0  0  0
 26 28  1  0  0  0  0
 27 28  1  0  0  0  0
 27 21  1  1  0  0  0
 28 29  1  6  0  0  0
 29 31  1  0  0  0  0
 31 30  2  0  0  0  0
 32 31  1  6  0  0  0
 33 39  1  0  0  0  0
 33 35  1  0  0  0  0
 35 32  1  0  0  0  0
 35 37  1  1  0  0  0
 36 32  1  0  0  0  0
 38 34  1  6  0  0  0
 38 33  1  0  0  0  0
 38 36  1  0  0  0  0
M  END
>  <MODEL>
7

>  <REMARK>
 VINA RESULT:      -6.5      2.248      3.643
  Name = 
  11 active torsions:
  status: ('A' for Active; 'I' for Inactive)
    1  A    between atoms: N_1  and  C_32
    2  A    between atoms: C_6  and  C_23
    3  A    between atoms: O_7  and  C_35
    4  A    between atoms: C_8  and  C_30
    5  A    between atoms: C_10  and  C_21
    6  A    between atoms: C_20  and  N_26
    7  A    between atoms: C_23  and  N_26
    8  A    between atoms: N_26  and  C_37
    9  A    between atoms: C_31  and  C_39
   10  A    between atoms: C_34  and  C_39
   11  A    between atoms: C_37  and  C_39
                            x       y       z     vdW  Elec       q    Type
                         _______ _______ _______ _____ _____    ______ ____

>  <TORSDO>
F 11

$$$$
=
 OpenBabel11072409143D

 39 43  0  0  1  0  0  0  0  0999 V2000
  191.8400  174.1220  141.4220 C   0  0  0  0  0  2  0  0  0  0  0  0
  193.0510  174.0730  142.2390 N   0  0  0  0  0  0  0  0  0  0  0  0
  194.7090  175.8440  141.7420 C   0  0  0  0  0  3  0  0  0  0  0  0
  195.9450  176.2360  141.2300 C   0  0  0  0  0  0  0  0  0  0  0  0
  195.2190  173.5630  141.1590 C   0  0  0  0  0  3  0  0  0  0  0  0
  196.4190  173.9670  140.6650 N   0  0  0  0  0  0  0  0  0  0  0  0
  194.3260  174.4950  141.7140 C   0  0  0  0  0  0  0  0  0  0  0  0
  196.3130  177.5390  141.2580 F   0  0  0  0  0  0  0  0  0  0  0  0
  196.7970  175.2730  140.6900 C   0  0  0  0  0  3  0  0  0  0  0  0
  192.9650  173.4410  143.5520 C   0  0  0  0  0  2  0  0  0  0  0  0
  195.3000  174.9640  146.1560 C   0  0  0  0  0  3  0  0  0  0  0  0
  193.5390  174.3380  144.6060 C   0  0  0  0  0  0  0  0  0  0  0  0
  194.5680  176.0900  146.5360 C   0  0  0  0  0  3  0  0  0  0  0  0
  194.7970  174.0770  145.1890 C   0  0  0  0  0  0  0  0  0  0  0  0
  192.8140  175.4700  144.9920 C   0  0  0  0  0  3  0  0  0  0  0  0
  193.3250  176.3430  145.9540 C   0  0  0  0  0  3  0  0  0  0  0  0
  195.5720  172.8860  144.7900 C   0  0  0  0  0  3  0  0  0  0  0  0
  196.0670  172.0170  145.6620 C   0  0  0  0  0  3  0  0  0  0  0  0
  196.7870  170.9190  145.2130 O   0  0  0  0  0  0  0  0  0  0  0  0
  196.9760  169.8010  146.0620 C   0  0  0  0  0  1  0  0  0  0  0  0
  190.5900  173.9090  142.2830 C   0  0  2  0  0  3  0  0  0  0  0  0
  189.7160  172.3830  144.4210 O   0  0  0  0  0  1  0  0  0  0  0  0
  189.3460  171.7960  143.2090 C   0  0  1  0  0  3  0  0  0  0  0  0
  188.3200  172.6740  142.5240 C   0  0  0  0  0  2  0  0  0  0  0  0
  189.7420  172.6410  141.9890 C   0  0  1  0  0  3  0  0  0  0  0  0
  190.5880  176.3760  142.6230 C   0  0  0  0  0  2  0  0  0  0  0  0
  189.7290  175.1650  142.3180 C   0  0  2  0  0  3  0  0  0  0  0  0
  189.7490  175.7500  143.7170 C   0  0  2  0  0  3  0  0  0  0  0  0
  188.5470  176.5400  143.9150 N   0  0  0  0  0  2  0  0  0  0  0  0
  189.3790  177.6430  145.7990 O   0  0  0  0  0  0  0  0  0  0  0  0
  188.4280  177.4780  144.9850 C   0  0  0  0  0  0  0  0  0  0  0  0
  187.1590  178.2530  145.1350 C   0  0  1  0  0  3  0  0  0  0  0  0
  184.8010  177.9480  144.7370 N   0  0  0  0  0  0  0  0  0  0  0  0
  184.7060  176.4200  146.4840 F   0  0  0  0  0  0  0  0  0  0  0  0
  186.1270  177.8220  144.1180 C   0  0  1  0  0  3  0  0  0  0  0  0
  186.5050  177.9690  146.4670 C   0  0  0  0  0  2  0  0  0  0  0  0
  186.2750  178.5420  142.7790 C   0  0  0  0  0  1  0  0  0  0  0  0
  185.0320  177.7240  146.1620 C   0  0  1  0  0  3  0  0  0  0  0  0
  184.2830  179.3100  144.6230 C   0  0  0  0  0  1  0  0  0  0  0  0
  1  2  1  0  0  0  0
  2 10  1  0  0  0  0
  4  8  1  0  0  0  0
  4  3  2  0  0  0  0
  5  7  2  0  0  0  0
  6  9  2  0  0  0  0
  6  5  1  0  0  0  0
  7  3  1  0  0  0  0
  7  2  1  0  0  0  0
  9  4  1  0  0  0  0
 10 12  1  0  0  0  0
 11 13  1  0  0  0  0
 12 15  2  0  0  0  0
 12 14  1  0  0  0  0
 14 11  2  0  0  0  0
 15 16  1  0  0  0  0
 16 13  2  0  0  0  0
 17 14  1  0  0  0  0
 17 18  2  0  0  0  0
 19 18  1  0  0  0  0
 19 20  1  0  0  0  0
 21  1  1  6  0  0  0
 23 22  1  1  0  0  0
 24 23  1  0  0  0  0
 25 21  1  1  0  0  0
 25 24  1  0  0  0  0
 25 23  1  0  0  0  0
 26 28  1  0  0  0  0
 27 21  1  1  0  0  0
 27 26  1  0  0  0  0
 27 28  1  0  0  0  0
 28 29  1  6  0  0  0
 29 31  1  0  0  0  0
 31 30  2  0  0  0  0
 32 31  1  6  0  0  0
 32 36  1  0  0  0  0
 33 38  1  0  0  0  0
 35 37  1  6  0  0  0
 35 33  1  0  0  0  0
 35 32  1  0  0  0  0
 38 36  1  0  0  0  0
 38 34  1  6  0  0  0
 39 33  1  0  0  0  0
M  END
>  <MODEL>
8

>  <REMARK>
 VINA RESULT:      -6.5      2.612      5.231
  Name = 
  11 active torsions:
  status: ('A' for Active; 'I' for Inactive)
    1  A    between atoms: N_1  and  C_32
    2  A    between atoms: C_6  and  C_23
    3  A    between atoms: O_7  and  C_35
    4  A    between atoms: C_8  and  C_30
    5  A    between atoms: C_10  and  C_21
    6  A    between atoms: C_20  and  N_26
    7  A    between atoms: C_23  and  N_26
    8  A    between atoms: N_26  and  C_37
    9  A    between atoms: C_31  and  C_39
   10  A    between atoms: C_34  and  C_39
   11  A    between atoms: C_37  and  C_39
                            x       y       z     vdW  Elec       q    Type
                         _______ _______ _______ _____ _____    ______ ____

>  <TORSDO>
F 11

$$$$
=
 OpenBabel11072409143D

 39 43  0  0  1  0  0  0  0  0999 V2000
  192.2870  174.7610  141.9410 C   0  0  0  0  0  2  0  0  0  0  0  0
  193.3790  174.1220  142.6730 N   0  0  0  0  0  0  0  0  0  0  0  0
  194.8900  173.8810  140.7250 C   0  0  0  0  0  3  0  0  0  0  0  0
  195.9230  173.2130  140.0700 C   0  0  0  0  0  0  0  0  0  0  0  0
  195.0720  172.3200  142.5510 C   0  0  0  0  0  3  0  0  0  0  0  0
  196.0770  171.6830  141.8940 N   0  0  0  0  0  0  0  0  0  0  0  0
  194.4470  173.4420  141.9820 C   0  0  0  0  0  0  0  0  0  0  0  0
  196.3500  173.6380  138.8570 F   0  0  0  0  0  0  0  0  0  0  0  0
  196.5120  172.1030  140.6760 C   0  0  0  0  0  3  0  0  0  0  0  0
  193.2810  174.0570  144.1270 C   0  0  0  0  0  2  0  0  0  0  0  0
  193.9300  176.9360  146.5450 C   0  0  0  0  0  3  0  0  0  0  0  0
  193.8300  175.3050  144.7490 C   0  0  0  0  0  0  0  0  0  0  0  0
  194.9410  177.6210  145.8690 C   0  0  0  0  0  3  0  0  0  0  0  0
  193.3640  175.7730  145.9960 C   0  0  0  0  0  0  0  0  0  0  0  0
  194.8450  175.9980  144.0810 C   0  0  0  0  0  3  0  0  0  0  0  0
  195.3990  177.1520  144.6370 C   0  0  0  0  0  3  0  0  0  0  0  0
  192.2940  175.0510  146.7110 C   0  0  0  0  0  3  0  0  0  0  0  0
  191.2530  175.6600  147.2660 C   0  0  0  0  0  3  0  0  0  0  0  0
  190.2840  174.9160  147.9240 O   0  0  0  0  0  0  0  0  0  0  0  0
  189.0780  174.5820  147.2630 C   0  0  0  0  0  1  0  0  0  0  0  0
  190.9580  174.0500  142.2110 C   0  0  2  0  0  3  0  0  0  0  0  0
  190.8420  171.5210  143.3320 O   0  0  0  0  0  1  0  0  0  0  0  0
  190.6230  171.4640  141.9540 C   0  0  1  0  0  3  0  0  0  0  0  0
  189.3050  172.1350  141.6310 C   0  0  0  0  0  2  0  0  0  0  0  0
  190.6030  172.8500  141.2920 C   0  0  1  0  0  3  0  0  0  0  0  0
  190.3200  176.3830  142.8060 C   0  0  0  0  0  2  0  0  0  0  0  0
  189.8100  175.0490  142.2990 C   0  0  2  0  0  3  0  0  0  0  0  0
  189.5960  175.4440  143.7480 C   0  0  2  0  0  3  0  0  0  0  0  0
  188.2260  175.8920  143.9160 N   0  0  0  0  0  2  0  0  0  0  0  0
  188.7790  177.5490  145.4660 O   0  0  0  0  0  0  0  0  0  0  0  0
  187.8840  176.9610  144.7990 C   0  0  0  0  0  0  0  0  0  0  0  0
  186.4510  177.3660  144.9310 C   0  0  1  0  0  3  0  0  0  0  0  0
  185.1750  179.2330  145.7650 N   0  0  0  0  0  0  0  0  0  0  0  0
  185.9410  180.5410  144.0050 F   0  0  0  0  0  0  0  0  0  0  0  0
  186.2480  178.2910  146.1090 C   0  0  1  0  0  3  0  0  0  0  0  0
  186.0070  178.1830  143.7400 C   0  0  0  0  0  2  0  0  0  0  0  0
  186.0390  177.5410  147.4230 C   0  0  0  0  0  1  0  0  0  0  0  0
  185.2580  179.3790  144.3140 C   0  0  1  0  0  3  0  0  0  0  0  0
  183.8550  178.6660  146.0360 C   0  0  0  0  0  1  0  0  0  0  0  0
  1  2  1  0  0  0  0
  2 10  1  0  0  0  0
  3  7  1  0  0  0  0
  4  9  1  0  0  0  0
  4  3  2  0  0  0  0
  6  5  1  0  0  0  0
  7  5  2  0  0  0  0
  7  2  1  0  0  0  0
  8  4  1  0  0  0  0
  9  6  2  0  0  0  0
 10 12  1  0  0  0  0
 12 14  2  0  0  0  0
 13 11  2  0  0  0  0
 14 11  1  0  0  0  0
 14 17  1  0  0  0  0
 15 16  2  0  0  0  0
 15 12  1  0  0  0  0
 16 13  1  0  0  0  0
 17 18  2  0  0  0  0
 18 19  1  0  0  0  0
 20 19  1  0  0  0  0
 21  1  1  6  0  0  0
 23 22  1  1  0  0  0
 24 23  1  0  0  0  0
 25 24  1  0  0  0  0
 25 23  1  0  0  0  0
 25 21  1  1  0  0  0
 26 28  1  0  0  0  0
 27 21  1  1  0  0  0
 27 26  1  0  0  0  0
 27 28  1  0  0  0  0
 28 29  1  6  0  0  0
 29 31  1  0  0  0  0
 31 30  2  0  0  0  0
 32 31  1  6  0  0  0
 32 35  1  0  0  0  0
 33 39  1  0  0  0  0
 33 35  1  0  0  0  0
 35 37  1  1  0  0  0
 36 38  1  0  0  0  0
 36 32  1  0  0  0  0
 38 34  1  1  0  0  0
 38 33  1  0  0  0  0
M  END
>  <MODEL>
9

>  <REMARK>
 VINA RESULT:      -6.5      2.365      4.935
  Name = 
  11 active torsions:
  status: ('A' for Active; 'I' for Inactive)
    1  A    between atoms: N_1  and  C_32
    2  A    between atoms: C_6  and  C_23
    3  A    between atoms: O_7  and  C_35
    4  A    between atoms: C_8  and  C_30
    5  A    between atoms: C_10  and  C_21
    6  A    between atoms: C_20  and  N_26
    7  A    between atoms: C_23  and  N_26
    8  A    between atoms: N_26  and  C_37
    9  A    between atoms: C_31  and  C_39
   10  A    between atoms: C_34  and  C_39
   11  A    between atoms: C_37  and  C_39
                            x       y       z     vdW  Elec       q    Type
                         _______ _______ _______ _____ _____    ______ ____

>  <TORSDO>
F 11

$$$$
