=
 OpenBabel11062421103D

 27 30  0  0  1  0  0  0  0  0999 V2000
  188.9410  177.4200  145.1820 C   0  0  1  0  0  3  0  0  0  0  0  0
  192.4270  176.2790  144.7190 C   0  0  2  0  0  3  0  0  0  0  0  0
  186.5120  177.9890  144.8080 C   0  0  0  0  0  0  0  0  0  0  0  0
  191.8320  174.7620  145.5620 S   0  0  0  0  0  0  0  0  0  0  0  0
  186.2250  177.6500  146.1460 C   0  0  0  0  0  0  0  0  0  0  0  0
  187.7970  177.5000  144.1620 C   0  0  1  0  0  3  0  0  0  0  0  0
  188.4820  176.7680  146.4070 N   0  0  0  0  0  0  0  0  0  0  0  0
  190.2050  175.4750  145.5090 C   0  0  1  0  0  3  0  0  0  0  0  0
  189.2720  175.6110  146.6010 C   0  0  0  0  0  0  0  0  0  0  0  0
  184.0510  178.6980  145.9620 C   0  0  0  0  0  3  0  0  0  0  0  0
  189.1620  174.8310  147.5830 O   0  0  0  0  0  0  0  0  0  0  0  0
  191.2580  176.9300  143.9740 C   0  0  0  0  0  2  0  0  0  0  0  0
  185.5390  178.6630  144.0530 C   0  0  0  0  0  3  0  0  0  0  0  0
  190.0420  176.5050  144.7060 C   0  0  2  0  0  3  0  0  0  0  0  0
  185.0000  178.0050  146.7180 C   0  0  0  0  0  3  0  0  0  0  0  0
  187.1850  176.9250  146.9150 N   0  0  0  0  0  2  0  0  0  0  0  0
  184.3200  179.0250  144.6310 C   0  0  0  0  0  3  0  0  0  0  0  0
  194.7260  175.5030  144.2920 C   0  0  0  0  0  3  0  0  0  0  0  0
  193.4070  176.2020  142.4420 O   0  0  0  0  0  1  0  0  0  0  0  0
  193.5780  175.9920  143.8050 C   0  0  0  0  0  0  0  0  0  0  0  0
  196.8740  176.1270  143.1890 C   0  0  0  0  0  0  0  0  0  0  0  0
  196.8280  177.3990  143.6580 F   0  0  0  0  0  0  0  0  0  0  0  0
  195.9460  175.2270  143.5100 C   0  0  0  0  0  3  0  0  0  0  0  0
  197.9400  175.7390  142.4480 F   0  0  0  0  0  0  0  0  0  0  0  0
  188.1950  178.3670  143.0580 N   0  0  0  0  0  2  0  0  0  0  0  0
  187.1920  177.9750  140.9910 O   0  0  0  0  0  1  0  0  0  0  0  0
  188.2090  177.5580  141.8490 C   0  0  0  0  0  2  0  0  0  0  0  0
  1  7  1  1  0  0  0
  2 20  1  6  0  0  0
  2  4  1  0  0  0  0
  3  5  1  0  0  0  0
  5 15  2  0  0  0  0
  5 16  1  0  0  0  0
  6 25  1  6  0  0  0
  6  3  1  0  0  0  0
  6  1  1  0  0  0  0
  7  9  1  0  0  0  0
  7 16  1  0  0  0  0
  8  4  1  1  0  0  0
  8  9  1  0  0  0  0
  9 11  2  0  0  0  0
 10 15  1  0  0  0  0
 12  2  1  0  0  0  0
 13 17  1  0  0  0  0
 13  3  2  0  0  0  0
 14 12  1  1  0  0  0
 14  1  1  0  0  0  0
 14  8  1  0  0  0  0
 17 10  2  0  0  0  0
 19 20  1  0  0  0  0
 20 18  2  0  0  0  0
 21 23  2  0  0  0  0
 21 22  1  0  0  0  0
 23 18  1  0  0  0  0
 24 21  1  0  0  0  0
 26 27  1  0  0  0  0
 27 25  1  0  0  0  0
M  END
>  <MODEL>
1

>  <REMARK>
 VINA RESULT:      -7.7      0.000      0.000
  Name = 
  4 active torsions:
  status: ('A' for Active; 'I' for Inactive)
    1  A    between atoms: C_3  and  C_20
    2  A    between atoms: N_4  and  C_8
    3  A    between atoms: N_4  and  C_11
    4  A    between atoms: C_10  and  C_26
                            x       y       z     vdW  Elec       q    Type
                         _______ _______ _______ _____ _____    ______ ____

>  <TORSDO>
F 4

$$$$
=
 OpenBabel11062421103D

 27 30  0  0  1  0  0  0  0  0999 V2000
  187.8740  177.1040  144.5200 C   0  0  1  0  0  3  0  0  0  0  0  0
  184.5980  177.7850  142.9470 C   0  0  2  0  0  3  0  0  0  0  0  0
  190.3320  177.1050  145.0870 C   0  0  0  0  0  0  0  0  0  0  0  0
  184.3800  178.9290  144.3640 S   0  0  0  0  0  0  0  0  0  0  0  0
  190.0190  176.9400  146.4520 C   0  0  0  0  0  0  0  0  0  0  0  0
  189.2700  177.6010  144.1210 C   0  0  1  0  0  3  0  0  0  0  0  0
  187.6590  177.2930  145.9540 N   0  0  0  0  0  0  0  0  0  0  0  0
  186.0560  178.5520  144.8160 C   0  0  1  0  0  3  0  0  0  0  0  0
  186.5450  178.1490  146.1130 C   0  0  0  0  0  0  0  0  0  0  0  0
  192.3270  176.3920  146.9310 C   0  0  0  0  0  3  0  0  0  0  0  0
  186.0660  178.4950  147.2250 O   0  0  0  0  0  0  0  0  0  0  0  0
  186.0900  177.6610  142.6290 C   0  0  0  0  0  2  0  0  0  0  0  0
  191.6600  176.9340  144.6680 C   0  0  0  0  0  3  0  0  0  0  0  0
  186.7890  177.9510  143.9030 C   0  0  2  0  0  3  0  0  0  0  0  0
  191.0130  176.5840  147.3670 C   0  0  0  0  0  3  0  0  0  0  0  0
  188.6810  177.1540  146.9020 N   0  0  0  0  0  2  0  0  0  0  0  0
  192.6500  176.5680  145.5840 C   0  0  0  0  0  3  0  0  0  0  0  0
  182.4730  178.3030  141.8130 C   0  0  0  0  0  3  0  0  0  0  0  0
  184.4990  178.5840  140.6020 O   0  0  0  0  0  1  0  0  0  0  0  0
  183.8090  178.2220  141.7520 C   0  0  0  0  0  0  0  0  0  0  0  0
  180.3360  179.1310  140.8290 C   0  0  0  0  0  0  0  0  0  0  0  0
  179.8040  179.4140  142.0440 F   0  0  0  0  0  0  0  0  0  0  0  0
  181.5790  178.6690  140.6980 C   0  0  0  0  0  3  0  0  0  0  0  0
  179.6170  179.4120  139.7160 F   0  0  0  0  0  0  0  0  0  0  0  0
  189.5600  177.1790  142.7560 N   0  0  0  0  0  2  0  0  0  0  0  0
  188.6510  175.4870  141.4340 O   0  0  0  0  0  1  0  0  0  0  0  0
  189.2540  175.7600  142.6620 C   0  0  0  0  0  2  0  0  0  0  0  0
  1  7  1  1  0  0  0
  2 20  1  6  0  0  0
  2  4  1  0  0  0  0
  3  5  1  0  0  0  0
  5 16  1  0  0  0  0
  5 15  2  0  0  0  0
  6 25  1  6  0  0  0
  6  1  1  0  0  0  0
  6  3  1  0  0  0  0
  7  9  1  0  0  0  0
  7 16  1  0  0  0  0
  8  4  1  6  0  0  0
  8  9  1  0  0  0  0
  9 11  2  0  0  0  0
 10 15  1  0  0  0  0
 12  2  1  0  0  0  0
 13  3  2  0  0  0  0
 13 17  1  0  0  0  0
 14 12  1  1  0  0  0
 14  1  1  0  0  0  0
 14  8  1  0  0  0  0
 17 10  2  0  0  0  0
 19 20  1  0  0  0  0
 20 18  2  0  0  0  0
 21 22  1  0  0  0  0
 23 21  2  0  0  0  0
 23 18  1  0  0  0  0
 24 21  1  0  0  0  0
 26 27  1  0  0  0  0
 27 25  1  0  0  0  0
M  END
>  <MODEL>
2

>  <REMARK>
 VINA RESULT:      -7.6      5.620      8.730
  Name = 
  4 active torsions:
  status: ('A' for Active; 'I' for Inactive)
    1  A    between atoms: C_3  and  C_20
    2  A    between atoms: N_4  and  C_8
    3  A    between atoms: N_4  and  C_11
    4  A    between atoms: C_10  and  C_26
                            x       y       z     vdW  Elec       q    Type
                         _______ _______ _______ _____ _____    ______ ____

>  <TORSDO>
F 4

$$$$
=
 OpenBabel11062421103D

 27 30  0  0  1  0  0  0  0  0999 V2000
  186.8990  178.0500  143.6090 C   0  0  1  0  0  3  0  0  0  0  0  0
  190.1470  177.4350  145.2650 C   0  0  2  0  0  3  0  0  0  0  0  0
  184.9060  177.9190  142.0670 C   0  0  0  0  0  0  0  0  0  0  0  0
  189.1240  176.5300  146.4900 S   0  0  0  0  0  0  0  0  0  0  0  0
  184.0600  178.3060  143.1270 C   0  0  0  0  0  0  0  0  0  0  0  0
  186.2960  177.3830  142.3660 C   0  0  1  0  0  3  0  0  0  0  0  0
  185.9170  178.0890  144.6910 N   0  0  0  0  0  0  0  0  0  0  0  0
  187.7370  176.8230  145.4190 C   0  0  1  0  0  3  0  0  0  0  0  0
  186.4490  177.3640  145.7820 C   0  0  0  0  0  0  0  0  0  0  0  0
  182.2610  178.7170  141.5600 C   0  0  0  0  0  3  0  0  0  0  0  0
  185.8730  177.2240  146.8920 O   0  0  0  0  0  0  0  0  0  0  0  0
  189.4560  177.3830  143.9000 C   0  0  0  0  0  2  0  0  0  0  0  0
  184.4000  177.9140  140.7590 C   0  0  0  0  0  3  0  0  0  0  0  0
  188.0130  177.2210  144.1960 C   0  0  2  0  0  3  0  0  0  0  0  0
  182.7440  178.7030  142.8710 C   0  0  0  0  0  3  0  0  0  0  0  0
  184.5450  178.2750  144.4690 N   0  0  0  0  0  2  0  0  0  0  0  0
  183.0870  178.3210  140.5060 C   0  0  0  0  0  3  0  0  0  0  0  0
  191.9200  175.8900  145.9980 C   0  0  0  0  0  3  0  0  0  0  0  0
  192.4190  177.4450  144.2710 O   0  0  0  0  0  1  0  0  0  0  0  0
  191.5440  176.9000  145.2020 C   0  0  0  0  0  0  0  0  0  0  0  0
  194.3600  175.9380  146.5130 C   0  0  0  0  0  0  0  0  0  0  0  0
  194.2940  177.1790  147.0530 F   0  0  0  0  0  0  0  0  0  0  0  0
  193.2730  175.3060  146.0700 C   0  0  0  0  0  3  0  0  0  0  0  0
  195.5480  175.2860  146.5080 F   0  0  0  0  0  0  0  0  0  0  0  0
  187.1910  177.5780  141.2310 N   0  0  0  0  0  2  0  0  0  0  0  0
  188.4800  175.6350  141.1870 O   0  0  0  0  0  1  0  0  0  0  0  0
  187.3900  176.2810  140.6030 C   0  0  0  0  0  2  0  0  0  0  0  0
  1 14  1  0  0  0  0
  1  7  1  1  0  0  0
  2 20  1  6  0  0  0
  2  4  1  0  0  0  0
  3  6  1  0  0  0  0
  3  5  1  0  0  0  0
  5 16  1  0  0  0  0
  6 25  1  6  0  0  0
  6  1  1  0  0  0  0
  7  9  1  0  0  0  0
  8  9  1  1  0  0  0
  8  4  1  0  0  0  0
  9 11  2  0  0  0  0
 10 15  1  0  0  0  0
 12  2  1  0  0  0  0
 13  3  2  0  0  0  0
 14 12  1  1  0  0  0
 14  8  1  0  0  0  0
 15  5  2  0  0  0  0
 16  7  1  0  0  0  0
 17 13  1  0  0  0  0
 17 10  2  0  0  0  0
 18 23  1  0  0  0  0
 19 20  1  0  0  0  0
 20 18  2  0  0  0  0
 21 22  1  0  0  0  0
 23 21  2  0  0  0  0
 24 21  1  0  0  0  0
 27 26  1  0  0  0  0
 27 25  1  0  0  0  0
M  END
>  <MODEL>
3

>  <REMARK>
 VINA RESULT:      -7.4      2.628      3.399
  Name = 
  4 active torsions:
  status: ('A' for Active; 'I' for Inactive)
    1  A    between atoms: C_3  and  C_20
    2  A    between atoms: N_4  and  C_8
    3  A    between atoms: N_4  and  C_11
    4  A    between atoms: C_10  and  C_26
                            x       y       z     vdW  Elec       q    Type
                         _______ _______ _______ _____ _____    ______ ____

>  <TORSDO>
F 4

$$$$
=
 OpenBabel11062421103D

 27 30  0  0  1  0  0  0  0  0999 V2000
  188.8370  177.1140  145.0790 C   0  0  1  0  0  3  0  0  0  0  0  0
  192.2340  175.7800  144.4920 C   0  0  2  0  0  3  0  0  0  0  0  0
  186.4290  177.8120  144.7950 C   0  0  0  0  0  0  0  0  0  0  0  0
  191.5920  174.3060  145.3750 S   0  0  0  0  0  0  0  0  0  0  0  0
  186.1780  177.5010  146.1470 C   0  0  0  0  0  0  0  0  0  0  0  0
  187.6590  177.2480  144.1040 C   0  0  1  0  0  3  0  0  0  0  0  0
  188.3930  176.5000  146.3290 N   0  0  0  0  0  0  0  0  0  0  0  0
  190.0050  175.1070  145.3780 C   0  0  1  0  0  3  0  0  0  0  0  0
  189.1260  175.3030  146.5050 C   0  0  0  0  0  0  0  0  0  0  0  0
  184.0590  178.6660  146.0370 C   0  0  0  0  0  3  0  0  0  0  0  0
  189.0130  174.5410  147.5000 O   0  0  0  0  0  0  0  0  0  0  0  0
  191.0740  176.4870  143.7870 C   0  0  0  0  0  2  0  0  0  0  0  0
  185.4650  178.5310  144.0710 C   0  0  0  0  0  3  0  0  0  0  0  0
  189.8660  176.1360  144.5710 C   0  0  2  0  0  3  0  0  0  0  0  0
  184.9980  177.9290  146.7630 C   0  0  0  0  0  3  0  0  0  0  0  0
  187.1280  176.7330  146.8850 N   0  0  0  0  0  2  0  0  0  0  0  0
  184.2910  178.9650  144.6930 C   0  0  0  0  0  3  0  0  0  0  0  0
  193.7060  176.2830  142.5820 C   0  0  0  0  0  3  0  0  0  0  0  0
  193.9710  174.2000  143.6950 O   0  0  0  0  0  1  0  0  0  0  0  0
  193.3300  175.4220  143.5360 C   0  0  0  0  0  0  0  0  0  0  0  0
  194.5400  175.3470  140.4250 C   0  0  0  0  0  0  0  0  0  0  0  0
  193.3150  174.8910  140.0670 F   0  0  0  0  0  0  0  0  0  0  0  0
  194.7320  176.0340  141.5510 C   0  0  0  0  0  3  0  0  0  0  0  0
  195.5790  175.1790  139.5710 F   0  0  0  0  0  0  0  0  0  0  0  0
  188.0590  178.0810  142.9760 N   0  0  0  0  0  2  0  0  0  0  0  0
  186.9810  177.9100  140.9150 O   0  0  0  0  0  1  0  0  0  0  0  0
  187.8950  177.2890  141.7670 C   0  0  0  0  0  2  0  0  0  0  0  0
  1  7  1  1  0  0  0
  2 20  1  6  0  0  0
  2  4  1  0  0  0  0
  3  5  1  0  0  0  0
  5 15  2  0  0  0  0
  5 16  1  0  0  0  0
  6 25  1  6  0  0  0
  6  3  1  0  0  0  0
  6  1  1  0  0  0  0
  7  9  1  0  0  0  0
  7 16  1  0  0  0  0
  8  4  1  1  0  0  0
  8  9  1  0  0  0  0
  9 11  2  0  0  0  0
 10 15  1  0  0  0  0
 12  2  1  0  0  0  0
 13 17  1  0  0  0  0
 13  3  2  0  0  0  0
 14 12  1  1  0  0  0
 14  1  1  0  0  0  0
 14  8  1  0  0  0  0
 17 10  2  0  0  0  0
 18 20  2  0  0  0  0
 20 19  1  0  0  0  0
 21 23  2  0  0  0  0
 22 21  1  0  0  0  0
 23 18  1  0  0  0  0
 24 21  1  0  0  0  0
 26 27  1  0  0  0  0
 27 25  1  0  0  0  0
M  END
>  <MODEL>
4

>  <REMARK>
 VINA RESULT:      -7.3      1.606      1.706
  Name = 
  4 active torsions:
  status: ('A' for Active; 'I' for Inactive)
    1  A    between atoms: C_3  and  C_20
    2  A    between atoms: N_4  and  C_8
    3  A    between atoms: N_4  and  C_11
    4  A    between atoms: C_10  and  C_26
                            x       y       z     vdW  Elec       q    Type
                         _______ _______ _______ _____ _____    ______ ____

>  <TORSDO>
F 4

$$$$
=
 OpenBabel11062421103D

 27 30  0  0  1  0  0  0  0  0999 V2000
  188.0410  175.9370  143.9100 C   0  0  1  0  0  3  0  0  0  0  0  0
  191.0110  173.7390  143.7810 C   0  0  2  0  0  3  0  0  0  0  0  0
  186.5040  177.9100  144.2460 C   0  0  0  0  0  0  0  0  0  0  0  0
  191.0070  174.1740  141.9980 S   0  0  0  0  0  0  0  0  0  0  0  0
  185.7410  177.5060  143.1300 C   0  0  0  0  0  0  0  0  0  0  0  0
  187.9130  177.3750  144.4320 C   0  0  1  0  0  3  0  0  0  0  0  0
  187.4150  175.8170  142.5950 N   0  0  0  0  0  0  0  0  0  0  0  0
  189.6790  175.2960  142.3640 C   0  0  1  0  0  3  0  0  0  0  0  0
  188.4130  175.4070  141.6800 C   0  0  0  0  0  0  0  0  0  0  0  0
  183.9780  179.0400  143.7620 C   0  0  0  0  0  3  0  0  0  0  0  0
  188.2070  175.1780  140.4600 O   0  0  0  0  0  0  0  0  0  0  0  0
  190.3910  174.8890  144.5790 C   0  0  0  0  0  2  0  0  0  0  0  0
  185.9940  178.9030  145.0950 C   0  0  0  0  0  3  0  0  0  0  0  0
  189.4790  175.5750  143.6340 C   0  0  2  0  0  3  0  0  0  0  0  0
  184.4840  178.0690  142.8930 C   0  0  0  0  0  3  0  0  0  0  0  0
  186.2630  176.5280  142.2310 N   0  0  0  0  0  2  0  0  0  0  0  0
  184.7330  179.4570  144.8600 C   0  0  0  0  0  3  0  0  0  0  0  0
  193.3130  174.3580  144.3980 C   0  0  0  0  0  3  0  0  0  0  0  0
  192.6550  172.0850  144.6220 O   0  0  0  0  0  1  0  0  0  0  0  0
  192.3850  173.4010  144.2680 C   0  0  0  0  0  0  0  0  0  0  0  0
  195.3280  174.8130  145.7970 C   0  0  0  0  0  0  0  0  0  0  0  0
  194.6670  175.6920  146.5900 F   0  0  0  0  0  0  0  0  0  0  0  0
  194.7130  174.1510  144.8180 C   0  0  0  0  0  3  0  0  0  0  0  0
  196.6260  174.5340  146.0660 F   0  0  0  0  0  0  0  0  0  0  0  0
  188.3120  177.4170  145.8340 N   0  0  0  0  0  2  0  0  0  0  0  0
  188.4220  175.6240  147.3210 O   0  0  0  0  0  1  0  0  0  0  0  0
  187.5600  176.3880  146.5340 C   0  0  0  0  0  2  0  0  0  0  0  0
  1  7  1  6  0  0  0
  1  6  1  0  0  0  0
  2 20  1  1  0  0  0
  2 12  1  0  0  0  0
  3  6  1  0  0  0  0
  3 13  1  0  0  0  0
  4  8  1  0  0  0  0
  4  2  1  0  0  0  0
  5  3  2  0  0  0  0
  6 25  1  1  0  0  0
  8  9  1  1  0  0  0
  8 14  1  0  0  0  0
  9  7  1  0  0  0  0
 10 17  1  0  0  0  0
 11  9  2  0  0  0  0
 14  1  1  0  0  0  0
 14 12  1  1  0  0  0
 15  5  1  0  0  0  0
 15 10  2  0  0  0  0
 16  7  1  0  0  0  0
 16  5  1  0  0  0  0
 17 13  2  0  0  0  0
 18 23  1  0  0  0  0
 20 18  2  0  0  0  0
 20 19  1  0  0  0  0
 21 24  1  0  0  0  0
 21 22  1  0  0  0  0
 23 21  2  0  0  0  0
 25 27  1  0  0  0  0
 27 26  1  0  0  0  0
M  END
>  <MODEL>
5

>  <REMARK>
 VINA RESULT:      -7.2      2.319      3.623
  Name = 
  4 active torsions:
  status: ('A' for Active; 'I' for Inactive)
    1  A    between atoms: C_3  and  C_20
    2  A    between atoms: N_4  and  C_8
    3  A    between atoms: N_4  and  C_11
    4  A    between atoms: C_10  and  C_26
                            x       y       z     vdW  Elec       q    Type
                         _______ _______ _______ _____ _____    ______ ____

>  <TORSDO>
F 4

$$$$
=
 OpenBabel11062421103D

 27 30  0  0  1  0  0  0  0  0999 V2000
  191.4610  176.1630  143.5910 C   0  0  1  0  0  3  0  0  0  0  0  0
  188.1560  177.5610  142.6980 C   0  0  2  0  0  3  0  0  0  0  0  0
  193.3960  175.1410  144.8460 C   0  0  0  0  0  0  0  0  0  0  0  0
  187.8580  175.8880  142.0080 S   0  0  0  0  0  0  0  0  0  0  0  0
  193.8010  174.4670  143.6750 C   0  0  0  0  0  0  0  0  0  0  0  0
  191.9830  175.6880  144.9540 C   0  0  1  0  0  3  0  0  0  0  0  0
  191.7470  175.1650  142.5630 N   0  0  0  0  0  0  0  0  0  0  0  0
  189.4310  175.4200  142.6890 C   0  0  1  0  0  3  0  0  0  0  0  0
  190.5130  174.7460  142.0140 C   0  0  0  0  0  0  0  0  0  0  0  0
  195.9290  173.9350  144.6990 C   0  0  0  0  0  3  0  0  0  0  0  0
  190.3970  173.9130  141.0780 O   0  0  0  0  0  0  0  0  0  0  0  0
  189.1520  177.4550  143.8560 C   0  0  0  0  0  2  0  0  0  0  0  0
  194.2660  175.1770  145.9460 C   0  0  0  0  0  3  0  0  0  0  0  0
  189.9540  176.2420  143.5740 C   0  0  2  0  0  3  0  0  0  0  0  0
  195.0620  173.8700  143.6050 C   0  0  0  0  0  3  0  0  0  0  0  0
  192.9100  174.3830  142.5630 N   0  0  0  0  0  2  0  0  0  0  0  0
  195.5300  174.5870  145.8680 C   0  0  0  0  0  3  0  0  0  0  0  0
  186.6170  178.4240  144.4170 C   0  0  0  0  0  3  0  0  0  0  0  0
  186.0100  178.6660  142.1320 O   0  0  0  0  0  1  0  0  0  0  0  0
  186.8820  178.2250  143.1190 C   0  0  0  0  0  0  0  0  0  0  0  0
  184.4880  178.3750  145.7150 C   0  0  0  0  0  0  0  0  0  0  0  0
  184.6960  177.1060  146.1440 F   0  0  0  0  0  0  0  0  0  0  0  0
  185.3820  179.0180  144.9640 C   0  0  0  0  0  3  0  0  0  0  0  0
  183.3850  179.0390  146.1370 F   0  0  0  0  0  0  0  0  0  0  0  0
  191.9160  176.7910  145.9070 N   0  0  0  0  0  2  0  0  0  0  0  0
  190.0900  177.3390  147.2490 O   0  0  0  0  0  1  0  0  0  0  0  0
  191.0620  176.3680  147.0060 C   0  0  0  0  0  2  0  0  0  0  0  0
  1  7  1  6  0  0  0
  1  6  1  0  0  0  0
  2 20  1  1  0  0  0
  2 12  1  0  0  0  0
  3  6  1  0  0  0  0
  3 13  1  0  0  0  0
  4  2  1  0  0  0  0
  5  3  2  0  0  0  0
  6 25  1  1  0  0  0
  8  4  1  6  0  0  0
  8 14  1  0  0  0  0
  9  7  1  0  0  0  0
  9  8  1  0  0  0  0
 10 17  1  0  0  0  0
 11  9  2  0  0  0  0
 14  1  1  0  0  0  0
 14 12  1  6  0  0  0
 15  5  1  0  0  0  0
 15 10  2  0  0  0  0
 16  7  1  0  0  0  0
 16  5  1  0  0  0  0
 17 13  2  0  0  0  0
 18 23  1  0  0  0  0
 19 20  1  0  0  0  0
 20 18  2  0  0  0  0
 21 24  1  0  0  0  0
 21 22  1  0  0  0  0
 23 21  2  0  0  0  0
 25 27  1  0  0  0  0
 27 26  1  0  0  0  0
M  END
>  <MODEL>
6

>  <REMARK>
 VINA RESULT:      -7.1      4.379      8.372
  Name = 
  4 active torsions:
  status: ('A' for Active; 'I' for Inactive)
    1  A    between atoms: C_3  and  C_20
    2  A    between atoms: N_4  and  C_8
    3  A    between atoms: N_4  and  C_11
    4  A    between atoms: C_10  and  C_26
                            x       y       z     vdW  Elec       q    Type
                         _______ _______ _______ _____ _____    ______ ____

>  <TORSDO>
F 4

$$$$
=
 OpenBabel11062421103D

 27 30  0  0  1  0  0  0  0  0999 V2000
  186.2930  177.0950  143.5340 C   0  0  1  0  0  3  0  0  0  0  0  0
  189.2510  176.1370  145.5340 C   0  0  2  0  0  3  0  0  0  0  0  0
  184.1610  178.1830  142.7360 C   0  0  0  0  0  0  0  0  0  0  0  0
  190.1340  177.2910  144.4140 S   0  0  0  0  0  0  0  0  0  0  0  0
  184.6210  178.1110  141.4050 C   0  0  0  0  0  0  0  0  0  0  0  0
  185.1460  178.0520  143.8850 C   0  0  1  0  0  3  0  0  0  0  0  0
  186.8100  177.3930  142.1990 N   0  0  0  0  0  0  0  0  0  0  0  0
  188.5470  177.7020  143.7280 C   0  0  1  0  0  3  0  0  0  0  0  0
  188.1760  177.7340  142.3340 C   0  0  0  0  0  0  0  0  0  0  0  0
  182.4000  178.6300  140.5940 C   0  0  0  0  0  3  0  0  0  0  0  0
  188.9370  178.0160  141.3710 O   0  0  0  0  0  0  0  0  0  0  0  0
  187.7940  176.5860  145.6680 C   0  0  0  0  0  2  0  0  0  0  0  0
  182.8170  178.5070  142.9750 C   0  0  0  0  0  3  0  0  0  0  0  0
  187.4930  177.3230  144.4190 C   0  0  2  0  0  3  0  0  0  0  0  0
  183.7420  178.3330  140.3410 C   0  0  0  0  0  3  0  0  0  0  0  0
  185.9950  177.8260  141.1450 N   0  0  0  0  0  2  0  0  0  0  0  0
  181.9390  178.7190  141.9090 C   0  0  0  0  0  3  0  0  0  0  0  0
  190.6530  177.0490  147.3420 C   0  0  0  0  0  3  0  0  0  0  0  0
  189.7390  174.8720  147.6100 O   0  0  0  0  0  1  0  0  0  0  0  0
  189.9250  176.0310  146.8660 C   0  0  0  0  0  0  0  0  0  0  0  0
  191.4170  178.0500  149.4960 C   0  0  0  0  0  0  0  0  0  0  0  0
  190.6250  179.1410  149.3520 F   0  0  0  0  0  0  0  0  0  0  0  0
  191.4060  177.0530  148.6110 C   0  0  0  0  0  3  0  0  0  0  0  0
  192.1700  177.9280  150.6160 F   0  0  0  0  0  0  0  0  0  0  0  0
  184.4820  177.5850  145.0980 N   0  0  0  0  0  2  0  0  0  0  0  0
  185.4260  179.0140  146.6800 O   0  0  0  0  0  1  0  0  0  0  0  0
  184.2670  178.7430  145.9520 C   0  0  0  0  0  2  0  0  0  0  0  0
  1  7  1  6  0  0  0
  1  6  1  0  0  0  0
  1 14  1  0  0  0  0
  2 12  1  0  0  0  0
  2 20  1  1  0  0  0
  3 13  1  0  0  0  0
  3  6  1  0  0  0  0
  4  2  1  0  0  0  0
  5  3  2  0  0  0  0
  6 25  1  1  0  0  0
  7  9  1  0  0  0  0
  8  9  1  6  0  0  0
  8  4  1  0  0  0  0
  8 14  1  0  0  0  0
 10 17  1  0  0  0  0
 11  9  2  0  0  0  0
 14 12  1  6  0  0  0
 15 10  2  0  0  0  0
 15  5  1  0  0  0  0
 16  5  1  0  0  0  0
 16  7  1  0  0  0  0
 17 13  2  0  0  0  0
 18 23  1  0  0  0  0
 20 18  2  0  0  0  0
 20 19  1  0  0  0  0
 21 24  1  0  0  0  0
 22 21  1  0  0  0  0
 23 21  2  0  0  0  0
 25 27  1  0  0  0  0
 27 26  1  0  0  0  0
M  END
>  <MODEL>
7

>  <REMARK>
 VINA RESULT:      -7.0      4.003      5.496
  Name = 
  4 active torsions:
  status: ('A' for Active; 'I' for Inactive)
    1  A    between atoms: C_3  and  C_20
    2  A    between atoms: N_4  and  C_8
    3  A    between atoms: N_4  and  C_11
    4  A    between atoms: C_10  and  C_26
                            x       y       z     vdW  Elec       q    Type
                         _______ _______ _______ _____ _____    ______ ____

>  <TORSDO>
F 4

$$$$
=
 OpenBabel11062421103D

 27 30  0  0  1  0  0  0  0  0999 V2000
  192.6710  176.5060  143.3850 C   0  0  1  0  0  3  0  0  0  0  0  0
  189.1820  176.9240  144.5350 C   0  0  2  0  0  3  0  0  0  0  0  0
  195.1490  176.0430  143.2940 C   0  0  0  0  0  0  0  0  0  0  0  0
  188.9520  175.2580  143.8020 S   0  0  0  0  0  0  0  0  0  0  0  0
  195.0100  175.5530  141.9790 C   0  0  0  0  0  0  0  0  0  0  0  0
  193.9300  176.1580  144.1910 C   0  0  1  0  0  3  0  0  0  0  0  0
  192.5850  175.6660  142.1920 N   0  0  0  0  0  0  0  0  0  0  0  0
  190.7040  175.2410  143.5070 C   0  0  1  0  0  3  0  0  0  0  0  0
  191.3810  174.9280  142.2710 C   0  0  0  0  0  0  0  0  0  0  0  0
  197.4120  175.6220  141.6830 C   0  0  0  0  0  3  0  0  0  0  0  0
  190.9790  174.1270  141.3880 O   0  0  0  0  0  0  0  0  0  0  0  0
  190.6340  177.0720  144.9970 C   0  0  0  0  0  2  0  0  0  0  0  0
  196.4360  176.2930  143.7940 C   0  0  0  0  0  3  0  0  0  0  0  0
  191.4150  176.1500  144.1390 C   0  0  2  0  0  3  0  0  0  0  0  0
  196.1380  175.3450  141.1790 C   0  0  0  0  0  3  0  0  0  0  0  0
  193.7120  175.2510  141.4690 N   0  0  0  0  0  2  0  0  0  0  0  0
  197.5600  176.0940  142.9890 C   0  0  0  0  0  3  0  0  0  0  0  0
  186.8990  177.0220  145.4550 C   0  0  0  0  0  3  0  0  0  0  0  0
  188.7200  177.5390  146.8930 O   0  0  0  0  0  1  0  0  0  0  0  0
  188.2150  177.1800  145.6490 C   0  0  0  0  0  0  0  0  0  0  0  0
  185.2830  178.4770  146.6780 C   0  0  0  0  0  0  0  0  0  0  0  0
  185.5730  179.5610  145.9160 F   0  0  0  0  0  0  0  0  0  0  0  0
  185.8430  177.2890  146.4500 C   0  0  0  0  0  3  0  0  0  0  0  0
  184.3330  178.5840  147.6370 F   0  0  0  0  0  0  0  0  0  0  0  0
  194.1310  177.1640  145.2280 N   0  0  0  0  0  2  0  0  0  0  0  0
  193.9430  175.1090  146.3130 O   0  0  0  0  0  1  0  0  0  0  0  0
  194.1270  176.4770  146.5110 C   0  0  0  0  0  2  0  0  0  0  0  0
  1  7  1  6  0  0  0
  1 14  1  0  0  0  0
  1  6  1  0  0  0  0
  2 12  1  0  0  0  0
  2 20  1  1  0  0  0
  3 13  1  0  0  0  0
  3  6  1  0  0  0  0
  4  2  1  0  0  0  0
  5  3  2  0  0  0  0
  6 25  1  1  0  0  0
  7  9  1  0  0  0  0
  8  9  1  6  0  0  0
  8  4  1  0  0  0  0
  8 14  1  0  0  0  0
 10 17  1  0  0  0  0
 11  9  2  0  0  0  0
 14 12  1  6  0  0  0
 15 10  2  0  0  0  0
 15  5  1  0  0  0  0
 16  5  1  0  0  0  0
 16  7  1  0  0  0  0
 17 13  2  0  0  0  0
 18 20  2  0  0  0  0
 18 23  1  0  0  0  0
 20 19  1  0  0  0  0
 21 24  1  0  0  0  0
 22 21  1  0  0  0  0
 23 21  2  0  0  0  0
 25 27  1  0  0  0  0
 26 27  1  0  0  0  0
M  END
>  <MODEL>
8

>  <REMARK>
 VINA RESULT:      -7.0      4.429      8.757
  Name = 
  4 active torsions:
  status: ('A' for Active; 'I' for Inactive)
    1  A    between atoms: C_3  and  C_20
    2  A    between atoms: N_4  and  C_8
    3  A    between atoms: N_4  and  C_11
    4  A    between atoms: C_10  and  C_26
                            x       y       z     vdW  Elec       q    Type
                         _______ _______ _______ _____ _____    ______ ____

>  <TORSDO>
F 4

$$$$
=
 OpenBabel11062421103D

 27 30  0  0  1  0  0  0  0  0999 V2000
  186.5010  177.8960  143.8010 C   0  0  1  0  0  3  0  0  0  0  0  0
  183.6190  178.6660  141.6170 C   0  0  2  0  0  3  0  0  0  0  0  0
  188.0610  176.7920  145.4480 C   0  0  0  0  0  0  0  0  0  0  0  0
  184.6860  177.9640  140.2990 S   0  0  0  0  0  0  0  0  0  0  0  0
  189.1700  177.2670  144.7170 C   0  0  0  0  0  0  0  0  0  0  0  0
  186.6900  176.7430  144.7970 C   0  0  1  0  0  3  0  0  0  0  0  0
  187.6780  178.0240  142.9440 N   0  0  0  0  0  0  0  0  0  0  0  0
  185.8460  177.5490  141.5790 C   0  0  1  0  0  3  0  0  0  0  0  0
  187.2600  177.8360  141.6060 C   0  0  0  0  0  0  0  0  0  0  0  0
  190.6430  176.7000  146.5530 C   0  0  0  0  0  3  0  0  0  0  0  0
  188.0200  177.9120  140.6060 O   0  0  0  0  0  0  0  0  0  0  0  0
  183.9840  178.0170  142.9540 C   0  0  0  0  0  2  0  0  0  0  0  0
  188.2700  176.2500  146.7250 C   0  0  0  0  0  3  0  0  0  0  0  0
  185.3980  177.5990  142.8150 C   0  0  2  0  0  3  0  0  0  0  0  0
  190.4530  177.2200  145.2700 C   0  0  0  0  0  3  0  0  0  0  0  0
  188.9820  177.7810  143.3990 N   0  0  0  0  0  2  0  0  0  0  0  0
  189.5530  176.2140  147.2780 C   0  0  0  0  0  3  0  0  0  0  0  0
  181.2330  179.0410  142.0990 C   0  0  0  0  0  3  0  0  0  0  0  0
  181.8130  177.8310  140.1370 O   0  0  0  0  0  1  0  0  0  0  0  0
  182.1650  178.5060  141.2990 C   0  0  0  0  0  0  0  0  0  0  0  0
  179.0320  179.6330  141.0850 C   0  0  0  0  0  0  0  0  0  0  0  0
  179.5900  180.5010  140.2060 F   0  0  0  0  0  0  0  0  0  0  0  0
  179.7730  178.9140  141.9270 C   0  0  0  0  0  3  0  0  0  0  0  0
  177.6940  179.4250  141.0420 F   0  0  0  0  0  0  0  0  0  0  0  0
  185.6290  176.7900  145.7960 N   0  0  0  0  0  2  0  0  0  0  0  0
  184.2410  178.4020  146.7510 O   0  0  0  0  0  1  0  0  0  0  0  0
  185.5250  178.1660  146.2590 C   0  0  0  0  0  2  0  0  0  0  0  0
  1  7  1  6  0  0  0
  1  6  1  0  0  0  0
  2 20  1  6  0  0  0
  2 12  1  0  0  0  0
  3 13  1  0  0  0  0
  4  2  1  0  0  0  0
  5 15  1  0  0  0  0
  5  3  2  0  0  0  0
  6  3  1  0  0  0  0
  6 25  1  1  0  0  0
  7 16  1  0  0  0  0
  8  4  1  6  0  0  0
  8  9  1  0  0  0  0
  8 14  1  0  0  0  0
  9  7  1  0  0  0  0
 10 17  1  0  0  0  0
 11  9  2  0  0  0  0
 13 17  2  0  0  0  0
 14 12  1  6  0  0  0
 14  1  1  0  0  0  0
 15 10  2  0  0  0  0
 16  5  1  0  0  0  0
 19 20  1  0  0  0  0
 20 18  2  0  0  0  0
 21 23  2  0  0  0  0
 22 21  1  0  0  0  0
 23 18  1  0  0  0  0
 24 21  1  0  0  0  0
 25 27  1  0  0  0  0
 27 26  1  0  0  0  0
M  END
>  <MODEL>
9

>  <REMARK>
 VINA RESULT:      -7.0      6.098      9.664
  Name = 
  4 active torsions:
  status: ('A' for Active; 'I' for Inactive)
    1  A    between atoms: C_3  and  C_20
    2  A    between atoms: N_4  and  C_8
    3  A    between atoms: N_4  and  C_11
    4  A    between atoms: C_10  and  C_26
                            x       y       z     vdW  Elec       q    Type
                         _______ _______ _______ _____ _____    ______ ____

>  <TORSDO>
F 4

$$$$
