=
 OpenBabel11062420393D

 60 65  0  0  1  0  0  0  0  0999 V2000
  193.7380  173.1690  143.6080 C   0  0  2  0  0  3  0  0  0  0  0  0
  192.8970  171.4260  140.9090 C   0  0  2  0  0  3  0  0  0  0  0  0
  187.2920  176.3940  144.2970 O   0  0  0  0  0  0  0  0  0  0  0  0
  189.8810  177.8490  145.8260 O   0  0  0  0  0  0  0  0  0  0  0  0
  189.1720  175.4650  140.8430 C   0  0  0  0  0  2  0  0  0  0  0  0
  188.4360  175.9900  146.4150 C   0  0  0  0  0  2  0  0  0  0  0  0
  192.5060  172.8600  141.2730 C   0  0  2  0  0  3  0  0  0  0  0  0
  193.5810  173.5720  142.1250 C   0  0  1  0  0  3  0  0  0  0  0  0
  192.8460  173.9300  144.6000 C   0  0  1  0  0  3  0  0  0  0  0  0
  194.8730  175.2590  145.0890 C   0  0  0  0  0  3  0  0  0  0  0  0
  195.6180  174.4070  144.1030 C   0  0  2  0  0  3  0  0  0  0  0  0
  192.2110  170.5280  141.9240 C   0  0  1  0  0  3  0  0  0  0  0  0
  192.4140  173.0540  145.5800 F   0  0  0  0  0  0  0  0  0  0  0  0
  194.2790  171.2200  140.9150 O   0  0  0  0  0  1  0  0  0  0  0  0
  190.1580  173.3710  141.5500 C   0  0  0  0  0  0  0  0  0  0  0  0
  193.5660  175.0820  145.2660 C   0  0  0  0  0  0  0  0  0  0  0  0
  190.7830  176.2320  147.2850 C   0  0  1  0  0  3  0  0  0  0  0  0
  190.8060  171.1620  143.8730 C   0  0  0  0  0  1  0  0  0  0  0  0
  191.0950  177.3750  145.2860 C   0  0  0  0  0  2  0  0  0  0  0  0
  191.4580  176.0840  145.9710 C   0  0  1  0  0  3  0  0  0  0  0  0
  189.5260  176.9770  146.8770 C   0  0  1  0  0  3  0  0  0  0  0  0
  187.2300  176.5980  145.6900 C   0  0  1  0  0  3  0  0  0  0  0  0
  195.0870  173.0990  144.0380 O   0  0  0  0  0  0  0  0  0  0  0  0
  191.1950  172.6990  141.9710 C   0  0  0  0  0  0  0  0  0  0  0  0
  189.0980  174.0000  141.1230 C   0  0  0  0  0  0  0  0  0  0  0  0
  188.0500  176.2170  141.5420 C   0  0  0  0  0  2  0  0  0  0  0  0
  192.8650  175.9580  146.0960 O   0  0  0  0  0  0  0  0  0  0  0  0
  189.4020  178.1130  142.0580 O   0  0  0  0  0  0  0  0  0  0  0  0
  190.5120  174.9970  147.8430 F   0  0  0  0  0  0  0  0  0  0  0  0
  188.5930  177.2430  142.4810 C   0  0  0  0  0  0  0  0  0  0  0  0
  190.9720  171.2830  142.3730 C   0  0  1  0  0  3  0  0  0  0  0  0
  188.1900  177.2710  143.8160 O   0  0  0  0  0  0  0  0  0  0  0  0
  190.8270  169.6370  140.5400 O   0  0  0  0  0  1  0  0  0  0  0  0
  191.8410  169.3240  141.3230 O   0  0  0  0  0  0  0  0  0  0  0  0
  197.0940  174.3610  144.4630 C   0  0  0  0  0  2  0  0  0  0  0  0
  197.9360  175.0420  143.3950 C   0  0  0  0  0  3  0  0  0  0  0  0
  197.9350  174.2200  142.1170 C   0  0  0  0  0  1  0  0  0  0  0  0
  197.3620  176.4120  143.1070 C   0  0  0  0  0  1  0  0  0  0  0  0
  193.7610  174.9570  141.8270 O   0  0  0  0  0  0  0  0  0  0  0  0
  195.0790  174.5490  139.7590 C   0  0  0  0  0  1  0  0  0  0  0  0
  194.5830  175.4640  140.8160 C   0  0  0  0  0  0  0  0  0  0  0  0
  194.9170  176.6750  140.7860 O   0  0  0  0  0  0  0  0  0  0  0  0
  187.9360  173.2020  140.6340 C   0  0  0  0  0  2  0  0  0  0  0  0
  188.2670  172.5470  139.3020 C   0  0  0  0  0  2  0  0  0  0  0  0
  188.4040  173.5350  138.1800 C   0  0  0  0  0  0  0  0  0  0  0  0
  187.5480  174.3990  138.0560 O   0  0  0  0  0  0  0  0  0  0  0  0
  189.5490  173.4670  137.2030 C   0  0  1  0  0  3  0  0  0  0  0  0
  190.6400  174.5810  135.4140 O   0  0  0  0  0  0  0  0  0  0  0  0
  189.4750  174.5670  136.1520 C   0  0  0  0  0  3  0  0  0  0  0  0
  189.5440  174.0090  134.8920 O   0  0  0  0  0  0  0  0  0  0  0  0
  190.9200  173.3950  137.8900 C   0  0  0  0  0  2  0  0  0  0  0  0
  191.6410  172.0660  137.6980 C   0  0  0  0  0  2  0  0  0  0  0  0
  193.0790  172.2960  137.2770 C   0  0  0  0  0  1  0  0  0  0  0  0
  187.0020  177.9470  146.0210 O   0  0  0  0  0  0  0  0  0  0  0  0
  185.6110  178.1190  146.1100 C   0  0  1  0  0  0  0  0  0  0  0  0
  183.9400  178.7500  147.7140 F   0  0  0  0  0  0  0  0  0  0  0  0
  184.8170  176.9000  146.5290 C   0  0  0  0  0  2  0  0  0  0  0  0
  185.0950  178.0110  147.5360 C   0  0  1  0  0  3  0  0  0  0  0  0
  184.9450  179.1280  145.2190 C   0  0  0  0  0  3  0  0  0  0  0  0
  185.3920  179.3460  144.1100 O   0  0  0  0  0  0  0  0  0  0  0  0
  1 23  1  1  0  0  0
  1  9  1  0  0  0  0
  2 14  1  1  0  0  0
  2  7  1  0  0  0  0
  2 12  1  0  0  0  0
  3 22  1  0  0  0  0
  4 21  1  0  0  0  0
  5 25  1  0  0  0  0
  5 26  1  0  0  0  0
  7 24  1  1  0  0  0
  7  8  1  0  0  0  0
  8 39  1  1  0  0  0
  8  1  1  0  0  0  0
  9 16  1  0  0  0  0
  9 13  1  1  0  0  0
 10 16  2  0  0  0  0
 11 35  1  1  0  0  0
 11 10  1  0  0  0  0
 12 34  1  6  0  0  0
 12 31  1  0  0  0  0
 15 24  2  0  0  0  0
 16 27  1  0  0  0  0
 17 29  1  6  0  0  0
 19  4  1  0  0  0  0
 20 19  1  6  0  0  0
 20 27  1  0  0  0  0
 20 17  1  0  0  0  0
 21  6  1  6  0  0  0
 21 17  1  0  0  0  0
 22 54  1  6  0  0  0
 22  6  1  0  0  0  0
 23 11  1  0  0  0  0
 24 31  1  0  0  0  0
 25 15  2  0  0  0  0
 26 30  1  0  0  0  0
 28 30  2  0  0  0  0
 30 32  1  0  0  0  0
 31 18  1  1  0  0  0
 32  3  1  0  0  0  0
 33 34  1  0  0  0  0
 36 35  1  0  0  0  0
 37 36  1  0  0  0  0
 38 36  1  0  0  0  0
 40 41  1  0  0  0  0
 41 39  1  0  0  0  0
 42 41  2  0  0  0  0
 43 25  1  0  0  0  0
 44 43  1  0  0  0  0
 45 44  1  0  0  0  0
 46 45  2  0  0  0  0
 47 51  1  1  0  0  0
 47 45  1  0  0  0  0
 48 49  1  0  0  0  0
 49 47  1  0  0  0  0
 50 48  1  0  0  0  0
 50 49  1  0  0  0  0
 52 51  1  0  0  0  0
 53 52  1  0  0  0  0
 54 55  1  0  0  0  0
 55 59  1  6  0  0  0
 55 57  1  0  0  0  0
 55 58  1  0  0  0  0
 57 58  1  0  0  0  0
 58 56  1  6  0  0  0
 60 59  2  0  0  0  0
M  END
>  <MODEL>
1

>  <REMARK>
 VINA RESULT:      -7.0      0.000      0.000
  Name = 
  15 active torsions:
  status: ('A' for Active; 'I' for Inactive)
    1  A    between atoms: C_2  and  C_18
    2  A    between atoms: C_2  and  C_29
    3  A    between atoms: C_4  and  C_7
    4  A    between atoms: C_4  and  C_25
    5  A    between atoms: C_4  and  C_43
    6  A    between atoms: O_6  and  C_11
    7  A    between atoms: O_6  and  C_15
    8  A    between atoms: C_7  and  C_27
    9  A    between atoms: C_10  and  O_36
   10  A    between atoms: C_10  and  C_50
   11  A    between atoms: C_19  and  O_42
   12  A    between atoms: C_27  and  C_34
   13  A    between atoms: C_34  and  C_49
   14  A    between atoms: O_36  and  C_46
   15  A    between atoms: C_43  and  C_44
                            x       y       z     vdW  Elec       q    Type
                         _______ _______ _______ _____ _____    ______ ____

>  <TORSDO>
F 15

$$$$
=
 OpenBabel11062420393D

 60 65  0  0  1  0  0  0  0  0999 V2000
  188.3980  175.4100  143.2450 C   0  0  2  0  0  3  0  0  0  0  0  0
  189.5700  176.1430  146.2650 C   0  0  2  0  0  3  0  0  0  0  0  0
  194.3020  171.7790  141.1520 O   0  0  0  0  0  0  0  0  0  0  0  0
  192.2800  172.8940  138.7400 O   0  0  0  0  0  0  0  0  0  0  0  0
  194.1930  175.0680  143.4960 C   0  0  0  0  0  2  0  0  0  0  0  0
  192.2230  170.9450  140.1840 C   0  0  0  0  0  2  0  0  0  0  0  0
  190.3280  176.1040  144.9360 C   0  0  2  0  0  3  0  0  0  0  0  0
  189.4300  176.4540  143.7280 C   0  0  1  0  0  3  0  0  0  0  0  0
  188.9140  174.3960  142.2130 C   0  0  1  0  0  3  0  0  0  0  0  0
  187.7660  175.8160  140.5460 C   0  0  0  0  0  3  0  0  0  0  0  0
  187.3150  176.7010  141.6720 C   0  0  2  0  0  3  0  0  0  0  0  0
  189.1730  174.7080  146.5690 C   0  0  1  0  0  3  0  0  0  0  0  0
  188.3550  173.1590  142.4810 F   0  0  0  0  0  0  0  0  0  0  0  0
  188.4480  176.9740  146.2270 O   0  0  0  0  0  1  0  0  0  0  0  0
  192.1660  174.5480  144.7120 C   0  0  0  0  0  0  0  0  0  0  0  0
  188.5700  174.7840  140.7920 C   0  0  0  0  0  0  0  0  0  0  0  0
  190.1590  171.9590  139.1680 C   0  0  1  0  0  3  0  0  0  0  0  0
  189.5390  172.6640  145.2070 C   0  0  0  0  0  1  0  0  0  0  0  0
  191.4310  173.9030  139.2430 C   0  0  0  0  0  2  0  0  0  0  0  0
  190.2400  173.2510  139.8950 C   0  0  1  0  0  3  0  0  0  0  0  0
  191.6310  171.6600  138.9540 C   0  0  1  0  0  3  0  0  0  0  0  0
  193.7520  170.8510  140.2460 C   0  0  1  0  0  3  0  0  0  0  0  0
  187.1520  175.9740  142.8720 O   0  0  0  0  0  0  0  0  0  0  0  0
  190.8840  174.7190  144.8910 C   0  0  0  0  0  0  0  0  0  0  0  0
  193.4490  174.3520  144.5750 C   0  0  0  0  0  0  0  0  0  0  0  0
  195.0210  174.1020  142.6640 C   0  0  0  0  0  2  0  0  0  0  0  0
  189.0760  174.0440  139.7230 O   0  0  0  0  0  0  0  0  0  0  0  0
  194.6180  175.2470  140.6100 O   0  0  0  0  0  0  0  0  0  0  0  0
  189.5270  171.0000  139.9350 F   0  0  0  0  0  0  0  0  0  0  0  0
  194.6160  174.1460  141.2270 C   0  0  0  0  0  0  0  0  0  0  0  0
  190.2120  173.8380  145.8850 C   0  0  1  0  0  3  0  0  0  0  0  0
  194.2690  172.9800  140.5480 O   0  0  0  0  0  0  0  0  0  0  0  0
  190.3630  174.9710  148.3410 O   0  0  0  0  0  1  0  0  0  0  0  0
  189.2010  174.4870  147.9470 O   0  0  0  0  0  0  0  0  0  0  0  0
  186.0210  177.4030  141.2980 C   0  0  0  0  0  2  0  0  0  0  0  0
  185.2230  177.7720  142.5390 C   0  0  0  0  0  3  0  0  0  0  0  0
  185.7800  179.0390  143.1680 C   0  0  0  0  0  1  0  0  0  0  0  0
  183.7780  178.0010  142.1520 C   0  0  0  0  0  1  0  0  0  0  0  0
  190.0680  177.2260  142.7100 O   0  0  0  0  0  0  0  0  0  0  0  0
  191.4090  179.1430  143.5500 C   0  0  0  0  0  1  0  0  0  0  0  0
  191.3140  177.8480  142.8320 C   0  0  0  0  0  0  0  0  0  0  0  0
  192.3530  177.3400  142.3410 O   0  0  0  0  0  0  0  0  0  0  0  0
  194.1930  173.6700  145.6730 C   0  0  0  0  0  2  0  0  0  0  0  0
  194.2550  172.1720  145.4200 C   0  0  0  0  0  2  0  0  0  0  0  0
  195.6420  171.6120  145.5520 C   0  0  0  0  0  0  0  0  0  0  0  0
  196.5820  172.3910  145.6180 O   0  0  0  0  0  0  0  0  0  0  0  0
  195.8950  170.1270  145.5800 C   0  0  1  0  0  3  0  0  0  0  0  0
  196.3550  168.2320  144.2280 O   0  0  0  0  0  0  0  0  0  0  0  0
  196.4260  169.6090  144.2500 C   0  0  0  0  0  3  0  0  0  0  0  0
  195.4210  168.9430  143.5780 O   0  0  0  0  0  0  0  0  0  0  0  0
  196.7570  169.6870  146.7730 C   0  0  0  0  0  2  0  0  0  0  0  0
  196.0960  168.6410  147.6620 C   0  0  0  0  0  2  0  0  0  0  0  0
  194.6130  168.5480  147.3650 C   0  0  0  0  0  1  0  0  0  0  0  0
  194.3660  170.9140  138.9810 O   0  0  0  0  0  0  0  0  0  0  0  0
  195.0430  169.6970  138.7920 C   0  0  1  0  0  0  0  0  0  0  0  0
  196.4710  168.6230  137.1890 F   0  0  0  0  0  0  0  0  0  0  0  0
  194.2740  168.6150  138.0660 C   0  0  0  0  0  2  0  0  0  0  0  0
  195.3450  169.4130  137.3300 C   0  0  1  0  0  3  0  0  0  0  0  0
  196.0790  169.2790  139.7960 C   0  0  0  0  0  3  0  0  0  0  0  0
  196.0370  168.1670  140.2840 O   0  0  0  0  0  0  0  0  0  0  0  0
  1 23  1  6  0  0  0
  1  8  1  0  0  0  0
  2 14  1  6  0  0  0
  2 12  1  0  0  0  0
  4 21  1  0  0  0  0
  4 19  1  0  0  0  0
  5 25  1  0  0  0  0
  6 22  1  0  0  0  0
  7 24  1  6  0  0  0
  7  2  1  0  0  0  0
  8 39  1  6  0  0  0
  8  7  1  0  0  0  0
  9 13  1  1  0  0  0
  9  1  1  0  0  0  0
 10 16  2  0  0  0  0
 10 11  1  0  0  0  0
 11 35  1  6  0  0  0
 11 23  1  0  0  0  0
 12 34  1  1  0  0  0
 15 24  2  0  0  0  0
 16  9  1  0  0  0  0
 17 20  1  0  0  0  0
 17 29  1  1  0  0  0
 20 19  1  6  0  0  0
 21 17  1  0  0  0  0
 21  6  1  1  0  0  0
 22 54  1  6  0  0  0
 22  3  1  0  0  0  0
 24 31  1  0  0  0  0
 25 15  2  0  0  0  0
 25 43  1  0  0  0  0
 26  5  1  0  0  0  0
 27 20  1  0  0  0  0
 27 16  1  0  0  0  0
 28 30  2  0  0  0  0
 30 26  1  0  0  0  0
 31 18  1  6  0  0  0
 31 12  1  0  0  0  0
 32  3  1  0  0  0  0
 32 30  1  0  0  0  0
 34 33  1  0  0  0  0
 35 36  1  0  0  0  0
 36 37  1  0  0  0  0
 38 36  1  0  0  0  0
 39 41  1  0  0  0  0
 41 40  1  0  0  0  0
 42 41  2  0  0  0  0
 44 45  1  0  0  0  0
 44 43  1  0  0  0  0
 45 47  1  0  0  0  0
 45 46  2  0  0  0  0
 47 51  1  1  0  0  0
 48 49  1  0  0  0  0
 49 47  1  0  0  0  0
 50 48  1  0  0  0  0
 50 49  1  0  0  0  0
 51 52  1  0  0  0  0
 53 52  1  0  0  0  0
 55 54  1  0  0  0  0
 55 59  1  1  0  0  0
 57 55  1  0  0  0  0
 58 56  1  1  0  0  0
 58 57  1  0  0  0  0
 58 55  1  0  0  0  0
 59 60  2  0  0  0  0
M  END
>  <MODEL>
2

>  <REMARK>
 VINA RESULT:      -5.7      3.205      9.744
  Name = 
  15 active torsions:
  status: ('A' for Active; 'I' for Inactive)
    1  A    between atoms: C_2  and  C_18
    2  A    between atoms: C_2  and  C_29
    3  A    between atoms: C_4  and  C_7
    4  A    between atoms: C_4  and  C_25
    5  A    between atoms: C_4  and  C_43
    6  A    between atoms: O_6  and  C_11
    7  A    between atoms: O_6  and  C_15
    8  A    between atoms: C_7  and  C_27
    9  A    between atoms: C_10  and  O_36
   10  A    between atoms: C_10  and  C_50
   11  A    between atoms: C_19  and  O_42
   12  A    between atoms: C_27  and  C_34
   13  A    between atoms: C_34  and  C_49
   14  A    between atoms: O_36  and  C_46
   15  A    between atoms: C_43  and  C_44
                            x       y       z     vdW  Elec       q    Type
                         _______ _______ _______ _____ _____    ______ ____

>  <TORSDO>
F 15

$$$$
=
 OpenBabel11062420393D

 60 65  0  0  1  0  0  0  0  0999 V2000
  190.3000  176.5460  145.1020 C   0  0  2  0  0  3  0  0  0  0  0  0
  187.1680  176.3460  144.0140 C   0  0  2  0  0  3  0  0  0  0  0  0
  193.2290  173.8300  139.0640 O   0  0  0  0  0  0  0  0  0  0  0  0
  195.0980  173.7230  141.8300 O   0  0  0  0  0  0  0  0  0  0  0  0
  189.7240  172.7390  140.7500 C   0  0  0  0  0  2  0  0  0  0  0  0
  194.6350  175.4650  140.2060 C   0  0  0  0  0  2  0  0  0  0  0  0
  188.3160  175.3590  143.7910 C   0  0  2  0  0  3  0  0  0  0  0  0
  189.3310  175.3510  144.9560 C   0  0  1  0  0  3  0  0  0  0  0  0
  191.6170  176.4300  144.3220 C   0  0  1  0  0  3  0  0  0  0  0  0
  192.6090  175.7840  146.4930 C   0  0  0  0  0  3  0  0  0  0  0  0
  191.2570  175.9650  147.1170 C   0  0  2  0  0  3  0  0  0  0  0  0
  187.5410  177.6100  143.2580 C   0  0  1  0  0  3  0  0  0  0  0  0
  191.9530  177.6750  143.8200 F   0  0  0  0  0  0  0  0  0  0  0  0
  186.9430  176.6210  145.3650 O   0  0  0  0  0  1  0  0  0  0  0  0
  189.0260  174.9250  141.5190 C   0  0  0  0  0  0  0  0  0  0  0  0
  192.7600  175.9310  145.1790 C   0  0  0  0  0  0  0  0  0  0  0  0
  195.2930  175.9470  142.5850 C   0  0  1  0  0  3  0  0  0  0  0  0
  189.6100  178.1100  141.9770 C   0  0  0  0  0  1  0  0  0  0  0  0
  194.2860  173.8890  142.9730 C   0  0  0  0  0  2  0  0  0  0  0  0
  194.0800  175.3620  143.2090 C   0  0  1  0  0  3  0  0  0  0  0  0
  195.4880  175.0100  141.4070 C   0  0  1  0  0  3  0  0  0  0  0  0
  194.4890  174.4620  139.0560 C   0  0  1  0  0  3  0  0  0  0  0  0
  190.5010  176.9520  146.4450 O   0  0  0  0  0  0  0  0  0  0  0  0
  188.9010  175.7930  142.4870 C   0  0  0  0  0  0  0  0  0  0  0  0
  189.1220  174.0870  140.5240 C   0  0  0  0  0  0  0  0  0  0  0  0
  190.8150  172.4440  139.7330 C   0  0  0  0  0  2  0  0  0  0  0  0
  193.9950  175.6430  144.5970 O   0  0  0  0  0  0  0  0  0  0  0  0
  192.2090  171.3000  141.2950 O   0  0  0  0  0  0  0  0  0  0  0  0
  195.0670  177.2530  142.1940 F   0  0  0  0  0  0  0  0  0  0  0  0
  192.1240  172.1920  140.4060 C   0  0  0  0  0  0  0  0  0  0  0  0
  188.4390  177.1600  142.1190 C   0  0  1  0  0  3  0  0  0  0  0  0
  193.2630  172.9070  140.0410 O   0  0  0  0  0  0  0  0  0  0  0  0
  185.9640  177.3870  141.8130 O   0  0  0  0  0  1  0  0  0  0  0  0
  186.3930  178.2150  142.7460 O   0  0  0  0  0  0  0  0  0  0  0  0
  191.4040  176.3220  148.5870 C   0  0  0  0  0  2  0  0  0  0  0  0
  191.3230  177.8260  148.7940 C   0  0  0  0  0  3  0  0  0  0  0  0
  189.9260  178.3290  148.4680 C   0  0  0  0  0  1  0  0  0  0  0  0
  191.6440  178.1480  150.2380 C   0  0  0  0  0  1  0  0  0  0  0  0
  189.8630  174.0650  145.2790 O   0  0  0  0  0  0  0  0  0  0  0  0
  189.3340  171.8940  144.1920 C   0  0  0  0  0  1  0  0  0  0  0  0
  190.2110  173.0800  144.3510 C   0  0  0  0  0  0  0  0  0  0  0  0
  191.2520  173.1730  143.6540 O   0  0  0  0  0  0  0  0  0  0  0  0
  188.3620  174.3670  139.2710 C   0  0  0  0  0  2  0  0  0  0  0  0
  188.5660  173.2450  138.2650 C   0  0  0  0  0  2  0  0  0  0  0  0
  188.9450  173.7430  136.9010 C   0  0  0  0  0  0  0  0  0  0  0  0
  188.5290  174.8360  136.5420 O   0  0  0  0  0  0  0  0  0  0  0  0
  189.7960  172.9210  135.9680 C   0  0  1  0  0  3  0  0  0  0  0  0
  191.9750  173.0640  135.0400 O   0  0  0  0  0  0  0  0  0  0  0  0
  191.2840  173.1070  136.2320 C   0  0  0  0  0  3  0  0  0  0  0  0
  191.7260  174.2550  135.6080 O   0  0  0  0  0  0  0  0  0  0  0  0
  189.3820  171.4420  135.9250 C   0  0  0  0  0  2  0  0  0  0  0  0
  190.3940  170.4970  136.5610 C   0  0  0  0  0  2  0  0  0  0  0  0
  189.7320  169.6460  137.6250 C   0  0  0  0  0  1  0  0  0  0  0  0
  195.5480  173.5380  138.9850 O   0  0  0  0  0  0  0  0  0  0  0  0
  196.3440  173.9090  137.8880 C   0  0  1  0  0  0  0  0  0  0  0  0
  196.3090  175.4260  136.0280 F   0  0  0  0  0  0  0  0  0  0  0  0
  196.1080  173.1400  136.6060 C   0  0  0  0  0  2  0  0  0  0  0  0
  195.5390  174.5470  136.7670 C   0  0  1  0  0  3  0  0  0  0  0  0
  197.7170  174.4620  138.1420 C   0  0  0  0  0  3  0  0  0  0  0  0
  197.8480  175.4950  138.7690 O   0  0  0  0  0  0  0  0  0  0  0  0
  1 23  1  1  0  0  0
  2 14  1  1  0  0  0
  3 32  1  0  0  0  0
  4 19  1  0  0  0  0
  7 24  1  6  0  0  0
  7  2  1  0  0  0  0
  7  8  1  0  0  0  0
  8  1  1  0  0  0  0
  8 39  1  6  0  0  0
  9 13  1  1  0  0  0
  9  1  1  0  0  0  0
  9 16  1  0  0  0  0
 10 11  1  0  0  0  0
 11 35  1  1  0  0  0
 12 34  1  6  0  0  0
 12  2  1  0  0  0  0
 15 24  2  0  0  0  0
 16 10  2  0  0  0  0
 17 29  1  6  0  0  0
 17 20  1  0  0  0  0
 20 19  1  1  0  0  0
 20 27  1  0  0  0  0
 21  6  1  6  0  0  0
 21  4  1  0  0  0  0
 21 17  1  0  0  0  0
 22 54  1  1  0  0  0
 22  3  1  0  0  0  0
 22  6  1  0  0  0  0
 23 11  1  0  0  0  0
 25  5  1  0  0  0  0
 25 15  2  0  0  0  0
 26 30  1  0  0  0  0
 26  5  1  0  0  0  0
 27 16  1  0  0  0  0
 30 28  2  0  0  0  0
 31 18  1  1  0  0  0
 31 24  1  0  0  0  0
 31 12  1  0  0  0  0
 32 30  1  0  0  0  0
 33 34  1  0  0  0  0
 35 36  1  0  0  0  0
 36 38  1  0  0  0  0
 37 36  1  0  0  0  0
 40 41  1  0  0  0  0
 41 39  1  0  0  0  0
 42 41  2  0  0  0  0
 43 25  1  0  0  0  0
 44 43  1  0  0  0  0
 45 44  1  0  0  0  0
 46 45  2  0  0  0  0
 47 51  1  1  0  0  0
 47 49  1  0  0  0  0
 47 45  1  0  0  0  0
 48 50  1  0  0  0  0
 48 49  1  0  0  0  0
 50 49  1  0  0  0  0
 51 52  1  0  0  0  0
 52 53  1  0  0  0  0
 55 59  1  1  0  0  0
 55 54  1  0  0  0  0
 57 58  1  0  0  0  0
 57 55  1  0  0  0  0
 58 56  1  6  0  0  0
 58 55  1  0  0  0  0
 59 60  2  0  0  0  0
M  END
>  <MODEL>
3

>  <REMARK>
 VINA RESULT:      -5.4      2.619      7.724
  Name = 
  15 active torsions:
  status: ('A' for Active; 'I' for Inactive)
    1  A    between atoms: C_2  and  C_18
    2  A    between atoms: C_2  and  C_29
    3  A    between atoms: C_4  and  C_7
    4  A    between atoms: C_4  and  C_25
    5  A    between atoms: C_4  and  C_43
    6  A    between atoms: O_6  and  C_11
    7  A    between atoms: O_6  and  C_15
    8  A    between atoms: C_7  and  C_27
    9  A    between atoms: C_10  and  O_36
   10  A    between atoms: C_10  and  C_50
   11  A    between atoms: C_19  and  O_42
   12  A    between atoms: C_27  and  C_34
   13  A    between atoms: C_34  and  C_49
   14  A    between atoms: O_36  and  C_46
   15  A    between atoms: C_43  and  C_44
                            x       y       z     vdW  Elec       q    Type
                         _______ _______ _______ _____ _____    ______ ____

>  <TORSDO>
F 15

$$$$
=
 OpenBabel11062420393D

 60 65  0  0  1  0  0  0  0  0999 V2000
  189.4670  176.8510  144.0230 C   0  0  2  0  0  3  0  0  0  0  0  0
  186.4320  175.9300  143.0380 C   0  0  2  0  0  3  0  0  0  0  0  0
  192.9390  173.2290  138.8030 O   0  0  0  0  0  0  0  0  0  0  0  0
  194.7210  174.0710  141.4990 O   0  0  0  0  0  0  0  0  0  0  0  0
  189.5830  172.0660  140.7290 C   0  0  0  0  0  2  0  0  0  0  0  0
  194.0560  175.2820  139.5040 C   0  0  0  0  0  2  0  0  0  0  0  0
  187.7180  175.1010  143.0520 C   0  0  2  0  0  3  0  0  0  0  0  0
  188.6880  175.5260  144.1770 C   0  0  1  0  0  3  0  0  0  0  0  0
  190.8100  176.7490  143.2850 C   0  0  1  0  0  3  0  0  0  0  0  0
  191.8220  176.8000  145.5400 C   0  0  0  0  0  3  0  0  0  0  0  0
  190.4400  176.9230  146.1110 C   0  0  2  0  0  3  0  0  0  0  0  0
  186.6380  177.0150  141.9950 C   0  0  1  0  0  3  0  0  0  0  0  0
  190.9740  177.8720  142.4930 F   0  0  0  0  0  0  0  0  0  0  0  0
  186.1290  176.4860  144.2840 O   0  0  0  0  0  1  0  0  0  0  0  0
  188.5500  174.2430  140.9490 C   0  0  0  0  0  0  0  0  0  0  0  0
  191.9880  176.6470  144.2280 C   0  0  0  0  0  0  0  0  0  0  0  0
  194.5660  176.4160  141.6890 C   0  0  1  0  0  3  0  0  0  0  0  0
  188.6470  177.4950  140.6160 C   0  0  0  0  0  1  0  0  0  0  0  0
  193.8610  174.3850  142.5730 C   0  0  0  0  0  2  0  0  0  0  0  0
  193.4340  175.8230  142.4460 C   0  0  1  0  0  3  0  0  0  0  0  0
  194.9300  175.2620  140.7730 C   0  0  1  0  0  3  0  0  0  0  0  0
  194.0920  174.0210  138.6330 C   0  0  1  0  0  3  0  0  0  0  0  0
  189.5670  177.5940  145.2260 O   0  0  0  0  0  0  0  0  0  0  0  0
  188.2710  175.2900  141.6780 C   0  0  0  0  0  0  0  0  0  0  0  0
  188.7970  173.2140  140.1860 C   0  0  0  0  0  0  0  0  0  0  0  0
  190.7350  171.7010  139.8050 C   0  0  0  0  0  2  0  0  0  0  0  0
  193.2680  176.4140  143.7250 O   0  0  0  0  0  0  0  0  0  0  0  0
  192.2350  171.1880  141.5890 O   0  0  0  0  0  0  0  0  0  0  0  0
  194.1630  177.5400  140.9960 F   0  0  0  0  0  0  0  0  0  0  0  0
  192.0460  171.8160  140.5110 C   0  0  0  0  0  0  0  0  0  0  0  0
  187.6250  176.4440  140.9930 C   0  0  1  0  0  3  0  0  0  0  0  0
  193.0790  172.5840  139.9740 O   0  0  0  0  0  0  0  0  0  0  0  0
  185.3070  178.6120  141.4430 O   0  0  0  0  0  1  0  0  0  0  0  0
  185.4290  177.3010  141.3600 O   0  0  0  0  0  0  0  0  0  0  0  0
  190.4900  177.6410  147.4500 C   0  0  0  0  0  2  0  0  0  0  0  0
  191.5640  177.0460  148.3470 C   0  0  0  0  0  3  0  0  0  0  0  0
  191.5620  177.7360  149.7010 C   0  0  0  0  0  1  0  0  0  0  0  0
  191.2900  175.5700  148.5400 C   0  0  0  0  0  1  0  0  0  0  0  0
  189.3930  174.4500  144.7990 O   0  0  0  0  0  0  0  0  0  0  0  0
  189.3200  172.0080  144.3430 C   0  0  0  0  0  1  0  0  0  0  0  0
  189.9290  173.3440  144.1320 C   0  0  0  0  0  0  0  0  0  0  0  0
  190.9160  173.4550  143.3640 O   0  0  0  0  0  0  0  0  0  0  0  0
  188.0410  173.0670  138.9090 C   0  0  0  0  0  2  0  0  0  0  0  0
  188.2950  174.2610  138.0020 C   0  0  0  0  0  2  0  0  0  0  0  0
  189.1800  173.9320  136.8340 C   0  0  0  0  0  0  0  0  0  0  0  0
  189.4840  172.7640  136.6430 O   0  0  0  0  0  0  0  0  0  0  0  0
  189.7130  175.0060  135.9210 C   0  0  1  0  0  3  0  0  0  0  0  0
  191.7070  175.9330  135.0280 O   0  0  0  0  0  0  0  0  0  0  0  0
  191.1720  174.7740  135.5500 C   0  0  0  0  0  3  0  0  0  0  0  0
  191.9780  175.6040  136.3020 O   0  0  0  0  0  0  0  0  0  0  0  0
  188.8220  175.2460  134.6930 C   0  0  0  0  0  2  0  0  0  0  0  0
  188.0680  176.5700  134.7240 C   0  0  0  0  0  2  0  0  0  0  0  0
  186.7170  176.3990  135.3880 C   0  0  0  0  0  1  0  0  0  0  0  0
  195.2770  173.2750  138.7800 O   0  0  0  0  0  0  0  0  0  0  0  0
  196.0130  173.4360  137.5940 C   0  0  1  0  0  0  0  0  0  0  0  0
  196.6650  172.1770  135.6570 F   0  0  0  0  0  0  0  0  0  0  0  0
  197.4860  173.0960  137.6770 C   0  0  0  0  0  2  0  0  0  0  0  0
  196.5120  172.1160  137.0300 C   0  0  1  0  0  3  0  0  0  0  0  0
  195.5790  174.4800  136.6060 C   0  0  0  0  0  3  0  0  0  0  0  0
  196.2820  175.4500  136.4020 O   0  0  0  0  0  0  0  0  0  0  0  0
  1  8  1  0  0  0  0
  1 23  1  1  0  0  0
  2  7  1  0  0  0  0
  2 14  1  1  0  0  0
  3 32  1  0  0  0  0
  4 19  1  0  0  0  0
  7 24  1  6  0  0  0
  7  8  1  0  0  0  0
  8 39  1  6  0  0  0
  9 13  1  1  0  0  0
  9  1  1  0  0  0  0
  9 16  1  0  0  0  0
 10 11  1  0  0  0  0
 11 35  1  1  0  0  0
 12 34  1  6  0  0  0
 12  2  1  0  0  0  0
 15 24  2  0  0  0  0
 16 10  2  0  0  0  0
 17 29  1  6  0  0  0
 17 20  1  0  0  0  0
 20 19  1  1  0  0  0
 20 27  1  0  0  0  0
 21  6  1  6  0  0  0
 21  4  1  0  0  0  0
 21 17  1  0  0  0  0
 22 54  1  1  0  0  0
 22  3  1  0  0  0  0
 22  6  1  0  0  0  0
 23 11  1  0  0  0  0
 25  5  1  0  0  0  0
 25 15  2  0  0  0  0
 26 30  1  0  0  0  0
 26  5  1  0  0  0  0
 27 16  1  0  0  0  0
 30 28  2  0  0  0  0
 31 18  1  1  0  0  0
 31 24  1  0  0  0  0
 31 12  1  0  0  0  0
 32 30  1  0  0  0  0
 34 33  1  0  0  0  0
 35 36  1  0  0  0  0
 36 38  1  0  0  0  0
 36 37  1  0  0  0  0
 41 40  1  0  0  0  0
 41 39  1  0  0  0  0
 42 41  2  0  0  0  0
 43 25  1  0  0  0  0
 44 43  1  0  0  0  0
 45 44  1  0  0  0  0
 46 45  2  0  0  0  0
 47 51  1  6  0  0  0
 47 45  1  0  0  0  0
 48 49  1  0  0  0  0
 48 50  1  0  0  0  0
 49 47  1  0  0  0  0
 49 50  1  0  0  0  0
 51 52  1  0  0  0  0
 52 53  1  0  0  0  0
 55 59  1  6  0  0  0
 55 57  1  0  0  0  0
 55 54  1  0  0  0  0
 58 56  1  6  0  0  0
 58 55  1  0  0  0  0
 58 57  1  0  0  0  0
 60 59  2  0  0  0  0
M  END
>  <MODEL>
4

>  <REMARK>
 VINA RESULT:      -5.1      2.757      7.988
  Name = 
  15 active torsions:
  status: ('A' for Active; 'I' for Inactive)
    1  A    between atoms: C_2  and  C_18
    2  A    between atoms: C_2  and  C_29
    3  A    between atoms: C_4  and  C_7
    4  A    between atoms: C_4  and  C_25
    5  A    between atoms: C_4  and  C_43
    6  A    between atoms: O_6  and  C_11
    7  A    between atoms: O_6  and  C_15
    8  A    between atoms: C_7  and  C_27
    9  A    between atoms: C_10  and  O_36
   10  A    between atoms: C_10  and  C_50
   11  A    between atoms: C_19  and  O_42
   12  A    between atoms: C_27  and  C_34
   13  A    between atoms: C_34  and  C_49
   14  A    between atoms: O_36  and  C_46
   15  A    between atoms: C_43  and  C_44
                            x       y       z     vdW  Elec       q    Type
                         _______ _______ _______ _____ _____    ______ ____

>  <TORSDO>
F 15

$$$$
=
 OpenBabel11062420393D

 60 65  0  0  1  0  0  0  0  0999 V2000
  193.5480  172.9120  144.4720 C   0  0  2  0  0  3  0  0  0  0  0  0
  193.0890  171.1230  141.7110 C   0  0  2  0  0  3  0  0  0  0  0  0
  187.3310  176.5750  143.8790 O   0  0  0  0  0  0  0  0  0  0  0  0
  189.6950  177.9160  145.8190 O   0  0  0  0  0  0  0  0  0  0  0  0
  189.7350  175.3910  140.8560 C   0  0  0  0  0  2  0  0  0  0  0  0
  188.0390  176.1800  146.1810 C   0  0  0  0  0  2  0  0  0  0  0  0
  192.7420  172.5930  141.9600 C   0  0  2  0  0  3  0  0  0  0  0  0
  193.6920  173.2660  142.9760 C   0  0  1  0  0  3  0  0  0  0  0  0
  192.5480  173.7680  145.2630 C   0  0  1  0  0  3  0  0  0  0  0  0
  194.5420  174.9790  146.0810 C   0  0  0  0  0  3  0  0  0  0  0  0
  195.3900  174.0430  145.2720 C   0  0  2  0  0  3  0  0  0  0  0  0
  192.1680  170.3120  142.6070 C   0  0  1  0  0  3  0  0  0  0  0  0
  191.8840  172.9600  146.1700 F   0  0  0  0  0  0  0  0  0  0  0  0
  194.4280  170.8290  141.9770 O   0  0  0  0  0  1  0  0  0  0  0  0
  190.4250  173.2660  141.7870 C   0  0  0  0  0  0  0  0  0  0  0  0
  193.2150  174.8950  146.0190 C   0  0  0  0  0  0  0  0  0  0  0  0
  190.2000  176.3020  147.4610 C   0  0  1  0  0  3  0  0  0  0  0  0
  190.4810  171.1120  144.2460 C   0  0  0  0  0  1  0  0  0  0  0  0
  190.9510  177.3430  145.5240 C   0  0  0  0  0  2  0  0  0  0  0  0
  191.0900  176.0590  146.2980 C   0  0  1  0  0  3  0  0  0  0  0  0
  189.0940  177.1110  146.8090 C   0  0  1  0  0  3  0  0  0  0  0  0
  187.0310  176.8360  145.2310 C   0  0  1  0  0  3  0  0  0  0  0  0
  194.7880  172.7710  145.1440 O   0  0  0  0  0  0  0  0  0  0  0  0
  191.3180  172.5450  142.4080 C   0  0  0  0  0  0  0  0  0  0  0  0
  189.5070  173.9460  141.1560 C   0  0  0  0  0  0  0  0  0  0  0  0
  188.5610  176.2410  141.3160 C   0  0  0  0  0  2  0  0  0  0  0  0
  192.4390  175.8470  146.6830 O   0  0  0  0  0  0  0  0  0  0  0  0
  189.9290  178.0640  142.0220 O   0  0  0  0  0  0  0  0  0  0  0  0
  189.7460  175.1100  147.9930 F   0  0  0  0  0  0  0  0  0  0  0  0
  188.9970  177.2650  142.3120 C   0  0  0  0  0  0  0  0  0  0  0  0
  190.9250  171.1630  142.8000 C   0  0  1  0  0  3  0  0  0  0  0  0
  188.3620  177.3720  143.5480 O   0  0  0  0  0  0  0  0  0  0  0  0
  191.3640  169.4700  140.7980 O   0  0  0  0  0  1  0  0  0  0  0  0
  191.8280  169.1130  141.9800 O   0  0  0  0  0  0  0  0  0  0  0  0
  196.7690  173.9150  145.8970 C   0  0  0  0  0  2  0  0  0  0  0  0
  197.8400  173.7520  144.8290 C   0  0  0  0  0  3  0  0  0  0  0  0
  197.8400  172.3300  144.2930 C   0  0  0  0  0  1  0  0  0  0  0  0
  197.5590  174.7130  143.6940 C   0  0  0  0  0  1  0  0  0  0  0  0
  194.0220  174.6240  142.6790 O   0  0  0  0  0  0  0  0  0  0  0  0
  192.5740  176.6340  142.4770 C   0  0  0  0  0  1  0  0  0  0  0  0
  193.2720  175.4770  141.8640 C   0  0  0  0  0  0  0  0  0  0  0  0
  193.1700  175.2820  140.6270 O   0  0  0  0  0  0  0  0  0  0  0  0
  188.4000  173.2070  140.4830 C   0  0  0  0  0  2  0  0  0  0  0  0
  188.9200  171.9150  139.8710 C   0  0  0  0  0  2  0  0  0  0  0  0
  189.3680  172.0800  138.4470 C   0  0  0  0  0  0  0  0  0  0  0  0
  189.3250  171.1090  137.7050 O   0  0  0  0  0  0  0  0  0  0  0  0
  189.8850  173.3970  137.9300 C   0  0  1  0  0  3  0  0  0  0  0  0
  192.0260  174.3660  137.5940 O   0  0  0  0  0  0  0  0  0  0  0  0
  191.2590  173.2620  137.2840 C   0  0  0  0  0  3  0  0  0  0  0  0
  192.2290  173.2200  138.2640 O   0  0  0  0  0  0  0  0  0  0  0  0
  188.8770  174.1270  137.0300 C   0  0  0  0  0  2  0  0  0  0  0  0
  189.2790  174.1750  135.5610 C   0  0  0  0  0  2  0  0  0  0  0  0
  189.1740  175.5880  135.0250 C   0  0  0  0  0  1  0  0  0  0  0  0
  186.8440  178.2090  145.4790 O   0  0  0  0  0  0  0  0  0  0  0  0
  185.4920  178.4930  145.2210 C   0  0  1  0  0  0  0  0  0  0  0  0
  183.8450  178.1630  143.5060 F   0  0  0  0  0  0  0  0  0  0  0  0
  185.2110  179.8060  144.5220 C   0  0  0  0  0  2  0  0  0  0  0  0
  185.1670  178.4990  143.7360 C   0  0  1  0  0  3  0  0  0  0  0  0
  184.4450  177.9430  146.1470 C   0  0  0  0  0  3  0  0  0  0  0  0
  184.4220  178.2910  147.3110 O   0  0  0  0  0  0  0  0  0  0  0  0
  1 23  1  1  0  0  0
  1  9  1  0  0  0  0
  2  7  1  0  0  0  0
  2 14  1  1  0  0  0
  2 12  1  0  0  0  0
  3 22  1  0  0  0  0
  4 21  1  0  0  0  0
  5 25  1  0  0  0  0
  5 26  1  0  0  0  0
  7 24  1  1  0  0  0
  7  8  1  0  0  0  0
  8 39  1  1  0  0  0
  8  1  1  0  0  0  0
  9 16  1  0  0  0  0
  9 13  1  1  0  0  0
 11 35  1  1  0  0  0
 11 10  1  0  0  0  0
 12 34  1  6  0  0  0
 12 31  1  0  0  0  0
 15 24  2  0  0  0  0
 16 10  2  0  0  0  0
 16 27  1  0  0  0  0
 17 29  1  6  0  0  0
 19  4  1  0  0  0  0
 20 19  1  6  0  0  0
 20 27  1  0  0  0  0
 20 17  1  0  0  0  0
 21  6  1  6  0  0  0
 21 17  1  0  0  0  0
 22 54  1  6  0  0  0
 22  6  1  0  0  0  0
 23 11  1  0  0  0  0
 24 31  1  0  0  0  0
 25 15  2  0  0  0  0
 26 30  1  0  0  0  0
 28 30  2  0  0  0  0
 30 32  1  0  0  0  0
 31 18  1  1  0  0  0
 32  3  1  0  0  0  0
 33 34  1  0  0  0  0
 36 35  1  0  0  0  0
 37 36  1  0  0  0  0
 38 36  1  0  0  0  0
 41 40  1  0  0  0  0
 41 39  1  0  0  0  0
 42 41  2  0  0  0  0
 43 25  1  0  0  0  0
 44 43  1  0  0  0  0
 45 44  1  0  0  0  0
 46 45  2  0  0  0  0
 47 51  1  6  0  0  0
 47 45  1  0  0  0  0
 48 50  1  0  0  0  0
 49 48  1  0  0  0  0
 49 47  1  0  0  0  0
 49 50  1  0  0  0  0
 52 51  1  0  0  0  0
 53 52  1  0  0  0  0
 55 54  1  0  0  0  0
 55 59  1  1  0  0  0
 57 55  1  0  0  0  0
 58 56  1  1  0  0  0
 58 57  1  0  0  0  0
 58 55  1  0  0  0  0
 59 60  2  0  0  0  0
M  END
>  <MODEL>
5

>  <REMARK>
 VINA RESULT:      -4.9      1.388      1.938
  Name = 
  15 active torsions:
  status: ('A' for Active; 'I' for Inactive)
    1  A    between atoms: C_2  and  C_18
    2  A    between atoms: C_2  and  C_29
    3  A    between atoms: C_4  and  C_7
    4  A    between atoms: C_4  and  C_25
    5  A    between atoms: C_4  and  C_43
    6  A    between atoms: O_6  and  C_11
    7  A    between atoms: O_6  and  C_15
    8  A    between atoms: C_7  and  C_27
    9  A    between atoms: C_10  and  O_36
   10  A    between atoms: C_10  and  C_50
   11  A    between atoms: C_19  and  O_42
   12  A    between atoms: C_27  and  C_34
   13  A    between atoms: C_34  and  C_49
   14  A    between atoms: O_36  and  C_46
   15  A    between atoms: C_43  and  C_44
                            x       y       z     vdW  Elec       q    Type
                         _______ _______ _______ _____ _____    ______ ____

>  <TORSDO>
F 15

$$$$
=
 OpenBabel11062420393D

 60 65  0  0  1  0  0  0  0  0999 V2000
  192.6910  170.8030  138.6900 C   0  0  2  0  0  3  0  0  0  0  0  0
  195.7120  170.7140  140.0690 C   0  0  2  0  0  3  0  0  0  0  0  0
  189.8240  175.1110  143.7540 O   0  0  0  0  0  0  0  0  0  0  0  0
  187.6910  173.3310  141.9010 O   0  0  0  0  0  0  0  0  0  0  0  0
  192.5760  172.2090  144.3270 C   0  0  0  0  0  2  0  0  0  0  0  0
  188.8710  175.4180  141.5280 C   0  0  0  0  0  2  0  0  0  0  0  0
  194.3490  170.7050  140.7650 C   0  0  2  0  0  3  0  0  0  0  0  0
  193.2480  170.0370  139.9110 C   0  0  1  0  0  3  0  0  0  0  0  0
  191.5100  171.7410  138.9780 C   0  0  1  0  0  3  0  0  0  0  0  0
  190.1060  169.9230  138.0620 C   0  0  0  0  0  3  0  0  0  0  0  0
  191.3600  169.1350  137.8180 C   0  0  2  0  0  3  0  0  0  0  0  0
  195.8490  172.0820  139.4220 C   0  0  1  0  0  3  0  0  0  0  0  0
  191.6450  172.8830  138.2080 F   0  0  0  0  0  0  0  0  0  0  0  0
  195.8440  169.6980  139.1190 O   0  0  0  0  0  1  0  0  0  0  0  0
  193.8240  172.5200  142.2760 C   0  0  0  0  0  0  0  0  0  0  0  0
  190.1720  171.1060  138.6680 C   0  0  0  0  0  0  0  0  0  0  0  0
  188.1100  173.9200  139.6570 C   0  0  1  0  0  3  0  0  0  0  0  0
  194.2150  173.9520  139.3630 C   0  0  0  0  0  1  0  0  0  0  0  0
  188.3670  172.2650  141.2680 C   0  0  0  0  0  2  0  0  0  0  0  0
  188.9930  172.7760  139.9980 C   0  0  1  0  0  3  0  0  0  0  0  0
  187.7790  174.4460  141.0420 C   0  0  1  0  0  3  0  0  0  0  0  0
  188.8370  175.7920  143.0140 C   0  0  1  0  0  3  0  0  0  0  0  0
  192.4640  169.9790  137.5590 O   0  0  0  0  0  0  0  0  0  0  0  0
  194.0940  172.1480  141.0540 C   0  0  0  0  0  0  0  0  0  0  0  0
  193.5930  172.9210  143.4960 C   0  0  0  0  0  0  0  0  0  0  0  0
  191.5820  173.1850  144.9360 C   0  0  0  0  0  2  0  0  0  0  0  0
  188.9900  171.7720  138.9960 O   0  0  0  0  0  0  0  0  0  0  0  0
  189.7190  171.7140  144.6890 O   0  0  0  0  0  0  0  0  0  0  0  0
  188.7800  174.8470  138.8820 F   0  0  0  0  0  0  0  0  0  0  0  0
  190.1870  172.8710  144.5030 C   0  0  0  0  0  0  0  0  0  0  0  0
  195.0020  173.0230  140.2620 C   0  0  1  0  0  3  0  0  0  0  0  0
  189.3830  173.8520  143.9250 O   0  0  0  0  0  0  0  0  0  0  0  0
  197.4450  172.8670  138.2140 O   0  0  0  0  0  1  0  0  0  0  0  0
  197.1820  172.4920  139.4510 O   0  0  0  0  0  0  0  0  0  0  0  0
  191.1530  168.1680  136.6640 C   0  0  0  0  0  2  0  0  0  0  0  0
  191.7000  168.7420  135.3660 C   0  0  0  0  0  3  0  0  0  0  0  0
  191.1510  170.1390  135.1340 C   0  0  0  0  0  1  0  0  0  0  0  0
  193.2100  168.8070  135.4500 C   0  0  0  0  0  1  0  0  0  0  0  0
  192.3040  169.2600  140.6500 O   0  0  0  0  0  0  0  0  0  0  0  0
  192.4760  168.8210  143.0910 C   0  0  0  0  0  1  0  0  0  0  0  0
  191.8660  169.5430  141.9470 C   0  0  0  0  0  0  0  0  0  0  0  0
  190.9630  170.3890  142.1650 O   0  0  0  0  0  0  0  0  0  0  0  0
  194.5500  173.8700  144.1340 C   0  0  0  0  0  2  0  0  0  0  0  0
  194.6080  175.1720  143.3510 C   0  0  0  0  0  2  0  0  0  0  0  0
  194.7870  176.3770  144.2290 C   0  0  0  0  0  0  0  0  0  0  0  0
  195.9030  176.8630  144.3330 O   0  0  0  0  0  0  0  0  0  0  0  0
  193.6340  176.9740  144.9940 C   0  0  1  0  0  3  0  0  0  0  0  0
  191.4810  177.7990  144.4290 O   0  0  0  0  0  0  0  0  0  0  0  0
  192.2930  176.6880  144.3290 C   0  0  0  0  0  3  0  0  0  0  0  0
  192.1090  177.5520  143.2680 O   0  0  0  0  0  0  0  0  0  0  0  0
  193.6460  176.6030  146.4840 C   0  0  0  0  0  2  0  0  0  0  0  0
  192.4470  175.7730  146.9260 C   0  0  0  0  0  2  0  0  0  0  0  0
  191.5720  176.5650  147.8770 C   0  0  0  0  0  1  0  0  0  0  0  0
  187.5580  175.6670  143.5910 O   0  0  0  0  0  0  0  0  0  0  0  0
  187.3140  176.8500  144.3080 C   0  0  1  0  0  0  0  0  0  0  0  0
  185.4700  178.1290  145.1600 F   0  0  0  0  0  0  0  0  0  0  0  0
  187.1330  178.1030  143.4780 C   0  0  0  0  0  2  0  0  0  0  0  0
  185.9170  177.4010  144.0730 C   0  0  1  0  0  3  0  0  0  0  0  0
  187.8780  176.9910  145.6920 C   0  0  0  0  0  3  0  0  0  0  0  0
  187.8180  176.0590  146.4690 O   0  0  0  0  0  0  0  0  0  0  0  0
  1 23  1  6  0  0  0
  1  9  1  0  0  0  0
  1  8  1  0  0  0  0
  2 14  1  6  0  0  0
  2  7  1  0  0  0  0
  3 32  1  0  0  0  0
  5 26  1  0  0  0  0
  6 22  1  0  0  0  0
  7 24  1  6  0  0  0
  8 39  1  1  0  0  0
  8  7  1  0  0  0  0
  9 13  1  6  0  0  0
 10 16  2  0  0  0  0
 11 35  1  6  0  0  0
 11 10  1  0  0  0  0
 12 34  1  1  0  0  0
 12  2  1  0  0  0  0
 12 31  1  0  0  0  0
 15 25  2  0  0  0  0
 16  9  1  0  0  0  0
 16 27  1  0  0  0  0
 17 29  1  6  0  0  0
 17 20  1  0  0  0  0
 17 21  1  0  0  0  0
 19  4  1  0  0  0  0
 20 19  1  1  0  0  0
 21  6  1  1  0  0  0
 21  4  1  0  0  0  0
 22 54  1  1  0  0  0
 22  3  1  0  0  0  0
 23 11  1  0  0  0  0
 24 15  2  0  0  0  0
 25 43  1  0  0  0  0
 25  5  1  0  0  0  0
 27 20  1  0  0  0  0
 30 28  2  0  0  0  0
 30 26  1  0  0  0  0
 31 18  1  6  0  0  0
 31 24  1  0  0  0  0
 32 30  1  0  0  0  0
 33 34  1  0  0  0  0
 36 38  1  0  0  0  0
 36 35  1  0  0  0  0
 37 36  1  0  0  0  0
 39 41  1  0  0  0  0
 41 42  2  0  0  0  0
 41 40  1  0  0  0  0
 44 43  1  0  0  0  0
 44 45  1  0  0  0  0
 45 46  2  0  0  0  0
 45 47  1  0  0  0  0
 47 51  1  1  0  0  0
 49 48  1  0  0  0  0
 49 47  1  0  0  0  0
 50 49  1  0  0  0  0
 50 48  1  0  0  0  0
 51 52  1  0  0  0  0
 52 53  1  0  0  0  0
 54 55  1  0  0  0  0
 55 59  1  1  0  0  0
 57 58  1  0  0  0  0
 57 55  1  0  0  0  0
 58 55  1  0  0  0  0
 58 56  1  1  0  0  0
 59 60  2  0  0  0  0
M  END
>  <MODEL>
6

>  <REMARK>
 VINA RESULT:      -4.9      2.721      7.234
  Name = 
  15 active torsions:
  status: ('A' for Active; 'I' for Inactive)
    1  A    between atoms: C_2  and  C_18
    2  A    between atoms: C_2  and  C_29
    3  A    between atoms: C_4  and  C_7
    4  A    between atoms: C_4  and  C_25
    5  A    between atoms: C_4  and  C_43
    6  A    between atoms: O_6  and  C_11
    7  A    between atoms: O_6  and  C_15
    8  A    between atoms: C_7  and  C_27
    9  A    between atoms: C_10  and  O_36
   10  A    between atoms: C_10  and  C_50
   11  A    between atoms: C_19  and  O_42
   12  A    between atoms: C_27  and  C_34
   13  A    between atoms: C_34  and  C_49
   14  A    between atoms: O_36  and  C_46
   15  A    between atoms: C_43  and  C_44
                            x       y       z     vdW  Elec       q    Type
                         _______ _______ _______ _____ _____    ______ ____

>  <TORSDO>
F 15

$$$$
=
 OpenBabel11062420393D

 60 65  0  0  1  0  0  0  0  0999 V2000
  190.9570  176.6700  144.6360 C   0  0  2  0  0  3  0  0  0  0  0  0
  187.7050  176.0220  144.4460 C   0  0  2  0  0  3  0  0  0  0  0  0
  192.6140  173.3580  138.4150 O   0  0  0  0  0  0  0  0  0  0  0  0
  195.1100  173.8400  140.5810 O   0  0  0  0  0  0  0  0  0  0  0  0
  189.8070  172.2160  141.0860 C   0  0  0  0  0  2  0  0  0  0  0  0
  194.0400  175.2690  138.9380 C   0  0  0  0  0  2  0  0  0  0  0  0
  188.8780  175.1220  144.0490 C   0  0  2  0  0  3  0  0  0  0  0  0
  190.1430  175.3830  144.8970 C   0  0  1  0  0  3  0  0  0  0  0  0
  192.0430  176.5600  143.5560 C   0  0  1  0  0  3  0  0  0  0  0  0
  193.6180  176.3400  145.4490 C   0  0  0  0  0  3  0  0  0  0  0  0
  192.4510  176.4890  146.3820 C   0  0  2  0  0  3  0  0  0  0  0  0
  187.7140  177.1870  143.4710 C   0  0  1  0  0  3  0  0  0  0  0  0
  192.0810  177.7410  142.8360 F   0  0  0  0  0  0  0  0  0  0  0  0
  187.7900  176.4750  145.7650 O   0  0  0  0  0  1  0  0  0  0  0  0
  189.0490  174.4190  141.7400 C   0  0  0  0  0  0  0  0  0  0  0  0
  193.4170  176.3020  144.1340 C   0  0  0  0  0  0  0  0  0  0  0  0
  195.2020  176.1610  140.9820 C   0  0  1  0  0  3  0  0  0  0  0  0
  189.3180  177.6760  141.6380 C   0  0  0  0  0  1  0  0  0  0  0  0
  194.5940  174.1010  141.8690 C   0  0  0  0  0  2  0  0  0  0  0  0
  194.2670  175.5670  141.9700 C   0  0  1  0  0  3  0  0  0  0  0  0
  195.2150  175.0800  139.9170 C   0  0  1  0  0  3  0  0  0  0  0  0
  193.7410  174.0950  137.9980 C   0  0  1  0  0  3  0  0  0  0  0  0
  191.4320  177.2890  145.8190 O   0  0  0  0  0  0  0  0  0  0  0  0
  189.0590  175.4070  142.5940 C   0  0  0  0  0  0  0  0  0  0  0  0
  189.0010  173.4530  140.8640 C   0  0  0  0  0  0  0  0  0  0  0  0
  190.6390  171.8730  139.8600 C   0  0  0  0  0  2  0  0  0  0  0  0
  194.4950  176.0440  143.2870 O   0  0  0  0  0  0  0  0  0  0  0  0
  192.5120  171.1100  141.1260 O   0  0  0  0  0  0  0  0  0  0  0  0
  194.7210  177.3670  140.5100 F   0  0  0  0  0  0  0  0  0  0  0  0
  192.0960  171.8460  140.1900 C   0  0  0  0  0  0  0  0  0  0  0  0
  188.3510  176.6560  142.1990 C   0  0  1  0  0  3  0  0  0  0  0  0
  193.0080  172.5990  139.4520 O   0  0  0  0  0  0  0  0  0  0  0  0
  186.3700  178.8610  143.5980 O   0  0  0  0  0  1  0  0  0  0  0  0
  186.4070  177.6010  143.2100 O   0  0  0  0  0  0  0  0  0  0  0  0
  192.9130  177.0740  147.7070 C   0  0  0  0  0  2  0  0  0  0  0  0
  191.9410  176.7260  148.8240 C   0  0  0  0  0  3  0  0  0  0  0  0
  191.0500  177.9170  149.1380 C   0  0  0  0  0  1  0  0  0  0  0  0
  191.0790  175.5610  148.3890 C   0  0  0  0  0  1  0  0  0  0  0  0
  190.8980  174.2140  145.2220 O   0  0  0  0  0  0  0  0  0  0  0  0
  189.9410  171.9970  144.6360 C   0  0  0  0  0  1  0  0  0  0  0  0
  190.9640  173.0550  144.4450 C   0  0  0  0  0  0  0  0  0  0  0  0
  191.8720  172.8850  143.5930 O   0  0  0  0  0  0  0  0  0  0  0  0
  187.9240  173.4710  139.8330 C   0  0  0  0  0  2  0  0  0  0  0  0
  188.1910  174.5600  138.8060 C   0  0  0  0  0  2  0  0  0  0  0  0
  188.4840  174.0160  137.4370 C   0  0  0  0  0  0  0  0  0  0  0  0
  188.7310  172.8240  137.3240 O   0  0  0  0  0  0  0  0  0  0  0  0
  188.5020  174.9050  136.2210 C   0  0  1  0  0  3  0  0  0  0  0  0
  187.6110  176.8650  135.2220 O   0  0  0  0  0  0  0  0  0  0  0  0
  187.5810  176.1090  136.3750 C   0  0  0  0  0  3  0  0  0  0  0  0
  186.5710  176.0430  135.4370 O   0  0  0  0  0  0  0  0  0  0  0  0
  189.9220  175.2980  135.7860 C   0  0  0  0  0  2  0  0  0  0  0  0
  190.4170  174.5600  134.5480 C   0  0  0  0  0  2  0  0  0  0  0  0
  191.2470  173.3550  134.9420 C   0  0  0  0  0  1  0  0  0  0  0  0
  194.8580  173.2720  137.7620 O   0  0  0  0  0  0  0  0  0  0  0  0
  194.9560  173.1000  136.3710 C   0  0  1  0  0  0  0  0  0  0  0  0
  196.6080  173.1400  134.6300 F   0  0  0  0  0  0  0  0  0  0  0  0
  194.7880  174.3510  135.5350 C   0  0  0  0  0  2  0  0  0  0  0  0
  196.1810  173.7780  135.7800 C   0  0  1  0  0  3  0  0  0  0  0  0
  194.5480  171.7850  135.7710 C   0  0  0  0  0  3  0  0  0  0  0  0
  194.0730  170.9180  136.4770 O   0  0  0  0  0  0  0  0  0  0  0  0
  1  8  1  0  0  0  0
  1 23  1  1  0  0  0
  2 14  1  1  0  0  0
  3 32  1  0  0  0  0
  4 19  1  0  0  0  0
  7 24  1  6  0  0  0
  7  2  1  0  0  0  0
  7  8  1  0  0  0  0
  8 39  1  6  0  0  0
  9 13  1  1  0  0  0
  9 16  1  0  0  0  0
  9  1  1  0  0  0  0
 10 11  1  0  0  0  0
 11 35  1  1  0  0  0
 12 34  1  6  0  0  0
 12  2  1  0  0  0  0
 15 24  2  0  0  0  0
 16 10  2  0  0  0  0
 17 29  1  6  0  0  0
 17 20  1  0  0  0  0
 20 19  1  1  0  0  0
 20 27  1  0  0  0  0
 21  6  1  6  0  0  0
 21  4  1  0  0  0  0
 21 17  1  0  0  0  0
 22 54  1  1  0  0  0
 22  3  1  0  0  0  0
 22  6  1  0  0  0  0
 23 11  1  0  0  0  0
 25  5  1  0  0  0  0
 25 15  2  0  0  0  0
 26 30  1  0  0  0  0
 26  5  1  0  0  0  0
 27 16  1  0  0  0  0
 30 28  2  0  0  0  0
 31 18  1  1  0  0  0
 31 24  1  0  0  0  0
 31 12  1  0  0  0  0
 32 30  1  0  0  0  0
 34 33  1  0  0  0  0
 35 36  1  0  0  0  0
 36 37  1  0  0  0  0
 38 36  1  0  0  0  0
 41 40  1  0  0  0  0
 41 39  1  0  0  0  0
 42 41  2  0  0  0  0
 43 25  1  0  0  0  0
 44 43  1  0  0  0  0
 45 44  1  0  0  0  0
 46 45  2  0  0  0  0
 47 51  1  1  0  0  0
 47 49  1  0  0  0  0
 47 45  1  0  0  0  0
 48 50  1  0  0  0  0
 48 49  1  0  0  0  0
 50 49  1  0  0  0  0
 52 53  1  0  0  0  0
 52 51  1  0  0  0  0
 55 59  1  6  0  0  0
 55 54  1  0  0  0  0
 57 58  1  0  0  0  0
 57 55  1  0  0  0  0
 58 56  1  6  0  0  0
 58 55  1  0  0  0  0
 59 60  2  0  0  0  0
M  END
>  <MODEL>
7

>  <REMARK>
 VINA RESULT:      -4.8      2.782      7.872
  Name = 
  15 active torsions:
  status: ('A' for Active; 'I' for Inactive)
    1  A    between atoms: C_2  and  C_18
    2  A    between atoms: C_2  and  C_29
    3  A    between atoms: C_4  and  C_7
    4  A    between atoms: C_4  and  C_25
    5  A    between atoms: C_4  and  C_43
    6  A    between atoms: O_6  and  C_11
    7  A    between atoms: O_6  and  C_15
    8  A    between atoms: C_7  and  C_27
    9  A    between atoms: C_10  and  O_36
   10  A    between atoms: C_10  and  C_50
   11  A    between atoms: C_19  and  O_42
   12  A    between atoms: C_27  and  C_34
   13  A    between atoms: C_34  and  C_49
   14  A    between atoms: O_36  and  C_46
   15  A    between atoms: C_43  and  C_44
                            x       y       z     vdW  Elec       q    Type
                         _______ _______ _______ _____ _____    ______ ____

>  <TORSDO>
F 15

$$$$
=
 OpenBabel11062420393D

 60 65  0  0  1  0  0  0  0  0999 V2000
  192.6970  171.9420  138.2080 C   0  0  2  0  0  3  0  0  0  0  0  0
  195.8700  172.2480  139.1410 C   0  0  2  0  0  3  0  0  0  0  0  0
  190.0130  175.3350  144.0130 O   0  0  0  0  0  0  0  0  0  0  0  0
  187.9180  173.3710  142.3090 O   0  0  0  0  0  0  0  0  0  0  0  0
  193.2280  172.8900  143.9160 C   0  0  0  0  0  2  0  0  0  0  0  0
  188.6980  175.6450  141.9810 C   0  0  0  0  0  2  0  0  0  0  0  0
  194.6460  171.9640  140.0150 C   0  0  2  0  0  3  0  0  0  0  0  0
  193.5420  171.1900  139.2610 C   0  0  1  0  0  3  0  0  0  0  0  0
  191.4450  172.6500  138.7460 C   0  0  1  0  0  3  0  0  0  0  0  0
  190.2100  170.6990  137.8610 C   0  0  0  0  0  3  0  0  0  0  0  0
  191.5170  170.1480  137.3700 C   0  0  2  0  0  3  0  0  0  0  0  0
  195.6990  173.6640  138.6180 C   0  0  1  0  0  3  0  0  0  0  0  0
  191.2880  173.8520  138.0790 F   0  0  0  0  0  0  0  0  0  0  0  0
  196.0090  171.3400  138.0880 O   0  0  0  0  0  1  0  0  0  0  0  0
  194.0880  173.5510  141.7530 C   0  0  0  0  0  0  0  0  0  0  0  0
  190.1880  171.8290  138.5640 C   0  0  0  0  0  0  0  0  0  0  0  0
  187.8980  174.1850  140.0970 C   0  0  1  0  0  3  0  0  0  0  0  0
  193.8110  175.2400  138.9670 C   0  0  0  0  0  1  0  0  0  0  0  0
  188.6430  172.4810  141.4880 C   0  0  0  0  0  2  0  0  0  0  0  0
  188.9850  173.1800  140.2000 C   0  0  1  0  0  3  0  0  0  0  0  0
  187.7040  174.5460  141.5580 C   0  0  1  0  0  3  0  0  0  0  0  0
  188.8330  175.8980  143.4870 C   0  0  1  0  0  3  0  0  0  0  0  0
  192.4280  171.1780  137.0450 O   0  0  0  0  0  0  0  0  0  0  0  0
  194.2230  173.3200  140.4750 C   0  0  0  0  0  0  0  0  0  0  0  0
  193.9870  173.8180  143.0260 C   0  0  0  0  0  0  0  0  0  0  0  0
  192.2010  173.6410  144.7490 C   0  0  0  0  0  2  0  0  0  0  0  0
  188.9820  172.2650  139.1150 O   0  0  0  0  0  0  0  0  0  0  0  0
  190.5660  171.9080  144.6200 O   0  0  0  0  0  0  0  0  0  0  0  0
  188.2940  175.2640  139.3300 F   0  0  0  0  0  0  0  0  0  0  0  0
  190.8210  173.1360  144.4840 C   0  0  0  0  0  0  0  0  0  0  0  0
  194.8560  174.3880  139.6530 C   0  0  1  0  0  3  0  0  0  0  0  0
  189.7990  174.0120  144.1210 O   0  0  0  0  0  0  0  0  0  0  0  0
  196.8780  174.9610  137.3720 O   0  0  0  0  0  1  0  0  0  0  0  0
  196.9440  174.2830  138.5020 O   0  0  0  0  0  0  0  0  0  0  0  0
  191.2860  169.2470  136.1680 C   0  0  0  0  0  2  0  0  0  0  0  0
  192.4020  168.2240  136.0300 C   0  0  0  0  0  3  0  0  0  0  0  0
  193.3290  168.6040  134.8880 C   0  0  0  0  0  1  0  0  0  0  0  0
  193.1940  168.1760  137.3190 C   0  0  0  0  0  1  0  0  0  0  0  0
  192.8510  170.2150  140.0440 O   0  0  0  0  0  0  0  0  0  0  0  0
  193.3930  169.6390  142.4000 C   0  0  0  0  0  1  0  0  0  0  0  0
  192.5480  170.3400  141.4020 C   0  0  0  0  0  0  0  0  0  0  0  0
  191.5730  171.0270  141.7980 O   0  0  0  0  0  0  0  0  0  0  0  0
  194.8750  174.8610  143.6150 C   0  0  0  0  0  2  0  0  0  0  0  0
  195.2470  174.4960  145.0440 C   0  0  0  0  0  2  0  0  0  0  0  0
  196.5110  173.6900  145.1320 C   0  0  0  0  0  0  0  0  0  0  0  0
  197.4820  174.1850  145.6860 O   0  0  0  0  0  0  0  0  0  0  0  0
  196.6100  172.3100  144.5360 C   0  0  1  0  0  3  0  0  0  0  0  0
  197.8750  171.0740  142.9520 O   0  0  0  0  0  0  0  0  0  0  0  0
  197.3210  172.3150  143.1880 C   0  0  0  0  0  3  0  0  0  0  0  0
  196.7220  171.4010  142.3450 O   0  0  0  0  0  0  0  0  0  0  0  0
  197.1940  171.2750  145.5090 C   0  0  0  0  0  2  0  0  0  0  0  0
  196.3340  170.0280  145.6770 C   0  0  0  0  0  2  0  0  0  0  0  0
  194.8750  170.4040  145.8380 C   0  0  0  0  0  1  0  0  0  0  0  0
  187.6910  175.5230  144.2200 O   0  0  0  0  0  0  0  0  0  0  0  0
  186.9280  176.6860  144.4150 C   0  0  1  0  0  0  0  0  0  0  0  0
  187.0810  179.0570  144.0720 F   0  0  0  0  0  0  0  0  0  0  0  0
  187.1120  177.3850  145.7450 C   0  0  0  0  0  2  0  0  0  0  0  0
  187.7810  177.9420  144.4930 C   0  0  1  0  0  3  0  0  0  0  0  0
  185.5990  176.8070  143.7280 C   0  0  0  0  0  3  0  0  0  0  0  0
  184.7950  177.6370  144.1030 O   0  0  0  0  0  0  0  0  0  0  0  0
  1 23  1  6  0  0  0
  1  9  1  0  0  0  0
  1  8  1  0  0  0  0
  2 14  1  6  0  0  0
  2  7  1  0  0  0  0
  3 32  1  0  0  0  0
  5 26  1  0  0  0  0
  6 22  1  0  0  0  0
  7 24  1  6  0  0  0
  8  7  1  0  0  0  0
  8 39  1  1  0  0  0
  9 13  1  6  0  0  0
 10 16  2  0  0  0  0
 11 35  1  6  0  0  0
 11 10  1  0  0  0  0
 12 34  1  1  0  0  0
 12  2  1  0  0  0  0
 12 31  1  0  0  0  0
 15 25  2  0  0  0  0
 16  9  1  0  0  0  0
 16 27  1  0  0  0  0
 17 29  1  6  0  0  0
 17 20  1  0  0  0  0
 17 21  1  0  0  0  0
 19  4  1  0  0  0  0
 20 19  1  1  0  0  0
 21  6  1  1  0  0  0
 21  4  1  0  0  0  0
 22  3  1  0  0  0  0
 22 54  1  1  0  0  0
 23 11  1  0  0  0  0
 24 15  2  0  0  0  0
 25 43  1  0  0  0  0
 25  5  1  0  0  0  0
 27 20  1  0  0  0  0
 30 28  2  0  0  0  0
 30 26  1  0  0  0  0
 31 18  1  6  0  0  0
 31 24  1  0  0  0  0
 32 30  1  0  0  0  0
 33 34  1  0  0  0  0
 36 35  1  0  0  0  0
 36 38  1  0  0  0  0
 37 36  1  0  0  0  0
 39 41  1  0  0  0  0
 41 42  2  0  0  0  0
 41 40  1  0  0  0  0
 43 44  1  0  0  0  0
 44 45  1  0  0  0  0
 45 46  2  0  0  0  0
 47 45  1  0  0  0  0
 47 51  1  1  0  0  0
 48 49  1  0  0  0  0
 49 47  1  0  0  0  0
 50 48  1  0  0  0  0
 50 49  1  0  0  0  0
 51 52  1  0  0  0  0
 52 53  1  0  0  0  0
 54 55  1  0  0  0  0
 55 59  1  6  0  0  0
 55 58  1  0  0  0  0
 55 57  1  0  0  0  0
 58 56  1  6  0  0  0
 58 57  1  0  0  0  0
 59 60  2  0  0  0  0
M  END
>  <MODEL>
8

>  <REMARK>
 VINA RESULT:      -4.6      2.873      7.289
  Name = 
  15 active torsions:
  status: ('A' for Active; 'I' for Inactive)
    1  A    between atoms: C_2  and  C_18
    2  A    between atoms: C_2  and  C_29
    3  A    between atoms: C_4  and  C_7
    4  A    between atoms: C_4  and  C_25
    5  A    between atoms: C_4  and  C_43
    6  A    between atoms: O_6  and  C_11
    7  A    between atoms: O_6  and  C_15
    8  A    between atoms: C_7  and  C_27
    9  A    between atoms: C_10  and  O_36
   10  A    between atoms: C_10  and  C_50
   11  A    between atoms: C_19  and  O_42
   12  A    between atoms: C_27  and  C_34
   13  A    between atoms: C_34  and  C_49
   14  A    between atoms: O_36  and  C_46
   15  A    between atoms: C_43  and  C_44
                            x       y       z     vdW  Elec       q    Type
                         _______ _______ _______ _____ _____    ______ ____

>  <TORSDO>
F 15

$$$$
=
 OpenBabel11062420393D

 60 65  0  0  1  0  0  0  0  0999 V2000
  188.2270  175.8400  143.2580 C   0  0  2  0  0  3  0  0  0  0  0  0
  189.9460  175.8080  146.1010 C   0  0  2  0  0  3  0  0  0  0  0  0
  192.8070  171.4920  139.7160 O   0  0  0  0  0  0  0  0  0  0  0  0
  190.7720  173.3780  137.8580 O   0  0  0  0  0  0  0  0  0  0  0  0
  193.7720  174.2990  142.4570 C   0  0  0  0  0  2  0  0  0  0  0  0
  190.4790  171.2670  139.0190 C   0  0  0  0  0  2  0  0  0  0  0  0
  190.4810  175.8390  144.6670 C   0  0  2  0  0  3  0  0  0  0  0  0
  189.5250  176.5590  143.6890 C   0  0  1  0  0  3  0  0  0  0  0  0
  188.3510  174.9290  142.0280 C   0  0  1  0  0  3  0  0  0  0  0  0
  187.3320  176.8080  140.7860 C   0  0  0  0  0  3  0  0  0  0  0  0
  187.2540  177.5650  142.0800 C   0  0  2  0  0  3  0  0  0  0  0  0
  189.2810  174.4530  146.2760 C   0  0  1  0  0  3  0  0  0  0  0  0
  187.5710  173.8030  142.2220 F   0  0  0  0  0  0  0  0  0  0  0  0
  189.0450  176.8430  146.3670 O   0  0  0  0  0  1  0  0  0  0  0  0
  191.8710  174.0030  143.9250 C   0  0  0  0  0  0  0  0  0  0  0  0
  187.9080  175.6090  140.7520 C   0  0  0  0  0  0  0  0  0  0  0  0
  188.5760  172.8320  138.5180 C   0  0  1  0  0  3  0  0  0  0  0  0
  188.9830  172.6320  144.6130 C   0  0  0  0  0  1  0  0  0  0  0  0
  190.2510  174.4390  138.6290 C   0  0  0  0  0  2  0  0  0  0  0  0
  189.0470  173.9420  139.3840 C   0  0  1  0  0  3  0  0  0  0  0  0
  189.8980  172.2820  138.0150 C   0  0  1  0  0  3  0  0  0  0  0  0
  191.9410  170.8580  138.8040 C   0  0  1  0  0  3  0  0  0  0  0  0
  187.1010  176.6970  143.1840 O   0  0  0  0  0  0  0  0  0  0  0  0
  190.6980  174.3970  144.3440 C   0  0  0  0  0  0  0  0  0  0  0  0
  193.0440  173.5790  143.5440 C   0  0  0  0  0  0  0  0  0  0  0  0
  194.2360  173.3380  141.3750 C   0  0  0  0  0  2  0  0  0  0  0  0
  188.0800  174.9700  139.5230 O   0  0  0  0  0  0  0  0  0  0  0  0
  193.8180  174.8660  139.5910 O   0  0  0  0  0  0  0  0  0  0  0  0
  187.8570  171.9060  139.2490 F   0  0  0  0  0  0  0  0  0  0  0  0
  193.6550  173.7010  140.0480 C   0  0  0  0  0  0  0  0  0  0  0  0
  189.9910  173.5170  145.3140 C   0  0  1  0  0  3  0  0  0  0  0  0
  192.9610  172.7580  139.2910 O   0  0  0  0  0  0  0  0  0  0  0  0
  190.2120  174.9190  148.1580 O   0  0  0  0  0  1  0  0  0  0  0  0
  189.4510  174.0050  147.5870 O   0  0  0  0  0  0  0  0  0  0  0  0
  186.1120  178.5670  142.0320 C   0  0  0  0  0  2  0  0  0  0  0  0
  185.2270  178.4430  143.2620 C   0  0  0  0  0  3  0  0  0  0  0  0
  185.4210  179.6430  144.1750 C   0  0  0  0  0  1  0  0  0  0  0  0
  183.7790  178.3760  142.8290 C   0  0  0  0  0  1  0  0  0  0  0  0
  190.1720  177.3440  142.6870 O   0  0  0  0  0  0  0  0  0  0  0  0
  191.5860  179.1560  143.6340 C   0  0  0  0  0  1  0  0  0  0  0  0
  191.4350  177.9300  142.8120 C   0  0  0  0  0  0  0  0  0  0  0  0
  192.4430  177.4460  142.2400 O   0  0  0  0  0  0  0  0  0  0  0  0
  193.7620  172.5880  144.3970 C   0  0  0  0  0  2  0  0  0  0  0  0
  193.7350  171.2120  143.7490 C   0  0  0  0  0  2  0  0  0  0  0  0
  193.8560  170.0930  144.7430 C   0  0  0  0  0  0  0  0  0  0  0  0
  193.0140  169.2070  144.7300 O   0  0  0  0  0  0  0  0  0  0  0  0
  194.9680  170.0570  145.7590 C   0  0  1  0  0  3  0  0  0  0  0  0
  195.9270  168.8290  147.5490 O   0  0  0  0  0  0  0  0  0  0  0  0
  194.9950  168.7470  146.5360 C   0  0  0  0  0  3  0  0  0  0  0  0
  194.6260  168.9780  147.8460 O   0  0  0  0  0  0  0  0  0  0  0  0
  196.3360  170.4210  145.1640 C   0  0  0  0  0  2  0  0  0  0  0  0
  196.9570  171.6780  145.7600 C   0  0  0  0  0  2  0  0  0  0  0  0
  197.5750  172.5340  144.6730 C   0  0  0  0  0  1  0  0  0  0  0  0
  192.3700  171.0050  137.4710 O   0  0  0  0  0  0  0  0  0  0  0  0
  193.1580  169.8830  137.1670 C   0  0  1  0  0  0  0  0  0  0  0  0
  194.4120  168.1660  138.2840 F   0  0  0  0  0  0  0  0  0  0  0  0
  194.6410  170.1390  136.9970 C   0  0  0  0  0  2  0  0  0  0  0  0
  194.1180  169.5170  138.2890 C   0  0  1  0  0  3  0  0  0  0  0  0
  192.5410  168.7480  136.4010 C   0  0  0  0  0  3  0  0  0  0  0  0
  191.5750  168.1660  136.8530 O   0  0  0  0  0  0  0  0  0  0  0  0
  1 23  1  6  0  0  0
  1  8  1  0  0  0  0
  2 12  1  0  0  0  0
  2 14  1  6  0  0  0
  4 21  1  0  0  0  0
  4 19  1  0  0  0  0
  5 25  1  0  0  0  0
  7 24  1  6  0  0  0
  7  2  1  0  0  0  0
  8 39  1  6  0  0  0
  8  7  1  0  0  0  0
  9 13  1  1  0  0  0
  9  1  1  0  0  0  0
 10 11  1  0  0  0  0
 11 35  1  6  0  0  0
 11 23  1  0  0  0  0
 12 34  1  1  0  0  0
 15 24  2  0  0  0  0
 16 10  2  0  0  0  0
 16  9  1  0  0  0  0
 17 29  1  1  0  0  0
 17 20  1  0  0  0  0
 20 19  1  6  0  0  0
 20 27  1  0  0  0  0
 21 17  1  0  0  0  0
 21  6  1  1  0  0  0
 22 54  1  6  0  0  0
 22  6  1  0  0  0  0
 22  3  1  0  0  0  0
 24 31  1  0  0  0  0
 25 15  2  0  0  0  0
 25 43  1  0  0  0  0
 26  5  1  0  0  0  0
 27 16  1  0  0  0  0
 28 30  2  0  0  0  0
 30 26  1  0  0  0  0
 31 18  1  6  0  0  0
 31 12  1  0  0  0  0
 32  3  1  0  0  0  0
 32 30  1  0  0  0  0
 34 33  1  0  0  0  0
 35 36  1  0  0  0  0
 36 37  1  0  0  0  0
 38 36  1  0  0  0  0
 39 41  1  0  0  0  0
 41 40  1  0  0  0  0
 42 41  2  0  0  0  0
 44 43  1  0  0  0  0
 44 45  1  0  0  0  0
 45 47  1  0  0  0  0
 46 45  2  0  0  0  0
 47 51  1  6  0  0  0
 47 49  1  0  0  0  0
 48 50  1  0  0  0  0
 49 48  1  0  0  0  0
 49 50  1  0  0  0  0
 51 52  1  0  0  0  0
 53 52  1  0  0  0  0
 55 59  1  6  0  0  0
 55 54  1  0  0  0  0
 55 58  1  0  0  0  0
 57 55  1  0  0  0  0
 57 58  1  0  0  0  0
 58 56  1  6  0  0  0
 59 60  2  0  0  0  0
M  END
>  <MODEL>
9

>  <REMARK>
 VINA RESULT:      -4.4      3.091      9.584
  Name = 
  15 active torsions:
  status: ('A' for Active; 'I' for Inactive)
    1  A    between atoms: C_2  and  C_18
    2  A    between atoms: C_2  and  C_29
    3  A    between atoms: C_4  and  C_7
    4  A    between atoms: C_4  and  C_25
    5  A    between atoms: C_4  and  C_43
    6  A    between atoms: O_6  and  C_11
    7  A    between atoms: O_6  and  C_15
    8  A    between atoms: C_7  and  C_27
    9  A    between atoms: C_10  and  O_36
   10  A    between atoms: C_10  and  C_50
   11  A    between atoms: C_19  and  O_42
   12  A    between atoms: C_27  and  C_34
   13  A    between atoms: C_34  and  C_49
   14  A    between atoms: O_36  and  C_46
   15  A    between atoms: C_43  and  C_44
                            x       y       z     vdW  Elec       q    Type
                         _______ _______ _______ _____ _____    ______ ____

>  <TORSDO>
F 15

$$$$
