=
 OpenBabel11062420413D

 45 51  0  0  1  0  0  0  0  0999 V2000
  190.6500  175.0880  143.7800 C   0  0  1  0  0  3  0  0  0  0  0  0
  193.4640  173.4150  144.3260 C   0  0  2  0  0  3  0  0  0  0  0  0
  192.8130  174.2310  143.2290 C   0  0  2  0  0  3  0  0  0  0  0  0
  194.4070  174.3570  145.0460 C   0  0  0  0  0  2  0  0  0  0  0  0
  193.7030  175.6890  144.9690 C   0  0  2  0  0  3  0  0  0  0  0  0
  192.8660  175.6660  143.7000 C   0  0  2  0  0  3  0  0  0  0  0  0
  194.7150  176.8150  144.9180 C   0  0  0  0  0  1  0  0  0  0  0  0
  191.5680  176.1460  143.9720 O   0  0  0  0  0  0  0  0  0  0  0  0
  191.3530  173.9020  143.1640 C   0  0  2  0  0  3  0  0  0  0  0  0
  195.5310  172.1910  143.2870 C   0  0  1  0  0  3  0  0  0  0  0  0
  194.0890  172.0980  143.8430 C   0  0  1  0  0  3  0  0  0  0  0  0
  196.7470  169.6990  146.5710 O   0  0  0  0  0  0  0  0  0  0  0  0
  193.8790  171.0040  144.8930 C   0  0  0  0  0  2  0  0  0  0  0  0
  196.7940  170.4260  144.4090 O   0  0  0  0  0  0  0  0  0  0  0  0
  196.1340  170.7890  143.2000 C   0  0  0  0  0  2  0  0  0  0  0  0
  196.1780  170.3560  145.6650 C   0  0  0  0  0  0  0  0  0  0  0  0
  194.9130  171.0880  146.0030 C   0  0  0  0  0  2  0  0  0  0  0  0
  195.5020  172.8010  141.8750 C   0  0  2  0  0  3  0  0  0  0  0  0
  196.8710  172.9010  141.1530 C   0  0  2  0  0  3  0  0  0  0  0  0
  197.9400  172.4330  141.9320 O   0  0  0  0  0  1  0  0  0  0  0  0
  196.9200  174.7590  142.9900 C   0  0  0  0  0  1  0  0  0  0  0  0
  196.2350  174.1330  141.7720 C   0  0  2  0  0  0  0  0  0  0  0  0
  195.6790  175.0080  140.8380 O   0  0  0  0  0  1  0  0  0  0  0  0
  189.7530  174.5480  141.3740 C   0  0  0  0  0  2  0  0  0  0  0  0
  190.4300  172.1020  141.5470 C   0  0  1  0  0  3  0  0  0  0  0  0
  188.5490  173.0840  140.1990 C   0  0  0  0  0  2  0  0  0  0  0  0
  189.2530  174.2940  140.0950 O   0  0  0  0  0  0  0  0  0  0  0  0
  190.8800  173.5740  141.7400 C   0  0  2  0  0  3  0  0  0  0  0  0
  189.5310  171.9230  140.3210 C   0  0  0  0  0  2  0  0  0  0  0  0
  192.5630  171.5210  140.6150 O   0  0  0  0  0  0  0  0  0  0  0  0
  191.6940  169.9800  142.1230 N   0  0  0  0  0  1  0  0  0  0  0  0
  191.6190  171.2020  141.3880 C   0  0  0  0  0  0  0  0  0  0  0  0
  190.0560  174.6640  145.1190 C   0  0  0  0  0  2  0  0  0  0  0  0
  189.8680  175.8340  146.0980 C   0  0  1  0  0  3  0  0  0  0  0  0
  186.4420  176.7970  146.6970 C   0  0  0  0  0  2  0  0  0  0  0  0
  188.0230  177.3280  145.2120 C   0  0  0  0  0  0  0  0  0  0  0  0
  188.4880  176.3270  146.0790 N   0  0  0  0  0  0  0  0  0  0  0  0
  187.5470  175.9540  146.9860 O   0  0  0  0  0  0  0  0  0  0  0  0
  186.8000  177.6550  145.5250 C   0  0  0  0  0  3  0  0  0  0  0  0
  188.7870  177.8770  144.1790 O   0  0  0  0  0  0  0  0  0  0  0  0
  188.3630  177.8640  142.8730 C   0  0  0  0  0  0  0  0  0  0  0  0
  187.9930  177.8440  141.7210 C   0  0  0  0  0  3  0  0  0  0  0  0
  191.8040  175.2440  147.5870 C   0  0  0  0  0  2  0  0  0  0  0  0
  191.2150  176.5610  148.0320 C   0  0  0  0  0  2  0  0  0  0  0  0
  190.3060  175.4680  147.5130 C   0  0  0  0  0  3  0  0  0  0  0  0
  1  8  1  0  0  0  0
  1 33  1  1  0  0  0
  2  4  1  6  0  0  0
  3  6  1  0  0  0  0
  3  2  1  0  0  0  0
  5  4  1  0  0  0  0
  6  8  1  0  0  0  0
  6  5  1  0  0  0  0
  7  5  1  0  0  0  0
  9  3  1  0  0  0  0
  9  1  1  0  0  0  0
 10 11  1  0  0  0  0
 11  2  1  0  0  0  0
 11 13  1  0  0  0  0
 13 17  1  0  0  0  0
 14 16  1  0  0  0  0
 15 10  1  0  0  0  0
 15 14  1  0  0  0  0
 16 17  1  0  0  0  0
 16 12  2  0  0  0  0
 18 10  1  0  0  0  0
 19 22  1  0  0  0  0
 19 18  1  0  0  0  0
 19 20  1  0  0  0  0
 22 18  1  0  0  0  0
 22 21  1  0  0  0  0
 23 22  1  0  0  0  0
 24 28  1  0  0  0  0
 25 28  1  0  0  0  0
 26 29  1  0  0  0  0
 27 26  1  0  0  0  0
 27 24  1  0  0  0  0
 28  9  1  0  0  0  0
 29 25  1  0  0  0  0
 30 32  2  0  0  0  0
 32 25  1  0  0  0  0
 32 31  1  0  0  0  0
 33 34  1  0  0  0  0
 34 45  1  0  0  0  0
 35 38  1  0  0  0  0
 36 39  2  0  0  0  0
 36 37  1  0  0  0  0
 37 34  1  0  0  0  0
 37 38  1  0  0  0  0
 39 35  1  0  0  0  0
 40 36  1  0  0  0  0
 41 40  1  0  0  0  0
 42 41  3  0  0  0  0
 43 44  1  0  0  0  0
 45 43  1  0  0  0  0
 45 44  1  0  0  0  0
M  END
>  <MODEL>
1

>  <REMARK>
 VINA RESULT:      -6.7      0.000      0.000
  Name = 
  10 active torsions:
  status: ('A' for Active; 'I' for Inactive)
    1  A    between atoms: C_1  and  C_16
    2  A    between atoms: C_2  and  O_36
    3  A    between atoms: C_3  and  C_17
    4  A    between atoms: C_8  and  C_26
    5  A    between atoms: C_10  and  C_11
    6  A    between atoms: C_12  and  C_16
    7  A    between atoms: C_12  and  N_25
    8  A    between atoms: C_12  and  C_44
    9  A    between atoms: C_18  and  O_36
   10  A    between atoms: C_19  and  C_42
                            x       y       z     vdW  Elec       q    Type
                         _______ _______ _______ _____ _____    ______ ____

>  <TORSDO>
F 10

$$$$
=
 OpenBabel11062420413D

 45 51  0  0  1  0  0  0  0  0999 V2000
  193.0300  173.4210  141.5200 C   0  0  1  0  0  3  0  0  0  0  0  0
  190.4910  174.5510  143.3360 C   0  0  2  0  0  3  0  0  0  0  0  0
  191.3950  175.0220  142.2170 C   0  0  2  0  0  3  0  0  0  0  0  0
  189.2200  174.0640  142.6710 C   0  0  0  0  0  2  0  0  0  0  0  0
  189.7030  173.4890  141.3640 C   0  0  2  0  0  3  0  0  0  0  0  0
  190.9620  174.2550  140.9900 C   0  0  2  0  0  3  0  0  0  0  0  0
  188.6430  173.6530  140.2950 C   0  0  0  0  0  1  0  0  0  0  0  0
  191.9700  173.3540  140.5870 O   0  0  0  0  0  0  0  0  0  0  0  0
  192.7960  174.5620  142.4820 C   0  0  2  0  0  3  0  0  0  0  0  0
  188.9080  176.2600  144.5290 C   0  0  1  0  0  3  0  0  0  0  0  0
  190.2960  175.5780  144.4610 C   0  0  1  0  0  3  0  0  0  0  0  0
  188.3820  174.3660  148.3510 O   0  0  0  0  0  0  0  0  0  0  0  0
  190.7870  174.9980  145.7900 C   0  0  0  0  0  2  0  0  0  0  0  0
  188.1870  176.0780  146.8560 O   0  0  0  0  0  0  0  0  0  0  0  0
  188.7470  176.9530  145.8810 C   0  0  0  0  0  2  0  0  0  0  0  0
  188.7590  174.8660  147.2630 C   0  0  0  0  0  0  0  0  0  0  0  0
  189.7430  174.0990  146.4290 C   0  0  0  0  0  2  0  0  0  0  0  0
  188.7970  177.3180  143.4180 C   0  0  2  0  0  3  0  0  0  0  0  0
  187.5300  178.2110  143.4570 C   0  0  2  0  0  3  0  0  0  0  0  0
  186.6580  177.8830  144.5070 O   0  0  0  0  0  1  0  0  0  0  0  0
  186.7060  175.8740  142.6270 C   0  0  0  0  0  1  0  0  0  0  0  0
  187.6400  177.0740  142.4560 C   0  0  2  0  0  0  0  0  0  0  0  0
  187.8970  177.4970  141.1520 O   0  0  0  0  0  1  0  0  0  0  0  0
  194.5590  175.5330  141.0210 C   0  0  0  0  0  2  0  0  0  0  0  0
  194.8320  175.7630  143.5400 C   0  0  1  0  0  3  0  0  0  0  0  0
  196.5540  176.2010  141.7610 C   0  0  0  0  0  2  0  0  0  0  0  0
  195.5340  176.5180  140.8490 O   0  0  0  0  0  0  0  0  0  0  0  0
  193.8280  175.6940  142.3600 C   0  0  2  0  0  3  0  0  0  0  0  0
  196.1030  176.5380  143.1790 C   0  0  0  0  0  2  0  0  0  0  0  0
  193.2750  177.2640  144.5790 O   0  0  0  0  0  0  0  0  0  0  0  0
  194.6530  176.1020  146.0470 N   0  0  0  0  0  1  0  0  0  0  0  0
  194.2060  176.4270  144.7300 C   0  0  0  0  0  0  0  0  0  0  0  0
  193.1090  172.1210  142.3130 C   0  0  0  0  0  2  0  0  0  0  0  0
  194.4990  171.8590  142.9130 C   0  0  1  0  0  3  0  0  0  0  0  0
  194.4090  168.9730  145.0770 C   0  0  0  0  0  2  0  0  0  0  0  0
  194.7200  171.1680  145.3410 C   0  0  0  0  0  0  0  0  0  0  0  0
  194.4340  170.8760  143.9980 N   0  0  0  0  0  0  0  0  0  0  0  0
  194.2110  169.5510  143.7960 O   0  0  0  0  0  0  0  0  0  0  0  0
  194.7180  170.0700  146.0450 C   0  0  0  0  0  3  0  0  0  0  0  0
  194.9720  172.4560  145.8190 O   0  0  0  0  0  0  0  0  0  0  0  0
  196.2100  173.0420  145.7190 C   0  0  0  0  0  0  0  0  0  0  0  0
  197.3010  173.5590  145.6390 C   0  0  0  0  0  3  0  0  0  0  0  0
  196.5930  172.4890  141.6750 C   0  0  0  0  0  2  0  0  0  0  0  0
  196.8580  171.2610  142.5120 C   0  0  0  0  0  2  0  0  0  0  0  0
  195.5100  171.4420  141.8480 C   0  0  0  0  0  3  0  0  0  0  0  0
  1 33  1  1  0  0  0
  1  9  1  0  0  0  0
  2  4  1  6  0  0  0
  2 11  1  0  0  0  0
  3  9  1  0  0  0  0
  3  2  1  0  0  0  0
  5  4  1  0  0  0  0
  6  5  1  0  0  0  0
  6  3  1  0  0  0  0
  7  5  1  0  0  0  0
  8  6  1  0  0  0  0
  8  1  1  0  0  0  0
 10 15  1  0  0  0  0
 11 10  1  0  0  0  0
 11 13  1  0  0  0  0
 13 17  1  0  0  0  0
 14 16  1  0  0  0  0
 15 14  1  0  0  0  0
 16 12  2  0  0  0  0
 17 16  1  0  0  0  0
 18 19  1  0  0  0  0
 18 10  1  0  0  0  0
 19 20  1  0  0  0  0
 22 21  1  0  0  0  0
 22 18  1  0  0  0  0
 22 19  1  0  0  0  0
 23 22  1  0  0  0  0
 24 28  1  0  0  0  0
 25 32  1  0  0  0  0
 26 29  1  0  0  0  0
 27 24  1  0  0  0  0
 27 26  1  0  0  0  0
 28  9  1  0  0  0  0
 28 25  1  0  0  0  0
 29 25  1  0  0  0  0
 30 32  2  0  0  0  0
 32 31  1  0  0  0  0
 33 34  1  0  0  0  0
 34 37  1  0  0  0  0
 35 39  1  0  0  0  0
 36 40  1  0  0  0  0
 36 39  2  0  0  0  0
 37 36  1  0  0  0  0
 38 37  1  0  0  0  0
 38 35  1  0  0  0  0
 41 40  1  0  0  0  0
 42 41  3  0  0  0  0
 43 45  1  0  0  0  0
 43 44  1  0  0  0  0
 45 44  1  0  0  0  0
 45 34  1  0  0  0  0
M  END
>  <MODEL>
2

>  <REMARK>
 VINA RESULT:      -6.6      2.066      7.955
  Name = 
  10 active torsions:
  status: ('A' for Active; 'I' for Inactive)
    1  A    between atoms: C_1  and  C_16
    2  A    between atoms: C_2  and  O_36
    3  A    between atoms: C_3  and  C_17
    4  A    between atoms: C_8  and  C_26
    5  A    between atoms: C_10  and  C_11
    6  A    between atoms: C_12  and  C_16
    7  A    between atoms: C_12  and  N_25
    8  A    between atoms: C_12  and  C_44
    9  A    between atoms: C_18  and  O_36
   10  A    between atoms: C_19  and  C_42
                            x       y       z     vdW  Elec       q    Type
                         _______ _______ _______ _____ _____    ______ ____

>  <TORSDO>
F 10

$$$$
=
 OpenBabel11062420413D

 45 51  0  0  1  0  0  0  0  0999 V2000
  190.4960  175.0740  143.9710 C   0  0  1  0  0  3  0  0  0  0  0  0
  193.4570  174.6900  142.5210 C   0  0  2  0  0  3  0  0  0  0  0  0
  192.6860  174.1510  143.7070 C   0  0  2  0  0  3  0  0  0  0  0  0
  193.2770  173.6760  141.4090 C   0  0  0  0  0  2  0  0  0  0  0  0
  191.8840  173.1460  141.6360 C   0  0  2  0  0  3  0  0  0  0  0  0
  191.6120  173.2590  143.1280 C   0  0  2  0  0  3  0  0  0  0  0  0
  191.7930  171.7020  141.1870 C   0  0  0  0  0  1  0  0  0  0  0  0
  190.3360  173.8180  143.3420 O   0  0  0  0  0  0  0  0  0  0  0  0
  191.9400  175.2710  144.3660 C   0  0  2  0  0  3  0  0  0  0  0  0
  195.9320  173.9100  142.8580 C   0  0  1  0  0  3  0  0  0  0  0  0
  194.9110  175.0720  142.8360 C   0  0  1  0  0  3  0  0  0  0  0  0
  197.8530  175.7970  139.5080 O   0  0  0  0  0  0  0  0  0  0  0  0
  195.3300  176.2760  141.9880 C   0  0  0  0  0  2  0  0  0  0  0  0
  197.8080  174.6440  141.4770 O   0  0  0  0  0  0  0  0  0  0  0  0
  197.3500  174.4780  142.8150 C   0  0  0  0  0  2  0  0  0  0  0  0
  197.1870  175.4510  140.5140 C   0  0  0  0  0  0  0  0  0  0  0  0
  195.7440  175.8560  140.5880 C   0  0  0  0  0  2  0  0  0  0  0  0
  195.7670  173.1000  144.1560 C   0  0  2  0  0  3  0  0  0  0  0  0
  196.7560  171.9220  144.3490 C   0  0  2  0  0  3  0  0  0  0  0  0
  197.6440  171.7660  143.2730 O   0  0  0  0  0  1  0  0  0  0  0  0
  195.0790  171.1230  142.5120 C   0  0  0  0  0  1  0  0  0  0  0  0
  195.3220  171.6620  143.9240 C   0  0  2  0  0  0  0  0  0  0  0  0
  194.5180  171.1520  144.9440 O   0  0  0  0  0  1  0  0  0  0  0  0
  190.8160  175.0740  146.5760 C   0  0  0  0  0  2  0  0  0  0  0  0
  192.8120  176.6400  146.3840 C   0  0  1  0  0  3  0  0  0  0  0  0
  191.1580  176.4830  148.2700 C   0  0  0  0  0  2  0  0  0  0  0  0
  190.9370  175.1300  147.9660 O   0  0  0  0  0  0  0  0  0  0  0  0
  192.1630  175.3220  145.8850 C   0  0  2  0  0  3  0  0  0  0  0  0
  192.5800  176.8760  147.8790 C   0  0  0  0  0  2  0  0  0  0  0  0
  194.9730  175.5990  146.4010 O   0  0  0  0  0  0  0  0  0  0  0  0
  194.9370  177.7800  145.5970 N   0  0  0  0  0  1  0  0  0  0  0  0
  194.2920  176.6270  146.1400 C   0  0  0  0  0  0  0  0  0  0  0  0
  190.0940  176.1910  143.0130 C   0  0  0  0  0  2  0  0  0  0  0  0
  188.8070  176.9190  143.4330 C   0  0  1  0  0  3  0  0  0  0  0  0
  186.7450  178.1280  140.7310 C   0  0  0  0  0  2  0  0  0  0  0  0
  187.6590  176.1720  141.3020 C   0  0  0  0  0  0  0  0  0  0  0  0
  187.9210  177.1370  142.2870 N   0  0  0  0  0  0  0  0  0  0  0  0
  187.3600  178.3390  141.9930 O   0  0  0  0  0  0  0  0  0  0  0  0
  186.9540  176.7000  140.3390 C   0  0  0  0  0  3  0  0  0  0  0  0
  188.1070  174.8510  141.3690 O   0  0  0  0  0  0  0  0  0  0  0  0
  188.5880  174.1870  140.2670 C   0  0  0  0  0  0  0  0  0  0  0  0
  189.0060  173.6080  139.2900 C   0  0  0  0  0  3  0  0  0  0  0  0
  187.8990  177.0870  145.7700 C   0  0  0  0  0  2  0  0  0  0  0  0
  186.7580  176.8790  144.8050 C   0  0  0  0  0  2  0  0  0  0  0  0
  188.0830  176.1900  144.5620 C   0  0  0  0  0  3  0  0  0  0  0  0
  1 33  1  6  0  0  0
  1  9  1  0  0  0  0
  2  4  1  6  0  0  0
  2 11  1  0  0  0  0
  2  3  1  0  0  0  0
  3  9  1  0  0  0  0
  4  5  1  0  0  0  0
  5  6  1  0  0  0  0
  6  8  1  0  0  0  0
  6  3  1  0  0  0  0
  7  5  1  0  0  0  0
  8  1  1  0  0  0  0
  9 28  1  0  0  0  0
 10 18  1  0  0  0  0
 11 10  1  0  0  0  0
 12 16  2  0  0  0  0
 13 11  1  0  0  0  0
 14 15  1  0  0  0  0
 15 10  1  0  0  0  0
 16 17  1  0  0  0  0
 16 14  1  0  0  0  0
 17 13  1  0  0  0  0
 18 19  1  0  0  0  0
 20 19  1  0  0  0  0
 21 22  1  0  0  0  0
 22 18  1  0  0  0  0
 22 19  1  0  0  0  0
 22 23  1  0  0  0  0
 24 27  1  0  0  0  0
 25 29  1  0  0  0  0
 27 26  1  0  0  0  0
 28 25  1  0  0  0  0
 28 24  1  0  0  0  0
 29 26  1  0  0  0  0
 31 32  1  0  0  0  0
 32 25  1  0  0  0  0
 32 30  2  0  0  0  0
 33 34  1  0  0  0  0
 34 45  1  0  0  0  0
 35 38  1  0  0  0  0
 36 40  1  0  0  0  0
 36 37  1  0  0  0  0
 37 34  1  0  0  0  0
 38 37  1  0  0  0  0
 39 35  1  0  0  0  0
 39 36  2  0  0  0  0
 41 40  1  0  0  0  0
 42 41  3  0  0  0  0
 44 43  1  0  0  0  0
 45 44  1  0  0  0  0
 45 43  1  0  0  0  0
M  END
>  <MODEL>
3

>  <REMARK>
 VINA RESULT:      -6.5      2.188      5.354
  Name = 
  10 active torsions:
  status: ('A' for Active; 'I' for Inactive)
    1  A    between atoms: C_1  and  C_16
    2  A    between atoms: C_2  and  O_36
    3  A    between atoms: C_3  and  C_17
    4  A    between atoms: C_8  and  C_26
    5  A    between atoms: C_10  and  C_11
    6  A    between atoms: C_12  and  C_16
    7  A    between atoms: C_12  and  N_25
    8  A    between atoms: C_12  and  C_44
    9  A    between atoms: C_18  and  O_36
   10  A    between atoms: C_19  and  C_42
                            x       y       z     vdW  Elec       q    Type
                         _______ _______ _______ _____ _____    ______ ____

>  <TORSDO>
F 10

$$$$
=
 OpenBabel11062420413D

 45 51  0  0  1  0  0  0  0  0999 V2000
  190.5530  174.1340  144.3320 C   0  0  1  0  0  3  0  0  0  0  0  0
  193.5680  173.3750  143.1690 C   0  0  2  0  0  3  0  0  0  0  0  0
  192.7600  173.2190  144.4400 C   0  0  2  0  0  3  0  0  0  0  0  0
  193.4380  172.0620  142.4250 C   0  0  0  0  0  2  0  0  0  0  0  0
  192.0420  171.6010  142.7630 C   0  0  2  0  0  3  0  0  0  0  0  0
  191.7160  172.1690  144.1350 C   0  0  2  0  0  3  0  0  0  0  0  0
  191.9800  170.0880  142.7840 C   0  0  0  0  0  1  0  0  0  0  0  0
  190.4270  172.7420  144.1230 O   0  0  0  0  0  0  0  0  0  0  0  0
  191.9810  174.4730  144.6910 C   0  0  2  0  0  3  0  0  0  0  0  0
  196.0670  172.7700  143.6590 C   0  0  1  0  0  3  0  0  0  0  0  0
  195.0060  173.8660  143.3950 C   0  0  1  0  0  3  0  0  0  0  0  0
  197.9410  173.9760  139.9840 O   0  0  0  0  0  0  0  0  0  0  0  0
  195.3890  174.8780  142.3120 C   0  0  0  0  0  2  0  0  0  0  0  0
  197.9250  173.2620  142.1520 O   0  0  0  0  0  0  0  0  0  0  0  0
  197.4650  173.3650  143.4960 C   0  0  0  0  0  2  0  0  0  0  0  0
  197.2810  173.8260  141.0420 C   0  0  0  0  0  0  0  0  0  0  0  0
  195.8260  174.1880  141.0310 C   0  0  0  0  0  2  0  0  0  0  0  0
  195.9220  172.2460  145.0980 C   0  0  2  0  0  3  0  0  0  0  0  0
  196.9940  171.2250  145.5580 C   0  0  2  0  0  3  0  0  0  0  0  0
  197.9280  170.9180  144.5560 O   0  0  0  0  0  1  0  0  0  0  0  0
  195.4490  169.9120  143.9100 C   0  0  0  0  0  1  0  0  0  0  0  0
  195.6000  170.7580  145.1760 C   0  0  2  0  0  0  0  0  0  0  0  0
  194.8040  170.4130  146.2680 O   0  0  0  0  0  1  0  0  0  0  0  0
  190.7770  174.9670  146.8110 C   0  0  0  0  0  2  0  0  0  0  0  0
  192.7790  176.4150  146.2070 C   0  0  1  0  0  3  0  0  0  0  0  0
  191.0580  176.8390  147.9890 C   0  0  0  0  0  2  0  0  0  0  0  0
  190.8470  175.4570  148.1170 O   0  0  0  0  0  0  0  0  0  0  0  0
  192.1480  175.0000  146.1250 C   0  0  2  0  0  3  0  0  0  0  0  0
  192.4930  177.1040  147.5440 C   0  0  0  0  0  2  0  0  0  0  0  0
  194.9170  175.3620  146.4880 O   0  0  0  0  0  0  0  0  0  0  0  0
  194.9560  177.3790  145.3320 N   0  0  0  0  0  1  0  0  0  0  0  0
  194.2680  176.3420  146.0320 C   0  0  0  0  0  0  0  0  0  0  0  0
  190.1760  174.8880  143.0610 C   0  0  0  0  0  2  0  0  0  0  0  0
  188.6710  174.8490  142.7550 C   0  0  1  0  0  3  0  0  0  0  0  0
  187.1260  178.0660  142.2180 C   0  0  0  0  0  2  0  0  0  0  0  0
  187.5650  176.7710  143.9830 C   0  0  0  0  0  0  0  0  0  0  0  0
  188.0810  176.1890  142.8140 N   0  0  0  0  0  0  0  0  0  0  0  0
  187.8590  176.9590  141.7150 O   0  0  0  0  0  0  0  0  0  0  0  0
  186.9810  177.9010  143.6970 C   0  0  0  0  0  3  0  0  0  0  0  0
  187.6730  176.1930  145.2500 O   0  0  0  0  0  0  0  0  0  0  0  0
  187.1370  176.7830  146.3680 C   0  0  0  0  0  0  0  0  0  0  0  0
  186.6580  177.2970  147.3530 C   0  0  0  0  0  3  0  0  0  0  0  0
  188.8840  172.7440  141.4010 C   0  0  0  0  0  2  0  0  0  0  0  0
  187.4240  173.0240  141.6620 C   0  0  0  0  0  2  0  0  0  0  0  0
  188.3780  174.1730  141.4190 C   0  0  0  0  0  3  0  0  0  0  0  0
  1 33  1  6  0  0  0
  1  9  1  0  0  0  0
  2  4  1  1  0  0  0
  2 11  1  0  0  0  0
  2  3  1  0  0  0  0
  3  9  1  0  0  0  0
  4  5  1  0  0  0  0
  5  7  1  0  0  0  0
  5  6  1  0  0  0  0
  6  3  1  0  0  0  0
  8  6  1  0  0  0  0
  8  1  1  0  0  0  0
  9 28  1  0  0  0  0
 10 18  1  0  0  0  0
 11 10  1  0  0  0  0
 12 16  2  0  0  0  0
 13 11  1  0  0  0  0
 14 15  1  0  0  0  0
 15 10  1  0  0  0  0
 16 14  1  0  0  0  0
 17 16  1  0  0  0  0
 17 13  1  0  0  0  0
 18 22  1  0  0  0  0
 18 19  1  0  0  0  0
 20 19  1  0  0  0  0
 21 22  1  0  0  0  0
 22 19  1  0  0  0  0
 22 23  1  0  0  0  0
 24 27  1  0  0  0  0
 25 29  1  0  0  0  0
 26 27  1  0  0  0  0
 28 25  1  0  0  0  0
 28 24  1  0  0  0  0
 29 26  1  0  0  0  0
 31 32  1  0  0  0  0
 32 25  1  0  0  0  0
 32 30  2  0  0  0  0
 34 37  1  0  0  0  0
 34 33  1  0  0  0  0
 35 39  1  0  0  0  0
 36 40  1  0  0  0  0
 37 36  1  0  0  0  0
 38 35  1  0  0  0  0
 38 37  1  0  0  0  0
 39 36  2  0  0  0  0
 40 41  1  0  0  0  0
 41 42  3  0  0  0  0
 43 45  1  0  0  0  0
 43 44  1  0  0  0  0
 45 44  1  0  0  0  0
 45 34  1  0  0  0  0
M  END
>  <MODEL>
4

>  <REMARK>
 VINA RESULT:      -6.4      2.042      5.337
  Name = 
  10 active torsions:
  status: ('A' for Active; 'I' for Inactive)
    1  A    between atoms: C_1  and  C_16
    2  A    between atoms: C_2  and  O_36
    3  A    between atoms: C_3  and  C_17
    4  A    between atoms: C_8  and  C_26
    5  A    between atoms: C_10  and  C_11
    6  A    between atoms: C_12  and  C_16
    7  A    between atoms: C_12  and  N_25
    8  A    between atoms: C_12  and  C_44
    9  A    between atoms: C_18  and  O_36
   10  A    between atoms: C_19  and  C_42
                            x       y       z     vdW  Elec       q    Type
                         _______ _______ _______ _____ _____    ______ ____

>  <TORSDO>
F 10

$$$$
=
 OpenBabel11062420413D

 45 51  0  0  1  0  0  0  0  0999 V2000
  193.6420  174.0070  142.0780 C   0  0  1  0  0  3  0  0  0  0  0  0
  191.0890  175.7480  143.2880 C   0  0  2  0  0  3  0  0  0  0  0  0
  191.9250  174.5410  143.6550 C   0  0  2  0  0  3  0  0  0  0  0  0
  191.6730  176.9140  144.0590 C   0  0  0  0  0  2  0  0  0  0  0  0
  193.1480  176.6020  144.1080 C   0  0  2  0  0  3  0  0  0  0  0  0
  193.2740  175.0870  144.0650 C   0  0  2  0  0  3  0  0  0  0  0  0
  193.7590  177.1510  145.3800 C   0  0  0  0  0  1  0  0  0  0  0  0
  194.2640  174.7140  143.1330 O   0  0  0  0  0  0  0  0  0  0  0  0
  192.1980  173.7330  142.4240 C   0  0  2  0  0  3  0  0  0  0  0  0
  188.9600  176.0450  144.7830 C   0  0  1  0  0  3  0  0  0  0  0  0
  189.5760  175.5390  143.4560 C   0  0  1  0  0  3  0  0  0  0  0  0
  186.6890  178.8380  142.4350 O   0  0  0  0  0  0  0  0  0  0  0  0
  188.8420  176.0000  142.1940 C   0  0  0  0  0  2  0  0  0  0  0  0
  187.0060  177.3670  144.1500 O   0  0  0  0  0  0  0  0  0  0  0  0
  187.4390  176.1050  144.6470 C   0  0  0  0  0  2  0  0  0  0  0  0
  187.3890  177.9140  142.9190 C   0  0  0  0  0  0  0  0  0  0  0  0
  188.6330  177.5050  142.1870 C   0  0  0  0  0  2  0  0  0  0  0  0
  189.3140  175.0720  145.9210 C   0  0  2  0  0  3  0  0  0  0  0  0
  188.5660  175.2970  147.2610 C   0  0  2  0  0  3  0  0  0  0  0  0
  187.6890  176.3920  147.2240 O   0  0  0  0  0  1  0  0  0  0  0  0
  190.3030  177.2430  147.1010 C   0  0  0  0  0  1  0  0  0  0  0  0
  190.0100  175.7400  147.1000 C   0  0  2  0  0  0  0  0  0  0  0  0
  190.9270  174.9160  147.7510 O   0  0  0  0  0  1  0  0  0  0  0  0
  193.1160  171.4330  142.1930 C   0  0  0  0  0  2  0  0  0  0  0  0
  190.6180  171.7640  141.8460 C   0  0  1  0  0  3  0  0  0  0  0  0
  191.9910  169.7340  141.2870 C   0  0  0  0  0  2  0  0  0  0  0  0
  192.8930  170.0590  142.3130 O   0  0  0  0  0  0  0  0  0  0  0  0
  191.8810  172.2410  142.6100 C   0  0  2  0  0  3  0  0  0  0  0  0
  190.5980  170.2470  141.6410 C   0  0  0  0  0  2  0  0  0  0  0  0
  188.3660  172.5840  141.9650 O   0  0  0  0  0  0  0  0  0  0  0  0
  189.3160  172.0110  144.0080 N   0  0  0  0  0  1  0  0  0  0  0  0
  189.3730  172.1490  142.5880 C   0  0  0  0  0  0  0  0  0  0  0  0
  193.6900  174.8350  140.7980 C   0  0  0  0  0  2  0  0  0  0  0  0
  193.9750  173.9960  139.5420 C   0  0  1  0  0  3  0  0  0  0  0  0
  193.0950  175.6770  136.4720 C   0  0  0  0  0  2  0  0  0  0  0  0
  192.1360  174.1650  137.8070 C   0  0  0  0  0  0  0  0  0  0  0  0
  193.3570  174.5900  138.3540 N   0  0  0  0  0  0  0  0  0  0  0  0
  193.9650  175.5330  137.5860 O   0  0  0  0  0  0  0  0  0  0  0  0
  191.9160  174.7790  136.6780 C   0  0  0  0  0  3  0  0  0  0  0  0
  191.3060  173.2150  138.4060 O   0  0  0  0  0  0  0  0  0  0  0  0
  189.9630  173.4350  138.5940 C   0  0  0  0  0  0  0  0  0  0  0  0
  188.7790  173.6220  138.7530 C   0  0  0  0  0  3  0  0  0  0  0  0
  195.8710  172.3560  139.7080 C   0  0  0  0  0  2  0  0  0  0  0  0
  195.6510  172.7200  138.2600 C   0  0  0  0  0  2  0  0  0  0  0  0
  195.4700  173.7700  139.3350 C   0  0  0  0  0  3  0  0  0  0  0  0
  1 33  1  6  0  0  0
  1  9  1  0  0  0  0
  1  8  1  0  0  0  0
  2 11  1  0  0  0  0
  2  3  1  0  0  0  0
  2  4  1  1  0  0  0
  3  6  1  0  0  0  0
  4  5  1  0  0  0  0
  5  7  1  0  0  0  0
  6  5  1  0  0  0  0
  8  6  1  0  0  0  0
  9 28  1  0  0  0  0
  9  3  1  0  0  0  0
 10 18  1  0  0  0  0
 11 10  1  0  0  0  0
 12 16  2  0  0  0  0
 13 11  1  0  0  0  0
 14 15  1  0  0  0  0
 15 10  1  0  0  0  0
 16 14  1  0  0  0  0
 17 13  1  0  0  0  0
 17 16  1  0  0  0  0
 18 22  1  0  0  0  0
 18 19  1  0  0  0  0
 20 19  1  0  0  0  0
 22 21  1  0  0  0  0
 22 19  1  0  0  0  0
 22 23  1  0  0  0  0
 24 27  1  0  0  0  0
 24 28  1  0  0  0  0
 25 32  1  0  0  0  0
 25 28  1  0  0  0  0
 26 29  1  0  0  0  0
 26 27  1  0  0  0  0
 29 25  1  0  0  0  0
 30 32  2  0  0  0  0
 32 31  1  0  0  0  0
 34 33  1  0  0  0  0
 35 39  1  0  0  0  0
 35 38  1  0  0  0  0
 36 37  1  0  0  0  0
 36 40  1  0  0  0  0
 37 34  1  0  0  0  0
 38 37  1  0  0  0  0
 39 36  2  0  0  0  0
 40 41  1  0  0  0  0
 41 42  3  0  0  0  0
 44 45  1  0  0  0  0
 44 43  1  0  0  0  0
 45 34  1  0  0  0  0
 45 43  1  0  0  0  0
M  END
>  <MODEL>
5

>  <REMARK>
 VINA RESULT:      -6.4      2.530      7.680
  Name = 
  10 active torsions:
  status: ('A' for Active; 'I' for Inactive)
    1  A    between atoms: C_1  and  C_16
    2  A    between atoms: C_2  and  O_36
    3  A    between atoms: C_3  and  C_17
    4  A    between atoms: C_8  and  C_26
    5  A    between atoms: C_10  and  C_11
    6  A    between atoms: C_12  and  C_16
    7  A    between atoms: C_12  and  N_25
    8  A    between atoms: C_12  and  C_44
    9  A    between atoms: C_18  and  O_36
   10  A    between atoms: C_19  and  C_42
                            x       y       z     vdW  Elec       q    Type
                         _______ _______ _______ _____ _____    ______ ____

>  <TORSDO>
F 10

$$$$
=
 OpenBabel11062420413D

 45 51  0  0  1  0  0  0  0  0999 V2000
  195.4870  173.6800  144.6870 C   0  0  1  0  0  3  0  0  0  0  0  0
  192.7130  175.4800  144.4030 C   0  0  2  0  0  3  0  0  0  0  0  0
  193.3240  174.4630  145.3430 C   0  0  2  0  0  3  0  0  0  0  0  0
  193.0020  176.8380  145.0080 C   0  0  0  0  0  2  0  0  0  0  0  0
  194.3470  176.6530  145.6660 C   0  0  2  0  0  3  0  0  0  0  0  0
  194.4400  175.1870  146.0600 C   0  0  2  0  0  3  0  0  0  0  0  0
  194.4600  177.5410  146.8880 C   0  0  0  0  0  1  0  0  0  0  0  0
  195.6940  174.6670  145.6780 O   0  0  0  0  0  0  0  0  0  0  0  0
  194.0100  173.3970  144.5440 C   0  0  2  0  0  3  0  0  0  0  0  0
  190.1940  175.7780  145.0480 C   0  0  1  0  0  3  0  0  0  0  0  0
  191.2400  175.2120  144.0580 C   0  0  1  0  0  3  0  0  0  0  0  0
  188.8160  178.2930  141.8460 O   0  0  0  0  0  0  0  0  0  0  0  0
  190.9770  175.5500  142.5880 C   0  0  0  0  0  2  0  0  0  0  0  0
  188.5520  176.9610  143.6800 O   0  0  0  0  0  0  0  0  0  0  0  0
  188.8120  175.7570  144.3950 C   0  0  0  0  0  2  0  0  0  0  0  0
  189.3250  177.4390  142.6130 C   0  0  0  0  0  0  0  0  0  0  0  0
  190.7530  177.0390  142.3880 C   0  0  0  0  0  2  0  0  0  0  0  0
  190.1530  174.9040  146.3140 C   0  0  2  0  0  3  0  0  0  0  0  0
  189.0360  175.2440  147.3350 C   0  0  2  0  0  3  0  0  0  0  0  0
  188.2450  176.3350  146.9430 O   0  0  0  0  0  1  0  0  0  0  0  0
  190.7940  177.1640  147.5650 C   0  0  0  0  0  1  0  0  0  0  0  0
  190.4720  175.6680  147.5930 C   0  0  2  0  0  0  0  0  0  0  0  0
  191.1200  174.8980  148.5590 O   0  0  0  0  0  1  0  0  0  0  0  0
  194.8510  171.2800  145.5420 C   0  0  0  0  0  2  0  0  0  0  0  0
  192.9580  171.1350  143.8490 C   0  0  1  0  0  3  0  0  0  0  0  0
  194.3660  169.2550  144.7440 C   0  0  0  0  0  2  0  0  0  0  0  0
  194.5670  169.9700  145.9350 O   0  0  0  0  0  0  0  0  0  0  0  0
  193.6080  171.9790  144.9770 C   0  0  2  0  0  3  0  0  0  0  0  0
  193.0180  169.6330  144.1360 C   0  0  0  0  0  2  0  0  0  0  0  0
  190.8460  171.9560  144.6370 O   0  0  0  0  0  0  0  0  0  0  0  0
  190.9050  171.3940  142.3820 N   0  0  0  0  0  1  0  0  0  0  0  0
  191.5180  171.5160  143.6660 C   0  0  0  0  0  0  0  0  0  0  0  0
  196.0240  174.1670  143.3460 C   0  0  0  0  0  2  0  0  0  0  0  0
  195.6350  173.2590  142.1690 C   0  0  1  0  0  3  0  0  0  0  0  0
  195.8690  175.1420  139.0990 C   0  0  0  0  0  2  0  0  0  0  0  0
  194.2530  174.0650  140.2040 C   0  0  0  0  0  0  0  0  0  0  0  0
  195.4490  174.0330  140.9390 N   0  0  0  0  0  0  0  0  0  0  0  0
  196.4550  174.7000  140.3140 O   0  0  0  0  0  0  0  0  0  0  0  0
  194.4340  174.7180  139.0890 C   0  0  0  0  0  3  0  0  0  0  0  0
  193.0640  173.4690  140.6290 O   0  0  0  0  0  0  0  0  0  0  0  0
  191.9480  173.4180  139.8310 C   0  0  0  0  0  0  0  0  0  0  0  0
  190.9640  173.3820  139.1270 C   0  0  0  0  0  3  0  0  0  0  0  0
  195.9630  170.7720  142.0240 C   0  0  0  0  0  2  0  0  0  0  0  0
  196.2850  171.3970  140.6890 C   0  0  0  0  0  2  0  0  0  0  0  0
  196.6390  172.1280  141.9660 C   0  0  0  0  0  3  0  0  0  0  0  0
  1 33  1  6  0  0  0
  1  8  1  0  0  0  0
  2  4  1  1  0  0  0
  2  3  1  0  0  0  0
  3  6  1  0  0  0  0
  4  5  1  0  0  0  0
  5  6  1  0  0  0  0
  5  7  1  0  0  0  0
  8  6  1  0  0  0  0
  9  1  1  0  0  0  0
  9 28  1  0  0  0  0
  9  3  1  0  0  0  0
 10 18  1  0  0  0  0
 11  2  1  0  0  0  0
 11 10  1  0  0  0  0
 12 16  2  0  0  0  0
 13 11  1  0  0  0  0
 14 15  1  0  0  0  0
 15 10  1  0  0  0  0
 16 14  1  0  0  0  0
 17 13  1  0  0  0  0
 17 16  1  0  0  0  0
 18 19  1  0  0  0  0
 18 22  1  0  0  0  0
 19 22  1  0  0  0  0
 20 19  1  0  0  0  0
 21 22  1  0  0  0  0
 22 23  1  0  0  0  0
 24 27  1  0  0  0  0
 25 29  1  0  0  0  0
 25 28  1  0  0  0  0
 26 27  1  0  0  0  0
 28 24  1  0  0  0  0
 29 26  1  0  0  0  0
 31 32  1  0  0  0  0
 32 25  1  0  0  0  0
 32 30  2  0  0  0  0
 34 33  1  0  0  0  0
 35 38  1  0  0  0  0
 36 40  1  0  0  0  0
 36 37  1  0  0  0  0
 37 34  1  0  0  0  0
 38 37  1  0  0  0  0
 39 35  1  0  0  0  0
 39 36  2  0  0  0  0
 41 40  1  0  0  0  0
 42 41  3  0  0  0  0
 44 45  1  0  0  0  0
 44 43  1  0  0  0  0
 45 43  1  0  0  0  0
 45 34  1  0  0  0  0
M  END
>  <MODEL>
6

>  <REMARK>
 VINA RESULT:      -6.3      2.083      7.495
  Name = 
  10 active torsions:
  status: ('A' for Active; 'I' for Inactive)
    1  A    between atoms: C_1  and  C_16
    2  A    between atoms: C_2  and  O_36
    3  A    between atoms: C_3  and  C_17
    4  A    between atoms: C_8  and  C_26
    5  A    between atoms: C_10  and  C_11
    6  A    between atoms: C_12  and  C_16
    7  A    between atoms: C_12  and  N_25
    8  A    between atoms: C_12  and  C_44
    9  A    between atoms: C_18  and  O_36
   10  A    between atoms: C_19  and  C_42
                            x       y       z     vdW  Elec       q    Type
                         _______ _______ _______ _____ _____    ______ ____

>  <TORSDO>
F 10

$$$$
=
 OpenBabel11062420413D

 45 51  0  0  1  0  0  0  0  0999 V2000
  189.2800  174.7420  143.0180 C   0  0  1  0  0  3  0  0  0  0  0  0
  192.3100  174.3640  141.7170 C   0  0  2  0  0  3  0  0  0  0  0  0
  191.3670  173.6340  142.6500 C   0  0  2  0  0  3  0  0  0  0  0  0
  192.1300  173.7250  140.3550 C   0  0  0  0  0  2  0  0  0  0  0  0
  190.6700  173.3490  140.3310 C   0  0  2  0  0  3  0  0  0  0  0  0
  190.2630  173.0890  141.7730 C   0  0  2  0  0  3  0  0  0  0  0  0
  190.4620  172.1080  139.4870 C   0  0  0  0  0  1  0  0  0  0  0  0
  189.0430  173.7380  142.0520 O   0  0  0  0  0  0  0  0  0  0  0  0
  190.6900  174.6240  143.5470 C   0  0  2  0  0  3  0  0  0  0  0  0
  194.6370  173.1940  141.9720 C   0  0  1  0  0  3  0  0  0  0  0  0
  193.7580  174.4430  142.2220 C   0  0  1  0  0  3  0  0  0  0  0  0
  197.0810  175.6640  139.4430 O   0  0  0  0  0  0  0  0  0  0  0  0
  194.3910  175.7670  141.7880 C   0  0  0  0  0  2  0  0  0  0  0  0
  196.7120  174.0240  140.9860 O   0  0  0  0  0  0  0  0  0  0  0  0
  196.1060  173.5550  142.1870 C   0  0  0  0  0  2  0  0  0  0  0  0
  196.2830  175.1440  140.2600 C   0  0  0  0  0  0  0  0  0  0  0  0
  194.8950  175.7040  140.3550 C   0  0  0  0  0  2  0  0  0  0  0  0
  194.2540  172.0840  142.9660 C   0  0  2  0  0  3  0  0  0  0  0  0
  195.0870  170.7800  142.8790 C   0  0  2  0  0  3  0  0  0  0  0  0
  196.0600  170.8140  141.8680 O   0  0  0  0  0  1  0  0  0  0  0  0
  193.5340  170.7500  140.7790 C   0  0  0  0  0  1  0  0  0  0  0  0
  193.6850  170.8380  142.3000 C   0  0  2  0  0  0  0  0  0  0  0  0
  192.7300  170.1750  143.0710 O   0  0  0  0  0  1  0  0  0  0  0  0
  189.3300  174.1240  145.5680 C   0  0  0  0  0  2  0  0  0  0  0  0
  191.6160  175.1900  145.8980 C   0  0  1  0  0  3  0  0  0  0  0  0
  189.7810  174.9320  147.5980 C   0  0  0  0  0  2  0  0  0  0  0  0
  189.3160  173.7910  146.9250 O   0  0  0  0  0  0  0  0  0  0  0  0
  190.7620  174.2290  145.0300 C   0  0  2  0  0  3  0  0  0  0  0  0
  191.2860  175.0780  147.3890 C   0  0  0  0  0  2  0  0  0  0  0  0
  193.5060  173.7190  145.7630 O   0  0  0  0  0  0  0  0  0  0  0  0
  193.9940  175.9760  145.4960 N   0  0  0  0  0  1  0  0  0  0  0  0
  193.0780  174.9040  145.7230 C   0  0  0  0  0  0  0  0  0  0  0  0
  189.1060  176.1210  142.3910 C   0  0  0  0  0  2  0  0  0  0  0  0
  187.9950  176.9530  143.0510 C   0  0  1  0  0  3  0  0  0  0  0  0
  189.3510  178.0460  146.2110 C   0  0  0  0  0  2  0  0  0  0  0  0
  187.3850  177.2730  145.4890 C   0  0  0  0  0  0  0  0  0  0  0  0
  188.3230  177.2670  144.4450 N   0  0  0  0  0  0  0  0  0  0  0  0
  189.5440  177.7060  144.8470 O   0  0  0  0  0  0  0  0  0  0  0  0
  187.9370  177.7270  146.5800 C   0  0  0  0  0  3  0  0  0  0  0  0
  186.0600  176.8540  145.3470 O   0  0  0  0  0  0  0  0  0  0  0  0
  185.0030  177.6220  145.7680 C   0  0  0  0  0  0  0  0  0  0  0  0
  184.0670  178.2920  146.1430 C   0  0  0  0  0  3  0  0  0  0  0  0
  186.8090  177.9160  141.0560 C   0  0  0  0  0  2  0  0  0  0  0  0
  186.1920  178.4680  142.3180 C   0  0  0  0  0  2  0  0  0  0  0  0
  187.6840  178.2180  142.2570 C   0  0  0  0  0  3  0  0  0  0  0  0
  1 33  1  6  0  0  0
  1  9  1  0  0  0  0
  2  4  1  6  0  0  0
  2 11  1  0  0  0  0
  2  3  1  0  0  0  0
  3  9  1  0  0  0  0
  5  4  1  0  0  0  0
  5  6  1  0  0  0  0
  6  8  1  0  0  0  0
  6  3  1  0  0  0  0
  7  5  1  0  0  0  0
  8  1  1  0  0  0  0
  9 28  1  0  0  0  0
 10 15  1  0  0  0  0
 10 11  1  0  0  0  0
 10 18  1  0  0  0  0
 12 16  2  0  0  0  0
 13 11  1  0  0  0  0
 14 15  1  0  0  0  0
 16 17  1  0  0  0  0
 16 14  1  0  0  0  0
 17 13  1  0  0  0  0
 19 18  1  0  0  0  0
 20 19  1  0  0  0  0
 21 22  1  0  0  0  0
 22 19  1  0  0  0  0
 22 18  1  0  0  0  0
 22 23  1  0  0  0  0
 24 27  1  0  0  0  0
 25 29  1  0  0  0  0
 27 26  1  0  0  0  0
 28 24  1  0  0  0  0
 28 25  1  0  0  0  0
 29 26  1  0  0  0  0
 31 32  1  0  0  0  0
 32 30  2  0  0  0  0
 32 25  1  0  0  0  0
 33 34  1  0  0  0  0
 34 37  1  0  0  0  0
 35 39  1  0  0  0  0
 36 39  2  0  0  0  0
 37 38  1  0  0  0  0
 37 36  1  0  0  0  0
 38 35  1  0  0  0  0
 40 36  1  0  0  0  0
 40 41  1  0  0  0  0
 41 42  3  0  0  0  0
 43 45  1  0  0  0  0
 43 44  1  0  0  0  0
 45 44  1  0  0  0  0
 45 34  1  0  0  0  0
M  END
>  <MODEL>
7

>  <REMARK>
 VINA RESULT:      -6.3      2.127      5.170
  Name = 
  10 active torsions:
  status: ('A' for Active; 'I' for Inactive)
    1  A    between atoms: C_1  and  C_16
    2  A    between atoms: C_2  and  O_36
    3  A    between atoms: C_3  and  C_17
    4  A    between atoms: C_8  and  C_26
    5  A    between atoms: C_10  and  C_11
    6  A    between atoms: C_12  and  C_16
    7  A    between atoms: C_12  and  N_25
    8  A    between atoms: C_12  and  C_44
    9  A    between atoms: C_18  and  O_36
   10  A    between atoms: C_19  and  C_42
                            x       y       z     vdW  Elec       q    Type
                         _______ _______ _______ _____ _____    ______ ____

>  <TORSDO>
F 10

$$$$
=
 OpenBabel11062420413D

 45 51  0  0  1  0  0  0  0  0999 V2000
  193.5800  174.0320  142.2980 C   0  0  1  0  0  3  0  0  0  0  0  0
  191.0090  175.8070  143.4210 C   0  0  2  0  0  3  0  0  0  0  0  0
  191.7800  174.5560  143.7840 C   0  0  2  0  0  3  0  0  0  0  0  0
  191.5790  176.9150  144.2820 C   0  0  0  0  0  2  0  0  0  0  0  0
  193.0360  176.5490  144.4110 C   0  0  2  0  0  3  0  0  0  0  0  0
  193.1160  175.0340  144.3060 C   0  0  2  0  0  3  0  0  0  0  0  0
  193.5790  177.0190  145.7450 C   0  0  0  0  0  1  0  0  0  0  0  0
  194.1520  174.6680  143.4230 O   0  0  0  0  0  0  0  0  0  0  0  0
  192.1070  173.7930  142.5360 C   0  0  2  0  0  3  0  0  0  0  0  0
  188.7870  176.1950  144.7480 C   0  0  1  0  0  3  0  0  0  0  0  0
  189.4830  175.6440  143.4800 C   0  0  1  0  0  3  0  0  0  0  0  0
  186.7780  179.0000  142.1850 O   0  0  0  0  0  0  0  0  0  0  0  0
  188.8570  176.0990  142.1590 C   0  0  0  0  0  2  0  0  0  0  0  0
  186.9250  177.5580  143.9480 O   0  0  0  0  0  0  0  0  0  0  0  0
  187.2820  176.2950  144.4990 C   0  0  0  0  0  2  0  0  0  0  0  0
  187.4120  178.0680  142.7370 C   0  0  0  0  0  0  0  0  0  0  0  0
  188.6940  177.6080  142.1070 C   0  0  0  0  0  2  0  0  0  0  0  0
  189.0270  175.2370  145.9280 C   0  0  2  0  0  3  0  0  0  0  0  0
  188.2290  175.5430  147.2220 C   0  0  2  0  0  3  0  0  0  0  0  0
  187.4200  176.6850  147.1120 O   0  0  0  0  0  1  0  0  0  0  0  0
  190.0820  177.3820  147.0990 C   0  0  0  0  0  1  0  0  0  0  0  0
  189.7020  175.8990  147.1230 C   0  0  2  0  0  0  0  0  0  0  0  0
  190.5360  175.0430  147.8410 O   0  0  0  0  0  1  0  0  0  0  0  0
  193.0210  171.4810  142.5760 C   0  0  0  0  0  2  0  0  0  0  0  0
  190.7220  171.8410  141.5490 C   0  0  1  0  0  3  0  0  0  0  0  0
  192.1680  169.7900  141.3990 C   0  0  0  0  0  2  0  0  0  0  0  0
  192.7540  170.1110  142.6330 O   0  0  0  0  0  0  0  0  0  0  0  0
  191.7300  172.3070  142.6320 C   0  0  2  0  0  3  0  0  0  0  0  0
  190.7390  170.3230  141.3510 C   0  0  0  0  0  2  0  0  0  0  0  0
  188.9220  172.1430  143.1060 O   0  0  0  0  0  0  0  0  0  0  0  0
  188.4460  172.7660  140.9180 N   0  0  0  0  0  1  0  0  0  0  0  0
  189.3250  172.2460  141.9160 C   0  0  0  0  0  0  0  0  0  0  0  0
  193.7390  174.9130  141.0640 C   0  0  0  0  0  2  0  0  0  0  0  0
  194.4560  174.2080  139.9020 C   0  0  1  0  0  3  0  0  0  0  0  0
  197.2420  172.0540  140.6870 C   0  0  0  0  0  2  0  0  0  0  0  0
  196.8550  174.2530  140.7160 C   0  0  0  0  0  0  0  0  0  0  0  0
  195.6900  173.5590  140.3540 N   0  0  0  0  0  0  0  0  0  0  0  0
  195.8730  172.2130  140.3490 O   0  0  0  0  0  0  0  0  0  0  0  0
  197.8260  173.4090  140.9330 C   0  0  0  0  0  3  0  0  0  0  0  0
  196.9330  175.6440  140.8140 O   0  0  0  0  0  0  0  0  0  0  0  0
  196.9220  176.2920  142.0240 C   0  0  0  0  0  0  0  0  0  0  0  0
  196.9140  176.8550  143.0950 C   0  0  0  0  0  3  0  0  0  0  0  0
  192.6550  173.9230  138.1730 C   0  0  0  0  0  2  0  0  0  0  0  0
  193.9050  173.2130  137.7140 C   0  0  0  0  0  2  0  0  0  0  0  0
  193.5420  173.2210  139.1830 C   0  0  0  0  0  3  0  0  0  0  0  0
  1 33  1  6  0  0  0
  1  9  1  0  0  0  0
  1  8  1  0  0  0  0
  2 11  1  0  0  0  0
  2  3  1  0  0  0  0
  2  4  1  1  0  0  0
  3  6  1  0  0  0  0
  4  5  1  0  0  0  0
  5  7  1  0  0  0  0
  6  5  1  0  0  0  0
  8  6  1  0  0  0  0
  9 28  1  0  0  0  0
  9  3  1  0  0  0  0
 10 18  1  0  0  0  0
 11 10  1  0  0  0  0
 12 16  2  0  0  0  0
 13 11  1  0  0  0  0
 14 15  1  0  0  0  0
 15 10  1  0  0  0  0
 16 14  1  0  0  0  0
 17 13  1  0  0  0  0
 17 16  1  0  0  0  0
 18 22  1  0  0  0  0
 18 19  1  0  0  0  0
 20 19  1  0  0  0  0
 21 22  1  0  0  0  0
 22 19  1  0  0  0  0
 22 23  1  0  0  0  0
 24 28  1  0  0  0  0
 24 27  1  0  0  0  0
 25 32  1  0  0  0  0
 25 28  1  0  0  0  0
 26 27  1  0  0  0  0
 29 26  1  0  0  0  0
 29 25  1  0  0  0  0
 31 32  1  0  0  0  0
 32 30  2  0  0  0  0
 34 37  1  0  0  0  0
 34 33  1  0  0  0  0
 35 39  1  0  0  0  0
 36 40  1  0  0  0  0
 36 39  2  0  0  0  0
 37 36  1  0  0  0  0
 38 37  1  0  0  0  0
 38 35  1  0  0  0  0
 40 41  1  0  0  0  0
 41 42  3  0  0  0  0
 43 45  1  0  0  0  0
 44 43  1  0  0  0  0
 44 45  1  0  0  0  0
 45 34  1  0  0  0  0
M  END
>  <MODEL>
8

>  <REMARK>
 VINA RESULT:      -6.3      2.474      8.043
  Name = 
  10 active torsions:
  status: ('A' for Active; 'I' for Inactive)
    1  A    between atoms: C_1  and  C_16
    2  A    between atoms: C_2  and  O_36
    3  A    between atoms: C_3  and  C_17
    4  A    between atoms: C_8  and  C_26
    5  A    between atoms: C_10  and  C_11
    6  A    between atoms: C_12  and  C_16
    7  A    between atoms: C_12  and  N_25
    8  A    between atoms: C_12  and  C_44
    9  A    between atoms: C_18  and  O_36
   10  A    between atoms: C_19  and  C_42
                            x       y       z     vdW  Elec       q    Type
                         _______ _______ _______ _____ _____    ______ ____

>  <TORSDO>
F 10

$$$$
=
 OpenBabel11062420413D

 45 51  0  0  1  0  0  0  0  0999 V2000
  191.6890  175.0240  143.9650 C   0  0  1  0  0  3  0  0  0  0  0  0
  188.7510  176.5300  144.3080 C   0  0  2  0  0  3  0  0  0  0  0  0
  189.4580  175.2810  144.7890 C   0  0  2  0  0  3  0  0  0  0  0  0
  188.9040  177.5520  145.4150 C   0  0  0  0  0  2  0  0  0  0  0  0
  190.2590  177.2410  145.9990 C   0  0  2  0  0  3  0  0  0  0  0  0
  190.4960  175.7550  145.7800 C   0  0  2  0  0  3  0  0  0  0  0  0
  190.2820  177.5720  147.4770 C   0  0  0  0  0  1  0  0  0  0  0  0
  191.7960  175.5460  145.2740 O   0  0  0  0  0  0  0  0  0  0  0  0
  190.2470  174.6900  143.6610 C   0  0  2  0  0  3  0  0  0  0  0  0
  186.2330  177.2390  144.4000 C   0  0  1  0  0  3  0  0  0  0  0  0
  187.3120  176.2900  143.8250 C   0  0  1  0  0  3  0  0  0  0  0  0
  185.6320  178.6660  140.3910 O   0  0  0  0  0  0  0  0  0  0  0  0
  187.2890  176.1460  142.3010 C   0  0  0  0  0  2  0  0  0  0  0  0
  184.9560  178.0410  142.4780 O   0  0  0  0  0  0  0  0  0  0  0  0
  184.9570  177.1230  143.5670 C   0  0  0  0  0  2  0  0  0  0  0  0
  185.9170  178.0720  141.4600 C   0  0  0  0  0  0  0  0  0  0  0  0
  187.2960  177.5000  141.6110 C   0  0  0  0  0  2  0  0  0  0  0  0
  185.9110  176.8380  145.8500 C   0  0  2  0  0  3  0  0  0  0  0  0
  184.6120  177.4390  146.4460 C   0  0  2  0  0  3  0  0  0  0  0  0
  183.9410  178.2910  145.5560 O   0  0  0  0  0  1  0  0  0  0  0  0
  186.3170  179.4180  146.3650 C   0  0  0  0  0  1  0  0  0  0  0  0
  185.9690  178.0020  146.8320 C   0  0  2  0  0  0  0  0  0  0  0  0
  186.3860  177.6360  148.1120 O   0  0  0  0  0  1  0  0  0  0  0  0
  191.0710  172.4160  144.2400 C   0  0  0  0  0  2  0  0  0  0  0  0
  189.9200  172.7360  141.9940 C   0  0  1  0  0  3  0  0  0  0  0  0
  191.2590  170.7530  142.7670 C   0  0  0  0  0  2  0  0  0  0  0  0
  190.9120  171.0360  144.0970 O   0  0  0  0  0  0  0  0  0  0  0  0
  189.9870  173.1870  143.4760 C   0  0  2  0  0  3  0  0  0  0  0  0
  190.1510  171.2310  141.8310 C   0  0  0  0  0  2  0  0  0  0  0  0
  187.5220  172.7770  142.0120 O   0  0  0  0  0  0  0  0  0  0  0  0
  188.5090  173.7290  140.1350 N   0  0  0  0  0  1  0  0  0  0  0  0
  188.5840  173.0680  141.3980 C   0  0  0  0  0  0  0  0  0  0  0  0
  192.1770  176.0530  142.9510 C   0  0  0  0  0  2  0  0  0  0  0  0
  193.2950  175.5260  142.0390 C   0  0  1  0  0  3  0  0  0  0  0  0
  196.4950  176.7900  143.1270 C   0  0  0  0  0  2  0  0  0  0  0  0
  195.1390  175.1210  143.7290 C   0  0  0  0  0  0  0  0  0  0  0  0
  194.6180  175.7910  142.6110 N   0  0  0  0  0  0  0  0  0  0  0  0
  195.4260  176.8010  142.1930 O   0  0  0  0  0  0  0  0  0  0  0  0
  196.2670  175.6680  144.0900 C   0  0  0  0  0  3  0  0  0  0  0  0
  194.5130  174.0350  144.3460 O   0  0  0  0  0  0  0  0  0  0  0  0
  195.2210  173.0770  145.0280 C   0  0  0  0  0  0  0  0  0  0  0  0
  195.8430  172.2260  145.6220 C   0  0  0  0  0  3  0  0  0  0  0  0
  192.7590  173.8340  140.2610 C   0  0  0  0  0  2  0  0  0  0  0  0
  194.1820  173.6380  140.7230 C   0  0  0  0  0  2  0  0  0  0  0  0
  193.1170  174.0440  141.7190 C   0  0  0  0  0  3  0  0  0  0  0  0
  1 33  1  6  0  0  0
  1  8  1  0  0  0  0
  2  3  1  0  0  0  0
  2  4  1  1  0  0  0
  3  6  1  0  0  0  0
  4  5  1  0  0  0  0
  5  7  1  0  0  0  0
  6  5  1  0  0  0  0
  8  6  1  0  0  0  0
  9  1  1  0  0  0  0
  9  3  1  0  0  0  0
 10 18  1  0  0  0  0
 11  2  1  0  0  0  0
 11 10  1  0  0  0  0
 12 16  2  0  0  0  0
 13 11  1  0  0  0  0
 14 15  1  0  0  0  0
 15 10  1  0  0  0  0
 16 17  1  0  0  0  0
 16 14  1  0  0  0  0
 17 13  1  0  0  0  0
 18 19  1  0  0  0  0
 18 22  1  0  0  0  0
 19 22  1  0  0  0  0
 20 19  1  0  0  0  0
 21 22  1  0  0  0  0
 22 23  1  0  0  0  0
 25 28  1  0  0  0  0
 26 27  1  0  0  0  0
 27 24  1  0  0  0  0
 28  9  1  0  0  0  0
 28 24  1  0  0  0  0
 29 25  1  0  0  0  0
 29 26  1  0  0  0  0
 31 32  1  0  0  0  0
 32 25  1  0  0  0  0
 32 30  2  0  0  0  0
 34 37  1  0  0  0  0
 34 33  1  0  0  0  0
 35 39  1  0  0  0  0
 36 39  2  0  0  0  0
 36 40  1  0  0  0  0
 37 36  1  0  0  0  0
 38 37  1  0  0  0  0
 38 35  1  0  0  0  0
 40 41  1  0  0  0  0
 41 42  3  0  0  0  0
 43 44  1  0  0  0  0
 43 45  1  0  0  0  0
 44 45  1  0  0  0  0
 45 34  1  0  0  0  0
M  END
>  <MODEL>
9

>  <REMARK>
 VINA RESULT:      -6.3      2.534      8.559
  Name = 
  10 active torsions:
  status: ('A' for Active; 'I' for Inactive)
    1  A    between atoms: C_1  and  C_16
    2  A    between atoms: C_2  and  O_36
    3  A    between atoms: C_3  and  C_17
    4  A    between atoms: C_8  and  C_26
    5  A    between atoms: C_10  and  C_11
    6  A    between atoms: C_12  and  C_16
    7  A    between atoms: C_12  and  N_25
    8  A    between atoms: C_12  and  C_44
    9  A    between atoms: C_18  and  O_36
   10  A    between atoms: C_19  and  C_42
                            x       y       z     vdW  Elec       q    Type
                         _______ _______ _______ _____ _____    ______ ____

>  <TORSDO>
F 10

$$$$
