=
 OpenBabel11062421143D

 33 38  0  0  1  0  0  0  0  0999 V2000
  184.9610  179.5060  143.6360 O   0  0  0  0  0  1  0  0  0  0  0  0
  187.4040  178.1290  143.8740 C   0  0  0  0  0  3  0  0  0  0  0  0
  188.8280  176.3400  144.8280 C   0  0  1  0  0  3  0  0  0  0  0  0
  186.4240  178.1660  144.9880 C   0  0  0  0  0  0  0  0  0  0  0  0
  186.7410  177.9140  146.2910 C   0  0  0  0  0  0  0  0  0  0  0  0
  193.3560  173.2730  142.8730 N   0  0  0  0  0  0  0  0  0  0  0  0
  191.3620  176.1520  146.2350 C   0  0  0  0  0  0  0  0  0  0  0  0
  193.4990  174.7000  145.2020 C   0  0  0  0  0  0  0  0  0  0  0  0
  192.2670  174.6760  144.4980 C   0  0  0  0  0  0  0  0  0  0  0  0
  190.3890  176.8830  146.7870 C   0  0  0  0  0  3  0  0  0  0  0  0
  194.5810  174.0410  144.7190 N   0  0  0  0  0  0  0  0  0  0  0  0
  185.7210  178.0860  147.3850 C   0  0  0  0  0  2  0  0  0  0  0  0
  192.5890  176.0980  146.8880 C   0  0  0  0  0  3  0  0  0  0  0  0
  188.1140  177.6690  146.7860 C   0  0  0  0  0  3  0  0  0  0  0  0
  184.3010  177.8800  146.8880 C   0  0  0  0  0  2  0  0  0  0  0  0
  194.5190  173.3410  143.5620 C   0  0  0  0  0  3  0  0  0  0  0  0
  190.0130  175.5400  144.3590 C   0  0  0  0  0  3  0  0  0  0  0  0
  191.1830  175.4470  145.0160 C   0  0  0  0  0  0  0  0  0  0  0  0
  192.2280  173.8960  143.3040 C   0  0  0  0  0  0  0  0  0  0  0  0
  189.0770  177.0090  146.1470 C   0  0  0  0  0  0  0  0  0  0  0  0
  184.9940  178.4740  144.5750 C   0  0  1  0  0  3  0  0  0  0  0  0
  184.0660  178.8290  145.7340 C   0  0  0  0  0  2  0  0  0  0  0  0
  188.4810  177.3510  143.7930 C   0  0  0  0  0  3  0  0  0  0  0  0
  193.6170  175.3920  146.3640 N   0  0  0  0  0  0  0  0  0  0  0  0
  189.9810  173.0200  142.9970 N   0  0  0  0  0  0  0  0  0  0  0  0
  189.6020  173.6180  140.8890 C   0  0  0  0  0  0  0  0  0  0  0  0
  189.0890  172.9690  141.9940 C   0  0  0  0  0  0  0  0  0  0  0  0
  191.0290  173.6980  142.5500 N   0  0  0  0  0  0  0  0  0  0  0  0
  190.8590  174.0600  141.2620 C   0  0  0  0  0  3  0  0  0  0  0  0
  187.7680  172.2910  142.0890 C   0  0  0  0  0  1  0  0  0  0  0  0
  188.1910  174.9160  139.4970 O   0  0  0  0  0  1  0  0  0  0  0  0
  188.9590  173.7520  139.5470 C   0  0  1  0  0  3  0  0  0  0  0  0
  190.0160  173.7900  138.4600 C   0  0  0  0  0  1  0  0  0  0  0  0
  2  4  1  0  0  0  0
  3 23  1  6  0  0  0
  3 20  1  0  0  0  0
  4  5  2  0  0  0  0
  5 14  1  0  0  0  0
  5 12  1  0  0  0  0
  6 19  1  0  0  0  0
  6 16  2  0  0  0  0
  7 10  2  0  0  0  0
  7 13  1  0  0  0  0
  8 24  1  0  0  0  0
  9 18  1  0  0  0  0
  9  8  1  0  0  0  0
 11  8  2  0  0  0  0
 15 12  1  0  0  0  0
 16 11  1  0  0  0  0
 17  3  1  0  0  0  0
 17 18  2  0  0  0  0
 18  7  1  0  0  0  0
 19  9  2  0  0  0  0
 20 14  2  0  0  0  0
 20 10  1  0  0  0  0
 21  1  1  6  0  0  0
 21  4  1  0  0  0  0
 21 22  1  0  0  0  0
 22 15  1  0  0  0  0
 23  2  2  0  0  0  0
 24 13  2  0  0  0  0
 26 29  2  0  0  0  0
 26 27  1  0  0  0  0
 27 30  1  0  0  0  0
 27 25  2  0  0  0  0
 28 25  1  0  0  0  0
 28 19  1  0  0  0  0
 29 28  1  0  0  0  0
 31 32  1  0  0  0  0
 32 33  1  6  0  0  0
 32 26  1  0  0  0  0
M  END
>  <MODEL>
1

>  <REMARK>
 VINA RESULT:      -8.9      0.000      0.000
  Name = 
  2 active torsions:
  status: ('A' for Active; 'I' for Inactive)
    1  A    between atoms: C_11  and  C_24
    2  A    between atoms: N_17  and  C_27
                            x       y       z     vdW  Elec       q    Type
                         _______ _______ _______ _____ _____    ______ ____

>  <TORSDO>
F 2

$$$$
=
 OpenBabel11062421143D

 33 38  0  0  1  0  0  0  0  0999 V2000
  186.2960  178.4730  142.3230 O   0  0  0  0  0  1  0  0  0  0  0  0
  188.8340  177.4430  142.9730 C   0  0  0  0  0  3  0  0  0  0  0  0
  190.3280  175.9480  144.2670 C   0  0  1  0  0  3  0  0  0  0  0  0
  187.7300  177.4650  143.9650 C   0  0  0  0  0  0  0  0  0  0  0  0
  187.9160  177.3830  145.3140 C   0  0  0  0  0  0  0  0  0  0  0  0
  195.3760  173.2980  143.1610 N   0  0  0  0  0  0  0  0  0  0  0  0
  192.6800  176.2180  145.9500 C   0  0  0  0  0  0  0  0  0  0  0  0
  195.0760  174.9520  145.3200 C   0  0  0  0  0  0  0  0  0  0  0  0
  193.9480  174.7050  144.4950 C   0  0  0  0  0  0  0  0  0  0  0  0
  191.5710  176.8710  146.3100 C   0  0  0  0  0  3  0  0  0  0  0  0
  196.2760  174.3900  145.0310 N   0  0  0  0  0  0  0  0  0  0  0  0
  186.7600  177.5320  146.2670 C   0  0  0  0  0  2  0  0  0  0  0  0
  193.8180  176.3830  146.7320 C   0  0  0  0  0  3  0  0  0  0  0  0
  189.2380  177.3630  145.9780 C   0  0  0  0  0  3  0  0  0  0  0  0
  185.4410  177.1020  145.6470 C   0  0  0  0  0  2  0  0  0  0  0  0
  196.4330  173.5780  143.9590 C   0  0  0  0  0  3  0  0  0  0  0  0
  191.6430  175.2620  144.0200 C   0  0  0  0  0  3  0  0  0  0  0  0
  192.7300  175.3810  144.8040 C   0  0  0  0  0  0  0  0  0  0  0  0
  194.1410  173.8130  143.3980 C   0  0  0  0  0  0  0  0  0  0  0  0
  190.3390  176.7690  145.5220 C   0  0  0  0  0  0  0  0  0  0  0  0
  186.3340  177.5500  143.3700 C   0  0  1  0  0  3  0  0  0  0  0  0
  185.2400  177.8970  144.3760 C   0  0  0  0  0  2  0  0  0  0  0  0
  189.9950  176.8020  143.0950 C   0  0  0  0  0  3  0  0  0  0  0  0
  194.9750  175.7630  146.4030 N   0  0  0  0  0  0  0  0  0  0  0  0
  192.8150  173.9390  141.3640 N   0  0  0  0  0  0  0  0  0  0  0  0
  191.2370  172.4390  141.8220 C   0  0  0  0  0  0  0  0  0  0  0  0
  191.6970  173.3570  140.8990 C   0  0  0  0  0  0  0  0  0  0  0  0
  193.0710  173.3950  142.5460 N   0  0  0  0  0  0  0  0  0  0  0  0
  192.1230  172.4960  142.8820 C   0  0  0  0  0  3  0  0  0  0  0  0
  191.0690  173.6910  139.5910 C   0  0  0  0  0  1  0  0  0  0  0  0
  190.2860  170.2810  142.0360 O   0  0  0  0  0  1  0  0  0  0  0  0
  189.9980  171.6100  141.7230 C   0  0  1  0  0  3  0  0  0  0  0  0
  188.9360  172.1390  142.6660 C   0  0  0  0  0  1  0  0  0  0  0  0
  2 23  2  0  0  0  0
  2  4  1  0  0  0  0
  3 23  1  6  0  0  0
  3 20  1  0  0  0  0
  4  5  2  0  0  0  0
  5 14  1  0  0  0  0
  5 12  1  0  0  0  0
  6 19  1  0  0  0  0
  6 16  2  0  0  0  0
  7 10  2  0  0  0  0
  7 13  1  0  0  0  0
  8 24  1  0  0  0  0
  9 18  1  0  0  0  0
  9  8  1  0  0  0  0
 11  8  2  0  0  0  0
 15 12  1  0  0  0  0
 16 11  1  0  0  0  0
 17  3  1  0  0  0  0
 17 18  2  0  0  0  0
 18  7  1  0  0  0  0
 19  9  2  0  0  0  0
 20 14  2  0  0  0  0
 20 10  1  0  0  0  0
 21  1  1  6  0  0  0
 21  4  1  0  0  0  0
 21 22  1  0  0  0  0
 22 15  1  0  0  0  0
 24 13  2  0  0  0  0
 25 28  1  0  0  0  0
 26 29  2  0  0  0  0
 27 25  2  0  0  0  0
 27 26  1  0  0  0  0
 28 29  1  0  0  0  0
 28 19  1  0  0  0  0
 30 27  1  0  0  0  0
 32 26  1  0  0  0  0
 32 31  1  0  0  0  0
 32 33  1  1  0  0  0
M  END
>  <MODEL>
2

>  <REMARK>
 VINA RESULT:      -8.3      1.651      2.396
  Name = 
  2 active torsions:
  status: ('A' for Active; 'I' for Inactive)
    1  A    between atoms: C_11  and  C_24
    2  A    between atoms: N_17  and  C_27
                            x       y       z     vdW  Elec       q    Type
                         _______ _______ _______ _____ _____    ______ ____

>  <TORSDO>
F 2

$$$$
=
 OpenBabel11062421143D

 33 38  0  0  1  0  0  0  0  0999 V2000
  193.1780  172.5280  144.8740 O   0  0  0  0  0  1  0  0  0  0  0  0
  190.8980  174.1510  145.1800 C   0  0  0  0  0  3  0  0  0  0  0  0
  189.7640  176.3540  145.2220 C   0  0  1  0  0  3  0  0  0  0  0  0
  192.2590  174.6650  145.4730 C   0  0  0  0  0  0  0  0  0  0  0  0
  192.5110  175.7540  146.2550 C   0  0  0  0  0  0  0  0  0  0  0  0
  184.3980  178.1870  143.9650 N   0  0  0  0  0  0  0  0  0  0  0  0
  188.1170  177.8710  147.0710 C   0  0  0  0  0  0  0  0  0  0  0  0
  185.5350  178.6680  146.4070 C   0  0  0  0  0  0  0  0  0  0  0  0
  186.3080  178.0030  145.4200 C   0  0  0  0  0  0  0  0  0  0  0  0
  189.3390  177.5090  147.4700 C   0  0  0  0  0  3  0  0  0  0  0  0
  184.2570  179.0410  146.1440 N   0  0  0  0  0  0  0  0  0  0  0  0
  193.9210  176.1480  146.6060 C   0  0  0  0  0  2  0  0  0  0  0  0
  187.3130  178.5590  147.9730 C   0  0  0  0  0  3  0  0  0  0  0  0
  191.4770  176.5080  146.9980 C   0  0  0  0  0  3  0  0  0  0  0  0
  194.9210  175.7160  145.5480 C   0  0  0  0  0  2  0  0  0  0  0  0
  183.6870  178.7980  144.9410 C   0  0  0  0  0  3  0  0  0  0  0  0
  188.3790  176.8590  144.9220 C   0  0  0  0  0  3  0  0  0  0  0  0
  187.6200  177.5680  145.7760 C   0  0  0  0  0  0  0  0  0  0  0  0
  185.6870  177.7990  144.1510 C   0  0  0  0  0  0  0  0  0  0  0  0
  190.2360  176.7590  146.5860 C   0  0  0  0  0  0  0  0  0  0  0  0
  193.3910  173.9060  144.7980 C   0  0  1  0  0  3  0  0  0  0  0  0
  194.7780  174.2240  145.3490 C   0  0  0  0  0  2  0  0  0  0  0  0
  189.7830  174.8720  145.0880 C   0  0  0  0  0  3  0  0  0  0  0  0
  186.0570  178.9310  147.6310 N   0  0  0  0  0  0  0  0  0  0  0  0
  186.3890  177.7760  141.8240 N   0  0  0  0  0  0  0  0  0  0  0  0
  187.4650  175.8310  141.7490 C   0  0  0  0  0  0  0  0  0  0  0  0
  187.0600  176.9330  141.0220 C   0  0  0  0  0  0  0  0  0  0  0  0
  186.3810  177.2350  143.0340 N   0  0  0  0  0  0  0  0  0  0  0  0
  186.9980  176.0360  143.0350 C   0  0  0  0  0  3  0  0  0  0  0  0
  187.2940  177.1730  139.5720 C   0  0  0  0  0  1  0  0  0  0  0  0
  189.5720  174.8290  141.3390 O   0  0  0  0  0  1  0  0  0  0  0  0
  188.1940  174.6330  141.2330 C   0  0  1  0  0  3  0  0  0  0  0  0
  187.7920  173.3970  142.0130 C   0  0  0  0  0  1  0  0  0  0  0  0
  2  4  1  0  0  0  0
  3 17  1  1  0  0  0
  3 20  1  0  0  0  0
  4  5  2  0  0  0  0
  5 12  1  0  0  0  0
  5 14  1  0  0  0  0
  6 19  1  0  0  0  0
  6 16  2  0  0  0  0
  7 10  2  0  0  0  0
  7 13  1  0  0  0  0
  8 24  1  0  0  0  0
  9 18  1  0  0  0  0
  9  8  1  0  0  0  0
 11  8  2  0  0  0  0
 15 12  1  0  0  0  0
 16 11  1  0  0  0  0
 17 18  2  0  0  0  0
 18  7  1  0  0  0  0
 19  9  2  0  0  0  0
 20 14  2  0  0  0  0
 20 10  1  0  0  0  0
 21  1  1  1  0  0  0
 21 22  1  0  0  0  0
 21  4  1  0  0  0  0
 22 15  1  0  0  0  0
 23  2  2  0  0  0  0
 23  3  1  0  0  0  0
 24 13  2  0  0  0  0
 25 28  1  0  0  0  0
 26 29  2  0  0  0  0
 27 26  1  0  0  0  0
 27 25  2  0  0  0  0
 28 29  1  0  0  0  0
 28 19  1  0  0  0  0
 30 27  1  0  0  0  0
 32 31  1  0  0  0  0
 32 26  1  0  0  0  0
 32 33  1  1  0  0  0
M  END
>  <MODEL>
3

>  <REMARK>
 VINA RESULT:      -8.3      3.507      6.913
  Name = 
  2 active torsions:
  status: ('A' for Active; 'I' for Inactive)
    1  A    between atoms: C_11  and  C_24
    2  A    between atoms: N_17  and  C_27
                            x       y       z     vdW  Elec       q    Type
                         _______ _______ _______ _____ _____    ______ ____

>  <TORSDO>
F 2

$$$$
=
 OpenBabel11062421143D

 33 38  0  0  1  0  0  0  0  0999 V2000
  193.6310  172.8750  140.9050 O   0  0  0  0  0  1  0  0  0  0  0  0
  191.5280  174.5970  141.6370 C   0  0  0  0  0  3  0  0  0  0  0  0
  189.1690  175.0380  142.2540 C   0  0  0  0  0  0  0  0  0  0  0  0
  191.2720  173.3220  140.9210 C   0  0  0  0  0  0  0  0  0  0  0  0
  190.1300  173.0550  140.2240 C   0  0  0  0  0  0  0  0  0  0  0  0
  186.5090  178.9790  145.5880 N   0  0  0  0  0  0  0  0  0  0  0  0
  186.9970  176.7220  141.3170 C   0  0  0  0  0  0  0  0  0  0  0  0
  185.8100  178.6220  142.9670 C   0  0  0  0  0  0  0  0  0  0  0  0
  186.8080  177.7800  143.5220 C   0  0  0  0  0  0  0  0  0  0  0  0
  187.5270  175.8460  140.4590 C   0  0  0  0  0  3  0  0  0  0  0  0
  185.2300  179.5900  143.7200 N   0  0  0  0  0  0  0  0  0  0  0  0
  189.9870  171.7880  139.4240 C   0  0  0  0  0  2  0  0  0  0  0  0
  185.9870  177.5590  140.8540 C   0  0  0  0  0  3  0  0  0  0  0  0
  189.0390  174.0290  140.0000 C   0  0  0  0  0  3  0  0  0  0  0  0
  190.8250  170.6530  139.9870 C   0  0  0  0  0  2  0  0  0  0  0  0
  185.5780  179.7770  145.0140 C   0  0  0  0  0  3  0  0  0  0  0  0
  188.4470  176.0540  143.0960 C   0  0  0  0  0  3  0  0  0  0  0  0
  187.4360  176.8280  142.6630 C   0  0  0  0  0  0  0  0  0  0  0  0
  187.1210  177.9800  144.9000 C   0  0  0  0  0  0  0  0  0  0  0  0
  188.6130  174.9480  140.8650 C   0  0  2  0  0  3  0  0  0  0  0  0
  192.3750  172.2830  141.0460 C   0  0  1  0  0  3  0  0  0  0  0  0
  192.2610  171.1230  140.0620 C   0  0  0  0  0  2  0  0  0  0  0  0
  190.6160  175.3790  142.2100 C   0  0  0  0  0  3  0  0  0  0  0  0
  185.4280  178.4810  141.6730 N   0  0  0  0  0  0  0  0  0  0  0  0
  187.6640  176.0420  146.2620 N   0  0  0  0  0  0  0  0  0  0  0  0
  189.8290  176.4010  146.6250 C   0  0  0  0  0  0  0  0  0  0  0  0
  188.7590  175.5680  146.8810 C   0  0  0  0  0  0  0  0  0  0  0  0
  188.0310  177.1390  145.6150 N   0  0  0  0  0  0  0  0  0  0  0  0
  189.3330  177.4160  145.8270 C   0  0  0  0  0  3  0  0  0  0  0  0
  188.7720  174.3410  147.7220 C   0  0  0  0  0  1  0  0  0  0  0  0
  192.1440  176.6430  146.1840 O   0  0  0  0  0  1  0  0  0  0  0  0
  191.2180  176.2690  147.1590 C   0  0  1  0  0  3  0  0  0  0  0  0
  191.3930  177.1370  148.3890 C   0  0  0  0  0  1  0  0  0  0  0  0
  2 23  1  0  0  0  0
  3 17  1  0  0  0  0
  4 21  1  0  0  0  0
  4  2  2  0  0  0  0
  5  4  1  0  0  0  0
  7 18  1  0  0  0  0
  8  9  1  0  0  0  0
  8 11  2  0  0  0  0
  9 19  2  0  0  0  0
 10 20  1  0  0  0  0
 10  7  2  0  0  0  0
 11 16  1  0  0  0  0
 12 15  1  0  0  0  0
 12  5  1  0  0  0  0
 13  7  1  0  0  0  0
 13 24  2  0  0  0  0
 14  5  2  0  0  0  0
 15 22  1  0  0  0  0
 16  6  2  0  0  0  0
 18 17  2  0  0  0  0
 18  9  1  0  0  0  0
 19  6  1  0  0  0  0
 19 28  1  0  0  0  0
 20 14  1  1  0  0  0
 20  3  1  0  0  0  0
 21  1  1  6  0  0  0
 22 21  1  0  0  0  0
 23  3  2  0  0  0  0
 24  8  1  0  0  0  0
 25 27  2  0  0  0  0
 26 27  1  0  0  0  0
 26 32  1  0  0  0  0
 27 30  1  0  0  0  0
 28 29  1  0  0  0  0
 28 25  1  0  0  0  0
 29 26  2  0  0  0  0
 31 32  1  0  0  0  0
 32 33  1  1  0  0  0
M  END
>  <MODEL>
4

>  <REMARK>
 VINA RESULT:      -8.3      3.599      8.114
  Name = 
  2 active torsions:
  status: ('A' for Active; 'I' for Inactive)
    1  A    between atoms: C_11  and  C_24
    2  A    between atoms: N_17  and  C_27
                            x       y       z     vdW  Elec       q    Type
                         _______ _______ _______ _____ _____    ______ ____

>  <TORSDO>
F 2

$$$$
=
 OpenBabel11062421143D

 33 38  0  0  1  0  0  0  0  0999 V2000
  185.5530  178.0550  147.3250 O   0  0  0  0  0  1  0  0  0  0  0  0
  187.2890  176.3990  145.8520 C   0  0  0  0  0  3  0  0  0  0  0  0
  188.7740  175.9470  143.9210 C   0  0  0  0  0  0  0  0  0  0  0  0
  186.4890  177.4620  145.1940 C   0  0  0  0  0  0  0  0  0  0  0  0
  186.2060  177.4880  143.8600 C   0  0  0  0  0  0  0  0  0  0  0  0
  193.5030  172.6740  143.1100 N   0  0  0  0  0  0  0  0  0  0  0  0
  188.9990  173.9500  141.8240 C   0  0  0  0  0  0  0  0  0  0  0  0
  191.2830  172.3890  141.5360 C   0  0  0  0  0  0  0  0  0  0  0  0
  191.2820  173.4010  142.5310 C   0  0  0  0  0  0  0  0  0  0  0  0
  187.8620  174.6480  141.9080 C   0  0  0  0  0  3  0  0  0  0  0  0
  192.3590  171.5760  141.3830 N   0  0  0  0  0  0  0  0  0  0  0  0
  185.2890  178.5320  143.2800 C   0  0  0  0  0  2  0  0  0  0  0  0
  189.0880  172.9650  140.8460 C   0  0  0  0  0  3  0  0  0  0  0  0
  186.5690  176.4160  142.9060 C   0  0  0  0  0  3  0  0  0  0  0  0
  185.2970  179.8190  144.0870 C   0  0  0  0  0  2  0  0  0  0  0  0
  193.4550  171.7060  142.1650 C   0  0  0  0  0  3  0  0  0  0  0  0
  189.9900  175.0970  143.6720 C   0  0  0  0  0  3  0  0  0  0  0  0
  190.0960  174.1780  142.6950 C   0  0  0  0  0  0  0  0  0  0  0  0
  192.4700  173.5340  143.3090 C   0  0  0  0  0  0  0  0  0  0  0  0
  187.6820  175.6860  142.9270 C   0  0  2  0  0  3  0  0  0  0  0  0
  186.0190  178.5760  146.1160 C   0  0  1  0  0  3  0  0  0  0  0  0
  184.9430  179.4770  145.5180 C   0  0  0  0  0  2  0  0  0  0  0  0
  188.2830  175.7040  145.3040 C   0  0  0  0  0  3  0  0  0  0  0  0
  190.2070  172.2120  140.7290 N   0  0  0  0  0  0  0  0  0  0  0  0
  193.6430  175.4470  144.2430 N   0  0  0  0  0  0  0  0  0  0  0  0
  192.4540  175.7830  146.0920 C   0  0  0  0  0  0  0  0  0  0  0  0
  193.5350  176.2070  145.3460 C   0  0  0  0  0  0  0  0  0  0  0  0
  192.6470  174.5730  144.2760 N   0  0  0  0  0  0  0  0  0  0  0  0
  191.9110  174.7180  145.3970 C   0  0  0  0  0  3  0  0  0  0  0  0
  194.4700  177.3140  145.6870 C   0  0  0  0  0  1  0  0  0  0  0  0
  191.0380  177.3060  147.2270 O   0  0  0  0  0  1  0  0  0  0  0  0
  192.0090  176.3210  147.4130 C   0  0  1  0  0  3  0  0  0  0  0  0
  191.4470  175.2060  148.2720 C   0  0  0  0  0  1  0  0  0  0  0  0
  3 23  2  0  0  0  0
  4  2  2  0  0  0  0
  4 21  1  0  0  0  0
  5  4  1  0  0  0  0
  6 19  1  0  0  0  0
  7 10  2  0  0  0  0
  7 18  1  0  0  0  0
  8  9  1  0  0  0  0
  9 18  1  0  0  0  0
  9 19  2  0  0  0  0
 11  8  2  0  0  0  0
 11 16  1  0  0  0  0
 12  5  1  0  0  0  0
 12 15  1  0  0  0  0
 13  7  1  0  0  0  0
 14 20  1  0  0  0  0
 14  5  2  0  0  0  0
 15 22  1  0  0  0  0
 16  6  2  0  0  0  0
 17  3  1  0  0  0  0
 18 17  2  0  0  0  0
 19 28  1  0  0  0  0
 20 10  1  6  0  0  0
 20  3  1  0  0  0  0
 21  1  1  1  0  0  0
 22 21  1  0  0  0  0
 23  2  1  0  0  0  0
 24 13  2  0  0  0  0
 24  8  1  0  0  0  0
 25 28  1  0  0  0  0
 25 27  2  0  0  0  0
 26 32  1  0  0  0  0
 27 30  1  0  0  0  0
 27 26  1  0  0  0  0
 28 29  1  0  0  0  0
 29 26  2  0  0  0  0
 31 32  1  0  0  0  0
 32 33  1  1  0  0  0
M  END
>  <MODEL>
5

>  <REMARK>
 VINA RESULT:      -8.1      2.225      4.955
  Name = 
  2 active torsions:
  status: ('A' for Active; 'I' for Inactive)
    1  A    between atoms: C_11  and  C_24
    2  A    between atoms: N_17  and  C_27
                            x       y       z     vdW  Elec       q    Type
                         _______ _______ _______ _____ _____    ______ ____

>  <TORSDO>
F 2

$$$$
=
 OpenBabel11062421143D

 33 38  0  0  1  0  0  0  0  0999 V2000
  185.8330  177.9480  147.5220 O   0  0  0  0  0  1  0  0  0  0  0  0
  187.3980  176.2000  145.9660 C   0  0  0  0  0  3  0  0  0  0  0  0
  188.8140  175.6890  143.9980 C   0  0  0  0  0  0  0  0  0  0  0  0
  186.6870  177.3520  145.3580 C   0  0  0  0  0  0  0  0  0  0  0  0
  186.3920  177.4500  144.0290 C   0  0  0  0  0  0  0  0  0  0  0  0
  193.2260  172.0460  143.0020 N   0  0  0  0  0  0  0  0  0  0  0  0
  188.8370  173.7580  141.8290 C   0  0  0  0  0  0  0  0  0  0  0  0
  190.9710  172.0140  141.4520 C   0  0  0  0  0  0  0  0  0  0  0  0
  191.0710  172.9850  142.4820 C   0  0  0  0  0  0  0  0  0  0  0  0
  187.7670  174.5490  141.9550 C   0  0  0  0  0  3  0  0  0  0  0  0
  191.9690  171.1150  141.2550 N   0  0  0  0  0  0  0  0  0  0  0  0
  185.5630  178.5910  143.5010 C   0  0  0  0  0  2  0  0  0  0  0  0
  188.8270  172.8040  140.8160 C   0  0  0  0  0  3  0  0  0  0  0  0
  186.6470  176.3860  143.0330 C   0  0  0  0  0  3  0  0  0  0  0  0
  185.6940  179.8430  144.3520 C   0  0  0  0  0  2  0  0  0  0  0  0
  193.0820  171.1210  142.0240 C   0  0  0  0  0  3  0  0  0  0  0  0
  189.9470  174.7450  143.7010 C   0  0  0  0  0  3  0  0  0  0  0  0
  189.9600  173.8560  142.6910 C   0  0  0  0  0  0  0  0  0  0  0  0
  192.2750  172.9850  143.2470 C   0  0  0  0  0  0  0  0  0  0  0  0
  187.6920  175.5610  143.0120 C   0  0  2  0  0  3  0  0  0  0  0  0
  186.3280  178.4690  146.3250 C   0  0  1  0  0  3  0  0  0  0  0  0
  185.3280  179.4820  145.7750 C   0  0  0  0  0  2  0  0  0  0  0  0
  188.3200  175.4400  145.3790 C   0  0  0  0  0  3  0  0  0  0  0  0
  189.8740  171.9600  140.6560 N   0  0  0  0  0  0  0  0  0  0  0  0
  191.9360  174.0250  145.4170 N   0  0  0  0  0  0  0  0  0  0  0  0
  193.3030  175.7700  145.2440 C   0  0  0  0  0  0  0  0  0  0  0  0
  192.3900  175.1200  146.0490 C   0  0  0  0  0  0  0  0  0  0  0  0
  192.5550  173.9700  144.2460 N   0  0  0  0  0  0  0  0  0  0  0  0
  193.3770  175.0260  144.0810 C   0  0  0  0  0  3  0  0  0  0  0  0
  191.9410  175.5460  147.4030 C   0  0  0  0  0  1  0  0  0  0  0  0
  194.3650  177.1020  146.8910 O   0  0  0  0  0  1  0  0  0  0  0  0
  194.0100  177.0530  145.5420 C   0  0  1  0  0  3  0  0  0  0  0  0
  195.2520  177.1800  144.6820 C   0  0  0  0  0  1  0  0  0  0  0  0
  3 23  2  0  0  0  0
  4  2  2  0  0  0  0
  4 21  1  0  0  0  0
  5  4  1  0  0  0  0
  6 19  1  0  0  0  0
  7 10  2  0  0  0  0
  7 18  1  0  0  0  0
  8  9  1  0  0  0  0
  9 18  1  0  0  0  0
  9 19  2  0  0  0  0
 11  8  2  0  0  0  0
 11 16  1  0  0  0  0
 12  5  1  0  0  0  0
 12 15  1  0  0  0  0
 13  7  1  0  0  0  0
 14  5  2  0  0  0  0
 15 22  1  0  0  0  0
 16  6  2  0  0  0  0
 17  3  1  0  0  0  0
 18 17  2  0  0  0  0
 19 28  1  0  0  0  0
 20 10  1  6  0  0  0
 20 14  1  0  0  0  0
 20  3  1  0  0  0  0
 21  1  1  1  0  0  0
 22 21  1  0  0  0  0
 23  2  1  0  0  0  0
 24 13  2  0  0  0  0
 24  8  1  0  0  0  0
 25 27  2  0  0  0  0
 26 32  1  0  0  0  0
 26 27  1  0  0  0  0
 27 30  1  0  0  0  0
 28 25  1  0  0  0  0
 29 28  1  0  0  0  0
 29 26  2  0  0  0  0
 32 33  1  6  0  0  0
 32 31  1  0  0  0  0
M  END
>  <MODEL>
6

>  <REMARK>
 VINA RESULT:      -7.8      2.529      4.873
  Name = 
  2 active torsions:
  status: ('A' for Active; 'I' for Inactive)
    1  A    between atoms: C_11  and  C_24
    2  A    between atoms: N_17  and  C_27
                            x       y       z     vdW  Elec       q    Type
                         _______ _______ _______ _____ _____    ______ ____

>  <TORSDO>
F 2

$$$$
=
 OpenBabel11062421143D

 33 38  0  0  1  0  0  0  0  0999 V2000
  188.6850  174.7270  147.6240 O   0  0  0  0  0  1  0  0  0  0  0  0
  189.9930  174.0510  145.2250 C   0  0  0  0  0  3  0  0  0  0  0  0
  190.9020  174.6130  142.9890 C   0  0  0  0  0  0  0  0  0  0  0  0
  189.0140  175.1650  145.2850 C   0  0  0  0  0  0  0  0  0  0  0  0
  188.3750  175.6780  144.1950 C   0  0  0  0  0  0  0  0  0  0  0  0
  195.3130  172.6250  139.7760 N   0  0  0  0  0  0  0  0  0  0  0  0
  190.5950  173.6650  140.2610 C   0  0  0  0  0  0  0  0  0  0  0  0
  192.7540  172.6810  138.8080 C   0  0  0  0  0  0  0  0  0  0  0  0
  192.9990  173.2040  140.1050 C   0  0  0  0  0  0  0  0  0  0  0  0
  189.5070  174.1070  140.8990 C   0  0  0  0  0  2  0  0  0  0  0  0
  193.7680  172.1540  138.0760 N   0  0  0  0  0  0  0  0  0  0  0  0
  187.3060  176.7280  144.3450 C   0  0  0  0  0  2  0  0  0  0  0  0
  190.4390  173.1710  138.9700 C   0  0  0  0  0  3  0  0  0  0  0  0
  188.4900  175.1350  142.8240 C   0  0  0  0  0  3  0  0  0  0  0  0
  187.5010  177.5760  145.5900 C   0  0  0  0  0  2  0  0  0  0  0  0
  195.0330  172.1150  138.5540 C   0  0  0  0  0  3  0  0  0  0  0  0
  192.0250  174.1100  142.1240 C   0  0  0  0  0  3  0  0  0  0  0  0
  191.8830  173.6790  140.8580 C   0  0  0  0  0  0  0  0  0  0  0  0
  194.3510  173.1820  140.5590 C   0  0  0  0  0  0  0  0  0  0  0  0
  189.5860  174.6190  142.2700 C   0  0  0  0  0  0  0  0  0  0  0  0
  188.7860  175.7440  146.6720 C   0  0  1  0  0  3  0  0  0  0  0  0
  187.5630  176.6490  146.7830 C   0  0  0  0  0  2  0  0  0  0  0  0
  190.8170  173.7760  144.2150 C   0  0  0  0  0  3  0  0  0  0  0  0
  191.5030  172.6900  138.2840 N   0  0  0  0  0  0  0  0  0  0  0  0
  195.1420  175.0290  141.9270 N   0  0  0  0  0  0  0  0  0  0  0  0
  195.4030  173.9980  143.8800 C   0  0  0  0  0  0  0  0  0  0  0  0
  195.5320  175.1930  143.2020 C   0  0  0  0  0  0  0  0  0  0  0  0
  194.7590  173.7660  141.7990 N   0  0  0  0  0  0  0  0  0  0  0  0
  194.9250  173.0890  142.9530 C   0  0  0  0  0  3  0  0  0  0  0  0
  196.0380  176.4770  143.7580 C   0  0  0  0  0  1  0  0  0  0  0  0
  194.9920  172.6870  145.8100 O   0  0  0  0  0  1  0  0  0  0  0  0
  195.7720  173.7270  145.3030 C   0  0  1  0  0  3  0  0  0  0  0  0
  197.2400  173.3630  145.4050 C   0  0  0  0  0  1  0  0  0  0  0  0
  2  4  1  0  0  0  0
  3 23  1  0  0  0  0
  4 21  1  0  0  0  0
  5 12  1  0  0  0  0
  5  4  2  0  0  0  0
  6 19  1  0  0  0  0
  7 18  2  0  0  0  0
  7 10  1  0  0  0  0
  8  9  1  0  0  0  0
  9 19  2  0  0  0  0
  9 18  1  0  0  0  0
 10 20  1  0  0  0  0
 11 16  1  0  0  0  0
 11  8  2  0  0  0  0
 12 15  1  0  0  0  0
 13  7  1  0  0  0  0
 14  5  1  0  0  0  0
 15 22  1  0  0  0  0
 16  6  2  0  0  0  0
 17  3  2  0  0  0  0
 18 17  1  0  0  0  0
 19 28  1  0  0  0  0
 20 14  2  0  0  0  0
 20  3  1  0  0  0  0
 21 22  1  0  0  0  0
 21  1  1  1  0  0  0
 23  2  2  0  0  0  0
 24  8  1  0  0  0  0
 24 13  2  0  0  0  0
 25 27  2  0  0  0  0
 26 32  1  0  0  0  0
 27 30  1  0  0  0  0
 27 26  1  0  0  0  0
 28 25  1  0  0  0  0
 28 29  1  0  0  0  0
 29 26  2  0  0  0  0
 32 33  1  6  0  0  0
 32 31  1  0  0  0  0
M  END
>  <MODEL>
7

>  <REMARK>
 VINA RESULT:      -7.1      3.150      6.042
  Name = 
  2 active torsions:
  status: ('A' for Active; 'I' for Inactive)
    1  A    between atoms: C_11  and  C_24
    2  A    between atoms: N_17  and  C_27
                            x       y       z     vdW  Elec       q    Type
                         _______ _______ _______ _____ _____    ______ ____

>  <TORSDO>
F 2

$$$$
=
 OpenBabel11062421143D

 33 38  0  0  1  0  0  0  0  0999 V2000
  194.9960  173.0120  141.4160 O   0  0  0  0  0  1  0  0  0  0  0  0
  192.8070  174.0960  142.8140 C   0  0  0  0  0  3  0  0  0  0  0  0
  191.4550  176.0060  143.6300 C   0  0  0  0  0  0  0  0  0  0  0  0
  194.0720  174.8540  142.6480 C   0  0  0  0  0  0  0  0  0  0  0  0
  194.4430  175.9020  143.4390 C   0  0  0  0  0  0  0  0  0  0  0  0
  185.8210  176.7910  144.8020 N   0  0  0  0  0  0  0  0  0  0  0  0
  190.4720  176.9900  146.1800 C   0  0  0  0  0  0  0  0  0  0  0  0
  187.7520  177.2900  146.6760 C   0  0  0  0  0  0  0  0  0  0  0  0
  188.1570  176.8840  145.3780 C   0  0  0  0  0  0  0  0  0  0  0  0
  191.7930  176.8570  146.0250 C   0  0  0  0  0  3  0  0  0  0  0  0
  186.4340  177.4120  146.9790 N   0  0  0  0  0  0  0  0  0  0  0  0
  195.7940  176.5480  143.2890 C   0  0  0  0  0  2  0  0  0  0  0  0
  190.0010  177.4200  147.4160 C   0  0  0  0  0  3  0  0  0  0  0  0
  193.6900  176.3620  144.6270 C   0  0  0  0  0  3  0  0  0  0  0  0
  196.3400  176.4230  141.8770 C   0  0  0  0  0  2  0  0  0  0  0  0
  185.4750  177.1580  146.0590 C   0  0  0  0  0  3  0  0  0  0  0  0
  190.0060  176.2380  143.9600 C   0  0  0  0  0  2  0  0  0  0  0  0
  189.5520  176.7010  145.1380 C   0  0  0  0  0  0  0  0  0  0  0  0
  187.1200  176.6630  144.4240 C   0  0  0  0  0  0  0  0  0  0  0  0
  192.3650  176.3850  144.7600 C   0  0  0  0  0  0  0  0  0  0  0  0
  194.9410  174.4050  141.4850 C   0  0  1  0  0  3  0  0  0  0  0  0
  196.3650  174.9550  141.5130 C   0  0  0  0  0  2  0  0  0  0  0  0
  191.6500  174.5770  143.2660 C   0  0  0  0  0  3  0  0  0  0  0  0
  188.6720  177.5520  147.6370 N   0  0  0  0  0  0  0  0  0  0  0  0
  186.9890  177.1020  142.0370 N   0  0  0  0  0  0  0  0  0  0  0  0
  187.9520  175.2640  141.2370 C   0  0  0  0  0  0  0  0  0  0  0  0
  187.3370  176.4560  140.9110 C   0  0  0  0  0  0  0  0  0  0  0  0
  187.3860  176.3500  143.0530 N   0  0  0  0  0  0  0  0  0  0  0  0
  187.9530  175.2060  142.6190 C   0  0  0  0  0  3  0  0  0  0  0  0
  187.0680  176.9690  139.5400 C   0  0  0  0  0  1  0  0  0  0  0  0
  189.8430  174.1660  140.3260 O   0  0  0  0  0  1  0  0  0  0  0  0
  188.4490  174.2220  140.2890 C   0  0  1  0  0  3  0  0  0  0  0  0
  187.8740  172.8660  140.6510 C   0  0  0  0  0  1  0  0  0  0  0  0
  2 23  1  0  0  0  0
  3 17  1  0  0  0  0
  3 20  1  0  0  0  0
  4  2  2  0  0  0  0
  4  5  1  0  0  0  0
  5 14  2  0  0  0  0
  6 16  2  0  0  0  0
  7 13  1  0  0  0  0
  8 11  2  0  0  0  0
  8 24  1  0  0  0  0
  9  8  1  0  0  0  0
 10  7  1  0  0  0  0
 12  5  1  0  0  0  0
 13 24  2  0  0  0  0
 14 20  1  0  0  0  0
 15 12  1  0  0  0  0
 16 11  1  0  0  0  0
 17 18  1  0  0  0  0
 18  9  1  0  0  0  0
 18  7  2  0  0  0  0
 19  6  1  0  0  0  0
 19  9  2  0  0  0  0
 20 10  2  0  0  0  0
 21  1  1  1  0  0  0
 21 22  1  0  0  0  0
 21  4  1  0  0  0  0
 22 15  1  0  0  0  0
 23  3  2  0  0  0  0
 25 28  1  0  0  0  0
 26 29  2  0  0  0  0
 27 26  1  0  0  0  0
 27 25  2  0  0  0  0
 28 19  1  0  0  0  0
 29 28  1  0  0  0  0
 30 27  1  0  0  0  0
 32 31  1  0  0  0  0
 32 33  1  1  0  0  0
 32 26  1  0  0  0  0
M  END
>  <MODEL>
8

>  <REMARK>
 VINA RESULT:      -7.1      3.141      6.855
  Name = 
  2 active torsions:
  status: ('A' for Active; 'I' for Inactive)
    1  A    between atoms: C_11  and  C_24
    2  A    between atoms: N_17  and  C_27
                            x       y       z     vdW  Elec       q    Type
                         _______ _______ _______ _____ _____    ______ ____

>  <TORSDO>
F 2

$$$$
=
 OpenBabel11062421143D

 33 38  0  0  1  0  0  0  0  0999 V2000
  193.3480  171.6640  137.1100 O   0  0  0  0  0  1  0  0  0  0  0  0
  192.1080  173.1280  139.1700 C   0  0  0  0  0  3  0  0  0  0  0  0
  190.6830  173.2930  141.1910 C   0  0  0  0  0  0  0  0  0  0  0  0
  191.5350  171.8520  138.6730 C   0  0  0  0  0  0  0  0  0  0  0  0
  190.2330  171.4810  138.8480 C   0  0  0  0  0  0  0  0  0  0  0  0
  190.5530  176.8330  145.7940 N   0  0  0  0  0  0  0  0  0  0  0  0
  188.3150  174.7560  142.0180 C   0  0  0  0  0  0  0  0  0  0  0  0
  188.3520  176.4720  144.2080 C   0  0  0  0  0  0  0  0  0  0  0  0
  189.5250  175.7280  143.9170 C   0  0  0  0  0  0  0  0  0  0  0  0
  188.2220  173.9660  140.9460 C   0  0  0  0  0  3  0  0  0  0  0  0
  188.3340  177.3510  145.2420 N   0  0  0  0  0  0  0  0  0  0  0  0
  189.6920  170.2270  138.2150 C   0  0  0  0  0  2  0  0  0  0  0  0
  187.1920  175.4900  142.3880 C   0  0  0  0  0  3  0  0  0  0  0  0
  189.1950  172.3360  139.4640 C   0  0  0  0  0  3  0  0  0  0  0  0
  190.7670  169.1750  138.0050 C   0  0  0  0  0  2  0  0  0  0  0  0
  189.4220  177.5400  146.0230 C   0  0  0  0  0  3  0  0  0  0  0  0
  190.6110  174.2020  142.3870 C   0  0  0  0  0  3  0  0  0  0  0  0
  189.5110  174.8730  142.7740 C   0  0  0  0  0  0  0  0  0  0  0  0
  190.6400  175.9250  144.7860 C   0  0  0  0  0  0  0  0  0  0  0  0
  189.3680  173.1810  140.4790 C   0  0  2  0  0  3  0  0  0  0  0  0
  192.5220  170.9360  137.9690 C   0  0  1  0  0  3  0  0  0  0  0  0
  191.8770  169.7960  137.1860 C   0  0  0  0  0  2  0  0  0  0  0  0
  191.7330  173.7910  140.2620 C   0  0  0  0  0  3  0  0  0  0  0  0
  187.2360  176.3240  143.4530 N   0  0  0  0  0  0  0  0  0  0  0  0
  192.0100  173.9570  145.1870 N   0  0  0  0  0  0  0  0  0  0  0  0
  193.9400  174.6270  144.3080 C   0  0  0  0  0  0  0  0  0  0  0  0
  193.2860  173.6030  144.9630 C   0  0  0  0  0  0  0  0  0  0  0  0
  191.8490  175.1690  144.6740 N   0  0  0  0  0  0  0  0  0  0  0  0
  193.0030  175.6320  144.1520 C   0  0  0  0  0  3  0  0  0  0  0  0
  193.8750  172.3040  145.3880 C   0  0  0  0  0  1  0  0  0  0  0  0
  195.5510  174.0780  142.6610 O   0  0  0  0  0  1  0  0  0  0  0  0
  195.3810  174.6660  143.9150 C   0  0  1  0  0  3  0  0  0  0  0  0
  195.8770  176.0980  143.8780 C   0  0  0  0  0  1  0  0  0  0  0  0
  2 23  1  0  0  0  0
  3 17  1  0  0  0  0
  4  5  1  0  0  0  0
  4  2  2  0  0  0  0
  5 14  2  0  0  0  0
  6 16  2  0  0  0  0
  7 13  1  0  0  0  0
  7 18  1  0  0  0  0
  8 11  2  0  0  0  0
  9  8  1  0  0  0  0
  9 19  2  0  0  0  0
 10  7  2  0  0  0  0
 11 16  1  0  0  0  0
 12  5  1  0  0  0  0
 13 24  2  0  0  0  0
 15 12  1  0  0  0  0
 17 18  2  0  0  0  0
 18  9  1  0  0  0  0
 19  6  1  0  0  0  0
 20 14  1  1  0  0  0
 20 10  1  0  0  0  0
 20  3  1  0  0  0  0
 21  1  1  6  0  0  0
 21  4  1  0  0  0  0
 22 21  1  0  0  0  0
 22 15  1  0  0  0  0
 23  3  2  0  0  0  0
 24  8  1  0  0  0  0
 26 27  1  0  0  0  0
 27 25  2  0  0  0  0
 27 30  1  0  0  0  0
 28 19  1  0  0  0  0
 28 25  1  0  0  0  0
 29 26  2  0  0  0  0
 29 28  1  0  0  0  0
 31 32  1  0  0  0  0
 32 33  1  6  0  0  0
 32 26  1  0  0  0  0
M  END
>  <MODEL>
9

>  <REMARK>
 VINA RESULT:      -7.0      3.321      7.945
  Name = 
  2 active torsions:
  status: ('A' for Active; 'I' for Inactive)
    1  A    between atoms: C_11  and  C_24
    2  A    between atoms: N_17  and  C_27
                            x       y       z     vdW  Elec       q    Type
                         _______ _______ _______ _____ _____    ______ ____

>  <TORSDO>
F 2

$$$$
