=
 OpenBabel11062421133D

 33 35  0  0  1  0  0  0  0  0999 V2000
  189.2260  174.3370  142.7380 C   0  0  2  0  0  3  0  0  0  0  0  0
  188.9500  172.8700  142.8510 C   0  0  0  0  0  0  0  0  0  0  0  0
  189.3950  172.1490  143.9540 O   0  0  0  0  0  1  0  0  0  0  0  0
  188.2930  172.2880  141.9510 O   0  0  0  0  0  0  0  0  0  0  0  0
  188.1040  175.0530  141.9900 C   0  0  0  0  0  2  0  0  0  0  0  0
  187.5090  176.2440  142.7530 C   0  0  1  0  0  3  0  0  0  0  0  0
  186.4640  178.2980  147.8580 F   0  0  0  0  0  0  0  0  0  0  0  0
  185.0970  177.0580  146.2830 C   0  0  2  0  0  3  0  0  0  0  0  0
  186.1940  177.0320  147.3610 C   0  0  1  0  0  3  0  0  0  0  0  0
  187.9160  176.2520  144.1540 N   0  0  0  0  0  2  0  0  0  0  0  0
  187.4330  176.5160  146.6380 C   0  0  0  0  0  2  0  0  0  0  0  0
  187.0150  176.5390  145.2220 C   0  0  0  0  0  0  0  0  0  0  0  0
  185.7790  176.8440  145.0250 N   0  0  0  0  0  0  0  0  0  0  0  0
  184.3080  178.3560  146.2440 C   0  0  0  0  0  1  0  0  0  0  0  0
  189.0170  177.9880  142.1580 O   0  0  0  0  0  0  0  0  0  0  0  0
  187.8350  177.5500  142.1060 C   0  0  0  0  0  0  0  0  0  0  0  0
  186.8350  178.2720  141.4500 O   0  0  0  0  0  0  0  0  0  0  0  0
  185.4630  177.9060  141.5450 C   0  0  0  0  0  1  0  0  0  0  0  0
  190.5360  174.5640  142.0020 C   0  0  0  0  0  2  0  0  0  0  0  0
  191.6060  174.8000  142.9580 N   0  0  0  0  0  2  0  0  0  0  0  0
  194.5030  175.9800  144.2100 N   0  0  0  0  0  0  0  0  0  0  0  0
  193.1510  176.2040  146.1610 N   0  0  0  0  0  0  0  0  0  0  0  0
  193.4520  176.0600  142.0400 C   0  0  0  0  0  3  0  0  0  0  0  0
  192.1050  176.1450  142.7190 C   0  0  2  0  0  3  0  0  0  0  0  0
  190.4650  177.9660  145.2190 O   0  0  0  0  0  1  0  0  0  0  0  0
  193.4330  176.4260  144.7970 C   0  0  0  0  0  0  0  0  0  0  0  0
  191.1340  176.7530  145.0610 C   0  0  1  0  0  3  0  0  0  0  0  0
  192.2560  176.9250  144.0400 C   0  0  2  0  0  3  0  0  0  0  0  0
  191.8820  176.4010  146.3220 C   0  0  0  0  0  0  0  0  0  0  0  0
  194.5710  175.9500  142.7740 C   0  0  0  0  0  3  0  0  0  0  0  0
  191.2370  176.2280  147.6260 C   0  0  0  0  0  0  0  0  0  0  0  0
  191.4170  177.1780  148.6250 O   0  0  0  0  0  1  0  0  0  0  0  0
  190.5130  175.2210  147.8490 O   0  0  0  0  0  0  0  0  0  0  0  0
  1  5  1  6  0  0  0
  1  2  1  0  0  0  0
  2  3  1  0  0  0  0
  4  2  2  0  0  0  0
  6  5  1  6  0  0  0
  6 10  1  0  0  0  0
  8 14  1  6  0  0  0
  8  9  1  0  0  0  0
  9  7  1  6  0  0  0
 10 12  1  0  0  0  0
 11  9  1  0  0  0  0
 12 11  1  0  0  0  0
 13 12  2  0  0  0  0
 13  8  1  0  0  0  0
 16 15  2  0  0  0  0
 16  6  1  0  0  0  0
 17 18  1  0  0  0  0
 17 16  1  0  0  0  0
 19  1  1  0  0  0  0
 19 20  1  0  0  0  0
 21 26  2  0  0  0  0
 22 29  2  0  0  0  0
 23 24  1  0  0  0  0
 23 30  2  0  0  0  0
 24 20  1  1  0  0  0
 24 28  1  0  0  0  0
 26 22  1  0  0  0  0
 27 25  1  1  0  0  0
 27 29  1  0  0  0  0
 28 26  1  1  0  0  0
 28 27  1  0  0  0  0
 29 31  1  0  0  0  0
 30 21  1  0  0  0  0
 31 33  2  0  0  0  0
 31 32  1  0  0  0  0
M  END
>  <MODEL>
1

>  <REMARK>
 VINA RESULT:      -6.8      0.000      0.000
  Name = 
  10 active torsions:
  status: ('A' for Active; 'I' for Inactive)
    1  A    between atoms: C_1  and  C_13
    2  A    between atoms: C_5  and  N_19
    3  A    between atoms: C_5  and  C_21
    4  A    between atoms: C_5  and  C_27
    5  A    between atoms: N_9  and  C_17
    6  A    between atoms: N_9  and  C_32
    7  A    between atoms: O_12  and  C_27
    8  A    between atoms: C_13  and  C_21
    9  A    between atoms: C_13  and  C_32
   10  A    between atoms: C_16  and  CA_31
                            x       y       z     vdW  Elec       q    Type
                         _______ _______ _______ _____ _____    ______ ____

>  <TORSDO>
F 10

$$$$
=
 OpenBabel11062421133D

 33 35  0  0  1  0  0  0  0  0999 V2000
  189.2010  174.4230  143.1110 C   0  0  2  0  0  3  0  0  0  0  0  0
  188.8130  173.0250  142.7420 C   0  0  0  0  0  0  0  0  0  0  0  0
  188.1070  172.7720  141.5710 O   0  0  0  0  0  0  0  0  0  0  0  0
  189.1460  172.0680  143.4870 O   0  0  0  0  0  1  0  0  0  0  0  0
  188.5340  175.4420  142.1910 C   0  0  0  0  0  2  0  0  0  0  0  0
  187.7150  176.5070  142.9330 C   0  0  1  0  0  3  0  0  0  0  0  0
  186.1960  178.4820  147.9480 F   0  0  0  0  0  0  0  0  0  0  0  0
  185.0170  177.1700  146.2830 C   0  0  2  0  0  3  0  0  0  0  0  0
  186.0350  177.2040  147.4360 C   0  0  1  0  0  3  0  0  0  0  0  0
  188.0210  176.5330  144.3590 N   0  0  0  0  0  2  0  0  0  0  0  0
  187.3500  176.7620  146.8020 C   0  0  0  0  0  2  0  0  0  0  0  0
  187.0320  176.7660  145.3600 C   0  0  0  0  0  0  0  0  0  0  0  0
  185.7970  177.0000  145.0770 N   0  0  0  0  0  0  0  0  0  0  0  0
  184.1600  178.4220  146.1860 C   0  0  0  0  0  1  0  0  0  0  0  0
  189.0290  178.2480  141.9790 O   0  0  0  0  0  0  0  0  0  0  0  0
  187.8810  177.8660  142.3360 C   0  0  0  0  0  0  0  0  0  0  0  0
  186.7710  178.6970  142.1750 O   0  0  0  0  0  0  0  0  0  0  0  0
  185.5550  178.2220  141.6090 C   0  0  0  0  0  1  0  0  0  0  0  0
  190.7100  174.5850  143.0180 C   0  0  0  0  0  2  0  0  0  0  0  0
  191.1970  175.3430  144.1580 N   0  0  0  0  0  2  0  0  0  0  0  0
  192.3640  176.1970  147.2020 N   0  0  0  0  0  0  0  0  0  0  0  0
  194.4450  176.0480  146.0470 N   0  0  0  0  0  0  0  0  0  0  0  0
  190.4970  174.8820  146.4240 C   0  0  0  0  0  3  0  0  0  0  0  0
  191.3400  174.4080  145.2640 C   0  0  2  0  0  3  0  0  0  0  0  0
  194.4900  173.0220  144.6180 O   0  0  0  0  0  1  0  0  0  0  0  0
  193.2010  175.5310  146.4630 C   0  0  0  0  0  0  0  0  0  0  0  0
  193.8610  174.2660  144.6120 C   0  0  1  0  0  3  0  0  0  0  0  0
  192.8090  174.3070  145.7190 C   0  0  2  0  0  3  0  0  0  0  0  0
  194.8290  175.3430  145.0330 C   0  0  0  0  0  0  0  0  0  0  0  0
  190.9990  175.7560  147.3100 C   0  0  0  0  0  3  0  0  0  0  0  0
  196.0810  175.6280  144.3280 C   0  0  0  0  0  0  0  0  0  0  0  0
  197.1810  174.7940  144.4950 O   0  0  0  0  0  1  0  0  0  0  0  0
  196.1690  176.6260  143.5650 O   0  0  0  0  0  0  0  0  0  0  0  0
  1  5  1  6  0  0  0
  2  1  1  0  0  0  0
  2  4  1  0  0  0  0
  3  2  2  0  0  0  0
  6  5  1  6  0  0  0
  6 10  1  0  0  0  0
  8 14  1  6  0  0  0
  8  9  1  0  0  0  0
  9  7  1  6  0  0  0
 10 12  1  0  0  0  0
 11  9  1  0  0  0  0
 12 11  1  0  0  0  0
 13 12  2  0  0  0  0
 13  8  1  0  0  0  0
 15 16  2  0  0  0  0
 16  6  1  0  0  0  0
 17 16  1  0  0  0  0
 18 17  1  0  0  0  0
 19  1  1  0  0  0  0
 19 20  1  0  0  0  0
 21 30  1  0  0  0  0
 22 26  1  0  0  0  0
 23 30  2  0  0  0  0
 24 20  1  6  0  0  0
 24 28  1  0  0  0  0
 24 23  1  0  0  0  0
 26 21  2  0  0  0  0
 27 25  1  1  0  0  0
 27 29  1  0  0  0  0
 27 28  1  0  0  0  0
 28 26  1  1  0  0  0
 29 22  2  0  0  0  0
 31 32  1  0  0  0  0
 31 29  1  0  0  0  0
 33 31  2  0  0  0  0
M  END
>  <MODEL>
2

>  <REMARK>
 VINA RESULT:      -6.7      2.201      3.148
  Name = 
  10 active torsions:
  status: ('A' for Active; 'I' for Inactive)
    1  A    between atoms: C_1  and  C_13
    2  A    between atoms: C_5  and  N_19
    3  A    between atoms: C_5  and  C_21
    4  A    between atoms: C_5  and  C_27
    5  A    between atoms: N_9  and  C_17
    6  A    between atoms: N_9  and  C_32
    7  A    between atoms: O_12  and  C_27
    8  A    between atoms: C_13  and  C_21
    9  A    between atoms: C_13  and  C_32
   10  A    between atoms: C_16  and  CA_31
                            x       y       z     vdW  Elec       q    Type
                         _______ _______ _______ _____ _____    ______ ____

>  <TORSDO>
F 10

$$$$
=
 OpenBabel11062421133D

 33 35  0  0  1  0  0  0  0  0999 V2000
  189.6960  174.2660  143.6500 C   0  0  2  0  0  3  0  0  0  0  0  0
  189.4180  172.8020  143.7930 C   0  0  0  0  0  0  0  0  0  0  0  0
  188.8140  172.0920  142.7610 O   0  0  0  0  0  0  0  0  0  0  0  0
  189.7520  172.2040  144.8480 O   0  0  0  0  0  1  0  0  0  0  0  0
  188.7340  174.9160  142.6590 C   0  0  0  0  0  2  0  0  0  0  0  0
  188.0420  176.1750  143.1990 C   0  0  1  0  0  3  0  0  0  0  0  0
  186.1470  178.5960  147.8790 F   0  0  0  0  0  0  0  0  0  0  0  0
  185.0910  177.1460  146.2470 C   0  0  2  0  0  3  0  0  0  0  0  0
  186.0130  177.2780  147.4710 C   0  0  1  0  0  3  0  0  0  0  0  0
  188.2320  176.3270  144.6360 N   0  0  0  0  0  2  0  0  0  0  0  0
  187.3700  176.7760  146.9870 C   0  0  0  0  0  2  0  0  0  0  0  0
  187.1690  176.6520  145.5300 C   0  0  0  0  0  0  0  0  0  0  0  0
  185.9640  176.8650  145.1270 N   0  0  0  0  0  0  0  0  0  0  0  0
  184.2580  178.3870  145.9700 C   0  0  0  0  0  1  0  0  0  0  0  0
  189.7010  177.7070  142.4440 O   0  0  0  0  0  0  0  0  0  0  0  0
  188.4750  177.4100  142.4790 C   0  0  0  0  0  0  0  0  0  0  0  0
  187.5260  178.2200  141.8510 O   0  0  0  0  0  0  0  0  0  0  0  0
  186.3080  177.6900  141.3420 C   0  0  0  0  0  1  0  0  0  0  0  0
  191.1220  174.4790  143.1690 C   0  0  0  0  0  2  0  0  0  0  0  0
  191.8090  175.4060  144.0530 N   0  0  0  0  0  2  0  0  0  0  0  0
  193.5470  176.7250  146.6210 N   0  0  0  0  0  0  0  0  0  0  0  0
  195.2390  176.8400  144.9440 N   0  0  0  0  0  0  0  0  0  0  0  0
  191.8320  175.0380  146.4410 C   0  0  0  0  0  3  0  0  0  0  0  0
  192.4160  174.6160  145.1130 C   0  0  2  0  0  3  0  0  0  0  0  0
  195.4910  173.7510  143.6800 O   0  0  0  0  0  1  0  0  0  0  0  0
  194.2720  176.1520  145.7080 C   0  0  0  0  0  0  0  0  0  0  0  0
  194.6540  174.8600  143.7980 C   0  0  1  0  0  3  0  0  0  0  0  0
  193.9440  174.8150  145.1490 C   0  0  2  0  0  3  0  0  0  0  0  0
  195.4710  176.1230  143.8930 C   0  0  0  0  0  0  0  0  0  0  0  0
  192.3710  176.0630  147.1190 C   0  0  0  0  0  3  0  0  0  0  0  0
  196.4140  176.5590  142.8590 C   0  0  0  0  0  0  0  0  0  0  0  0
  195.9550  176.8820  141.5880 O   0  0  0  0  0  0  0  0  0  0  0  0
  197.6440  176.6460  143.1160 O   0  0  0  0  0  1  0  0  0  0  0  0
  1  5  1  6  0  0  0
  1  2  1  0  0  0  0
  2  4  1  0  0  0  0
  3  2  2  0  0  0  0
  6  5  1  6  0  0  0
  6 10  1  0  0  0  0
  8 14  1  6  0  0  0
  8  9  1  0  0  0  0
  9  7  1  6  0  0  0
 10 12  1  0  0  0  0
 11  9  1  0  0  0  0
 12 11  1  0  0  0  0
 13 12  2  0  0  0  0
 13  8  1  0  0  0  0
 15 16  2  0  0  0  0
 16  6  1  0  0  0  0
 17 16  1  0  0  0  0
 18 17  1  0  0  0  0
 19  1  1  0  0  0  0
 19 20  1  0  0  0  0
 21 30  1  0  0  0  0
 22 26  1  0  0  0  0
 23 30  2  0  0  0  0
 24 20  1  6  0  0  0
 24 28  1  0  0  0  0
 24 23  1  0  0  0  0
 26 21  2  0  0  0  0
 27 25  1  1  0  0  0
 27 29  1  0  0  0  0
 27 28  1  0  0  0  0
 28 26  1  6  0  0  0
 29 22  2  0  0  0  0
 31 33  1  0  0  0  0
 31 29  1  0  0  0  0
 32 31  2  0  0  0  0
M  END
>  <MODEL>
3

>  <REMARK>
 VINA RESULT:      -6.7      2.314      3.386
  Name = 
  10 active torsions:
  status: ('A' for Active; 'I' for Inactive)
    1  A    between atoms: C_1  and  C_13
    2  A    between atoms: C_5  and  N_19
    3  A    between atoms: C_5  and  C_21
    4  A    between atoms: C_5  and  C_27
    5  A    between atoms: N_9  and  C_17
    6  A    between atoms: N_9  and  C_32
    7  A    between atoms: O_12  and  C_27
    8  A    between atoms: C_13  and  C_21
    9  A    between atoms: C_13  and  C_32
   10  A    between atoms: C_16  and  CA_31
                            x       y       z     vdW  Elec       q    Type
                         _______ _______ _______ _____ _____    ______ ____

>  <TORSDO>
F 10

$$$$
=
 OpenBabel11062421133D

 33 35  0  0  1  0  0  0  0  0999 V2000
  188.4840  176.0830  142.2700 C   0  0  2  0  0  3  0  0  0  0  0  0
  188.3710  174.8150  141.4830 C   0  0  0  0  0  0  0  0  0  0  0  0
  188.0220  173.6220  142.1100 O   0  0  0  0  0  1  0  0  0  0  0  0
  188.5710  174.8300  140.2420 O   0  0  0  0  0  0  0  0  0  0  0  0
  188.0080  177.2820  141.4540 C   0  0  0  0  0  2  0  0  0  0  0  0
  186.4850  177.4770  141.4670 C   0  0  1  0  0  3  0  0  0  0  0  0
  184.1230  179.2110  146.2400 F   0  0  0  0  0  0  0  0  0  0  0  0
  186.0290  177.7800  145.7850 C   0  0  2  0  0  3  0  0  0  0  0  0
  185.4640  179.2070  145.8880 C   0  0  1  0  0  3  0  0  0  0  0  0
  186.0900  178.6330  142.2640 N   0  0  0  0  0  2  0  0  0  0  0  0
  185.6030  179.7790  144.4820 C   0  0  0  0  0  2  0  0  0  0  0  0
  185.9770  178.5940  143.6850 C   0  0  0  0  0  0  0  0  0  0  0  0
  186.1870  177.5230  144.3690 N   0  0  0  0  0  0  0  0  0  0  0  0
  185.1390  176.7220  146.4180 C   0  0  0  0  0  1  0  0  0  0  0  0
  184.6880  177.8190  139.9440 O   0  0  0  0  0  0  0  0  0  0  0  0
  185.9160  177.5700  140.0900 C   0  0  0  0  0  0  0  0  0  0  0  0
  186.7430  177.3840  138.9790 O   0  0  0  0  0  0  0  0  0  0  0  0
  186.4720  176.3860  138.0030 C   0  0  0  0  0  1  0  0  0  0  0  0
  189.9290  176.3090  142.6850 C   0  0  0  0  0  2  0  0  0  0  0  0
  190.0020  176.5370  144.1180 N   0  0  0  0  0  2  0  0  0  0  0  0
  190.3190  176.0660  147.4400 N   0  0  0  0  0  0  0  0  0  0  0  0
  192.6250  176.3250  146.8920 N   0  0  0  0  0  0  0  0  0  0  0  0
  188.8020  175.2310  145.7590 C   0  0  0  0  0  3  0  0  0  0  0  0
  189.9380  175.2340  144.7620 C   0  0  2  0  0  3  0  0  0  0  0  0
  193.2430  174.1230  144.4480 O   0  0  0  0  0  1  0  0  0  0  0  0
  191.3580  175.7250  146.7380 C   0  0  0  0  0  0  0  0  0  0  0  0
  192.5440  175.2850  144.7730 C   0  0  1  0  0  3  0  0  0  0  0  0
  191.2530  174.9130  145.4980 C   0  0  2  0  0  3  0  0  0  0  0  0
  193.2970  176.0720  145.8160 C   0  0  0  0  0  0  0  0  0  0  0  0
  189.0060  175.6620  147.0140 C   0  0  0  0  0  3  0  0  0  0  0  0
  194.6600  176.5760  145.6240 C   0  0  0  0  0  0  0  0  0  0  0  0
  195.6910  175.6970  145.3130 O   0  0  0  0  0  0  0  0  0  0  0  0
  194.9050  177.8060  145.7360 O   0  0  0  0  0  1  0  0  0  0  0  0
  1  5  1  6  0  0  0
  1 19  1  0  0  0  0
  2  3  1  0  0  0  0
  2  1  1  0  0  0  0
  4  2  2  0  0  0  0
  6  5  1  6  0  0  0
  6 10  1  0  0  0  0
  8  9  1  0  0  0  0
  8 14  1  6  0  0  0
  9  7  1  6  0  0  0
 10 12  1  0  0  0  0
 11  9  1  0  0  0  0
 12 13  2  0  0  0  0
 12 11  1  0  0  0  0
 13  8  1  0  0  0  0
 15 16  2  0  0  0  0
 16  6  1  0  0  0  0
 17 16  1  0  0  0  0
 18 17  1  0  0  0  0
 19 20  1  0  0  0  0
 23 30  2  0  0  0  0
 24 20  1  1  0  0  0
 24 28  1  0  0  0  0
 24 23  1  0  0  0  0
 26 22  1  0  0  0  0
 26 21  2  0  0  0  0
 27 25  1  1  0  0  0
 27 28  1  0  0  0  0
 27 29  1  0  0  0  0
 28 26  1  1  0  0  0
 29 22  2  0  0  0  0
 30 21  1  0  0  0  0
 31 33  1  0  0  0  0
 31 29  1  0  0  0  0
 32 31  2  0  0  0  0
M  END
>  <MODEL>
4

>  <REMARK>
 VINA RESULT:      -6.5      2.427      3.522
  Name = 
  10 active torsions:
  status: ('A' for Active; 'I' for Inactive)
    1  A    between atoms: C_1  and  C_13
    2  A    between atoms: C_5  and  N_19
    3  A    between atoms: C_5  and  C_21
    4  A    between atoms: C_5  and  C_27
    5  A    between atoms: N_9  and  C_17
    6  A    between atoms: N_9  and  C_32
    7  A    between atoms: O_12  and  C_27
    8  A    between atoms: C_13  and  C_21
    9  A    between atoms: C_13  and  C_32
   10  A    between atoms: C_16  and  CA_31
                            x       y       z     vdW  Elec       q    Type
                         _______ _______ _______ _____ _____    ______ ____

>  <TORSDO>
F 10

$$$$
=
 OpenBabel11062421133D

 33 35  0  0  1  0  0  0  0  0999 V2000
  191.0710  174.8340  145.2360 C   0  0  2  0  0  3  0  0  0  0  0  0
  192.1720  174.6200  146.2270 C   0  0  0  0  0  0  0  0  0  0  0  0
  193.2230  173.7550  145.9420 O   0  0  0  0  0  0  0  0  0  0  0  0
  192.1580  175.2440  147.3190 O   0  0  0  0  0  1  0  0  0  0  0  0
  189.7130  174.9180  145.9290 C   0  0  0  0  0  2  0  0  0  0  0  0
  188.9410  176.2100  145.6300 C   0  0  1  0  0  3  0  0  0  0  0  0
  184.2410  179.1340  146.4780 F   0  0  0  0  0  0  0  0  0  0  0  0
  185.3090  178.3050  144.4650 C   0  0  2  0  0  3  0  0  0  0  0  0
  184.4310  178.0080  145.6920 C   0  0  1  0  0  3  0  0  0  0  0  0
  187.6500  176.2420  146.3070 N   0  0  0  0  0  2  0  0  0  0  0  0
  185.2220  176.9800  146.4920 C   0  0  0  0  0  2  0  0  0  0  0  0
  186.5320  176.9780  145.8120 C   0  0  0  0  0  0  0  0  0  0  0  0
  186.5910  177.6950  144.7430 N   0  0  0  0  0  0  0  0  0  0  0  0
  185.4800  179.7880  144.1780 C   0  0  0  0  0  1  0  0  0  0  0  0
  189.7420  177.8650  147.1420 O   0  0  0  0  0  0  0  0  0  0  0  0
  189.7360  177.4310  145.9580 C   0  0  0  0  0  0  0  0  0  0  0  0
  190.4640  178.0790  144.9570 O   0  0  0  0  0  0  0  0  0  0  0  0
  190.1730  177.8890  143.5770 C   0  0  0  0  0  1  0  0  0  0  0  0
  191.0460  173.6920  144.2330 C   0  0  0  0  0  2  0  0  0  0  0  0
  190.3900  174.1230  143.0090 N   0  0  0  0  0  2  0  0  0  0  0  0
  189.4480  173.3550  139.8660 N   0  0  0  0  0  0  0  0  0  0  0  0
  188.1880  175.3610  140.1400 N   0  0  0  0  0  0  0  0  0  0  0  0
  190.0180  172.0550  141.8170 C   0  0  0  0  0  3  0  0  0  0  0  0
  189.3880  173.1190  142.6850 C   0  0  2  0  0  3  0  0  0  0  0  0
  186.4240  174.9620  142.9560 O   0  0  0  0  0  1  0  0  0  0  0  0
  188.5920  174.0680  140.5340 C   0  0  0  0  0  0  0  0  0  0  0  0
  187.7110  175.1000  142.4380 C   0  0  1  0  0  3  0  0  0  0  0  0
  188.1990  173.7450  141.9300 C   0  0  2  0  0  3  0  0  0  0  0  0
  187.6820  175.9350  141.1830 C   0  0  0  0  0  0  0  0  0  0  0  0
  190.0590  172.2090  140.4840 C   0  0  0  0  0  3  0  0  0  0  0  0
  187.1820  177.3120  141.1370 C   0  0  0  0  0  0  0  0  0  0  0  0
  185.8280  177.5560  140.9450 O   0  0  0  0  0  0  0  0  0  0  0  0
  187.9750  178.2810  141.2740 O   0  0  0  0  0  1  0  0  0  0  0  0
  1 19  1  6  0  0  0
  1  5  1  0  0  0  0
  1  2  1  0  0  0  0
  2  4  1  0  0  0  0
  3  2  2  0  0  0  0
  6  5  1  1  0  0  0
  6 16  1  0  0  0  0
  6 10  1  0  0  0  0
  8 14  1  1  0  0  0
  8 13  1  0  0  0  0
  8  9  1  0  0  0  0
  9  7  1  1  0  0  0
  9 11  1  0  0  0  0
 12 10  1  0  0  0  0
 12 11  1  0  0  0  0
 13 12  2  0  0  0  0
 16 15  2  0  0  0  0
 17 16  1  0  0  0  0
 18 17  1  0  0  0  0
 20 19  1  0  0  0  0
 21 30  1  0  0  0  0
 21 26  2  0  0  0  0
 22 26  1  0  0  0  0
 22 29  2  0  0  0  0
 23 24  1  0  0  0  0
 24 20  1  6  0  0  0
 27 25  1  6  0  0  0
 28 26  1  6  0  0  0
 28 27  1  0  0  0  0
 28 24  1  0  0  0  0
 29 27  1  0  0  0  0
 30 23  2  0  0  0  0
 31 29  1  0  0  0  0
 31 33  1  0  0  0  0
 32 31  2  0  0  0  0
M  END
>  <MODEL>
5

>  <REMARK>
 VINA RESULT:      -6.3      2.365      5.104
  Name = 
  10 active torsions:
  status: ('A' for Active; 'I' for Inactive)
    1  A    between atoms: C_1  and  C_13
    2  A    between atoms: C_5  and  N_19
    3  A    between atoms: C_5  and  C_21
    4  A    between atoms: C_5  and  C_27
    5  A    between atoms: N_9  and  C_17
    6  A    between atoms: N_9  and  C_32
    7  A    between atoms: O_12  and  C_27
    8  A    between atoms: C_13  and  C_21
    9  A    between atoms: C_13  and  C_32
   10  A    between atoms: C_16  and  CA_31
                            x       y       z     vdW  Elec       q    Type
                         _______ _______ _______ _____ _____    ______ ____

>  <TORSDO>
F 10

$$$$
=
 OpenBabel11062421133D

 33 35  0  0  1  0  0  0  0  0999 V2000
  189.4700  177.2090  142.4840 C   0  0  2  0  0  3  0  0  0  0  0  0
  190.1260  177.8840  143.6480 C   0  0  0  0  0  0  0  0  0  0  0  0
  191.4020  178.4250  143.5260 O   0  0  0  0  0  0  0  0  0  0  0  0
  189.5110  177.9820  144.7400 O   0  0  0  0  0  1  0  0  0  0  0  0
  188.5570  178.1730  141.7310 C   0  0  0  0  0  2  0  0  0  0  0  0
  187.0660  177.8180  141.8250 C   0  0  1  0  0  3  0  0  0  0  0  0
  183.6010  178.9360  146.0800 F   0  0  0  0  0  0  0  0  0  0  0  0
  185.8160  177.9510  145.9920 C   0  0  2  0  0  3  0  0  0  0  0  0
  184.9520  179.2230  145.9650 C   0  0  1  0  0  3  0  0  0  0  0  0
  186.3030  178.8510  142.5160 N   0  0  0  0  0  2  0  0  0  0  0  0
  185.2080  179.8340  144.5910 C   0  0  0  0  0  2  0  0  0  0  0  0
  185.9570  178.7670  143.8970 C   0  0  0  0  0  0  0  0  0  0  0  0
  186.2680  177.7560  144.6310 N   0  0  0  0  0  0  0  0  0  0  0  0
  185.0760  176.7180  146.4860 C   0  0  0  0  0  1  0  0  0  0  0  0
  185.4220  178.1400  140.1340 O   0  0  0  0  0  0  0  0  0  0  0  0
  186.4680  177.5310  140.4870 C   0  0  0  0  0  0  0  0  0  0  0  0
  187.0700  176.5960  139.6410 O   0  0  0  0  0  0  0  0  0  0  0  0
  186.6530  176.4320  138.2910 C   0  0  0  0  0  1  0  0  0  0  0  0
  188.6500  176.0240  142.9670 C   0  0  0  0  0  2  0  0  0  0  0  0
  189.5120  175.0680  143.6420 N   0  0  0  0  0  2  0  0  0  0  0  0
  190.6850  171.9580  144.1940 N   0  0  0  0  0  0  0  0  0  0  0  0
  192.5200  173.1970  145.0790 N   0  0  0  0  0  0  0  0  0  0  0  0
  189.3140  172.9590  142.4800 C   0  0  0  0  0  3  0  0  0  0  0  0
  190.1140  174.2340  142.6130 C   0  0  2  0  0  3  0  0  0  0  0  0
  193.4390  175.3280  142.6670 O   0  0  0  0  0  1  0  0  0  0  0  0
  191.6000  172.8710  144.0610 C   0  0  0  0  0  0  0  0  0  0  0  0
  192.4180  175.0020  143.5600 C   0  0  1  0  0  3  0  0  0  0  0  0
  191.5710  173.8780  142.9690 C   0  0  2  0  0  3  0  0  0  0  0  0
  192.9930  174.3680  144.8010 C   0  0  0  0  0  0  0  0  0  0  0  0
  189.5870  171.9060  143.2660 C   0  0  0  0  0  3  0  0  0  0  0  0
  193.9650  175.0320  145.6740 C   0  0  0  0  0  0  0  0  0  0  0  0
  193.5360  175.9540  146.6210 O   0  0  0  0  0  1  0  0  0  0  0  0
  195.1930  174.7680  145.5760 O   0  0  0  0  0  0  0  0  0  0  0  0
  1  5  1  1  0  0  0
  1 19  1  0  0  0  0
  1  2  1  0  0  0  0
  2  4  1  0  0  0  0
  3  2  2  0  0  0  0
  6  5  1  6  0  0  0
  6 10  1  0  0  0  0
  8 14  1  6  0  0  0
  9  8  1  0  0  0  0
  9  7  1  6  0  0  0
 10 12  1  0  0  0  0
 11  9  1  0  0  0  0
 12 11  1  0  0  0  0
 12 13  2  0  0  0  0
 13  8  1  0  0  0  0
 15 16  2  0  0  0  0
 16  6  1  0  0  0  0
 17 16  1  0  0  0  0
 18 17  1  0  0  0  0
 19 20  1  0  0  0  0
 23 24  1  0  0  0  0
 23 30  2  0  0  0  0
 24 28  1  0  0  0  0
 24 20  1  1  0  0  0
 26 21  2  0  0  0  0
 26 22  1  0  0  0  0
 27 25  1  6  0  0  0
 27 29  1  0  0  0  0
 28 27  1  0  0  0  0
 28 26  1  1  0  0  0
 29 22  2  0  0  0  0
 29 31  1  0  0  0  0
 30 21  1  0  0  0  0
 31 32  1  0  0  0  0
 33 31  2  0  0  0  0
M  END
>  <MODEL>
6

>  <REMARK>
 VINA RESULT:      -6.2      2.437      3.836
  Name = 
  10 active torsions:
  status: ('A' for Active; 'I' for Inactive)
    1  A    between atoms: C_1  and  C_13
    2  A    between atoms: C_5  and  N_19
    3  A    between atoms: C_5  and  C_21
    4  A    between atoms: C_5  and  C_27
    5  A    between atoms: N_9  and  C_17
    6  A    between atoms: N_9  and  C_32
    7  A    between atoms: O_12  and  C_27
    8  A    between atoms: C_13  and  C_21
    9  A    between atoms: C_13  and  C_32
   10  A    between atoms: C_16  and  CA_31
                            x       y       z     vdW  Elec       q    Type
                         _______ _______ _______ _____ _____    ______ ____

>  <TORSDO>
F 10

$$$$
=
 OpenBabel11062421133D

 33 35  0  0  1  0  0  0  0  0999 V2000
  188.9410  175.2360  146.1790 C   0  0  2  0  0  3  0  0  0  0  0  0
  189.9090  175.9800  147.0460 C   0  0  0  0  0  0  0  0  0  0  0  0
  190.6570  175.3100  148.0080 O   0  0  0  0  0  1  0  0  0  0  0  0
  190.0630  177.2180  146.8890 O   0  0  0  0  0  0  0  0  0  0  0  0
  189.6180  174.0630  145.4760 C   0  0  0  0  0  2  0  0  0  0  0  0
  190.5830  174.4800  144.3580 C   0  0  1  0  0  3  0  0  0  0  0  0
  196.0850  175.3470  144.9450 F   0  0  0  0  0  0  0  0  0  0  0  0
  194.1690  176.0680  146.2460 C   0  0  2  0  0  3  0  0  0  0  0  0
  195.1640  174.9470  145.9010 C   0  0  1  0  0  3  0  0  0  0  0  0
  191.8910  173.8520  144.5040 N   0  0  0  0  0  2  0  0  0  0  0  0
  194.3020  173.8340  145.3150 C   0  0  0  0  0  2  0  0  0  0  0  0
  192.9910  174.4920  145.1500 C   0  0  0  0  0  0  0  0  0  0  0  0
  192.9180  175.6860  145.6260 N   0  0  0  0  0  0  0  0  0  0  0  0
  194.6020  177.4420  145.7610 C   0  0  0  0  0  1  0  0  0  0  0  0
  190.2470  175.0340  142.0670 O   0  0  0  0  0  0  0  0  0  0  0  0
  190.0220  174.2150  143.0000 C   0  0  0  0  0  0  0  0  0  0  0  0
  189.2600  173.0670  142.7720 O   0  0  0  0  0  0  0  0  0  0  0  0
  188.2130  173.0410  141.8100 C   0  0  0  0  0  1  0  0  0  0  0  0
  188.3580  176.1710  145.1310 C   0  0  0  0  0  2  0  0  0  0  0  0
  186.9960  176.5290  145.4910 N   0  0  0  0  0  2  0  0  0  0  0  0
  184.2090  178.3210  146.1040 N   0  0  0  0  0  0  0  0  0  0  0  0
  184.0960  178.2840  143.7220 N   0  0  0  0  0  0  0  0  0  0  0  0
  186.3620  178.1380  147.1780 C   0  0  0  0  0  3  0  0  0  0  0  0
  186.9990  177.9450  145.8220 C   0  0  2  0  0  3  0  0  0  0  0  0
  187.0570  179.4150  142.6450 O   0  0  0  0  0  1  0  0  0  0  0  0
  184.7540  178.5380  144.9450 C   0  0  0  0  0  0  0  0  0  0  0  0
  186.4210  178.3710  143.3150 C   0  0  1  0  0  3  0  0  0  0  0  0
  186.2130  178.7620  144.7770 C   0  0  2  0  0  3  0  0  0  0  0  0
  185.0100  178.2080  142.8100 C   0  0  0  0  0  0  0  0  0  0  0  0
  185.0310  178.2820  147.2840 C   0  0  0  0  0  3  0  0  0  0  0  0
  184.6780  177.9230  141.4110 C   0  0  0  0  0  0  0  0  0  0  0  0
  183.3730  178.0820  140.9590 O   0  0  0  0  0  1  0  0  0  0  0  0
  185.5700  177.5380  140.6110 O   0  0  0  0  0  0  0  0  0  0  0  0
  1 19  1  6  0  0  0
  1  2  1  0  0  0  0
  2  3  1  0  0  0  0
  4  2  2  0  0  0  0
  5  1  1  0  0  0  0
  6 10  1  0  0  0  0
  6  5  1  1  0  0  0
  8 14  1  6  0  0  0
  9  7  1  6  0  0  0
  9  8  1  0  0  0  0
 10 12  1  0  0  0  0
 11  9  1  0  0  0  0
 12 11  1  0  0  0  0
 12 13  2  0  0  0  0
 13  8  1  0  0  0  0
 15 16  2  0  0  0  0
 16  6  1  0  0  0  0
 17 16  1  0  0  0  0
 18 17  1  0  0  0  0
 19 20  1  0  0  0  0
 21 30  1  0  0  0  0
 22 26  1  0  0  0  0
 23 30  2  0  0  0  0
 24 20  1  6  0  0  0
 24 23  1  0  0  0  0
 26 21  2  0  0  0  0
 27 25  1  6  0  0  0
 27 28  1  0  0  0  0
 28 26  1  1  0  0  0
 28 24  1  0  0  0  0
 29 27  1  0  0  0  0
 29 22  2  0  0  0  0
 31 29  1  0  0  0  0
 32 31  1  0  0  0  0
 33 31  2  0  0  0  0
M  END
>  <MODEL>
7

>  <REMARK>
 VINA RESULT:      -6.2      2.632      7.418
  Name = 
  10 active torsions:
  status: ('A' for Active; 'I' for Inactive)
    1  A    between atoms: C_1  and  C_13
    2  A    between atoms: C_5  and  N_19
    3  A    between atoms: C_5  and  C_21
    4  A    between atoms: C_5  and  C_27
    5  A    between atoms: N_9  and  C_17
    6  A    between atoms: N_9  and  C_32
    7  A    between atoms: O_12  and  C_27
    8  A    between atoms: C_13  and  C_21
    9  A    between atoms: C_13  and  C_32
   10  A    between atoms: C_16  and  CA_31
                            x       y       z     vdW  Elec       q    Type
                         _______ _______ _______ _____ _____    ______ ____

>  <TORSDO>
F 10

$$$$
=
 OpenBabel11062421133D

 33 35  0  0  1  0  0  0  0  0999 V2000
  189.0800  176.0190  146.1540 C   0  0  2  0  0  3  0  0  0  0  0  0
  190.0630  176.5580  147.1470 C   0  0  0  0  0  0  0  0  0  0  0  0
  189.9830  177.8780  147.5780 O   0  0  0  0  0  0  0  0  0  0  0  0
  190.9570  175.8040  147.6100 O   0  0  0  0  0  1  0  0  0  0  0  0
  189.1830  176.7550  144.8210 C   0  0  0  0  0  2  0  0  0  0  0  0
  190.2390  176.1730  143.8700 C   0  0  1  0  0  3  0  0  0  0  0  0
  189.6880  172.4420  139.7300 F   0  0  0  0  0  0  0  0  0  0  0  0
  189.0700  172.3840  142.0750 C   0  0  2  0  0  3  0  0  0  0  0  0
  188.7400  172.8610  140.6510 C   0  0  1  0  0  3  0  0  0  0  0  0
  189.6950  175.9230  142.5400 N   0  0  0  0  0  2  0  0  0  0  0  0
  188.7780  174.3830  140.7350 C   0  0  0  0  0  2  0  0  0  0  0  0
  189.3530  174.6190  142.0740 C   0  0  0  0  0  0  0  0  0  0  0  0
  189.5280  173.5590  142.7850 N   0  0  0  0  0  0  0  0  0  0  0  0
  190.1250  171.2910  142.1260 C   0  0  0  0  0  1  0  0  0  0  0  0
  191.3400  178.2420  143.4530 O   0  0  0  0  0  0  0  0  0  0  0  0
  191.4580  177.0310  143.7860 C   0  0  0  0  0  0  0  0  0  0  0  0
  192.7120  176.4910  144.0780 O   0  0  0  0  0  0  0  0  0  0  0  0
  192.8560  175.1870  144.6300 C   0  0  0  0  0  1  0  0  0  0  0  0
  187.6660  176.1660  146.6930 C   0  0  0  0  0  2  0  0  0  0  0  0
  186.8130  176.7740  145.6840 N   0  0  0  0  0  2  0  0  0  0  0  0
  183.9420  178.4830  146.1170 N   0  0  0  0  0  0  0  0  0  0  0  0
  183.9460  178.3850  143.7350 N   0  0  0  0  0  0  0  0  0  0  0  0
  186.0450  178.4010  147.2970 C   0  0  0  0  0  3  0  0  0  0  0  0
  186.7530  178.1980  145.9780 C   0  0  2  0  0  3  0  0  0  0  0  0
  186.9160  179.5910  142.7710 O   0  0  0  0  0  1  0  0  0  0  0  0
  184.5350  178.6910  144.9800 C   0  0  0  0  0  0  0  0  0  0  0  0
  186.2840  178.5420  143.4370 C   0  0  1  0  0  3  0  0  0  0  0  0
  185.9920  178.9600  144.8760 C   0  0  2  0  0  3  0  0  0  0  0  0
  184.9050  178.3180  142.8690 C   0  0  0  0  0  0  0  0  0  0  0  0
  184.7070  178.5010  147.3350 C   0  0  0  0  0  3  0  0  0  0  0  0
  184.6510  177.9880  141.4640 C   0  0  0  0  0  0  0  0  0  0  0  0
  183.3920  178.2010  140.9150 O   0  0  0  0  0  1  0  0  0  0  0  0
  185.5700  177.5140  140.7450 O   0  0  0  0  0  0  0  0  0  0  0  0
  1  5  1  6  0  0  0
  1 19  1  0  0  0  0
  1  2  1  0  0  0  0
  2  3  2  0  0  0  0
  2  4  1  0  0  0  0
  6  5  1  1  0  0  0
  8 14  1  6  0  0  0
  8 13  1  0  0  0  0
  9  7  1  6  0  0  0
  9 11  1  0  0  0  0
  9  8  1  0  0  0  0
 10  6  1  0  0  0  0
 11 12  1  0  0  0  0
 12 10  1  0  0  0  0
 12 13  2  0  0  0  0
 15 16  2  0  0  0  0
 16  6  1  0  0  0  0
 16 17  1  0  0  0  0
 17 18  1  0  0  0  0
 20 19  1  0  0  0  0
 21 30  1  0  0  0  0
 22 26  1  0  0  0  0
 23 30  2  0  0  0  0
 24 20  1  6  0  0  0
 24 23  1  0  0  0  0
 26 21  2  0  0  0  0
 27 25  1  6  0  0  0
 27 28  1  0  0  0  0
 28 26  1  1  0  0  0
 28 24  1  0  0  0  0
 29 27  1  0  0  0  0
 29 22  2  0  0  0  0
 31 29  1  0  0  0  0
 32 31  1  0  0  0  0
 33 31  2  0  0  0  0
M  END
>  <MODEL>
8

>  <REMARK>
 VINA RESULT:      -6.2      3.059      7.407
  Name = 
  10 active torsions:
  status: ('A' for Active; 'I' for Inactive)
    1  A    between atoms: C_1  and  C_13
    2  A    between atoms: C_5  and  N_19
    3  A    between atoms: C_5  and  C_21
    4  A    between atoms: C_5  and  C_27
    5  A    between atoms: N_9  and  C_17
    6  A    between atoms: N_9  and  C_32
    7  A    between atoms: O_12  and  C_27
    8  A    between atoms: C_13  and  C_21
    9  A    between atoms: C_13  and  C_32
   10  A    between atoms: C_16  and  CA_31
                            x       y       z     vdW  Elec       q    Type
                         _______ _______ _______ _____ _____    ______ ____

>  <TORSDO>
F 10

$$$$
=
 OpenBabel11062421133D

 33 35  0  0  1  0  0  0  0  0999 V2000
  190.3140  176.8850  142.7640 C   0  0  2  0  0  3  0  0  0  0  0  0
  191.5770  177.5570  143.2040 C   0  0  0  0  0  0  0  0  0  0  0  0
  192.8170  177.0390  142.8450 O   0  0  0  0  0  0  0  0  0  0  0  0
  191.5170  178.6110  143.8880 O   0  0  0  0  0  1  0  0  0  0  0  0
  189.1940  177.9000  142.5530 C   0  0  0  0  0  2  0  0  0  0  0  0
  187.7890  177.2820  142.5380 C   0  0  1  0  0  3  0  0  0  0  0  0
  184.1920  178.3910  146.6850 F   0  0  0  0  0  0  0  0  0  0  0  0
  186.5900  178.0290  146.6550 C   0  0  2  0  0  3  0  0  0  0  0  0
  185.4130  178.9890  146.4140 C   0  0  1  0  0  3  0  0  0  0  0  0
  186.7810  178.2080  143.0410 N   0  0  0  0  0  2  0  0  0  0  0  0
  185.4790  179.3150  144.9260 C   0  0  0  0  0  2  0  0  0  0  0  0
  186.4840  178.3530  144.4290 C   0  0  0  0  0  0  0  0  0  0  0  0
  187.0650  177.6540  145.3410 N   0  0  0  0  0  0  0  0  0  0  0  0
  186.2170  176.7910  147.4560 C   0  0  0  0  0  1  0  0  0  0  0  0
  187.8180  175.6420  140.8130 O   0  0  0  0  0  0  0  0  0  0  0  0
  187.4090  176.7760  141.1860 C   0  0  0  0  0  0  0  0  0  0  0  0
  186.6060  177.5550  140.3500 O   0  0  0  0  0  0  0  0  0  0  0  0
  186.3170  177.1650  139.0130 C   0  0  0  0  0  1  0  0  0  0  0  0
  189.8740  175.8710  143.8070 C   0  0  0  0  0  2  0  0  0  0  0  0
  190.9090  174.8650  143.9860 N   0  0  0  0  0  2  0  0  0  0  0  0
  191.6760  176.6340  146.7500 N   0  0  0  0  0  0  0  0  0  0  0  0
  193.8820  175.9980  146.1050 N   0  0  0  0  0  0  0  0  0  0  0  0
  189.8190  175.2320  146.1110 C   0  0  0  0  0  3  0  0  0  0  0  0
  190.7750  174.3520  145.3410 C   0  0  2  0  0  3  0  0  0  0  0  0
  193.8160  172.6690  145.7640 O   0  0  0  0  0  1  0  0  0  0  0  0
  192.5390  175.7170  146.4320 C   0  0  0  0  0  0  0  0  0  0  0  0
  193.3350  173.8690  145.2410 C   0  0  1  0  0  3  0  0  0  0  0  0
  192.1360  174.3340  146.0650 C   0  0  2  0  0  3  0  0  0  0  0  0
  194.3380  174.9730  145.4620 C   0  0  0  0  0  0  0  0  0  0  0  0
  190.2710  176.3270  146.7440 C   0  0  0  0  0  3  0  0  0  0  0  0
  195.7090  174.9390  144.9430 C   0  0  0  0  0  0  0  0  0  0  0  0
  196.6870  174.2090  145.6070 O   0  0  0  0  0  1  0  0  0  0  0  0
  196.0070  175.5680  143.8940 O   0  0  0  0  0  0  0  0  0  0  0  0
  1  5  1  1  0  0  0
  1  2  1  0  0  0  0
  1 19  1  0  0  0  0
  2  4  1  0  0  0  0
  3  2  2  0  0  0  0
  6  5  1  6  0  0  0
  6 10  1  0  0  0  0
  8 14  1  6  0  0  0
  9  8  1  0  0  0  0
  9  7  1  6  0  0  0
 10 12  1  0  0  0  0
 11  9  1  0  0  0  0
 12 11  1  0  0  0  0
 12 13  2  0  0  0  0
 13  8  1  0  0  0  0
 15 16  2  0  0  0  0
 16  6  1  0  0  0  0
 17 16  1  0  0  0  0
 18 17  1  0  0  0  0
 19 20  1  0  0  0  0
 22 26  1  0  0  0  0
 23 30  2  0  0  0  0
 24 20  1  6  0  0  0
 24 28  1  0  0  0  0
 24 23  1  0  0  0  0
 26 21  2  0  0  0  0
 27 29  1  0  0  0  0
 27 25  1  1  0  0  0
 27 28  1  0  0  0  0
 28 26  1  6  0  0  0
 29 22  2  0  0  0  0
 30 21  1  0  0  0  0
 31 29  1  0  0  0  0
 31 32  1  0  0  0  0
 33 31  2  0  0  0  0
M  END
>  <MODEL>
9

>  <REMARK>
 VINA RESULT:      -6.1      2.568      3.910
  Name = 
  10 active torsions:
  status: ('A' for Active; 'I' for Inactive)
    1  A    between atoms: C_1  and  C_13
    2  A    between atoms: C_5  and  N_19
    3  A    between atoms: C_5  and  C_21
    4  A    between atoms: C_5  and  C_27
    5  A    between atoms: N_9  and  C_17
    6  A    between atoms: N_9  and  C_32
    7  A    between atoms: O_12  and  C_27
    8  A    between atoms: C_13  and  C_21
    9  A    between atoms: C_13  and  C_32
   10  A    between atoms: C_16  and  CA_31
                            x       y       z     vdW  Elec       q    Type
                         _______ _______ _______ _____ _____    ______ ____

>  <TORSDO>
F 10

$$$$
