=
 OpenBabel11062419113D

 54 59  0  0  1  0  0  0  0  0999 V2000
  184.8050  177.8830  147.0020 C   0  0  0  0  0  3  0  0  0  0  0  0
  184.1400  178.7900  146.2840 C   0  0  0  0  0  3  0  0  0  0  0  0
  187.8020  178.9700  141.8500 O   0  0  0  0  0  0  0  0  0  0  0  0
  185.1260  178.1130  144.1950 C   0  0  0  0  0  0  0  0  0  0  0  0
  187.4040  177.8340  142.0730 C   0  0  0  0  0  0  0  0  0  0  0  0
  188.3200  176.7730  142.6120 C   0  0  2  0  0  3  0  0  0  0  0  0
  185.1380  178.2380  142.7950 O   0  0  0  0  0  0  0  0  0  0  0  0
  185.9540  177.4870  141.9030 C   0  0  1  0  0  3  0  0  0  0  0  0
  188.8580  175.3340  144.5660 C   0  0  0  0  0  2  0  0  0  0  0  0
  186.6570  176.2160  144.2620 O   0  0  0  0  0  0  0  0  0  0  0  0
  190.3430  175.6680  144.4230 C   0  0  2  0  0  3  0  0  0  0  0  0
  188.0160  176.5050  144.0860 C   0  0  2  0  0  3  0  0  0  0  0  0
  190.6900  175.9930  142.9620 C   0  0  1  0  0  3  0  0  0  0  0  0
  186.1600  177.3070  144.9800 C   0  0  2  0  0  3  0  0  0  0  0  0
  185.5790  176.8070  146.3050 C   0  0  0  0  0  2  0  0  0  0  0  0
  184.2360  178.8030  144.8520 N   0  0  0  0  0  0  0  0  0  0  0  0
  189.7980  177.1240  142.4400 C   0  0  0  0  0  2  0  0  0  0  0  0
  185.4990  177.7170  140.4680 C   0  0  0  0  0  2  0  0  0  0  0  0
  184.2340  178.5580  140.4250 C   0  0  0  0  0  2  0  0  0  0  0  0
  183.1320  177.7660  140.0990 O   0  0  0  0  0  0  0  0  0  0  0  0
  182.1880  178.0530  141.0870 C   0  0  0  0  0  2  0  0  0  0  0  0
  180.8680  178.4150  140.4430 C   0  0  0  0  0  1  0  0  0  0  0  0
  192.1520  176.4150  142.8460 C   0  0  0  0  0  2  0  0  0  0  0  0
  193.0190  175.2840  142.3130 C   0  0  0  0  0  2  0  0  0  0  0  0
  194.3380  175.2270  143.0650 C   0  0  0  0  0  2  0  0  0  0  0  0
  194.4400  176.3520  143.9830 N   0  0  0  0  0  2  0  0  0  0  0  0
  194.7060  177.4130  146.2520 C   0  0  0  0  0  1  0  0  0  0  0  0
  194.6550  175.0320  145.9390 N   0  0  0  0  0  2  0  0  0  0  0  0
  194.6040  176.2030  145.3970 C   0  0  0  0  0  0  0  0  0  0  0  0
  191.1800  174.5040  144.9460 C   0  0  0  0  0  2  0  0  0  0  0  0
  190.5140  173.1590  144.6220 C   0  0  0  0  0  2  0  0  0  0  0  0
  191.0930  172.4610  143.4640 N   0  0  0  0  0  0  0  0  0  0  0  0
  190.0730  172.1420  142.4680 C   0  0  0  0  0  2  0  0  0  0  0  0
  190.9120  172.8200  140.1930 C   0  0  0  0  0  2  0  0  0  0  0  0
  190.2500  171.7400  139.3260 C   0  0  1  0  0  3  0  0  0  0  0  0
  188.5660  173.4480  140.9740 C   0  0  0  0  0  2  0  0  0  0  0  0
  188.8260  172.0190  138.9910 N   0  0  1  0  0  0  0  0  0  0  0  0
  188.3630  173.3260  139.4670 C   0  0  0  0  0  2  0  0  0  0  0  0
  190.0240  173.2080  141.3800 C   0  0  1  0  0  3  0  0  0  0  0  0
  189.8990  172.2930  138.0180 C   0  0  2  0  0  3  0  0  0  0  0  0
  189.4070  171.4410  135.7870 C   0  0  0  0  0  2  0  0  0  0  0  0
  189.9470  171.2200  136.9780 C   0  0  0  0  0  0  0  0  0  0  0  0
  190.1820  168.6010  137.6650 O   0  0  0  0  0  0  0  0  0  0  0  0
  191.4940  169.0280  137.4860 C   0  0  0  0  0  0  0  0  0  0  0  0
  193.0980  168.7230  137.4870 S   0  0  0  0  0  0  0  0  0  0  0  0
  190.4280  169.9170  137.3010 N   0  0  0  0  0  0  0  0  0  0  0  0
  191.6920  171.2080  143.9040 C   0  0  0  0  0  2  0  0  0  0  0  0
  193.1140  171.0800  143.3610 C   0  0  2  0  0  3  0  0  0  0  0  0
  192.7210  169.7430  141.2670 C   0  0  0  0  0  1  0  0  0  0  0  0
  193.3720  169.7540  142.6370 C   0  0  2  0  0  3  0  0  0  0  0  0
  192.9230  168.6670  143.3890 O   0  0  0  0  0  1  0  0  0  0  0  0
  195.3930  170.7760  144.3570 O   0  0  0  0  0  0  0  0  0  0  0  0
  194.1030  171.2830  144.4600 C   0  0  0  0  0  0  0  0  0  0  0  0
  193.7600  171.9090  145.4950 O   0  0  0  0  0  1  0  0  0  0  0  0
  2  1  2  0  0  0  0
  3  5  2  0  0  0  0
  4 16  2  0  0  0  0
  4 14  1  0  0  0  0
  5  6  1  0  0  0  0
  6 17  1  1  0  0  0
  6 12  1  0  0  0  0
  7  4  1  0  0  0  0
  8 18  1  6  0  0  0
  8  5  1  0  0  0  0
  8  7  1  0  0  0  0
 10 14  1  0  0  0  0
 11  9  1  0  0  0  0
 11 30  1  6  0  0  0
 12 10  1  0  0  0  0
 12  9  1  6  0  0  0
 13 23  1  1  0  0  0
 13 11  1  0  0  0  0
 14 15  1  1  0  0  0
 15  1  1  0  0  0  0
 16  2  1  0  0  0  0
 17 13  1  0  0  0  0
 19 18  1  0  0  0  0
 20 19  1  0  0  0  0
 20 21  1  0  0  0  0
 22 21  1  0  0  0  0
 24 23  1  0  0  0  0
 24 25  1  0  0  0  0
 25 26  1  0  0  0  0
 26 29  1  0  0  0  0
 29 28  2  0  0  0  0
 29 27  1  0  0  0  0
 31 30  1  0  0  0  0
 32 47  1  0  0  0  0
 32 31  1  0  0  0  0
 33 32  1  0  0  0  0
 34 39  1  0  0  0  0
 35 34  1  1  0  0  0
 36 39  1  0  0  0  0
 37 35  1  0  0  0  0
 37 38  1  1  0  0  0
 38 36  1  0  0  0  0
 39 33  1  1  0  0  0
 40 42  1  6  0  0  0
 40 37  1  0  0  0  0
 40 35  1  0  0  0  0
 41 42  2  0  0  0  0
 42 46  1  0  0  0  0
 44 45  2  0  0  0  0
 44 43  1  0  0  0  0
 46 44  1  0  0  0  0
 46 43  1  0  0  0  0
 48 47  1  1  0  0  0
 48 53  1  0  0  0  0
 50 49  1  6  0  0  0
 50 48  1  0  0  0  0
 50 51  1  0  0  0  0
 52 53  2  0  0  0  0
 53 54  1  0  0  0  0
M  END
>  <MODEL>
1

>  <REMARK>
 VINA RESULT:      -6.6      0.000      0.000
  Name = 
  19 active torsions:
  status: ('A' for Active; 'I' for Inactive)
    1  A    between atoms: N_1  and  C_22
    2  A    between atoms: N_1  and  C_27
    3  A    between atoms: N_1  and  C_48
    4  A    between atoms: C_3  and  O_19
    5  A    between atoms: C_8  and  C_22
    6  A    between atoms: C_8  and  C_34
    7  A    between atoms: C_9  and  C_21
    8  A    between atoms: C_9  and  C_51
    9  A    between atoms: N_10  and  C_21
   10  A    between atoms: O_19  and  C_46
   11  A    between atoms: C_23  and  C_52
   12  A    between atoms: C_27  and  C_42
   13  A    between atoms: C_29  and  C_42
   14  A    between atoms: C_31  and  C_42
   15  A    between atoms: C_36  and  N_47
   16  A    between atoms: C_36  and  C_54
   17  A    between atoms: C_39  and  C_51
   18  A    between atoms: C_43  and  C_48
   19  A    between atoms: C_46  and  C_52
                            x       y       z     vdW  Elec       q    Type
                         _______ _______ _______ _____ _____    ______ ____

>  <TORSDO>
F 19

$$$$
=
 OpenBabel11062419113D

 54 59  0  0  1  0  0  0  0  0999 V2000
  186.4070  178.0510  147.5000 C   0  0  0  0  0  3  0  0  0  0  0  0
  185.7120  178.9020  146.7440 C   0  0  0  0  0  3  0  0  0  0  0  0
  189.0660  178.5740  142.0820 O   0  0  0  0  0  0  0  0  0  0  0  0
  186.5410  178.0070  144.6700 C   0  0  0  0  0  0  0  0  0  0  0  0
  188.6650  177.4750  142.4380 C   0  0  0  0  0  0  0  0  0  0  0  0
  189.5960  176.4480  143.0150 C   0  0  2  0  0  3  0  0  0  0  0  0
  186.4600  178.0000  143.2660 O   0  0  0  0  0  0  0  0  0  0  0  0
  187.2000  177.1480  142.3980 C   0  0  1  0  0  3  0  0  0  0  0  0
  190.2400  175.1860  145.0580 C   0  0  0  0  0  2  0  0  0  0  0  0
  188.0390  176.0890  144.8170 O   0  0  0  0  0  0  0  0  0  0  0  0
  191.7180  175.4700  144.7860 C   0  0  2  0  0  3  0  0  0  0  0  0
  189.3880  176.3270  144.5250 C   0  0  2  0  0  3  0  0  0  0  0  0
  191.9700  175.6480  143.2820 C   0  0  1  0  0  3  0  0  0  0  0  0
  187.6110  177.2550  145.4580 C   0  0  2  0  0  3  0  0  0  0  0  0
  187.1130  176.8960  146.8610 C   0  0  0  0  0  2  0  0  0  0  0  0
  185.7100  178.7770  145.3140 N   0  0  0  0  0  0  0  0  0  0  0  0
  191.0650  176.7460  142.7130 C   0  0  0  0  0  2  0  0  0  0  0  0
  186.6540  177.2520  140.9810 C   0  0  0  0  0  2  0  0  0  0  0  0
  185.5950  178.3390  140.8840 C   0  0  0  0  0  2  0  0  0  0  0  0
  184.4690  177.8650  140.2080 O   0  0  0  0  0  0  0  0  0  0  0  0
  183.3910  178.2600  141.0020 C   0  0  0  0  0  2  0  0  0  0  0  0
  182.0920  177.8990  140.3150 C   0  0  0  0  0  1  0  0  0  0  0  0
  193.4280  176.0210  143.0290 C   0  0  0  0  0  2  0  0  0  0  0  0
  194.1180  175.0060  142.1310 C   0  0  0  0  0  2  0  0  0  0  0  0
  195.5820  174.8680  142.5110 C   0  0  0  0  0  2  0  0  0  0  0  0
  196.2770  174.0390  141.5370 N   0  0  0  0  0  2  0  0  0  0  0  0
  197.6840  173.6450  139.4850 C   0  0  0  0  0  1  0  0  0  0  0  0
  197.0610  175.8450  140.2190 N   0  0  0  0  0  2  0  0  0  0  0  0
  197.0010  174.5710  140.4230 C   0  0  0  0  0  0  0  0  0  0  0  0
  192.5680  174.3410  145.3630 C   0  0  0  0  0  2  0  0  0  0  0  0
  192.0510  172.9720  144.8970 C   0  0  0  0  0  2  0  0  0  0  0  0
  193.1070  172.0320  144.4910 N   0  0  0  0  0  0  0  0  0  0  0  0
  192.5690  170.6950  144.2570 C   0  0  0  0  0  2  0  0  0  0  0  0
  191.1330  170.3150  142.2240 C   0  0  0  0  0  2  0  0  0  0  0  0
  190.5600  171.7250  142.0280 C   0  0  1  0  0  3  0  0  0  0  0  0
  193.4480  171.3680  142.0250 C   0  0  0  0  0  2  0  0  0  0  0  0
  191.4790  172.6620  141.3240 N   0  0  1  0  0  0  0  0  0  0  0  0
  192.7130  172.0240  140.8590 C   0  0  0  0  0  2  0  0  0  0  0  0
  192.5650  170.3630  142.7700 C   0  0  1  0  0  3  0  0  0  0  0  0
  190.3780  171.9990  140.6030 C   0  0  2  0  0  3  0  0  0  0  0  0
  188.4420  173.2330  141.4270 C   0  0  0  0  0  2  0  0  0  0  0  0
  189.2380  172.9460  140.4050 C   0  0  0  0  0  0  0  0  0  0  0  0
  187.9590  173.8270  138.1740 O   0  0  0  0  0  0  0  0  0  0  0  0
  189.3050  173.8270  137.8220 C   0  0  0  0  0  0  0  0  0  0  0  0
  190.4830  174.0990  136.7240 S   0  0  0  0  0  0  0  0  0  0  0  0
  188.9080  173.4240  139.1020 N   0  0  0  0  0  0  0  0  0  0  0  0
  194.1010  171.9340  145.5510 C   0  0  0  0  0  2  0  0  0  0  0  0
  195.4710  171.6010  144.9640 C   0  0  2  0  0  3  0  0  0  0  0  0
  196.1450  169.2770  144.2800 C   0  0  0  0  0  1  0  0  0  0  0  0
  196.0240  170.2520  145.4350 C   0  0  2  0  0  3  0  0  0  0  0  0
  195.2330  169.7010  146.4450 O   0  0  0  0  0  1  0  0  0  0  0  0
  197.7370  172.6540  144.7750 O   0  0  0  0  0  0  0  0  0  0  0  0
  196.4360  172.7000  145.2620 C   0  0  0  0  0  0  0  0  0  0  0  0
  196.0700  173.6720  145.9700 O   0  0  0  0  0  1  0  0  0  0  0  0
  2  1  2  0  0  0  0
  3  5  2  0  0  0  0
  4 16  2  0  0  0  0
  4 14  1  0  0  0  0
  5  6  1  0  0  0  0
  6 17  1  1  0  0  0
  6 12  1  0  0  0  0
  7  4  1  0  0  0  0
  8 18  1  6  0  0  0
  8  5  1  0  0  0  0
  8  7  1  0  0  0  0
 10 14  1  0  0  0  0
 11  9  1  0  0  0  0
 11 30  1  6  0  0  0
 12 10  1  0  0  0  0
 12  9  1  6  0  0  0
 13 23  1  1  0  0  0
 13 11  1  0  0  0  0
 14 15  1  1  0  0  0
 15  1  1  0  0  0  0
 16  2  1  0  0  0  0
 17 13  1  0  0  0  0
 19 18  1  0  0  0  0
 20 19  1  0  0  0  0
 20 21  1  0  0  0  0
 22 21  1  0  0  0  0
 24 25  1  0  0  0  0
 24 23  1  0  0  0  0
 26 25  1  0  0  0  0
 27 29  1  0  0  0  0
 28 29  2  0  0  0  0
 29 26  1  0  0  0  0
 31 30  1  0  0  0  0
 32 31  1  0  0  0  0
 32 47  1  0  0  0  0
 33 32  1  0  0  0  0
 34 39  1  0  0  0  0
 35 34  1  6  0  0  0
 36 39  1  0  0  0  0
 37 38  1  6  0  0  0
 37 35  1  0  0  0  0
 38 36  1  0  0  0  0
 39 33  1  1  0  0  0
 40 42  1  1  0  0  0
 40 37  1  0  0  0  0
 40 35  1  0  0  0  0
 42 41  2  0  0  0  0
 43 46  1  0  0  0  0
 44 43  1  0  0  0  0
 44 46  1  0  0  0  0
 45 44  2  0  0  0  0
 46 42  1  0  0  0  0
 48 53  1  0  0  0  0
 48 50  1  0  0  0  0
 48 47  1  1  0  0  0
 50 49  1  6  0  0  0
 50 51  1  0  0  0  0
 52 53  2  0  0  0  0
 53 54  1  0  0  0  0
M  END
>  <MODEL>
2

>  <REMARK>
 VINA RESULT:      -6.5      2.222      3.321
  Name = 
  19 active torsions:
  status: ('A' for Active; 'I' for Inactive)
    1  A    between atoms: N_1  and  C_22
    2  A    between atoms: N_1  and  C_27
    3  A    between atoms: N_1  and  C_48
    4  A    between atoms: C_3  and  O_19
    5  A    between atoms: C_8  and  C_22
    6  A    between atoms: C_8  and  C_34
    7  A    between atoms: C_9  and  C_21
    8  A    between atoms: C_9  and  C_51
    9  A    between atoms: N_10  and  C_21
   10  A    between atoms: O_19  and  C_46
   11  A    between atoms: C_23  and  C_52
   12  A    between atoms: C_27  and  C_42
   13  A    between atoms: C_29  and  C_42
   14  A    between atoms: C_31  and  C_42
   15  A    between atoms: C_36  and  N_47
   16  A    between atoms: C_36  and  C_54
   17  A    between atoms: C_39  and  C_51
   18  A    between atoms: C_43  and  C_48
   19  A    between atoms: C_46  and  C_52
                            x       y       z     vdW  Elec       q    Type
                         _______ _______ _______ _____ _____    ______ ____

>  <TORSDO>
F 19

$$$$
=
 OpenBabel11062419113D

 54 59  0  0  1  0  0  0  0  0999 V2000
  186.2450  177.9240  147.5700 C   0  0  0  0  0  3  0  0  0  0  0  0
  185.6020  178.8670  146.8790 C   0  0  0  0  0  3  0  0  0  0  0  0
  188.9360  178.6740  142.1930 O   0  0  0  0  0  0  0  0  0  0  0  0
  186.3790  178.0750  144.7430 C   0  0  0  0  0  0  0  0  0  0  0  0
  188.4700  177.5780  142.4720 C   0  0  0  0  0  0  0  0  0  0  0  0
  189.3370  176.4590  142.9710 C   0  0  2  0  0  3  0  0  0  0  0  0
  186.2990  178.1720  143.3430 O   0  0  0  0  0  0  0  0  0  0  0  0
  186.9880  177.3420  142.4140 C   0  0  1  0  0  3  0  0  0  0  0  0
  189.9040  175.0190  144.9170 C   0  0  0  0  0  2  0  0  0  0  0  0
  187.7610  176.0650  144.7480 O   0  0  0  0  0  0  0  0  0  0  0  0
  191.3960  175.2340  144.6620 C   0  0  2  0  0  3  0  0  0  0  0  0
  189.1210  176.2430  144.4690 C   0  0  2  0  0  3  0  0  0  0  0  0
  191.6600  175.5030  143.1720 C   0  0  1  0  0  3  0  0  0  0  0  0
  187.4020  177.2060  145.4720 C   0  0  2  0  0  3  0  0  0  0  0  0
  186.8820  176.7780  146.8470 C   0  0  0  0  0  2  0  0  0  0  0  0
  185.5950  178.8440  145.4430 N   0  0  0  0  0  0  0  0  0  0  0  0
  190.8220  176.6900  142.6860 C   0  0  0  0  0  2  0  0  0  0  0  0
  186.4500  177.5790  141.0100 C   0  0  0  0  0  2  0  0  0  0  0  0
  185.1580  178.3790  141.0490 C   0  0  0  0  0  2  0  0  0  0  0  0
  184.3010  177.9730  140.0250 O   0  0  0  0  0  0  0  0  0  0  0  0
  183.0190  178.1930  140.5310 C   0  0  0  0  0  2  0  0  0  0  0  0
  183.0750  178.2840  142.0410 C   0  0  0  0  0  1  0  0  0  0  0  0
  193.1380  175.8060  142.9420 C   0  0  0  0  0  2  0  0  0  0  0  0
  193.5200  175.6460  141.4790 C   0  0  0  0  0  2  0  0  0  0  0  0
  194.9960  175.9450  141.2800 C   0  0  0  0  0  2  0  0  0  0  0  0
  195.7350  175.6530  142.5000 N   0  0  0  0  0  2  0  0  0  0  0  0
  197.7520  174.8950  143.8050 C   0  0  0  0  0  1  0  0  0  0  0  0
  197.7070  174.9290  141.4040 N   0  0  0  0  0  2  0  0  0  0  0  0
  197.0780  175.1580  142.5080 C   0  0  0  0  0  0  0  0  0  0  0  0
  192.1770  174.0180  145.1530 C   0  0  0  0  0  2  0  0  0  0  0  0
  191.3970  172.7220  144.8910 C   0  0  0  0  0  2  0  0  0  0  0  0
  191.7940  172.0120  143.6660 N   0  0  0  0  0  0  0  0  0  0  0  0
  190.6390  171.7130  142.8240 C   0  0  0  0  0  2  0  0  0  0  0  0
  191.3250  172.8230  140.6700 C   0  0  0  0  0  2  0  0  0  0  0  0
  190.9390  171.7300  139.6650 C   0  0  1  0  0  3  0  0  0  0  0  0
  188.8890  172.8070  141.4270 C   0  0  0  0  0  2  0  0  0  0  0  0
  189.4930  171.7140  139.3100 N   0  0  1  0  0  0  0  0  0  0  0  0
  188.7370  172.8180  139.9090 C   0  0  0  0  0  2  0  0  0  0  0  0
  190.3580  172.8580  141.8590 C   0  0  1  0  0  3  0  0  0  0  0  0
  190.4850  172.3360  138.4140 C   0  0  2  0  0  3  0  0  0  0  0  0
  189.9220  170.4840  136.9310 C   0  0  0  0  0  2  0  0  0  0  0  0
  190.7900  171.4300  137.2640 C   0  0  0  0  0  0  0  0  0  0  0  0
  193.3530  170.9810  136.4770 O   0  0  0  0  0  0  0  0  0  0  0  0
  192.9310  172.0440  135.6850 C   0  0  0  0  0  0  0  0  0  0  0  0
  193.2260  173.1480  134.5180 S   0  0  0  0  0  0  0  0  0  0  0  0
  192.0640  171.4730  136.6240 N   0  0  0  0  0  0  0  0  0  0  0  0
  192.4260  170.7490  144.0210 C   0  0  0  0  0  2  0  0  0  0  0  0
  193.8350  170.6770  143.4360 C   0  0  2  0  0  3  0  0  0  0  0  0
  195.3000  171.8750  141.7800 C   0  0  0  0  0  1  0  0  0  0  0  0
  194.3700  172.0340  142.9690 C   0  0  2  0  0  3  0  0  0  0  0  0
  195.0250  172.7070  144.0010 O   0  0  0  0  0  1  0  0  0  0  0  0
  194.9140  168.7570  142.2400 O   0  0  0  0  0  1  0  0  0  0  0  0
  193.8780  169.6800  142.3250 C   0  0  0  0  0  0  0  0  0  0  0  0
  192.9740  169.6860  141.4520 O   0  0  0  0  0  0  0  0  0  0  0  0
  2  1  2  0  0  0  0
  3  5  2  0  0  0  0
  4 16  2  0  0  0  0
  4 14  1  0  0  0  0
  5  6  1  0  0  0  0
  6 17  1  1  0  0  0
  6 12  1  0  0  0  0
  7  4  1  0  0  0  0
  8 18  1  6  0  0  0
  8  5  1  0  0  0  0
  8  7  1  0  0  0  0
 10 14  1  0  0  0  0
 11  9  1  0  0  0  0
 11 30  1  6  0  0  0
 12 10  1  0  0  0  0
 12  9  1  6  0  0  0
 13 23  1  1  0  0  0
 13 11  1  0  0  0  0
 14 15  1  1  0  0  0
 15  1  1  0  0  0  0
 16  2  1  0  0  0  0
 17 13  1  0  0  0  0
 18 19  1  0  0  0  0
 20 21  1  0  0  0  0
 20 19  1  0  0  0  0
 21 22  1  0  0  0  0
 24 23  1  0  0  0  0
 25 24  1  0  0  0  0
 25 26  1  0  0  0  0
 26 29  1  0  0  0  0
 28 29  2  0  0  0  0
 29 27  1  0  0  0  0
 31 30  1  0  0  0  0
 32 47  1  0  0  0  0
 32 31  1  0  0  0  0
 33 32  1  0  0  0  0
 34 39  1  0  0  0  0
 35 34  1  1  0  0  0
 36 39  1  0  0  0  0
 37 35  1  0  0  0  0
 37 38  1  1  0  0  0
 38 36  1  0  0  0  0
 39 33  1  1  0  0  0
 40 42  1  6  0  0  0
 40 37  1  0  0  0  0
 40 35  1  0  0  0  0
 41 42  2  0  0  0  0
 43 46  1  0  0  0  0
 44 43  1  0  0  0  0
 44 46  1  0  0  0  0
 45 44  2  0  0  0  0
 46 42  1  0  0  0  0
 48 47  1  6  0  0  0
 50 49  1  6  0  0  0
 50 48  1  0  0  0  0
 50 51  1  0  0  0  0
 52 53  1  0  0  0  0
 53 48  1  0  0  0  0
 54 53  2  0  0  0  0
M  END
>  <MODEL>
3

>  <REMARK>
 VINA RESULT:      -5.9      1.802      2.248
  Name = 
  19 active torsions:
  status: ('A' for Active; 'I' for Inactive)
    1  A    between atoms: N_1  and  C_22
    2  A    between atoms: N_1  and  C_27
    3  A    between atoms: N_1  and  C_48
    4  A    between atoms: C_3  and  O_19
    5  A    between atoms: C_8  and  C_22
    6  A    between atoms: C_8  and  C_34
    7  A    between atoms: C_9  and  C_21
    8  A    between atoms: C_9  and  C_51
    9  A    between atoms: N_10  and  C_21
   10  A    between atoms: O_19  and  C_46
   11  A    between atoms: C_23  and  C_52
   12  A    between atoms: C_27  and  C_42
   13  A    between atoms: C_29  and  C_42
   14  A    between atoms: C_31  and  C_42
   15  A    between atoms: C_36  and  N_47
   16  A    between atoms: C_36  and  C_54
   17  A    between atoms: C_39  and  C_51
   18  A    between atoms: C_43  and  C_48
   19  A    between atoms: C_46  and  C_52
                            x       y       z     vdW  Elec       q    Type
                         _______ _______ _______ _____ _____    ______ ____

>  <TORSDO>
F 19

$$$$
=
 OpenBabel11062419113D

 54 59  0  0  1  0  0  0  0  0999 V2000
  186.4630  178.2680  147.3750 C   0  0  0  0  0  3  0  0  0  0  0  0
  185.9510  179.4080  146.9100 C   0  0  0  0  0  3  0  0  0  0  0  0
  186.9530  178.3860  141.3370 O   0  0  0  0  0  0  0  0  0  0  0  0
  185.5360  178.5260  144.7100 C   0  0  0  0  0  0  0  0  0  0  0  0
  186.3000  177.4930  141.8590 C   0  0  0  0  0  0  0  0  0  0  0  0
  186.8740  176.1230  142.0750 C   0  0  2  0  0  3  0  0  0  0  0  0
  184.9590  178.7240  143.4430 O   0  0  0  0  0  0  0  0  0  0  0  0
  184.9220  177.7660  142.3900 C   0  0  1  0  0  3  0  0  0  0  0  0
  187.6420  174.4680  143.7650 C   0  0  0  0  0  2  0  0  0  0  0  0
  186.0720  176.1750  144.3450 O   0  0  0  0  0  0  0  0  0  0  0  0
  188.9000  174.1890  142.9420 C   0  0  2  0  0  3  0  0  0  0  0  0
  187.1950  175.9060  143.5550 C   0  0  2  0  0  3  0  0  0  0  0  0
  188.6410  174.4390  141.4490 C   0  0  1  0  0  3  0  0  0  0  0  0
  186.4150  177.3260  145.0580 C   0  0  2  0  0  3  0  0  0  0  0  0
  186.3580  177.0180  146.5570 C   0  0  0  0  0  2  0  0  0  0  0  0
  185.3830  179.4710  145.5930 N   0  0  0  0  0  0  0  0  0  0  0  0
  188.1200  175.8630  141.2280 C   0  0  0  0  0  2  0  0  0  0  0  0
  183.9940  178.2490  141.2840 C   0  0  0  0  0  2  0  0  0  0  0  0
  182.5430  177.9370  141.6160 C   0  0  0  0  0  2  0  0  0  0  0  0
  181.8280  179.1170  141.8290 O   0  0  0  0  0  0  0  0  0  0  0  0
  180.4910  178.7530  141.6560 C   0  0  0  0  0  2  0  0  0  0  0  0
  180.2460  178.3770  140.2110 C   0  0  0  0  0  1  0  0  0  0  0  0
  189.9260  174.2470  140.6490 C   0  0  0  0  0  2  0  0  0  0  0  0
  189.6340  173.8950  139.1980 C   0  0  0  0  0  2  0  0  0  0  0  0
  190.1490  172.5030  138.8740 C   0  0  0  0  0  2  0  0  0  0  0  0
  190.1660  171.6840  140.0770 N   0  0  0  0  0  2  0  0  0  0  0  0
  190.8870  169.7130  141.4690 C   0  0  0  0  0  1  0  0  0  0  0  0
  191.6460  170.0460  139.2150 N   0  0  0  0  0  2  0  0  0  0  0  0
  190.9290  170.4790  140.1980 C   0  0  0  0  0  0  0  0  0  0  0  0
  189.3650  172.7570  143.1930 C   0  0  0  0  0  2  0  0  0  0  0  0
  190.2750  172.6820  144.4260 C   0  0  0  0  0  2  0  0  0  0  0  0
  191.5190  173.4600  144.3100 N   0  0  0  0  0  0  0  0  0  0  0  0
  192.6930  172.5920  144.3200 C   0  0  0  0  0  2  0  0  0  0  0  0
  193.0660  173.3430  141.9450 C   0  0  0  0  0  2  0  0  0  0  0  0
  194.3280  174.1970  142.1240 C   0  0  1  0  0  3  0  0  0  0  0  0
  194.3930  171.4030  142.9380 C   0  0  0  0  0  2  0  0  0  0  0  0
  195.5920  173.4090  142.1760 N   0  0  1  0  0  0  0  0  0  0  0  0
  195.3930  171.9770  141.9380 C   0  0  0  0  0  2  0  0  0  0  0  0
  193.0550  172.1500  142.9070 C   0  0  1  0  0  3  0  0  0  0  0  0
  195.1770  174.0920  140.9370 C   0  0  2  0  0  3  0  0  0  0  0  0
  195.7380  176.3810  141.5630 C   0  0  0  0  0  2  0  0  0  0  0  0
  195.9560  175.3550  140.7510 C   0  0  0  0  0  0  0  0  0  0  0  0
  197.9410  176.0840  139.0440 O   0  0  0  0  0  0  0  0  0  0  0  0
  197.1370  175.2340  138.2930 C   0  0  0  0  0  0  0  0  0  0  0  0
  196.8070  174.4650  136.8900 S   0  0  0  0  0  0  0  0  0  0  0  0
  196.8140  175.5200  139.6250 N   0  0  0  0  0  0  0  0  0  0  0  0
  191.6280  174.3710  145.4400 C   0  0  0  0  0  2  0  0  0  0  0  0
  191.0820  175.7480  145.0670 C   0  0  2  0  0  3  0  0  0  0  0  0
  191.8740  176.8300  142.9400 C   0  0  0  0  0  1  0  0  0  0  0  0
  192.1280  176.6650  144.4260 C   0  0  2  0  0  3  0  0  0  0  0  0
  193.4230  176.1890  144.6390 O   0  0  0  0  0  1  0  0  0  0  0  0
  190.5930  175.8230  147.5240 O   0  0  0  0  0  1  0  0  0  0  0  0
  190.4720  176.3990  146.2650 C   0  0  0  0  0  0  0  0  0  0  0  0
  189.8330  177.4730  146.1290 O   0  0  0  0  0  0  0  0  0  0  0  0
  2  1  2  0  0  0  0
  3  5  2  0  0  0  0
  4 14  1  0  0  0  0
  4 16  2  0  0  0  0
  5  6  1  0  0  0  0
  5  8  1  0  0  0  0
  6 17  1  6  0  0  0
  6 12  1  0  0  0  0
  7  4  1  0  0  0  0
  8 18  1  6  0  0  0
  8  7  1  0  0  0  0
 10 14  1  0  0  0  0
 11 30  1  6  0  0  0
 11  9  1  0  0  0  0
 12  9  1  6  0  0  0
 12 10  1  0  0  0  0
 13 23  1  6  0  0  0
 13 11  1  0  0  0  0
 14 15  1  1  0  0  0
 15  1  1  0  0  0  0
 16  2  1  0  0  0  0
 17 13  1  0  0  0  0
 18 19  1  0  0  0  0
 19 20  1  0  0  0  0
 21 20  1  0  0  0  0
 22 21  1  0  0  0  0
 24 23  1  0  0  0  0
 25 24  1  0  0  0  0
 25 26  1  0  0  0  0
 26 29  1  0  0  0  0
 28 29  2  0  0  0  0
 29 27  1  0  0  0  0
 30 31  1  0  0  0  0
 32 33  1  0  0  0  0
 32 31  1  0  0  0  0
 32 47  1  0  0  0  0
 34 39  1  0  0  0  0
 35 34  1  6  0  0  0
 35 37  1  0  0  0  0
 37 38  1  6  0  0  0
 38 36  1  0  0  0  0
 39 36  1  0  0  0  0
 39 33  1  1  0  0  0
 40 42  1  1  0  0  0
 40 35  1  0  0  0  0
 40 37  1  0  0  0  0
 42 41  2  0  0  0  0
 43 46  1  0  0  0  0
 44 43  1  0  0  0  0
 44 46  1  0  0  0  0
 45 44  2  0  0  0  0
 46 42  1  0  0  0  0
 48 47  1  1  0  0  0
 48 53  1  0  0  0  0
 50 49  1  6  0  0  0
 50 51  1  0  0  0  0
 50 48  1  0  0  0  0
 53 52  1  0  0  0  0
 54 53  2  0  0  0  0
M  END
>  <MODEL>
4

>  <REMARK>
 VINA RESULT:      -5.6      2.814      5.358
  Name = 
  19 active torsions:
  status: ('A' for Active; 'I' for Inactive)
    1  A    between atoms: N_1  and  C_22
    2  A    between atoms: N_1  and  C_27
    3  A    between atoms: N_1  and  C_48
    4  A    between atoms: C_3  and  O_19
    5  A    between atoms: C_8  and  C_22
    6  A    between atoms: C_8  and  C_34
    7  A    between atoms: C_9  and  C_21
    8  A    between atoms: C_9  and  C_51
    9  A    between atoms: N_10  and  C_21
   10  A    between atoms: O_19  and  C_46
   11  A    between atoms: C_23  and  C_52
   12  A    between atoms: C_27  and  C_42
   13  A    between atoms: C_29  and  C_42
   14  A    between atoms: C_31  and  C_42
   15  A    between atoms: C_36  and  N_47
   16  A    between atoms: C_36  and  C_54
   17  A    between atoms: C_39  and  C_51
   18  A    between atoms: C_43  and  C_48
   19  A    between atoms: C_46  and  C_52
                            x       y       z     vdW  Elec       q    Type
                         _______ _______ _______ _____ _____    ______ ____

>  <TORSDO>
F 19

$$$$
=
 OpenBabel11062419113D

 54 59  0  0  1  0  0  0  0  0999 V2000
  193.0670  174.6230  145.9840 C   0  0  0  0  0  3  0  0  0  0  0  0
  192.9900  175.6110  146.8770 C   0  0  0  0  0  3  0  0  0  0  0  0
  188.4200  178.2500  144.5860 O   0  0  0  0  0  0  0  0  0  0  0  0
  190.6600  176.0410  146.4580 C   0  0  0  0  0  0  0  0  0  0  0  0
  188.1960  177.0720  144.8320 C   0  0  0  0  0  0  0  0  0  0  0  0
  187.9950  176.0660  143.7370 C   0  0  2  0  0  3  0  0  0  0  0  0
  189.4950  176.7320  146.8370 O   0  0  0  0  0  0  0  0  0  0  0  0
  188.2090  176.5730  146.2480 C   0  0  1  0  0  3  0  0  0  0  0  0
  188.9380  174.0700  142.5910 C   0  0  0  0  0  2  0  0  0  0  0  0
  189.5430  174.5910  144.8450 O   0  0  0  0  0  0  0  0  0  0  0  0
  188.6400  174.6930  141.2270 C   0  0  2  0  0  3  0  0  0  0  0  0
  189.2240  175.1640  143.6080 C   0  0  2  0  0  3  0  0  0  0  0  0
  187.4390  175.6470  141.3150 C   0  0  1  0  0  3  0  0  0  0  0  0
  190.7600  175.1830  145.1980 C   0  0  2  0  0  3  0  0  0  0  0  0
  191.8160  174.0860  145.3600 C   0  0  0  0  0  2  0  0  0  0  0  0
  191.7290  176.2290  147.1770 N   0  0  0  0  0  0  0  0  0  0  0  0
  187.6810  176.7140  142.3880 C   0  0  0  0  0  2  0  0  0  0  0  0
  187.1620  177.2880  147.0910 C   0  0  0  0  0  2  0  0  0  0  0  0
  185.7630  176.7960  146.7570 C   0  0  0  0  0  2  0  0  0  0  0  0
  184.9070  177.8750  146.5320 O   0  0  0  0  0  0  0  0  0  0  0  0
  184.8030  177.9580  145.1430 C   0  0  0  0  0  2  0  0  0  0  0  0
  185.1320  179.3640  144.6890 C   0  0  0  0  0  1  0  0  0  0  0  0
  187.2080  176.3320  139.9710 C   0  0  0  0  0  2  0  0  0  0  0  0
  186.6830  177.7490  140.1490 C   0  0  0  0  0  2  0  0  0  0  0  0
  185.2000  177.8100  139.8280 C   0  0  0  0  0  2  0  0  0  0  0  0
  184.4470  178.1990  141.0120 N   0  0  0  0  0  2  0  0  0  0  0  0
  182.3390  178.5800  142.3370 C   0  0  0  0  0  1  0  0  0  0  0  0
  182.3120  177.8030  140.0650 N   0  0  0  0  0  2  0  0  0  0  0  0
  183.0180  178.1710  141.0810 C   0  0  0  0  0  0  0  0  0  0  0  0
  188.3970  173.5860  140.2050 C   0  0  0  0  0  2  0  0  0  0  0  0
  189.6440  173.3530  139.3410 C   0  0  0  0  0  2  0  0  0  0  0  0
  190.3520  172.0950  139.6260 N   0  0  0  0  0  0  0  0  0  0  0  0
  191.8000  172.2680  139.5490 C   0  0  0  0  0  2  0  0  0  0  0  0
  192.8030  174.0690  140.9950 C   0  0  0  0  0  2  0  0  0  0  0  0
  194.2530  173.5760  141.0790 C   0  0  1  0  0  3  0  0  0  0  0  0
  193.0940  174.0990  138.4610 C   0  0  0  0  0  2  0  0  0  0  0  0
  195.0840  173.9290  139.8940 N   0  0  1  0  0  0  0  0  0  0  0  0
  194.3820  174.7750  138.9250 C   0  0  0  0  0  2  0  0  0  0  0  0
  192.1760  173.7430  139.6350 C   0  0  1  0  0  3  0  0  0  0  0  0
  195.1680  174.7150  141.1380 C   0  0  2  0  0  3  0  0  0  0  0  0
  197.2580  173.4830  141.3840 C   0  0  0  0  0  2  0  0  0  0  0  0
  196.3970  174.3460  141.9060 C   0  0  0  0  0  0  0  0  0  0  0  0
  197.1240  174.6170  144.5110 O   0  0  0  0  0  0  0  0  0  0  0  0
  196.3240  175.7270  144.2600 C   0  0  0  0  0  0  0  0  0  0  0  0
  195.6130  177.1070  144.7680 S   0  0  0  0  0  0  0  0  0  0  0  0
  196.5760  174.7920  143.2490 N   0  0  0  0  0  0  0  0  0  0  0  0
  189.9700  171.0910  138.6420 C   0  0  0  0  0  2  0  0  0  0  0  0
  191.1010  170.8750  137.6380 C   0  0  2  0  0  3  0  0  0  0  0  0
  191.1100  172.6680  135.8740 C   0  0  0  0  0  1  0  0  0  0  0  0
  190.7170  171.2390  136.2000 C   0  0  2  0  0  3  0  0  0  0  0  0
  189.3520  171.0560  135.9750 O   0  0  0  0  0  1  0  0  0  0  0  0
  192.6330  169.0330  136.9030 O   0  0  0  0  0  0  0  0  0  0  0  0
  191.5900  169.4670  137.7140 C   0  0  0  0  0  0  0  0  0  0  0  0
  191.0440  168.6620  138.5110 O   0  0  0  0  0  1  0  0  0  0  0  0
  1  2  2  0  0  0  0
  2 16  1  0  0  0  0
  3  5  2  0  0  0  0
  4  7  1  0  0  0  0
  4 16  2  0  0  0  0
  5  8  1  0  0  0  0
  6 17  1  6  0  0  0
  6  5  1  0  0  0  0
  8  7  1  0  0  0  0
  8 18  1  1  0  0  0
 10 14  1  0  0  0  0
 11 30  1  6  0  0  0
 11 13  1  0  0  0  0
 11  9  1  0  0  0  0
 12  9  1  6  0  0  0
 12  6  1  0  0  0  0
 12 10  1  0  0  0  0
 13 23  1  6  0  0  0
 13 17  1  0  0  0  0
 14 15  1  1  0  0  0
 14  4  1  0  0  0  0
 15  1  1  0  0  0  0
 19 18  1  0  0  0  0
 20 19  1  0  0  0  0
 21 20  1  0  0  0  0
 22 21  1  0  0  0  0
 23 24  1  0  0  0  0
 25 24  1  0  0  0  0
 25 26  1  0  0  0  0
 26 29  1  0  0  0  0
 28 29  2  0  0  0  0
 29 27  1  0  0  0  0
 31 32  1  0  0  0  0
 31 30  1  0  0  0  0
 33 32  1  0  0  0  0
 35 34  1  6  0  0  0
 35 40  1  0  0  0  0
 36 38  1  0  0  0  0
 36 39  1  0  0  0  0
 37 38  1  6  0  0  0
 37 35  1  0  0  0  0
 37 40  1  0  0  0  0
 39 33  1  1  0  0  0
 39 34  1  0  0  0  0
 40 42  1  1  0  0  0
 41 42  2  0  0  0  0
 42 46  1  0  0  0  0
 44 43  1  0  0  0  0
 44 45  2  0  0  0  0
 46 44  1  0  0  0  0
 46 43  1  0  0  0  0
 47 32  1  0  0  0  0
 48 53  1  0  0  0  0
 48 47  1  1  0  0  0
 50 49  1  1  0  0  0
 50 48  1  0  0  0  0
 51 50  1  0  0  0  0
 52 53  2  0  0  0  0
 53 54  1  0  0  0  0
M  END
>  <MODEL>
5

>  <REMARK>
 VINA RESULT:      -5.6      2.976      7.250
  Name = 
  19 active torsions:
  status: ('A' for Active; 'I' for Inactive)
    1  A    between atoms: N_1  and  C_22
    2  A    between atoms: N_1  and  C_27
    3  A    between atoms: N_1  and  C_48
    4  A    between atoms: C_3  and  O_19
    5  A    between atoms: C_8  and  C_22
    6  A    between atoms: C_8  and  C_34
    7  A    between atoms: C_9  and  C_21
    8  A    between atoms: C_9  and  C_51
    9  A    between atoms: N_10  and  C_21
   10  A    between atoms: O_19  and  C_46
   11  A    between atoms: C_23  and  C_52
   12  A    between atoms: C_27  and  C_42
   13  A    between atoms: C_29  and  C_42
   14  A    between atoms: C_31  and  C_42
   15  A    between atoms: C_36  and  N_47
   16  A    between atoms: C_36  and  C_54
   17  A    between atoms: C_39  and  C_51
   18  A    between atoms: C_43  and  C_48
   19  A    between atoms: C_46  and  C_52
                            x       y       z     vdW  Elec       q    Type
                         _______ _______ _______ _____ _____    ______ ____

>  <TORSDO>
F 19

$$$$
=
 OpenBabel11062419113D

 54 59  0  0  1  0  0  0  0  0999 V2000
  193.8060  175.7520  145.2730 C   0  0  0  0  0  3  0  0  0  0  0  0
  193.5650  177.0540  145.4330 C   0  0  0  0  0  3  0  0  0  0  0  0
  188.9520  177.3220  142.0050 O   0  0  0  0  0  0  0  0  0  0  0  0
  191.2430  176.8750  144.8240 C   0  0  0  0  0  0  0  0  0  0  0  0
  188.8250  176.4780  142.8830 C   0  0  0  0  0  0  0  0  0  0  0  0
  188.8080  175.0110  142.5660 C   0  0  2  0  0  3  0  0  0  0  0  0
  189.9920  177.5080  144.7270 O   0  0  0  0  0  0  0  0  0  0  0  0
  188.7760  176.8840  144.3280 C   0  0  1  0  0  3  0  0  0  0  0  0
  190.0260  172.8550  142.7870 C   0  0  0  0  0  2  0  0  0  0  0  0
  190.4010  174.6400  144.3330 O   0  0  0  0  0  0  0  0  0  0  0  0
  189.7760  172.5440  141.3110 C   0  0  2  0  0  3  0  0  0  0  0  0
  190.1240  174.3590  142.9900 C   0  0  2  0  0  3  0  0  0  0  0  0
  188.4850  173.2200  140.8240 C   0  0  1  0  0  3  0  0  0  0  0  0
  191.5230  175.4720  144.2900 C   0  0  2  0  0  3  0  0  0  0  0  0
  192.6660  174.8060  145.0630 C   0  0  0  0  0  2  0  0  0  0  0  0
  192.2310  177.5710  145.3120 N   0  0  0  0  0  0  0  0  0  0  0  0
  188.5380  174.7280  141.0880 C   0  0  0  0  0  2  0  0  0  0  0  0
  187.6030  177.8160  144.5970 C   0  0  0  0  0  2  0  0  0  0  0  0
  186.4160  177.0500  145.1580 C   0  0  0  0  0  2  0  0  0  0  0  0
  185.2450  177.7990  145.0240 O   0  0  0  0  0  0  0  0  0  0  0  0
  184.8430  178.0590  146.3350 C   0  0  0  0  0  2  0  0  0  0  0  0
  185.6000  177.1610  147.2890 C   0  0  0  0  0  1  0  0  0  0  0  0
  188.2930  172.9800  139.3290 C   0  0  0  0  0  2  0  0  0  0  0  0
  188.7230  174.1870  138.5100 C   0  0  0  0  0  2  0  0  0  0  0  0
  189.2760  173.7460  137.1650 C   0  0  0  0  0  2  0  0  0  0  0  0
  190.5030  172.9850  137.3540 N   0  0  0  0  0  2  0  0  0  0  0  0
  191.9520  170.9340  137.1660 C   0  0  0  0  0  1  0  0  0  0  0  0
  189.6870  170.9900  136.3710 N   0  0  0  0  0  2  0  0  0  0  0  0
  190.6580  171.6250  136.9370 C   0  0  0  0  0  0  0  0  0  0  0  0
  189.7210  171.0320  141.1110 C   0  0  0  0  0  2  0  0  0  0  0  0
  191.0810  170.4890  140.6520 C   0  0  0  0  0  2  0  0  0  0  0  0
  192.2300  171.0160  141.4050 N   0  0  0  0  0  0  0  0  0  0  0  0
  193.3020  171.4450  140.5110 C   0  0  0  0  0  2  0  0  0  0  0  0
  193.3250  173.7790  141.4560 C   0  0  0  0  0  2  0  0  0  0  0  0
  194.7910  173.8790  141.9010 C   0  0  1  0  0  3  0  0  0  0  0  0
  194.2040  173.2980  139.1100 C   0  0  0  0  0  2  0  0  0  0  0  0
  195.7380  174.2100  140.8000 N   0  0  1  0  0  0  0  0  0  0  0  0
  195.0720  174.4830  139.5240 C   0  0  0  0  0  2  0  0  0  0  0  0
  193.1810  172.9290  140.1890 C   0  0  1  0  0  3  0  0  0  0  0  0
  195.2730  175.2500  141.7360 C   0  0  2  0  0  3  0  0  0  0  0  0
  196.7410  176.7970  142.9180 C   0  0  0  0  0  2  0  0  0  0  0  0
  196.3280  175.5470  142.7520 C   0  0  0  0  0  0  0  0  0  0  0  0
  197.9300  173.4600  143.4350 O   0  0  0  0  0  0  0  0  0  0  0  0
  197.2020  173.7280  144.5900 C   0  0  0  0  0  0  0  0  0  0  0  0
  196.8450  173.3980  146.1490 S   0  0  0  0  0  0  0  0  0  0  0  0
  197.0000  174.4900  143.4340 N   0  0  0  0  0  0  0  0  0  0  0  0
  192.7610  169.9730  142.2710 C   0  0  0  0  0  2  0  0  0  0  0  0
  194.1780  170.3240  142.7180 C   0  0  2  0  0  3  0  0  0  0  0  0
  196.4730  169.6910  141.9060 C   0  0  0  0  0  1  0  0  0  0  0  0
  195.1810  169.1830  142.5170 C   0  0  2  0  0  3  0  0  0  0  0  0
  194.6450  168.1670  141.7240 O   0  0  0  0  0  1  0  0  0  0  0  0
  193.0390  171.3700  144.6900 O   0  0  0  0  0  0  0  0  0  0  0  0
  194.1700  170.7750  144.1410 C   0  0  0  0  0  0  0  0  0  0  0  0
  195.2000  170.6260  144.8450 O   0  0  0  0  0  1  0  0  0  0  0  0
  1  2  2  0  0  0  0
  3  5  2  0  0  0  0
  4 16  2  0  0  0  0
  5  8  1  0  0  0  0
  6 17  1  6  0  0  0
  6  5  1  0  0  0  0
  6 12  1  0  0  0  0
  7  4  1  0  0  0  0
  8 18  1  6  0  0  0
  8  7  1  0  0  0  0
 11 30  1  1  0  0  0
 11  9  1  0  0  0  0
 12  9  1  1  0  0  0
 12 10  1  0  0  0  0
 13 23  1  6  0  0  0
 13 17  1  0  0  0  0
 13 11  1  0  0  0  0
 14 10  1  0  0  0  0
 14  4  1  0  0  0  0
 14 15  1  1  0  0  0
 15  1  1  0  0  0  0
 16  2  1  0  0  0  0
 18 19  1  0  0  0  0
 20 19  1  0  0  0  0
 20 21  1  0  0  0  0
 21 22  1  0  0  0  0
 24 23  1  0  0  0  0
 25 26  1  0  0  0  0
 25 24  1  0  0  0  0
 28 29  2  0  0  0  0
 29 27  1  0  0  0  0
 29 26  1  0  0  0  0
 31 30  1  0  0  0  0
 31 32  1  0  0  0  0
 32 47  1  0  0  0  0
 33 32  1  0  0  0  0
 35 34  1  6  0  0  0
 36 38  1  0  0  0  0
 36 39  1  0  0  0  0
 37 38  1  6  0  0  0
 37 40  1  0  0  0  0
 37 35  1  0  0  0  0
 39 33  1  1  0  0  0
 39 34  1  0  0  0  0
 40 35  1  0  0  0  0
 40 42  1  1  0  0  0
 42 41  2  0  0  0  0
 42 46  1  0  0  0  0
 43 44  1  0  0  0  0
 44 45  2  0  0  0  0
 46 43  1  0  0  0  0
 46 44  1  0  0  0  0
 48 47  1  1  0  0  0
 48 53  1  0  0  0  0
 50 49  1  6  0  0  0
 50 48  1  0  0  0  0
 51 50  1  0  0  0  0
 53 52  2  0  0  0  0
 53 54  1  0  0  0  0
M  END
>  <MODEL>
6

>  <REMARK>
 VINA RESULT:      -5.4      3.068      6.518
  Name = 
  19 active torsions:
  status: ('A' for Active; 'I' for Inactive)
    1  A    between atoms: N_1  and  C_22
    2  A    between atoms: N_1  and  C_27
    3  A    between atoms: N_1  and  C_48
    4  A    between atoms: C_3  and  O_19
    5  A    between atoms: C_8  and  C_22
    6  A    between atoms: C_8  and  C_34
    7  A    between atoms: C_9  and  C_21
    8  A    between atoms: C_9  and  C_51
    9  A    between atoms: N_10  and  C_21
   10  A    between atoms: O_19  and  C_46
   11  A    between atoms: C_23  and  C_52
   12  A    between atoms: C_27  and  C_42
   13  A    between atoms: C_29  and  C_42
   14  A    between atoms: C_31  and  C_42
   15  A    between atoms: C_36  and  N_47
   16  A    between atoms: C_36  and  C_54
   17  A    between atoms: C_39  and  C_51
   18  A    between atoms: C_43  and  C_48
   19  A    between atoms: C_46  and  C_52
                            x       y       z     vdW  Elec       q    Type
                         _______ _______ _______ _____ _____    ______ ____

>  <TORSDO>
F 19

$$$$
=
 OpenBabel11062419113D

 54 59  0  0  1  0  0  0  0  0999 V2000
  193.5260  176.1040  136.0870 C   0  0  0  0  0  3  0  0  0  0  0  0
  194.7480  175.9740  135.5690 C   0  0  0  0  0  3  0  0  0  0  0  0
  197.5470  175.3870  140.5620 O   0  0  0  0  0  0  0  0  0  0  0  0
  195.6290  174.8290  137.4940 C   0  0  0  0  0  0  0  0  0  0  0  0
  196.6490  174.5650  140.4380 C   0  0  0  0  0  0  0  0  0  0  0  0
  195.4150  174.6170  141.2910 C   0  0  2  0  0  3  0  0  0  0  0  0
  196.7050  174.1270  138.0660 O   0  0  0  0  0  0  0  0  0  0  0  0
  196.7100  173.5260  139.3560 C   0  0  1  0  0  3  0  0  0  0  0  0
  192.9630  175.0320  141.3210 C   0  0  0  0  0  2  0  0  0  0  0  0
  194.0690  174.3630  139.3100 O   0  0  0  0  0  0  0  0  0  0  0  0
  193.1100  175.9030  142.5690 C   0  0  2  0  0  3  0  0  0  0  0  0
  194.2240  175.1220  140.4760 C   0  0  2  0  0  3  0  0  0  0  0  0
  194.3260  175.4630  143.4000 C   0  0  1  0  0  3  0  0  0  0  0  0
  194.3840  175.2470  138.2740 C   0  0  2  0  0  3  0  0  0  0  0  0
  193.1720  175.3790  137.3480 C   0  0  0  0  0  2  0  0  0  0  0  0
  195.7580  175.2200  136.2580 N   0  0  0  0  0  0  0  0  0  0  0  0
  195.5940  175.4790  142.5410 C   0  0  0  0  0  2  0  0  0  0  0  0
  197.9410  172.6440  139.5120 C   0  0  0  0  0  2  0  0  0  0  0  0
  197.6540  171.2220  139.0600 C   0  0  0  0  0  2  0  0  0  0  0  0
  196.3290  170.8800  139.3360 O   0  0  0  0  0  0  0  0  0  0  0  0
  195.8920  170.2150  138.1890 C   0  0  0  0  0  2  0  0  0  0  0  0
  195.0050  169.0520  138.5800 C   0  0  0  0  0  1  0  0  0  0  0  0
  194.5170  176.3950  144.5930 C   0  0  0  0  0  2  0  0  0  0  0  0
  194.4510  175.6380  145.9100 C   0  0  0  0  0  2  0  0  0  0  0  0
  193.3860  176.2350  146.8140 C   0  0  0  0  0  2  0  0  0  0  0  0
  192.2370  175.3450  146.8910 N   0  0  0  0  0  2  0  0  0  0  0  0
  189.7770  174.8210  147.0200 C   0  0  0  0  0  1  0  0  0  0  0  0
  190.6150  177.0710  146.9510 N   0  0  0  0  0  2  0  0  0  0  0  0
  190.8850  175.8080  146.9490 C   0  0  0  0  0  0  0  0  0  0  0  0
  191.8250  175.8380  143.3900 C   0  0  0  0  0  2  0  0  0  0  0  0
  190.7100  176.6630  142.7300 C   0  0  0  0  0  2  0  0  0  0  0  0
  189.3570  176.3450  143.2100 N   0  0  0  0  0  0  0  0  0  0  0  0
  188.5100  175.8480  142.1290 C   0  0  0  0  0  2  0  0  0  0  0  0
  188.4780  173.5650  141.0660 C   0  0  0  0  0  2  0  0  0  0  0  0
  189.9840  173.3200  140.9000 C   0  0  1  0  0  3  0  0  0  0  0  0
  188.9300  173.8520  143.5600 C   0  0  0  0  0  2  0  0  0  0  0  0
  190.6620  172.8420  142.1370 N   0  0  1  0  0  0  0  0  0  0  0  0
  189.7360  172.5940  143.2460 C   0  0  0  0  0  2  0  0  0  0  0  0
  188.1780  174.3740  142.3330 C   0  0  1  0  0  3  0  0  0  0  0  0
  190.2820  171.8990  141.0690 C   0  0  2  0  0  3  0  0  0  0  0  0
  192.6240  171.2470  140.8640 C   0  0  0  0  0  2  0  0  0  0  0  0
  191.4790  171.5260  140.2540 C   0  0  0  0  0  0  0  0  0  0  0  0
  191.6030  172.3540  137.6680 O   0  0  0  0  0  0  0  0  0  0  0  0
  191.2230  171.0190  137.5830 C   0  0  0  0  0  0  0  0  0  0  0  0
  190.8160  169.7140  136.6890 S   0  0  0  0  0  0  0  0  0  0  0  0
  191.4450  171.6140  138.8310 N   0  0  0  0  0  0  0  0  0  0  0  0
  188.7370  177.5510  143.7420 C   0  0  0  0  0  2  0  0  0  0  0  0
  187.2320  177.3460  143.9070 C   0  0  2  0  0  3  0  0  0  0  0  0
  184.9910  177.8720  142.8950 C   0  0  0  0  0  1  0  0  0  0  0  0
  186.3910  178.3900  143.1660 C   0  0  2  0  0  3  0  0  0  0  0  0
  186.9970  178.7780  141.9700 O   0  0  0  0  0  1  0  0  0  0  0  0
  185.7330  176.6500  145.7910 O   0  0  0  0  0  0  0  0  0  0  0  0
  186.8760  177.3120  145.3560 C   0  0  0  0  0  0  0  0  0  0  0  0
  187.6110  177.8990  146.1900 O   0  0  0  0  0  1  0  0  0  0  0  0
  1 15  1  0  0  0  0
  2  1  2  0  0  0  0
  2 16  1  0  0  0  0
  4  7  1  0  0  0  0
  4 14  1  0  0  0  0
  5  3  2  0  0  0  0
  5  6  1  0  0  0  0
  6 17  1  1  0  0  0
  7  8  1  0  0  0  0
  8 18  1  1  0  0  0
  8  5  1  0  0  0  0
  9 11  1  0  0  0  0
 10 12  1  0  0  0  0
 11 30  1  1  0  0  0
 11 13  1  0  0  0  0
 12  6  1  0  0  0  0
 12  9  1  1  0  0  0
 13 23  1  1  0  0  0
 14 15  1  6  0  0  0
 14 10  1  0  0  0  0
 16  4  2  0  0  0  0
 17 13  1  0  0  0  0
 19 20  1  0  0  0  0
 19 18  1  0  0  0  0
 21 22  1  0  0  0  0
 21 20  1  0  0  0  0
 23 24  1  0  0  0  0
 24 25  1  0  0  0  0
 25 26  1  0  0  0  0
 26 29  1  0  0  0  0
 29 28  2  0  0  0  0
 29 27  1  0  0  0  0
 31 32  1  0  0  0  0
 31 30  1  0  0  0  0
 32 47  1  0  0  0  0
 33 32  1  0  0  0  0
 34 39  1  0  0  0  0
 35 34  1  1  0  0  0
 35 40  1  0  0  0  0
 35 37  1  0  0  0  0
 37 38  1  1  0  0  0
 38 36  1  0  0  0  0
 39 33  1  6  0  0  0
 39 36  1  0  0  0  0
 40 42  1  6  0  0  0
 40 37  1  0  0  0  0
 42 41  2  0  0  0  0
 43 46  1  0  0  0  0
 44 43  1  0  0  0  0
 44 46  1  0  0  0  0
 45 44  2  0  0  0  0
 46 42  1  0  0  0  0
 48 47  1  1  0  0  0
 48 53  1  0  0  0  0
 50 49  1  6  0  0  0
 50 48  1  0  0  0  0
 51 50  1  0  0  0  0
 53 52  2  0  0  0  0
 53 54  1  0  0  0  0
M  END
>  <MODEL>
7

>  <REMARK>
 VINA RESULT:      -5.3      3.432      8.818
  Name = 
  19 active torsions:
  status: ('A' for Active; 'I' for Inactive)
    1  A    between atoms: N_1  and  C_22
    2  A    between atoms: N_1  and  C_27
    3  A    between atoms: N_1  and  C_48
    4  A    between atoms: C_3  and  O_19
    5  A    between atoms: C_8  and  C_22
    6  A    between atoms: C_8  and  C_34
    7  A    between atoms: C_9  and  C_21
    8  A    between atoms: C_9  and  C_51
    9  A    between atoms: N_10  and  C_21
   10  A    between atoms: O_19  and  C_46
   11  A    between atoms: C_23  and  C_52
   12  A    between atoms: C_27  and  C_42
   13  A    between atoms: C_29  and  C_42
   14  A    between atoms: C_31  and  C_42
   15  A    between atoms: C_36  and  N_47
   16  A    between atoms: C_36  and  C_54
   17  A    between atoms: C_39  and  C_51
   18  A    between atoms: C_43  and  C_48
   19  A    between atoms: C_46  and  C_52
                            x       y       z     vdW  Elec       q    Type
                         _______ _______ _______ _____ _____    ______ ____

>  <TORSDO>
F 19

$$$$
=
 OpenBabel11062419113D

 54 59  0  0  1  0  0  0  0  0999 V2000
  186.5120  177.3700  140.7300 C   0  0  0  0  0  3  0  0  0  0  0  0
  185.6940  177.7000  141.7300 C   0  0  0  0  0  3  0  0  0  0  0  0
  188.5190  174.8910  145.8810 O   0  0  0  0  0  0  0  0  0  0  0  0
  187.3570  177.3540  143.4340 C   0  0  0  0  0  0  0  0  0  0  0  0
  189.2410  175.6790  145.2850 C   0  0  0  0  0  0  0  0  0  0  0  0
  190.3530  175.2060  144.3940 C   0  0  2  0  0  3  0  0  0  0  0  0
  187.7080  177.4760  144.7900 O   0  0  0  0  0  0  0  0  0  0  0  0
  188.9770  177.1560  145.3510 C   0  0  1  0  0  3  0  0  0  0  0  0
  191.1700  175.0420  142.0510 C   0  0  0  0  0  2  0  0  0  0  0  0
  189.5900  176.7210  142.6840 O   0  0  0  0  0  0  0  0  0  0  0  0
  191.5600  173.5800  142.2740 C   0  0  2  0  0  3  0  0  0  0  0  0
  189.9760  175.3970  142.9240 C   0  0  2  0  0  3  0  0  0  0  0  0
  191.9020  173.3260  143.7500 C   0  0  1  0  0  3  0  0  0  0  0  0
  188.2240  176.6380  142.4000 C   0  0  2  0  0  3  0  0  0  0  0  0
  187.9750  177.1920  140.9940 C   0  0  0  0  0  2  0  0  0  0  0  0
  186.1860  177.7960  143.0760 N   0  0  0  0  0  0  0  0  0  0  0  0
  190.7360  173.7480  144.6490 C   0  0  0  0  0  2  0  0  0  0  0  0
  189.0520  177.6630  146.7840 C   0  0  0  0  0  2  0  0  0  0  0  0
  187.6960  178.1600  147.2590 C   0  0  0  0  0  2  0  0  0  0  0  0
  186.8870  177.0860  147.6360 O   0  0  0  0  0  0  0  0  0  0  0  0
  185.5850  177.5260  147.3960 C   0  0  0  0  0  2  0  0  0  0  0  0
  185.5840  179.0240  147.1760 C   0  0  0  0  0  1  0  0  0  0  0  0
  192.2010  171.8470  143.9770 C   0  0  0  0  0  2  0  0  0  0  0  0
  193.5280  171.6490  144.6950 C   0  0  0  0  0  2  0  0  0  0  0  0
  193.9240  170.1830  144.6830 C   0  0  0  0  0  2  0  0  0  0  0  0
  195.3240  170.0390  145.0540 N   0  0  0  0  0  2  0  0  0  0  0  0
  197.2110  169.3000  146.5490 C   0  0  0  0  0  1  0  0  0  0  0  0
  194.9040  168.9290  147.1050 N   0  0  0  0  0  2  0  0  0  0  0  0
  195.7590  169.4040  146.2600 C   0  0  0  0  0  0  0  0  0  0  0  0
  192.7320  173.2220  141.3630 C   0  0  0  0  0  2  0  0  0  0  0  0
  192.8060  174.1760  140.1630 C   0  0  0  0  0  2  0  0  0  0  0  0
  194.1310  174.2490  139.5280 N   0  0  0  0  0  0  0  0  0  0  0  0
  194.6840  175.5990  139.5990 C   0  0  0  0  0  2  0  0  0  0  0  0
  195.9910  176.3900  141.6000 C   0  0  0  0  0  2  0  0  0  0  0  0
  195.2930  175.5970  142.7130 C   0  0  1  0  0  3  0  0  0  0  0  0
  196.4990  174.1470  140.4970 C   0  0  0  0  0  2  0  0  0  0  0  0
  195.7620  174.1890  142.8420 N   0  0  1  0  0  0  0  0  0  0  0  0
  196.8780  173.8660  141.9480 C   0  0  0  0  0  2  0  0  0  0  0  0
  196.0410  175.5940  140.2910 C   0  0  1  0  0  3  0  0  0  0  0  0
  196.2570  175.2370  143.7530 C   0  0  2  0  0  3  0  0  0  0  0  0
  195.8960  174.1660  145.9140 C   0  0  0  0  0  2  0  0  0  0  0  0
  195.5700  175.1430  145.0780 C   0  0  0  0  0  0  0  0  0  0  0  0
  193.7270  177.1400  145.1360 O   0  0  0  0  0  0  0  0  0  0  0  0
  193.3500  176.2930  146.1730 C   0  0  0  0  0  0  0  0  0  0  0  0
  192.3420  175.9180  147.4030 S   0  0  0  0  0  0  0  0  0  0  0  0
  194.4700  175.9960  145.3880 N   0  0  0  0  0  0  0  0  0  0  0  0
  194.0140  173.8890  138.1210 C   0  0  0  0  0  2  0  0  0  0  0  0
  192.7870  174.5550  137.5030 C   0  0  2  0  0  3  0  0  0  0  0  0
  192.0490  172.8770  135.7810 C   0  0  0  0  0  1  0  0  0  0  0  0
  191.6980  173.5600  137.0890 C   0  0  2  0  0  3  0  0  0  0  0  0
  190.4520  174.1810  136.9830 O   0  0  0  0  0  1  0  0  0  0  0  0
  192.3330  176.3710  135.8360 O   0  0  0  0  0  1  0  0  0  0  0  0
  193.1940  175.4050  136.3450 C   0  0  0  0  0  0  0  0  0  0  0  0
  194.3230  175.2360  135.8190 O   0  0  0  0  0  0  0  0  0  0  0  0
  1 15  1  0  0  0  0
  1  2  2  0  0  0  0
  2 16  1  0  0  0  0
  4  7  1  0  0  0  0
  5  8  1  0  0  0  0
  5  3  2  0  0  0  0
  6 17  1  6  0  0  0
  6  5  1  0  0  0  0
  7  8  1  0  0  0  0
  8 18  1  1  0  0  0
  9 11  1  0  0  0  0
 10 12  1  0  0  0  0
 11 30  1  6  0  0  0
 11 13  1  0  0  0  0
 12  9  1  6  0  0  0
 12  6  1  0  0  0  0
 13 23  1  6  0  0  0
 13 17  1  0  0  0  0
 14 15  1  6  0  0  0
 14 10  1  0  0  0  0
 14  4  1  0  0  0  0
 16  4  2  0  0  0  0
 18 19  1  0  0  0  0
 19 20  1  0  0  0  0
 21 20  1  0  0  0  0
 22 21  1  0  0  0  0
 23 24  1  0  0  0  0
 25 24  1  0  0  0  0
 25 26  1  0  0  0  0
 26 29  1  0  0  0  0
 29 27  1  0  0  0  0
 29 28  2  0  0  0  0
 31 30  1  0  0  0  0
 32 33  1  0  0  0  0
 32 31  1  0  0  0  0
 35 34  1  6  0  0  0
 35 37  1  0  0  0  0
 35 40  1  0  0  0  0
 36 38  1  0  0  0  0
 37 38  1  6  0  0  0
 37 40  1  0  0  0  0
 39 33  1  1  0  0  0
 39 36  1  0  0  0  0
 39 34  1  0  0  0  0
 40 42  1  1  0  0  0
 42 46  1  0  0  0  0
 42 41  2  0  0  0  0
 43 46  1  0  0  0  0
 43 44  1  0  0  0  0
 44 45  2  0  0  0  0
 46 44  1  0  0  0  0
 47 32  1  0  0  0  0
 48 47  1  6  0  0  0
 50 49  1  6  0  0  0
 50 48  1  0  0  0  0
 51 50  1  0  0  0  0
 52 53  1  0  0  0  0
 53 48  1  0  0  0  0
 54 53  2  0  0  0  0
M  END
>  <MODEL>
8

>  <REMARK>
 VINA RESULT:      -5.3      3.563      7.158
  Name = 
  19 active torsions:
  status: ('A' for Active; 'I' for Inactive)
    1  A    between atoms: N_1  and  C_22
    2  A    between atoms: N_1  and  C_27
    3  A    between atoms: N_1  and  C_48
    4  A    between atoms: C_3  and  O_19
    5  A    between atoms: C_8  and  C_22
    6  A    between atoms: C_8  and  C_34
    7  A    between atoms: C_9  and  C_21
    8  A    between atoms: C_9  and  C_51
    9  A    between atoms: N_10  and  C_21
   10  A    between atoms: O_19  and  C_46
   11  A    between atoms: C_23  and  C_52
   12  A    between atoms: C_27  and  C_42
   13  A    between atoms: C_29  and  C_42
   14  A    between atoms: C_31  and  C_42
   15  A    between atoms: C_36  and  N_47
   16  A    between atoms: C_36  and  C_54
   17  A    between atoms: C_39  and  C_51
   18  A    between atoms: C_43  and  C_48
   19  A    between atoms: C_46  and  C_52
                            x       y       z     vdW  Elec       q    Type
                         _______ _______ _______ _____ _____    ______ ____

>  <TORSDO>
F 19

$$$$
=
 OpenBabel11062419113D

 54 59  0  0  1  0  0  0  0  0999 V2000
  191.3590  176.7490  146.5970 C   0  0  0  0  0  3  0  0  0  0  0  0
  192.4020  176.9400  147.4050 C   0  0  0  0  0  3  0  0  0  0  0  0
  195.4040  172.3200  145.7490 O   0  0  0  0  0  0  0  0  0  0  0  0
  193.9110  175.6490  146.0460 C   0  0  0  0  0  0  0  0  0  0  0  0
  195.1150  173.0430  144.8060 C   0  0  0  0  0  0  0  0  0  0  0  0
  194.1310  172.6120  143.7580 C   0  0  2  0  0  3  0  0  0  0  0  0
  195.2340  175.2340  145.8110 O   0  0  0  0  0  0  0  0  0  0  0  0
  195.6690  174.4360  144.7150 C   0  0  1  0  0  3  0  0  0  0  0  0
  191.8790  173.0040  142.7800 C   0  0  0  0  0  2  0  0  0  0  0  0
  193.0190  174.7380  143.9670 O   0  0  0  0  0  0  0  0  0  0  0  0
  191.6030  171.5000  142.7730 C   0  0  2  0  0  3  0  0  0  0  0  0
  192.8060  173.3550  143.9330 C   0  0  2  0  0  3  0  0  0  0  0  0
  192.9120  170.7070  142.6470 C   0  0  1  0  0  3  0  0  0  0  0  0
  192.7070  175.1060  145.2790 C   0  0  2  0  0  3  0  0  0  0  0  0
  191.5660  176.1260  145.2510 C   0  0  0  0  0  2  0  0  0  0  0  0
  193.7080  176.4690  147.0380 N   0  0  0  0  0  0  0  0  0  0  0  0
  193.8870  171.1030  143.7610 C   0  0  0  0  0  2  0  0  0  0  0  0
  197.1910  174.4180  144.6610 C   0  0  0  0  0  2  0  0  0  0  0  0
  197.6960  174.9840  143.3430 C   0  0  0  0  0  2  0  0  0  0  0  0
  196.6460  175.1090  142.4310 O   0  0  0  0  0  0  0  0  0  0  0  0
  197.1890  175.8330  141.3680 C   0  0  0  0  0  2  0  0  0  0  0  0
  196.5830  175.3570  140.0650 C   0  0  0  0  0  1  0  0  0  0  0  0
  192.6350  169.2090  142.7330 C   0  0  0  0  0  2  0  0  0  0  0  0
  193.3310  168.4460  141.6170 C   0  0  0  0  0  2  0  0  0  0  0  0
  193.5590  169.3500  140.4180 C   0  0  0  0  0  2  0  0  0  0  0  0
  192.8590  168.8250  139.2550 N   0  0  0  0  0  2  0  0  0  0  0  0
  192.5840  168.3440  136.7970 C   0  0  0  0  0  1  0  0  0  0  0  0
  194.4990  169.4940  137.6800 N   0  0  0  0  0  2  0  0  0  0  0  0
  193.3690  168.9150  137.9210 C   0  0  0  0  0  0  0  0  0  0  0  0
  190.6390  171.1640  141.6390 C   0  0  0  0  0  2  0  0  0  0  0  0
  189.3130  171.9200  141.8030 C   0  0  0  0  0  2  0  0  0  0  0  0
  189.1670  173.0870  140.9190 N   0  0  0  0  0  0  0  0  0  0  0  0
  188.0710  173.9500  141.3510 C   0  0  0  0  0  2  0  0  0  0  0  0
  187.7920  176.4510  141.2560 C   0  0  0  0  0  2  0  0  0  0  0  0
  186.4300  176.6000  141.9470 C   0  0  1  0  0  3  0  0  0  0  0  0
  188.6000  175.2940  143.3810 C   0  0  0  0  0  2  0  0  0  0  0  0
  186.4970  176.5660  143.4350 N   0  0  1  0  0  0  0  0  0  0  0  0
  187.8670  176.5050  143.9520 C   0  0  0  0  0  2  0  0  0  0  0  0
  188.5980  175.2900  141.8490 C   0  0  1  0  0  3  0  0  0  0  0  0
  186.3890  177.8460  142.7110 C   0  0  2  0  0  3  0  0  0  0  0  0
  184.4890  178.7580  143.9370 C   0  0  0  0  0  2  0  0  0  0  0  0
  184.9880  178.3640  142.7730 C   0  0  0  0  0  0  0  0  0  0  0  0
  183.9760  178.2010  140.2560 O   0  0  0  0  0  0  0  0  0  0  0  0
  182.8530  178.2830  141.0730 C   0  0  0  0  0  0  0  0  0  0  0  0
  181.2310  178.3280  141.2540 S   0  0  0  0  0  0  0  0  0  0  0  0
  184.1370  178.2970  141.6310 N   0  0  0  0  0  0  0  0  0  0  0  0
  188.8710  172.6350  139.5660 C   0  0  0  0  0  2  0  0  0  0  0  0
  189.9670  173.0890  138.6040 C   0  0  2  0  0  3  0  0  0  0  0  0
  188.1140  174.5540  137.7410 C   0  0  0  0  0  1  0  0  0  0  0  0
  189.4360  173.8890  137.4100 C   0  0  2  0  0  3  0  0  0  0  0  0
  189.2950  173.0830  136.2780 O   0  0  0  0  0  1  0  0  0  0  0  0
  190.1900  170.6460  138.0890 O   0  0  0  0  0  1  0  0  0  0  0  0
  190.7610  171.9120  138.1400 C   0  0  0  0  0  0  0  0  0  0  0  0
  191.9620  172.0680  137.8040 O   0  0  0  0  0  0  0  0  0  0  0  0
  1  2  2  0  0  0  0
  4 16  2  0  0  0  0
  5  3  2  0  0  0  0
  6 17  1  1  0  0  0
  6 12  1  0  0  0  0
  6  5  1  0  0  0  0
  7  4  1  0  0  0  0
  8 18  1  1  0  0  0
  8  5  1  0  0  0  0
  8  7  1  0  0  0  0
 10 14  1  0  0  0  0
 11 30  1  6  0  0  0
 11  9  1  0  0  0  0
 12  9  1  6  0  0  0
 12 10  1  0  0  0  0
 13 23  1  1  0  0  0
 13 11  1  0  0  0  0
 13 17  1  0  0  0  0
 14 15  1  6  0  0  0
 14  4  1  0  0  0  0
 15  1  1  0  0  0  0
 16  2  1  0  0  0  0
 19 18  1  0  0  0  0
 20 19  1  0  0  0  0
 21 20  1  0  0  0  0
 22 21  1  0  0  0  0
 24 23  1  0  0  0  0
 25 24  1  0  0  0  0
 26 25  1  0  0  0  0
 27 29  1  0  0  0  0
 28 29  2  0  0  0  0
 29 26  1  0  0  0  0
 30 31  1  0  0  0  0
 32 33  1  0  0  0  0
 32 31  1  0  0  0  0
 34 39  1  0  0  0  0
 35 34  1  6  0  0  0
 35 40  1  0  0  0  0
 35 37  1  0  0  0  0
 36 38  1  0  0  0  0
 37 38  1  6  0  0  0
 39 33  1  1  0  0  0
 39 36  1  0  0  0  0
 40 42  1  1  0  0  0
 40 37  1  0  0  0  0
 42 41  2  0  0  0  0
 43 44  1  0  0  0  0
 43 46  1  0  0  0  0
 44 45  2  0  0  0  0
 44 46  1  0  0  0  0
 46 42  1  0  0  0  0
 47 32  1  0  0  0  0
 48 47  1  6  0  0  0
 50 49  1  1  0  0  0
 50 48  1  0  0  0  0
 51 50  1  0  0  0  0
 52 53  1  0  0  0  0
 53 48  1  0  0  0  0
 54 53  2  0  0  0  0
M  END
>  <MODEL>
9

>  <REMARK>
 VINA RESULT:      -5.2      3.128      9.032
  Name = 
  19 active torsions:
  status: ('A' for Active; 'I' for Inactive)
    1  A    between atoms: N_1  and  C_22
    2  A    between atoms: N_1  and  C_27
    3  A    between atoms: N_1  and  C_48
    4  A    between atoms: C_3  and  O_19
    5  A    between atoms: C_8  and  C_22
    6  A    between atoms: C_8  and  C_34
    7  A    between atoms: C_9  and  C_21
    8  A    between atoms: C_9  and  C_51
    9  A    between atoms: N_10  and  C_21
   10  A    between atoms: O_19  and  C_46
   11  A    between atoms: C_23  and  C_52
   12  A    between atoms: C_27  and  C_42
   13  A    between atoms: C_29  and  C_42
   14  A    between atoms: C_31  and  C_42
   15  A    between atoms: C_36  and  N_47
   16  A    between atoms: C_36  and  C_54
   17  A    between atoms: C_39  and  C_51
   18  A    between atoms: C_43  and  C_48
   19  A    between atoms: C_46  and  C_52
                            x       y       z     vdW  Elec       q    Type
                         _______ _______ _______ _____ _____    ______ ____

>  <TORSDO>
F 19

$$$$
