=
 OpenBabel11072408463D

 36 40  0  0  1  0  0  0  0  0999 V2000
  189.3720  174.2850  143.9260 C   0  0  0  0  0  0  0  0  0  0  0  0
  189.6610  175.1440  145.0080 C   0  0  0  0  0  0  0  0  0  0  0  0
  189.2400  177.2450  146.2250 N   0  0  0  0  0  2  0  0  0  0  0  0
  190.1490  173.0040  143.7660 C   0  0  0  0  0  2  0  0  0  0  0  0
  191.3820  171.0900  141.7020 O   0  0  0  0  0  0  0  0  0  0  0  0
  190.4540  172.7350  140.3010 C   0  0  0  0  0  2  0  0  0  0  0  0
  188.9830  176.3720  145.1200 C   0  0  0  0  0  0  0  0  0  0  0  0
  188.3920  174.6550  142.9690 C   0  0  0  0  0  0  0  0  0  0  0  0
  190.7190  174.7830  146.0350 C   0  0  2  0  0  3  0  0  0  0  0  0
  188.0130  176.7230  144.1860 C   0  0  0  0  0  3  0  0  0  0  0  0
  190.5130  175.5040  147.3730 C   0  0  0  0  0  2  0  0  0  0  0  0
  190.3370  177.0030  147.1540 C   0  0  0  0  0  2  0  0  0  0  0  0
  190.1150  174.1000  140.3580 O   0  0  0  0  0  0  0  0  0  0  0  0
  187.6980  175.8840  143.1190 C   0  0  0  0  0  0  0  0  0  0  0  0
  188.1780  173.7950  141.7900 C   0  0  0  0  0  0  0  0  0  0  0  0
  191.0600  172.2620  141.5910 C   0  0  0  0  0  0  0  0  0  0  0  0
  187.6440  172.6610  141.9290 O   0  0  0  0  0  0  0  0  0  0  0  0
  188.0500  173.5950  139.3890 O   0  0  0  0  0  1  0  0  0  0  0  0
  188.7100  174.2270  140.4520 C   0  0  2  0  0  3  0  0  0  0  0  0
  191.2640  173.1920  142.7470 C   0  0  0  0  0  2  0  0  0  0  0  0
  196.1550  175.3010  142.6630 O   0  0  0  0  0  1  0  0  0  0  0  0
  192.1150  174.9610  145.5130 C   0  0  0  0  0  0  0  0  0  0  0  0
  194.7240  175.2340  144.5390 C   0  0  0  0  0  0  0  0  0  0  0  0
  193.7990  176.2590  144.3210 C   0  0  0  0  0  3  0  0  0  0  0  0
  192.4940  176.1190  144.8080 C   0  0  0  0  0  3  0  0  0  0  0  0
  197.9290  174.0340  145.6550 O   0  0  0  0  0  0  0  0  0  0  0  0
  196.8330  173.7700  144.6610 S   0  0  0  0  0  0  0  0  0  0  0  0
  197.3260  172.8890  143.5470 O   0  0  0  0  0  0  0  0  0  0  0  0
  193.0560  173.9480  145.7400 C   0  0  0  0  0  3  0  0  0  0  0  0
  194.3540  174.0900  145.2500 C   0  0  0  0  0  0  0  0  0  0  0  0
  196.1330  175.2880  144.0590 C   0  0  1  0  0  3  0  0  0  0  0  0
  195.4110  173.0640  145.4520 C   0  0  0  0  0  2  0  0  0  0  0  0
  186.6640  176.3280  142.2260 N   0  0  0  0  0  2  0  0  0  0  0  0
  185.3090  178.3080  141.8820 C   0  0  0  0  0  1  0  0  0  0  0  0
  186.6110  177.6160  141.5470 C   0  0  0  0  0  3  0  0  0  0  0  0
  186.6970  177.4110  140.0470 C   0  0  0  0  0  1  0  0  0  0  0  0
  1  2  1  0  0  0  0
  2  7  2  0  0  0  0
  2  9  1  0  0  0  0
  3 12  1  0  0  0  0
  4  1  1  0  0  0  0
  6 13  1  0  0  0  0
  6 16  1  0  0  0  0
  7  3  1  0  0  0  0
  8 14  1  0  0  0  0
  8  1  2  0  0  0  0
  9 22  1  6  0  0  0
  9 11  1  0  0  0  0
 10  7  1  0  0  0  0
 12 11  1  0  0  0  0
 13 19  1  0  0  0  0
 14 10  2  0  0  0  0
 15 17  2  0  0  0  0
 15  8  1  0  0  0  0
 16  5  2  0  0  0  0
 16 20  1  0  0  0  0
 19 18  1  6  0  0  0
 19 15  1  0  0  0  0
 20  4  1  0  0  0  0
 22 29  1  0  0  0  0
 23 30  1  0  0  0  0
 24 23  2  0  0  0  0
 24 25  1  0  0  0  0
 25 22  2  0  0  0  0
 27 32  1  0  0  0  0
 27 26  2  0  0  0  0
 28 27  2  0  0  0  0
 30 32  1  0  0  0  0
 30 29  2  0  0  0  0
 31 21  1  6  0  0  0
 31 23  1  0  0  0  0
 31 27  1  0  0  0  0
 33 14  1  0  0  0  0
 35 34  1  0  0  0  0
 35 33  1  0  0  0  0
 36 35  1  0  0  0  0
M  END
>  <MODEL>
1

>  <REMARK>
 VINA RESULT:      -8.4      0.000      0.000
  Name = 
  3 active torsions:
  status: ('A' for Active; 'I' for Inactive)
    1  A    between atoms: C_2  and  C_18
    2  A    between atoms: N_10  and  C_17
    3  A    between atoms: N_10  and  C_24
                            x       y       z     vdW  Elec       q    Type
                         _______ _______ _______ _____ _____    ______ ____

>  <TORSDO>
F 3

$$$$
=
 OpenBabel11072408463D

 36 40  0  0  1  0  0  0  0  0999 V2000
  188.6250  175.8630  144.7540 C   0  0  0  0  0  0  0  0  0  0  0  0
  189.5030  176.0720  145.8400 C   0  0  0  0  0  0  0  0  0  0  0  0
  190.1860  177.4090  147.7940 N   0  0  0  0  0  2  0  0  0  0  0  0
  188.8590  174.7040  143.8220 C   0  0  0  0  0  2  0  0  0  0  0  0
  188.6900  173.8020  140.8890 O   0  0  0  0  0  0  0  0  0  0  0  0
  187.9380  176.0240  140.7270 C   0  0  0  0  0  2  0  0  0  0  0  0
  189.3250  177.1940  146.6700 C   0  0  0  0  0  0  0  0  0  0  0  0
  187.5630  176.7730  144.5160 C   0  0  0  0  0  0  0  0  0  0  0  0
  190.6600  175.1260  146.1060 C   0  0  2  0  0  3  0  0  0  0  0  0
  188.2740  178.0750  146.4400 C   0  0  0  0  0  3  0  0  0  0  0  0
  191.1340  175.1680  147.5640 C   0  0  0  0  0  2  0  0  0  0  0  0
  191.3850  176.6060  148.0060 C   0  0  0  0  0  2  0  0  0  0  0  0
  188.0900  177.2420  141.4180 O   0  0  0  0  0  0  0  0  0  0  0  0
  187.3840  177.8810  145.3850 C   0  0  0  0  0  0  0  0  0  0  0  0
  186.7210  176.5980  143.3180 C   0  0  0  0  0  0  0  0  0  0  0  0
  188.7410  174.9260  141.3630 C   0  0  0  0  0  0  0  0  0  0  0  0
  185.9280  175.6200  143.2460 O   0  0  0  0  0  0  0  0  0  0  0  0
  185.7760  177.5510  141.3140 O   0  0  0  0  0  1  0  0  0  0  0  0
  186.9060  177.5160  142.1420 C   0  0  2  0  0  3  0  0  0  0  0  0
  189.5880  175.1750  142.5720 C   0  0  0  0  0  2  0  0  0  0  0  0
  194.5860  176.1580  141.1340 O   0  0  0  0  0  1  0  0  0  0  0  0
  191.7960  175.3180  145.1440 C   0  0  0  0  0  0  0  0  0  0  0  0
  193.9050  175.6210  143.3300 C   0  0  0  0  0  0  0  0  0  0  0  0
  193.2190  176.7520  143.7790 C   0  0  0  0  0  3  0  0  0  0  0  0
  192.1630  176.5980  144.6860 C   0  0  0  0  0  3  0  0  0  0  0  0
  196.9380  173.7800  142.7190 O   0  0  0  0  0  0  0  0  0  0  0  0
  195.5390  173.9830  142.2090 S   0  0  0  0  0  0  0  0  0  0  0  0
  195.4100  173.4790  140.7990 O   0  0  0  0  0  0  0  0  0  0  0  0
  192.5020  174.1930  144.6980 C   0  0  0  0  0  3  0  0  0  0  0  0
  193.5520  174.3500  143.7920 C   0  0  0  0  0  0  0  0  0  0  0  0
  195.0390  175.6810  142.3660 C   0  0  1  0  0  3  0  0  0  0  0  0
  194.3520  173.2100  143.2760 C   0  0  0  0  0  2  0  0  0  0  0  0
  186.3170  178.8340  145.2510 N   0  0  0  0  0  2  0  0  0  0  0  0
  184.8250  177.3360  146.4360 C   0  0  0  0  0  1  0  0  0  0  0  0
  184.9680  178.6920  145.7820 C   0  0  0  0  0  3  0  0  0  0  0  0
  183.9570  178.8140  144.6580 C   0  0  0  0  0  1  0  0  0  0  0  0
  1  2  1  0  0  0  0
  2  9  1  0  0  0  0
  2  7  2  0  0  0  0
  3 12  1  0  0  0  0
  4  1  1  0  0  0  0
  5 16  2  0  0  0  0
  6 16  1  0  0  0  0
  6 13  1  0  0  0  0
  7  3  1  0  0  0  0
  8  1  2  0  0  0  0
  8 14  1  0  0  0  0
  9 22  1  6  0  0  0
  9 11  1  0  0  0  0
 10  7  1  0  0  0  0
 11 12  1  0  0  0  0
 13 19  1  0  0  0  0
 14 10  2  0  0  0  0
 15  8  1  0  0  0  0
 16 20  1  0  0  0  0
 17 15  2  0  0  0  0
 19 18  1  6  0  0  0
 19 15  1  0  0  0  0
 20  4  1  0  0  0  0
 23 24  2  0  0  0  0
 23 30  1  0  0  0  0
 24 25  1  0  0  0  0
 25 22  2  0  0  0  0
 27 31  1  0  0  0  0
 27 26  2  0  0  0  0
 27 32  1  0  0  0  0
 28 27  2  0  0  0  0
 29 22  1  0  0  0  0
 30 29  2  0  0  0  0
 31 21  1  6  0  0  0
 31 23  1  0  0  0  0
 32 30  1  0  0  0  0
 33 14  1  0  0  0  0
 33 35  1  0  0  0  0
 35 34  1  0  0  0  0
 36 35  1  0  0  0  0
M  END
>  <MODEL>
2

>  <REMARK>
 VINA RESULT:      -8.3      2.195      2.981
  Name = 
  3 active torsions:
  status: ('A' for Active; 'I' for Inactive)
    1  A    between atoms: C_2  and  C_18
    2  A    between atoms: N_10  and  C_17
    3  A    between atoms: N_10  and  C_24
                            x       y       z     vdW  Elec       q    Type
                         _______ _______ _______ _____ _____    ______ ____

>  <TORSDO>
F 3

$$$$
=
 OpenBabel11072408463D

 36 40  0  0  1  0  0  0  0  0999 V2000
  189.4870  174.0690  143.8890 C   0  0  0  0  0  0  0  0  0  0  0  0
  189.9190  174.9350  144.9160 C   0  0  0  0  0  0  0  0  0  0  0  0
  189.8310  177.1390  146.0150 N   0  0  0  0  0  2  0  0  0  0  0  0
  190.0670  172.6820  143.7930 C   0  0  0  0  0  2  0  0  0  0  0  0
  190.9690  170.4980  141.8280 O   0  0  0  0  0  0  0  0  0  0  0  0
  190.2620  172.1810  140.3460 C   0  0  0  0  0  2  0  0  0  0  0  0
  189.4290  176.2530  144.9650 C   0  0  0  0  0  0  0  0  0  0  0  0
  188.5520  174.5240  142.9240 C   0  0  0  0  0  0  0  0  0  0  0  0
  190.9330  174.4810  145.9500 C   0  0  2  0  0  3  0  0  0  0  0  0
  188.5020  176.6900  144.0250 C   0  0  0  0  0  3  0  0  0  0  0  0
  190.8610  175.2960  147.2470 C   0  0  0  0  0  2  0  0  0  0  0  0
  190.9000  176.7910  146.9450 C   0  0  0  0  0  2  0  0  0  0  0  0
  190.1260  173.5830  140.3290 O   0  0  0  0  0  0  0  0  0  0  0  0
  188.0470  175.8480  143.0110 C   0  0  0  0  0  0  0  0  0  0  0  0
  188.1930  173.6420  141.7980 C   0  0  0  0  0  0  0  0  0  0  0  0
  190.8190  171.6970  141.6540 C   0  0  0  0  0  0  0  0  0  0  0  0
  187.5030  172.6070  142.0080 O   0  0  0  0  0  0  0  0  0  0  0  0
  187.9900  173.3310  139.4150 O   0  0  0  0  0  1  0  0  0  0  0  0
  188.7550  173.9170  140.4310 C   0  0  2  0  0  3  0  0  0  0  0  0
  191.1770  172.6490  142.7520 C   0  0  0  0  0  2  0  0  0  0  0  0
  197.2430  174.6360  144.7850 O   0  0  0  0  0  1  0  0  0  0  0  0
  192.3310  174.4250  145.4030 C   0  0  0  0  0  0  0  0  0  0  0  0
  194.9320  174.3810  144.3750 C   0  0  0  0  0  0  0  0  0  0  0  0
  194.5220  173.3710  145.2490 C   0  0  0  0  0  3  0  0  0  0  0  0
  193.2210  173.3960  145.7630 C   0  0  0  0  0  3  0  0  0  0  0  0
  196.4010  175.5080  141.2870 O   0  0  0  0  0  0  0  0  0  0  0  0
  196.2240  175.8790  142.7330 S   0  0  0  0  0  0  0  0  0  0  0  0
  197.2210  176.9280  143.1370 O   0  0  0  0  0  0  0  0  0  0  0  0
  192.7480  175.4240  144.5130 C   0  0  0  0  0  3  0  0  0  0  0  0
  194.0470  175.3980  144.0060 C   0  0  0  0  0  0  0  0  0  0  0  0
  196.2960  174.4430  143.7780 C   0  0  1  0  0  3  0  0  0  0  0  0
  194.5650  176.4160  143.0550 C   0  0  0  0  0  2  0  0  0  0  0  0
  187.0700  176.3890  142.1060 N   0  0  0  0  0  2  0  0  0  0  0  0
  186.2430  178.6660  142.1480 C   0  0  0  0  0  1  0  0  0  0  0  0
  187.1430  177.6800  141.4370 C   0  0  0  0  0  3  0  0  0  0  0  0
  186.6910  177.5410  139.9960 C   0  0  0  0  0  1  0  0  0  0  0  0
  1  2  1  0  0  0  0
  2  7  2  0  0  0  0
  2  9  1  0  0  0  0
  3 12  1  0  0  0  0
  4  1  1  0  0  0  0
  6 16  1  0  0  0  0
  7  3  1  0  0  0  0
  8 14  1  0  0  0  0
  8  1  2  0  0  0  0
  9 22  1  6  0  0  0
  9 11  1  0  0  0  0
 10  7  1  0  0  0  0
 12 11  1  0  0  0  0
 13  6  1  0  0  0  0
 13 19  1  0  0  0  0
 14 10  2  0  0  0  0
 15 17  2  0  0  0  0
 15  8  1  0  0  0  0
 16  5  2  0  0  0  0
 16 20  1  0  0  0  0
 19 18  1  6  0  0  0
 19 15  1  0  0  0  0
 20  4  1  0  0  0  0
 22 25  1  0  0  0  0
 23 24  1  0  0  0  0
 24 25  2  0  0  0  0
 26 27  2  0  0  0  0
 27 32  1  0  0  0  0
 27 28  2  0  0  0  0
 27 31  1  0  0  0  0
 29 22  2  0  0  0  0
 30 23  2  0  0  0  0
 30 29  1  0  0  0  0
 31 23  1  0  0  0  0
 31 21  1  1  0  0  0
 32 30  1  0  0  0  0
 33 14  1  0  0  0  0
 35 33  1  0  0  0  0
 35 34  1  0  0  0  0
 36 35  1  0  0  0  0
M  END
>  <MODEL>
3

>  <REMARK>
 VINA RESULT:      -8.2      0.887      1.715
  Name = 
  3 active torsions:
  status: ('A' for Active; 'I' for Inactive)
    1  A    between atoms: C_2  and  C_18
    2  A    between atoms: N_10  and  C_17
    3  A    between atoms: N_10  and  C_24
                            x       y       z     vdW  Elec       q    Type
                         _______ _______ _______ _____ _____    ______ ____

>  <TORSDO>
F 3

$$$$
=
 OpenBabel11072408463D

 36 40  0  0  1  0  0  0  0  0999 V2000
  191.9960  174.1930  143.3130 C   0  0  0  0  0  0  0  0  0  0  0  0
  192.4730  175.0050  144.3640 C   0  0  0  0  0  0  0  0  0  0  0  0
  193.7410  175.2350  146.4650 N   0  0  0  0  0  2  0  0  0  0  0  0
  191.1320  174.7990  142.2380 C   0  0  0  0  0  2  0  0  0  0  0  0
  188.7410  174.2710  140.3820 O   0  0  0  0  0  0  0  0  0  0  0  0
  188.8760  172.2310  141.5440 C   0  0  0  0  0  2  0  0  0  0  0  0
  193.2230  174.4250  145.4040 C   0  0  0  0  0  0  0  0  0  0  0  0
  192.2880  172.8040  143.3010 C   0  0  0  0  0  0  0  0  0  0  0  0
  192.1600  176.4900  144.4120 C   0  0  2  0  0  3  0  0  0  0  0  0
  193.5170  173.0660  145.3800 C   0  0  0  0  0  3  0  0  0  0  0  0
  193.1700  177.2790  145.2530 C   0  0  0  0  0  2  0  0  0  0  0  0
  193.3530  176.6320  146.6220 C   0  0  0  0  0  2  0  0  0  0  0  0
  189.3330  171.7540  142.7870 O   0  0  0  0  0  0  0  0  0  0  0  0
  193.0720  172.2460  144.3440 C   0  0  0  0  0  0  0  0  0  0  0  0
  191.6940  171.9540  142.2530 C   0  0  0  0  0  0  0  0  0  0  0  0
  189.0670  173.7160  141.4190 C   0  0  0  0  0  0  0  0  0  0  0  0
  192.0830  172.0660  141.0590 O   0  0  0  0  0  0  0  0  0  0  0  0
  190.4040  169.9970  141.6800 O   0  0  0  0  0  1  0  0  0  0  0  0
  190.5440  171.0480  142.5960 C   0  0  2  0  0  3  0  0  0  0  0  0
  189.6640  174.5240  142.5280 C   0  0  0  0  0  2  0  0  0  0  0  0
  185.9460  176.4210  146.0180 O   0  0  0  0  0  1  0  0  0  0  0  0
  190.7450  176.7680  144.8320 C   0  0  0  0  0  0  0  0  0  0  0  0
  188.0930  177.2870  145.5560 C   0  0  0  0  0  0  0  0  0  0  0  0
  188.9400  176.6480  146.4650 C   0  0  0  0  0  3  0  0  0  0  0  0
  190.2660  176.3880  146.1000 C   0  0  0  0  0  3  0  0  0  0  0  0
  185.7400  179.8660  144.6810 O   0  0  0  0  0  0  0  0  0  0  0  0
  186.1200  178.4430  144.3830 S   0  0  0  0  0  0  0  0  0  0  0  0
  184.9900  177.7230  143.7030 O   0  0  0  0  0  0  0  0  0  0  0  0
  189.8910  177.4230  143.9350 C   0  0  0  0  0  3  0  0  0  0  0  0
  188.5690  177.6770  144.3010 C   0  0  0  0  0  0  0  0  0  0  0  0
  186.6680  177.6040  145.8500 C   0  0  1  0  0  3  0  0  0  0  0  0
  187.6020  178.3700  143.4110 C   0  0  0  0  0  2  0  0  0  0  0  0
  193.4520  170.8620  144.4010 N   0  0  0  0  0  2  0  0  0  0  0  0
  195.8200  170.3470  144.3920 C   0  0  0  0  0  1  0  0  0  0  0  0
  194.5390  170.3030  145.1940 C   0  0  0  0  0  3  0  0  0  0  0  0
  194.2250  168.8640  145.5550 C   0  0  0  0  0  1  0  0  0  0  0  0
  1  2  1  0  0  0  0
  2  9  1  0  0  0  0
  2  7  2  0  0  0  0
  3 12  1  0  0  0  0
  4 20  1  0  0  0  0
  4  1  1  0  0  0  0
  5 16  2  0  0  0  0
  6 13  1  0  0  0  0
  7  3  1  0  0  0  0
  8  1  2  0  0  0  0
  8 14  1  0  0  0  0
  9 22  1  1  0  0  0
  9 11  1  0  0  0  0
 10  7  1  0  0  0  0
 11 12  1  0  0  0  0
 14 33  1  0  0  0  0
 14 10  2  0  0  0  0
 15 19  1  0  0  0  0
 15  8  1  0  0  0  0
 16  6  1  0  0  0  0
 16 20  1  0  0  0  0
 17 15  2  0  0  0  0
 19 18  1  6  0  0  0
 19 13  1  0  0  0  0
 22 25  1  0  0  0  0
 23 31  1  0  0  0  0
 23 24  1  0  0  0  0
 25 24  2  0  0  0  0
 27 26  2  0  0  0  0
 27 31  1  0  0  0  0
 28 27  2  0  0  0  0
 29 30  1  0  0  0  0
 29 22  2  0  0  0  0
 30 23  2  0  0  0  0
 31 21  1  6  0  0  0
 32 30  1  0  0  0  0
 32 27  1  0  0  0  0
 33 35  1  0  0  0  0
 34 35  1  0  0  0  0
 35 36  1  0  0  0  0
M  END
>  <MODEL>
4

>  <REMARK>
 VINA RESULT:      -7.5      3.552      7.166
  Name = 
  3 active torsions:
  status: ('A' for Active; 'I' for Inactive)
    1  A    between atoms: C_2  and  C_18
    2  A    between atoms: N_10  and  C_17
    3  A    between atoms: N_10  and  C_24
                            x       y       z     vdW  Elec       q    Type
                         _______ _______ _______ _____ _____    ______ ____

>  <TORSDO>
F 3

$$$$
=
 OpenBabel11072408463D

 36 40  0  0  1  0  0  0  0  0999 V2000
  191.5940  175.8300  143.6730 C   0  0  0  0  0  0  0  0  0  0  0  0
  192.2480  175.2610  142.5590 C   0  0  0  0  0  0  0  0  0  0  0  0
  192.1300  174.0430  140.4200 N   0  0  0  0  0  2  0  0  0  0  0  0
  192.4100  176.4700  144.7660 C   0  0  0  0  0  2  0  0  0  0  0  0
  192.5820  176.9100  147.8030 O   0  0  0  0  0  0  0  0  0  0  0  0
  190.6160  175.6300  147.6380 C   0  0  0  0  0  2  0  0  0  0  0  0
  191.4910  174.6030  141.5720 C   0  0  0  0  0  0  0  0  0  0  0  0
  190.1820  175.7520  143.7840 C   0  0  0  0  0  0  0  0  0  0  0  0
  193.7590  175.3120  142.4250 C   0  0  2  0  0  3  0  0  0  0  0  0
  190.1050  174.5410  141.6790 C   0  0  0  0  0  3  0  0  0  0  0  0
  194.2280  175.1680  140.9730 C   0  0  0  0  0  2  0  0  0  0  0  0
  193.5820  173.9510  140.3180 C   0  0  0  0  0  2  0  0  0  0  0  0
  190.0480  174.6770  146.7710 O   0  0  0  0  0  0  0  0  0  0  0  0
  189.4360  175.1110  142.7610 C   0  0  0  0  0  0  0  0  0  0  0  0
  189.5270  176.2590  145.0040 C   0  0  0  0  0  0  0  0  0  0  0  0
  191.9740  176.0650  147.1650 C   0  0  0  0  0  0  0  0  0  0  0  0
  189.4960  177.4990  145.2290 O   0  0  0  0  0  0  0  0  0  0  0  0
  188.0320  175.8550  146.8530 O   0  0  0  0  0  1  0  0  0  0  0  0
  189.0100  175.2860  146.0270 C   0  0  2  0  0  3  0  0  0  0  0  0
  192.5890  175.4990  145.9240 C   0  0  0  0  0  2  0  0  0  0  0  0
  197.6090  171.1180  145.3880 O   0  0  0  0  0  1  0  0  0  0  0  0
  194.4530  174.3410  143.3360 C   0  0  0  0  0  0  0  0  0  0  0  0
  195.7250  172.4860  145.0000 C   0  0  0  0  0  0  0  0  0  0  0  0
  196.2370  173.7820  144.8990 C   0  0  0  0  0  3  0  0  0  0  0  0
  195.6010  174.7080  144.0650 C   0  0  0  0  0  3  0  0  0  0  0  0
  194.5660  169.6690  146.9190 O   0  0  0  0  0  0  0  0  0  0  0  0
  195.2480  170.0400  145.6320 S   0  0  0  0  0  0  0  0  0  0  0  0
  195.9590  168.8530  145.0460 O   0  0  0  0  0  0  0  0  0  0  0  0
  193.9390  173.0430  143.4580 C   0  0  0  0  0  3  0  0  0  0  0  0
  194.5790  172.1220  144.2880 C   0  0  0  0  0  0  0  0  0  0  0  0
  196.3320  171.4300  145.8580 C   0  0  1  0  0  3  0  0  0  0  0  0
  194.0950  170.7300  144.4750 C   0  0  0  0  0  2  0  0  0  0  0  0
  188.0020  175.0140  142.7620 N   0  0  0  0  0  2  0  0  0  0  0  0
  187.8510  177.2180  141.7670 C   0  0  0  0  0  1  0  0  0  0  0  0
  187.0730  176.0250  142.2760 C   0  0  0  0  0  3  0  0  0  0  0  0
  186.1580  176.4670  143.4010 C   0  0  0  0  0  1  0  0  0  0  0  0
  1  8  1  0  0  0  0
  1  4  1  0  0  0  0
  2  1  2  0  0  0  0
  3  7  1  0  0  0  0
  4 20  1  0  0  0  0
  7 10  2  0  0  0  0
  7  2  1  0  0  0  0
  8 15  1  0  0  0  0
  9  2  1  0  0  0  0
  9 22  1  1  0  0  0
 10 14  1  0  0  0  0
 11  9  1  0  0  0  0
 12  3  1  0  0  0  0
 12 11  1  0  0  0  0
 13  6  1  0  0  0  0
 14 33  1  0  0  0  0
 14  8  2  0  0  0  0
 15 17  2  0  0  0  0
 15 19  1  0  0  0  0
 16  6  1  0  0  0  0
 16  5  2  0  0  0  0
 19 13  1  0  0  0  0
 19 18  1  1  0  0  0
 20 16  1  0  0  0  0
 22 29  2  0  0  0  0
 22 25  1  0  0  0  0
 23 31  1  0  0  0  0
 24 23  1  0  0  0  0
 25 24  2  0  0  0  0
 27 31  1  0  0  0  0
 27 26  2  0  0  0  0
 28 27  2  0  0  0  0
 29 30  1  0  0  0  0
 30 32  1  0  0  0  0
 30 23  2  0  0  0  0
 31 21  1  6  0  0  0
 32 27  1  0  0  0  0
 34 35  1  0  0  0  0
 35 33  1  0  0  0  0
 35 36  1  0  0  0  0
M  END
>  <MODEL>
5

>  <REMARK>
 VINA RESULT:      -7.4      3.082      4.931
  Name = 
  3 active torsions:
  status: ('A' for Active; 'I' for Inactive)
    1  A    between atoms: C_2  and  C_18
    2  A    between atoms: N_10  and  C_17
    3  A    between atoms: N_10  and  C_24
                            x       y       z     vdW  Elec       q    Type
                         _______ _______ _______ _____ _____    ______ ____

>  <TORSDO>
F 3

$$$$
=
 OpenBabel11072408463D

 36 40  0  0  1  0  0  0  0  0999 V2000
  188.0410  174.7430  140.8460 C   0  0  0  0  0  0  0  0  0  0  0  0
  187.5690  175.9320  141.4430 C   0  0  0  0  0  0  0  0  0  0  0  0
  186.5500  178.1640  141.2160 N   0  0  0  0  0  2  0  0  0  0  0  0
  188.6520  173.6710  141.7090 C   0  0  0  0  0  2  0  0  0  0  0  0
  190.8510  171.5260  141.8210 O   0  0  0  0  0  0  0  0  0  0  0  0
  191.2020  172.4290  139.6780 C   0  0  0  0  0  2  0  0  0  0  0  0
  187.0610  176.9620  140.6300 C   0  0  0  0  0  0  0  0  0  0  0  0
  187.9860  174.5870  139.4370 C   0  0  0  0  0  0  0  0  0  0  0  0
  187.6330  176.1350  142.9460 C   0  0  2  0  0  3  0  0  0  0  0  0
  186.9970  176.7980  139.2500 C   0  0  0  0  0  3  0  0  0  0  0  0
  186.6170  177.1680  143.4470 C   0  0  0  0  0  2  0  0  0  0  0  0
  186.7160  178.4560  142.6350 C   0  0  0  0  0  2  0  0  0  0  0  0
  190.9880  173.6420  138.9970 O   0  0  0  0  0  0  0  0  0  0  0  0
  187.4410  175.6260  138.6400 C   0  0  0  0  0  0  0  0  0  0  0  0
  188.5790  173.3830  138.8240 C   0  0  0  0  0  0  0  0  0  0  0  0
  190.7520  172.5120  141.1090 C   0  0  0  0  0  0  0  0  0  0  0  0
  188.0320  172.2600  138.9910 O   0  0  0  0  0  0  0  0  0  0  0  0
  190.0960  172.4390  137.2040 O   0  0  0  0  0  1  0  0  0  0  0  0
  189.8980  173.4900  138.1090 C   0  0  2  0  0  3  0  0  0  0  0  0
  190.1700  173.7710  141.6740 C   0  0  0  0  0  2  0  0  0  0  0  0
  193.9320  176.6230  144.0790 O   0  0  0  0  0  1  0  0  0  0  0  0
  189.0230  176.4380  143.4280 C   0  0  0  0  0  0  0  0  0  0  0  0
  191.6110  176.9520  144.3580 C   0  0  0  0  0  0  0  0  0  0  0  0
  191.1840  177.5310  143.1600 C   0  0  0  0  0  3  0  0  0  0  0  0
  189.8900  177.2720  142.6960 C   0  0  0  0  0  3  0  0  0  0  0  0
  193.0760  177.1560  147.6400 O   0  0  0  0  0  0  0  0  0  0  0  0
  192.9240  176.2470  146.4530 S   0  0  0  0  0  0  0  0  0  0  0  0
  193.9520  175.1520  146.4880 O   0  0  0  0  0  0  0  0  0  0  0  0
  189.4560  175.8760  144.6360 C   0  0  0  0  0  3  0  0  0  0  0  0
  190.7490  176.1340  145.0930 C   0  0  0  0  0  0  0  0  0  0  0  0
  192.9690  177.1650  144.9320 C   0  0  1  0  0  3  0  0  0  0  0  0
  191.2830  175.5810  146.3650 C   0  0  0  0  0  2  0  0  0  0  0  0
  187.3070  175.5470  137.2110 N   0  0  0  0  0  2  0  0  0  0  0  0
  185.5610  176.0410  135.6050 C   0  0  0  0  0  1  0  0  0  0  0  0
  186.7660  176.5820  136.3410 C   0  0  0  0  0  3  0  0  0  0  0  0
  187.8160  177.0100  135.3350 C   0  0  0  0  0  1  0  0  0  0  0  0
  1  2  1  0  0  0  0
  1  4  1  0  0  0  0
  2  9  1  0  0  0  0
  3 12  1  0  0  0  0
  6 16  1  0  0  0  0
  7  3  1  0  0  0  0
  7  2  2  0  0  0  0
  8  1  2  0  0  0  0
  9 22  1  6  0  0  0
  9 11  1  0  0  0  0
 10  7  1  0  0  0  0
 12 11  1  0  0  0  0
 13  6  1  0  0  0  0
 14 10  2  0  0  0  0
 14  8  1  0  0  0  0
 15 17  2  0  0  0  0
 15  8  1  0  0  0  0
 16 20  1  0  0  0  0
 16  5  2  0  0  0  0
 19 18  1  1  0  0  0
 19 15  1  0  0  0  0
 19 13  1  0  0  0  0
 20  4  1  0  0  0  0
 22 29  1  0  0  0  0
 23 31  1  0  0  0  0
 23 30  1  0  0  0  0
 24 23  2  0  0  0  0
 25 24  1  0  0  0  0
 25 22  2  0  0  0  0
 27 28  2  0  0  0  0
 27 26  2  0  0  0  0
 29 30  2  0  0  0  0
 30 32  1  0  0  0  0
 31 21  1  6  0  0  0
 31 27  1  0  0  0  0
 32 27  1  0  0  0  0
 33 14  1  0  0  0  0
 34 35  1  0  0  0  0
 35 33  1  0  0  0  0
 36 35  1  0  0  0  0
M  END
>  <MODEL>
6

>  <REMARK>
 VINA RESULT:      -7.4      2.622      4.176
  Name = 
  3 active torsions:
  status: ('A' for Active; 'I' for Inactive)
    1  A    between atoms: C_2  and  C_18
    2  A    between atoms: N_10  and  C_17
    3  A    between atoms: N_10  and  C_24
                            x       y       z     vdW  Elec       q    Type
                         _______ _______ _______ _____ _____    ______ ____

>  <TORSDO>
F 3

$$$$
=
 OpenBabel11072408463D

 36 40  0  0  1  0  0  0  0  0999 V2000
  190.9880  175.7550  143.2320 C   0  0  0  0  0  0  0  0  0  0  0  0
  190.9230  174.8520  142.1500 C   0  0  0  0  0  0  0  0  0  0  0  0
  189.5780  173.5610  140.5370 N   0  0  0  0  0  2  0  0  0  0  0  0
  192.3290  176.1240  143.8120 C   0  0  0  0  0  2  0  0  0  0  0  0
  193.8080  176.7840  146.4230 O   0  0  0  0  0  0  0  0  0  0  0  0
  191.6280  176.4020  147.2180 C   0  0  0  0  0  2  0  0  0  0  0  0
  189.6680  174.4540  141.6520 C   0  0  0  0  0  0  0  0  0  0  0  0
  189.7940  176.2690  143.8010 C   0  0  0  0  0  0  0  0  0  0  0  0
  192.1830  174.2710  141.5350 C   0  0  2  0  0  3  0  0  0  0  0  0
  188.5010  174.9720  142.2050 C   0  0  0  0  0  3  0  0  0  0  0  0
  191.9700  173.7910  140.0940 C   0  0  0  0  0  2  0  0  0  0  0  0
  190.7520  172.8780  140.0060 C   0  0  0  0  0  2  0  0  0  0  0  0
  190.4820  175.6740  146.8450 O   0  0  0  0  0  0  0  0  0  0  0  0
  188.5400  175.8780  143.2630 C   0  0  0  0  0  0  0  0  0  0  0  0
  189.8790  177.1280  144.9960 C   0  0  0  0  0  0  0  0  0  0  0  0
  192.7540  176.1950  146.2460 C   0  0  0  0  0  0  0  0  0  0  0  0
  190.3580  178.2910  144.9000 O   0  0  0  0  0  0  0  0  0  0  0  0
  189.1820  177.5700  147.2630 O   0  0  0  0  0  1  0  0  0  0  0  0
  189.5080  176.5670  146.3400 C   0  0  2  0  0  3  0  0  0  0  0  0
  192.6060  175.2960  145.0580 C   0  0  0  0  0  2  0  0  0  0  0  0
  194.4570  170.4620  146.1730 O   0  0  0  0  0  1  0  0  0  0  0  0
  192.8060  173.2070  142.3920 C   0  0  0  0  0  0  0  0  0  0  0  0
  194.0160  171.2590  143.9960 C   0  0  0  0  0  0  0  0  0  0  0  0
  192.6220  171.3070  143.9080 C   0  0  0  0  0  3  0  0  0  0  0  0
  192.0190  172.2830  143.1060 C   0  0  0  0  0  3  0  0  0  0  0  0
  197.1510  169.4990  143.8250 O   0  0  0  0  0  0  0  0  0  0  0  0
  196.4570  170.6410  144.5110 S   0  0  0  0  0  0  0  0  0  0  0  0
  197.1910  171.0330  145.7630 O   0  0  0  0  0  0  0  0  0  0  0  0
  194.2030  173.1390  142.4760 C   0  0  0  0  0  3  0  0  0  0  0  0
  194.8000  172.1670  143.2790 C   0  0  0  0  0  0  0  0  0  0  0  0
  194.7490  170.2610  144.8230 C   0  0  1  0  0  3  0  0  0  0  0  0
  196.2730  172.0250  143.4180 C   0  0  0  0  0  2  0  0  0  0  0  0
  187.2790  176.3720  143.7430 N   0  0  0  0  0  2  0  0  0  0  0  0
  186.4000  178.4050  144.7270 C   0  0  0  0  0  1  0  0  0  0  0  0
  186.6940  177.6710  143.4380 C   0  0  0  0  0  3  0  0  0  0  0  0
  185.4040  177.4850  142.6630 C   0  0  0  0  0  1  0  0  0  0  0  0
  1  8  1  0  0  0  0
  1  4  1  0  0  0  0
  2  1  2  0  0  0  0
  3  7  1  0  0  0  0
  4 20  1  0  0  0  0
  7  2  1  0  0  0  0
  7 10  2  0  0  0  0
  8 15  1  0  0  0  0
  9  2  1  0  0  0  0
  9 22  1  1  0  0  0
 10 14  1  0  0  0  0
 11  9  1  0  0  0  0
 12 11  1  0  0  0  0
 12  3  1  0  0  0  0
 13  6  1  0  0  0  0
 14 33  1  0  0  0  0
 14  8  2  0  0  0  0
 15 19  1  0  0  0  0
 16  5  2  0  0  0  0
 16  6  1  0  0  0  0
 17 15  2  0  0  0  0
 19 13  1  0  0  0  0
 19 18  1  1  0  0  0
 20 16  1  0  0  0  0
 22 29  2  0  0  0  0
 22 25  1  0  0  0  0
 23 31  1  0  0  0  0
 24 23  1  0  0  0  0
 25 24  2  0  0  0  0
 26 27  2  0  0  0  0
 27 31  1  0  0  0  0
 27 28  2  0  0  0  0
 29 30  1  0  0  0  0
 30 32  1  0  0  0  0
 30 23  2  0  0  0  0
 31 21  1  1  0  0  0
 32 27  1  0  0  0  0
 35 33  1  0  0  0  0
 35 34  1  0  0  0  0
 36 35  1  0  0  0  0
M  END
>  <MODEL>
7

>  <REMARK>
 VINA RESULT:      -7.2      2.966      4.997
  Name = 
  3 active torsions:
  status: ('A' for Active; 'I' for Inactive)
    1  A    between atoms: C_2  and  C_18
    2  A    between atoms: N_10  and  C_17
    3  A    between atoms: N_10  and  C_24
                            x       y       z     vdW  Elec       q    Type
                         _______ _______ _______ _____ _____    ______ ____

>  <TORSDO>
F 3

$$$$
=
 OpenBabel11072408463D

 36 40  0  0  1  0  0  0  0  0999 V2000
  190.7760  174.1160  143.2610 C   0  0  0  0  0  0  0  0  0  0  0  0
  190.1060  173.8930  142.0390 C   0  0  0  0  0  0  0  0  0  0  0  0
  190.1910  173.5310  139.6030 N   0  0  0  0  0  2  0  0  0  0  0  0
  189.9770  174.3030  144.5230 C   0  0  0  0  0  2  0  0  0  0  0  0
  189.8650  175.8310  147.1870 O   0  0  0  0  0  0  0  0  0  0  0  0
  191.8410  176.6950  146.2490 C   0  0  0  0  0  2  0  0  0  0  0  0
  190.8480  173.7860  140.8490 C   0  0  0  0  0  0  0  0  0  0  0  0
  192.1910  174.2150  143.2850 C   0  0  0  0  0  0  0  0  0  0  0  0
  188.5910  173.8020  141.9800 C   0  0  2  0  0  3  0  0  0  0  0  0
  192.2370  173.8700  140.8810 C   0  0  0  0  0  3  0  0  0  0  0  0
  188.0930  173.0320  140.7520 C   0  0  0  0  0  2  0  0  0  0  0  0
  188.7390  173.5720  139.4800 C   0  0  0  0  0  2  0  0  0  0  0  0
  192.4010  176.8990  144.9730 O   0  0  0  0  0  0  0  0  0  0  0  0
  192.9220  174.0730  142.0770 C   0  0  0  0  0  0  0  0  0  0  0  0
  192.8670  174.5530  144.5520 C   0  0  0  0  0  0  0  0  0  0  0  0
  190.4680  176.0910  146.1590 C   0  0  0  0  0  0  0  0  0  0  0  0
  192.8890  173.7150  145.4940 O   0  0  0  0  0  0  0  0  0  0  0  0
  194.4050  175.9780  145.7440 O   0  0  0  0  0  1  0  0  0  0  0  0
  193.4150  175.9380  144.7530 C   0  0  2  0  0  3  0  0  0  0  0  0
  189.8340  175.7850  144.8380 C   0  0  0  0  0  2  0  0  0  0  0  0
  186.8130  179.8540  143.1670 O   0  0  0  0  0  1  0  0  0  0  0  0
  187.9280  175.1430  142.1050 C   0  0  0  0  0  0  0  0  0  0  0  0
  186.6730  177.6270  142.3950 C   0  0  0  0  0  0  0  0  0  0  0  0
  187.7330  177.4940  141.4930 C   0  0  0  0  0  3  0  0  0  0  0  0
  188.3590  176.2510  141.3510 C   0  0  0  0  0  3  0  0  0  0  0  0
  183.3190  178.6330  143.2280 O   0  0  0  0  0  0  0  0  0  0  0  0
  184.6970  178.4720  143.8050 S   0  0  0  0  0  0  0  0  0  0  0  0
  184.8310  179.2480  145.0850 O   0  0  0  0  0  0  0  0  0  0  0  0
  186.8540  175.2850  142.9950 C   0  0  0  0  0  3  0  0  0  0  0  0
  186.2340  176.5270  143.1360 C   0  0  0  0  0  0  0  0  0  0  0  0
  185.9450  178.9080  142.6180 C   0  0  1  0  0  3  0  0  0  0  0  0
  185.0880  176.7590  144.0530 C   0  0  0  0  0  2  0  0  0  0  0  0
  194.3570  174.1190  142.0040 N   0  0  0  0  0  2  0  0  0  0  0  0
  196.6070  174.5580  141.2170 C   0  0  0  0  0  1  0  0  0  0  0  0
  195.1430  174.9090  141.0660 C   0  0  0  0  0  3  0  0  0  0  0  0
  194.9520  176.3860  141.3500 C   0  0  0  0  0  1  0  0  0  0  0  0
  1  8  1  0  0  0  0
  1  4  1  0  0  0  0
  2  1  2  0  0  0  0
  3  7  1  0  0  0  0
  4 20  1  0  0  0  0
  7 10  2  0  0  0  0
  7  2  1  0  0  0  0
  8 15  1  0  0  0  0
  9  2  1  0  0  0  0
  9 22  1  6  0  0  0
 10 14  1  0  0  0  0
 11  9  1  0  0  0  0
 12  3  1  0  0  0  0
 12 11  1  0  0  0  0
 13  6  1  0  0  0  0
 14  8  2  0  0  0  0
 15 19  1  0  0  0  0
 15 17  2  0  0  0  0
 16  6  1  0  0  0  0
 16  5  2  0  0  0  0
 19 13  1  0  0  0  0
 19 18  1  1  0  0  0
 20 16  1  0  0  0  0
 22 29  1  0  0  0  0
 23 31  1  0  0  0  0
 23 30  1  0  0  0  0
 24 23  2  0  0  0  0
 25 24  1  0  0  0  0
 25 22  2  0  0  0  0
 26 27  2  0  0  0  0
 27 32  1  0  0  0  0
 27 28  2  0  0  0  0
 29 30  2  0  0  0  0
 30 32  1  0  0  0  0
 31 21  1  1  0  0  0
 31 27  1  0  0  0  0
 33 14  1  0  0  0  0
 35 34  1  0  0  0  0
 35 36  1  0  0  0  0
 35 33  1  0  0  0  0
M  END
>  <MODEL>
8

>  <REMARK>
 VINA RESULT:      -6.9      4.062      8.079
  Name = 
  3 active torsions:
  status: ('A' for Active; 'I' for Inactive)
    1  A    between atoms: C_2  and  C_18
    2  A    between atoms: N_10  and  C_17
    3  A    between atoms: N_10  and  C_24
                            x       y       z     vdW  Elec       q    Type
                         _______ _______ _______ _____ _____    ______ ____

>  <TORSDO>
F 3

$$$$
=
 OpenBabel11072408463D

 36 40  0  0  1  0  0  0  0  0999 V2000
  192.9330  173.4690  144.7630 C   0  0  0  0  0  0  0  0  0  0  0  0
  191.7880  172.7680  144.3280 C   0  0  0  0  0  0  0  0  0  0  0  0
  190.7180  171.2260  142.7300 N   0  0  0  0  0  2  0  0  0  0  0  0
  192.8370  174.3820  145.9560 C   0  0  0  0  0  2  0  0  0  0  0  0
  193.8390  177.0360  147.1380 O   0  0  0  0  0  0  0  0  0  0  0  0
  194.9670  177.0010  145.0760 C   0  0  0  0  0  2  0  0  0  0  0  0
  191.8600  171.9680  143.1730 C   0  0  0  0  0  0  0  0  0  0  0  0
  194.1520  173.3500  144.0450 C   0  0  0  0  0  0  0  0  0  0  0  0
  190.4660  172.8920  145.0640 C   0  0  2  0  0  3  0  0  0  0  0  0
  193.0610  171.8450  142.4810 C   0  0  0  0  0  3  0  0  0  0  0  0
  189.5390  171.6950  144.8190 C   0  0  0  0  0  2  0  0  0  0  0  0
  189.4010  171.4200  143.3250 C   0  0  0  0  0  2  0  0  0  0  0  0
  194.7990  176.4500  143.7910 O   0  0  0  0  0  0  0  0  0  0  0  0
  194.2100  172.5130  142.9010 C   0  0  0  0  0  0  0  0  0  0  0  0
  195.3080  174.1700  144.4520 C   0  0  0  0  0  0  0  0  0  0  0  0
  193.8210  176.6500  145.9810 C   0  0  0  0  0  0  0  0  0  0  0  0
  195.9000  173.9240  145.5380 O   0  0  0  0  0  0  0  0  0  0  0  0
  197.0260  175.7470  143.8370 O   0  0  0  0  0  1  0  0  0  0  0  0
  195.6940  175.3680  143.6290 C   0  0  2  0  0  3  0  0  0  0  0  0
  192.6690  175.8250  145.5000 C   0  0  0  0  0  2  0  0  0  0  0  0
  186.4640  177.8520  144.3120 O   0  0  0  0  0  1  0  0  0  0  0  0
  189.7750  174.1980  144.7960 C   0  0  0  0  0  0  0  0  0  0  0  0
  188.4690  176.6100  144.2440 C   0  0  0  0  0  0  0  0  0  0  0  0
  188.7130  176.2490  145.5720 C   0  0  0  0  0  3  0  0  0  0  0  0
  189.3650  175.0420  145.8460 C   0  0  0  0  0  3  0  0  0  0  0  0
  188.6190  178.9440  141.5070 O   0  0  0  0  0  0  0  0  0  0  0  0
  187.8010  177.8180  142.0750 S   0  0  0  0  0  0  0  0  0  0  0  0
  186.4170  177.8180  141.4890 O   0  0  0  0  0  0  0  0  0  0  0  0
  189.5400  174.5770  143.4680 C   0  0  0  0  0  3  0  0  0  0  0  0
  188.8860  175.7800  143.2000 C   0  0  0  0  0  0  0  0  0  0  0  0
  187.7810  177.8710  143.8510 C   0  0  1  0  0  3  0  0  0  0  0  0
  188.6030  176.2560  141.8200 C   0  0  0  0  0  2  0  0  0  0  0  0
  195.4040  172.2980  142.1310 N   0  0  0  0  0  2  0  0  0  0  0  0
  195.5410  171.9350  139.7390 C   0  0  0  0  0  1  0  0  0  0  0  0
  195.7320  172.9310  140.8610 C   0  0  0  0  0  3  0  0  0  0  0  0
  197.1750  173.3970  140.8750 C   0  0  0  0  0  1  0  0  0  0  0  0
  1  4  1  0  0  0  0
  2  1  1  0  0  0  0
  2  9  1  0  0  0  0
  3  7  1  0  0  0  0
  3 12  1  0  0  0  0
  6 16  1  0  0  0  0
  7  2  2  0  0  0  0
  8 15  1  0  0  0  0
  8  1  2  0  0  0  0
  9 22  1  6  0  0  0
 10 14  2  0  0  0  0
 10  7  1  0  0  0  0
 11  9  1  0  0  0  0
 12 11  1  0  0  0  0
 13  6  1  0  0  0  0
 14  8  1  0  0  0  0
 15 17  2  0  0  0  0
 16  5  2  0  0  0  0
 19 13  1  0  0  0  0
 19 18  1  1  0  0  0
 19 15  1  0  0  0  0
 20  4  1  0  0  0  0
 20 16  1  0  0  0  0
 22 25  1  0  0  0  0
 23 24  1  0  0  0  0
 24 25  2  0  0  0  0
 26 27  2  0  0  0  0
 27 31  1  0  0  0  0
 28 27  2  0  0  0  0
 29 22  2  0  0  0  0
 30 29  1  0  0  0  0
 30 23  2  0  0  0  0
 31 23  1  0  0  0  0
 31 21  1  1  0  0  0
 32 27  1  0  0  0  0
 32 30  1  0  0  0  0
 33 14  1  0  0  0  0
 34 35  1  0  0  0  0
 35 36  1  0  0  0  0
 35 33  1  0  0  0  0
M  END
>  <MODEL>
9

>  <REMARK>
 VINA RESULT:      -6.9      3.541      7.678
  Name = 
  3 active torsions:
  status: ('A' for Active; 'I' for Inactive)
    1  A    between atoms: C_2  and  C_18
    2  A    between atoms: N_10  and  C_17
    3  A    between atoms: N_10  and  C_24
                            x       y       z     vdW  Elec       q    Type
                         _______ _______ _______ _____ _____    ______ ____

>  <TORSDO>
F 3

$$$$
