=
 OpenBabel11062422133D

 44 50  0  0  1  0  0  0  0  0999 V2000
  189.4550  175.4320  146.0110 C   0  0  1  0  0  0  0  0  0  0  0  0
  191.6930  171.7650  140.3610 C   0  0  0  0  0  2  0  0  0  0  0  0
  186.6290  175.9370  143.2350 C   0  0  0  0  0  2  0  0  0  0  0  0
  190.3980  176.6650  146.0390 C   0  0  2  0  0  0  0  0  0  0  0  0
  190.4140  172.6610  138.5390 O   0  0  0  0  0  0  0  0  0  0  0  0
  189.5620  175.0210  143.5680 O   0  0  0  0  0  0  0  0  0  0  0  0
  190.7100  172.2490  142.5690 O   0  0  0  0  0  0  0  0  0  0  0  0
  190.5650  172.5710  139.7850 C   0  0  0  0  0  0  0  0  0  0  0  0
  186.8800  178.3120  141.7440 C   0  0  1  0  0  3  0  0  0  0  0  0
  188.8590  174.0710  142.7790 C   0  0  2  0  0  3  0  0  0  0  0  0
  187.0500  175.7270  141.7810 C   0  0  2  0  0  3  0  0  0  0  0  0
  187.4280  177.0060  145.3510 C   0  0  0  0  0  2  0  0  0  0  0  0
  188.6680  174.2710  140.4520 C   0  0  0  0  0  0  0  0  0  0  0  0
  191.3280  171.2380  141.7600 C   0  0  2  0  0  3  0  0  0  0  0  0
  189.7620  173.0430  145.1280 C   0  0  0  0  0  1  0  0  0  0  0  0
  189.9380  177.9460  145.7390 O   0  0  0  0  0  1  0  0  0  0  0  0
  189.8100  173.1670  142.0170 C   0  0  0  0  0  0  0  0  0  0  0  0
  189.6150  174.7340  147.3670 C   0  0  0  0  0  1  0  0  0  0  0  0
  188.1510  174.7630  141.6820 N   0  0  0  0  0  0  0  0  0  0  0  0
  187.5200  177.0080  143.8440 C   0  0  2  0  0  3  0  0  0  0  0  0
  185.3860  178.4270  141.4970 C   0  0  0  0  0  1  0  0  0  0  0  0
  187.9320  175.6820  145.9170 C   0  0  0  0  0  2  0  0  0  0  0  0
  187.1760  178.3740  143.2530 C   0  0  0  0  0  2  0  0  0  0  0  0
  191.5130  174.8340  144.9450 C   0  0  2  0  0  3  0  0  0  0  0  0
  190.0110  174.5430  144.8500 C   0  0  2  0  0  0  0  0  0  0  0  0
  191.6310  176.3260  145.2180 C   0  0  2  0  0  3  0  0  0  0  0  0
  189.7000  173.3060  140.7110 C   0  0  0  0  0  0  0  0  0  0  0  0
  188.2660  174.6330  139.3140 O   0  0  0  0  0  0  0  0  0  0  0  0
  191.7630  176.5940  146.7040 C   0  0  0  0  0  2  0  0  0  0  0  0
  187.4410  177.0470  141.0730 C   0  0  0  0  0  2  0  0  0  0  0  0
  192.3010  174.4550  143.6960 C   0  0  0  0  0  2  0  0  0  0  0  0
  192.8200  175.6170  143.0600 O   0  0  0  0  0  0  0  0  0  0  0  0
  194.0020  175.7320  141.0830 O   0  0  0  0  0  0  0  0  0  0  0  0
  194.0170  175.6060  142.3370 C   0  0  0  0  0  0  0  0  0  0  0  0
  195.2480  175.4550  142.9840 O   0  0  0  0  0  0  0  0  0  0  0  0
  195.8100  176.3940  143.8590 C   0  0  0  0  0  0  0  0  0  0  0  0
  196.7830  177.1150  143.5070 O   0  0  0  0  0  0  0  0  0  0  0  0
  194.8940  177.7940  145.6790 O   0  0  0  0  0  0  0  0  0  0  0  0
  195.2510  176.5380  145.2070 C   0  0  0  0  0  0  0  0  0  0  0  0
  195.0930  175.5280  145.9420 O   0  0  0  0  0  1  0  0  0  0  0  0
  192.5680  170.7010  142.4480 C   0  0  0  0  0  2  0  0  0  0  0  0
  192.3430  170.6170  143.9460 C   0  0  0  0  0  3  0  0  0  0  0  0
  193.3030  169.6030  144.5360 C   0  0  0  0  0  2  0  0  0  0  0  0
  193.5950  171.0830  144.6600 C   0  0  0  0  0  2  0  0  0  0  0  0
  1  4  1  0  0  0  0
  1 18  1  1  0  0  0
  2 14  1  0  0  0  0
  4 16  1  6  0  0  0
  4 29  1  0  0  0  0
  5  8  2  0  0  0  0
  6 25  1  0  0  0  0
  8  2  1  0  0  0  0
  8 27  1  0  0  0  0
  9 21  1  1  0  0  0
  9 23  1  0  0  0  0
 10 17  1  6  0  0  0
 10  6  1  0  0  0  0
 11 30  1  1  0  0  0
 11  3  1  0  0  0  0
 12 22  1  0  0  0  0
 13 27  1  0  0  0  0
 13 19  1  0  0  0  0
 14 41  1  1  0  0  0
 14  7  1  0  0  0  0
 17  7  1  0  0  0  0
 19 11  1  0  0  0  0
 19 10  1  0  0  0  0
 20  3  1  6  0  0  0
 20 12  1  0  0  0  0
 22  1  1  0  0  0  0
 23 20  1  0  0  0  0
 24 31  1  6  0  0  0
 24 26  1  0  0  0  0
 25 24  1  0  0  0  0
 25 15  1  1  0  0  0
 25  1  1  0  0  0  0
 26  4  1  0  0  0  0
 26 29  1  1  0  0  0
 27 17  2  0  0  0  0
 28 13  2  0  0  0  0
 30  9  1  0  0  0  0
 32 31  1  0  0  0  0
 33 34  2  0  0  0  0
 34 35  1  0  0  0  0
 34 32  1  0  0  0  0
 35 36  1  0  0  0  0
 36 39  1  0  0  0  0
 37 36  2  0  0  0  0
 39 38  2  0  0  0  0
 39 40  1  0  0  0  0
 41 42  1  0  0  0  0
 42 43  1  0  0  0  0
 42 44  1  0  0  0  0
 43 44  1  0  0  0  0
M  END
>  <MODEL>
1

>  <REMARK>
 VINA RESULT:      -8.0      0.000      0.000
  Name = 
  8 active torsions:
  status: ('A' for Active; 'I' for Inactive)
    1  A    between atoms: C_4  and  C_33
    2  A    between atoms: C_5  and  O_18
    3  A    between atoms: C_5  and  C_37
    4  A    between atoms: O_13  and  C_21
    5  A    between atoms: O_13  and  C_29
    6  A    between atoms: O_18  and  C_29
    7  A    between atoms: C_19  and  C_33
    8  A    between atoms: C_21  and  C_35
                            x       y       z     vdW  Elec       q    Type
                         _______ _______ _______ _____ _____    ______ ____

>  <TORSDO>
F 8

$$$$
=
 OpenBabel11062422133D

 44 50  0  0  1  0  0  0  0  0999 V2000
  191.3020  171.9290  142.0770 C   0  0  1  0  0  0  0  0  0  0  0  0
  190.6110  176.5680  147.4030 C   0  0  0  0  0  2  0  0  0  0  0  0
  194.9590  172.3000  143.6370 C   0  0  0  0  0  2  0  0  0  0  0  0
  191.1740  172.8130  140.8070 C   0  0  2  0  0  0  0  0  0  0  0  0
  192.8530  177.3180  147.8190 O   0  0  0  0  0  0  0  0  0  0  0  0
  192.1960  173.6830  143.5830 O   0  0  0  0  0  0  0  0  0  0  0  0
  190.5120  174.4490  146.1480 O   0  0  0  0  0  0  0  0  0  0  0  0
  192.1020  176.4780  147.2570 C   0  0  0  0  0  0  0  0  0  0  0  0
  196.6100  174.1440  142.2950 C   0  0  1  0  0  3  0  0  0  0  0  0
  192.6440  173.5790  144.9270 C   0  0  2  0  0  3  0  0  0  0  0  0
  195.2430  173.5790  144.4230 C   0  0  2  0  0  3  0  0  0  0  0  0
  193.8620  171.5220  141.5260 C   0  0  0  0  0  2  0  0  0  0  0  0
  193.9930  175.2130  145.9290 C   0  0  0  0  0  0  0  0  0  0  0  0
  189.9640  175.1800  147.2540 C   0  0  2  0  0  3  0  0  0  0  0  0
  190.3660  172.1720  144.4520 C   0  0  0  0  0  1  0  0  0  0  0  0
  192.2640  173.0620  139.9740 O   0  0  0  0  0  1  0  0  0  0  0  0
  191.8770  174.5130  145.8440 C   0  0  0  0  0  0  0  0  0  0  0  0
  190.2050  170.8610  141.9730 C   0  0  0  0  0  1  0  0  0  0  0  0
  194.0200  174.1070  145.0350 N   0  0  0  0  0  0  0  0  0  0  0  0
  194.5150  172.6840  142.2350 C   0  0  2  0  0  3  0  0  0  0  0  0
  197.8880  173.4090  142.6570 C   0  0  0  0  0  1  0  0  0  0  0  0
  192.5920  171.0950  142.2570 C   0  0  0  0  0  2  0  0  0  0  0  0
  195.6990  173.2420  141.4440 C   0  0  0  0  0  2  0  0  0  0  0  0
  190.0050  173.8620  142.6310 C   0  0  2  0  0  3  0  0  0  0  0  0
  191.0250  172.9090  143.2630 C   0  0  2  0  0  0  0  0  0  0  0  0
  190.4930  174.1100  141.2110 C   0  0  2  0  0  3  0  0  0  0  0  0
  192.6480  175.4360  146.3840 C   0  0  0  0  0  0  0  0  0  0  0  0
  195.0050  175.8830  146.2660 O   0  0  0  0  0  0  0  0  0  0  0  0
  189.8130  173.1710  140.2350 C   0  0  0  0  0  2  0  0  0  0  0  0
  195.9160  174.6750  143.5620 C   0  0  0  0  0  2  0  0  0  0  0  0
  189.8400  175.1820  143.3770 C   0  0  0  0  0  2  0  0  0  0  0  0
  190.2710  176.2710  142.5690 O   0  0  0  0  0  0  0  0  0  0  0  0
  190.2360  178.1840  143.8570 O   0  0  0  0  0  0  0  0  0  0  0  0
  189.8680  177.5890  142.8090 C   0  0  0  0  0  0  0  0  0  0  0  0
  189.0530  178.2700  141.8990 O   0  0  0  0  0  0  0  0  0  0  0  0
  187.6670  178.0970  141.7830 C   0  0  0  0  0  0  0  0  0  0  0  0
  186.8690  178.6770  142.5700 O   0  0  0  0  0  0  0  0  0  0  0  0
  186.1140  177.6790  139.9060 O   0  0  0  0  0  0  0  0  0  0  0  0
  187.1410  177.2290  140.7270 C   0  0  0  0  0  0  0  0  0  0  0  0
  187.6130  176.0740  140.5570 O   0  0  0  0  0  1  0  0  0  0  0  0
  188.4630  175.3270  147.0920 C   0  0  0  0  0  2  0  0  0  0  0  0
  188.1200  176.7300  146.6260 C   0  0  0  0  0  3  0  0  0  0  0  0
  187.1020  176.6460  145.5070 C   0  0  0  0  0  2  0  0  0  0  0  0
  186.6570  176.9990  146.9100 C   0  0  0  0  0  2  0  0  0  0  0  0
  1 18  1  6  0  0  0
  1 22  1  0  0  0  0
  1 25  1  0  0  0  0
  3 11  1  0  0  0  0
  4 16  1  6  0  0  0
  4 26  1  0  0  0  0
  4  1  1  0  0  0  0
  7 14  1  0  0  0  0
  8  2  1  0  0  0  0
  8  5  2  0  0  0  0
  9 21  1  1  0  0  0
  9 30  1  0  0  0  0
 10  6  1  6  0  0  0
 10 19  1  0  0  0  0
 10 17  1  0  0  0  0
 11 30  1  6  0  0  0
 11 19  1  0  0  0  0
 12 20  1  0  0  0  0
 12 22  1  0  0  0  0
 13 28  2  0  0  0  0
 13 27  1  0  0  0  0
 14 41  1  6  0  0  0
 14  2  1  0  0  0  0
 17  7  1  0  0  0  0
 17 27  2  0  0  0  0
 19 13  1  0  0  0  0
 20 23  1  6  0  0  0
 20  3  1  0  0  0  0
 23  9  1  0  0  0  0
 24 25  1  0  0  0  0
 24 31  1  1  0  0  0
 25  6  1  0  0  0  0
 25 15  1  1  0  0  0
 26 29  1  6  0  0  0
 26 24  1  0  0  0  0
 27  8  1  0  0  0  0
 29  4  1  0  0  0  0
 32 34  1  0  0  0  0
 32 31  1  0  0  0  0
 34 33  2  0  0  0  0
 35 34  1  0  0  0  0
 36 35  1  0  0  0  0
 36 37  2  0  0  0  0
 38 39  2  0  0  0  0
 39 36  1  0  0  0  0
 40 39  1  0  0  0  0
 42 44  1  0  0  0  0
 42 41  1  0  0  0  0
 43 42  1  0  0  0  0
 43 44  1  0  0  0  0
M  END
>  <MODEL>
2

>  <REMARK>
 VINA RESULT:      -7.8      2.292      7.717
  Name = 
  8 active torsions:
  status: ('A' for Active; 'I' for Inactive)
    1  A    between atoms: C_4  and  C_33
    2  A    between atoms: C_5  and  O_18
    3  A    between atoms: C_5  and  C_37
    4  A    between atoms: O_13  and  C_21
    5  A    between atoms: O_13  and  C_29
    6  A    between atoms: O_18  and  C_29
    7  A    between atoms: C_19  and  C_33
    8  A    between atoms: C_21  and  C_35
                            x       y       z     vdW  Elec       q    Type
                         _______ _______ _______ _____ _____    ______ ____

>  <TORSDO>
F 8

$$$$
=
 OpenBabel11062422133D

 44 50  0  0  1  0  0  0  0  0999 V2000
  189.3610  175.5010  146.2710 C   0  0  1  0  0  0  0  0  0  0  0  0
  191.7010  172.1950  140.4430 C   0  0  0  0  0  2  0  0  0  0  0  0
  186.5060  176.0390  143.5320 C   0  0  0  0  0  2  0  0  0  0  0  0
  190.2600  176.7640  146.3570 C   0  0  2  0  0  0  0  0  0  0  0  0
  190.3810  173.1320  138.6700 O   0  0  0  0  0  0  0  0  0  0  0  0
  189.4700  175.2130  143.8110 O   0  0  0  0  0  0  0  0  0  0  0  0
  190.7120  172.5360  142.6750 O   0  0  0  0  0  0  0  0  0  0  0  0
  190.5420  172.9870  139.9100 C   0  0  0  0  0  0  0  0  0  0  0  0
  186.6650  178.4910  142.1580 C   0  0  1  0  0  3  0  0  0  0  0  0
  188.7980  174.2780  142.9790 C   0  0  2  0  0  3  0  0  0  0  0  0
  186.9270  175.9150  142.0690 C   0  0  2  0  0  3  0  0  0  0  0  0
  187.2760  177.0330  145.6960 C   0  0  0  0  0  2  0  0  0  0  0  0
  188.5890  174.5850  140.6650 C   0  0  0  0  0  0  0  0  0  0  0  0
  191.3600  171.5880  141.8160 C   0  0  2  0  0  3  0  0  0  0  0  0
  189.7480  173.1710  145.2730 C   0  0  0  0  0  1  0  0  0  0  0  0
  189.7540  178.0410  146.1210 O   0  0  0  0  0  1  0  0  0  0  0  0
  189.7760  173.4470  142.1710 C   0  0  0  0  0  0  0  0  0  0  0  0
  189.5520  174.7440  147.5920 C   0  0  0  0  0  1  0  0  0  0  0  0
  188.0600  174.9970  141.9190 N   0  0  0  0  0  0  0  0  0  0  0  0
  187.3600  177.1100  144.1900 C   0  0  2  0  0  3  0  0  0  0  0  0
  185.1670  178.5650  141.9210 C   0  0  0  0  0  1  0  0  0  0  0  0
  187.8300  175.7010  146.1950 C   0  0  0  0  0  2  0  0  0  0  0  0
  186.9660  178.4910  143.6670 C   0  0  0  0  0  2  0  0  0  0  0  0
  191.4340  175.0290  145.1720 C   0  0  2  0  0  3  0  0  0  0  0  0
  189.9430  174.6900  145.0670 C   0  0  2  0  0  0  0  0  0  0  0  0
  191.5000  176.5090  145.5160 C   0  0  2  0  0  3  0  0  0  0  0  0
  189.6560  173.6450  140.8730 C   0  0  0  0  0  0  0  0  0  0  0  0
  188.1680  174.9860  139.5470 O   0  0  0  0  0  0  0  0  0  0  0  0
  191.6290  176.7100  147.0130 C   0  0  0  0  0  2  0  0  0  0  0  0
  187.2680  177.2810  141.4250 C   0  0  0  0  0  2  0  0  0  0  0  0
  192.2290  174.7390  143.9030 C   0  0  0  0  0  2  0  0  0  0  0  0
  193.3600  175.5970  143.8150 O   0  0  0  0  0  0  0  0  0  0  0  0
  194.8090  175.0460  145.5230 O   0  0  0  0  0  0  0  0  0  0  0  0
  194.6230  175.2250  144.2890 C   0  0  0  0  0  0  0  0  0  0  0  0
  195.6980  175.0470  143.4130 O   0  0  0  0  0  0  0  0  0  0  0  0
  196.3640  176.0830  142.7450 C   0  0  0  0  0  0  0  0  0  0  0  0
  197.2120  176.8040  143.3390 O   0  0  0  0  0  0  0  0  0  0  0  0
  194.8010  176.7490  140.9490 O   0  0  0  0  0  1  0  0  0  0  0  0
  196.0680  176.3270  141.3300 C   0  0  0  0  0  0  0  0  0  0  0  0
  196.9580  176.1560  140.4540 O   0  0  0  0  0  0  0  0  0  0  0  0
  192.6230  171.0630  142.4730 C   0  0  0  0  0  2  0  0  0  0  0  0
  192.4160  170.9220  143.9700 C   0  0  0  0  0  3  0  0  0  0  0  0
  193.4380  169.9500  144.5220 C   0  0  0  0  0  2  0  0  0  0  0  0
  193.6440  171.4390  144.6880 C   0  0  0  0  0  2  0  0  0  0  0  0
  1  4  1  0  0  0  0
  1 18  1  1  0  0  0
  2 14  1  0  0  0  0
  4 16  1  6  0  0  0
  4 29  1  0  0  0  0
  5  8  2  0  0  0  0
  6 25  1  0  0  0  0
  8  2  1  0  0  0  0
  8 27  1  0  0  0  0
  9 21  1  1  0  0  0
  9 23  1  0  0  0  0
 10 17  1  6  0  0  0
 10  6  1  0  0  0  0
 11 30  1  1  0  0  0
 11  3  1  0  0  0  0
 12 22  1  0  0  0  0
 13 27  1  0  0  0  0
 13 19  1  0  0  0  0
 14 41  1  1  0  0  0
 14  7  1  0  0  0  0
 17  7  1  0  0  0  0
 19 11  1  0  0  0  0
 19 10  1  0  0  0  0
 20  3  1  6  0  0  0
 20 12  1  0  0  0  0
 22  1  1  0  0  0  0
 23 20  1  0  0  0  0
 24 31  1  6  0  0  0
 24 26  1  0  0  0  0
 25 24  1  0  0  0  0
 25 15  1  1  0  0  0
 25  1  1  0  0  0  0
 26  4  1  0  0  0  0
 26 29  1  1  0  0  0
 27 17  2  0  0  0  0
 28 13  2  0  0  0  0
 30  9  1  0  0  0  0
 32 31  1  0  0  0  0
 32 34  1  0  0  0  0
 34 33  2  0  0  0  0
 35 34  1  0  0  0  0
 36 37  2  0  0  0  0
 36 35  1  0  0  0  0
 38 39  1  0  0  0  0
 39 36  1  0  0  0  0
 40 39  2  0  0  0  0
 41 42  1  0  0  0  0
 42 43  1  0  0  0  0
 42 44  1  0  0  0  0
 43 44  1  0  0  0  0
M  END
>  <MODEL>
3

>  <REMARK>
 VINA RESULT:      -7.7      0.804      1.556
  Name = 
  8 active torsions:
  status: ('A' for Active; 'I' for Inactive)
    1  A    between atoms: C_4  and  C_33
    2  A    between atoms: C_5  and  O_18
    3  A    between atoms: C_5  and  C_37
    4  A    between atoms: O_13  and  C_21
    5  A    between atoms: O_13  and  C_29
    6  A    between atoms: O_18  and  C_29
    7  A    between atoms: C_19  and  C_33
    8  A    between atoms: C_21  and  C_35
                            x       y       z     vdW  Elec       q    Type
                         _______ _______ _______ _____ _____    ______ ____

>  <TORSDO>
F 8

$$$$
=
 OpenBabel11062422133D

 44 50  0  0  1  0  0  0  0  0999 V2000
  191.2990  172.2760  141.6430 C   0  0  1  0  0  0  0  0  0  0  0  0
  193.0420  176.9060  146.7330 C   0  0  0  0  0  2  0  0  0  0  0  0
  195.1410  173.1540  141.0030 C   0  0  0  0  0  2  0  0  0  0  0  0
  190.3980  173.1080  140.6910 C   0  0  2  0  0  0  0  0  0  0  0  0
  195.0430  177.9490  145.9130 O   0  0  0  0  0  0  0  0  0  0  0  0
  192.6450  174.1650  142.5180 O   0  0  0  0  0  0  0  0  0  0  0  0
  192.5380  174.7640  145.6220 O   0  0  0  0  0  0  0  0  0  0  0  0
  194.2160  177.0070  145.8020 C   0  0  0  0  0  0  0  0  0  0  0  0
  195.5650  175.1670  139.0800 C   0  0  1  0  0  3  0  0  0  0  0  0
  193.7570  174.1510  143.4010 C   0  0  2  0  0  3  0  0  0  0  0  0
  195.6470  174.4770  141.5760 C   0  0  2  0  0  3  0  0  0  0  0  0
  193.1810  172.1930  139.7800 C   0  0  0  0  0  2  0  0  0  0  0  0
  195.2240  175.9690  143.6010 C   0  0  0  0  0  0  0  0  0  0  0  0
  192.5920  175.4420  146.8850 C   0  0  2  0  0  3  0  0  0  0  0  0
  191.7760  172.4500  144.1580 C   0  0  0  0  0  1  0  0  0  0  0  0
  190.8240  173.4770  139.4160 O   0  0  0  0  0  1  0  0  0  0  0  0
  193.5020  174.9980  144.6340 C   0  0  0  0  0  0  0  0  0  0  0  0
  190.4590  171.0730  142.0930 C   0  0  0  0  0  1  0  0  0  0  0  0
  194.8970  174.8560  142.7780 N   0  0  0  0  0  0  0  0  0  0  0  0
  193.9670  173.4460  140.0830 C   0  0  2  0  0  3  0  0  0  0  0  0
  196.9140  174.6120  138.6580 C   0  0  0  0  0  1  0  0  0  0  0  0
  192.5710  171.6220  141.0570 C   0  0  0  0  0  2  0  0  0  0  0  0
  194.4560  174.1350  138.8090 C   0  0  0  0  0  2  0  0  0  0  0  0
  190.2850  174.0370  142.9080 C   0  0  2  0  0  3  0  0  0  0  0  0
  191.5910  173.2390  142.8410 C   0  0  2  0  0  0  0  0  0  0  0  0
  189.8920  174.3140  141.4640 C   0  0  2  0  0  3  0  0  0  0  0  0
  194.3240  176.0250  144.7200 C   0  0  0  0  0  0  0  0  0  0  0  0
  196.1670  176.7710  143.3730 O   0  0  0  0  0  0  0  0  0  0  0  0
  188.9120  173.2730  140.9620 C   0  0  0  0  0  2  0  0  0  0  0  0
  195.6090  175.6320  140.5460 C   0  0  0  0  0  2  0  0  0  0  0  0
  190.3910  175.3400  143.6920 C   0  0  0  0  0  2  0  0  0  0  0  0
  190.4670  176.4520  142.8080 O   0  0  0  0  0  0  0  0  0  0  0  0
  190.0710  178.2610  144.1820 O   0  0  0  0  0  0  0  0  0  0  0  0
  189.8530  177.6780  143.0870 C   0  0  0  0  0  0  0  0  0  0  0  0
  188.9900  178.2770  142.1650 O   0  0  0  0  0  0  0  0  0  0  0  0
  187.6140  178.0250  142.0780 C   0  0  0  0  0  0  0  0  0  0  0  0
  186.7670  178.9120  142.3740 O   0  0  0  0  0  0  0  0  0  0  0  0
  187.1180  176.4060  140.2760 O   0  0  0  0  0  0  0  0  0  0  0  0
  187.1570  176.7060  141.6320 C   0  0  0  0  0  0  0  0  0  0  0  0
  186.7960  175.8390  142.4720 O   0  0  0  0  0  1  0  0  0  0  0  0
  191.2370  175.3900  147.5650 C   0  0  0  0  0  2  0  0  0  0  0  0
  190.1440  175.1440  146.5410 C   0  0  0  0  0  3  0  0  0  0  0  0
  188.9470  174.5250  147.2330 C   0  0  0  0  0  2  0  0  0  0  0  0
  188.9430  175.9990  146.8880 C   0  0  0  0  0  2  0  0  0  0  0  0
  1 18  1  1  0  0  0
  1 25  1  0  0  0  0
  2 14  1  0  0  0  0
  3 11  1  0  0  0  0
  4 16  1  6  0  0  0
  4 29  1  0  0  0  0
  4 26  1  0  0  0  0
  4  1  1  0  0  0  0
  6 25  1  0  0  0  0
  7 14  1  0  0  0  0
  8  5  2  0  0  0  0
  8  2  1  0  0  0  0
  9 21  1  1  0  0  0
  9 30  1  0  0  0  0
 10  6  1  6  0  0  0
 10 17  1  0  0  0  0
 11 30  1  6  0  0  0
 11 19  1  0  0  0  0
 12 20  1  0  0  0  0
 12 22  1  0  0  0  0
 13 27  1  0  0  0  0
 14 41  1  6  0  0  0
 17 27  2  0  0  0  0
 17  7  1  0  0  0  0
 19 10  1  0  0  0  0
 19 13  1  0  0  0  0
 20 23  1  6  0  0  0
 20  3  1  0  0  0  0
 22  1  1  0  0  0  0
 23  9  1  0  0  0  0
 24 31  1  1  0  0  0
 25 24  1  0  0  0  0
 25 15  1  1  0  0  0
 26 29  1  1  0  0  0
 26 24  1  0  0  0  0
 27  8  1  0  0  0  0
 28 13  2  0  0  0  0
 32 34  1  0  0  0  0
 32 31  1  0  0  0  0
 34 33  2  0  0  0  0
 35 34  1  0  0  0  0
 36 35  1  0  0  0  0
 36 37  2  0  0  0  0
 38 39  2  0  0  0  0
 39 36  1  0  0  0  0
 39 40  1  0  0  0  0
 42 44  1  0  0  0  0
 42 43  1  0  0  0  0
 42 41  1  0  0  0  0
 44 43  1  0  0  0  0
M  END
>  <MODEL>
4

>  <REMARK>
 VINA RESULT:      -7.3      2.322      7.349
  Name = 
  8 active torsions:
  status: ('A' for Active; 'I' for Inactive)
    1  A    between atoms: C_4  and  C_33
    2  A    between atoms: C_5  and  O_18
    3  A    between atoms: C_5  and  C_37
    4  A    between atoms: O_13  and  C_21
    5  A    between atoms: O_13  and  C_29
    6  A    between atoms: O_18  and  C_29
    7  A    between atoms: C_19  and  C_33
    8  A    between atoms: C_21  and  C_35
                            x       y       z     vdW  Elec       q    Type
                         _______ _______ _______ _____ _____    ______ ____

>  <TORSDO>
F 8

$$$$
=
 OpenBabel11062422133D

 44 50  0  0  1  0  0  0  0  0999 V2000
  194.3810  175.7850  144.4350 C   0  0  1  0  0  0  0  0  0  0  0  0
  187.6340  175.0220  142.3700 C   0  0  0  0  0  2  0  0  0  0  0  0
  194.2240  172.2270  142.6310 C   0  0  0  0  0  2  0  0  0  0  0  0
  194.3110  175.6030  145.9760 C   0  0  2  0  0  0  0  0  0  0  0  0
  187.4050  172.6650  141.9810 O   0  0  0  0  0  0  0  0  0  0  0  0
  192.4070  174.3950  143.8730 O   0  0  0  0  0  0  0  0  0  0  0  0
  189.9790  175.7800  142.3920 O   0  0  0  0  0  0  0  0  0  0  0  0
  188.1800  173.6380  142.1750 C   0  0  0  0  0  0  0  0  0  0  0  0
  193.8920  170.0500  144.3860 C   0  0  1  0  0  3  0  0  0  0  0  0
  191.8950  174.0250  142.6010 C   0  0  2  0  0  3  0  0  0  0  0  0
  192.8530  171.5570  142.5520 C   0  0  2  0  0  3  0  0  0  0  0  0
  195.6810  173.4850  144.2290 C   0  0  0  0  0  2  0  0  0  0  0  0
  190.4050  172.2360  142.3220 C   0  0  0  0  0  0  0  0  0  0  0  0
  188.6580  176.0800  141.9210 C   0  0  2  0  0  3  0  0  0  0  0  0
  192.6730  176.6270  142.7170 C   0  0  0  0  0  1  0  0  0  0  0  0
  194.8440  174.4790  146.6050 O   0  0  0  0  0  1  0  0  0  0  0  0
  190.4520  174.4630  142.4310 C   0  0  0  0  0  0  0  0  0  0  0  0
  195.0040  177.1660  144.1900 C   0  0  0  0  0  1  0  0  0  0  0  0
  191.7770  172.5540  142.5210 N   0  0  0  0  0  0  0  0  0  0  0  0
  194.5420  172.5020  144.0910 C   0  0  2  0  0  3  0  0  0  0  0  0
  194.6300  169.0830  143.4780 C   0  0  0  0  0  1  0  0  0  0  0  0
  195.2980  174.8350  143.6300 C   0  0  0  0  0  2  0  0  0  0  0  0
  194.8290  171.1910  144.8220 C   0  0  0  0  0  2  0  0  0  0  0  0
  192.1870  176.3980  145.1690 C   0  0  2  0  0  3  0  0  0  0  0  0
  192.8880  175.7490  143.9710 C   0  0  2  0  0  0  0  0  0  0  0  0
  192.8730  175.8360  146.4060 C   0  0  2  0  0  3  0  0  0  0  0  0
  189.6270  173.4440  142.2940 C   0  0  0  0  0  0  0  0  0  0  0  0
  189.9560  171.0670  142.1860 O   0  0  0  0  0  0  0  0  0  0  0  0
  193.9660  176.7680  146.8880 C   0  0  0  0  0  2  0  0  0  0  0  0
  192.6070  170.5540  143.7060 C   0  0  0  0  0  2  0  0  0  0  0  0
  190.6860  176.1410  145.2270 C   0  0  0  0  0  2  0  0  0  0  0  0
  190.0750  176.9610  146.2150 O   0  0  0  0  0  0  0  0  0  0  0  0
  188.3360  175.8070  147.1960 O   0  0  0  0  0  0  0  0  0  0  0  0
  188.7290  176.8300  146.5740 C   0  0  0  0  0  0  0  0  0  0  0  0
  187.7980  177.8220  146.2530 O   0  0  0  0  0  0  0  0  0  0  0  0
  186.6330  178.0910  146.9840 C   0  0  0  0  0  0  0  0  0  0  0  0
  186.6780  178.7310  148.0710 O   0  0  0  0  0  0  0  0  0  0  0  0
  184.2790  178.5060  146.3550 O   0  0  0  0  0  1  0  0  0  0  0  0
  185.3430  177.6210  146.4730 C   0  0  0  0  0  0  0  0  0  0  0  0
  185.1910  176.4160  146.1380 O   0  0  0  0  0  0  0  0  0  0  0  0
  188.2270  177.4510  142.4060 C   0  0  0  0  0  2  0  0  0  0  0  0
  186.7480  177.4480  142.7450 C   0  0  0  0  0  3  0  0  0  0  0  0
  186.3170  178.8570  143.0960 C   0  0  0  0  0  2  0  0  0  0  0  0
  186.0080  178.2910  141.7270 C   0  0  0  0  0  2  0  0  0  0  0  0
  1 18  1  6  0  0  0
  1  4  1  0  0  0  0
  4 26  1  0  0  0  0
  4 16  1  1  0  0  0
  4 29  1  0  0  0  0
  5  8  2  0  0  0  0
  6 25  1  0  0  0  0
  7 17  1  0  0  0  0
  8 27  1  0  0  0  0
  8  2  1  0  0  0  0
  9 21  1  6  0  0  0
  9 23  1  0  0  0  0
 10 17  1  1  0  0  0
 10  6  1  0  0  0  0
 11  3  1  1  0  0  0
 11 30  1  0  0  0  0
 13 19  1  0  0  0  0
 14  2  1  0  0  0  0
 14  7  1  0  0  0  0
 14 41  1  1  0  0  0
 19 11  1  0  0  0  0
 19 10  1  0  0  0  0
 20  3  1  6  0  0  0
 20 12  1  0  0  0  0
 20 23  1  0  0  0  0
 22 12  1  0  0  0  0
 22  1  1  0  0  0  0
 24 31  1  1  0  0  0
 24 26  1  0  0  0  0
 25 15  1  6  0  0  0
 25  1  1  0  0  0  0
 25 24  1  0  0  0  0
 26 29  1  1  0  0  0
 27 13  1  0  0  0  0
 27 17  2  0  0  0  0
 28 13  2  0  0  0  0
 30  9  1  0  0  0  0
 31 32  1  0  0  0  0
 32 34  1  0  0  0  0
 34 33  2  0  0  0  0
 35 34  1  0  0  0  0
 35 36  1  0  0  0  0
 36 37  2  0  0  0  0
 38 39  1  0  0  0  0
 39 36  1  0  0  0  0
 40 39  2  0  0  0  0
 41 42  1  0  0  0  0
 42 43  1  0  0  0  0
 44 42  1  0  0  0  0
 44 43  1  0  0  0  0
M  END
>  <MODEL>
5

>  <REMARK>
 VINA RESULT:      -7.2      2.137      7.281
  Name = 
  8 active torsions:
  status: ('A' for Active; 'I' for Inactive)
    1  A    between atoms: C_4  and  C_33
    2  A    between atoms: C_5  and  O_18
    3  A    between atoms: C_5  and  C_37
    4  A    between atoms: O_13  and  C_21
    5  A    between atoms: O_13  and  C_29
    6  A    between atoms: O_18  and  C_29
    7  A    between atoms: C_19  and  C_33
    8  A    between atoms: C_21  and  C_35
                            x       y       z     vdW  Elec       q    Type
                         _______ _______ _______ _____ _____    ______ ____

>  <TORSDO>
F 8

$$$$
=
 OpenBabel11062422133D

 44 50  0  0  1  0  0  0  0  0999 V2000
  189.4830  173.2200  141.6400 C   0  0  1  0  0  0  0  0  0  0  0  0
  194.6820  176.7620  144.9250 C   0  0  0  0  0  2  0  0  0  0  0  0
  192.7560  172.5640  139.4500 C   0  0  0  0  0  2  0  0  0  0  0  0
  188.6290  174.3450  140.9960 C   0  0  2  0  0  0  0  0  0  0  0  0
  196.3940  176.9680  143.2550 O   0  0  0  0  0  0  0  0  0  0  0  0
  191.6430  174.4360  141.6410 O   0  0  0  0  0  0  0  0  0  0  0  0
  193.0420  174.9920  144.4220 O   0  0  0  0  0  0  0  0  0  0  0  0
  195.3200  176.4170  143.6110 C   0  0  0  0  0  0  0  0  0  0  0  0
  193.0350  174.2840  137.2380 C   0  0  1  0  0  3  0  0  0  0  0  0
  192.9350  173.9850  142.0210 C   0  0  2  0  0  3  0  0  0  0  0  0
  193.8860  173.5840  139.5820 C   0  0  2  0  0  3  0  0  0  0  0  0
  190.2670  172.4440  139.2310 C   0  0  0  0  0  2  0  0  0  0  0  0
  194.8920  175.0990  141.3700 C   0  0  0  0  0  0  0  0  0  0  0  0
  193.8480  175.5820  145.4530 C   0  0  2  0  0  3  0  0  0  0  0  0
  190.9800  173.1660  143.7220 C   0  0  0  0  0  1  0  0  0  0  0  0
  188.5930  174.5380  139.6160 O   0  0  0  0  0  1  0  0  0  0  0  0
  193.5280  174.8500  143.1170 C   0  0  0  0  0  0  0  0  0  0  0  0
  188.5370  172.4250  142.5500 C   0  0  0  0  0  1  0  0  0  0  0  0
  193.8850  174.2070  140.9100 N   0  0  0  0  0  0  0  0  0  0  0  0
  191.4950  173.2960  139.0200 C   0  0  2  0  0  3  0  0  0  0  0  0
  193.7960  173.2600  136.4160 C   0  0  0  0  0  1  0  0  0  0  0  0
  190.0780  172.1350  140.7130 C   0  0  0  0  0  2  0  0  0  0  0  0
  191.6260  173.7600  137.5700 C   0  0  0  0  0  2  0  0  0  0  0  0
  189.7760  175.2190  142.9230 C   0  0  2  0  0  3  0  0  0  0  0  0
  190.5620  173.9810  142.4780 C   0  0  2  0  0  0  0  0  0  0  0  0
  188.9500  175.6430  141.7170 C   0  0  2  0  0  3  0  0  0  0  0  0
  194.6180  175.4820  142.7280 C   0  0  0  0  0  0  0  0  0  0  0  0
  195.8750  175.4810  140.6810 O   0  0  0  0  0  0  0  0  0  0  0  0
  187.5510  175.0640  141.7900 C   0  0  0  0  0  2  0  0  0  0  0  0
  193.8390  174.6780  138.4890 C   0  0  0  0  0  2  0  0  0  0  0  0
  190.6490  176.3720  143.4050 C   0  0  0  0  0  2  0  0  0  0  0  0
  189.8530  177.5120  143.7030 O   0  0  0  0  0  0  0  0  0  0  0  0
  189.5140  177.9060  145.9500 O   0  0  0  0  0  0  0  0  0  0  0  0
  189.0310  177.5800  144.8330 C   0  0  0  0  0  0  0  0  0  0  0  0
  187.6660  177.2880  144.7490 O   0  0  0  0  0  0  0  0  0  0  0  0
  186.6370  178.2250  144.9110 C   0  0  0  0  0  0  0  0  0  0  0  0
  186.1090  178.4270  146.0390 O   0  0  0  0  0  0  0  0  0  0  0  0
  186.6230  178.6500  142.4750 O   0  0  0  0  0  0  0  0  0  0  0  0
  186.1730  178.9840  143.7460 C   0  0  0  0  0  0  0  0  0  0  0  0
  185.3660  179.9410  143.8900 O   0  0  0  0  0  1  0  0  0  0  0  0
  192.9720  176.0440  146.6010 C   0  0  0  0  0  2  0  0  0  0  0  0
  192.2010  174.8720  147.1800 C   0  0  0  0  0  3  0  0  0  0  0  0
  191.2040  175.3870  148.1970 C   0  0  0  0  0  2  0  0  0  0  0  0
  190.7400  175.0100  146.8070 C   0  0  0  0  0  2  0  0  0  0  0  0
  1 25  1  0  0  0  0
  1 18  1  1  0  0  0
  2 14  1  0  0  0  0
  3 11  1  0  0  0  0
  4 16  1  6  0  0  0
  4  1  1  0  0  0  0
  4 26  1  0  0  0  0
  4 29  1  0  0  0  0
  5  8  2  0  0  0  0
  6 25  1  0  0  0  0
  7 14  1  0  0  0  0
  8  2  1  0  0  0  0
  9 21  1  1  0  0  0
  9 23  1  0  0  0  0
  9 30  1  0  0  0  0
 10  6  1  6  0  0  0
 10 17  1  0  0  0  0
 11 30  1  6  0  0  0
 11 19  1  0  0  0  0
 12 22  1  0  0  0  0
 13 27  1  0  0  0  0
 14 41  1  1  0  0  0
 17  7  1  0  0  0  0
 19 13  1  0  0  0  0
 19 10  1  0  0  0  0
 20 23  1  6  0  0  0
 20 12  1  0  0  0  0
 20  3  1  0  0  0  0
 22  1  1  0  0  0  0
 24 31  1  6  0  0  0
 25 24  1  0  0  0  0
 25 15  1  1  0  0  0
 26 29  1  1  0  0  0
 26 24  1  0  0  0  0
 27 17  2  0  0  0  0
 27  8  1  0  0  0  0
 28 13  2  0  0  0  0
 31 32  1  0  0  0  0
 32 34  1  0  0  0  0
 34 33  2  0  0  0  0
 35 34  1  0  0  0  0
 35 36  1  0  0  0  0
 36 37  2  0  0  0  0
 38 39  2  0  0  0  0
 39 40  1  0  0  0  0
 39 36  1  0  0  0  0
 41 42  1  0  0  0  0
 42 43  1  0  0  0  0
 44 42  1  0  0  0  0
 44 43  1  0  0  0  0
M  END
>  <MODEL>
6

>  <REMARK>
 VINA RESULT:      -7.0      2.358      6.902
  Name = 
  8 active torsions:
  status: ('A' for Active; 'I' for Inactive)
    1  A    between atoms: C_4  and  C_33
    2  A    between atoms: C_5  and  O_18
    3  A    between atoms: C_5  and  C_37
    4  A    between atoms: O_13  and  C_21
    5  A    between atoms: O_13  and  C_29
    6  A    between atoms: O_18  and  C_29
    7  A    between atoms: C_19  and  C_33
    8  A    between atoms: C_21  and  C_35
                            x       y       z     vdW  Elec       q    Type
                         _______ _______ _______ _____ _____    ______ ____

>  <TORSDO>
F 8

$$$$
=
 OpenBabel11062422133D

 44 50  0  0  1  0  0  0  0  0999 V2000
  189.5110  174.1210  141.1960 C   0  0  1  0  0  0  0  0  0  0  0  0
  193.9550  175.4830  146.5610 C   0  0  0  0  0  2  0  0  0  0  0  0
  188.0460  177.3780  142.9820 C   0  0  0  0  0  2  0  0  0  0  0  0
  188.7410  172.8610  141.6750 C   0  0  2  0  0  0  0  0  0  0  0  0
  192.6960  176.9240  148.0100 O   0  0  0  0  0  0  0  0  0  0  0  0
  190.0160  175.0430  143.4420 O   0  0  0  0  0  0  0  0  0  0  0  0
  193.0500  175.3780  144.2700 O   0  0  0  0  0  0  0  0  0  0  0  0
  192.7950  176.3810  146.8790 C   0  0  0  0  0  0  0  0  0  0  0  0
  186.0080  176.8560  144.8540 C   0  0  1  0  0  3  0  0  0  0  0  0
  190.6460  176.2650  143.7970 C   0  0  2  0  0  3  0  0  0  0  0  0
  188.4530  177.6050  144.4380 C   0  0  2  0  0  3  0  0  0  0  0  0
  187.2970  175.5570  141.4380 C   0  0  0  0  0  2  0  0  0  0  0  0
  190.4680  177.1890  145.9440 C   0  0  0  0  0  0  0  0  0  0  0  0
  194.2490  175.4870  145.0500 C   0  0  2  0  0  3  0  0  0  0  0  0
  191.8610  175.0090  141.7150 C   0  0  0  0  0  1  0  0  0  0  0  0
  187.3930  172.9150  142.0260 O   0  0  0  0  0  1  0  0  0  0  0  0
  191.8740  176.0310  144.6570 C   0  0  0  0  0  0  0  0  0  0  0  0
  190.1690  173.7460  139.8620 C   0  0  0  0  0  1  0  0  0  0  0  0
  189.7720  177.0260  144.7150 N   0  0  0  0  0  0  0  0  0  0  0  0
  187.3840  176.0140  142.8740 C   0  0  2  0  0  3  0  0  0  0  0  0
  185.3310  178.1970  144.6330 C   0  0  0  0  0  1  0  0  0  0  0  0
  188.6930  175.3850  140.8450 C   0  0  0  0  0  2  0  0  0  0  0  0
  186.0130  176.0410  143.5480 C   0  0  0  0  0  2  0  0  0  0  0  0
  190.8990  172.9290  142.7400 C   0  0  2  0  0  3  0  0  0  0  0  0
  190.5860  174.3650  142.3060 C   0  0  2  0  0  0  0  0  0  0  0  0
  189.5610  172.2040  142.7730 C   0  0  2  0  0  3  0  0  0  0  0  0
  191.7490  176.5420  145.8650 C   0  0  0  0  0  0  0  0  0  0  0  0
  190.0190  177.8150  146.9410 O   0  0  0  0  0  0  0  0  0  0  0  0
  189.3130  171.4680  141.4720 C   0  0  0  0  0  2  0  0  0  0  0  0
  187.4150  177.0530  145.4440 C   0  0  0  0  0  2  0  0  0  0  0  0
  191.5970  172.8240  144.0910 C   0  0  0  0  0  2  0  0  0  0  0  0
  192.0500  171.4950  144.3180 O   0  0  0  0  0  0  0  0  0  0  0  0
  193.9610  171.2030  143.0600 O   0  0  0  0  0  0  0  0  0  0  0  0
  193.3920  171.1250  144.1820 C   0  0  0  0  0  0  0  0  0  0  0  0
  194.1270  170.6620  145.2780 O   0  0  0  0  0  0  0  0  0  0  0  0
  194.2480  169.3160  145.6480 C   0  0  0  0  0  0  0  0  0  0  0  0
  193.7720  168.3960  144.9280 O   0  0  0  0  0  0  0  0  0  0  0  0
  196.2810  169.3150  147.0550 O   0  0  0  0  0  0  0  0  0  0  0  0
  194.9430  168.9770  146.8920 C   0  0  0  0  0  0  0  0  0  0  0  0
  194.3360  168.3770  147.8190 O   0  0  0  0  0  1  0  0  0  0  0  0
  195.2010  174.3570  144.7090 C   0  0  0  0  0  2  0  0  0  0  0  0
  196.2170  174.1720  145.8200 C   0  0  0  0  0  3  0  0  0  0  0  0
  196.7460  172.7530  145.7770 C   0  0  0  0  0  2  0  0  0  0  0  0
  197.5720  173.8850  145.2060 C   0  0  0  0  0  2  0  0  0  0  0  0
  1 18  1  6  0  0  0
  1  4  1  0  0  0  0
  1 25  1  0  0  0  0
  2  8  1  0  0  0  0
  4 16  1  1  0  0  0
  4 26  1  0  0  0  0
  7 17  1  0  0  0  0
  7 14  1  0  0  0  0
  8  5  2  0  0  0  0
  9 21  1  6  0  0  0
  9 30  1  0  0  0  0
 10  6  1  1  0  0  0
 10 17  1  0  0  0  0
 10 19  1  0  0  0  0
 11  3  1  6  0  0  0
 11 19  1  0  0  0  0
 11 30  1  0  0  0  0
 13 28  2  0  0  0  0
 14 41  1  1  0  0  0
 14  2  1  0  0  0  0
 17 27  2  0  0  0  0
 19 13  1  0  0  0  0
 20 12  1  6  0  0  0
 20  3  1  0  0  0  0
 20 23  1  0  0  0  0
 22  1  1  0  0  0  0
 22 12  1  0  0  0  0
 23  9  1  0  0  0  0
 24 26  1  0  0  0  0
 24 31  1  1  0  0  0
 25 15  1  6  0  0  0
 25 24  1  0  0  0  0
 25  6  1  0  0  0  0
 26 29  1  6  0  0  0
 27 13  1  0  0  0  0
 27  8  1  0  0  0  0
 29  4  1  0  0  0  0
 31 32  1  0  0  0  0
 33 34  2  0  0  0  0
 34 32  1  0  0  0  0
 34 35  1  0  0  0  0
 35 36  1  0  0  0  0
 36 39  1  0  0  0  0
 37 36  2  0  0  0  0
 39 38  2  0  0  0  0
 39 40  1  0  0  0  0
 41 42  1  0  0  0  0
 43 42  1  0  0  0  0
 44 43  1  0  0  0  0
 44 42  1  0  0  0  0
M  END
>  <MODEL>
7

>  <REMARK>
 VINA RESULT:      -6.9      2.615      5.704
  Name = 
  8 active torsions:
  status: ('A' for Active; 'I' for Inactive)
    1  A    between atoms: C_4  and  C_33
    2  A    between atoms: C_5  and  O_18
    3  A    between atoms: C_5  and  C_37
    4  A    between atoms: O_13  and  C_21
    5  A    between atoms: O_13  and  C_29
    6  A    between atoms: O_18  and  C_29
    7  A    between atoms: C_19  and  C_33
    8  A    between atoms: C_21  and  C_35
                            x       y       z     vdW  Elec       q    Type
                         _______ _______ _______ _____ _____    ______ ____

>  <TORSDO>
F 8

$$$$
=
 OpenBabel11062422133D

 44 50  0  0  1  0  0  0  0  0999 V2000
  189.4910  174.1530  141.1920 C   0  0  1  0  0  0  0  0  0  0  0  0
  193.9210  175.5280  146.5640 C   0  0  0  0  0  2  0  0  0  0  0  0
  188.0020  177.3940  142.9870 C   0  0  0  0  0  2  0  0  0  0  0  0
  188.7290  172.8860  141.6660 C   0  0  2  0  0  0  0  0  0  0  0  0
  192.6510  176.9570  148.0170 O   0  0  0  0  0  0  0  0  0  0  0  0
  189.9880  175.0710  143.4410 O   0  0  0  0  0  0  0  0  0  0  0  0
  193.0190  175.4250  144.2720 O   0  0  0  0  0  0  0  0  0  0  0  0
  192.7550  176.4180  146.8840 C   0  0  0  0  0  0  0  0  0  0  0  0
  185.9660  176.8530  144.8550 C   0  0  1  0  0  3  0  0  0  0  0  0
  190.6090  176.2970  143.8000 C   0  0  2  0  0  3  0  0  0  0  0  0
  188.4070  177.6190  144.4430 C   0  0  2  0  0  3  0  0  0  0  0  0
  187.2670  175.5730  141.4360 C   0  0  0  0  0  2  0  0  0  0  0  0
  190.4240  177.2130  145.9500 C   0  0  0  0  0  0  0  0  0  0  0  0
  194.2170  175.5390  145.0540 C   0  0  2  0  0  3  0  0  0  0  0  0
  191.8340  175.0550  141.7150 C   0  0  0  0  0  1  0  0  0  0  0  0
  187.3800  172.9300  142.0160 O   0  0  0  0  0  1  0  0  0  0  0  0
  191.8380  176.0690  144.6600 C   0  0  0  0  0  0  0  0  0  0  0  0
  190.1520  173.7860  139.8570 C   0  0  0  0  0  1  0  0  0  0  0  0
  189.7290  177.0490  144.7190 N   0  0  0  0  0  0  0  0  0  0  0  0
  187.3500  176.0260  142.8740 C   0  0  2  0  0  3  0  0  0  0  0  0
  185.2800  178.1900  144.6380 C   0  0  0  0  0  1  0  0  0  0  0  0
  188.6640  175.4130  140.8440 C   0  0  0  0  0  2  0  0  0  0  0  0
  185.9780  176.0420  143.5470 C   0  0  0  0  0  2  0  0  0  0  0  0
  190.8850  172.9650  142.7330 C   0  0  2  0  0  3  0  0  0  0  0  0
  190.5630  174.4010  142.3030 C   0  0  2  0  0  0  0  0  0  0  0  0
  189.5520  172.2320  142.7630 C   0  0  2  0  0  3  0  0  0  0  0  0
  191.7080  176.5750  145.8700 C   0  0  0  0  0  0  0  0  0  0  0  0
  189.9690  177.8330  146.9480 O   0  0  0  0  0  0  0  0  0  0  0  0
  189.3100  171.4970  141.4600 C   0  0  0  0  0  2  0  0  0  0  0  0
  187.3710  177.0580  145.4470 C   0  0  0  0  0  2  0  0  0  0  0  0
  191.5830  172.8610  144.0840 C   0  0  0  0  0  2  0  0  0  0  0  0
  191.9410  171.5120  144.3600 O   0  0  0  0  0  0  0  0  0  0  0  0
  193.9680  170.9310  145.2940 O   0  0  0  0  0  0  0  0  0  0  0  0
  193.2570  171.0490  144.2600 C   0  0  0  0  0  0  0  0  0  0  0  0
  193.8090  170.7090  143.0200 O   0  0  0  0  0  0  0  0  0  0  0  0
  194.6850  171.5200  142.2880 C   0  0  0  0  0  0  0  0  0  0  0  0
  195.8880  171.6660  142.6390 O   0  0  0  0  0  0  0  0  0  0  0  0
  193.0720  171.7250  140.4260 O   0  0  0  0  0  0  0  0  0  0  0  0
  194.1910  172.2080  141.0920 C   0  0  0  0  0  0  0  0  0  0  0  0
  194.7760  173.2370  140.6610 O   0  0  0  0  0  1  0  0  0  0  0  0
  195.1760  174.4160  144.7090 C   0  0  0  0  0  2  0  0  0  0  0  0
  196.2790  174.3310  145.7480 C   0  0  0  0  0  3  0  0  0  0  0  0
  196.8070  172.9110  145.7940 C   0  0  0  0  0  2  0  0  0  0  0  0
  197.5810  173.9830  145.0570 C   0  0  0  0  0  2  0  0  0  0  0  0
  1 18  1  6  0  0  0
  1  4  1  0  0  0  0
  1 25  1  0  0  0  0
  2  8  1  0  0  0  0
  4 16  1  1  0  0  0
  4 26  1  0  0  0  0
  7 17  1  0  0  0  0
  7 14  1  0  0  0  0
  8  5  2  0  0  0  0
  9 21  1  6  0  0  0
  9 30  1  0  0  0  0
 10  6  1  1  0  0  0
 10 17  1  0  0  0  0
 10 19  1  0  0  0  0
 11  3  1  6  0  0  0
 11 19  1  0  0  0  0
 11 30  1  0  0  0  0
 13 28  2  0  0  0  0
 14 41  1  1  0  0  0
 14  2  1  0  0  0  0
 17 27  2  0  0  0  0
 19 13  1  0  0  0  0
 20 12  1  6  0  0  0
 20  3  1  0  0  0  0
 20 23  1  0  0  0  0
 22  1  1  0  0  0  0
 22 12  1  0  0  0  0
 23  9  1  0  0  0  0
 24 26  1  0  0  0  0
 24 31  1  1  0  0  0
 25 15  1  6  0  0  0
 25 24  1  0  0  0  0
 25  6  1  0  0  0  0
 26 29  1  6  0  0  0
 27 13  1  0  0  0  0
 27  8  1  0  0  0  0
 29  4  1  0  0  0  0
 31 32  1  0  0  0  0
 34 32  1  0  0  0  0
 34 33  2  0  0  0  0
 35 34  1  0  0  0  0
 36 37  2  0  0  0  0
 36 35  1  0  0  0  0
 38 39  2  0  0  0  0
 39 36  1  0  0  0  0
 40 39  1  0  0  0  0
 41 42  1  0  0  0  0
 42 43  1  0  0  0  0
 44 42  1  0  0  0  0
 44 43  1  0  0  0  0
M  END
>  <MODEL>
8

>  <REMARK>
 VINA RESULT:      -6.6      2.163      5.460
  Name = 
  8 active torsions:
  status: ('A' for Active; 'I' for Inactive)
    1  A    between atoms: C_4  and  C_33
    2  A    between atoms: C_5  and  O_18
    3  A    between atoms: C_5  and  C_37
    4  A    between atoms: O_13  and  C_21
    5  A    between atoms: O_13  and  C_29
    6  A    between atoms: O_18  and  C_29
    7  A    between atoms: C_19  and  C_33
    8  A    between atoms: C_21  and  C_35
                            x       y       z     vdW  Elec       q    Type
                         _______ _______ _______ _____ _____    ______ ____

>  <TORSDO>
F 8

$$$$
=
 OpenBabel11062422133D

 44 50  0  0  1  0  0  0  0  0999 V2000
  193.7080  174.5990  145.1730 C   0  0  1  0  0  0  0  0  0  0  0  0
  190.4120  172.5620  139.2260 C   0  0  0  0  0  2  0  0  0  0  0  0
  189.8070  174.9550  145.9500 C   0  0  0  0  0  2  0  0  0  0  0  0
  194.3040  175.9840  144.8010 C   0  0  2  0  0  0  0  0  0  0  0  0
  188.1990  173.4640  139.4470 O   0  0  0  0  0  0  0  0  0  0  0  0
  191.7920  174.6580  143.6010 O   0  0  0  0  0  0  0  0  0  0  0  0
  191.6230  172.4240  141.3680 O   0  0  0  0  0  0  0  0  0  0  0  0
  189.2930  173.1910  140.0050 C   0  0  0  0  0  0  0  0  0  0  0  0
  188.7840  177.5520  145.5820 C   0  0  1  0  0  3  0  0  0  0  0  0
  190.7270  173.7310  143.4370 C   0  0  2  0  0  3  0  0  0  0  0  0
  188.8780  175.1010  144.7460 C   0  0  2  0  0  3  0  0  0  0  0  0
  192.0020  175.7830  146.8200 C   0  0  0  0  0  2  0  0  0  0  0  0
  188.7370  174.2910  142.3320 C   0  0  0  0  0  0  0  0  0  0  0  0
  191.3190  171.7300  140.1500 C   0  0  2  0  0  3  0  0  0  0  0  0
  193.1430  172.5280  143.7680 C   0  0  0  0  0  1  0  0  0  0  0  0
  193.8080  177.1660  145.3490 O   0  0  0  0  0  1  0  0  0  0  0  0
  190.6590  173.2050  142.0160 C   0  0  0  0  0  0  0  0  0  0  0  0
  194.8880  173.7250  145.6170 C   0  0  0  0  0  1  0  0  0  0  0  0
  189.4330  174.4340  143.5640 N   0  0  0  0  0  0  0  0  0  0  0  0
  190.8390  176.0700  145.9010 C   0  0  2  0  0  3  0  0  0  0  0  0
  187.7060  177.3790  146.6370 C   0  0  0  0  0  1  0  0  0  0  0  0
  192.7380  174.5220  146.3750 C   0  0  0  0  0  2  0  0  0  0  0  0
  190.1780  177.4110  146.2180 C   0  0  0  0  0  2  0  0  0  0  0  0
  194.0520  174.6620  142.8050 C   0  0  2  0  0  3  0  0  0  0  0  0
  193.0860  174.0710  143.8380 C   0  0  2  0  0  0  0  0  0  0  0  0
  194.3630  176.0720  143.2850 C   0  0  2  0  0  3  0  0  0  0  0  0
  189.5410  173.5450  141.4050 C   0  0  0  0  0  0  0  0  0  0  0  0
  187.5860  174.7510  142.1060 O   0  0  0  0  0  0  0  0  0  0  0  0
  195.6440  176.0960  144.0940 C   0  0  0  0  0  2  0  0  0  0  0  0
  188.5550  176.5780  144.4130 C   0  0  0  0  0  2  0  0  0  0  0  0
  193.5020  174.6900  141.3830 C   0  0  0  0  0  2  0  0  0  0  0  0
  194.3890  174.0270  140.4910 O   0  0  0  0  0  0  0  0  0  0  0  0
  195.8470  175.6620  139.7720 O   0  0  0  0  0  0  0  0  0  0  0  0
  195.0840  174.7020  139.4820 C   0  0  0  0  0  0  0  0  0  0  0  0
  194.9480  174.3310  138.1410 O   0  0  0  0  0  0  0  0  0  0  0  0
  194.7740  175.2280  137.0780 C   0  0  0  0  0  0  0  0  0  0  0  0
  195.7600  175.6620  136.4220 O   0  0  0  0  0  0  0  0  0  0  0  0
  192.3220  174.9180  137.1370 O   0  0  0  0  0  1  0  0  0  0  0  0
  193.4200  175.6630  136.7260 C   0  0  0  0  0  0  0  0  0  0  0  0
  193.2430  176.7120  136.0510 O   0  0  0  0  0  0  0  0  0  0  0  0
  192.5990  171.3650  139.4220 C   0  0  0  0  0  2  0  0  0  0  0  0
  192.3860  171.4310  137.9210 C   0  0  0  0  0  3  0  0  0  0  0  0
  193.7060  171.1750  137.2210 C   0  0  0  0  0  2  0  0  0  0  0  0
  192.6760  170.0710  137.3220 C   0  0  0  0  0  2  0  0  0  0  0  0
  1 18  1  1  0  0  0
  1 22  1  0  0  0  0
  2  8  1  0  0  0  0
  2 14  1  0  0  0  0
  4  1  1  0  0  0  0
  4 16  1  1  0  0  0
  5  8  2  0  0  0  0
  6 25  1  0  0  0  0
  7 17  1  0  0  0  0
  8 27  1  0  0  0  0
  9 23  1  0  0  0  0
  9 21  1  1  0  0  0
 10 17  1  6  0  0  0
 10 19  1  0  0  0  0
 10  6  1  0  0  0  0
 11 30  1  6  0  0  0
 11  3  1  0  0  0  0
 13 19  1  0  0  0  0
 14 41  1  6  0  0  0
 14  7  1  0  0  0  0
 19 11  1  0  0  0  0
 20  3  1  1  0  0  0
 20 23  1  0  0  0  0
 20 12  1  0  0  0  0
 22 12  1  0  0  0  0
 24 31  1  6  0  0  0
 24 26  1  0  0  0  0
 24 25  1  0  0  0  0
 25 15  1  6  0  0  0
 25  1  1  0  0  0  0
 26 29  1  1  0  0  0
 26  4  1  0  0  0  0
 27 17  2  0  0  0  0
 27 13  1  0  0  0  0
 28 13  2  0  0  0  0
 29  4  1  0  0  0  0
 30  9  1  0  0  0  0
 32 31  1  0  0  0  0
 34 33  2  0  0  0  0
 34 32  1  0  0  0  0
 35 34  1  0  0  0  0
 36 35  1  0  0  0  0
 37 36  2  0  0  0  0
 39 36  1  0  0  0  0
 39 38  1  0  0  0  0
 40 39  2  0  0  0  0
 42 41  1  0  0  0  0
 43 44  1  0  0  0  0
 43 42  1  0  0  0  0
 44 42  1  0  0  0  0
M  END
>  <MODEL>
9

>  <REMARK>
 VINA RESULT:      -6.5      2.355      4.677
  Name = 
  8 active torsions:
  status: ('A' for Active; 'I' for Inactive)
    1  A    between atoms: C_4  and  C_33
    2  A    between atoms: C_5  and  O_18
    3  A    between atoms: C_5  and  C_37
    4  A    between atoms: O_13  and  C_21
    5  A    between atoms: O_13  and  C_29
    6  A    between atoms: O_18  and  C_29
    7  A    between atoms: C_19  and  C_33
    8  A    between atoms: C_21  and  C_35
                            x       y       z     vdW  Elec       q    Type
                         _______ _______ _______ _____ _____    ______ ____

>  <TORSDO>
F 8

$$$$
