=
 OpenBabel11062422093D

 27 28  0  0  1  0  0  0  0  0999 V2000
  188.2910  176.6210  146.6170 C   0  0  0  0  0  0  0  0  0  0  0  0
  187.7380  175.6600  147.2190 O   0  0  0  0  0  0  0  0  0  0  0  0
  189.7040  176.6070  146.3840 N   0  0  0  0  0  2  0  0  0  0  0  0
  190.5560  175.4820  146.7410 C   0  0  2  0  0  3  0  0  0  0  0  0
  192.8600  175.6910  146.1490 C   0  0  0  0  0  0  0  0  0  0  0  0
  192.3570  174.8760  145.0530 C   0  0  0  0  0  0  0  0  0  0  0  0
  191.9310  175.9870  147.0410 C   0  0  0  0  0  3  0  0  0  0  0  0
  193.0480  174.6670  143.9680 N   0  0  0  0  0  0  0  0  0  0  0  0
  190.6750  174.3250  145.3250 S   0  0  0  0  0  0  0  0  0  0  0  0
  194.5240  177.3800  146.3400 O   0  0  0  0  0  0  0  0  0  0  0  0
  194.2550  176.1510  146.2930 C   0  0  0  0  0  0  0  0  0  0  0  0
  195.2900  175.2260  146.3720 O   0  0  0  0  0  1  0  0  0  0  0  0
  191.9220  174.6190  141.7180 C   0  0  0  0  0  1  0  0  0  0  0  0
  192.6510  173.9210  142.8080 C   0  0  0  0  0  0  0  0  0  0  0  0
  192.9110  172.6940  142.6870 O   0  0  0  0  0  0  0  0  0  0  0  0
  187.5070  177.6950  146.1800 O   0  0  0  0  0  0  0  0  0  0  0  0
  185.6130  179.1740  143.3810 N   0  0  0  0  0  2  0  0  0  0  0  0
  186.6050  176.6160  144.2060 C   0  0  0  0  0  2  0  0  0  0  0  0
  186.0830  178.9860  144.7500 C   0  0  0  0  0  2  0  0  0  0  0  0
  186.1580  176.7670  142.7460 C   0  0  1  0  0  3  0  0  0  0  0  0
  187.1620  177.9110  144.8140 C   0  0  1  0  0  0  0  0  0  0  0  0
  188.2790  178.3440  144.1180 F   0  0  0  0  0  0  0  0  0  0  0  0
  184.8380  178.2540  141.3620 N   0  0  0  0  0  2  0  0  0  0  0  0
  185.4590  178.0750  142.4800 C   0  0  0  0  0  0  0  0  0  0  0  0
  187.7970  175.1980  141.6420 N   0  0  0  0  0  1  0  0  0  0  0  0
  187.2960  176.5190  141.8010 C   0  0  0  0  0  0  0  0  0  0  0  0
  187.8350  177.4680  141.1730 O   0  0  0  0  0  0  0  0  0  0  0  0
  1  2  2  0  0  0  0
  3  1  1  0  0  0  0
  4  3  1  6  0  0  0
  4  7  1  0  0  0  0
  5 11  1  0  0  0  0
  5  7  2  0  0  0  0
  6  9  1  0  0  0  0
  6  5  1  0  0  0  0
  8  6  2  0  0  0  0
  9  4  1  0  0  0  0
 11 10  2  0  0  0  0
 11 12  1  0  0  0  0
 13 14  1  0  0  0  0
 14  8  1  0  0  0  0
 15 14  2  0  0  0  0
 16  1  1  0  0  0  0
 17 19  1  0  0  0  0
 18 21  1  0  0  0  0
 19 21  1  0  0  0  0
 20 26  1  6  0  0  0
 20 18  1  0  0  0  0
 21 22  1  6  0  0  0
 21 16  1  0  0  0  0
 23 24  2  0  0  0  0
 24 20  1  0  0  0  0
 24 17  1  0  0  0  0
 25 26  1  0  0  0  0
 27 26  2  0  0  0  0
M  END
>  <MODEL>
1

>  <REMARK>
 VINA RESULT:      -6.6      0.000      0.000
  Name = 
  6 active torsions:
  status: ('A' for Active; 'I' for Inactive)
    1  A    between atoms: C_2  and  O_13
    2  A    between atoms: C_3  and  N_26
    3  A    between atoms: C_4  and  C_15
    4  A    between atoms: C_9  and  C_12
    5  A    between atoms: O_13  and  C_20
    6  A    between atoms: N_17  and  C_18
                            x       y       z     vdW  Elec       q    Type
                         _______ _______ _______ _____ _____    ______ ____

>  <TORSDO>
F 6

$$$$
=
 OpenBabel11062422093D

 27 28  0  0  1  0  0  0  0  0999 V2000
  188.2240  176.2230  141.5380 C   0  0  0  0  0  0  0  0  0  0  0  0
  188.2420  175.3480  140.6310 O   0  0  0  0  0  0  0  0  0  0  0  0
  189.3190  176.3340  142.4540 N   0  0  0  0  0  2  0  0  0  0  0  0
  190.5240  175.5240  142.3510 C   0  0  2  0  0  3  0  0  0  0  0  0
  190.7330  173.7590  143.9470 C   0  0  0  0  0  0  0  0  0  0  0  0
  191.5590  174.7930  144.5550 C   0  0  0  0  0  0  0  0  0  0  0  0
  190.2130  174.1280  142.7890 C   0  0  0  0  0  3  0  0  0  0  0  0
  191.9740  174.7150  145.7870 N   0  0  0  0  0  0  0  0  0  0  0  0
  191.8130  176.1930  143.4680 S   0  0  0  0  0  0  0  0  0  0  0  0
  191.2130  171.4450  144.2150 O   0  0  0  0  0  0  0  0  0  0  0  0
  190.4840  172.4240  144.5240 C   0  0  0  0  0  0  0  0  0  0  0  0
  189.4340  172.2330  145.4140 O   0  0  0  0  0  1  0  0  0  0  0  0
  194.2320  175.6820  146.3360 C   0  0  0  0  0  1  0  0  0  0  0  0
  192.7550  175.6780  146.5090 C   0  0  0  0  0  0  0  0  0  0  0  0
  192.2240  176.5230  147.2780 O   0  0  0  0  0  0  0  0  0  0  0  0
  187.1230  177.0830  141.6360 O   0  0  0  0  0  0  0  0  0  0  0  0
  184.1690  178.0660  143.6150 N   0  0  0  0  0  2  0  0  0  0  0  0
  187.0270  178.1880  143.7900 C   0  0  0  0  0  2  0  0  0  0  0  0
  184.9800  177.8010  142.4310 C   0  0  0  0  0  2  0  0  0  0  0  0
  186.2250  178.4390  145.0740 C   0  0  1  0  0  3  0  0  0  0  0  0
  186.3370  177.2220  142.8170 C   0  0  1  0  0  0  0  0  0  0  0  0
  186.1540  175.9790  143.3990 F   0  0  0  0  0  0  0  0  0  0  0  0
  183.9700  178.9900  145.7670 N   0  0  0  0  0  2  0  0  0  0  0  0
  184.7440  178.5650  144.8240 C   0  0  0  0  0  0  0  0  0  0  0  0
  187.7800  177.5060  146.8280 N   0  0  0  0  0  1  0  0  0  0  0  0
  186.5480  177.4180  146.1250 C   0  0  0  0  0  0  0  0  0  0  0  0
  185.7580  176.4690  146.3700 O   0  0  0  0  0  0  0  0  0  0  0  0
  1 16  1  0  0  0  0
  1  3  1  0  0  0  0
  2  1  2  0  0  0  0
  4  3  1  1  0  0  0
  4  7  1  0  0  0  0
  4  9  1  0  0  0  0
  5 11  1  0  0  0  0
  5  6  1  0  0  0  0
  6  8  2  0  0  0  0
  7  5  2  0  0  0  0
  8 14  1  0  0  0  0
  9  6  1  0  0  0  0
 10 11  2  0  0  0  0
 11 12  1  0  0  0  0
 13 14  1  0  0  0  0
 14 15  2  0  0  0  0
 16 21  1  0  0  0  0
 17 24  1  0  0  0  0
 18 20  1  0  0  0  0
 19 21  1  0  0  0  0
 19 17  1  0  0  0  0
 20 26  1  1  0  0  0
 21 22  1  1  0  0  0
 21 18  1  0  0  0  0
 24 20  1  0  0  0  0
 24 23  2  0  0  0  0
 26 27  2  0  0  0  0
 26 25  1  0  0  0  0
M  END
>  <MODEL>
2

>  <REMARK>
 VINA RESULT:      -6.4      2.082      4.446
  Name = 
  6 active torsions:
  status: ('A' for Active; 'I' for Inactive)
    1  A    between atoms: C_2  and  O_13
    2  A    between atoms: C_3  and  N_26
    3  A    between atoms: C_4  and  C_15
    4  A    between atoms: C_9  and  C_12
    5  A    between atoms: O_13  and  C_20
    6  A    between atoms: N_17  and  C_18
                            x       y       z     vdW  Elec       q    Type
                         _______ _______ _______ _____ _____    ______ ____

>  <TORSDO>
F 6

$$$$
=
 OpenBabel11062422093D

 27 28  0  0  1  0  0  0  0  0999 V2000
  187.1510  177.7180  146.9720 C   0  0  0  0  0  0  0  0  0  0  0  0
  187.6290  178.3890  147.9270 O   0  0  0  0  0  0  0  0  0  0  0  0
  187.9330  176.6920  146.3510 N   0  0  0  0  0  2  0  0  0  0  0  0
  189.2570  176.3120  146.8180 C   0  0  2  0  0  3  0  0  0  0  0  0
  190.9950  176.3680  145.1800 C   0  0  0  0  0  0  0  0  0  0  0  0
  190.6580  174.9510  145.1900 C   0  0  0  0  0  0  0  0  0  0  0  0
  190.2860  177.0730  146.0440 C   0  0  0  0  0  3  0  0  0  0  0  0
  191.0760  174.1310  144.2690 N   0  0  0  0  0  0  0  0  0  0  0  0
  189.5290  174.5260  146.5130 S   0  0  0  0  0  0  0  0  0  0  0  0
  193.2260  177.0240  144.6830 O   0  0  0  0  0  1  0  0  0  0  0  0
  192.0210  176.9890  144.3210 C   0  0  0  0  0  0  0  0  0  0  0  0
  191.6630  177.5490  143.1000 O   0  0  0  0  0  0  0  0  0  0  0  0
  189.4820  172.3170  143.5610 C   0  0  0  0  0  1  0  0  0  0  0  0
  190.7840  172.7310  144.1450 C   0  0  0  0  0  0  0  0  0  0  0  0
  191.6030  171.8480  144.5110 O   0  0  0  0  0  0  0  0  0  0  0  0
  185.8500  177.9880  146.5320 O   0  0  0  0  0  0  0  0  0  0  0  0
  183.6590  179.0060  143.7440 N   0  0  0  0  0  2  0  0  0  0  0  0
  185.6530  177.0290  144.3150 C   0  0  0  0  0  2  0  0  0  0  0  0
  184.0810  178.7800  145.1220 C   0  0  0  0  0  2  0  0  0  0  0  0
  185.2730  177.2510  142.8450 C   0  0  1  0  0  3  0  0  0  0  0  0
  185.5250  178.2920  145.1780 C   0  0  1  0  0  0  0  0  0  0  0  0
  186.3630  179.2940  144.7160 F   0  0  0  0  0  0  0  0  0  0  0  0
  183.5060  178.2510  141.5230 N   0  0  0  0  0  2  0  0  0  0  0  0
  184.0730  178.1470  142.6790 C   0  0  0  0  0  0  0  0  0  0  0  0
  187.7660  177.4950  142.5430 N   0  0  0  0  0  1  0  0  0  0  0  0
  186.4530  177.7120  142.0430 C   0  0  0  0  0  0  0  0  0  0  0  0
  186.2970  178.3160  140.9490 O   0  0  0  0  0  0  0  0  0  0  0  0
  1  2  2  0  0  0  0
  3  1  1  0  0  0  0
  4  3  1  6  0  0  0
  5  6  1  0  0  0  0
  5  7  2  0  0  0  0
  6  9  1  0  0  0  0
  7  4  1  0  0  0  0
  8  6  2  0  0  0  0
  9  4  1  0  0  0  0
 11 10  1  0  0  0  0
 11  5  1  0  0  0  0
 12 11  2  0  0  0  0
 13 14  1  0  0  0  0
 14  8  1  0  0  0  0
 14 15  2  0  0  0  0
 16  1  1  0  0  0  0
 17 19  1  0  0  0  0
 18 21  1  0  0  0  0
 19 21  1  0  0  0  0
 20 26  1  6  0  0  0
 20 18  1  0  0  0  0
 21 22  1  6  0  0  0
 21 16  1  0  0  0  0
 23 24  2  0  0  0  0
 24 20  1  0  0  0  0
 24 17  1  0  0  0  0
 26 25  1  0  0  0  0
 27 26  2  0  0  0  0
M  END
>  <MODEL>
3

>  <REMARK>
 VINA RESULT:      -6.4      2.051      2.298
  Name = 
  6 active torsions:
  status: ('A' for Active; 'I' for Inactive)
    1  A    between atoms: C_2  and  O_13
    2  A    between atoms: C_3  and  N_26
    3  A    between atoms: C_4  and  C_15
    4  A    between atoms: C_9  and  C_12
    5  A    between atoms: O_13  and  C_20
    6  A    between atoms: N_17  and  C_18
                            x       y       z     vdW  Elec       q    Type
                         _______ _______ _______ _____ _____    ______ ____

>  <TORSDO>
F 6

$$$$
=
 OpenBabel11062422093D

 27 28  0  0  1  0  0  0  0  0999 V2000
  189.3850  175.0980  142.4010 C   0  0  0  0  0  0  0  0  0  0  0  0
  188.9540  173.9940  142.8300 O   0  0  0  0  0  0  0  0  0  0  0  0
  190.7790  175.4110  142.4900 N   0  0  0  0  0  2  0  0  0  0  0  0
  191.7720  174.4720  142.9920 C   0  0  2  0  0  3  0  0  0  0  0  0
  193.3290  175.3510  144.5760 C   0  0  0  0  0  0  0  0  0  0  0  0
  194.1060  175.4140  143.3460 C   0  0  0  0  0  0  0  0  0  0  0  0
  192.1240  174.8390  144.3980 C   0  0  0  0  0  3  0  0  0  0  0  0
  195.2210  176.0840  143.2620 N   0  0  0  0  0  0  0  0  0  0  0  0
  193.2960  174.5890  141.9800 S   0  0  0  0  0  0  0  0  0  0  0  0
  193.1050  176.5670  146.6080 O   0  0  0  0  0  1  0  0  0  0  0  0
  193.8030  175.7920  145.9020 C   0  0  0  0  0  0  0  0  0  0  0  0
  195.0320  175.3580  146.3840 O   0  0  0  0  0  0  0  0  0  0  0  0
  197.2310  175.3630  141.9300 C   0  0  0  0  0  1  0  0  0  0  0  0
  196.0540  176.2550  142.1060 C   0  0  0  0  0  0  0  0  0  0  0  0
  195.8110  177.1320  141.2360 O   0  0  0  0  0  0  0  0  0  0  0  0
  188.4850  176.0080  141.8350 O   0  0  0  0  0  0  0  0  0  0  0  0
  185.9290  178.5920  142.4680 N   0  0  0  0  0  2  0  0  0  0  0  0
  188.0960  177.3150  143.8390 C   0  0  0  0  0  2  0  0  0  0  0  0
  186.8930  177.7950  141.7160 C   0  0  0  0  0  2  0  0  0  0  0  0
  187.0910  178.1100  144.6840 C   0  0  1  0  0  3  0  0  0  0  0  0
  187.4770  176.6860  142.5830 C   0  0  1  0  0  0  0  0  0  0  0  0
  186.4730  175.7930  142.9190 F   0  0  0  0  0  0  0  0  0  0  0  0
  185.3710  179.7930  144.4100 N   0  0  0  0  0  2  0  0  0  0  0  0
  186.1280  178.9110  143.8460 C   0  0  0  0  0  0  0  0  0  0  0  0
  187.1030  176.7710  146.8220 N   0  0  0  0  0  1  0  0  0  0  0  0
  186.3960  177.2260  145.6760 C   0  0  0  0  0  0  0  0  0  0  0  0
  185.2070  176.8550  145.4910 O   0  0  0  0  0  0  0  0  0  0  0  0
  1  3  1  0  0  0  0
  1  2  2  0  0  0  0
  4  3  1  6  0  0  0
  4  7  1  0  0  0  0
  5 11  1  0  0  0  0
  6  5  1  0  0  0  0
  7  5  2  0  0  0  0
  8  6  2  0  0  0  0
  9  4  1  0  0  0  0
  9  6  1  0  0  0  0
 11 12  2  0  0  0  0
 11 10  1  0  0  0  0
 13 14  1  0  0  0  0
 14  8  1  0  0  0  0
 15 14  2  0  0  0  0
 16  1  1  0  0  0  0
 16 21  1  0  0  0  0
 17 24  1  0  0  0  0
 18 20  1  0  0  0  0
 19 17  1  0  0  0  0
 19 21  1  0  0  0  0
 20 26  1  6  0  0  0
 21 22  1  1  0  0  0
 21 18  1  0  0  0  0
 24 23  2  0  0  0  0
 24 20  1  0  0  0  0
 26 25  1  0  0  0  0
 27 26  2  0  0  0  0
M  END
>  <MODEL>
4

>  <REMARK>
 VINA RESULT:      -6.1      2.538      3.605
  Name = 
  6 active torsions:
  status: ('A' for Active; 'I' for Inactive)
    1  A    between atoms: C_2  and  O_13
    2  A    between atoms: C_3  and  N_26
    3  A    between atoms: C_4  and  C_15
    4  A    between atoms: C_9  and  C_12
    5  A    between atoms: O_13  and  C_20
    6  A    between atoms: N_17  and  C_18
                            x       y       z     vdW  Elec       q    Type
                         _______ _______ _______ _____ _____    ______ ____

>  <TORSDO>
F 6

$$$$
=
 OpenBabel11062422093D

 27 28  0  0  1  0  0  0  0  0999 V2000
  189.8560  175.9860  145.9690 C   0  0  0  0  0  0  0  0  0  0  0  0
  190.0310  176.0340  147.2170 O   0  0  0  0  0  0  0  0  0  0  0  0
  190.9750  176.0880  145.0810 N   0  0  0  0  0  2  0  0  0  0  0  0
  192.3520  176.1690  145.5460 C   0  0  2  0  0  3  0  0  0  0  0  0
  194.0320  175.7420  143.9020 C   0  0  0  0  0  0  0  0  0  0  0  0
  193.9520  174.4500  144.5710 C   0  0  0  0  0  0  0  0  0  0  0  0
  193.2190  176.6440  144.4230 C   0  0  0  0  0  3  0  0  0  0  0  0
  194.4980  173.3760  144.0750 N   0  0  0  0  0  0  0  0  0  0  0  0
  192.9330  174.5030  146.0410 S   0  0  0  0  0  0  0  0  0  0  0  0
  194.5440  175.8550  141.5820 O   0  0  0  0  0  0  0  0  0  0  0  0
  194.9210  176.0550  142.7670 C   0  0  0  0  0  0  0  0  0  0  0  0
  196.1910  176.5710  142.9970 O   0  0  0  0  0  1  0  0  0  0  0  0
  195.5630  171.5950  145.4980 C   0  0  0  0  0  1  0  0  0  0  0  0
  194.4580  172.0470  144.6130 C   0  0  0  0  0  0  0  0  0  0  0  0
  193.5090  171.2580  144.3620 O   0  0  0  0  0  0  0  0  0  0  0  0
  188.5590  175.8300  145.4670 O   0  0  0  0  0  0  0  0  0  0  0  0
  185.7150  177.6530  146.9490 N   0  0  0  0  0  2  0  0  0  0  0  0
  186.5540  176.6680  144.3930 C   0  0  0  0  0  2  0  0  0  0  0  0
  186.8210  176.7050  146.8650 C   0  0  0  0  0  2  0  0  0  0  0  0
  185.4110  177.6910  144.4200 C   0  0  1  0  0  3  0  0  0  0  0  0
  187.5600  176.8450  145.5390 C   0  0  1  0  0  0  0  0  0  0  0  0
  188.1630  178.0910  145.4820 F   0  0  0  0  0  0  0  0  0  0  0  0
  183.8160  178.6400  145.9770 N   0  0  0  0  0  2  0  0  0  0  0  0
  184.9100  177.9730  145.8130 C   0  0  0  0  0  0  0  0  0  0  0  0
  186.4300  178.8360  142.4160 N   0  0  0  0  0  1  0  0  0  0  0  0
  185.7810  178.9400  143.6760 C   0  0  0  0  0  0  0  0  0  0  0  0
  185.5530  180.0770  144.1660 O   0  0  0  0  0  0  0  0  0  0  0  0
  1  2  2  0  0  0  0
  3  1  1  0  0  0  0
  4  3  1  6  0  0  0
  4  9  1  0  0  0  0
  5  7  2  0  0  0  0
  5  6  1  0  0  0  0
  6  9  1  0  0  0  0
  7  4  1  0  0  0  0
  8  6  2  0  0  0  0
  8 14  1  0  0  0  0
 10 11  2  0  0  0  0
 11 12  1  0  0  0  0
 11  5  1  0  0  0  0
 14 13  1  0  0  0  0
 15 14  2  0  0  0  0
 16 21  1  0  0  0  0
 16  1  1  0  0  0  0
 18 20  1  0  0  0  0
 18 21  1  0  0  0  0
 19 17  1  0  0  0  0
 20 26  1  1  0  0  0
 20 24  1  0  0  0  0
 21 22  1  6  0  0  0
 21 19  1  0  0  0  0
 24 23  2  0  0  0  0
 24 17  1  0  0  0  0
 25 26  1  0  0  0  0
 26 27  2  0  0  0  0
M  END
>  <MODEL>
5

>  <REMARK>
 VINA RESULT:      -6.1      2.463      3.160
  Name = 
  6 active torsions:
  status: ('A' for Active; 'I' for Inactive)
    1  A    between atoms: C_2  and  O_13
    2  A    between atoms: C_3  and  N_26
    3  A    between atoms: C_4  and  C_15
    4  A    between atoms: C_9  and  C_12
    5  A    between atoms: O_13  and  C_20
    6  A    between atoms: N_17  and  C_18
                            x       y       z     vdW  Elec       q    Type
                         _______ _______ _______ _____ _____    ______ ____

>  <TORSDO>
F 6

$$$$
=
 OpenBabel11062422093D

 27 28  0  0  1  0  0  0  0  0999 V2000
  189.1990  175.5290  146.9230 C   0  0  0  0  0  0  0  0  0  0  0  0
  188.9810  174.4360  147.5140 O   0  0  0  0  0  0  0  0  0  0  0  0
  190.1140  175.5830  145.8230 N   0  0  0  0  0  2  0  0  0  0  0  0
  190.7700  174.4030  145.2790 C   0  0  2  0  0  3  0  0  0  0  0  0
  192.0150  174.7390  143.2670 C   0  0  0  0  0  0  0  0  0  0  0  0
  190.7650  174.2040  142.7440 C   0  0  0  0  0  0  0  0  0  0  0  0
  192.0290  174.8200  144.5860 C   0  0  0  0  0  3  0  0  0  0  0  0
  190.4650  174.2530  141.4770 N   0  0  0  0  0  0  0  0  0  0  0  0
  189.6800  173.6100  144.0380 S   0  0  0  0  0  0  0  0  0  0  0  0
  193.4070  176.3660  142.2330 O   0  0  0  0  0  1  0  0  0  0  0  0
  193.1710  175.1480  142.4480 C   0  0  0  0  0  0  0  0  0  0  0  0
  194.0110  174.1880  141.8970 O   0  0  0  0  0  0  0  0  0  0  0  0
  188.3300  174.8030  140.2630 C   0  0  0  0  0  1  0  0  0  0  0  0
  189.2590  173.7990  140.8460 C   0  0  0  0  0  0  0  0  0  0  0  0
  188.9710  172.5760  140.7660 O   0  0  0  0  0  0  0  0  0  0  0  0
  188.5340  176.6820  147.3550 O   0  0  0  0  0  0  0  0  0  0  0  0
  185.7440  179.0070  146.7040 N   0  0  0  0  0  2  0  0  0  0  0  0
  186.6260  176.4070  145.8850 C   0  0  0  0  0  2  0  0  0  0  0  0
  186.7960  178.3290  147.4550 C   0  0  0  0  0  2  0  0  0  0  0  0
  185.5440  177.0890  145.0380 C   0  0  1  0  0  3  0  0  0  0  0  0
  187.5940  177.3940  146.5530 C   0  0  1  0  0  0  0  0  0  0  0  0
  188.2710  178.1430  145.6040 F   0  0  0  0  0  0  0  0  0  0  0  0
  183.9470  178.9040  145.1940 N   0  0  0  0  0  2  0  0  0  0  0  0
  185.0060  178.3440  145.6770 C   0  0  0  0  0  0  0  0  0  0  0  0
  186.1930  176.2000  142.7690 N   0  0  0  0  0  1  0  0  0  0  0  0
  186.0160  177.3140  143.6320 C   0  0  0  0  0  0  0  0  0  0  0  0
  186.2860  178.4720  143.2180 O   0  0  0  0  0  0  0  0  0  0  0  0
  1 16  1  0  0  0  0
  1  2  2  0  0  0  0
  3  1  1  0  0  0  0
  4  3  1  6  0  0  0
  5  7  2  0  0  0  0
  6  5  1  0  0  0  0
  6  9  1  0  0  0  0
  7  4  1  0  0  0  0
  8  6  2  0  0  0  0
  9  4  1  0  0  0  0
 10 11  1  0  0  0  0
 11  5  1  0  0  0  0
 12 11  2  0  0  0  0
 13 14  1  0  0  0  0
 14  8  1  0  0  0  0
 15 14  2  0  0  0  0
 17 19  1  0  0  0  0
 18 21  1  0  0  0  0
 20 26  1  6  0  0  0
 20 24  1  0  0  0  0
 20 18  1  0  0  0  0
 21 22  1  6  0  0  0
 21 16  1  0  0  0  0
 21 19  1  0  0  0  0
 23 24  2  0  0  0  0
 24 17  1  0  0  0  0
 25 26  1  0  0  0  0
 27 26  2  0  0  0  0
M  END
>  <MODEL>
6

>  <REMARK>
 VINA RESULT:      -5.9      2.276      2.994
  Name = 
  6 active torsions:
  status: ('A' for Active; 'I' for Inactive)
    1  A    between atoms: C_2  and  O_13
    2  A    between atoms: C_3  and  N_26
    3  A    between atoms: C_4  and  C_15
    4  A    between atoms: C_9  and  C_12
    5  A    between atoms: O_13  and  C_20
    6  A    between atoms: N_17  and  C_18
                            x       y       z     vdW  Elec       q    Type
                         _______ _______ _______ _____ _____    ______ ____

>  <TORSDO>
F 6

$$$$
=
 OpenBabel11062422093D

 27 28  0  0  1  0  0  0  0  0999 V2000
  190.2150  177.0310  144.6240 C   0  0  0  0  0  0  0  0  0  0  0  0
  190.4330  178.2420  144.3510 O   0  0  0  0  0  0  0  0  0  0  0  0
  191.2960  176.1730  145.0080 N   0  0  0  0  0  2  0  0  0  0  0  0
  192.6610  176.6470  145.1820 C   0  0  2  0  0  3  0  0  0  0  0  0
  194.2370  175.9020  143.5480 C   0  0  0  0  0  0  0  0  0  0  0  0
  194.4930  174.9700  144.6370 C   0  0  0  0  0  0  0  0  0  0  0  0
  193.3020  176.7910  143.8380 C   0  0  0  0  0  3  0  0  0  0  0  0
  195.2070  173.8920  144.4760 N   0  0  0  0  0  0  0  0  0  0  0  0
  193.6240  175.4160  146.1380 S   0  0  0  0  0  0  0  0  0  0  0  0
  195.9490  176.6170  142.0600 O   0  0  0  0  0  1  0  0  0  0  0  0
  194.9330  175.8980  142.2470 C   0  0  0  0  0  0  0  0  0  0  0  0
  194.4660  175.0990  141.2090 O   0  0  0  0  0  0  0  0  0  0  0  0
  196.8160  172.9020  146.1380 C   0  0  0  0  0  1  0  0  0  0  0  0
  195.4970  172.8820  145.4530 C   0  0  0  0  0  0  0  0  0  0  0  0
  194.6640  171.9860  145.7490 O   0  0  0  0  0  0  0  0  0  0  0  0
  188.9070  176.5390  144.5510 O   0  0  0  0  0  0  0  0  0  0  0  0
  186.4750  178.0170  146.8990 N   0  0  0  0  0  2  0  0  0  0  0  0
  186.4890  176.6190  144.3980 C   0  0  0  0  0  2  0  0  0  0  0  0
  187.6900  177.3430  146.4520 C   0  0  0  0  0  2  0  0  0  0  0  0
  185.1960  177.3410  144.8010 C   0  0  1  0  0  3  0  0  0  0  0  0
  187.7600  177.2970  144.9300 C   0  0  1  0  0  0  0  0  0  0  0  0
  187.8760  178.5870  144.4390 F   0  0  0  0  0  0  0  0  0  0  0  0
  184.1440  178.2860  146.7680 N   0  0  0  0  0  2  0  0  0  0  0  0
  185.2300  177.8530  146.2180 C   0  0  0  0  0  0  0  0  0  0  0  0
  184.1610  178.0500  142.6120 N   0  0  0  0  0  1  0  0  0  0  0  0
  184.8380  178.4080  143.8100 C   0  0  0  0  0  0  0  0  0  0  0  0
  185.1560  179.6100  144.0090 O   0  0  0  0  0  0  0  0  0  0  0  0
  1  3  1  0  0  0  0
  2  1  2  0  0  0  0
  4  3  1  6  0  0  0
  4  9  1  0  0  0  0
  5  7  2  0  0  0  0
  5  6  1  0  0  0  0
  6  9  1  0  0  0  0
  7  4  1  0  0  0  0
  8  6  2  0  0  0  0
  8 14  1  0  0  0  0
 10 11  1  0  0  0  0
 11  5  1  0  0  0  0
 12 11  2  0  0  0  0
 14 15  2  0  0  0  0
 14 13  1  0  0  0  0
 16  1  1  0  0  0  0
 16 21  1  0  0  0  0
 18 20  1  0  0  0  0
 18 21  1  0  0  0  0
 19 17  1  0  0  0  0
 20 26  1  6  0  0  0
 20 24  1  0  0  0  0
 21 22  1  6  0  0  0
 21 19  1  0  0  0  0
 24 23  2  0  0  0  0
 24 17  1  0  0  0  0
 25 26  1  0  0  0  0
 26 27  2  0  0  0  0
M  END
>  <MODEL>
7

>  <REMARK>
 VINA RESULT:      -5.9      2.731      3.654
  Name = 
  6 active torsions:
  status: ('A' for Active; 'I' for Inactive)
    1  A    between atoms: C_2  and  O_13
    2  A    between atoms: C_3  and  N_26
    3  A    between atoms: C_4  and  C_15
    4  A    between atoms: C_9  and  C_12
    5  A    between atoms: O_13  and  C_20
    6  A    between atoms: N_17  and  C_18
                            x       y       z     vdW  Elec       q    Type
                         _______ _______ _______ _____ _____    ______ ____

>  <TORSDO>
F 6

$$$$
=
 OpenBabel11062422093D

 27 28  0  0  1  0  0  0  0  0999 V2000
  191.2360  175.9320  146.4310 C   0  0  0  0  0  0  0  0  0  0  0  0
  190.9870  174.8850  147.0870 O   0  0  0  0  0  0  0  0  0  0  0  0
  190.2940  176.4200  145.4690 N   0  0  0  0  0  2  0  0  0  0  0  0
  188.9930  175.8060  145.2510 C   0  0  2  0  0  3  0  0  0  0  0  0
  187.4640  177.0540  143.9050 C   0  0  0  0  0  0  0  0  0  0  0  0
  187.0070  177.3930  145.2450 C   0  0  0  0  0  0  0  0  0  0  0  0
  188.4810  176.2100  143.9050 C   0  0  0  0  0  3  0  0  0  0  0  0
  186.1730  178.3690  145.4690 N   0  0  0  0  0  0  0  0  0  0  0  0
  187.8070  176.4110  146.5100 S   0  0  0  0  0  0  0  0  0  0  0  0
  187.2060  178.6980  142.2060 O   0  0  0  0  0  1  0  0  0  0  0  0
  186.8770  177.5680  142.6530 C   0  0  0  0  0  0  0  0  0  0  0  0
  185.9450  176.8080  141.9560 O   0  0  0  0  0  0  0  0  0  0  0  0
  184.3840  178.2930  147.2370 C   0  0  0  0  0  1  0  0  0  0  0  0
  185.6790  178.8240  146.7370 C   0  0  0  0  0  0  0  0  0  0  0  0
  186.3160  179.6530  147.4390 O   0  0  0  0  0  0  0  0  0  0  0  0
  192.4400  176.6090  146.6570 O   0  0  0  0  0  0  0  0  0  0  0  0
  195.4670  176.9270  144.5720 N   0  0  0  0  0  2  0  0  0  0  0  0
  193.4840  174.9620  145.2170 C   0  0  0  0  0  2  0  0  0  0  0  0
  194.2390  177.3320  145.2490 C   0  0  0  0  0  2  0  0  0  0  0  0
  194.7720  174.4760  144.5390 C   0  0  1  0  0  3  0  0  0  0  0  0
  193.6890  176.1970  146.1060 C   0  0  1  0  0  0  0  0  0  0  0  0
  194.5790  175.9270  147.1320 F   0  0  0  0  0  0  0  0  0  0  0  0
  196.6420  175.3580  143.2760 N   0  0  0  0  0  2  0  0  0  0  0  0
  195.6410  175.6080  144.0530 C   0  0  0  0  0  0  0  0  0  0  0  0
  195.0710  172.1650  145.5050 N   0  0  0  0  0  1  0  0  0  0  0  0
  195.5160  173.5120  145.4140 C   0  0  0  0  0  0  0  0  0  0  0  0
  196.5080  173.8870  146.0930 O   0  0  0  0  0  0  0  0  0  0  0  0
  1 16  1  0  0  0  0
  1  2  2  0  0  0  0
  3  1  1  0  0  0  0
  4  3  1  1  0  0  0
  4  9  1  0  0  0  0
  5  6  1  0  0  0  0
  6  8  2  0  0  0  0
  6  9  1  0  0  0  0
  7  5  2  0  0  0  0
  7  4  1  0  0  0  0
  8 14  1  0  0  0  0
 10 11  1  0  0  0  0
 11  5  1  0  0  0  0
 12 11  2  0  0  0  0
 14 13  1  0  0  0  0
 14 15  2  0  0  0  0
 17 19  1  0  0  0  0
 18 21  1  0  0  0  0
 19 21  1  0  0  0  0
 20 18  1  0  0  0  0
 20 26  1  1  0  0  0
 21 16  1  0  0  0  0
 21 22  1  1  0  0  0
 23 24  2  0  0  0  0
 24 20  1  0  0  0  0
 24 17  1  0  0  0  0
 26 25  1  0  0  0  0
 26 27  2  0  0  0  0
M  END
>  <MODEL>
8

>  <REMARK>
 VINA RESULT:      -5.8      2.875      8.000
  Name = 
  6 active torsions:
  status: ('A' for Active; 'I' for Inactive)
    1  A    between atoms: C_2  and  O_13
    2  A    between atoms: C_3  and  N_26
    3  A    between atoms: C_4  and  C_15
    4  A    between atoms: C_9  and  C_12
    5  A    between atoms: O_13  and  C_20
    6  A    between atoms: N_17  and  C_18
                            x       y       z     vdW  Elec       q    Type
                         _______ _______ _______ _____ _____    ______ ____

>  <TORSDO>
F 6

$$$$
=
 OpenBabel11062422093D

 27 28  0  0  1  0  0  0  0  0999 V2000
  189.6140  175.2420  142.8110 C   0  0  0  0  0  0  0  0  0  0  0  0
  189.2150  174.0660  143.0340 O   0  0  0  0  0  0  0  0  0  0  0  0
  190.9950  175.5780  142.9820 N   0  0  0  0  0  2  0  0  0  0  0  0
  192.0120  174.5980  143.3330 C   0  0  2  0  0  3  0  0  0  0  0  0
  193.7330  175.3650  144.8020 C   0  0  0  0  0  0  0  0  0  0  0  0
  194.3890  175.4840  143.5070 C   0  0  0  0  0  0  0  0  0  0  0  0
  192.5060  174.8820  144.7160 C   0  0  0  0  0  3  0  0  0  0  0  0
  195.5040  176.1410  143.3500 N   0  0  0  0  0  0  0  0  0  0  0  0
  193.4330  174.7480  142.1850 S   0  0  0  0  0  0  0  0  0  0  0  0
  195.3150  175.0690  146.5530 O   0  0  0  0  0  0  0  0  0  0  0  0
  194.3420  175.7250  146.0970 C   0  0  0  0  0  0  0  0  0  0  0  0
  193.8410  176.7930  146.8310 O   0  0  0  0  0  1  0  0  0  0  0  0
  197.4880  175.6160  141.8940 C   0  0  0  0  0  1  0  0  0  0  0  0
  196.2240  176.3620  142.1290 C   0  0  0  0  0  0  0  0  0  0  0  0
  195.8110  177.1640  141.2510 O   0  0  0  0  0  0  0  0  0  0  0  0
  188.6910  176.2080  142.3940 O   0  0  0  0  0  0  0  0  0  0  0  0
  187.6560  177.5280  145.6800 N   0  0  0  0  0  2  0  0  0  0  0  0
  186.4590  176.4600  143.3060 C   0  0  0  0  0  2  0  0  0  0  0  0
  188.4860  176.8410  144.6960 C   0  0  0  0  0  2  0  0  0  0  0  0
  185.5460  177.2050  144.2880 C   0  0  1  0  0  3  0  0  0  0  0  0
  187.9030  176.9830  143.2950 C   0  0  1  0  0  0  0  0  0  0  0  0
  187.9440  178.3140  142.9160 F   0  0  0  0  0  0  0  0  0  0  0  0
  185.5320  177.9590  146.5900 N   0  0  0  0  0  2  0  0  0  0  0  0
  186.2300  177.5310  145.5910 C   0  0  0  0  0  0  0  0  0  0  0  0
  185.4670  179.6980  143.9050 N   0  0  0  0  0  1  0  0  0  0  0  0
  184.9250  178.4100  143.6460 C   0  0  0  0  0  0  0  0  0  0  0  0
  183.9110  178.2990  142.9060 O   0  0  0  0  0  0  0  0  0  0  0  0
  1  3  1  0  0  0  0
  1  2  2  0  0  0  0
  4  3  1  6  0  0  0
  4  7  1  0  0  0  0
  5 11  1  0  0  0  0
  6  5  1  0  0  0  0
  7  5  2  0  0  0  0
  8  6  2  0  0  0  0
  9  4  1  0  0  0  0
  9  6  1  0  0  0  0
 11 10  2  0  0  0  0
 11 12  1  0  0  0  0
 13 14  1  0  0  0  0
 14  8  1  0  0  0  0
 15 14  2  0  0  0  0
 16  1  1  0  0  0  0
 16 21  1  0  0  0  0
 18 20  1  0  0  0  0
 19 17  1  0  0  0  0
 20 26  1  6  0  0  0
 20 24  1  0  0  0  0
 21 22  1  6  0  0  0
 21 18  1  0  0  0  0
 21 19  1  0  0  0  0
 24 17  1  0  0  0  0
 24 23  2  0  0  0  0
 26 25  1  0  0  0  0
 27 26  2  0  0  0  0
M  END
>  <MODEL>
9

>  <REMARK>
 VINA RESULT:      -5.8      2.672      3.627
  Name = 
  6 active torsions:
  status: ('A' for Active; 'I' for Inactive)
    1  A    between atoms: C_2  and  O_13
    2  A    between atoms: C_3  and  N_26
    3  A    between atoms: C_4  and  C_15
    4  A    between atoms: C_9  and  C_12
    5  A    between atoms: O_13  and  C_20
    6  A    between atoms: N_17  and  C_18
                            x       y       z     vdW  Elec       q    Type
                         _______ _______ _______ _____ _____    ______ ____

>  <TORSDO>
F 6

$$$$
