=
 OpenBabel11072409403D

 25 25  0  0  1  0  0  0  0  0999 V2000
  186.0420  178.4180  145.7280 N   0  0  0  0  0  0  0  0  0  0  0  0
  185.6770  179.1730  146.9210 C   0  0  0  0  0  2  0  0  0  0  0  0
  186.4440  177.3140  146.5920 C   0  0  2  0  0  3  0  0  0  0  0  0
  186.1120  178.0700  147.8580 C   0  0  0  0  0  2  0  0  0  0  0  0
  187.9470  177.0890  146.4770 C   0  0  0  0  0  2  0  0  0  0  0  0
  188.2850  175.6110  146.6180 C   0  0  0  0  0  2  0  0  0  0  0  0
  189.6320  175.3310  146.1430 N   0  0  0  0  0  0  0  0  0  0  0  0
  191.0700  173.8050  145.0950 O   0  0  0  0  0  0  0  0  0  0  0  0
  189.9220  174.0630  145.5440 C   0  0  0  0  0  3  0  0  0  0  0  0
  190.6560  176.3590  146.2910 C   0  0  0  0  0  2  0  0  0  0  0  0
  191.3760  177.1730  148.4160 O   0  0  0  0  0  1  0  0  0  0  0  0
  191.5010  176.1040  147.5290 C   0  0  2  0  0  3  0  0  0  0  0  0
  192.8250  175.9680  147.1590 F   0  0  0  0  0  0  0  0  0  0  0  0
  184.8010  178.0260  145.0680 C   0  0  0  0  0  2  0  0  0  0  0  0
  185.0020  177.8730  143.5600 C   0  0  1  0  0  3  0  0  0  0  0  0
  183.8020  178.2860  142.8520 N   0  0  0  0  0  0  0  0  0  0  0  0
  183.7040  178.1500  140.3500 O   0  0  0  0  0  0  0  0  0  0  0  0
  183.7520  178.2170  141.5840 C   0  0  0  0  0  0  0  0  0  0  0  0
  186.1970  178.6770  143.0610 C   0  0  0  0  0  2  0  0  0  0  0  0
  187.2190  177.9770  141.0170 O   0  0  0  0  0  1  0  0  0  0  0  0
  187.2310  177.7810  142.4000 C   0  0  2  0  0  3  0  0  0  0  0  0
  186.9010  176.3320  142.7120 C   0  0  0  0  0  2  0  0  0  0  0  0
  188.1170  175.4800  142.5990 C   0  0  0  0  0  0  0  0  0  0  0  0
  189.3780  176.0450  142.7420 O   0  0  0  0  0  1  0  0  0  0  0  0
  188.0050  174.2520  142.3460 O   0  0  0  0  0  0  0  0  0  0  0  0
  1  3  1  0  0  0  0
  1  2  1  0  0  0  0
  2  4  1  0  0  0  0
  3  5  1  1  0  0  0
  3  4  1  0  0  0  0
  5  6  1  0  0  0  0
  7 10  1  0  0  0  0
  7  6  1  0  0  0  0
  8  9  2  0  0  0  0
  9  7  1  0  0  0  0
 10 12  1  0  0  0  0
 12 13  1  6  0  0  0
 12 11  1  0  0  0  0
 14  1  1  0  0  0  0
 15 19  1  6  0  0  0
 15 14  1  0  0  0  0
 16 15  1  0  0  0  0
 17 18  2  0  0  0  0
 18 16  2  0  0  0  0
 21 20  1  6  0  0  0
 21 22  1  0  0  0  0
 21 19  1  0  0  0  0
 23 22  1  0  0  0  0
 23 24  1  0  0  0  0
 25 23  2  0  0  0  0
M  END
>  <MODEL>
1

>  <REMARK>
 VINA RESULT:      -5.4      0.000      0.000
  Name = 
  12 active torsions:
  status: ('A' for Active; 'I' for Inactive)
    1  A    between atoms: N_1  and  C_18
    2  A    between atoms: C_2  and  N_13
    3  A    between atoms: C_2  and  C_18
    4  A    between atoms: C_2  and  C_23
    5  A    between atoms: N_4  and  C_15
    6  A    between atoms: N_4  and  C_20
    7  A    between atoms: C_5  and  C_8
    8  A    between atoms: C_5  and  C_9
    9  A    between atoms: C_6  and  C_15
   10  A    between atoms: C_9  and  C_23
   11  A    between atoms: C_11  and  C_12
   12  A    between atoms: C_11  and  C_20
                            x       y       z     vdW  Elec       q    Type
                         _______ _______ _______ _____ _____    ______ ____

>  <TORSDO>
F 12

$$$$
=
 OpenBabel11072409403D

 25 25  0  0  1  0  0  0  0  0999 V2000
  189.0830  176.4050  143.1880 N   0  0  0  0  0  0  0  0  0  0  0  0
  189.6280  175.3540  142.3370 C   0  0  0  0  0  2  0  0  0  0  0  0
  187.8550  176.3580  142.4030 C   0  0  2  0  0  3  0  0  0  0  0  0
  188.3890  175.2920  141.4740 C   0  0  0  0  0  2  0  0  0  0  0  0
  187.6640  177.6740  141.6600 C   0  0  0  0  0  2  0  0  0  0  0  0
  186.7410  178.6040  142.4350 C   0  0  0  0  0  2  0  0  0  0  0  0
  185.3530  178.4250  142.0330 N   0  0  0  0  0  0  0  0  0  0  0  0
  183.8420  178.1280  140.2660 O   0  0  0  0  0  0  0  0  0  0  0  0
  185.0290  178.3160  140.6420 C   0  0  0  0  0  3  0  0  0  0  0  0
  184.3270  178.3590  143.0660 C   0  0  0  0  0  2  0  0  0  0  0  0
  183.9100  178.7580  145.3820 O   0  0  0  0  0  1  0  0  0  0  0  0
  184.8100  179.0180  144.3480 C   0  0  2  0  0  3  0  0  0  0  0  0
  184.9040  180.3820  144.1540 F   0  0  0  0  0  0  0  0  0  0  0  0
  188.7950  175.8050  144.4860 C   0  0  0  0  0  2  0  0  0  0  0  0
  188.2960  176.8530  145.4820 C   0  0  1  0  0  3  0  0  0  0  0  0
  187.0060  176.4580  146.0170 N   0  0  0  0  0  0  0  0  0  0  0  0
  186.0570  177.6330  148.0200 O   0  0  0  0  0  0  0  0  0  0  0  0
  186.5250  177.0540  147.0320 C   0  0  0  0  0  0  0  0  0  0  0  0
  189.2840  177.0690  146.6230 C   0  0  0  0  0  2  0  0  0  0  0  0
  189.6200  174.9170  147.6080 O   0  0  0  0  0  1  0  0  0  0  0  0
  190.2130  175.8770  146.7840 C   0  0  2  0  0  3  0  0  0  0  0  0
  191.5160  176.3460  147.4050 C   0  0  0  0  0  2  0  0  0  0  0  0
  192.6180  176.3140  146.4030 C   0  0  0  0  0  0  0  0  0  0  0  0
  192.3370  176.0410  145.0700 O   0  0  0  0  0  0  0  0  0  0  0  0
  193.8070  176.5060  146.7670 O   0  0  0  0  0  1  0  0  0  0  0  0
  1 14  1  0  0  0  0
  2  1  1  0  0  0  0
  3  5  1  6  0  0  0
  3  1  1  0  0  0  0
  4  2  1  0  0  0  0
  4  3  1  0  0  0  0
  5  6  1  0  0  0  0
  7  6  1  0  0  0  0
  7 10  1  0  0  0  0
  8  9  2  0  0  0  0
  9  7  1  0  0  0  0
 10 12  1  0  0  0  0
 12 13  1  6  0  0  0
 12 11  1  0  0  0  0
 15 14  1  6  0  0  0
 15 16  1  0  0  0  0
 15 19  1  0  0  0  0
 16 18  2  0  0  0  0
 18 17  2  0  0  0  0
 19 21  1  0  0  0  0
 21 22  1  0  0  0  0
 21 20  1  1  0  0  0
 23 25  1  0  0  0  0
 23 22  1  0  0  0  0
 24 23  2  0  0  0  0
M  END
>  <MODEL>
2

>  <REMARK>
 VINA RESULT:      -5.3      2.899      6.661
  Name = 
  12 active torsions:
  status: ('A' for Active; 'I' for Inactive)
    1  A    between atoms: N_1  and  C_18
    2  A    between atoms: C_2  and  N_13
    3  A    between atoms: C_2  and  C_18
    4  A    between atoms: C_2  and  C_23
    5  A    between atoms: N_4  and  C_15
    6  A    between atoms: N_4  and  C_20
    7  A    between atoms: C_5  and  C_8
    8  A    between atoms: C_5  and  C_9
    9  A    between atoms: C_6  and  C_15
   10  A    between atoms: C_9  and  C_23
   11  A    between atoms: C_11  and  C_12
   12  A    between atoms: C_11  and  C_20
                            x       y       z     vdW  Elec       q    Type
                         _______ _______ _______ _____ _____    ______ ____

>  <TORSDO>
F 12

$$$$
=
 OpenBabel11072409403D

 25 25  0  0  1  0  0  0  0  0999 V2000
  188.0300  177.1860  145.2520 N   0  0  0  0  0  0  0  0  0  0  0  0
  187.7820  176.2180  146.3130 C   0  0  0  0  0  2  0  0  0  0  0  0
  189.2800  176.4940  144.9590 C   0  0  2  0  0  3  0  0  0  0  0  0
  189.0830  175.4880  146.0700 C   0  0  0  0  0  2  0  0  0  0  0  0
  190.4610  177.4080  145.2620 C   0  0  0  0  0  2  0  0  0  0  0  0
  191.3120  177.6230  144.0190 C   0  0  0  0  0  2  0  0  0  0  0  0
  192.3600  176.6170  143.9180 N   0  0  0  0  0  0  0  0  0  0  0  0
  193.7430  175.3530  142.5090 O   0  0  0  0  0  0  0  0  0  0  0  0
  192.8160  176.1970  142.6260 C   0  0  0  0  0  3  0  0  0  0  0  0
  192.9210  176.0630  145.1450 C   0  0  0  0  0  2  0  0  0  0  0  0
  195.2940  176.2440  145.3300 O   0  0  0  0  0  1  0  0  0  0  0  0
  194.0970  176.8980  145.6240 C   0  0  2  0  0  3  0  0  0  0  0  0
  194.0010  177.0830  146.9900 F   0  0  0  0  0  0  0  0  0  0  0  0
  187.1000  176.8870  144.1670 C   0  0  0  0  0  2  0  0  0  0  0  0
  187.0680  178.0180  143.1390 C   0  0  1  0  0  3  0  0  0  0  0  0
  186.9110  177.4720  141.8020 N   0  0  0  0  0  0  0  0  0  0  0  0
  188.2650  175.4880  141.0820 O   0  0  0  0  0  0  0  0  0  0  0  0
  187.5970  176.4670  141.4370 C   0  0  0  0  0  0  0  0  0  0  0  0
  185.9500  179.0140  143.4240 C   0  0  0  0  0  2  0  0  0  0  0  0
  183.7270  178.3320  142.8730 O   0  0  0  0  0  1  0  0  0  0  0  0
  184.6860  178.3100  143.8880 C   0  0  2  0  0  3  0  0  0  0  0  0
  184.1460  179.0210  145.1160 C   0  0  0  0  0  2  0  0  0  0  0  0
  184.6900  178.4090  146.3600 C   0  0  0  0  0  0  0  0  0  0  0  0
  184.4630  177.0660  146.6320 O   0  0  0  0  0  0  0  0  0  0  0  0
  185.3340  179.1140  147.1800 O   0  0  0  0  0  1  0  0  0  0  0  0
  1  2  1  0  0  0  0
  3  1  1  0  0  0  0
  3  5  1  1  0  0  0
  3  4  1  0  0  0  0
  4  2  1  0  0  0  0
  6  5  1  0  0  0  0
  7  6  1  0  0  0  0
  7 10  1  0  0  0  0
  8  9  2  0  0  0  0
  9  7  1  0  0  0  0
 10 12  1  0  0  0  0
 12 11  1  1  0  0  0
 12 13  1  0  0  0  0
 14  1  1  0  0  0  0
 15 19  1  1  0  0  0
 15 14  1  0  0  0  0
 16 15  1  0  0  0  0
 17 18  2  0  0  0  0
 18 16  2  0  0  0  0
 19 21  1  0  0  0  0
 21 20  1  6  0  0  0
 21 22  1  0  0  0  0
 22 23  1  0  0  0  0
 23 24  2  0  0  0  0
 23 25  1  0  0  0  0
M  END
>  <MODEL>
3

>  <REMARK>
 VINA RESULT:      -5.2      2.991      4.094
  Name = 
  12 active torsions:
  status: ('A' for Active; 'I' for Inactive)
    1  A    between atoms: N_1  and  C_18
    2  A    between atoms: C_2  and  N_13
    3  A    between atoms: C_2  and  C_18
    4  A    between atoms: C_2  and  C_23
    5  A    between atoms: N_4  and  C_15
    6  A    between atoms: N_4  and  C_20
    7  A    between atoms: C_5  and  C_8
    8  A    between atoms: C_5  and  C_9
    9  A    between atoms: C_6  and  C_15
   10  A    between atoms: C_9  and  C_23
   11  A    between atoms: C_11  and  C_12
   12  A    between atoms: C_11  and  C_20
                            x       y       z     vdW  Elec       q    Type
                         _______ _______ _______ _____ _____    ______ ____

>  <TORSDO>
F 12

$$$$
=
 OpenBabel11072409403D

 25 25  0  0  1  0  0  0  0  0999 V2000
  189.1730  176.9000  143.9100 N   0  0  0  0  0  0  0  0  0  0  0  0
  189.6080  177.7470  142.8060 C   0  0  0  0  0  2  0  0  0  0  0  0
  190.5490  176.8830  144.3950 C   0  0  2  0  0  3  0  0  0  0  0  0
  191.0520  177.7330  143.2500 C   0  0  0  0  0  2  0  0  0  0  0  0
  191.1120  175.4710  144.3060 C   0  0  0  0  0  2  0  0  0  0  0  0
  191.8390  175.0960  145.5900 C   0  0  0  0  0  2  0  0  0  0  0  0
  190.9210  175.0440  146.7190 N   0  0  0  0  0  0  0  0  0  0  0  0
  188.8210  174.3740  147.5160 O   0  0  0  0  0  0  0  0  0  0  0  0
  189.6230  174.4620  146.5500 C   0  0  0  0  0  3  0  0  0  0  0  0
  191.3530  175.5890  148.0010 C   0  0  0  0  0  2  0  0  0  0  0  0
  191.6350  177.6070  149.2440 O   0  0  0  0  0  1  0  0  0  0  0  0
  191.2940  177.1090  147.9870 C   0  0  2  0  0  3  0  0  0  0  0  0
  190.0120  177.5140  147.6660 F   0  0  0  0  0  0  0  0  0  0  0  0
  188.3990  177.7370  144.8200 C   0  0  0  0  0  2  0  0  0  0  0  0
  186.9940  177.1720  145.0310 C   0  0  1  0  0  3  0  0  0  0  0  0
  186.7510  176.9530  146.4460 N   0  0  0  0  0  0  0  0  0  0  0  0
  185.2910  178.5340  147.7350 O   0  0  0  0  0  0  0  0  0  0  0  0
  186.0110  177.7540  147.1000 C   0  0  0  0  0  0  0  0  0  0  0  0
  185.9200  178.0900  144.4600 C   0  0  0  0  0  2  0  0  0  0  0  0
  185.9360  176.3310  142.8430 O   0  0  0  0  0  1  0  0  0  0  0  0
  185.4610  177.6210  143.0900 C   0  0  2  0  0  3  0  0  0  0  0  0
  185.9980  178.5720  142.0350 C   0  0  0  0  0  2  0  0  0  0  0  0
  185.7290  178.0460  140.6670 C   0  0  0  0  0  0  0  0  0  0  0  0
  184.4290  178.0090  140.1800 O   0  0  0  0  0  1  0  0  0  0  0  0
  186.6760  177.6100  139.9620 O   0  0  0  0  0  0  0  0  0  0  0  0
  1  3  1  0  0  0  0
  1 14  1  0  0  0  0
  2  4  1  0  0  0  0
  2  1  1  0  0  0  0
  3  5  1  6  0  0  0
  4  3  1  0  0  0  0
  5  6  1  0  0  0  0
  6  7  1  0  0  0  0
  7 10  1  0  0  0  0
  9  7  1  0  0  0  0
  9  8  2  0  0  0  0
 12 13  1  1  0  0  0
 12 10  1  0  0  0  0
 12 11  1  0  0  0  0
 14 15  1  0  0  0  0
 15 19  1  1  0  0  0
 15 16  1  0  0  0  0
 16 18  2  0  0  0  0
 18 17  2  0  0  0  0
 21 20  1  6  0  0  0
 21 19  1  0  0  0  0
 22 21  1  0  0  0  0
 23 22  1  0  0  0  0
 24 23  1  0  0  0  0
 25 23  2  0  0  0  0
M  END
>  <MODEL>
4

>  <REMARK>
 VINA RESULT:      -5.2      2.298      4.029
  Name = 
  12 active torsions:
  status: ('A' for Active; 'I' for Inactive)
    1  A    between atoms: N_1  and  C_18
    2  A    between atoms: C_2  and  N_13
    3  A    between atoms: C_2  and  C_18
    4  A    between atoms: C_2  and  C_23
    5  A    between atoms: N_4  and  C_15
    6  A    between atoms: N_4  and  C_20
    7  A    between atoms: C_5  and  C_8
    8  A    between atoms: C_5  and  C_9
    9  A    between atoms: C_6  and  C_15
   10  A    between atoms: C_9  and  C_23
   11  A    between atoms: C_11  and  C_12
   12  A    between atoms: C_11  and  C_20
                            x       y       z     vdW  Elec       q    Type
                         _______ _______ _______ _____ _____    ______ ____

>  <TORSDO>
F 12

$$$$
=
 OpenBabel11072409403D

 25 25  0  0  1  0  0  0  0  0999 V2000
  187.5520  176.7160  143.3600 N   0  0  0  0  0  0  0  0  0  0  0  0
  187.2890  175.6350  142.4170 C   0  0  0  0  0  2  0  0  0  0  0  0
  188.9790  176.4480  143.2160 C   0  0  2  0  0  3  0  0  0  0  0  0
  188.7540  175.2980  142.2610 C   0  0  0  0  0  2  0  0  0  0  0  0
  189.5470  175.9480  144.5380 C   0  0  0  0  0  2  0  0  0  0  0  0
  190.6080  176.9030  145.0670 C   0  0  0  0  0  2  0  0  0  0  0  0
  191.8320  176.1930  145.4120 N   0  0  0  0  0  0  0  0  0  0  0  0
  193.5480  174.7690  144.6900 O   0  0  0  0  0  0  0  0  0  0  0  0
  192.4720  175.3690  144.4310 C   0  0  0  0  0  3  0  0  0  0  0  0
  192.3750  176.3440  146.7560 C   0  0  0  0  0  2  0  0  0  0  0  0
  191.5000  177.2970  148.7630 O   0  0  0  0  0  1  0  0  0  0  0  0
  191.2610  176.3240  147.7920 C   0  0  2  0  0  3  0  0  0  0  0  0
  191.2160  175.0810  148.3920 F   0  0  0  0  0  0  0  0  0  0  0  0
  187.2720  177.9700  142.6690 C   0  0  0  0  0  2  0  0  0  0  0  0
  186.0600  178.6770  143.2770 C   0  0  1  0  0  3  0  0  0  0  0  0
  184.8320  178.0920  142.7660 N   0  0  0  0  0  0  0  0  0  0  0  0
  184.1360  178.4960  140.3910 O   0  0  0  0  0  0  0  0  0  0  0  0
  184.4800  178.2970  141.5620 C   0  0  0  0  0  0  0  0  0  0  0  0
  186.0680  178.6100  144.8000 C   0  0  0  0  0  2  0  0  0  0  0  0
  184.0570  178.9360  146.0510 O   0  0  0  0  0  1  0  0  0  0  0  0
  184.7880  177.9870  145.3340 C   0  0  2  0  0  3  0  0  0  0  0  0
  185.1450  176.8250  146.2440 C   0  0  0  0  0  2  0  0  0  0  0  0
  186.2600  177.1980  147.1590 C   0  0  0  0  0  0  0  0  0  0  0  0
  186.0860  178.2140  148.0900 O   0  0  0  0  0  1  0  0  0  0  0  0
  187.3710  176.6120  147.0700 O   0  0  0  0  0  0  0  0  0  0  0  0
  2  1  1  0  0  0  0
  3  1  1  0  0  0  0
  3  5  1  1  0  0  0
  4  2  1  0  0  0  0
  4  3  1  0  0  0  0
  5  6  1  0  0  0  0
  6  7  1  0  0  0  0
  7 10  1  0  0  0  0
  9  8  2  0  0  0  0
  9  7  1  0  0  0  0
 10 12  1  0  0  0  0
 12 13  1  1  0  0  0
 12 11  1  0  0  0  0
 14  1  1  0  0  0  0
 15 14  1  6  0  0  0
 15 19  1  0  0  0  0
 16 15  1  0  0  0  0
 17 18  2  0  0  0  0
 18 16  2  0  0  0  0
 19 21  1  0  0  0  0
 21 20  1  1  0  0  0
 21 22  1  0  0  0  0
 22 23  1  0  0  0  0
 23 24  1  0  0  0  0
 25 23  2  0  0  0  0
M  END
>  <MODEL>
5

>  <REMARK>
 VINA RESULT:      -5.2      2.327      3.710
  Name = 
  12 active torsions:
  status: ('A' for Active; 'I' for Inactive)
    1  A    between atoms: N_1  and  C_18
    2  A    between atoms: C_2  and  N_13
    3  A    between atoms: C_2  and  C_18
    4  A    between atoms: C_2  and  C_23
    5  A    between atoms: N_4  and  C_15
    6  A    between atoms: N_4  and  C_20
    7  A    between atoms: C_5  and  C_8
    8  A    between atoms: C_5  and  C_9
    9  A    between atoms: C_6  and  C_15
   10  A    between atoms: C_9  and  C_23
   11  A    between atoms: C_11  and  C_12
   12  A    between atoms: C_11  and  C_20
                            x       y       z     vdW  Elec       q    Type
                         _______ _______ _______ _____ _____    ______ ____

>  <TORSDO>
F 12

$$$$
=
 OpenBabel11072409403D

 25 25  0  0  1  0  0  0  0  0999 V2000
  188.5280  174.8870  142.5360 N   0  0  0  0  0  0  0  0  0  0  0  0
  188.2380  174.1150  141.3340 C   0  0  0  0  0  2  0  0  0  0  0  0
  189.8940  174.3780  142.4930 C   0  0  2  0  0  3  0  0  0  0  0  0
  189.6320  173.5350  141.2660 C   0  0  0  0  0  2  0  0  0  0  0  0
  190.1560  173.4960  143.7080 C   0  0  0  0  0  2  0  0  0  0  0  0
  191.1830  174.1380  144.6300 C   0  0  0  0  0  2  0  0  0  0  0  0
  190.5360  174.8700  145.7110 N   0  0  0  0  0  0  0  0  0  0  0  0
  188.9400  174.8380  147.4270 O   0  0  0  0  0  0  0  0  0  0  0  0
  189.4940  174.2410  146.4670 C   0  0  0  0  0  3  0  0  0  0  0  0
  190.9730  176.2310  145.9950 C   0  0  0  0  0  2  0  0  0  0  0  0
  192.5060  177.3660  144.5590 O   0  0  0  0  0  1  0  0  0  0  0  0
  191.1640  177.0160  144.7060 C   0  0  2  0  0  3  0  0  0  0  0  0
  190.3930  178.1610  144.7490 F   0  0  0  0  0  0  0  0  0  0  0  0
  188.5720  176.2930  142.1480 C   0  0  0  0  0  2  0  0  0  0  0  0
  187.6690  177.1430  143.0420 C   0  0  1  0  0  3  0  0  0  0  0  0
  186.3900  177.3650  142.3920 N   0  0  0  0  0  0  0  0  0  0  0  0
  186.2820  177.7360  139.9140 O   0  0  0  0  0  0  0  0  0  0  0  0
  186.3350  177.5530  141.1360 C   0  0  0  0  0  0  0  0  0  0  0  0
  187.4490  176.4970  144.4050 C   0  0  0  0  0  2  0  0  0  0  0  0
  187.7670  177.6730  146.4620 O   0  0  0  0  0  1  0  0  0  0  0  0
  186.8750  177.4900  145.4020 C   0  0  2  0  0  3  0  0  0  0  0  0
  185.5570  176.9530  145.9330 C   0  0  0  0  0  2  0  0  0  0  0  0
  184.5790  178.0590  146.1270 C   0  0  0  0  0  0  0  0  0  0  0  0
  184.0110  178.6870  145.0260 O   0  0  0  0  0  0  0  0  0  0  0  0
  184.2880  178.4450  147.2890 O   0  0  0  0  0  1  0  0  0  0  0  0
  2  1  1  0  0  0  0
  3  1  1  0  0  0  0
  3  5  1  1  0  0  0
  4  2  1  0  0  0  0
  4  3  1  0  0  0  0
  5  6  1  0  0  0  0
  6  7  1  0  0  0  0
  7 10  1  0  0  0  0
  7  9  1  0  0  0  0
  9  8  2  0  0  0  0
 12 11  1  1  0  0  0
 12 13  1  0  0  0  0
 12 10  1  0  0  0  0
 14  1  1  0  0  0  0
 15 14  1  6  0  0  0
 15 19  1  0  0  0  0
 16 15  1  0  0  0  0
 17 18  2  0  0  0  0
 18 16  2  0  0  0  0
 19 21  1  0  0  0  0
 21 22  1  0  0  0  0
 21 20  1  1  0  0  0
 22 23  1  0  0  0  0
 23 25  1  0  0  0  0
 24 23  2  0  0  0  0
M  END
>  <MODEL>
6

>  <REMARK>
 VINA RESULT:      -5.1      2.784      4.670
  Name = 
  12 active torsions:
  status: ('A' for Active; 'I' for Inactive)
    1  A    between atoms: N_1  and  C_18
    2  A    between atoms: C_2  and  N_13
    3  A    between atoms: C_2  and  C_18
    4  A    between atoms: C_2  and  C_23
    5  A    between atoms: N_4  and  C_15
    6  A    between atoms: N_4  and  C_20
    7  A    between atoms: C_5  and  C_8
    8  A    between atoms: C_5  and  C_9
    9  A    between atoms: C_6  and  C_15
   10  A    between atoms: C_9  and  C_23
   11  A    between atoms: C_11  and  C_12
   12  A    between atoms: C_11  and  C_20
                            x       y       z     vdW  Elec       q    Type
                         _______ _______ _______ _____ _____    ______ ____

>  <TORSDO>
F 12

$$$$
=
 OpenBabel11072409403D

 25 25  0  0  1  0  0  0  0  0999 V2000
  188.2690  176.8860  143.6750 N   0  0  0  0  0  0  0  0  0  0  0  0
  188.0480  177.5550  142.3990 C   0  0  0  0  0  2  0  0  0  0  0  0
  189.5800  177.5220  143.7440 C   0  0  2  0  0  3  0  0  0  0  0  0
  189.4100  178.2100  142.4090 C   0  0  0  0  0  2  0  0  0  0  0  0
  190.6720  176.4630  143.6700 C   0  0  0  0  0  2  0  0  0  0  0  0
  191.4210  176.3650  144.9920 C   0  0  0  0  0  2  0  0  0  0  0  0
  192.5940  175.5100  144.8710 N   0  0  0  0  0  0  0  0  0  0  0  0
  193.4390  173.3240  144.8440 O   0  0  0  0  0  0  0  0  0  0  0  0
  192.4480  174.0890  144.9760 C   0  0  0  0  0  3  0  0  0  0  0  0
  193.8940  176.1310  144.6440 C   0  0  0  0  0  2  0  0  0  0  0  0
  195.2360  177.7880  145.7160 O   0  0  0  0  0  1  0  0  0  0  0  0
  194.4850  176.6370  145.9510 C   0  0  2  0  0  3  0  0  0  0  0  0
  195.2990  175.6610  146.4920 F   0  0  0  0  0  0  0  0  0  0  0  0
  187.4130  177.5400  144.6600 C   0  0  0  0  0  2  0  0  0  0  0  0
  186.8960  176.5390  145.6940 C   0  0  1  0  0  3  0  0  0  0  0  0
  187.7870  176.4990  146.8400 N   0  0  0  0  0  0  0  0  0  0  0  0
  189.3250  174.5470  147.1750 O   0  0  0  0  0  0  0  0  0  0  0  0
  188.5660  175.5100  147.0100 C   0  0  0  0  0  0  0  0  0  0  0  0
  185.4810  176.8760  146.1520 C   0  0  0  0  0  2  0  0  0  0  0  0
  185.2070  178.6410  147.7410 O   0  0  0  0  0  1  0  0  0  0  0  0
  185.3120  178.3700  146.3750 C   0  0  2  0  0  3  0  0  0  0  0  0
  184.0540  178.8370  145.6640 C   0  0  0  0  0  2  0  0  0  0  0  0
  184.3650  179.2630  144.2710 C   0  0  0  0  0  0  0  0  0  0  0  0
  183.7270  178.6520  143.1990 O   0  0  0  0  0  0  0  0  0  0  0  0
  185.2260  180.1570  144.0630 O   0  0  0  0  0  1  0  0  0  0  0  0
  1  3  1  0  0  0  0
  1 14  1  0  0  0  0
  2  4  1  0  0  0  0
  2  1  1  0  0  0  0
  3  5  1  6  0  0  0
  4  3  1  0  0  0  0
  5  6  1  0  0  0  0
  7  9  1  0  0  0  0
  7  6  1  0  0  0  0
  8  9  2  0  0  0  0
 10  7  1  0  0  0  0
 10 12  1  0  0  0  0
 12 11  1  6  0  0  0
 12 13  1  0  0  0  0
 15 14  1  6  0  0  0
 15 19  1  0  0  0  0
 15 16  1  0  0  0  0
 16 18  2  0  0  0  0
 18 17  2  0  0  0  0
 19 21  1  0  0  0  0
 21 20  1  1  0  0  0
 22 21  1  0  0  0  0
 23 22  1  0  0  0  0
 24 23  2  0  0  0  0
 25 23  1  0  0  0  0
M  END
>  <MODEL>
7

>  <REMARK>
 VINA RESULT:      -5.1      2.842      5.018
  Name = 
  12 active torsions:
  status: ('A' for Active; 'I' for Inactive)
    1  A    between atoms: N_1  and  C_18
    2  A    between atoms: C_2  and  N_13
    3  A    between atoms: C_2  and  C_18
    4  A    between atoms: C_2  and  C_23
    5  A    between atoms: N_4  and  C_15
    6  A    between atoms: N_4  and  C_20
    7  A    between atoms: C_5  and  C_8
    8  A    between atoms: C_5  and  C_9
    9  A    between atoms: C_6  and  C_15
   10  A    between atoms: C_9  and  C_23
   11  A    between atoms: C_11  and  C_12
   12  A    between atoms: C_11  and  C_20
                            x       y       z     vdW  Elec       q    Type
                         _______ _______ _______ _____ _____    ______ ____

>  <TORSDO>
F 12

$$$$
=
 OpenBabel11072409403D

 25 25  0  0  1  0  0  0  0  0999 V2000
  188.2140  175.0650  142.8570 N   0  0  0  0  0  0  0  0  0  0  0  0
  188.4790  174.0960  141.8000 C   0  0  0  0  0  2  0  0  0  0  0  0
  189.6110  175.4770  142.7840 C   0  0  2  0  0  3  0  0  0  0  0  0
  189.9420  174.4650  141.7110 C   0  0  0  0  0  2  0  0  0  0  0  0
  190.3210  175.1330  144.0870 C   0  0  0  0  0  2  0  0  0  0  0  0
  190.8040  176.3950  144.7890 C   0  0  0  0  0  2  0  0  0  0  0  0
  192.1810  176.2510  145.2410 N   0  0  0  0  0  0  0  0  0  0  0  0
  194.4550  176.4010  144.6940 O   0  0  0  0  0  0  0  0  0  0  0  0
  193.2550  176.4860  144.3230 C   0  0  0  0  0  3  0  0  0  0  0  0
  192.4280  175.8710  146.6270 C   0  0  0  0  0  2  0  0  0  0  0  0
  191.5420  177.1650  148.4270 O   0  0  0  0  0  1  0  0  0  0  0  0
  191.2170  176.1800  147.4940 C   0  0  2  0  0  3  0  0  0  0  0  0
  190.8240  175.0330  148.1560 F   0  0  0  0  0  0  0  0  0  0  0  0
  187.4110  176.1340  142.2720 C   0  0  0  0  0  2  0  0  0  0  0  0
  187.1510  177.2490  143.2860 C   0  0  1  0  0  3  0  0  0  0  0  0
  186.6540  178.4330  142.6090 N   0  0  0  0  0  0  0  0  0  0  0  0
  185.3820  180.1760  143.8880 O   0  0  0  0  0  0  0  0  0  0  0  0
  186.0090  179.3170  143.2570 C   0  0  0  0  0  0  0  0  0  0  0  0
  186.1630  176.8170  144.3630 C   0  0  0  0  0  2  0  0  0  0  0  0
  187.6070  176.0410  146.1020 O   0  0  0  0  0  1  0  0  0  0  0  0
  186.7200  177.0620  145.7560 C   0  0  2  0  0  3  0  0  0  0  0  0
  185.5720  177.0980  146.7490 C   0  0  0  0  0  2  0  0  0  0  0  0
  184.9510  178.4520  146.7850 C   0  0  0  0  0  0  0  0  0  0  0  0
  183.7030  178.6600  146.2110 O   0  0  0  0  0  0  0  0  0  0  0  0
  185.5680  179.4140  147.3120 O   0  0  0  0  0  1  0  0  0  0  0  0
  2  1  1  0  0  0  0
  3  1  1  0  0  0  0
  3  5  1  1  0  0  0
  4  2  1  0  0  0  0
  4  3  1  0  0  0  0
  5  6  1  0  0  0  0
  6  7  1  0  0  0  0
  7 10  1  0  0  0  0
  9  8  2  0  0  0  0
  9  7  1  0  0  0  0
 10 12  1  0  0  0  0
 12 13  1  1  0  0  0
 12 11  1  0  0  0  0
 14  1  1  0  0  0  0
 15 14  1  6  0  0  0
 15 19  1  0  0  0  0
 16 18  2  0  0  0  0
 16 15  1  0  0  0  0
 18 17  2  0  0  0  0
 19 21  1  0  0  0  0
 21 20  1  1  0  0  0
 21 22  1  0  0  0  0
 22 23  1  0  0  0  0
 23 25  1  0  0  0  0
 24 23  2  0  0  0  0
M  END
>  <MODEL>
8

>  <REMARK>
 VINA RESULT:      -5.0      2.794      4.594
  Name = 
  12 active torsions:
  status: ('A' for Active; 'I' for Inactive)
    1  A    between atoms: N_1  and  C_18
    2  A    between atoms: C_2  and  N_13
    3  A    between atoms: C_2  and  C_18
    4  A    between atoms: C_2  and  C_23
    5  A    between atoms: N_4  and  C_15
    6  A    between atoms: N_4  and  C_20
    7  A    between atoms: C_5  and  C_8
    8  A    between atoms: C_5  and  C_9
    9  A    between atoms: C_6  and  C_15
   10  A    between atoms: C_9  and  C_23
   11  A    between atoms: C_11  and  C_12
   12  A    between atoms: C_11  and  C_20
                            x       y       z     vdW  Elec       q    Type
                         _______ _______ _______ _____ _____    ______ ____

>  <TORSDO>
F 12

$$$$
=
 OpenBabel11072409403D

 25 25  0  0  1  0  0  0  0  0999 V2000
  190.6310  177.4220  144.8100 N   0  0  0  0  0  0  0  0  0  0  0  0
  191.1390  177.9170  143.5370 C   0  0  0  0  0  2  0  0  0  0  0  0
  189.3840  177.0720  144.1380 C   0  0  2  0  0  3  0  0  0  0  0  0
  189.8550  177.6040  142.8040 C   0  0  0  0  0  2  0  0  0  0  0  0
  188.2450  177.9240  144.6860 C   0  0  0  0  0  2  0  0  0  0  0  0
  186.9970  177.0800  144.9040 C   0  0  0  0  0  2  0  0  0  0  0  0
  185.7900  177.8380  144.6030 N   0  0  0  0  0  0  0  0  0  0  0  0
  184.0030  178.1850  143.1250 O   0  0  0  0  0  0  0  0  0  0  0  0
  185.0670  177.5680  143.3960 C   0  0  0  0  0  3  0  0  0  0  0  0
  185.3480  178.8570  145.5480 C   0  0  0  0  0  2  0  0  0  0  0  0
  185.6440  178.2780  147.8440 O   0  0  0  0  0  1  0  0  0  0  0  0
  184.7390  178.2160  146.7850 C   0  0  2  0  0  3  0  0  0  0  0  0
  184.4400  176.8950  146.5150 F   0  0  0  0  0  0  0  0  0  0  0  0
  191.3340  176.1770  145.1020 C   0  0  0  0  0  2  0  0  0  0  0  0
  192.1530  176.2930  146.3880 C   0  0  1  0  0  3  0  0  0  0  0  0
  191.2960  176.0980  147.5450 N   0  0  0  0  0  0  0  0  0  0  0  0
  189.3200  174.5590  147.4060 O   0  0  0  0  0  0  0  0  0  0  0  0
  190.2950  175.3180  147.4750 C   0  0  0  0  0  0  0  0  0  0  0  0
  193.3010  175.2910  146.4230 C   0  0  0  0  0  2  0  0  0  0  0  0
  194.5620  177.3060  146.1680 O   0  0  0  0  0  1  0  0  0  0  0  0
  194.6030  175.9250  145.9600 C   0  0  2  0  0  3  0  0  0  0  0  0
  194.7950  175.6380  144.4810 C   0  0  0  0  0  2  0  0  0  0  0  0
  196.2240  175.8070  144.0950 C   0  0  0  0  0  0  0  0  0  0  0  0
  197.1500  174.8190  144.4030 O   0  0  0  0  0  1  0  0  0  0  0  0
  196.5990  176.8590  143.5130 O   0  0  0  0  0  0  0  0  0  0  0  0
  1 14  1  0  0  0  0
  2  1  1  0  0  0  0
  3  5  1  1  0  0  0
  3  1  1  0  0  0  0
  4  2  1  0  0  0  0
  4  3  1  0  0  0  0
  5  6  1  0  0  0  0
  7  6  1  0  0  0  0
  7 10  1  0  0  0  0
  8  9  2  0  0  0  0
  9  7  1  0  0  0  0
 10 12  1  0  0  0  0
 12 13  1  6  0  0  0
 12 11  1  0  0  0  0
 15 14  1  6  0  0  0
 15 19  1  0  0  0  0
 15 16  1  0  0  0  0
 17 18  2  0  0  0  0
 18 16  2  0  0  0  0
 21 20  1  6  0  0  0
 21 19  1  0  0  0  0
 22 21  1  0  0  0  0
 23 24  1  0  0  0  0
 23 22  1  0  0  0  0
 25 23  2  0  0  0  0
M  END
>  <MODEL>
9

>  <REMARK>
 VINA RESULT:      -5.0      3.713      7.309
  Name = 
  12 active torsions:
  status: ('A' for Active; 'I' for Inactive)
    1  A    between atoms: N_1  and  C_18
    2  A    between atoms: C_2  and  N_13
    3  A    between atoms: C_2  and  C_18
    4  A    between atoms: C_2  and  C_23
    5  A    between atoms: N_4  and  C_15
    6  A    between atoms: N_4  and  C_20
    7  A    between atoms: C_5  and  C_8
    8  A    between atoms: C_5  and  C_9
    9  A    between atoms: C_6  and  C_15
   10  A    between atoms: C_9  and  C_23
   11  A    between atoms: C_11  and  C_12
   12  A    between atoms: C_11  and  C_20
                            x       y       z     vdW  Elec       q    Type
                         _______ _______ _______ _____ _____    ______ ____

>  <TORSDO>
F 12

$$$$
