=
 OpenBabel11062423053D

 57 63  0  0  1  0  0  0  0  0999 V2000
  192.0850  169.9120  141.9440 C   0  0  0  0  0  0  0  0  0  0  0  0
  192.5260  172.7770  137.4680 C   0  0  2  0  0  3  0  0  0  0  0  0
  195.5490  168.9670  139.4260 C   0  0  0  0  0  2  0  0  0  0  0  0
  193.8130  168.9790  137.5340 C   0  0  2  0  0  3  0  0  0  0  0  0
  191.1500  168.7430  140.0380 C   0  0  0  0  0  2  0  0  0  0  0  0
  192.8980  169.4910  138.5730 N   0  0  2  0  0  0  0  0  0  0  0  0
  195.2310  168.7410  137.9910 C   0  0  0  0  0  0  0  0  0  0  0  0
  189.8010  173.9070  138.5290 O   0  0  0  0  0  1  0  0  0  0  0  0
  193.6980  169.6970  136.3170 O   0  0  0  0  0  0  0  0  0  0  0  0
  192.2100  173.9330  138.4300 C   0  0  1  0  0  3  0  0  0  0  0  0
  196.0930  168.3790  137.2070 O   0  0  0  0  0  0  0  0  0  0  0  0
  195.9810  171.2710  136.6140 O   0  0  0  0  0  1  0  0  0  0  0  0
  189.7320  171.5520  142.2140 C   0  0  0  0  0  2  0  0  0  0  0  0
  194.2940  171.2960  136.4820 P   0  0  1  0  0  0  0  0  0  0  0  0
  193.8620  170.6710  144.5530 C   0  0  2  0  0  0  0  0  0  0  0  0
  191.1000  172.8310  140.3340 C   0  0  2  0  0  3  0  0  0  0  0  0
  193.9410  172.0740  135.2300 O   0  0  0  0  0  0  0  0  0  0  0  0
  193.7460  172.0520  145.1950 C   0  0  0  0  0  2  0  0  0  0  0  0
  193.4390  169.5620  139.9510 C   0  0  1  0  0  3  0  0  0  0  0  0
  189.5950  173.1290  141.3160 S   0  0  0  0  0  0  0  0  0  0  0  0
  192.2840  169.2660  140.8270 C   0  0  0  0  0  0  0  0  0  0  0  0
  193.1700  173.0850  144.2400 C   0  0  0  0  0  2  0  0  0  0  0  0
  192.2410  173.6710  140.8560 C   0  0  0  0  0  2  0  0  0  0  0  0
  191.7500  173.4650  144.6370 C   0  0  2  0  0  3  0  0  0  0  0  0
  190.7530  172.3790  144.3270 C   0  0  0  0  0  0  0  0  0  0  0  0
  191.2550  172.0670  137.9110 C   0  0  0  0  0  2  0  0  0  0  0  0
  190.9590  173.2050  138.8650 C   0  0  1  0  0  0  0  0  0  0  0  0
  190.8590  171.5750  143.1460 N   0  0  0  0  0  0  0  0  0  0  0  0
  191.8680  170.5520  143.0660 C   0  0  0  0  0  0  0  0  0  0  0  0
  194.4320  168.5910  140.1830 O   0  0  0  0  0  0  0  0  0  0  0  0
  193.6550  172.0500  137.8720 O   0  0  0  0  0  0  0  0  0  0  0  0
  193.1140  173.9890  139.6580 C   0  0  0  0  0  2  0  0  0  0  0  0
  194.6730  170.7400  143.4130 O   0  0  0  0  0  1  0  0  0  0  0  0
  191.7260  168.6210  138.6390 C   0  0  0  0  0  2  0  0  0  0  0  0
  189.7870  172.2000  145.1130 O   0  0  0  0  0  0  0  0  0  0  0  0
  192.5690  170.1660  144.2130 O   0  0  0  0  0  0  0  0  0  0  0  0
  193.9700  168.6460  145.8170 O   0  0  0  0  0  0  0  0  0  0  0  0
  195.6340  170.1500  146.2470 O   0  0  0  0  0  1  0  0  0  0  0  0
  194.4990  169.7510  145.5480 C   0  0  0  0  0  0  0  0  0  0  0  0
  191.4050  174.7790  143.9380 C   0  0  0  0  0  2  0  0  0  0  0  0
  191.1950  175.9700  144.8850 C   0  0  1  0  0  3  0  0  0  0  0  0
  187.9750  177.8630  144.5910 N   0  0  0  0  0  0  0  0  0  0  0  0
  189.3660  177.7510  144.1780 C   0  0  1  0  0  3  0  0  0  0  0  0
  189.7850  176.4920  144.8720 C   0  0  0  0  0  0  0  0  0  0  0  0
  187.7270  176.8720  145.3860 C   0  0  0  0  0  0  0  0  0  0  0  0
  186.4010  176.6650  146.0210 C   0  0  0  0  0  1  0  0  0  0  0  0
  188.8350  176.0100  145.6070 N   0  0  0  0  0  0  0  0  0  0  0  0
  189.4380  177.5960  142.6650 C   0  0  0  0  0  2  0  0  0  0  0  0
  188.8170  176.4170  142.2820 F   0  0  0  0  0  0  0  0  0  0  0  0
  191.5360  175.5760  146.2440 N   0  0  0  0  0  2  0  0  0  0  0  0
  192.5550  176.4970  146.7340 C   0  0  0  0  0  2  0  0  0  0  0  0
  193.9370  175.8750  146.5820 C   0  0  0  0  0  2  0  0  0  0  0  0
  194.8550  177.8890  145.6980 O   0  0  0  0  0  0  0  0  0  0  0  0
  194.7580  176.6360  145.5900 C   0  0  0  0  0  0  0  0  0  0  0  0
  195.4760  175.9410  144.5120 C   0  0  0  0  0  0  0  0  0  0  0  0
  196.3690  174.9230  144.8190 O   0  0  0  0  0  1  0  0  0  0  0  0
  195.2920  176.2630  143.3080 O   0  0  0  0  0  0  0  0  0  0  0  0
  1 29  2  0  0  0  0
  2 31  1  0  0  0  0
  2 26  1  1  0  0  0
  2 10  1  0  0  0  0
  3 30  1  0  0  0  0
  4  9  1  6  0  0  0
  4  7  1  0  0  0  0
  4  6  1  0  0  0  0
  5 21  1  0  0  0  0
  6 34  1  1  0  0  0
  6 19  1  0  0  0  0
  7  3  1  0  0  0  0
  9 14  1  0  0  0  0
 10 27  1  0  0  0  0
 10 32  1  1  0  0  0
 11  7  2  0  0  0  0
 13 28  1  0  0  0  0
 14 17  2  6  0  0  0
 14 12  1  0  0  0  0
 14 31  1  0  0  0  0
 15 33  1  6  0  0  0
 15 18  1  0  0  0  0
 15 39  1  0  0  0  0
 16 23  1  1  0  0  0
 16 20  1  0  0  0  0
 19 30  1  6  0  0  0
 19 21  1  0  0  0  0
 20 13  1  0  0  0  0
 21  1  2  0  0  0  0
 22 24  1  0  0  0  0
 22 18  1  0  0  0  0
 24 40  1  6  0  0  0
 25 24  1  0  0  0  0
 25 35  2  0  0  0  0
 26 27  1  0  0  0  0
 27  8  1  6  0  0  0
 27 16  1  0  0  0  0
 28 25  1  0  0  0  0
 29 28  1  0  0  0  0
 29 36  1  0  0  0  0
 32 23  1  0  0  0  0
 34  5  1  0  0  0  0
 36 15  1  0  0  0  0
 39 37  2  0  0  0  0
 39 38  1  0  0  0  0
 41 40  1  6  0  0  0
 41 50  1  0  0  0  0
 42 45  2  0  0  0  0
 43 48  1  6  0  0  0
 43 42  1  0  0  0  0
 43 44  1  0  0  0  0
 44 41  1  0  0  0  0
 44 47  2  0  0  0  0
 45 47  1  0  0  0  0
 45 46  1  0  0  0  0
 49 48  1  0  0  0  0
 50 51  1  0  0  0  0
 52 51  1  0  0  0  0
 54 53  2  0  0  0  0
 54 52  1  0  0  0  0
 55 56  1  0  0  0  0
 55 54  1  0  0  0  0
 57 55  2  0  0  0  0
M  END
>  <MODEL>
1

>  <REMARK>
 VINA RESULT:      -7.0      0.000      0.000
  Name = 
  10 active torsions:
  status: ('A' for Active; 'I' for Inactive)
    1  A    between atoms: C_1  and  C_49
    2  A    between atoms: C_1  and  C_51
    3  A    between atoms: C_5  and  C_51
    4  A    between atoms: N_10  and  C_24
    5  A    between atoms: N_10  and  C_49
    6  A    between atoms: C_22  and  C_30
    7  A    between atoms: C_23  and  C_39
    8  A    between atoms: C_24  and  C_27
    9  A    between atoms: C_24  and  C_33
   10  A    between atoms: C_33  and  C_40
                            x       y       z     vdW  Elec       q    Type
                         _______ _______ _______ _____ _____    ______ ____

>  <TORSDO>
F 10

$$$$
=
 OpenBabel11062423053D

 57 63  0  0  1  0  0  0  0  0999 V2000
  193.0890  171.9080  143.5220 C   0  0  0  0  0  0  0  0  0  0  0  0
  192.1330  171.4750  138.2950 C   0  0  2  0  0  3  0  0  0  0  0  0
  196.6400  171.6040  140.9670 C   0  0  0  0  0  2  0  0  0  0  0  0
  195.3420  169.6710  139.8850 C   0  0  2  0  0  3  0  0  0  0  0  0
  193.1190  169.5960  142.7960 C   0  0  0  0  0  2  0  0  0  0  0  0
  194.2280  170.1350  140.7370 N   0  0  2  0  0  0  0  0  0  0  0  0
  196.6080  170.4850  139.9890 C   0  0  0  0  0  0  0  0  0  0  0  0
  189.1830  171.4470  139.3550 O   0  0  0  0  0  1  0  0  0  0  0  0
  194.9240  169.3960  138.5590 O   0  0  0  0  0  0  0  0  0  0  0  0
  191.1500  172.6170  138.5970 C   0  0  1  0  0  3  0  0  0  0  0  0
  197.5740  170.2380  139.2870 O   0  0  0  0  0  0  0  0  0  0  0  0
  195.8800  171.7400  137.3890 O   0  0  0  0  0  1  0  0  0  0  0  0
  190.2090  171.9540  143.5760 C   0  0  0  0  0  2  0  0  0  0  0  0
  194.4920  170.8350  137.7330 P   0  0  1  0  0  0  0  0  0  0  0  0
  193.9340  174.7710  144.7990 C   0  0  2  0  0  0  0  0  0  0  0  0
  190.7350  172.4150  141.0160 C   0  0  2  0  0  3  0  0  0  0  0  0
  193.8470  170.4600  136.4140 O   0  0  0  0  0  0  0  0  0  0  0  0
  193.0090  175.9800  144.6710 C   0  0  0  0  0  2  0  0  0  0  0  0
  194.5360  171.2320  141.6850 C   0  0  1  0  0  3  0  0  0  0  0  0
  189.2630  172.4100  142.0910 S   0  0  0  0  0  0  0  0  0  0  0  0
  193.6970  170.9540  142.8710 C   0  0  0  0  0  0  0  0  0  0  0  0
  192.0160  175.8280  143.5290 C   0  0  0  0  0  2  0  0  0  0  0  0
  191.1560  173.8330  140.7120 C   0  0  0  0  0  2  0  0  0  0  0  0
  190.6080  175.5890  144.0580 C   0  0  2  0  0  3  0  0  0  0  0  0
  190.4300  174.2020  144.6200 C   0  0  0  0  0  0  0  0  0  0  0  0
  191.4640  170.6230  139.3630 C   0  0  0  0  0  2  0  0  0  0  0  0
  190.5080  171.7590  139.6620 C   0  0  1  0  0  0  0  0  0  0  0  0
  191.0560  173.0610  144.0200 N   0  0  0  0  0  0  0  0  0  0  0  0
  192.4690  172.8520  144.1850 C   0  0  0  0  0  0  0  0  0  0  0  0
  195.8870  171.2250  142.0850 O   0  0  0  0  0  0  0  0  0  0  0  0
  193.4440  171.7940  138.6770 O   0  0  0  0  0  0  0  0  0  0  0  0
  191.7730  173.8010  139.3280 C   0  0  0  0  0  2  0  0  0  0  0  0
  194.6380  174.5790  143.6030 O   0  0  0  0  0  1  0  0  0  0  0  0
  193.7580  169.0140  141.5490 C   0  0  0  0  0  2  0  0  0  0  0  0
  189.6850  174.0440  145.6210 O   0  0  0  0  0  0  0  0  0  0  0  0
  193.1840  173.5990  145.1270 O   0  0  0  0  0  0  0  0  0  0  0  0
  194.6920  175.9750  146.7180 O   0  0  0  0  0  1  0  0  0  0  0  0
  196.1080  174.3470  145.9700 O   0  0  0  0  0  0  0  0  0  0  0  0
  194.9100  175.0510  145.8990 C   0  0  0  0  0  0  0  0  0  0  0  0
  189.6280  175.8810  142.9250 C   0  0  0  0  0  2  0  0  0  0  0  0
  188.5910  176.9690  143.2410 C   0  0  1  0  0  3  0  0  0  0  0  0
  185.7040  177.6390  140.9490 N   0  0  0  0  0  0  0  0  0  0  0  0
  186.2340  177.7280  142.3020 C   0  0  1  0  0  3  0  0  0  0  0  0
  187.6260  177.2110  142.1140 C   0  0  0  0  0  0  0  0  0  0  0  0
  186.6330  177.1320  140.2030 C   0  0  0  0  0  0  0  0  0  0  0  0
  186.4470  176.8790  138.7520 C   0  0  0  0  0  1  0  0  0  0  0  0
  187.8360  176.8280  140.8960 N   0  0  0  0  0  0  0  0  0  0  0  0
  186.2410  179.1830  142.7530 C   0  0  0  0  0  2  0  0  0  0  0  0
  185.8870  179.2620  144.0910 F   0  0  0  0  0  0  0  0  0  0  0  0
  187.8390  176.5920  144.4280 N   0  0  0  0  0  2  0  0  0  0  0  0
  188.1870  177.5260  145.4940 C   0  0  0  0  0  2  0  0  0  0  0  0
  187.6790  177.0030  146.8320 C   0  0  0  0  0  2  0  0  0  0  0  0
  186.7950  178.7510  148.1900 O   0  0  0  0  0  0  0  0  0  0  0  0
  186.5550  177.8490  147.3420 C   0  0  0  0  0  0  0  0  0  0  0  0
  185.1840  177.6630  146.8450 C   0  0  0  0  0  0  0  0  0  0  0  0
  184.3230  178.7500  146.7650 O   0  0  0  0  0  1  0  0  0  0  0  0
  184.7790  176.5230  146.4930 O   0  0  0  0  0  0  0  0  0  0  0  0
  1 29  2  0  0  0  0
  2 10  1  0  0  0  0
  2 31  1  0  0  0  0
  2 26  1  1  0  0  0
  3 30  1  0  0  0  0
  4  9  1  6  0  0  0
  4  7  1  0  0  0  0
  4  6  1  0  0  0  0
  5 21  1  0  0  0  0
  6 34  1  1  0  0  0
  6 19  1  0  0  0  0
  7  3  1  0  0  0  0
 10 32  1  1  0  0  0
 10 27  1  0  0  0  0
 11  7  2  0  0  0  0
 12 14  1  0  0  0  0
 13 28  1  0  0  0  0
 14 17  2  6  0  0  0
 14  9  1  0  0  0  0
 14 31  1  0  0  0  0
 15 33  1  6  0  0  0
 15 36  1  0  0  0  0
 15 39  1  0  0  0  0
 16 23  1  6  0  0  0
 16 20  1  0  0  0  0
 18 15  1  0  0  0  0
 19 30  1  1  0  0  0
 19 21  1  0  0  0  0
 20 13  1  0  0  0  0
 21  1  2  0  0  0  0
 22 24  1  0  0  0  0
 22 18  1  0  0  0  0
 24 40  1  6  0  0  0
 24 25  1  0  0  0  0
 25 35  2  0  0  0  0
 26 27  1  0  0  0  0
 27  8  1  6  0  0  0
 27 16  1  0  0  0  0
 28 29  1  0  0  0  0
 28 25  1  0  0  0  0
 29 36  1  0  0  0  0
 32 23  1  0  0  0  0
 34  5  1  0  0  0  0
 39 38  2  0  0  0  0
 39 37  1  0  0  0  0
 41 40  1  6  0  0  0
 41 50  1  0  0  0  0
 42 43  1  0  0  0  0
 43 48  1  6  0  0  0
 44 43  1  0  0  0  0
 44 41  1  0  0  0  0
 45 47  1  0  0  0  0
 45 42  2  0  0  0  0
 46 45  1  0  0  0  0
 47 44  2  0  0  0  0
 48 49  1  0  0  0  0
 50 51  1  0  0  0  0
 51 52  1  0  0  0  0
 52 54  1  0  0  0  0
 54 53  2  0  0  0  0
 55 54  1  0  0  0  0
 56 55  1  0  0  0  0
 57 55  2  0  0  0  0
M  END
>  <MODEL>
2

>  <REMARK>
 VINA RESULT:      -6.9      2.775      4.516
  Name = 
  10 active torsions:
  status: ('A' for Active; 'I' for Inactive)
    1  A    between atoms: C_1  and  C_49
    2  A    between atoms: C_1  and  C_51
    3  A    between atoms: C_5  and  C_51
    4  A    between atoms: N_10  and  C_24
    5  A    between atoms: N_10  and  C_49
    6  A    between atoms: C_22  and  C_30
    7  A    between atoms: C_23  and  C_39
    8  A    between atoms: C_24  and  C_27
    9  A    between atoms: C_24  and  C_33
   10  A    between atoms: C_33  and  C_40
                            x       y       z     vdW  Elec       q    Type
                         _______ _______ _______ _____ _____    ______ ____

>  <TORSDO>
F 10

$$$$
=
 OpenBabel11062423053D

 57 63  0  0  1  0  0  0  0  0999 V2000
  192.7080  173.9790  140.8300 C   0  0  0  0  0  0  0  0  0  0  0  0
  195.8560  172.8110  144.9730 C   0  0  2  0  0  3  0  0  0  0  0  0
  194.8030  170.1340  140.5900 C   0  0  0  0  0  2  0  0  0  0  0  0
  196.8390  171.5260  141.3030 C   0  0  2  0  0  3  0  0  0  0  0  0
  195.0180  174.5710  140.3940 C   0  0  0  0  0  2  0  0  0  0  0  0
  195.8510  172.6070  141.4930 N   0  0  2  0  0  0  0  0  0  0  0  0
  196.2640  170.2040  140.8600 C   0  0  0  0  0  0  0  0  0  0  0  0
  194.9370  175.6840  145.8270 O   0  0  0  0  0  1  0  0  0  0  0  0
  197.7530  171.4390  142.3830 O   0  0  0  0  0  0  0  0  0  0  0  0
  194.6310  173.2930  145.7660 C   0  0  1  0  0  3  0  0  0  0  0  0
  196.9730  169.2200  140.7320 O   0  0  0  0  0  0  0  0  0  0  0  0
  196.5890  169.2500  143.6610 O   0  0  0  0  0  0  0  0  0  0  0  0
  192.2960  176.3560  142.4060 C   0  0  0  0  0  2  0  0  0  0  0  0
  196.9760  170.8910  143.8110 P   0  0  1  0  0  0  0  0  0  0  0  0
  189.7450  172.6730  140.6090 C   0  0  2  0  0  0  0  0  0  0  0  0
  193.4030  174.6990  144.1590 C   0  0  2  0  0  3  0  0  0  0  0  0
  197.9410  171.0340  144.9710 O   0  0  0  0  0  1  0  0  0  0  0  0
  188.7110  172.9060  141.7090 C   0  0  0  0  0  2  0  0  0  0  0  0
  194.4590  172.3060  141.0840 C   0  0  1  0  0  3  0  0  0  0  0  0
  192.6340  176.3510  144.1940 S   0  0  0  0  0  0  0  0  0  0  0  0
  193.9280  173.5900  140.5750 C   0  0  0  0  0  0  0  0  0  0  0  0
  189.3520  173.3190  143.0240 C   0  0  0  0  0  2  0  0  0  0  0  0
  192.4560  173.6690  144.7270 C   0  0  0  0  0  2  0  0  0  0  0  0
  189.0860  174.7890  143.3230 C   0  0  2  0  0  3  0  0  0  0  0  0
  189.8930  175.7110  142.4470 C   0  0  0  0  0  0  0  0  0  0  0  0
  195.8830  174.1330  144.2200 C   0  0  0  0  0  2  0  0  0  0  0  0
  194.6680  174.5940  144.9980 C   0  0  1  0  0  0  0  0  0  0  0  0
  191.2400  175.4020  142.0680 N   0  0  0  0  0  0  0  0  0  0  0  0
  191.4890  174.3870  141.0790 C   0  0  0  0  0  0  0  0  0  0  0  0
  194.4030  171.3590  140.0420 O   0  0  0  0  0  0  0  0  0  0  0  0
  195.5370  171.7600  144.1000 O   0  0  0  0  0  0  0  0  0  0  0  0
  193.3240  172.6090  145.3750 C   0  0  0  0  0  2  0  0  0  0  0  0
  190.6510  171.6820  141.0060 O   0  0  0  0  0  1  0  0  0  0  0  0
  196.2660  173.7670  140.7060 C   0  0  0  0  0  2  0  0  0  0  0  0
  189.3770  176.7950  142.0690 O   0  0  0  0  0  0  0  0  0  0  0  0
  190.4360  173.8870  140.3060 O   0  0  0  0  0  0  0  0  0  0  0  0
  187.9150  172.7120  139.0720 O   0  0  0  0  0  1  0  0  0  0  0  0
  189.5210  171.1480  138.6330 O   0  0  0  0  0  0  0  0  0  0  0  0
  189.0200  172.2060  139.3850 C   0  0  0  0  0  0  0  0  0  0  0  0
  189.3580  175.0200  144.8070 C   0  0  0  0  0  2  0  0  0  0  0  0
  189.2610  176.4870  145.2540 C   0  0  1  0  0  3  0  0  0  0  0  0
  185.5950  177.2580  145.2270 N   0  0  0  0  0  0  0  0  0  0  0  0
  186.6600  176.4150  145.7500 C   0  0  1  0  0  3  0  0  0  0  0  0
  187.8710  177.0480  145.1390 C   0  0  0  0  0  0  0  0  0  0  0  0
  186.1440  178.1400  144.4540 C   0  0  0  0  0  0  0  0  0  0  0  0
  185.3590  179.1700  143.7280 C   0  0  0  0  0  1  0  0  0  0  0  0
  187.5570  178.0270  144.3530 N   0  0  0  0  0  0  0  0  0  0  0  0
  186.6920  176.5170  147.2690 C   0  0  0  0  0  2  0  0  0  0  0  0
  186.1800  177.7410  147.6700 F   0  0  0  0  0  0  0  0  0  0  0  0
  189.6990  176.6020  146.6370 N   0  0  0  0  0  2  0  0  0  0  0  0
  190.3630  175.3550  147.0020 C   0  0  0  0  0  2  0  0  0  0  0  0
  191.1230  175.5320  148.3100 C   0  0  0  0  0  2  0  0  0  0  0  0
  192.7220  177.1650  147.6360 O   0  0  0  0  0  0  0  0  0  0  0  0
  191.7460  176.8910  148.3850 C   0  0  0  0  0  0  0  0  0  0  0  0
  191.2160  177.9160  149.2960 C   0  0  0  0  0  0  0  0  0  0  0  0
  190.3240  178.8680  148.8220 O   0  0  0  0  0  0  0  0  0  0  0  0
  191.5670  177.9400  150.5050 O   0  0  0  0  0  1  0  0  0  0  0  0
  1 29  2  0  0  0  0
  2 26  1  6  0  0  0
  2 10  1  0  0  0  0
  3  7  1  0  0  0  0
  4  7  1  1  0  0  0
  4  6  1  0  0  0  0
  4  9  1  0  0  0  0
  5 21  1  0  0  0  0
  5 34  1  0  0  0  0
  6 34  1  6  0  0  0
  9 14  1  0  0  0  0
 10 32  1  6  0  0  0
 11  7  2  0  0  0  0
 13 20  1  0  0  0  0
 14 12  2  6  0  0  0
 14 31  1  0  0  0  0
 14 17  1  0  0  0  0
 15 33  1  1  0  0  0
 15 18  1  0  0  0  0
 16 20  1  0  0  0  0
 16 23  1  1  0  0  0
 16 27  1  0  0  0  0
 18 22  1  0  0  0  0
 19 30  1  6  0  0  0
 19  6  1  0  0  0  0
 21  1  2  0  0  0  0
 21 19  1  0  0  0  0
 22 24  1  0  0  0  0
 23 32  1  0  0  0  0
 24 40  1  1  0  0  0
 25 24  1  0  0  0  0
 26 27  1  0  0  0  0
 27 10  1  0  0  0  0
 27  8  1  1  0  0  0
 28 13  1  0  0  0  0
 28 25  1  0  0  0  0
 29 28  1  0  0  0  0
 30  3  1  0  0  0  0
 31  2  1  0  0  0  0
 35 25  2  0  0  0  0
 36 15  1  0  0  0  0
 36 29  1  0  0  0  0
 37 39  1  0  0  0  0
 38 39  2  0  0  0  0
 39 15  1  0  0  0  0
 41 40  1  1  0  0  0
 41 50  1  0  0  0  0
 42 43  1  0  0  0  0
 43 48  1  1  0  0  0
 44 41  1  0  0  0  0
 44 43  1  0  0  0  0
 45 42  2  0  0  0  0
 46 45  1  0  0  0  0
 47 45  1  0  0  0  0
 47 44  2  0  0  0  0
 48 49  1  0  0  0  0
 50 51  1  0  0  0  0
 51 52  1  0  0  0  0
 52 54  1  0  0  0  0
 53 54  2  0  0  0  0
 54 55  1  0  0  0  0
 55 57  1  0  0  0  0
 56 55  2  0  0  0  0
M  END
>  <MODEL>
3

>  <REMARK>
 VINA RESULT:      -6.8      2.967      5.757
  Name = 
  10 active torsions:
  status: ('A' for Active; 'I' for Inactive)
    1  A    between atoms: C_1  and  C_49
    2  A    between atoms: C_1  and  C_51
    3  A    between atoms: C_5  and  C_51
    4  A    between atoms: N_10  and  C_24
    5  A    between atoms: N_10  and  C_49
    6  A    between atoms: C_22  and  C_30
    7  A    between atoms: C_23  and  C_39
    8  A    between atoms: C_24  and  C_27
    9  A    between atoms: C_24  and  C_33
   10  A    between atoms: C_33  and  C_40
                            x       y       z     vdW  Elec       q    Type
                         _______ _______ _______ _____ _____    ______ ____

>  <TORSDO>
F 10

$$$$
=
 OpenBabel11062423053D

 57 63  0  0  1  0  0  0  0  0999 V2000
  196.0350  173.1520  141.2860 C   0  0  0  0  0  0  0  0  0  0  0  0
  192.9290  171.8050  137.1660 C   0  0  2  0  0  3  0  0  0  0  0  0
  196.8840  175.2280  137.5180 C   0  0  0  0  0  2  0  0  0  0  0  0
  196.7420  172.8670  136.5190 C   0  0  2  0  0  3  0  0  0  0  0  0
  197.0820  171.4710  139.8890 C   0  0  0  0  0  2  0  0  0  0  0  0
  196.2760  172.4820  137.8660 N   0  0  2  0  0  0  0  0  0  0  0  0
  197.0250  174.3370  136.3350 C   0  0  0  0  0  0  0  0  0  0  0  0
  191.8230  169.8050  139.3120 O   0  0  0  0  0  1  0  0  0  0  0  0
  195.9550  172.2850  135.4940 O   0  0  0  0  0  0  0  0  0  0  0  0
  191.8250  171.9570  138.2240 C   0  0  1  0  0  3  0  0  0  0  0  0
  197.3540  174.7840  135.2490 O   0  0  0  0  0  0  0  0  0  0  0  0
  194.4320  174.5410  134.8880 O   0  0  0  0  0  1  0  0  0  0  0  0
  194.3800  171.1820  142.5820 C   0  0  0  0  0  2  0  0  0  0  0  0
  194.3760  172.9530  135.4690 P   0  0  1  0  0  0  0  0  0  0  0  0
  195.4500  175.8740  142.9540 C   0  0  2  0  0  0  0  0  0  0  0  0
  193.0170  171.6950  140.3640 C   0  0  2  0  0  3  0  0  0  0  0  0
  193.5240  172.1420  134.5130 O   0  0  0  0  0  0  0  0  0  0  0  0
  194.1060  176.0840  143.6490 C   0  0  0  0  0  2  0  0  0  0  0  0
  196.2910  173.5470  138.8970 C   0  0  1  0  0  3  0  0  0  0  0  0
  192.7540  170.7430  141.8950 S   0  0  0  0  0  0  0  0  0  0  0  0
  196.6200  172.8480  140.1590 C   0  0  0  0  0  0  0  0  0  0  0  0
  193.0130  175.2030  143.0670 C   0  0  0  0  0  2  0  0  0  0  0  0
  192.2230  172.9790  140.4040 C   0  0  0  0  0  2  0  0  0  0  0  0
  192.6350  174.0880  144.0340 C   0  0  2  0  0  3  0  0  0  0  0  0
  193.6880  173.0150  144.1170 C   0  0  0  0  0  0  0  0  0  0  0  0
  193.6450  170.8070  138.0640 C   0  0  0  0  0  2  0  0  0  0  0  0
  192.5580  170.9730  139.1050 C   0  0  1  0  0  0  0  0  0  0  0  0
  194.4260  172.5930  142.9630 N   0  0  0  0  0  0  0  0  0  0  0  0
  195.4560  173.4410  142.4250 C   0  0  0  0  0  0  0  0  0  0  0  0
  197.2880  174.5120  138.6520 O   0  0  0  0  0  0  0  0  0  0  0  0
  193.6930  172.9740  137.0320 O   0  0  0  0  0  0  0  0  0  0  0  0
  191.8500  173.2890  138.9680 C   0  0  0  0  0  2  0  0  0  0  0  0
  195.3280  176.1430  141.5850 O   0  0  0  0  0  1  0  0  0  0  0  0
  197.1330  171.4120  138.3730 C   0  0  0  0  0  2  0  0  0  0  0  0
  193.8980  172.4540  145.2240 O   0  0  0  0  0  0  0  0  0  0  0  0
  195.9170  174.5390  143.1590 O   0  0  0  0  0  0  0  0  0  0  0  0
  197.6170  176.8630  143.1400 O   0  0  0  0  0  0  0  0  0  0  0  0
  196.0660  177.6340  144.6290 O   0  0  0  0  0  1  0  0  0  0  0  0
  196.4330  176.8320  143.5520 C   0  0  0  0  0  0  0  0  0  0  0  0
  191.2800  173.5340  143.6020 C   0  0  0  0  0  2  0  0  0  0  0  0
  190.3030  173.2620  144.7560 C   0  0  1  0  0  3  0  0  0  0  0  0
  188.8330  176.0650  146.7610 N   0  0  0  0  0  0  0  0  0  0  0  0
  189.6640  174.8690  146.7620 C   0  0  1  0  0  3  0  0  0  0  0  0
  189.6780  174.5130  145.3080 C   0  0  0  0  0  0  0  0  0  0  0  0
  188.4520  176.2700  145.5410 C   0  0  0  0  0  0  0  0  0  0  0  0
  187.5740  177.4030  145.1550 C   0  0  0  0  0  1  0  0  0  0  0  0
  188.9360  175.3110  144.6100 N   0  0  0  0  0  0  0  0  0  0  0  0
  191.0600  175.2180  147.2590 C   0  0  0  0  0  2  0  0  0  0  0  0
  191.6270  176.1780  146.4340 F   0  0  0  0  0  0  0  0  0  0  0  0
  189.2460  172.3740  144.2980 N   0  0  0  0  0  2  0  0  0  0  0  0
  189.3930  172.2100  142.8550 C   0  0  0  0  0  2  0  0  0  0  0  0
  188.1390  172.7010  142.1440 C   0  0  0  0  0  2  0  0  0  0  0  0
  188.9240  174.8100  141.3620 O   0  0  0  0  0  0  0  0  0  0  0  0
  188.4870  173.6680  141.0570 C   0  0  0  0  0  0  0  0  0  0  0  0
  188.3540  173.2930  139.6420 C   0  0  0  0  0  0  0  0  0  0  0  0
  188.1500  174.2760  138.6820 O   0  0  0  0  0  0  0  0  0  0  0  0
  188.4210  172.0850  139.2900 O   0  0  0  0  0  1  0  0  0  0  0  0
  1 29  2  0  0  0  0
  2 26  1  1  0  0  0
  2 10  1  0  0  0  0
  3 30  1  0  0  0  0
  4  9  1  6  0  0  0
  4  6  1  0  0  0  0
  5 21  1  0  0  0  0
  6 34  1  1  0  0  0
  6 19  1  0  0  0  0
  7  4  1  0  0  0  0
  7  3  1  0  0  0  0
 10 32  1  1  0  0  0
 10 27  1  0  0  0  0
 11  7  2  0  0  0  0
 12 14  1  0  0  0  0
 13 28  1  0  0  0  0
 14 17  2  6  0  0  0
 14  9  1  0  0  0  0
 14 31  1  0  0  0  0
 15 33  1  6  0  0  0
 15 36  1  0  0  0  0
 15 39  1  0  0  0  0
 15 18  1  0  0  0  0
 16 23  1  1  0  0  0
 16 20  1  0  0  0  0
 19 30  1  6  0  0  0
 19 21  1  0  0  0  0
 20 13  1  0  0  0  0
 21  1  2  0  0  0  0
 22 18  1  0  0  0  0
 22 24  1  0  0  0  0
 24 40  1  6  0  0  0
 24 25  1  0  0  0  0
 25 35  2  0  0  0  0
 26 27  1  0  0  0  0
 27  8  1  1  0  0  0
 27 16  1  0  0  0  0
 28 25  1  0  0  0  0
 29 28  1  0  0  0  0
 29 36  1  0  0  0  0
 31  2  1  0  0  0  0
 32 23  1  0  0  0  0
 34  5  1  0  0  0  0
 37 39  2  0  0  0  0
 39 38  1  0  0  0  0
 41 40  1  6  0  0  0
 41 44  1  0  0  0  0
 42 43  1  0  0  0  0
 43 48  1  6  0  0  0
 44 43  1  0  0  0  0
 45 42  2  0  0  0  0
 46 45  1  0  0  0  0
 47 44  2  0  0  0  0
 47 45  1  0  0  0  0
 49 48  1  0  0  0  0
 50 41  1  0  0  0  0
 51 50  1  0  0  0  0
 52 51  1  0  0  0  0
 54 53  2  0  0  0  0
 54 52  1  0  0  0  0
 55 54  1  0  0  0  0
 56 55  2  0  0  0  0
 57 55  1  0  0  0  0
M  END
>  <MODEL>
4

>  <REMARK>
 VINA RESULT:      -6.7      2.568      5.160
  Name = 
  10 active torsions:
  status: ('A' for Active; 'I' for Inactive)
    1  A    between atoms: C_1  and  C_49
    2  A    between atoms: C_1  and  C_51
    3  A    between atoms: C_5  and  C_51
    4  A    between atoms: N_10  and  C_24
    5  A    between atoms: N_10  and  C_49
    6  A    between atoms: C_22  and  C_30
    7  A    between atoms: C_23  and  C_39
    8  A    between atoms: C_24  and  C_27
    9  A    between atoms: C_24  and  C_33
   10  A    between atoms: C_33  and  C_40
                            x       y       z     vdW  Elec       q    Type
                         _______ _______ _______ _____ _____    ______ ____

>  <TORSDO>
F 10

$$$$
=
 OpenBabel11062423053D

 57 63  0  0  1  0  0  0  0  0999 V2000
  191.8060  170.3500  142.5730 C   0  0  0  0  0  0  0  0  0  0  0  0
  190.7510  171.9660  137.6020 C   0  0  2  0  0  3  0  0  0  0  0  0
  194.8520  169.3660  139.5760 C   0  0  0  0  0  2  0  0  0  0  0  0
  192.8320  168.5890  138.1960 C   0  0  2  0  0  3  0  0  0  0  0  0
  190.8080  168.5810  141.2500 C   0  0  0  0  0  2  0  0  0  0  0  0
  192.0390  169.1980  139.2840 N   0  0  2  0  0  0  0  0  0  0  0  0
  194.3270  168.7200  138.3440 C   0  0  0  0  0  0  0  0  0  0  0  0
  188.0950  172.8650  139.0020 O   0  0  0  0  0  1  0  0  0  0  0  0
  192.3330  168.9310  136.9140 O   0  0  0  0  0  0  0  0  0  0  0  0
  190.3760  173.2650  138.3310 C   0  0  1  0  0  3  0  0  0  0  0  0
  195.0830  168.3130  137.4780 O   0  0  0  0  0  0  0  0  0  0  0  0
  194.2280  170.8860  136.3050 O   0  0  0  0  0  1  0  0  0  0  0  0
  189.2440  171.5880  143.0250 C   0  0  0  0  0  2  0  0  0  0  0  0
  192.5820  170.5940  136.5750 P   0  0  1  0  0  0  0  0  0  0  0  0
  193.8310  172.0550  144.4510 C   0  0  2  0  0  0  0  0  0  0  0  0
  189.9160  172.5350  140.6390 C   0  0  2  0  0  3  0  0  0  0  0  0
  191.8370  170.9450  135.3030 O   0  0  0  0  0  0  0  0  0  0  0  0
  193.5380  173.5170  144.7810 C   0  0  0  0  0  2  0  0  0  0  0  0
  192.8020  169.7180  140.4430 C   0  0  1  0  0  3  0  0  0  0  0  0
  188.5950  172.8270  141.8600 S   0  0  0  0  0  0  0  0  0  0  0  0
  191.9280  169.4750  141.6110 C   0  0  0  0  0  0  0  0  0  0  0  0
  192.5790  174.1510  143.7860 C   0  0  0  0  0  2  0  0  0  0  0  0
  190.9210  173.6610  140.6760 C   0  0  0  0  0  2  0  0  0  0  0  0
  191.2110  174.3810  144.4150 C   0  0  2  0  0  3  0  0  0  0  0  0
  190.4380  173.1010  144.5990 C   0  0  0  0  0  0  0  0  0  0  0  0
  189.7750  171.1960  138.4790 C   0  0  0  0  0  2  0  0  0  0  0  0
  189.4210  172.4800  139.2000 C   0  0  1  0  0  0  0  0  0  0  0  0
  190.4930  172.0430  143.6330 N   0  0  0  0  0  0  0  0  0  0  0  0
  191.6680  171.2180  143.5440 C   0  0  0  0  0  0  0  0  0  0  0  0
  194.0100  169.0220  140.6410 O   0  0  0  0  0  0  0  0  0  0  0  0
  192.0680  171.5700  137.8760 O   0  0  0  0  0  0  0  0  0  0  0  0
  191.4600  173.7930  139.2660 C   0  0  0  0  0  2  0  0  0  0  0  0
  194.3770  171.9560  143.1650 O   0  0  0  0  0  1  0  0  0  0  0  0
  191.1220  168.1920  139.8170 C   0  0  0  0  0  2  0  0  0  0  0  0
  189.7010  172.9770  145.6110 O   0  0  0  0  0  0  0  0  0  0  0  0
  192.6410  171.2700  144.5480 O   0  0  0  0  0  0  0  0  0  0  0  0
  195.9320  172.1340  145.5880 O   0  0  0  0  0  0  0  0  0  0  0  0
  194.5870  170.3770  146.1520 O   0  0  0  0  0  1  0  0  0  0  0  0
  194.8310  171.5490  145.4440 C   0  0  0  0  0  0  0  0  0  0  0  0
  190.4600  175.3870  143.5460 C   0  0  0  0  0  2  0  0  0  0  0  0
  189.2460  176.0380  144.2260 C   0  0  1  0  0  3  0  0  0  0  0  0
  189.4910  177.8110  147.5170 N   0  0  0  0  0  0  0  0  0  0  0  0
  188.6900  177.5460  146.3310 C   0  0  1  0  0  3  0  0  0  0  0  0
  189.5490  176.5590  145.6030 C   0  0  0  0  0  0  0  0  0  0  0  0
  190.5820  177.1220  147.4080 C   0  0  0  0  0  0  0  0  0  0  0  0
  191.6550  177.1510  148.4350 C   0  0  0  0  0  1  0  0  0  0  0  0
  190.6680  176.3500  146.2190 N   0  0  0  0  0  0  0  0  0  0  0  0
  187.3610  176.9250  146.7400 C   0  0  0  0  0  2  0  0  0  0  0  0
  187.5720  175.6490  147.2380 F   0  0  0  0  0  0  0  0  0  0  0  0
  188.7630  177.1370  143.4050 N   0  0  0  0  0  2  0  0  0  0  0  0
  188.2250  176.5720  142.1720 C   0  0  0  0  0  2  0  0  0  0  0  0
  186.7630  176.1900  142.3680 C   0  0  0  0  0  2  0  0  0  0  0  0
  185.9770  177.9370  140.9510 O   0  0  0  0  0  0  0  0  0  0  0  0
  185.8640  177.3460  142.0580 C   0  0  0  0  0  0  0  0  0  0  0  0
  184.8340  177.7780  143.0130 C   0  0  0  0  0  0  0  0  0  0  0  0
  183.6340  178.3000  142.5480 O   0  0  0  0  0  0  0  0  0  0  0  0
  185.0300  177.6830  144.2540 O   0  0  0  0  0  1  0  0  0  0  0  0
  1 29  2  0  0  0  0
  2 31  1  0  0  0  0
  2 10  1  0  0  0  0
  2 26  1  1  0  0  0
  3 30  1  0  0  0  0
  4  9  1  6  0  0  0
  4  7  1  0  0  0  0
  4  6  1  0  0  0  0
  5 21  1  0  0  0  0
  6 34  1  1  0  0  0
  6 19  1  0  0  0  0
  7  3  1  0  0  0  0
 10 27  1  0  0  0  0
 10 32  1  1  0  0  0
 11  7  2  0  0  0  0
 12 14  1  0  0  0  0
 13 28  1  0  0  0  0
 14 17  2  6  0  0  0
 14  9  1  0  0  0  0
 14 31  1  0  0  0  0
 15 33  1  6  0  0  0
 15 36  1  0  0  0  0
 15 18  1  0  0  0  0
 15 39  1  0  0  0  0
 16 23  1  6  0  0  0
 16 20  1  0  0  0  0
 19 30  1  1  0  0  0
 19 21  1  0  0  0  0
 20 13  1  0  0  0  0
 21  1  2  0  0  0  0
 22 24  1  0  0  0  0
 22 18  1  0  0  0  0
 24 40  1  6  0  0  0
 24 25  1  0  0  0  0
 25 35  2  0  0  0  0
 26 27  1  0  0  0  0
 27  8  1  6  0  0  0
 27 16  1  0  0  0  0
 28 25  1  0  0  0  0
 29 28  1  0  0  0  0
 29 36  1  0  0  0  0
 32 23  1  0  0  0  0
 34  5  1  0  0  0  0
 39 37  2  0  0  0  0
 39 38  1  0  0  0  0
 41 40  1  6  0  0  0
 41 44  1  0  0  0  0
 43 48  1  1  0  0  0
 43 42  1  0  0  0  0
 44 47  2  0  0  0  0
 44 43  1  0  0  0  0
 45 42  2  0  0  0  0
 45 46  1  0  0  0  0
 47 45  1  0  0  0  0
 48 49  1  0  0  0  0
 50 41  1  0  0  0  0
 51 52  1  0  0  0  0
 51 50  1  0  0  0  0
 53 54  2  0  0  0  0
 54 52  1  0  0  0  0
 54 55  1  0  0  0  0
 55 57  1  0  0  0  0
 56 55  2  0  0  0  0
M  END
>  <MODEL>
5

>  <REMARK>
 VINA RESULT:      -6.6      2.347      4.054
  Name = 
  10 active torsions:
  status: ('A' for Active; 'I' for Inactive)
    1  A    between atoms: C_1  and  C_49
    2  A    between atoms: C_1  and  C_51
    3  A    between atoms: C_5  and  C_51
    4  A    between atoms: N_10  and  C_24
    5  A    between atoms: N_10  and  C_49
    6  A    between atoms: C_22  and  C_30
    7  A    between atoms: C_23  and  C_39
    8  A    between atoms: C_24  and  C_27
    9  A    between atoms: C_24  and  C_33
   10  A    between atoms: C_33  and  C_40
                            x       y       z     vdW  Elec       q    Type
                         _______ _______ _______ _____ _____    ______ ____

>  <TORSDO>
F 10

$$$$
=
 OpenBabel11062423053D

 57 63  0  0  1  0  0  0  0  0999 V2000
  192.9200  174.0860  140.9220 C   0  0  0  0  0  0  0  0  0  0  0  0
  195.9200  172.6020  145.0740 C   0  0  2  0  0  3  0  0  0  0  0  0
  194.8840  170.1850  140.5390 C   0  0  0  0  0  2  0  0  0  0  0  0
  196.9500  171.4650  141.3680 C   0  0  2  0  0  3  0  0  0  0  0  0
  195.2590  174.6150  140.5700 C   0  0  0  0  0  2  0  0  0  0  0  0
  195.9960  172.5700  141.5890 N   0  0  2  0  0  0  0  0  0  0  0  0
  196.3400  170.1880  140.8460 C   0  0  0  0  0  0  0  0  0  0  0  0
  195.0810  175.4610  146.0490 O   0  0  0  0  0  1  0  0  0  0  0  0
  197.8330  171.2920  142.4640 O   0  0  0  0  0  0  0  0  0  0  0  0
  194.6930  173.0880  145.8610 C   0  0  1  0  0  3  0  0  0  0  0  0
  197.0170  169.1860  140.6860 O   0  0  0  0  0  0  0  0  0  0  0  0
  196.5610  169.0870  143.6030 O   0  0  0  0  0  0  0  0  0  0  0  0
  192.5520  176.3960  142.6050 C   0  0  0  0  0  2  0  0  0  0  0  0
  197.0010  170.7030  143.8430 P   0  0  1  0  0  0  0  0  0  0  0  0
  189.9190  172.9010  140.5670 C   0  0  2  0  0  0  0  0  0  0  0  0
  193.5560  174.6160  144.2980 C   0  0  2  0  0  3  0  0  0  0  0  0
  197.9410  170.7530  145.0310 O   0  0  0  0  0  1  0  0  0  0  0  0
  188.8670  173.1160  141.6520 C   0  0  0  0  0  2  0  0  0  0  0  0
  194.6050  172.3410  141.1330 C   0  0  1  0  0  3  0  0  0  0  0  0
  192.8440  176.2910  144.3980 S   0  0  0  0  0  0  0  0  0  0  0  0
  194.1320  173.6660  140.6760 C   0  0  0  0  0  0  0  0  0  0  0  0
  189.4880  173.4410  143.0010 C   0  0  0  0  0  2  0  0  0  0  0  0
  192.5590  173.5940  144.7910 C   0  0  0  0  0  2  0  0  0  0  0  0
  189.2670  174.9030  143.3670 C   0  0  2  0  0  3  0  0  0  0  0  0
  190.1280  175.8370  142.5580 C   0  0  0  0  0  0  0  0  0  0  0  0
  196.0130  173.9580  144.3890 C   0  0  0  0  0  2  0  0  0  0  0  0
  194.7950  174.4240  145.1610 C   0  0  1  0  0  0  0  0  0  0  0  0
  191.4720  175.4990  142.1960 N   0  0  0  0  0  0  0  0  0  0  0  0
  191.7100  174.5250  141.1630 C   0  0  0  0  0  0  0  0  0  0  0  0
  194.5420  171.4490  140.0440 O   0  0  0  0  0  0  0  0  0  0  0  0
  195.5870  171.6080  144.1420 O   0  0  0  0  0  0  0  0  0  0  0  0
  193.3740  172.4730  145.4060 C   0  0  0  0  0  2  0  0  0  0  0  0
  190.7800  171.8600  140.9350 O   0  0  0  0  0  1  0  0  0  0  0  0
  196.4700  173.7520  140.8710 C   0  0  0  0  0  2  0  0  0  0  0  0
  189.6600  176.9570  142.2230 O   0  0  0  0  0  0  0  0  0  0  0  0
  190.6600  174.1020  140.3410 O   0  0  0  0  0  0  0  0  0  0  0  0
  189.5140  171.4660  138.6990 O   0  0  0  0  0  0  0  0  0  0  0  0
  188.2680  173.3790  138.7440 O   0  0  0  0  0  1  0  0  0  0  0  0
  189.2100  172.5210  139.3050 C   0  0  0  0  0  0  0  0  0  0  0  0
  189.5100  175.0510  144.8670 C   0  0  0  0  0  2  0  0  0  0  0  0
  188.4770  175.9210  145.5990 C   0  0  1  0  0  3  0  0  0  0  0  0
  189.6210  178.5350  148.0270 N   0  0  0  0  0  0  0  0  0  0  0  0
  188.6480  178.1530  147.0150 C   0  0  1  0  0  3  0  0  0  0  0  0
  189.0790  176.7560  146.6950 C   0  0  0  0  0  0  0  0  0  0  0  0
  190.4340  177.5390  148.1770 C   0  0  0  0  0  0  0  0  0  0  0  0
  191.5750  177.5700  149.1260 C   0  0  0  0  0  1  0  0  0  0  0  0
  190.1450  176.4210  147.3480 N   0  0  0  0  0  0  0  0  0  0  0  0
  187.2490  178.1750  147.6180 C   0  0  0  0  0  2  0  0  0  0  0  0
  187.2370  178.9760  148.7480 F   0  0  0  0  0  0  0  0  0  0  0  0
  187.8230  176.8030  144.6450 N   0  0  0  0  0  2  0  0  0  0  0  0
  186.4220  176.4040  144.5540 C   0  0  0  0  0  2  0  0  0  0  0  0
  185.8740  176.7370  143.1730 C   0  0  0  0  0  2  0  0  0  0  0  0
  186.6210  178.6760  142.0060 O   0  0  0  0  0  0  0  0  0  0  0  0
  185.8990  178.2140  142.9310 C   0  0  0  0  0  0  0  0  0  0  0  0
  185.0730  179.1260  143.7350 C   0  0  0  0  0  0  0  0  0  0  0  0
  183.7360  178.8280  143.9640 O   0  0  0  0  0  0  0  0  0  0  0  0
  185.5670  180.1790  144.2180 O   0  0  0  0  0  1  0  0  0  0  0  0
  1 29  2  0  0  0  0
  2 26  1  6  0  0  0
  2 10  1  0  0  0  0
  3  7  1  0  0  0  0
  4  7  1  1  0  0  0
  4  6  1  0  0  0  0
  4  9  1  0  0  0  0
  5 21  1  0  0  0  0
  5 34  1  0  0  0  0
  6 34  1  6  0  0  0
  9 14  1  0  0  0  0
 10 32  1  6  0  0  0
 11  7  2  0  0  0  0
 13 20  1  0  0  0  0
 14 12  2  6  0  0  0
 14 31  1  0  0  0  0
 14 17  1  0  0  0  0
 15 33  1  1  0  0  0
 15 18  1  0  0  0  0
 16 20  1  0  0  0  0
 16 23  1  1  0  0  0
 16 27  1  0  0  0  0
 18 22  1  0  0  0  0
 19 30  1  6  0  0  0
 19  6  1  0  0  0  0
 21  1  2  0  0  0  0
 21 19  1  0  0  0  0
 22 24  1  0  0  0  0
 23 32  1  0  0  0  0
 24 40  1  1  0  0  0
 25 24  1  0  0  0  0
 26 27  1  0  0  0  0
 27 10  1  0  0  0  0
 27  8  1  1  0  0  0
 28 25  1  0  0  0  0
 28 13  1  0  0  0  0
 29 28  1  0  0  0  0
 30  3  1  0  0  0  0
 31  2  1  0  0  0  0
 35 25  2  0  0  0  0
 36 15  1  0  0  0  0
 36 29  1  0  0  0  0
 37 39  2  0  0  0  0
 38 39  1  0  0  0  0
 39 15  1  0  0  0  0
 41 40  1  6  0  0  0
 41 44  1  0  0  0  0
 42 45  2  0  0  0  0
 43 48  1  1  0  0  0
 43 42  1  0  0  0  0
 44 43  1  0  0  0  0
 44 47  2  0  0  0  0
 45 46  1  0  0  0  0
 47 45  1  0  0  0  0
 48 49  1  0  0  0  0
 50 41  1  0  0  0  0
 51 50  1  0  0  0  0
 52 51  1  0  0  0  0
 53 54  2  0  0  0  0
 54 52  1  0  0  0  0
 54 55  1  0  0  0  0
 55 56  2  0  0  0  0
 55 57  1  0  0  0  0
M  END
>  <MODEL>
6

>  <REMARK>
 VINA RESULT:      -6.4      3.420      6.579
  Name = 
  10 active torsions:
  status: ('A' for Active; 'I' for Inactive)
    1  A    between atoms: C_1  and  C_49
    2  A    between atoms: C_1  and  C_51
    3  A    between atoms: C_5  and  C_51
    4  A    between atoms: N_10  and  C_24
    5  A    between atoms: N_10  and  C_49
    6  A    between atoms: C_22  and  C_30
    7  A    between atoms: C_23  and  C_39
    8  A    between atoms: C_24  and  C_27
    9  A    between atoms: C_24  and  C_33
   10  A    between atoms: C_33  and  C_40
                            x       y       z     vdW  Elec       q    Type
                         _______ _______ _______ _____ _____    ______ ____

>  <TORSDO>
F 10

$$$$
=
 OpenBabel11062423053D

 57 63  0  0  1  0  0  0  0  0999 V2000
  191.7070  169.7260  141.5960 C   0  0  0  0  0  0  0  0  0  0  0  0
  192.2300  172.8560  137.3110 C   0  0  2  0  0  3  0  0  0  0  0  0
  194.9480  168.6460  138.8480 C   0  0  0  0  0  2  0  0  0  0  0  0
  193.1420  168.9590  137.0510 C   0  0  2  0  0  3  0  0  0  0  0  0
  190.5800  168.7930  139.6640 C   0  0  0  0  0  2  0  0  0  0  0  0
  192.3270  169.4790  138.1680 N   0  0  2  0  0  0  0  0  0  0  0  0
  194.5480  168.5560  137.4190 C   0  0  0  0  0  0  0  0  0  0  0  0
  189.6770  174.1580  138.5830 O   0  0  0  0  0  1  0  0  0  0  0  0
  193.0440  169.7720  135.8940 O   0  0  0  0  0  0  0  0  0  0  0  0
  192.0700  173.9630  138.3650 C   0  0  1  0  0  3  0  0  0  0  0  0
  195.3350  168.1730  136.5700 O   0  0  0  0  0  0  0  0  0  0  0  0
  195.4810  171.0980  136.1820 O   0  0  0  0  0  1  0  0  0  0  0  0
  189.5390  171.5570  142.0960 C   0  0  0  0  0  2  0  0  0  0  0  0
  193.8000  171.2920  136.1380 P   0  0  1  0  0  0  0  0  0  0  0  0
  193.6610  170.1210  144.1580 C   0  0  2  0  0  0  0  0  0  0  0  0
  190.9420  172.8350  140.2420 C   0  0  2  0  0  3  0  0  0  0  0  0
  193.4700  172.1890  134.9610 O   0  0  0  0  0  0  0  0  0  0  0  0
  193.7080  171.4560  144.8990 C   0  0  0  0  0  2  0  0  0  0  0  0
  192.9320  169.3970  139.5180 C   0  0  1  0  0  3  0  0  0  0  0  0
  189.5170  173.2010  141.3170 S   0  0  0  0  0  0  0  0  0  0  0  0
  191.7930  169.1480  140.4290 C   0  0  0  0  0  0  0  0  0  0  0  0
  193.1950  172.6060  144.0470 C   0  0  0  0  0  2  0  0  0  0  0  0
  192.1810  173.5240  140.7620 C   0  0  0  0  0  2  0  0  0  0  0  0
  191.8370  173.0890  144.5400 C   0  0  2  0  0  3  0  0  0  0  0  0
  190.7270  172.1270  144.2070 C   0  0  0  0  0  0  0  0  0  0  0  0
  190.9160  172.2390  137.7680 C   0  0  0  0  0  2  0  0  0  0  0  0
  190.7740  173.3270  138.8110 C   0  0  1  0  0  0  0  0  0  0  0  0
  190.7020  171.4050  142.9700 N   0  0  0  0  0  0  0  0  0  0  0  0
  191.6020  170.3010  142.7690 C   0  0  0  0  0  0  0  0  0  0  0  0
  193.8350  168.3220  139.6330 O   0  0  0  0  0  0  0  0  0  0  0  0
  193.2990  171.9990  137.6070 O   0  0  0  0  0  0  0  0  0  0  0  0
  193.0280  173.8450  139.5470 C   0  0  0  0  0  2  0  0  0  0  0  0
  194.4240  170.1970  142.9870 O   0  0  0  0  0  1  0  0  0  0  0  0
  191.0790  168.7200  138.2330 C   0  0  0  0  0  2  0  0  0  0  0  0
  189.7830  171.9830  145.0270 O   0  0  0  0  0  0  0  0  0  0  0  0
  192.3110  169.7670  143.8500 O   0  0  0  0  0  0  0  0  0  0  0  0
  195.4920  168.9580  145.1610 O   0  0  0  0  0  0  0  0  0  0  0  0
  193.4210  168.1670  145.7090 O   0  0  0  0  0  1  0  0  0  0  0  0
  194.2480  169.0760  145.0540 C   0  0  0  0  0  0  0  0  0  0  0  0
  191.5930  174.4760  143.9520 C   0  0  0  0  0  2  0  0  0  0  0  0
  192.3320  175.6150  144.6700 C   0  0  1  0  0  3  0  0  0  0  0  0
  195.8630  176.5770  143.8640 N   0  0  0  0  0  0  0  0  0  0  0  0
  194.8830  176.2890  144.9020 C   0  0  1  0  0  3  0  0  0  0  0  0
  193.6890  175.8980  144.0880 C   0  0  0  0  0  0  0  0  0  0  0  0
  195.2760  176.4080  142.7220 C   0  0  0  0  0  0  0  0  0  0  0  0
  195.9670  176.6250  141.4260 C   0  0  0  0  0  1  0  0  0  0  0  0
  193.9150  176.0100  142.8190 N   0  0  0  0  0  0  0  0  0  0  0  0
  195.3720  175.1280  145.7570 C   0  0  0  0  0  2  0  0  0  0  0  0
  196.4520  174.5130  145.1420 F   0  0  0  0  0  0  0  0  0  0  0  0
  191.5330  176.8290  144.6060 N   0  0  0  0  0  2  0  0  0  0  0  0
  190.1710  176.4500  144.2430 C   0  0  0  0  0  2  0  0  0  0  0  0
  189.1860  177.0100  145.2610 C   0  0  0  0  0  2  0  0  0  0  0  0
  189.9860  177.8990  147.3220 O   0  0  0  0  0  0  0  0  0  0  0  0
  189.7170  176.8650  146.6530 C   0  0  0  0  0  0  0  0  0  0  0  0
  189.8980  175.5380  147.2580 C   0  0  0  0  0  0  0  0  0  0  0  0
  191.0300  175.2730  148.0190 O   0  0  0  0  0  1  0  0  0  0  0  0
  189.0370  174.6340  147.0900 O   0  0  0  0  0  0  0  0  0  0  0  0
  1 29  2  0  0  0  0
  2 31  1  0  0  0  0
  2 26  1  1  0  0  0
  2 10  1  0  0  0  0
  3 30  1  0  0  0  0
  4  9  1  6  0  0  0
  4  7  1  0  0  0  0
  4  6  1  0  0  0  0
  5 21  1  0  0  0  0
  6 34  1  1  0  0  0
  6 19  1  0  0  0  0
  7  3  1  0  0  0  0
  9 14  1  0  0  0  0
 10 27  1  0  0  0  0
 10 32  1  1  0  0  0
 11  7  2  0  0  0  0
 13 28  1  0  0  0  0
 14 17  2  6  0  0  0
 14 12  1  0  0  0  0
 14 31  1  0  0  0  0
 15 33  1  6  0  0  0
 15 18  1  0  0  0  0
 15 39  1  0  0  0  0
 16 23  1  1  0  0  0
 16 20  1  0  0  0  0
 19 30  1  6  0  0  0
 19 21  1  0  0  0  0
 20 13  1  0  0  0  0
 21  1  2  0  0  0  0
 22 24  1  0  0  0  0
 22 18  1  0  0  0  0
 24 40  1  6  0  0  0
 25 24  1  0  0  0  0
 25 35  2  0  0  0  0
 26 27  1  0  0  0  0
 27  8  1  6  0  0  0
 27 16  1  0  0  0  0
 28 25  1  0  0  0  0
 29 28  1  0  0  0  0
 29 36  1  0  0  0  0
 32 23  1  0  0  0  0
 34  5  1  0  0  0  0
 36 15  1  0  0  0  0
 39 37  2  0  0  0  0
 39 38  1  0  0  0  0
 41 40  1  6  0  0  0
 42 43  1  0  0  0  0
 43 48  1  1  0  0  0
 44 41  1  0  0  0  0
 44 43  1  0  0  0  0
 45 47  1  0  0  0  0
 45 42  2  0  0  0  0
 46 45  1  0  0  0  0
 47 44  2  0  0  0  0
 49 48  1  0  0  0  0
 50 41  1  0  0  0  0
 51 50  1  0  0  0  0
 51 52  1  0  0  0  0
 52 54  1  0  0  0  0
 54 55  1  0  0  0  0
 54 53  2  0  0  0  0
 55 56  1  0  0  0  0
 57 55  2  0  0  0  0
M  END
>  <MODEL>
7

>  <REMARK>
 VINA RESULT:      -6.3      2.030      3.504
  Name = 
  10 active torsions:
  status: ('A' for Active; 'I' for Inactive)
    1  A    between atoms: C_1  and  C_49
    2  A    between atoms: C_1  and  C_51
    3  A    between atoms: C_5  and  C_51
    4  A    between atoms: N_10  and  C_24
    5  A    between atoms: N_10  and  C_49
    6  A    between atoms: C_22  and  C_30
    7  A    between atoms: C_23  and  C_39
    8  A    between atoms: C_24  and  C_27
    9  A    between atoms: C_24  and  C_33
   10  A    between atoms: C_33  and  C_40
                            x       y       z     vdW  Elec       q    Type
                         _______ _______ _______ _____ _____    ______ ____

>  <TORSDO>
F 10

$$$$
=
 OpenBabel11062423053D

 57 63  0  0  1  0  0  0  0  0999 V2000
  195.6560  172.2570  141.2870 C   0  0  0  0  0  0  0  0  0  0  0  0
  192.2300  171.3860  137.2960 C   0  0  2  0  0  3  0  0  0  0  0  0
  196.8420  173.8750  137.3880 C   0  0  0  0  0  2  0  0  0  0  0  0
  196.1650  171.5490  136.5390 C   0  0  2  0  0  3  0  0  0  0  0  0
  196.2770  170.3100  139.9850 C   0  0  0  0  0  2  0  0  0  0  0  0
  195.6600  171.3540  137.9130 N   0  0  2  0  0  0  0  0  0  0  0  0
  196.7560  172.9090  136.2610 C   0  0  0  0  0  0  0  0  0  0  0  0
  190.7690  169.8040  139.5740 O   0  0  0  0  0  1  0  0  0  0  0  0
  195.2450  171.0950  135.5610 O   0  0  0  0  0  0  0  0  0  0  0  0
  191.2120  171.8370  138.3550 C   0  0  1  0  0  3  0  0  0  0  0  0
  197.1470  173.2090  135.1460 O   0  0  0  0  0  0  0  0  0  0  0  0
  194.2340  173.5910  134.8350 O   0  0  0  0  0  1  0  0  0  0  0  0
  193.6450  170.7750  142.7220 C   0  0  0  0  0  2  0  0  0  0  0  0
  193.8480  172.0890  135.5140 P   0  0  1  0  0  0  0  0  0  0  0  0
  195.7180  175.1340  142.7910 C   0  0  2  0  0  0  0  0  0  0  0  0
  192.3710  171.4440  140.4930 C   0  0  2  0  0  3  0  0  0  0  0  0
  192.8170  171.4300  134.6200 O   0  0  0  0  0  0  0  0  0  0  0  0
  194.4700  175.6720  143.4870 C   0  0  0  0  0  2  0  0  0  0  0  0
  195.9320  172.4480  138.8760 C   0  0  1  0  0  3  0  0  0  0  0  0
  191.9450  170.6630  142.0830 S   0  0  0  0  0  0  0  0  0  0  0  0
  196.1320  171.7680  140.1750 C   0  0  0  0  0  0  0  0  0  0  0  0
  193.1970  175.0180  142.9730 C   0  0  0  0  0  2  0  0  0  0  0  0
  191.8770  172.8710  140.4620 C   0  0  0  0  0  2  0  0  0  0  0  0
  192.6100  174.0710  144.0120 C   0  0  2  0  0  3  0  0  0  0  0  0
  193.4060  172.8000  144.1480 C   0  0  0  0  0  0  0  0  0  0  0  0
  192.7340  170.3080  138.2450 C   0  0  0  0  0  2  0  0  0  0  0  0
  191.7350  170.7680  139.2870 C   0  0  1  0  0  0  0  0  0  0  0  0
  194.0060  172.1620  143.0140 N   0  0  0  0  0  0  0  0  0  0  0  0
  195.1820  172.7310  142.4130 C   0  0  0  0  0  0  0  0  0  0  0  0
  197.1080  173.1550  138.5600 O   0  0  0  0  0  0  0  0  0  0  0  0
  193.2260  172.3490  137.0800 O   0  0  0  0  0  0  0  0  0  0  0  0
  191.5450  173.1710  139.0140 C   0  0  0  0  0  2  0  0  0  0  0  0
  195.6230  175.3430  141.4090 O   0  0  0  0  0  1  0  0  0  0  0  0
  196.2760  170.1540  138.4750 C   0  0  0  0  0  2  0  0  0  0  0  0
  193.5160  172.2720  145.2850 O   0  0  0  0  0  0  0  0  0  0  0  0
  195.8890  173.7430  143.0720 O   0  0  0  0  0  0  0  0  0  0  0  0
  197.9400  175.2740  143.6600 O   0  0  0  0  0  1  0  0  0  0  0  0
  196.8270  177.2620  143.5120 O   0  0  0  0  0  0  0  0  0  0  0  0
  196.9010  175.8860  143.3170 C   0  0  0  0  0  0  0  0  0  0  0  0
  191.1570  173.8020  143.6310 C   0  0  0  0  0  2  0  0  0  0  0  0
  190.1490  174.8120  144.2010 C   0  0  1  0  0  3  0  0  0  0  0  0
  188.1260  175.7180  141.1800 N   0  0  0  0  0  0  0  0  0  0  0  0
  188.9540  174.7180  141.8390 C   0  0  1  0  0  3  0  0  0  0  0  0
  189.2210  175.3720  143.1590 C   0  0  0  0  0  0  0  0  0  0  0  0
  188.0170  176.7240  141.9890 C   0  0  0  0  0  0  0  0  0  0  0  0
  187.2480  177.9470  141.6490 C   0  0  0  0  0  1  0  0  0  0  0  0
  188.7050  176.5570  143.2220 N   0  0  0  0  0  0  0  0  0  0  0  0
  188.1590  173.4310  142.0120 C   0  0  0  0  0  2  0  0  0  0  0  0
  188.8900  172.3580  141.5280 F   0  0  0  0  0  0  0  0  0  0  0  0
  189.3560  174.1720  145.2390 N   0  0  0  0  0  2  0  0  0  0  0  0
  189.7730  174.7230  146.5240 C   0  0  0  0  0  2  0  0  0  0  0  0
  188.5690  175.2970  147.2600 C   0  0  0  0  0  2  0  0  0  0  0  0
  189.2960  177.4630  146.5840 O   0  0  0  0  0  0  0  0  0  0  0  0
  188.3180  176.7130  146.8480 C   0  0  0  0  0  0  0  0  0  0  0  0
  186.9480  177.2310  146.7190 C   0  0  0  0  0  0  0  0  0  0  0  0
  186.5770  177.9280  145.5770 O   0  0  0  0  0  0  0  0  0  0  0  0
  186.1050  177.0500  147.6380 O   0  0  0  0  0  1  0  0  0  0  0  0
  1 29  2  0  0  0  0
  2 26  1  1  0  0  0
  2 10  1  0  0  0  0
  3 30  1  0  0  0  0
  4  9  1  6  0  0  0
  4  6  1  0  0  0  0
  5 21  1  0  0  0  0
  6 34  1  1  0  0  0
  6 19  1  0  0  0  0
  7  4  1  0  0  0  0
  7  3  1  0  0  0  0
 10 32  1  1  0  0  0
 10 27  1  0  0  0  0
 11  7  2  0  0  0  0
 12 14  1  0  0  0  0
 13 28  1  0  0  0  0
 14 17  2  6  0  0  0
 14  9  1  0  0  0  0
 14 31  1  0  0  0  0
 15 33  1  6  0  0  0
 15 36  1  0  0  0  0
 15 39  1  0  0  0  0
 15 18  1  0  0  0  0
 16 23  1  1  0  0  0
 16 20  1  0  0  0  0
 19 30  1  6  0  0  0
 19 21  1  0  0  0  0
 20 13  1  0  0  0  0
 21  1  2  0  0  0  0
 22 18  1  0  0  0  0
 22 24  1  0  0  0  0
 24 40  1  6  0  0  0
 24 25  1  0  0  0  0
 25 35  2  0  0  0  0
 26 27  1  0  0  0  0
 27  8  1  1  0  0  0
 27 16  1  0  0  0  0
 28 25  1  0  0  0  0
 29 28  1  0  0  0  0
 29 36  1  0  0  0  0
 31  2  1  0  0  0  0
 32 23  1  0  0  0  0
 34  5  1  0  0  0  0
 39 38  2  0  0  0  0
 39 37  1  0  0  0  0
 41 40  1  6  0  0  0
 41 50  1  0  0  0  0
 42 43  1  0  0  0  0
 42 45  2  0  0  0  0
 43 48  1  1  0  0  0
 43 44  1  0  0  0  0
 44 47  2  0  0  0  0
 44 41  1  0  0  0  0
 45 47  1  0  0  0  0
 46 45  1  0  0  0  0
 49 48  1  0  0  0  0
 50 51  1  0  0  0  0
 51 52  1  0  0  0  0
 53 54  2  0  0  0  0
 54 52  1  0  0  0  0
 55 54  1  0  0  0  0
 55 57  1  0  0  0  0
 56 55  2  0  0  0  0
M  END
>  <MODEL>
8

>  <REMARK>
 VINA RESULT:      -6.3      2.744      4.566
  Name = 
  10 active torsions:
  status: ('A' for Active; 'I' for Inactive)
    1  A    between atoms: C_1  and  C_49
    2  A    between atoms: C_1  and  C_51
    3  A    between atoms: C_5  and  C_51
    4  A    between atoms: N_10  and  C_24
    5  A    between atoms: N_10  and  C_49
    6  A    between atoms: C_22  and  C_30
    7  A    between atoms: C_23  and  C_39
    8  A    between atoms: C_24  and  C_27
    9  A    between atoms: C_24  and  C_33
   10  A    between atoms: C_33  and  C_40
                            x       y       z     vdW  Elec       q    Type
                         _______ _______ _______ _____ _____    ______ ____

>  <TORSDO>
F 10

$$$$
=
 OpenBabel11062423053D

 57 63  0  0  1  0  0  0  0  0999 V2000
  190.0220  174.7590  144.2520 C   0  0  0  0  0  0  0  0  0  0  0  0
  194.9800  173.2920  142.9480 C   0  0  2  0  0  3  0  0  0  0  0  0
  193.1010  177.8420  144.7490 C   0  0  0  0  0  2  0  0  0  0  0  0
  194.4030  175.9500  145.8950 C   0  0  2  0  0  3  0  0  0  0  0  0
  191.2850  174.0490  146.1950 C   0  0  0  0  0  2  0  0  0  0  0  0
  193.2990  175.0950  145.4130 N   0  0  2  0  0  0  0  0  0  0  0  0
  194.3050  177.4030  145.5020 C   0  0  0  0  0  0  0  0  0  0  0  0
  193.5070  170.5610  142.4990 O   0  0  0  0  0  1  0  0  0  0  0  0
  195.6730  175.3610  145.6720 O   0  0  0  0  0  0  0  0  0  0  0  0
  194.2580  172.7160  141.7200 C   0  0  1  0  0  3  0  0  0  0  0  0
  195.1890  178.1930  145.7880 O   0  0  0  0  0  0  0  0  0  0  0  0
  196.3720  176.8640  143.4290 O   0  0  0  0  0  0  0  0  0  0  0  0
  189.5050  172.0340  143.4730 C   0  0  0  0  0  2  0  0  0  0  0  0
  196.0450  175.3050  143.9990 P   0  0  1  0  0  0  0  0  0  0  0  0
  188.2360  176.5090  142.1820 C   0  0  2  0  0  0  0  0  0  0  0  0
  191.9260  172.4590  142.4720 C   0  0  2  0  0  3  0  0  0  0  0  0
  197.2970  174.4720  143.8100 O   0  0  0  0  0  1  0  0  0  0  0  0
  187.9180  175.9720  140.7870 C   0  0  0  0  0  2  0  0  0  0  0  0
  192.1740  175.7880  144.7440 C   0  0  1  0  0  3  0  0  0  0  0  0
  190.6670  171.1440  142.3910 S   0  0  0  0  0  0  0  0  0  0  0  0
  190.9740  175.0050  145.1120 C   0  0  0  0  0  0  0  0  0  0  0  0
  188.8910  174.8880  140.3510 C   0  0  0  0  0  2  0  0  0  0  0  0
  191.9380  173.2520  141.1870 C   0  0  0  0  0  2  0  0  0  0  0  0
  188.2220  173.5200  140.3520 C   0  0  2  0  0  3  0  0  0  0  0  0
  187.9940  172.9900  141.7430 C   0  0  0  0  0  0  0  0  0  0  0  0
  194.0600  172.4920  143.8590 C   0  0  0  0  0  2  0  0  0  0  0  0
  193.3460  171.9400  142.6420 C   0  0  1  0  0  0  0  0  0  0  0  0
  188.9440  173.2010  142.7940 N   0  0  0  0  0  0  0  0  0  0  0  0
  189.0600  174.5000  143.4020 C   0  0  0  0  0  0  0  0  0  0  0  0
  192.0040  177.1050  145.2130 O   0  0  0  0  0  0  0  0  0  0  0  0
  194.7430  174.6650  143.1010 O   0  0  0  0  0  0  0  0  0  0  0  0
  193.3670  173.7170  140.9910 C   0  0  0  0  0  2  0  0  0  0  0  0
  189.5380  177.0250  142.2100 O   0  0  0  0  0  1  0  0  0  0  0  0
  192.7210  174.3840  146.5520 C   0  0  0  0  0  2  0  0  0  0  0  0
  186.9560  172.3160  141.9730 O   0  0  0  0  0  0  0  0  0  0  0  0
  188.0890  175.4780  143.1610 O   0  0  0  0  0  0  0  0  0  0  0  0
  186.6780  178.2070  141.5520 O   0  0  0  0  0  0  0  0  0  0  0  0
  187.0830  178.0420  143.7940 O   0  0  0  0  0  1  0  0  0  0  0  0
  187.2690  177.6100  142.4840 C   0  0  0  0  0  0  0  0  0  0  0  0
  189.0800  172.5790  139.5100 C   0  0  0  0  0  2  0  0  0  0  0  0
  188.8590  172.6960  137.9950 C   0  0  1  0  0  3  0  0  0  0  0  0
  190.9600  174.8170  135.7310 N   0  0  0  0  0  0  0  0  0  0  0  0
  189.6730  174.1730  135.9530 C   0  0  1  0  0  3  0  0  0  0  0  0
  189.8610  173.5900  137.3190 C   0  0  0  0  0  0  0  0  0  0  0  0
  191.6960  174.5780  136.7690 C   0  0  0  0  0  0  0  0  0  0  0  0
  193.0910  175.0700  136.8930 C   0  0  0  0  0  1  0  0  0  0  0  0
  191.0570  173.7960  137.7690 N   0  0  0  0  0  0  0  0  0  0  0  0
  188.5700  175.2230  135.9480 C   0  0  0  0  0  2  0  0  0  0  0  0
  188.6460  175.9800  134.7900 F   0  0  0  0  0  0  0  0  0  0  0  0
  188.9300  171.3730  137.3920 N   0  0  0  0  0  2  0  0  0  0  0  0
  189.7240  170.5220  138.2710 C   0  0  0  0  0  2  0  0  0  0  0  0
  190.6960  169.6860  137.4490 C   0  0  0  0  0  2  0  0  0  0  0  0
  192.1970  170.8670  136.0240 O   0  0  0  0  0  0  0  0  0  0  0  0
  191.9610  170.4430  137.1870 C   0  0  0  0  0  0  0  0  0  0  0  0
  192.9120  170.7220  138.2720 C   0  0  0  0  0  0  0  0  0  0  0  0
  192.9570  169.8920  139.3850 O   0  0  0  0  0  1  0  0  0  0  0  0
  193.6880  171.7120  138.2050 O   0  0  0  0  0  0  0  0  0  0  0  0
  1 21  2  0  0  0  0
  2 31  1  0  0  0  0
  2 26  1  1  0  0  0
  3 30  1  0  0  0  0
  3  7  1  0  0  0  0
  4  7  1  6  0  0  0
  5 34  1  0  0  0  0
  6  4  1  0  0  0  0
  6 34  1  1  0  0  0
  7 11  2  0  0  0  0
  9  4  1  0  0  0  0
 10 32  1  1  0  0  0
 10 27  1  0  0  0  0
 10  2  1  0  0  0  0
 14 12  2  6  0  0  0
 14  9  1  0  0  0  0
 15 33  1  1  0  0  0
 15 39  1  0  0  0  0
 15 36  1  0  0  0  0
 16 23  1  6  0  0  0
 16 27  1  0  0  0  0
 17 14  1  0  0  0  0
 18 15  1  0  0  0  0
 19 21  1  1  0  0  0
 19 30  1  0  0  0  0
 19  6  1  0  0  0  0
 20 16  1  0  0  0  0
 20 13  1  0  0  0  0
 21  5  1  0  0  0  0
 22 24  1  0  0  0  0
 22 18  1  0  0  0  0
 24 40  1  6  0  0  0
 24 25  1  0  0  0  0
 25 35  2  0  0  0  0
 25 28  1  0  0  0  0
 27  8  1  6  0  0  0
 27 26  1  0  0  0  0
 28 29  1  0  0  0  0
 28 13  1  0  0  0  0
 29  1  2  0  0  0  0
 31 14  1  0  0  0  0
 32 23  1  0  0  0  0
 36 29  1  0  0  0  0
 37 39  2  0  0  0  0
 39 38  1  0  0  0  0
 41 40  1  1  0  0  0
 42 43  1  0  0  0  0
 42 45  2  0  0  0  0
 43 48  1  1  0  0  0
 43 44  1  0  0  0  0
 44 47  2  0  0  0  0
 44 41  1  0  0  0  0
 45 46  1  0  0  0  0
 45 47  1  0  0  0  0
 49 48  1  0  0  0  0
 50 41  1  0  0  0  0
 50 51  1  0  0  0  0
 52 51  1  0  0  0  0
 53 54  2  0  0  0  0
 54 52  1  0  0  0  0
 54 55  1  0  0  0  0
 55 56  1  0  0  0  0
 57 55  2  0  0  0  0
M  END
>  <MODEL>
9

>  <REMARK>
 VINA RESULT:      -6.3      3.111      8.344
  Name = 
  10 active torsions:
  status: ('A' for Active; 'I' for Inactive)
    1  A    between atoms: C_1  and  C_49
    2  A    between atoms: C_1  and  C_51
    3  A    between atoms: C_5  and  C_51
    4  A    between atoms: N_10  and  C_24
    5  A    between atoms: N_10  and  C_49
    6  A    between atoms: C_22  and  C_30
    7  A    between atoms: C_23  and  C_39
    8  A    between atoms: C_24  and  C_27
    9  A    between atoms: C_24  and  C_33
   10  A    between atoms: C_33  and  C_40
                            x       y       z     vdW  Elec       q    Type
                         _______ _______ _______ _____ _____    ______ ____

>  <TORSDO>
F 10

$$$$
