=
 OpenBabel11062418393D

 55 57  0  0  1  0  0  0  0  0999 V2000
  194.5980  172.3450  142.6790 C   0  0  0  0  0  0  0  0  0  0  0  0
  189.5510  174.7660  143.7260 C   0  0  2  0  0  3  0  0  0  0  0  0
  189.2370  170.8290  137.4040 F   0  0  0  0  0  0  0  0  0  0  0  0
  193.0880  170.6080  140.0410 O   0  0  0  0  0  0  0  0  0  0  0  0
  188.6460  172.7770  139.3780 C   0  0  0  0  0  2  0  0  0  0  0  0
  191.4860  169.8750  138.4020 C   0  0  0  0  0  2  0  0  0  0  0  0
  191.3910  174.0270  145.3690 C   0  0  0  0  0  2  0  0  0  0  0  0
  189.5610  173.5410  141.5650 N   0  0  0  0  0  0  0  0  0  0  0  0
  191.5190  171.0510  137.6300 O   0  0  0  0  0  0  0  0  0  0  0  0
  188.4290  172.9270  140.8840 C   0  0  0  0  0  2  0  0  0  0  0  0
  189.5870  173.4130  143.0140 C   0  0  0  0  0  2  0  0  0  0  0  0
  191.0440  173.3650  139.4890 C   0  0  0  0  0  2  0  0  0  0  0  0
  193.3880  173.0810  143.1720 C   0  0  0  0  0  2  0  0  0  0  0  0
  192.8460  169.6390  139.0330 C   0  0  0  0  0  2  0  0  0  0  0  0
  190.2460  172.7450  136.8260 F   0  0  0  0  0  0  0  0  0  0  0  0
  190.0560  172.2580  139.1490 C   0  0  2  0  0  3  0  0  0  0  0  0
  194.3580  170.8210  140.5820 C   0  0  0  0  0  0  0  0  0  0  0  0
  189.9760  174.5980  145.1970 C   0  0  1  0  0  3  0  0  0  0  0  0
  192.4420  174.8510  144.6380 C   0  0  0  0  0  2  0  0  0  0  0  0
  190.7660  173.9000  140.8630 C   0  0  0  0  0  0  0  0  0  0  0  0
  193.6720  174.0130  144.3450 C   0  0  0  0  0  2  0  0  0  0  0  0
  194.4790  171.5760  141.6330 C   0  0  0  0  0  0  0  0  0  0  0  0
  190.2690  171.7020  137.7330 C   0  0  0  0  0  0  0  0  0  0  0  0
  191.5950  174.6860  141.3900 O   0  0  0  0  0  0  0  0  0  0  0  0
  195.9370  172.4870  143.3460 C   0  0  0  0  0  2  0  0  0  0  0  0
  196.8240  173.0300  146.1190 C   0  0  0  0  0  1  0  0  0  0  0  0
  196.2460  171.3700  144.2930 C   0  0  0  0  0  0  0  0  0  0  0  0
  196.2990  168.9850  144.7690 C   0  0  0  0  0  3  0  0  0  0  0  0
  196.6370  171.6290  145.6190 C   0  0  0  0  0  0  0  0  0  0  0  0
  196.6970  169.2370  146.0790 C   0  0  0  0  0  0  0  0  0  0  0  0
  196.8570  170.5640  146.5010 C   0  0  0  0  0  3  0  0  0  0  0  0
  196.0680  170.0440  143.8840 C   0  0  0  0  0  3  0  0  0  0  0  0
  197.0080  168.3100  148.3530 C   0  0  0  0  0  1  0  0  0  0  0  0
  196.9270  168.1660  146.9420 O   0  0  0  0  0  0  0  0  0  0  0  0
  195.5920  170.2320  139.9660 C   0  0  0  0  0  2  0  0  0  0  0  0
  196.8050  171.1070  140.2440 C   0  0  0  0  0  2  0  0  0  0  0  0
  197.1220  171.8800  139.1240 O   0  0  0  0  0  0  0  0  0  0  0  0
  197.2450  173.1780  139.6250 C   0  0  0  0  0  2  0  0  0  0  0  0
  197.6230  174.1230  138.4980 C   0  0  0  0  0  2  0  0  0  0  0  0
  195.6040  175.2830  139.3310 C   0  0  0  0  0  1  0  0  0  0  0  0
  196.4080  174.9320  138.0930 C   0  0  0  0  0  2  0  0  0  0  0  0
  188.2450  175.4280  143.5860 N   0  0  0  0  0  2  0  0  0  0  0  0
  188.3810  176.7540  142.9830 C   0  0  0  0  0  2  0  0  0  0  0  0
  185.9020  176.6380  143.1110 C   0  0  0  0  0  1  0  0  0  0  0  0
  187.1100  177.5600  143.1770 C   0  0  2  0  0  3  0  0  0  0  0  0
  187.0090  178.5410  142.1850 O   0  0  0  0  0  1  0  0  0  0  0  0
  189.6220  175.7770  146.1160 C   0  0  2  0  0  3  0  0  0  0  0  0
  190.6390  177.4480  147.5430 O   0  0  0  0  0  1  0  0  0  0  0  0
  190.6530  176.0920  147.2080 C   0  0  0  0  0  2  0  0  0  0  0  0
  188.1960  175.6870  146.6600 C   0  0  0  0  0  2  0  0  0  0  0  0
  187.5740  176.9440  146.5830 O   0  0  0  0  0  0  0  0  0  0  0  0
  186.4560  176.8500  147.4030 C   0  0  0  0  0  2  0  0  0  0  0  0
  185.2040  177.0030  146.5570 C   0  0  0  0  0  2  0  0  0  0  0  0
  184.0700  178.8900  145.4270 C   0  0  0  0  0  1  0  0  0  0  0  0
  184.6070  178.3880  146.7530 C   0  0  0  0  0  2  0  0  0  0  0  0
  1 13  1  0  0  0  0
  1 25  1  0  0  0  0
  2 42  1  1  0  0  0
  2 18  1  0  0  0  0
  3 23  1  0  0  0  0
  4 17  1  0  0  0  0
  5 10  1  0  0  0  0
  6 14  1  0  0  0  0
  8 11  1  0  0  0  0
  9 23  1  0  0  0  0
  9  6  1  0  0  0  0
 10  8  1  0  0  0  0
 11  2  1  0  0  0  0
 12 20  1  0  0  0  0
 13 21  1  0  0  0  0
 14  4  1  0  0  0  0
 15 23  1  0  0  0  0
 16  5  1  6  0  0  0
 16 12  1  0  0  0  0
 17 22  2  0  0  0  0
 18  7  1  0  0  0  0
 18 47  1  6  0  0  0
 19  7  1  0  0  0  0
 20 24  2  0  0  0  0
 20  8  1  0  0  0  0
 21 19  1  0  0  0  0
 22  1  2  0  0  0  0
 23 16  1  0  0  0  0
 25 27  1  0  0  0  0
 27 29  1  0  0  0  0
 28 30  2  0  0  0  0
 29 26  1  0  0  0  0
 29 31  2  0  0  0  0
 30 31  1  0  0  0  0
 30 34  1  0  0  0  0
 32 27  2  0  0  0  0
 32 28  1  0  0  0  0
 34 33  1  0  0  0  0
 35 36  1  0  0  0  0
 35 17  1  0  0  0  0
 37 38  1  0  0  0  0
 37 36  1  0  0  0  0
 39 38  1  0  0  0  0
 41 39  1  0  0  0  0
 41 40  1  0  0  0  0
 43 45  1  0  0  0  0
 43 42  1  0  0  0  0
 45 44  1  6  0  0  0
 46 45  1  0  0  0  0
 47 50  1  1  0  0  0
 47 49  1  0  0  0  0
 49 48  1  0  0  0  0
 51 50  1  0  0  0  0
 51 52  1  0  0  0  0
 53 55  1  0  0  0  0
 53 52  1  0  0  0  0
 54 55  1  0  0  0  0
M  END
>  <MODEL>
1

>  <REMARK>
 VINA RESULT:      -6.1      0.000      0.000
  Name = 
  19 active torsions:
  status: ('A' for Active; 'I' for Inactive)
    1  A    between atoms: C_3  and  C_45
    2  A    between atoms: C_5  and  C_45
    3  A    between atoms: C_7  and  N_33
    4  A    between atoms: C_11  and  C_12
    5  A    between atoms: C_11  and  C_14
    6  A    between atoms: C_12  and  O_40
    7  A    between atoms: C_23  and  C_37
    8  A    between atoms: C_23  and  O_40
    9  A    between atoms: C_27  and  C_31
   10  A    between atoms: C_27  and  O_36
   11  A    between atoms: C_28  and  C_43
   12  A    between atoms: C_28  and  C_44
   13  A    between atoms: C_28  and  C_47
   14  A    between atoms: C_29  and  C_31
   15  A    between atoms: C_30  and  N_33
   16  A    between atoms: C_30  and  C_42
   17  A    between atoms: C_32  and  O_46
   18  A    between atoms: O_36  and  C_44
   19  A    between atoms: C_37  and  C_41
                            x       y       z     vdW  Elec       q    Type
                         _______ _______ _______ _____ _____    ______ ____

>  <TORSDO>
F 19

$$$$
=
 OpenBabel11062418393D

 55 57  0  0  1  0  0  0  0  0999 V2000
  189.2020  174.1400  142.3700 C   0  0  0  0  0  0  0  0  0  0  0  0
  193.9790  172.7020  139.6230 C   0  0  2  0  0  3  0  0  0  0  0  0
  195.6300  175.4860  146.3370 F   0  0  0  0  0  0  0  0  0  0  0  0
  191.1550  174.7450  145.2110 O   0  0  0  0  0  0  0  0  0  0  0  0
  195.8820  174.7300  143.6160 C   0  0  0  0  0  2  0  0  0  0  0  0
  193.0480  175.0540  146.6660 C   0  0  0  0  0  2  0  0  0  0  0  0
  191.6050  171.7270  139.4110 C   0  0  0  0  0  2  0  0  0  0  0  0
  194.4550  173.7580  141.8190 N   0  0  0  0  0  0  0  0  0  0  0  0
  193.4750  176.2650  146.0940 O   0  0  0  0  0  0  0  0  0  0  0  0
  195.6200  173.5560  142.6710 C   0  0  0  0  0  2  0  0  0  0  0  0
  193.9380  172.5770  141.1460 C   0  0  0  0  0  2  0  0  0  0  0  0
  193.7220  175.8280  143.1300 C   0  0  0  0  0  2  0  0  0  0  0  0
  190.2970  173.6870  141.4500 C   0  0  0  0  0  2  0  0  0  0  0  0
  191.5370  174.9440  146.5630 C   0  0  0  0  0  2  0  0  0  0  0  0
  195.2180  177.2860  145.0660 F   0  0  0  0  0  0  0  0  0  0  0  0
  194.5540  175.1630  144.2160 C   0  0  2  0  0  3  0  0  0  0  0  0
  189.8380  174.9010  144.7770 C   0  0  0  0  0  0  0  0  0  0  0  0
  193.0760  171.6300  138.9830 C   0  0  1  0  0  3  0  0  0  0  0  0
  191.0110  173.1020  139.1420 C   0  0  0  0  0  2  0  0  0  0  0  0
  193.6270  174.9320  141.9310 C   0  0  0  0  0  0  0  0  0  0  0  0
  189.8160  173.3560  140.0410 C   0  0  0  0  0  2  0  0  0  0  0  0
  189.5170  174.5150  143.5780 C   0  0  0  0  0  0  0  0  0  0  0  0
  194.7180  176.0570  145.4540 C   0  0  0  0  0  0  0  0  0  0  0  0
  192.8240  175.2290  141.0090 O   0  0  0  0  0  0  0  0  0  0  0  0
  187.7660  174.1870  141.9290 C   0  0  0  0  0  2  0  0  0  0  0  0
  187.6710  176.3820  139.9440 C   0  0  0  0  0  1  0  0  0  0  0  0
  187.0940  175.4860  142.2440 C   0  0  0  0  0  0  0  0  0  0  0  0
  185.7740  176.8430  143.7720 C   0  0  0  0  0  3  0  0  0  0  0  0
  187.0230  176.5170  141.2900 C   0  0  0  0  0  0  0  0  0  0  0  0
  185.7110  177.8700  142.8340 C   0  0  0  0  0  0  0  0  0  0  0  0
  186.3310  177.6970  141.5890 C   0  0  0  0  0  3  0  0  0  0  0  0
  186.4550  175.6570  143.4770 C   0  0  0  0  0  3  0  0  0  0  0  0
  183.6230  179.1040  143.3260 C   0  0  0  0  0  1  0  0  0  0  0  0
  185.0320  179.0460  143.1510 O   0  0  0  0  0  0  0  0  0  0  0  0
  188.7870  175.5340  145.6400 C   0  0  0  0  0  2  0  0  0  0  0  0
  188.9550  177.0450  145.6750 C   0  0  0  0  0  2  0  0  0  0  0  0
  187.9430  177.6360  146.4350 O   0  0  0  0  0  0  0  0  0  0  0  0
  187.3470  176.5660  147.1070 C   0  0  0  0  0  2  0  0  0  0  0  0
  185.9870  176.9900  147.6330 C   0  0  0  0  0  2  0  0  0  0  0  0
  184.3300  178.5760  146.7080 C   0  0  0  0  0  1  0  0  0  0  0  0
  185.7350  178.4370  147.2630 C   0  0  0  0  0  2  0  0  0  0  0  0
  195.3550  172.6670  139.1030 N   0  0  0  0  0  2  0  0  0  0  0  0
  195.8740  174.0160  138.8770 C   0  0  0  0  0  2  0  0  0  0  0  0
  196.5000  174.9540  136.6640 C   0  0  0  0  0  1  0  0  0  0  0  0
  196.9190  174.0070  137.7780 C   0  0  2  0  0  3  0  0  0  0  0  0
  197.0640  172.7130  137.2670 O   0  0  0  0  0  1  0  0  0  0  0  0
  193.3140  171.3870  137.4840 C   0  0  2  0  0  3  0  0  0  0  0  0
  194.2030  172.5690  135.5680 O   0  0  0  0  0  1  0  0  0  0  0  0
  193.2650  172.6390  136.5990 C   0  0  0  0  0  2  0  0  0  0  0  0
  192.4620  170.2430  136.9340 C   0  0  0  0  0  2  0  0  0  0  0  0
  191.6070  170.7230  135.9290 O   0  0  0  0  0  0  0  0  0  0  0  0
  190.3230  170.4030  136.3550 C   0  0  0  0  0  2  0  0  0  0  0  0
  189.3310  171.3410  135.6920 C   0  0  0  0  0  2  0  0  0  0  0  0
  189.7610  173.7780  135.7470 C   0  0  0  0  0  1  0  0  0  0  0  0
  190.0680  172.4860  135.0140 C   0  0  0  0  0  2  0  0  0  0  0  0
  1 22  2  0  0  0  0
  2 42  1  6  0  0  0
  2 11  1  0  0  0  0
  4 14  1  0  0  0  0
  5 16  1  0  0  0  0
  8 20  1  0  0  0  0
  8 10  1  0  0  0  0
  9  6  1  0  0  0  0
 10  5  1  0  0  0  0
 11  8  1  0  0  0  0
 13  1  1  0  0  0  0
 14  6  1  0  0  0  0
 15 23  1  0  0  0  0
 16 12  1  6  0  0  0
 16 23  1  0  0  0  0
 17  4  1  0  0  0  0
 17 35  1  0  0  0  0
 18 47  1  6  0  0  0
 18  7  1  0  0  0  0
 18  2  1  0  0  0  0
 19  7  1  0  0  0  0
 19 21  1  0  0  0  0
 20 12  1  0  0  0  0
 21 13  1  0  0  0  0
 22 17  2  0  0  0  0
 23  9  1  0  0  0  0
 23  3  1  0  0  0  0
 24 20  2  0  0  0  0
 25 27  1  0  0  0  0
 25  1  1  0  0  0  0
 26 29  1  0  0  0  0
 27 32  1  0  0  0  0
 29 31  1  0  0  0  0
 29 27  2  0  0  0  0
 30 34  1  0  0  0  0
 30 28  1  0  0  0  0
 31 30  2  0  0  0  0
 32 28  2  0  0  0  0
 34 33  1  0  0  0  0
 35 36  1  0  0  0  0
 36 37  1  0  0  0  0
 37 38  1  0  0  0  0
 38 39  1  0  0  0  0
 40 41  1  0  0  0  0
 41 39  1  0  0  0  0
 43 42  1  0  0  0  0
 45 44  1  6  0  0  0
 45 43  1  0  0  0  0
 46 45  1  0  0  0  0
 47 49  1  6  0  0  0
 48 49  1  0  0  0  0
 50 47  1  0  0  0  0
 51 52  1  0  0  0  0
 51 50  1  0  0  0  0
 53 52  1  0  0  0  0
 55 53  1  0  0  0  0
 55 54  1  0  0  0  0
M  END
>  <MODEL>
2

>  <REMARK>
 VINA RESULT:      -6.0      3.601     10.680
  Name = 
  19 active torsions:
  status: ('A' for Active; 'I' for Inactive)
    1  A    between atoms: C_3  and  C_45
    2  A    between atoms: C_5  and  C_45
    3  A    between atoms: C_7  and  N_33
    4  A    between atoms: C_11  and  C_12
    5  A    between atoms: C_11  and  C_14
    6  A    between atoms: C_12  and  O_40
    7  A    between atoms: C_23  and  C_37
    8  A    between atoms: C_23  and  O_40
    9  A    between atoms: C_27  and  C_31
   10  A    between atoms: C_27  and  O_36
   11  A    between atoms: C_28  and  C_43
   12  A    between atoms: C_28  and  C_44
   13  A    between atoms: C_28  and  C_47
   14  A    between atoms: C_29  and  C_31
   15  A    between atoms: C_30  and  N_33
   16  A    between atoms: C_30  and  C_42
   17  A    between atoms: C_32  and  O_46
   18  A    between atoms: O_36  and  C_44
   19  A    between atoms: C_37  and  C_41
                            x       y       z     vdW  Elec       q    Type
                         _______ _______ _______ _____ _____    ______ ____

>  <TORSDO>
F 19

$$$$
=
 OpenBabel11062418393D

 55 57  0  0  1  0  0  0  0  0999 V2000
  189.5490  174.0700  142.9290 C   0  0  0  0  0  0  0  0  0  0  0  0
  192.1220  172.1320  138.2320 C   0  0  2  0  0  3  0  0  0  0  0  0
  186.8240  177.0460  136.4030 F   0  0  0  0  0  0  0  0  0  0  0  0
  187.8580  176.3770  140.9110 O   0  0  0  0  0  0  0  0  0  0  0  0
  188.6560  174.8900  136.2170 C   0  0  0  0  0  2  0  0  0  0  0  0
  187.0160  177.5510  138.9860 C   0  0  0  0  0  2  0  0  0  0  0  0
  193.0370  172.3710  140.6270 C   0  0  0  0  0  2  0  0  0  0  0  0
  190.2550  173.6790  137.6950 N   0  0  0  0  0  0  0  0  0  0  0  0
  186.1660  176.5200  138.5480 O   0  0  0  0  0  0  0  0  0  0  0  0
  190.1100  174.5260  136.5180 C   0  0  0  0  0  2  0  0  0  0  0  0
  191.5970  173.5680  138.2460 C   0  0  0  0  0  2  0  0  0  0  0  0
  187.8090  174.0090  138.3660 C   0  0  0  0  0  2  0  0  0  0  0  0
  190.3730  173.4140  141.8600 C   0  0  0  0  0  2  0  0  0  0  0  0
  187.1210  177.5180  140.5000 C   0  0  0  0  0  2  0  0  0  0  0  0
  185.7120  175.1420  136.8060 F   0  0  0  0  0  0  0  0  0  0  0  0
  187.9790  175.2660  137.5250 C   0  0  2  0  0  3  0  0  0  0  0  0
  187.8660  175.9300  142.2340 C   0  0  0  0  0  0  0  0  0  0  0  0
  193.3410  172.0080  139.1660 C   0  0  1  0  0  3  0  0  0  0  0  0
  191.8860  171.5560  141.2010 C   0  0  0  0  0  2  0  0  0  0  0  0
  189.1220  173.2960  138.4990 C   0  0  0  0  0  0  0  0  0  0  0  0
  191.2510  172.2770  142.3740 C   0  0  0  0  0  2  0  0  0  0  0  0
  188.7100  175.0070  142.5840 C   0  0  0  0  0  0  0  0  0  0  0  0
  186.6530  176.0140  137.3210 C   0  0  0  0  0  0  0  0  0  0  0  0
  189.2190  172.3430  139.3140 O   0  0  0  0  0  0  0  0  0  0  0  0
  189.6560  173.6640  144.3720 C   0  0  0  0  0  2  0  0  0  0  0  0
  189.0290  174.4870  147.1460 C   0  0  0  0  0  1  0  0  0  0  0  0
  190.6000  174.5190  145.1580 C   0  0  0  0  0  0  0  0  0  0  0  0
  192.7450  175.6520  145.3320 C   0  0  0  0  0  3  0  0  0  0  0  0
  190.3150  174.8830  146.4860 C   0  0  0  0  0  0  0  0  0  0  0  0
  192.4620  176.0250  146.6440 C   0  0  0  0  0  0  0  0  0  0  0  0
  191.2460  175.6290  147.2190 C   0  0  0  0  0  3  0  0  0  0  0  0
  191.8230  174.8990  144.5960 C   0  0  0  0  0  3  0  0  0  0  0  0
  194.5160  177.4010  146.7480 C   0  0  0  0  0  1  0  0  0  0  0  0
  193.3920  176.7800  147.3560 O   0  0  0  0  0  0  0  0  0  0  0  0
  186.9040  176.4590  143.2560 C   0  0  0  0  0  2  0  0  0  0  0  0
  187.6270  176.8120  144.5470 C   0  0  0  0  0  2  0  0  0  0  0  0
  186.7590  176.7230  145.6380 O   0  0  0  0  0  0  0  0  0  0  0  0
  186.3310  178.0360  145.8450 C   0  0  0  0  0  2  0  0  0  0  0  0
  184.8170  178.0670  145.9500 C   0  0  0  0  0  2  0  0  0  0  0  0
  185.3670  179.7870  144.2610 C   0  0  0  0  0  1  0  0  0  0  0  0
  184.2550  178.9360  144.8440 C   0  0  0  0  0  2  0  0  0  0  0  0
  192.4040  171.6610  136.8670 N   0  0  0  0  0  2  0  0  0  0  0  0
  191.5850  170.4990  136.5230 C   0  0  0  0  0  2  0  0  0  0  0  0
  191.3400  171.9400  134.5140 C   0  0  0  0  0  1  0  0  0  0  0  0
  190.7290  170.7940  135.3060 C   0  0  2  0  0  3  0  0  0  0  0  0
  189.4320  171.1360  135.7050 O   0  0  0  0  0  1  0  0  0  0  0  0
  194.1940  170.7470  138.9610 C   0  0  2  0  0  3  0  0  0  0  0  0
  192.9290  168.7260  139.3800 O   0  0  0  0  0  1  0  0  0  0  0  0
  193.8900  169.5850  139.9160 C   0  0  0  0  0  2  0  0  0  0  0  0
  195.6870  171.0600  138.8700 C   0  0  0  0  0  2  0  0  0  0  0  0
  195.8770  172.3330  138.3100 O   0  0  0  0  0  0  0  0  0  0  0  0
  196.1620  172.1060  136.9690 C   0  0  0  0  0  2  0  0  0  0  0  0
  195.7960  173.3410  136.1660 C   0  0  0  0  0  2  0  0  0  0  0  0
  196.7790  175.5450  136.7140 C   0  0  0  0  0  1  0  0  0  0  0  0
  195.6960  174.5500  137.0840 C   0  0  0  0  0  2  0  0  0  0  0  0
  1 25  1  0  0  0  0
  2 42  1  6  0  0  0
  2 11  1  0  0  0  0
  2 18  1  0  0  0  0
  3 23  1  0  0  0  0
  4 17  1  0  0  0  0
  5 10  1  0  0  0  0
  6 14  1  0  0  0  0
  7 19  1  0  0  0  0
  8 11  1  0  0  0  0
  8 20  1  0  0  0  0
  9  6  1  0  0  0  0
 10  8  1  0  0  0  0
 12 20  1  0  0  0  0
 13 21  1  0  0  0  0
 13  1  1  0  0  0  0
 14  4  1  0  0  0  0
 15 23  1  0  0  0  0
 16  5  1  6  0  0  0
 16 12  1  0  0  0  0
 17 22  2  0  0  0  0
 17 35  1  0  0  0  0
 18 47  1  1  0  0  0
 18  7  1  0  0  0  0
 19 21  1  0  0  0  0
 20 24  2  0  0  0  0
 22  1  2  0  0  0  0
 23 16  1  0  0  0  0
 23  9  1  0  0  0  0
 25 27  1  0  0  0  0
 27 29  1  0  0  0  0
 28 30  2  0  0  0  0
 29 26  1  0  0  0  0
 29 31  2  0  0  0  0
 30 31  1  0  0  0  0
 30 34  1  0  0  0  0
 32 27  2  0  0  0  0
 32 28  1  0  0  0  0
 33 34  1  0  0  0  0
 35 36  1  0  0  0  0
 36 37  1  0  0  0  0
 37 38  1  0  0  0  0
 38 39  1  0  0  0  0
 40 41  1  0  0  0  0
 41 39  1  0  0  0  0
 43 42  1  0  0  0  0
 45 44  1  1  0  0  0
 45 46  1  0  0  0  0
 45 43  1  0  0  0  0
 47 50  1  1  0  0  0
 47 49  1  0  0  0  0
 48 49  1  0  0  0  0
 51 50  1  0  0  0  0
 52 51  1  0  0  0  0
 53 52  1  0  0  0  0
 53 55  1  0  0  0  0
 54 55  1  0  0  0  0
M  END
>  <MODEL>
3

>  <REMARK>
 VINA RESULT:      -6.0      3.414      9.307
  Name = 
  19 active torsions:
  status: ('A' for Active; 'I' for Inactive)
    1  A    between atoms: C_3  and  C_45
    2  A    between atoms: C_5  and  C_45
    3  A    between atoms: C_7  and  N_33
    4  A    between atoms: C_11  and  C_12
    5  A    between atoms: C_11  and  C_14
    6  A    between atoms: C_12  and  O_40
    7  A    between atoms: C_23  and  C_37
    8  A    between atoms: C_23  and  O_40
    9  A    between atoms: C_27  and  C_31
   10  A    between atoms: C_27  and  O_36
   11  A    between atoms: C_28  and  C_43
   12  A    between atoms: C_28  and  C_44
   13  A    between atoms: C_28  and  C_47
   14  A    between atoms: C_29  and  C_31
   15  A    between atoms: C_30  and  N_33
   16  A    between atoms: C_30  and  C_42
   17  A    between atoms: C_32  and  O_46
   18  A    between atoms: O_36  and  C_44
   19  A    between atoms: C_37  and  C_41
                            x       y       z     vdW  Elec       q    Type
                         _______ _______ _______ _____ _____    ______ ____

>  <TORSDO>
F 19

$$$$
=
 OpenBabel11062418393D

 55 57  0  0  1  0  0  0  0  0999 V2000
  189.6140  173.8510  142.7240 C   0  0  0  0  0  0  0  0  0  0  0  0
  192.1730  172.2130  137.9080 C   0  0  2  0  0  3  0  0  0  0  0  0
  186.7700  177.1200  136.3930 F   0  0  0  0  0  0  0  0  0  0  0  0
  187.8620  176.2310  140.8490 O   0  0  0  0  0  0  0  0  0  0  0  0
  188.6390  175.0110  136.0750 C   0  0  0  0  0  2  0  0  0  0  0  0
  186.9790  177.4900  138.9970 C   0  0  0  0  0  2  0  0  0  0  0  0
  193.1080  172.3410  140.3040 C   0  0  0  0  0  2  0  0  0  0  0  0
  190.2740  173.7520  137.4710 N   0  0  0  0  0  0  0  0  0  0  0  0
  186.1430  176.4680  138.5120 O   0  0  0  0  0  0  0  0  0  0  0  0
  190.1020  174.6580  136.3420 C   0  0  0  0  0  2  0  0  0  0  0  0
  191.6230  173.6370  138.0040 C   0  0  0  0  0  2  0  0  0  0  0  0
  187.8290  174.0020  138.1810 C   0  0  0  0  0  2  0  0  0  0  0  0
  190.4380  173.2680  141.6150 C   0  0  0  0  0  2  0  0  0  0  0  0
  187.1010  177.3790  140.5050 C   0  0  0  0  0  2  0  0  0  0  0  0
  185.6970  175.1770  136.7030 F   0  0  0  0  0  0  0  0  0  0  0  0
  187.9680  175.3050  137.4070 C   0  0  2  0  0  3  0  0  0  0  0  0
  187.8910  175.7140  142.1450 C   0  0  0  0  0  0  0  0  0  0  0  0
  193.4030  172.0630  138.8230 C   0  0  1  0  0  3  0  0  0  0  0  0
  191.9780  171.4760  140.8430 C   0  0  0  0  0  2  0  0  0  0  0  0
  189.1560  173.3070  138.2640 C   0  0  0  0  0  0  0  0  0  0  0  0
  191.3410  172.1220  142.0590 C   0  0  0  0  0  2  0  0  0  0  0  0
  188.7550  174.7890  142.4380 C   0  0  0  0  0  0  0  0  0  0  0  0
  186.6270  176.0380  137.2550 C   0  0  0  0  0  0  0  0  0  0  0  0
  189.2780  172.3130  139.0250 O   0  0  0  0  0  0  0  0  0  0  0  0
  189.7420  173.3710  144.1430 C   0  0  0  0  0  2  0  0  0  0  0  0
  189.1260  174.4690  146.8230 C   0  0  0  0  0  1  0  0  0  0  0  0
  190.7730  174.1180  144.9280 C   0  0  0  0  0  0  0  0  0  0  0  0
  193.0620  174.9090  145.1560 C   0  0  0  0  0  3  0  0  0  0  0  0
  190.4890  174.6120  146.2140 C   0  0  0  0  0  0  0  0  0  0  0  0
  192.7810  175.4110  146.4250 C   0  0  0  0  0  0  0  0  0  0  0  0
  191.4920  175.2510  146.9530 C   0  0  0  0  0  3  0  0  0  0  0  0
  192.0660  174.2620  144.4160 C   0  0  0  0  0  3  0  0  0  0  0  0
  194.4720  177.2020  146.6570 C   0  0  0  0  0  1  0  0  0  0  0  0
  193.7860  176.0570  147.1430 O   0  0  0  0  0  0  0  0  0  0  0  0
  186.9300  176.1700  143.2030 C   0  0  0  0  0  2  0  0  0  0  0  0
  187.6750  176.6770  144.4280 C   0  0  0  0  0  2  0  0  0  0  0  0
  188.5080  177.7470  144.0900 O   0  0  0  0  0  0  0  0  0  0  0  0
  189.4540  177.7840  145.1170 C   0  0  0  0  0  2  0  0  0  0  0  0
  190.8290  178.0530  144.5320 C   0  0  0  0  0  2  0  0  0  0  0  0
  191.9880  177.0690  142.5820 C   0  0  0  0  0  1  0  0  0  0  0  0
  190.7800  177.8690  143.0290 C   0  0  0  0  0  2  0  0  0  0  0  0
  192.4500  171.8220  136.5170 N   0  0  0  0  0  2  0  0  0  0  0  0
  191.4130  170.9300  135.9970 C   0  0  0  0  0  2  0  0  0  0  0  0
  191.6230  168.5150  136.5440 C   0  0  0  0  0  1  0  0  0  0  0  0
  191.0770  169.8560  137.0130 C   0  0  2  0  0  3  0  0  0  0  0  0
  189.6900  169.7680  137.1750 O   0  0  0  0  0  1  0  0  0  0  0  0
  194.2770  170.8300  138.5430 C   0  0  2  0  0  3  0  0  0  0  0  0
  193.8870  168.6160  139.4400 O   0  0  0  0  0  1  0  0  0  0  0  0
  194.4470  169.8630  139.7210 C   0  0  0  0  0  2  0  0  0  0  0  0
  195.6060  171.1930  137.8820 C   0  0  0  0  0  2  0  0  0  0  0  0
  196.6520  171.0730  138.8120 O   0  0  0  0  0  0  0  0  0  0  0  0
  197.7020  171.8130  138.2810 C   0  0  0  0  0  2  0  0  0  0  0  0
  197.5360  173.2690  138.6790 C   0  0  0  0  0  2  0  0  0  0  0  0
  196.3120  174.1530  140.6410 C   0  0  0  0  0  1  0  0  0  0  0  0
  197.5510  173.4000  140.1950 C   0  0  0  0  0  2  0  0  0  0  0  0
  1 25  1  0  0  0  0
  2 42  1  6  0  0  0
  2 11  1  0  0  0  0
  2 18  1  0  0  0  0
  3 23  1  0  0  0  0
  4 17  1  0  0  0  0
  5 10  1  0  0  0  0
  6 14  1  0  0  0  0
  7 19  1  0  0  0  0
  8 11  1  0  0  0  0
  8 20  1  0  0  0  0
  9  6  1  0  0  0  0
 10  8  1  0  0  0  0
 12 20  1  0  0  0  0
 13 21  1  0  0  0  0
 13  1  1  0  0  0  0
 14  4  1  0  0  0  0
 15 23  1  0  0  0  0
 16  5  1  6  0  0  0
 16 12  1  0  0  0  0
 17 22  2  0  0  0  0
 17 35  1  0  0  0  0
 18 47  1  1  0  0  0
 18  7  1  0  0  0  0
 19 21  1  0  0  0  0
 20 24  2  0  0  0  0
 22  1  2  0  0  0  0
 23 16  1  0  0  0  0
 23  9  1  0  0  0  0
 25 27  1  0  0  0  0
 27 29  1  0  0  0  0
 28 30  2  0  0  0  0
 29 26  1  0  0  0  0
 29 31  2  0  0  0  0
 30 31  1  0  0  0  0
 30 34  1  0  0  0  0
 32 27  2  0  0  0  0
 32 28  1  0  0  0  0
 33 34  1  0  0  0  0
 35 36  1  0  0  0  0
 37 36  1  0  0  0  0
 37 38  1  0  0  0  0
 39 38  1  0  0  0  0
 40 41  1  0  0  0  0
 41 39  1  0  0  0  0
 43 42  1  0  0  0  0
 43 45  1  0  0  0  0
 45 44  1  6  0  0  0
 45 46  1  0  0  0  0
 47 50  1  1  0  0  0
 47 49  1  0  0  0  0
 48 49  1  0  0  0  0
 50 51  1  0  0  0  0
 52 53  1  0  0  0  0
 52 51  1  0  0  0  0
 53 55  1  0  0  0  0
 55 54  1  0  0  0  0
M  END
>  <MODEL>
4

>  <REMARK>
 VINA RESULT:      -5.8      3.424      8.755
  Name = 
  19 active torsions:
  status: ('A' for Active; 'I' for Inactive)
    1  A    between atoms: C_3  and  C_45
    2  A    between atoms: C_5  and  C_45
    3  A    between atoms: C_7  and  N_33
    4  A    between atoms: C_11  and  C_12
    5  A    between atoms: C_11  and  C_14
    6  A    between atoms: C_12  and  O_40
    7  A    between atoms: C_23  and  C_37
    8  A    between atoms: C_23  and  O_40
    9  A    between atoms: C_27  and  C_31
   10  A    between atoms: C_27  and  O_36
   11  A    between atoms: C_28  and  C_43
   12  A    between atoms: C_28  and  C_44
   13  A    between atoms: C_28  and  C_47
   14  A    between atoms: C_29  and  C_31
   15  A    between atoms: C_30  and  N_33
   16  A    between atoms: C_30  and  C_42
   17  A    between atoms: C_32  and  O_46
   18  A    between atoms: O_36  and  C_44
   19  A    between atoms: C_37  and  C_41
                            x       y       z     vdW  Elec       q    Type
                         _______ _______ _______ _____ _____    ______ ____

>  <TORSDO>
F 19

$$$$
=
 OpenBabel11062418393D

 55 57  0  0  1  0  0  0  0  0999 V2000
  192.1090  172.5190  139.7110 C   0  0  0  0  0  0  0  0  0  0  0  0
  190.1420  175.1570  144.3580 C   0  0  2  0  0  3  0  0  0  0  0  0
  197.1780  172.9560  145.4530 F   0  0  0  0  0  0  0  0  0  0  0  0
  195.2700  172.4740  141.2150 O   0  0  0  0  0  0  0  0  0  0  0  0
  194.5030  173.7340  145.9800 C   0  0  0  0  0  2  0  0  0  0  0  0
  197.0400  172.6890  142.8320 C   0  0  0  0  0  2  0  0  0  0  0  0
  189.4770  175.4640  141.8890 C   0  0  0  0  0  2  0  0  0  0  0  0
  192.4400  174.2790  144.6940 N   0  0  0  0  0  0  0  0  0  0  0  0
  196.6140  171.6310  143.6550 O   0  0  0  0  0  0  0  0  0  0  0  0
  193.4660  174.7900  145.5950 C   0  0  0  0  0  2  0  0  0  0  0  0
  191.6270  175.2760  144.0150 C   0  0  0  0  0  2  0  0  0  0  0  0
  193.7170  172.0980  144.3030 C   0  0  0  0  0  2  0  0  0  0  0  0
  191.3660  173.2410  140.7950 C   0  0  0  0  0  2  0  0  0  0  0  0
  196.6760  172.3930  141.3880 C   0  0  0  0  0  2  0  0  0  0  0  0
  195.9540  171.1030  145.7580 F   0  0  0  0  0  0  0  0  0  0  0  0
  194.8920  172.9680  144.7260 C   0  0  2  0  0  3  0  0  0  0  0  0
  194.6260  171.9700  140.0830 C   0  0  0  0  0  0  0  0  0  0  0  0
  189.3010  175.9460  143.3370 C   0  0  1  0  0  3  0  0  0  0  0  0
  189.1850  173.9780  141.7320 C   0  0  0  0  0  2  0  0  0  0  0  0
  192.4720  172.9290  144.1940 C   0  0  0  0  0  0  0  0  0  0  0  0
  189.8800  173.4220  140.5040 C   0  0  0  0  0  2  0  0  0  0  0  0
  193.3720  172.2490  139.8920 C   0  0  0  0  0  0  0  0  0  0  0  0
  196.1860  172.1580  144.8940 C   0  0  0  0  0  0  0  0  0  0  0  0
  191.4440  172.4230  143.6740 O   0  0  0  0  0  0  0  0  0  0  0  0
  191.4340  172.0890  138.4390 C   0  0  0  0  0  2  0  0  0  0  0  0
  189.4370  172.0880  136.2520 C   0  0  0  0  0  1  0  0  0  0  0  0
  191.4490  173.1430  137.3770 C   0  0  0  0  0  0  0  0  0  0  0  0
  192.3870  175.2030  136.4870 C   0  0  0  0  0  3  0  0  0  0  0  0
  190.4810  173.1590  136.3560 C   0  0  0  0  0  0  0  0  0  0  0  0
  191.4370  175.2160  135.4670 C   0  0  0  0  0  0  0  0  0  0  0  0
  190.4800  174.1940  135.4130 C   0  0  0  0  0  3  0  0  0  0  0  0
  192.3880  174.1770  137.4380 C   0  0  0  0  0  3  0  0  0  0  0  0
  192.1100  177.4870  134.7500 C   0  0  0  0  0  1  0  0  0  0  0  0
  191.4570  176.2450  134.5270 O   0  0  0  0  0  0  0  0  0  0  0  0
  195.3310  171.0860  139.0970 C   0  0  0  0  0  2  0  0  0  0  0  0
  194.5870  169.7710  138.9220 C   0  0  0  0  0  2  0  0  0  0  0  0
  194.7170  169.3030  137.6120 O   0  0  0  0  0  0  0  0  0  0  0  0
  194.2730  170.3640  136.8210 C   0  0  0  0  0  2  0  0  0  0  0  0
  193.1780  169.8790  135.8870 C   0  0  0  0  0  2  0  0  0  0  0  0
  194.0110  171.9730  134.8680 C   0  0  0  0  0  1  0  0  0  0  0  0
  192.8960  170.9450  134.8480 C   0  0  0  0  0  2  0  0  0  0  0  0
  189.8630  175.5520  145.7470 N   0  0  0  0  0  2  0  0  0  0  0  0
  190.5320  176.8080  146.0890 C   0  0  0  0  0  2  0  0  0  0  0  0
  190.9270  175.3310  148.0480 C   0  0  0  0  0  1  0  0  0  0  0  0
  191.1640  176.7160  147.4650 C   0  0  2  0  0  3  0  0  0  0  0  0
  190.6130  177.6840  148.3110 O   0  0  0  0  0  1  0  0  0  0  0  0
  187.8530  176.2330  143.7670 C   0  0  2  0  0  3  0  0  0  0  0  0
  186.3910  176.7300  141.9030 O   0  0  0  0  0  1  0  0  0  0  0  0
  186.7700  175.7320  142.8040 C   0  0  0  0  0  2  0  0  0  0  0  0
  187.6450  177.6890  144.1830 C   0  0  0  0  0  2  0  0  0  0  0  0
  186.4480  177.8130  144.9070 O   0  0  0  0  0  0  0  0  0  0  0  0
  186.6380  177.0610  146.0610 C   0  0  0  0  0  2  0  0  0  0  0  0
  185.5170  177.3630  147.0400 C   0  0  0  0  0  2  0  0  0  0  0  0
  186.8650  179.0840  148.2010 C   0  0  0  0  0  1  0  0  0  0  0  0
  185.5690  178.8240  147.4580 C   0  0  0  0  0  2  0  0  0  0  0  0
  1 22  2  0  0  0  0
  1 13  1  0  0  0  0
  2 42  1  1  0  0  0
  4 14  1  0  0  0  0
  6  9  1  0  0  0  0
  7 18  1  0  0  0  0
  8 10  1  0  0  0  0
  9 23  1  0  0  0  0
 10  5  1  0  0  0  0
 11  2  1  0  0  0  0
 11  8  1  0  0  0  0
 14  6  1  0  0  0  0
 16 12  1  1  0  0  0
 16 23  1  0  0  0  0
 16  5  1  0  0  0  0
 17  4  1  0  0  0  0
 18 47  1  1  0  0  0
 18  2  1  0  0  0  0
 19  7  1  0  0  0  0
 20 12  1  0  0  0  0
 20  8  1  0  0  0  0
 21 13  1  0  0  0  0
 21 19  1  0  0  0  0
 22 17  2  0  0  0  0
 23  3  1  0  0  0  0
 23 15  1  0  0  0  0
 24 20  2  0  0  0  0
 25  1  1  0  0  0  0
 26 29  1  0  0  0  0
 27 32  1  0  0  0  0
 27 25  1  0  0  0  0
 28 32  2  0  0  0  0
 29 27  2  0  0  0  0
 30 28  1  0  0  0  0
 31 30  2  0  0  0  0
 31 29  1  0  0  0  0
 34 33  1  0  0  0  0
 34 30  1  0  0  0  0
 35 17  1  0  0  0  0
 36 35  1  0  0  0  0
 37 36  1  0  0  0  0
 38 37  1  0  0  0  0
 39 38  1  0  0  0  0
 41 40  1  0  0  0  0
 41 39  1  0  0  0  0
 42 43  1  0  0  0  0
 43 45  1  0  0  0  0
 45 44  1  1  0  0  0
 45 46  1  0  0  0  0
 47 49  1  6  0  0  0
 47 50  1  0  0  0  0
 48 49  1  0  0  0  0
 50 51  1  0  0  0  0
 51 52  1  0  0  0  0
 52 53  1  0  0  0  0
 53 55  1  0  0  0  0
 55 54  1  0  0  0  0
M  END
>  <MODEL>
5

>  <REMARK>
 VINA RESULT:      -5.6      3.225      7.146
  Name = 
  19 active torsions:
  status: ('A' for Active; 'I' for Inactive)
    1  A    between atoms: C_3  and  C_45
    2  A    between atoms: C_5  and  C_45
    3  A    between atoms: C_7  and  N_33
    4  A    between atoms: C_11  and  C_12
    5  A    between atoms: C_11  and  C_14
    6  A    between atoms: C_12  and  O_40
    7  A    between atoms: C_23  and  C_37
    8  A    between atoms: C_23  and  O_40
    9  A    between atoms: C_27  and  C_31
   10  A    between atoms: C_27  and  O_36
   11  A    between atoms: C_28  and  C_43
   12  A    between atoms: C_28  and  C_44
   13  A    between atoms: C_28  and  C_47
   14  A    between atoms: C_29  and  C_31
   15  A    between atoms: C_30  and  N_33
   16  A    between atoms: C_30  and  C_42
   17  A    between atoms: C_32  and  O_46
   18  A    between atoms: O_36  and  C_44
   19  A    between atoms: C_37  and  C_41
                            x       y       z     vdW  Elec       q    Type
                         _______ _______ _______ _____ _____    ______ ____

>  <TORSDO>
F 19

$$$$
=
 OpenBabel11062418393D

 55 57  0  0  1  0  0  0  0  0999 V2000
  190.5040  173.4770  140.5660 C   0  0  0  0  0  0  0  0  0  0  0  0
  187.6510  177.5050  143.4060 C   0  0  2  0  0  3  0  0  0  0  0  0
  194.0620  175.9770  146.8880 F   0  0  0  0  0  0  0  0  0  0  0  0
  193.2010  174.0250  142.7300 O   0  0  0  0  0  0  0  0  0  0  0  0
  191.3950  176.8270  146.4400 C   0  0  0  0  0  2  0  0  0  0  0  0
  194.5410  174.8230  144.5640 C   0  0  0  0  0  2  0  0  0  0  0  0
  187.6200  176.9300  140.8960 C   0  0  0  0  0  2  0  0  0  0  0  0
  189.7400  176.8500  144.5770 N   0  0  0  0  0  0  0  0  0  0  0  0
  193.8630  174.1020  145.5630 O   0  0  0  0  0  0  0  0  0  0  0  0
  190.5500  177.6620  145.4770 C   0  0  0  0  0  2  0  0  0  0  0  0
  189.1790  177.5340  143.4220 C   0  0  0  0  0  2  0  0  0  0  0  0
  190.9300  174.6970  145.2770 C   0  0  0  0  0  2  0  0  0  0  0  0
  189.5700  174.5100  141.1230 C   0  0  0  0  0  2  0  0  0  0  0  0
  194.5160  174.0400  143.2630 C   0  0  0  0  0  2  0  0  0  0  0  0
  192.6840  174.3140  147.4880 F   0  0  0  0  0  0  0  0  0  0  0  0
  192.0230  175.6860  145.6570 C   0  0  2  0  0  3  0  0  0  0  0  0
  192.8180  173.1470  141.7130 C   0  0  0  0  0  0  0  0  0  0  0  0
  187.1320  177.8760  142.0040 C   0  0  1  0  0  3  0  0  0  0  0  0
  187.2790  175.4750  141.1840 C   0  0  0  0  0  2  0  0  0  0  0  0
  189.8050  175.4110  144.5880 C   0  0  0  0  0  0  0  0  0  0  0  0
  188.2120  174.5460  140.4290 C   0  0  0  0  0  2  0  0  0  0  0  0
  191.6660  173.3150  141.1350 C   0  0  0  0  0  0  0  0  0  0  0  0
  193.1840  175.0130  146.4040 C   0  0  0  0  0  0  0  0  0  0  0  0
  188.9020  174.7340  144.0320 O   0  0  0  0  0  0  0  0  0  0  0  0
  190.1280  172.6210  139.3900 C   0  0  0  0  0  2  0  0  0  0  0  0
  191.7220  170.3600  138.3340 C   0  0  0  0  0  1  0  0  0  0  0  0
  191.0390  172.7980  138.2160 C   0  0  0  0  0  0  0  0  0  0  0  0
  191.9090  174.2110  136.4380 C   0  0  0  0  0  3  0  0  0  0  0  0
  191.7720  171.7160  137.6970 C   0  0  0  0  0  0  0  0  0  0  0  0
  192.6460  173.1450  135.9270 C   0  0  0  0  0  0  0  0  0  0  0  0
  192.5660  171.8950  136.5570 C   0  0  0  0  0  3  0  0  0  0  0  0
  191.1060  174.0370  137.5700 C   0  0  0  0  0  3  0  0  0  0  0  0
  194.8640  173.3120  134.8410 C   0  0  0  0  0  1  0  0  0  0  0  0
  193.4440  173.3420  134.8010 O   0  0  0  0  0  0  0  0  0  0  0  0
  193.6800  171.9960  141.2920 C   0  0  0  0  0  2  0  0  0  0  0  0
  193.0700  170.6740  141.7330 C   0  0  0  0  0  2  0  0  0  0  0  0
  193.9990  169.9190  142.4530 O   0  0  0  0  0  0  0  0  0  0  0  0
  194.1950  170.6450  143.6300 C   0  0  0  0  0  2  0  0  0  0  0  0
  195.5870  170.3700  144.1700 C   0  0  0  0  0  2  0  0  0  0  0  0
  196.3940  169.8260  146.4440 C   0  0  0  0  0  1  0  0  0  0  0  0
  195.6760  170.8620  145.6000 C   0  0  0  0  0  2  0  0  0  0  0  0
  187.0720  178.3470  144.4650 N   0  0  0  0  0  2  0  0  0  0  0  0
  186.7260  177.5570  145.6470 C   0  0  0  0  0  2  0  0  0  0  0  0
  185.9540  177.6340  148.0070 C   0  0  0  0  0  1  0  0  0  0  0  0
  186.4430  178.4640  146.8290 C   0  0  2  0  0  3  0  0  0  0  0  0
  185.4710  179.4100  146.4840 O   0  0  0  0  0  1  0  0  0  0  0  0
  185.6460  178.2590  141.9380 C   0  0  2  0  0  3  0  0  0  0  0  0
  183.9160  178.4910  143.6160 O   0  0  0  0  0  1  0  0  0  0  0  0
  184.7430  177.5700  142.9690 C   0  0  0  0  0  2  0  0  0  0  0  0
  185.0840  178.1840  140.5190 C   0  0  0  0  0  2  0  0  0  0  0  0
  183.7670  178.6690  140.4980 O   0  0  0  0  0  0  0  0  0  0  0  0
  183.0260  177.6940  139.8410 C   0  0  0  0  0  2  0  0  0  0  0  0
  181.5710  177.8090  140.2580 C   0  0  0  0  0  2  0  0  0  0  0  0
  180.2910  179.9000  140.6000 C   0  0  0  0  0  1  0  0  0  0  0  0
  181.3830  179.0130  141.1680 C   0  0  0  0  0  2  0  0  0  0  0  0
  1 13  1  0  0  0  0
  1 22  2  0  0  0  0
  2 11  1  0  0  0  0
  2 42  1  1  0  0  0
  4 14  1  0  0  0  0
  6  9  1  0  0  0  0
  7 19  1  0  0  0  0
  7 18  1  0  0  0  0
  8 20  1  0  0  0  0
  8 10  1  0  0  0  0
  9 23  1  0  0  0  0
 10  5  1  0  0  0  0
 11  8  1  0  0  0  0
 14  6  1  0  0  0  0
 16 12  1  1  0  0  0
 16 23  1  0  0  0  0
 16  5  1  0  0  0  0
 17  4  1  0  0  0  0
 18 47  1  1  0  0  0
 18  2  1  0  0  0  0
 20 12  1  0  0  0  0
 21 13  1  0  0  0  0
 21 19  1  0  0  0  0
 22 17  2  0  0  0  0
 23  3  1  0  0  0  0
 23 15  1  0  0  0  0
 24 20  2  0  0  0  0
 25  1  1  0  0  0  0
 27 25  1  0  0  0  0
 28 32  1  0  0  0  0
 29 27  1  0  0  0  0
 29 26  1  0  0  0  0
 30 28  2  0  0  0  0
 30 31  1  0  0  0  0
 31 29  2  0  0  0  0
 32 27  2  0  0  0  0
 34 33  1  0  0  0  0
 34 30  1  0  0  0  0
 35 17  1  0  0  0  0
 35 36  1  0  0  0  0
 36 37  1  0  0  0  0
 37 38  1  0  0  0  0
 38 39  1  0  0  0  0
 39 41  1  0  0  0  0
 41 40  1  0  0  0  0
 42 43  1  0  0  0  0
 43 45  1  0  0  0  0
 45 44  1  1  0  0  0
 46 45  1  0  0  0  0
 47 50  1  6  0  0  0
 47 49  1  0  0  0  0
 49 48  1  0  0  0  0
 51 50  1  0  0  0  0
 52 53  1  0  0  0  0
 52 51  1  0  0  0  0
 53 55  1  0  0  0  0
 54 55  1  0  0  0  0
M  END
>  <MODEL>
6

>  <REMARK>
 VINA RESULT:      -5.5      3.314      7.460
  Name = 
  19 active torsions:
  status: ('A' for Active; 'I' for Inactive)
    1  A    between atoms: C_3  and  C_45
    2  A    between atoms: C_5  and  C_45
    3  A    between atoms: C_7  and  N_33
    4  A    between atoms: C_11  and  C_12
    5  A    between atoms: C_11  and  C_14
    6  A    between atoms: C_12  and  O_40
    7  A    between atoms: C_23  and  C_37
    8  A    between atoms: C_23  and  O_40
    9  A    between atoms: C_27  and  C_31
   10  A    between atoms: C_27  and  O_36
   11  A    between atoms: C_28  and  C_43
   12  A    between atoms: C_28  and  C_44
   13  A    between atoms: C_28  and  C_47
   14  A    between atoms: C_29  and  C_31
   15  A    between atoms: C_30  and  N_33
   16  A    between atoms: C_30  and  C_42
   17  A    between atoms: C_32  and  O_46
   18  A    between atoms: O_36  and  C_44
   19  A    between atoms: C_37  and  C_41
                            x       y       z     vdW  Elec       q    Type
                         _______ _______ _______ _____ _____    ______ ____

>  <TORSDO>
F 19

$$$$
=
 OpenBabel11062418393D

 55 57  0  0  1  0  0  0  0  0999 V2000
  191.0490  174.1800  141.1710 C   0  0  0  0  0  0  0  0  0  0  0  0
  186.7990  177.2160  143.4400 C   0  0  2  0  0  3  0  0  0  0  0  0
  192.5350  176.9000  148.1890 F   0  0  0  0  0  0  0  0  0  0  0  0
  193.0350  175.1460  143.8870 O   0  0  0  0  0  0  0  0  0  0  0  0
  189.8920  177.1590  147.1960 C   0  0  0  0  0  2  0  0  0  0  0  0
  193.7410  176.0760  145.9920 C   0  0  0  0  0  2  0  0  0  0  0  0
  187.4210  176.8540  140.9680 C   0  0  0  0  0  2  0  0  0  0  0  0
  188.6980  176.9570  145.0190 N   0  0  0  0  0  0  0  0  0  0  0  0
  193.0640  175.1420  146.7970 O   0  0  0  0  0  0  0  0  0  0  0  0
  189.0890  177.8560  146.0970 C   0  0  0  0  0  2  0  0  0  0  0  0
  188.2390  177.5880  143.7900 C   0  0  0  0  0  2  0  0  0  0  0  0
  190.1970  175.0800  145.8950 C   0  0  0  0  0  2  0  0  0  0  0  0
  189.8020  174.9270  141.5410 C   0  0  0  0  0  2  0  0  0  0  0  0
  194.1710  175.4160  144.6940 C   0  0  0  0  0  2  0  0  0  0  0  0
  191.5000  174.9260  148.4230 F   0  0  0  0  0  0  0  0  0  0  0  0
  190.9210  176.2560  146.5350 C   0  0  2  0  0  3  0  0  0  0  0  0
  193.0890  174.2910  142.7850 C   0  0  0  0  0  0  0  0  0  0  0  0
  186.5060  177.5720  141.9700 C   0  0  1  0  0  3  0  0  0  0  0  0
  187.3860  175.3400  141.1300 C   0  0  0  0  0  2  0  0  0  0  0  0
  189.1000  175.5740  144.9990 C   0  0  0  0  0  0  0  0  0  0  0  0
  188.6470  174.7110  140.5680 C   0  0  0  0  0  2  0  0  0  0  0  0
  192.0740  174.2400  141.9740 C   0  0  0  0  0  0  0  0  0  0  0  0
  192.0300  175.8050  147.4970 C   0  0  0  0  0  0  0  0  0  0  0  0
  188.5180  174.7580  144.2400 O   0  0  0  0  0  0  0  0  0  0  0  0
  191.1370  173.3590  139.9150 C   0  0  0  0  0  2  0  0  0  0  0  0
  192.6650  170.8250  139.8170 C   0  0  0  0  0  1  0  0  0  0  0  0
  192.5170  173.3090  139.3380 C   0  0  0  0  0  0  0  0  0  0  0  0
  194.3490  174.4300  138.1950 C   0  0  0  0  0  3  0  0  0  0  0  0
  193.2300  172.0990  139.2640 C   0  0  0  0  0  0  0  0  0  0  0  0
  195.0630  173.2350  138.1300 C   0  0  0  0  0  0  0  0  0  0  0  0
  194.4930  172.0700  138.6600 C   0  0  0  0  0  3  0  0  0  0  0  0
  193.0820  174.4650  138.7890 C   0  0  0  0  0  3  0  0  0  0  0  0
  196.8920  174.3590  136.8990 C   0  0  0  0  0  1  0  0  0  0  0  0
  196.3260  173.2250  137.5390 O   0  0  0  0  0  0  0  0  0  0  0  0
  194.2680  173.4020  142.5270 C   0  0  0  0  0  2  0  0  0  0  0  0
  194.0090  171.9950  143.0450 C   0  0  0  0  0  2  0  0  0  0  0  0
  195.1710  171.2220  142.9760 O   0  0  0  0  0  0  0  0  0  0  0  0
  196.0850  171.9010  143.7850 C   0  0  0  0  0  2  0  0  0  0  0  0
  195.6560  171.7920  145.2370 C   0  0  0  0  0  2  0  0  0  0  0  0
  196.9000  173.6880  146.2240 C   0  0  0  0  0  1  0  0  0  0  0  0
  196.8160  172.1760  146.1330 C   0  0  0  0  0  2  0  0  0  0  0  0
  185.8320  177.8170  144.3720 N   0  0  0  0  0  2  0  0  0  0  0  0
  185.3840  176.8500  145.3740 C   0  0  0  0  0  2  0  0  0  0  0  0
  185.2640  179.0460  146.5310 C   0  0  0  0  0  1  0  0  0  0  0  0
  185.1230  177.5400  146.6990 C   0  0  2  0  0  3  0  0  0  0  0  0
  186.0320  177.0880  147.6620 O   0  0  0  0  0  1  0  0  0  0  0  0
  185.0160  177.6130  141.5930 C   0  0  2  0  0  3  0  0  0  0  0  0
  183.3820  177.6660  139.8090 O   0  0  0  0  0  1  0  0  0  0  0  0
  184.7190  177.9230  140.1210 C   0  0  0  0  0  2  0  0  0  0  0  0
  184.1950  178.4720  142.5540 C   0  0  0  0  0  2  0  0  0  0  0  0
  182.8260  178.2190  142.3720 O   0  0  0  0  0  0  0  0  0  0  0  0
  182.1720  179.3130  142.9280 C   0  0  0  0  0  2  0  0  0  0  0  0
  180.7770  179.4110  142.3390 C   0  0  0  0  0  2  0  0  0  0  0  0
  179.9350  178.3480  140.2680 C   0  0  0  0  0  1  0  0  0  0  0  0
  180.3890  178.0900  141.6910 C   0  0  0  0  0  2  0  0  0  0  0  0
  1 13  1  0  0  0  0
  1 22  2  0  0  0  0
  2 11  1  0  0  0  0
  2 42  1  1  0  0  0
  4 14  1  0  0  0  0
  6  9  1  0  0  0  0
  7 19  1  0  0  0  0
  7 18  1  0  0  0  0
  8 10  1  0  0  0  0
  9 23  1  0  0  0  0
 10  5  1  0  0  0  0
 11  8  1  0  0  0  0
 14  6  1  0  0  0  0
 16 12  1  1  0  0  0
 16  5  1  0  0  0  0
 16 23  1  0  0  0  0
 17  4  1  0  0  0  0
 18 47  1  6  0  0  0
 18  2  1  0  0  0  0
 20  8  1  0  0  0  0
 20 12  1  0  0  0  0
 21 19  1  0  0  0  0
 21 13  1  0  0  0  0
 22 17  2  0  0  0  0
 23  3  1  0  0  0  0
 23 15  1  0  0  0  0
 24 20  2  0  0  0  0
 25  1  1  0  0  0  0
 27 25  1  0  0  0  0
 28 32  1  0  0  0  0
 29 27  1  0  0  0  0
 29 26  1  0  0  0  0
 30 28  2  0  0  0  0
 30 31  1  0  0  0  0
 31 29  2  0  0  0  0
 32 27  2  0  0  0  0
 33 34  1  0  0  0  0
 34 30  1  0  0  0  0
 35 17  1  0  0  0  0
 35 36  1  0  0  0  0
 37 36  1  0  0  0  0
 37 38  1  0  0  0  0
 38 39  1  0  0  0  0
 39 41  1  0  0  0  0
 41 40  1  0  0  0  0
 42 43  1  0  0  0  0
 43 45  1  0  0  0  0
 45 44  1  6  0  0  0
 45 46  1  0  0  0  0
 47 49  1  6  0  0  0
 47 50  1  0  0  0  0
 48 49  1  0  0  0  0
 51 50  1  0  0  0  0
 51 52  1  0  0  0  0
 53 52  1  0  0  0  0
 54 55  1  0  0  0  0
 55 53  1  0  0  0  0
M  END
>  <MODEL>
7

>  <REMARK>
 VINA RESULT:      -5.4      3.323      7.266
  Name = 
  19 active torsions:
  status: ('A' for Active; 'I' for Inactive)
    1  A    between atoms: C_3  and  C_45
    2  A    between atoms: C_5  and  C_45
    3  A    between atoms: C_7  and  N_33
    4  A    between atoms: C_11  and  C_12
    5  A    between atoms: C_11  and  C_14
    6  A    between atoms: C_12  and  O_40
    7  A    between atoms: C_23  and  C_37
    8  A    between atoms: C_23  and  O_40
    9  A    between atoms: C_27  and  C_31
   10  A    between atoms: C_27  and  O_36
   11  A    between atoms: C_28  and  C_43
   12  A    between atoms: C_28  and  C_44
   13  A    between atoms: C_28  and  C_47
   14  A    between atoms: C_29  and  C_31
   15  A    between atoms: C_30  and  N_33
   16  A    between atoms: C_30  and  C_42
   17  A    between atoms: C_32  and  O_46
   18  A    between atoms: O_36  and  C_44
   19  A    between atoms: C_37  and  C_41
                            x       y       z     vdW  Elec       q    Type
                         _______ _______ _______ _____ _____    ______ ____

>  <TORSDO>
F 19

$$$$
=
 OpenBabel11062418393D

 55 57  0  0  1  0  0  0  0  0999 V2000
  190.4450  173.7050  139.4050 C   0  0  0  0  0  0  0  0  0  0  0  0
  194.9580  174.1150  142.8540 C   0  0  2  0  0  3  0  0  0  0  0  0
  197.1820  173.9590  135.7420 F   0  0  0  0  0  0  0  0  0  0  0  0
  192.6140  174.1900  136.7000 O   0  0  0  0  0  0  0  0  0  0  0  0
  197.2130  173.6870  138.5640 C   0  0  0  0  0  2  0  0  0  0  0  0
  194.6140  174.4500  135.3860 C   0  0  0  0  0  2  0  0  0  0  0  0
  192.5370  174.9190  143.2130 C   0  0  0  0  0  2  0  0  0  0  0  0
  195.6280  173.9270  140.4710 N   0  0  0  0  0  0  0  0  0  0  0  0
  195.0480  173.1190  135.5180 O   0  0  0  0  0  0  0  0  0  0  0  0
  196.8400  174.4370  139.8430 C   0  0  0  0  0  2  0  0  0  0  0  0
  195.0180  174.7800  141.4790 C   0  0  0  0  0  2  0  0  0  0  0  0
  195.0700  172.4600  138.4510 C   0  0  0  0  0  2  0  0  0  0  0  0
  191.4540  173.8100  140.5100 C   0  0  0  0  0  2  0  0  0  0  0  0
  193.0970  174.4960  135.4010 C   0  0  0  0  0  2  0  0  0  0  0  0
  196.7550  171.8170  136.2460 F   0  0  0  0  0  0  0  0  0  0  0  0
  195.9490  173.4830  137.7450 C   0  0  2  0  0  3  0  0  0  0  0  0
  191.2760  173.8710  136.9430 C   0  0  0  0  0  0  0  0  0  0  0  0
  193.9700  174.8730  143.7620 C   0  0  1  0  0  3  0  0  0  0  0  0
  191.9820  173.5310  142.9230 C   0  0  0  0  0  2  0  0  0  0  0  0
  194.8570  172.8630  139.8800 C   0  0  0  0  0  0  0  0  0  0  0  0
  190.8630  173.6040  141.9010 C   0  0  0  0  0  2  0  0  0  0  0  0
  190.8580  173.7950  138.1710 C   0  0  0  0  0  0  0  0  0  0  0  0
  196.2350  173.0970  136.2860 C   0  0  0  0  0  0  0  0  0  0  0  0
  194.0050  172.2440  140.5680 O   0  0  0  0  0  0  0  0  0  0  0  0
  188.9850  173.4850  139.6840 C   0  0  0  0  0  2  0  0  0  0  0  0
  187.5070  174.8470  137.5090 C   0  0  0  0  0  1  0  0  0  0  0  0
  188.2330  174.7540  139.9360 C   0  0  0  0  0  0  0  0  0  0  0  0
  187.4420  176.4420  141.4980 C   0  0  0  0  0  3  0  0  0  0  0  0
  187.5070  175.3830  138.9090 C   0  0  0  0  0  0  0  0  0  0  0  0
  186.7300  177.0750  140.4820 C   0  0  0  0  0  0  0  0  0  0  0  0
  186.7600  176.5350  139.1890 C   0  0  0  0  0  3  0  0  0  0  0  0
  188.1830  175.2860  141.2290 C   0  0  0  0  0  3  0  0  0  0  0  0
  184.5980  178.3260  140.5900 C   0  0  0  0  0  1  0  0  0  0  0  0
  186.0030  178.2290  140.7720 O   0  0  0  0  0  0  0  0  0  0  0  0
  190.3150  173.5790  135.8310 C   0  0  0  0  0  2  0  0  0  0  0  0
  190.4850  172.1530  135.3290 C   0  0  0  0  0  2  0  0  0  0  0  0
  189.9810  171.2400  136.2580 O   0  0  0  0  0  0  0  0  0  0  0  0
  190.8180  170.1280  136.1370 C   0  0  0  0  0  2  0  0  0  0  0  0
  190.8210  169.3500  137.4410 C   0  0  0  0  0  2  0  0  0  0  0  0
  190.8120  170.0150  139.8230 C   0  0  0  0  0  1  0  0  0  0  0  0
  190.0810  170.1420  138.4990 C   0  0  0  0  0  2  0  0  0  0  0  0
  196.2920  173.9770  143.4590 N   0  0  0  0  0  2  0  0  0  0  0  0
  196.6790  172.5720  143.5820 C   0  0  0  0  0  2  0  0  0  0  0  0
  197.1950  170.9790  145.4180 C   0  0  0  0  0  1  0  0  0  0  0  0
  197.4980  172.3540  144.8400 C   0  0  2  0  0  3  0  0  0  0  0  0
  197.1940  173.3390  145.7850 O   0  0  0  0  0  1  0  0  0  0  0  0
  194.0940  174.5620  145.2620 C   0  0  2  0  0  3  0  0  0  0  0  0
  193.9210  172.1960  145.7440 O   0  0  0  0  0  1  0  0  0  0  0  0
  193.2230  173.4050  145.7680 C   0  0  0  0  0  2  0  0  0  0  0  0
  193.9730  175.8140  146.1310 C   0  0  0  0  0  2  0  0  0  0  0  0
  192.9230  176.6210  145.6640 O   0  0  0  0  0  0  0  0  0  0  0  0
  191.9810  176.6250  146.6850 C   0  0  0  0  0  2  0  0  0  0  0  0
  190.6640  176.0920  146.1490 C   0  0  0  0  0  2  0  0  0  0  0  0
  189.9700  177.5820  144.2980 C   0  0  0  0  0  1  0  0  0  0  0  0
  189.7520  177.2470  145.7610 C   0  0  0  0  0  2  0  0  0  0  0  0
  1 25  1  0  0  0  0
  1 13  1  0  0  0  0
  2 42  1  1  0  0  0
  2 18  1  0  0  0  0
  3 23  1  0  0  0  0
  4 17  1  0  0  0  0
  5 10  1  0  0  0  0
  6 14  1  0  0  0  0
  6  9  1  0  0  0  0
  7 18  1  0  0  0  0
  8 11  1  0  0  0  0
  9 23  1  0  0  0  0
 10  8  1  0  0  0  0
 11  2  1  0  0  0  0
 12 20  1  0  0  0  0
 13 21  1  0  0  0  0
 14  4  1  0  0  0  0
 15 23  1  0  0  0  0
 16 12  1  1  0  0  0
 16  5  1  0  0  0  0
 17 22  2  0  0  0  0
 18 47  1  1  0  0  0
 19  7  1  0  0  0  0
 20  8  1  0  0  0  0
 20 24  2  0  0  0  0
 21 19  1  0  0  0  0
 22  1  2  0  0  0  0
 23 16  1  0  0  0  0
 25 27  1  0  0  0  0
 26 29  1  0  0  0  0
 27 32  1  0  0  0  0
 29 31  1  0  0  0  0
 29 27  2  0  0  0  0
 30 34  1  0  0  0  0
 30 28  1  0  0  0  0
 31 30  2  0  0  0  0
 32 28  2  0  0  0  0
 33 34  1  0  0  0  0
 35 17  1  0  0  0  0
 36 35  1  0  0  0  0
 36 37  1  0  0  0  0
 38 37  1  0  0  0  0
 38 39  1  0  0  0  0
 39 41  1  0  0  0  0
 41 40  1  0  0  0  0
 42 43  1  0  0  0  0
 43 45  1  0  0  0  0
 45 44  1  1  0  0  0
 45 46  1  0  0  0  0
 47 49  1  1  0  0  0
 47 50  1  0  0  0  0
 48 49  1  0  0  0  0
 51 50  1  0  0  0  0
 51 52  1  0  0  0  0
 53 52  1  0  0  0  0
 54 55  1  0  0  0  0
 55 53  1  0  0  0  0
M  END
>  <MODEL>
8

>  <REMARK>
 VINA RESULT:      -5.4      3.091      8.233
  Name = 
  19 active torsions:
  status: ('A' for Active; 'I' for Inactive)
    1  A    between atoms: C_3  and  C_45
    2  A    between atoms: C_5  and  C_45
    3  A    between atoms: C_7  and  N_33
    4  A    between atoms: C_11  and  C_12
    5  A    between atoms: C_11  and  C_14
    6  A    between atoms: C_12  and  O_40
    7  A    between atoms: C_23  and  C_37
    8  A    between atoms: C_23  and  O_40
    9  A    between atoms: C_27  and  C_31
   10  A    between atoms: C_27  and  O_36
   11  A    between atoms: C_28  and  C_43
   12  A    between atoms: C_28  and  C_44
   13  A    between atoms: C_28  and  C_47
   14  A    between atoms: C_29  and  C_31
   15  A    between atoms: C_30  and  N_33
   16  A    between atoms: C_30  and  C_42
   17  A    between atoms: C_32  and  O_46
   18  A    between atoms: O_36  and  C_44
   19  A    between atoms: C_37  and  C_41
                            x       y       z     vdW  Elec       q    Type
                         _______ _______ _______ _____ _____    ______ ____

>  <TORSDO>
F 19

$$$$
=
 OpenBabel11062418393D

 55 57  0  0  1  0  0  0  0  0999 V2000
  189.8000  174.8040  144.6010 C   0  0  0  0  0  0  0  0  0  0  0  0
  194.7130  172.7310  142.6040 C   0  0  2  0  0  3  0  0  0  0  0  0
  189.6090  172.8860  137.1750 F   0  0  0  0  0  0  0  0  0  0  0  0
  188.5980  174.8060  141.3130 O   0  0  0  0  0  0  0  0  0  0  0  0
  191.8970  172.1500  138.6790 C   0  0  0  0  0  2  0  0  0  0  0  0
  188.4150  174.4410  138.9410 C   0  0  0  0  0  2  0  0  0  0  0  0
  194.2910  174.3840  144.5320 C   0  0  0  0  0  2  0  0  0  0  0  0
  192.9240  172.6920  140.8830 N   0  0  0  0  0  0  0  0  0  0  0  0
  188.2410  173.0470  139.0220 O   0  0  0  0  0  0  0  0  0  0  0  0
  193.0780  172.7580  139.4350 C   0  0  0  0  0  2  0  0  0  0  0  0
  193.8160  173.5360  141.6630 C   0  0  0  0  0  2  0  0  0  0  0  0
  190.4830  171.9510  140.6970 C   0  0  0  0  0  2  0  0  0  0  0  0
  191.1830  174.2950  144.3230 C   0  0  0  0  0  2  0  0  0  0  0  0
  187.8150  175.1030  140.1670 C   0  0  0  0  0  2  0  0  0  0  0  0
  189.1060  171.0570  138.3690 F   0  0  0  0  0  0  0  0  0  0  0  0
  190.6130  172.6250  139.3390 C   0  0  2  0  0  3  0  0  0  0  0  0
  188.1350  175.0290  142.6120 C   0  0  0  0  0  0  0  0  0  0  0  0
  195.3310  173.6610  143.6650 C   0  0  1  0  0  3  0  0  0  0  0  0
  193.3320  173.4190  145.2150 C   0  0  0  0  0  2  0  0  0  0  0  0
  191.7360  172.1560  141.4960 C   0  0  0  0  0  0  0  0  0  0  0  0
  192.0340  174.1180  145.5760 C   0  0  0  0  0  2  0  0  0  0  0  0
  188.9670  174.9240  143.6050 C   0  0  0  0  0  0  0  0  0  0  0  0
  189.3710  172.4100  138.4610 C   0  0  0  0  0  0  0  0  0  0  0  0
  191.7430  171.8350  142.7130 O   0  0  0  0  0  0  0  0  0  0  0  0
  189.3510  175.1590  145.9900 C   0  0  0  0  0  2  0  0  0  0  0  0
  190.0430  177.8530  144.9750 C   0  0  0  0  0  1  0  0  0  0  0  0
  188.3570  176.2770  146.0220 C   0  0  0  0  0  0  0  0  0  0  0  0
  186.0990  177.0580  146.4820 C   0  0  0  0  0  3  0  0  0  0  0  0
  188.6770  177.5480  145.5110 C   0  0  0  0  0  0  0  0  0  0  0  0
  186.4160  178.3210  145.9880 C   0  0  0  0  0  0  0  0  0  0  0  0
  187.7060  178.5570  145.4950 C   0  0  0  0  0  3  0  0  0  0  0  0
  187.0610  176.0410  146.4940 C   0  0  0  0  0  3  0  0  0  0  0  0
  184.3310  179.3230  145.1080 C   0  0  0  0  0  1  0  0  0  0  0  0
  185.4440  179.3200  145.9910 O   0  0  0  0  0  0  0  0  0  0  0  0
  186.7000  175.3510  142.8990 C   0  0  0  0  0  2  0  0  0  0  0  0
  186.4480  176.8470  142.7840 C   0  0  0  0  0  2  0  0  0  0  0  0
  185.7000  177.1350  141.6400 O   0  0  0  0  0  0  0  0  0  0  0  0
  184.7190  178.0240  142.0840 C   0  0  0  0  0  2  0  0  0  0  0  0
  183.7030  178.2530  140.9800 C   0  0  0  0  0  2  0  0  0  0  0  0
  181.2750  178.2880  140.5110 C   0  0  0  0  0  1  0  0  0  0  0  0
  182.3290  178.4370  141.5910 C   0  0  0  0  0  2  0  0  0  0  0  0
  195.7270  171.9570  141.8710 N   0  0  0  0  0  2  0  0  0  0  0  0
  195.4330  170.5240  141.9060 C   0  0  0  0  0  2  0  0  0  0  0  0
  196.2360  170.9060  139.5870 C   0  0  0  0  0  1  0  0  0  0  0  0
  195.5400  169.9240  140.5180 C   0  0  2  0  0  3  0  0  0  0  0  0
  194.2650  169.6300  140.0230 O   0  0  0  0  0  1  0  0  0  0  0  0
  196.5330  173.0770  144.4240 C   0  0  2  0  0  3  0  0  0  0  0  0
  197.9090  174.4270  142.9600 O   0  0  0  0  0  1  0  0  0  0  0  0
  197.8970  173.2760  143.7500 C   0  0  0  0  0  2  0  0  0  0  0  0
  196.3000  171.6320  144.8650 C   0  0  0  0  0  2  0  0  0  0  0  0
  196.8510  171.4250  146.1400 O   0  0  0  0  0  0  0  0  0  0  0  0
  196.4600  170.1420  146.5050 C   0  0  0  0  0  2  0  0  0  0  0  0
  195.0470  169.8930  146.0090 C   0  0  0  0  0  2  0  0  0  0  0  0
  193.3200  168.1690  145.5910 C   0  0  0  0  0  1  0  0  0  0  0  0
  194.6550  168.4440  146.2570 C   0  0  0  0  0  2  0  0  0  0  0  0
  1 25  1  0  0  0  0
  2 42  1  6  0  0  0
  2 18  1  0  0  0  0
  3 23  1  0  0  0  0
  4 17  1  0  0  0  0
  5 10  1  0  0  0  0
  6  9  1  0  0  0  0
  6 14  1  0  0  0  0
  7 19  1  0  0  0  0
  8 20  1  0  0  0  0
  8 11  1  0  0  0  0
 10  8  1  0  0  0  0
 11  2  1  0  0  0  0
 12 20  1  0  0  0  0
 13  1  1  0  0  0  0
 13 21  1  0  0  0  0
 14  4  1  0  0  0  0
 15 23  1  0  0  0  0
 16  5  1  6  0  0  0
 16 12  1  0  0  0  0
 17 35  1  0  0  0  0
 17 22  2  0  0  0  0
 18 47  1  1  0  0  0
 18  7  1  0  0  0  0
 19 21  1  0  0  0  0
 20 24  2  0  0  0  0
 22  1  2  0  0  0  0
 23  9  1  0  0  0  0
 23 16  1  0  0  0  0
 25 27  1  0  0  0  0
 26 29  1  0  0  0  0
 27 32  1  0  0  0  0
 28 32  2  0  0  0  0
 29 27  2  0  0  0  0
 30 34  1  0  0  0  0
 30 28  1  0  0  0  0
 31 29  1  0  0  0  0
 31 30  2  0  0  0  0
 33 34  1  0  0  0  0
 36 35  1  0  0  0  0
 37 38  1  0  0  0  0
 37 36  1  0  0  0  0
 39 41  1  0  0  0  0
 39 38  1  0  0  0  0
 40 41  1  0  0  0  0
 42 43  1  0  0  0  0
 45 44  1  6  0  0  0
 45 43  1  0  0  0  0
 46 45  1  0  0  0  0
 47 49  1  6  0  0  0
 47 50  1  0  0  0  0
 48 49  1  0  0  0  0
 50 51  1  0  0  0  0
 51 52  1  0  0  0  0
 53 55  1  0  0  0  0
 53 52  1  0  0  0  0
 54 55  1  0  0  0  0
M  END
>  <MODEL>
9

>  <REMARK>
 VINA RESULT:      -5.3      2.327      9.467
  Name = 
  19 active torsions:
  status: ('A' for Active; 'I' for Inactive)
    1  A    between atoms: C_3  and  C_45
    2  A    between atoms: C_5  and  C_45
    3  A    between atoms: C_7  and  N_33
    4  A    between atoms: C_11  and  C_12
    5  A    between atoms: C_11  and  C_14
    6  A    between atoms: C_12  and  O_40
    7  A    between atoms: C_23  and  C_37
    8  A    between atoms: C_23  and  O_40
    9  A    between atoms: C_27  and  C_31
   10  A    between atoms: C_27  and  O_36
   11  A    between atoms: C_28  and  C_43
   12  A    between atoms: C_28  and  C_44
   13  A    between atoms: C_28  and  C_47
   14  A    between atoms: C_29  and  C_31
   15  A    between atoms: C_30  and  N_33
   16  A    between atoms: C_30  and  C_42
   17  A    between atoms: C_32  and  O_46
   18  A    between atoms: O_36  and  C_44
   19  A    between atoms: C_37  and  C_41
                            x       y       z     vdW  Elec       q    Type
                         _______ _______ _______ _____ _____    ______ ____

>  <TORSDO>
F 19

$$$$
