=
 OpenBabel11072408393D

 69 76  0  0  1  0  0  0  0  0999 V2000
  192.6260  174.8580  146.6320 C   0  0  0  0  0  3  0  0  0  0  0  0
  193.1510  174.5050  145.3880 C   0  0  0  0  0  0  0  0  0  0  0  0
  191.6160  176.8330  145.6470 C   0  0  0  0  0  3  0  0  0  0  0  0
  192.1530  176.4730  144.3970 C   0  0  0  0  0  0  0  0  0  0  0  0
  191.8170  176.0170  146.7690 C   0  0  0  0  0  0  0  0  0  0  0  0
  192.9270  175.3090  144.2840 C   0  0  0  0  0  3  0  0  0  0  0  0
  192.0160  177.3740  143.2260 C   0  0  0  0  0  2  0  0  0  0  0  0
  190.7130  178.1760  143.3160 C   0  0  0  0  0  2  0  0  0  0  0  0
  189.5770  177.4610  142.5990 C   0  0  0  0  0  2  0  0  0  0  0  0
  188.5930  176.8320  143.6170 C   0  0  0  0  0  2  0  0  0  0  0  0
  188.6410  175.3110  143.6790 C   0  0  0  0  0  0  0  0  0  0  0  0
  189.2560  174.7260  144.5570 O   0  0  0  0  0  0  0  0  0  0  0  0
  187.7270  174.5000  142.7850 C   0  0  0  0  0  2  0  0  0  0  0  0
  189.6150  173.6330  139.5740 C   0  0  0  0  0  3  0  0  0  0  0  0
  189.9280  171.8300  141.1280 C   0  0  0  0  0  3  0  0  0  0  0  0
  190.1990  172.4140  139.9010 C   0  0  0  0  0  3  0  0  0  0  0  0
  189.0850  172.4780  142.0500 C   0  0  0  0  0  0  0  0  0  0  0  0
  188.7010  171.8250  143.1730 F   0  0  0  0  0  0  0  0  0  0  0  0
  188.7760  174.3010  140.4830 C   0  0  0  0  0  0  0  0  0  0  0  0
  188.5630  173.7510  141.7650 C   0  0  0  0  0  0  0  0  0  0  0  0
  187.3220  175.6790  138.8580 C   0  0  0  0  0  0  0  0  0  0  0  0
  188.0360  175.4610  140.0870 N   0  0  0  0  0  2  0  0  0  0  0  0
  187.4570  174.9190  137.8530 O   0  0  0  0  0  0  0  0  0  0  0  0
  186.3680  176.8060  138.8010 C   0  0  0  0  0  2  0  0  0  0  0  0
  186.6700  177.7750  139.9260 C   0  0  0  0  0  2  0  0  0  0  0  0
  184.2920  178.2280  140.3330 N   0  0  0  0  0  1  0  0  0  0  0  0
  185.5520  177.8200  140.9550 C   0  0  2  0  0  3  0  0  0  0  0  0
  185.9050  178.7400  142.1250 C   0  0  0  0  0  2  0  0  0  0  0  0
  185.2590  178.2710  143.4030 C   0  0  0  0  0  0  0  0  0  0  0  0
  184.0380  178.8250  145.5300 C   0  0  0  0  0  1  0  0  0  0  0  0
  184.6710  179.2390  144.2890 N   0  0  0  0  0  2  0  0  0  0  0  0
  185.1070  177.0210  143.6050 O   0  0  0  0  0  0  0  0  0  0  0  0
  191.2340  176.3580  147.9820 O   0  0  0  0  0  0  0  0  0  0  0  0
  190.8540  178.3510  149.2270 C   0  0  0  0  0  1  0  0  0  0  0  0
  191.8450  177.2710  148.8900 C   0  0  0  0  0  2  0  0  0  0  0  0
  193.9290  173.3500  145.2270 O   0  0  0  0  0  0  0  0  0  0  0  0
  195.5620  174.2700  143.6690 C   0  0  1  0  0  3  0  0  0  0  0  0
  197.3490  171.8430  145.0030 O   0  0  0  0  0  0  0  0  0  0  0  0
  195.6390  171.2480  143.5290 O   0  0  0  0  0  1  0  0  0  0  0  0
  196.1420  173.8660  145.9890 C   0  0  0  0  0  2  0  0  0  0  0  0
  196.7460  175.0710  144.2480 C   0  0  1  0  0  3  0  0  0  0  0  0
  195.0460  173.9100  141.0740 C   0  0  1  0  0  3  0  0  0  0  0  0
  195.9200  171.8260  144.7600 C   0  0  0  0  0  0  0  0  0  0  0  0
  197.4240  174.1340  145.2320 C   0  0  2  0  0  3  0  0  0  0  0  0
  195.9570  173.6120  142.2880 C   0  0  1  0  0  3  0  0  0  0  0  0
  197.8950  172.9490  144.5060 O   0  0  0  0  0  0  0  0  0  0  0  0
  196.2640  174.7570  141.3110 C   0  0  2  0  0  3  0  0  0  0  0  0
  197.6330  175.6510  143.3320 O   0  0  0  0  0  0  0  0  0  0  0  0
  195.8730  176.1670  141.7410 C   0  0  0  0  0  2  0  0  0  0  0  0
  195.3160  173.2830  144.8620 C   0  0  1  0  0  0  0  0  0  0  0  0
  196.9060  176.7160  142.7460 C   0  0  0  0  0  2  0  0  0  0  0  0
  195.3780  171.0100  145.7600 O   0  0  0  0  0  1  0  0  0  0  0  0
  195.4690  173.1120  139.7880 C   0  0  0  0  0  2  0  0  0  0  0  0
  195.9870  173.9850  138.7620 O   0  0  0  0  0  0  0  0  0  0  0  0
  196.2780  173.2320  137.6150 C   0  0  1  0  0  3  0  0  0  0  0  0
  195.5260  172.4360  135.5100 C   0  0  2  0  0  3  0  0  0  0  0  0
  194.7280  173.0890  134.5400 O   0  0  0  0  0  1  0  0  0  0  0  0
  194.7940  171.4450  136.4150 C   0  0  1  0  0  3  0  0  0  0  0  0
  194.9850  172.9130  136.8290 C   0  0  1  0  0  3  0  0  0  0  0  0
  193.4430  171.0530  135.8250 C   0  0  1  0  0  3  0  0  0  0  0  0
  193.5460  169.7300  135.3210 O   0  0  0  0  0  1  0  0  0  0  0  0
  192.2890  171.1900  136.7550 N   0  0  0  0  0  0  0  0  0  0  0  0
  190.2840  170.8730  135.4830 C   0  0  0  0  0  2  0  0  0  0  0  0
  190.5810  172.3550  135.5320 C   0  0  2  0  0  3  0  0  0  0  0  0
  191.6480  172.5040  136.5850 C   0  0  0  0  0  2  0  0  0  0  0  0
  191.2180  170.2290  136.4690 C   0  0  0  0  0  2  0  0  0  0  0  0
  189.4440  173.0740  135.9170 O   0  0  0  0  0  1  0  0  0  0  0  0
  197.1970  174.0140  136.8790 O   0  0  0  0  0  0  0  0  0  0  0  0
  197.1250  175.3390  137.2860 C   0  0  0  0  0  1  0  0  0  0  0  0
  1  5  1  0  0  0  0
  2  1  2  0  0  0  0
  3  5  2  0  0  0  0
  4  3  1  0  0  0  0
  5 33  1  0  0  0  0
  6  4  2  0  0  0  0
  6  2  1  0  0  0  0
  7  8  1  0  0  0  0
  7  4  1  0  0  0  0
  9  8  1  0  0  0  0
  9 10  1  0  0  0  0
 10 11  1  0  0  0  0
 11 12  2  0  0  0  0
 13 11  1  0  0  0  0
 14 16  2  0  0  0  0
 14 19  1  0  0  0  0
 15 17  2  0  0  0  0
 16 15  1  0  0  0  0
 17 18  1  0  0  0  0
 19 20  2  0  0  0  0
 20 17  1  0  0  0  0
 20 13  1  0  0  0  0
 21 22  1  0  0  0  0
 22 19  1  0  0  0  0
 23 21  2  0  0  0  0
 24 21  1  0  0  0  0
 24 25  1  0  0  0  0
 25 27  1  0  0  0  0
 27 26  1  6  0  0  0
 27 28  1  0  0  0  0
 28 29  1  0  0  0  0
 29 32  2  0  0  0  0
 29 31  1  0  0  0  0
 31 30  1  0  0  0  0
 33 35  1  0  0  0  0
 35 34  1  0  0  0  0
 36  2  1  0  0  0  0
 37 41  1  0  0  0  0
 37 50  1  0  0  0  0
 39 43  1  0  0  0  0
 41 44  1  0  0  0  0
 42 47  1  0  0  0  0
 42 45  1  0  0  0  0
 43 50  1  0  0  0  0
 43 38  1  0  0  0  0
 43 52  1  0  0  0  0
 44 40  1  0  0  0  0
 45 37  1  0  0  0  0
 46 38  1  0  0  0  0
 46 44  1  0  0  0  0
 47 49  1  0  0  0  0
 47 45  1  0  0  0  0
 48 41  1  0  0  0  0
 49 51  1  0  0  0  0
 50 36  1  0  0  0  0
 50 40  1  0  0  0  0
 51 48  1  0  0  0  0
 53 42  1  0  0  0  0
 54 53  1  0  0  0  0
 55 54  1  0  0  0  0
 56 58  1  0  0  0  0
 56 59  1  0  0  0  0
 57 56  1  0  0  0  0
 58 59  1  0  0  0  0
 59 55  1  0  0  0  0
 60 58  1  0  0  0  0
 60 62  1  0  0  0  0
 61 60  1  0  0  0  0
 63 64  1  0  0  0  0
 63 66  1  0  0  0  0
 64 67  1  0  0  0  0
 64 65  1  0  0  0  0
 65 62  1  0  0  0  0
 66 62  1  0  0  0  0
 68 69  1  0  0  0  0
 68 55  1  0  0  0  0
M  END
>  <MODEL>
1

>  <REMARK>
 VINA RESULT:      -6.4      0.000      0.000
  Name = 
  24 active torsions:
  status: ('A' for Active; 'I' for Inactive)
    1  A    between atoms: C_1  and  N_6
    2  A    between atoms: C_1  and  C_62
    3  A    between atoms: C_2  and  C_8
    4  A    between atoms: C_4  and  C_52
    5  A    between atoms: C_4  and  C_58
    6  A    between atoms: C_8  and  C_54
    7  A    between atoms: C_13  and  O_18
    8  A    between atoms: O_14  and  C_40
    9  A    between atoms: O_14  and  C_61
   10  A    between atoms: C_17  and  C_29
   11  A    between atoms: O_18  and  C_56
   12  A    between atoms: O_21  and  C_38
   13  A    between atoms: O_21  and  C_44
   14  A    between atoms: C_23  and  C_43
   15  A    between atoms: C_27  and  C_29
   16  A    between atoms: C_27  and  C_46
   17  A    between atoms: C_28  and  C_40
   18  A    between atoms: N_30  and  C_67
   19  A    between atoms: O_39  and  C_61
   20  A    between atoms: C_43  and  C_64
   21  A    between atoms: C_46  and  C_52
   22  A    between atoms: C_54  and  C_64
   23  A    between atoms: C_58  and  C_68
   24  A    between atoms: C_61  and  C_66
                            x       y       z     vdW  Elec       q    Type
                         _______ _______ _______ _____ _____    ______ ____

>  <TORSDO>
F 24

$$$$
=
 OpenBabel11072408393D

 69 76  0  0  1  0  0  0  0  0999 V2000
  189.0820  173.0750  139.2200 C   0  0  0  0  0  3  0  0  0  0  0  0
  188.6220  173.4590  137.9600 C   0  0  0  0  0  0  0  0  0  0  0  0
  187.9570  174.9820  140.2140 C   0  0  0  0  0  3  0  0  0  0  0  0
  187.5000  175.3660  138.9390 C   0  0  0  0  0  0  0  0  0  0  0  0
  188.7220  173.8200  140.3750 C   0  0  0  0  0  0  0  0  0  0  0  0
  187.8480  174.5980  137.8180 C   0  0  0  0  0  3  0  0  0  0  0  0
  186.7620  176.6390  138.7490 C   0  0  0  0  0  2  0  0  0  0  0  0
  186.9400  177.5480  139.9700 C   0  0  0  0  0  2  0  0  0  0  0  0
  185.5960  177.9120  140.5840 C   0  0  0  0  0  2  0  0  0  0  0  0
  185.7810  178.4840  142.0120 C   0  0  0  0  0  2  0  0  0  0  0  0
  186.8700  177.7980  142.8270 C   0  0  0  0  0  0  0  0  0  0  0  0
  188.0120  178.2260  142.8560 O   0  0  0  0  0  0  0  0  0  0  0  0
  186.4910  176.7050  143.8040 C   0  0  0  0  0  2  0  0  0  0  0  0
  187.5050  177.7500  147.3400 C   0  0  0  0  0  3  0  0  0  0  0  0
  185.2640  178.5200  146.9530 C   0  0  0  0  0  3  0  0  0  0  0  0
  186.3810  178.4470  147.7700 C   0  0  0  0  0  3  0  0  0  0  0  0
  185.2740  177.9140  145.6830 C   0  0  0  0  0  0  0  0  0  0  0  0
  184.1280  177.8540  144.9650 F   0  0  0  0  0  0  0  0  0  0  0  0
  187.5390  177.1420  146.0730 C   0  0  0  0  0  0  0  0  0  0  0  0
  186.4360  177.2840  145.2040 C   0  0  0  0  0  0  0  0  0  0  0  0
  189.0600  175.0770  146.3540 C   0  0  0  0  0  0  0  0  0  0  0  0
  188.6180  176.2790  145.6990 N   0  0  0  0  0  2  0  0  0  0  0  0
  188.6610  174.7530  147.5130 O   0  0  0  0  0  0  0  0  0  0  0  0
  189.9710  174.1790  145.6160 C   0  0  0  0  0  2  0  0  0  0  0  0
  190.6750  174.9650  144.5270 C   0  0  0  0  0  2  0  0  0  0  0  0
  192.5560  173.8330  145.6250 N   0  0  0  0  0  1  0  0  0  0  0  0
  192.1830  174.7860  144.5790 C   0  0  2  0  0  3  0  0  0  0  0  0
  192.8990  176.1230  144.7790 C   0  0  0  0  0  2  0  0  0  0  0  0
  193.0080  176.4720  146.2410 C   0  0  0  0  0  0  0  0  0  0  0  0
  191.8750  177.0640  148.4060 C   0  0  0  0  0  1  0  0  0  0  0  0
  191.8100  176.7260  146.9940 N   0  0  0  0  0  2  0  0  0  0  0  0
  194.1410  176.3850  146.8220 O   0  0  0  0  0  0  0  0  0  0  0  0
  189.1180  173.4270  141.6470 O   0  0  0  0  0  0  0  0  0  0  0  0
  189.1520  171.8490  143.4280 C   0  0  0  0  0  1  0  0  0  0  0  0
  189.4200  172.0710  141.9650 C   0  0  0  0  0  2  0  0  0  0  0  0
  188.9420  172.7210  136.8120 O   0  0  0  0  0  0  0  0  0  0  0  0
  190.9000  171.2700  136.8650 C   0  0  1  0  0  3  0  0  0  0  0  0
  192.0720  173.7450  135.0310 O   0  0  0  0  0  0  0  0  0  0  0  0
  191.7670  174.1350  137.3120 O   0  0  0  0  0  1  0  0  0  0  0  0
  190.0740  172.1760  134.7720 C   0  0  0  0  0  2  0  0  0  0  0  0
  191.2780  170.5160  135.5730 C   0  0  1  0  0  3  0  0  0  0  0  0
  192.1200  171.0240  139.2260 C   0  0  1  0  0  3  0  0  0  0  0  0
  191.1180  173.8560  136.1160 C   0  0  0  0  0  0  0  0  0  0  0  0
  191.4440  171.5910  134.5130 C   0  0  2  0  0  3  0  0  0  0  0  0
  192.1780  171.5160  137.7610 C   0  0  1  0  0  3  0  0  0  0  0  0
  192.5200  172.4980  134.9260 O   0  0  0  0  0  0  0  0  0  0  0  0
  192.7160  170.1360  138.1700 C   0  0  2  0  0  3  0  0  0  0  0  0
  192.3630  169.6330  135.6440 O   0  0  0  0  0  0  0  0  0  0  0  0
  191.8220  168.9300  137.9040 C   0  0  0  0  0  2  0  0  0  0  0  0
  190.2430  172.5450  136.2300 C   0  0  1  0  0  0  0  0  0  0  0  0
  191.8930  168.5410  136.4130 C   0  0  0  0  0  2  0  0  0  0  0  0
  190.3060  174.9500  135.7950 O   0  0  0  0  0  1  0  0  0  0  0  0
  193.3970  171.4240  140.0500 C   0  0  0  0  0  2  0  0  0  0  0  0
  193.1030  171.5720  141.4560 O   0  0  0  0  0  0  0  0  0  0  0  0
  194.2810  171.3950  142.1970 C   0  0  1  0  0  3  0  0  0  0  0  0
  195.9450  172.3310  143.6050 C   0  0  2  0  0  3  0  0  0  0  0  0
  195.7910  173.1010  144.7830 O   0  0  0  0  0  1  0  0  0  0  0  0
  196.2410  173.1190  142.3300 C   0  0  1  0  0  3  0  0  0  0  0  0
  194.8020  172.7520  142.7250 C   0  0  1  0  0  3  0  0  0  0  0  0
  196.7180  174.5330  142.6530 C   0  0  1  0  0  3  0  0  0  0  0  0
  197.9410  174.4360  143.3670 O   0  0  0  0  0  1  0  0  0  0  0  0
  196.8470  175.4350  141.4770 N   0  0  0  0  0  0  0  0  0  0  0  0
  194.7130  176.4570  141.1020 C   0  0  0  0  0  2  0  0  0  0  0  0
  194.7990  175.2180  140.2410 C   0  0  2  0  0  3  0  0  0  0  0  0
  196.2490  174.8120  140.2850 C   0  0  0  0  0  2  0  0  0  0  0  0
  196.0980  176.6860  141.6420 C   0  0  0  0  0  2  0  0  0  0  0  0
  194.4370  175.5080  138.9210 O   0  0  0  0  0  1  0  0  0  0  0  0
  193.9390  170.4910  143.2290 O   0  0  0  0  0  0  0  0  0  0  0  0
  192.5710  170.5330  143.4630 C   0  0  0  0  0  1  0  0  0  0  0  0
  1  5  1  0  0  0  0
  2  1  2  0  0  0  0
  3  5  2  0  0  0  0
  4  3  1  0  0  0  0
  5 33  1  0  0  0  0
  6  2  1  0  0  0  0
  6  4  2  0  0  0  0
  7  4  1  0  0  0  0
  7  8  1  0  0  0  0
  8  9  1  0  0  0  0
  9 10  1  0  0  0  0
 10 11  1  0  0  0  0
 11 12  2  0  0  0  0
 11 13  1  0  0  0  0
 13 20  1  0  0  0  0
 14 16  1  0  0  0  0
 15 16  2  0  0  0  0
 17 15  1  0  0  0  0
 18 17  1  0  0  0  0
 19 14  2  0  0  0  0
 20 17  2  0  0  0  0
 20 19  1  0  0  0  0
 21 23  2  0  0  0  0
 22 19  1  0  0  0  0
 22 21  1  0  0  0  0
 24 21  1  0  0  0  0
 25 27  1  0  0  0  0
 25 24  1  0  0  0  0
 27 28  1  0  0  0  0
 27 26  1  1  0  0  0
 28 29  1  0  0  0  0
 29 32  2  0  0  0  0
 29 31  1  0  0  0  0
 31 30  1  0  0  0  0
 33 35  1  0  0  0  0
 35 34  1  0  0  0  0
 36  2  1  0  0  0  0
 37 45  1  0  0  0  0
 38 43  1  0  0  0  0
 40 50  1  0  0  0  0
 41 48  1  0  0  0  0
 41 37  1  0  0  0  0
 42 53  1  0  0  0  0
 43 50  1  0  0  0  0
 43 39  1  0  0  0  0
 44 40  1  0  0  0  0
 44 46  1  0  0  0  0
 44 41  1  0  0  0  0
 45 47  1  0  0  0  0
 45 42  1  0  0  0  0
 46 38  1  0  0  0  0
 47 42  1  0  0  0  0
 48 51  1  0  0  0  0
 49 47  1  0  0  0  0
 50 36  1  0  0  0  0
 50 37  1  0  0  0  0
 51 49  1  0  0  0  0
 52 43  1  0  0  0  0
 53 54  1  0  0  0  0
 54 55  1  0  0  0  0
 55 59  1  0  0  0  0
 55 68  1  0  0  0  0
 56 57  1  0  0  0  0
 58 60  1  0  0  0  0
 58 59  1  0  0  0  0
 58 56  1  0  0  0  0
 59 56  1  0  0  0  0
 60 61  1  0  0  0  0
 62 66  1  0  0  0  0
 62 60  1  0  0  0  0
 63 66  1  0  0  0  0
 64 65  1  0  0  0  0
 64 63  1  0  0  0  0
 65 62  1  0  0  0  0
 67 64  1  0  0  0  0
 68 69  1  0  0  0  0
M  END
>  <MODEL>
2

>  <REMARK>
 VINA RESULT:      -6.2      2.727      8.306
  Name = 
  24 active torsions:
  status: ('A' for Active; 'I' for Inactive)
    1  A    between atoms: C_1  and  N_6
    2  A    between atoms: C_1  and  C_62
    3  A    between atoms: C_2  and  C_8
    4  A    between atoms: C_4  and  C_52
    5  A    between atoms: C_4  and  C_58
    6  A    between atoms: C_8  and  C_54
    7  A    between atoms: C_13  and  O_18
    8  A    between atoms: O_14  and  C_40
    9  A    between atoms: O_14  and  C_61
   10  A    between atoms: C_17  and  C_29
   11  A    between atoms: O_18  and  C_56
   12  A    between atoms: O_21  and  C_38
   13  A    between atoms: O_21  and  C_44
   14  A    between atoms: C_23  and  C_43
   15  A    between atoms: C_27  and  C_29
   16  A    between atoms: C_27  and  C_46
   17  A    between atoms: C_28  and  C_40
   18  A    between atoms: N_30  and  C_67
   19  A    between atoms: O_39  and  C_61
   20  A    between atoms: C_43  and  C_64
   21  A    between atoms: C_46  and  C_52
   22  A    between atoms: C_54  and  C_64
   23  A    between atoms: C_58  and  C_68
   24  A    between atoms: C_61  and  C_66
                            x       y       z     vdW  Elec       q    Type
                         _______ _______ _______ _____ _____    ______ ____

>  <TORSDO>
F 24

$$$$
=
 OpenBabel11072408393D

 69 76  0  0  1  0  0  0  0  0999 V2000
  190.6970  170.0500  139.8320 C   0  0  0  0  0  3  0  0  0  0  0  0
  190.1120  171.2790  139.5280 C   0  0  0  0  0  0  0  0  0  0  0  0
  191.3230  170.8870  142.0220 C   0  0  0  0  0  3  0  0  0  0  0  0
  190.7360  172.1260  141.7060 C   0  0  0  0  0  0  0  0  0  0  0  0
  191.2840  169.8270  141.1070 C   0  0  0  0  0  0  0  0  0  0  0  0
  190.1410  172.3110  140.4510 C   0  0  0  0  0  3  0  0  0  0  0  0
  190.8490  173.2770  142.6360 C   0  0  0  0  0  2  0  0  0  0  0  0
  189.5270  173.4980  143.3790 C   0  0  0  0  0  2  0  0  0  0  0  0
  189.1150  174.9620  143.3450 C   0  0  0  0  0  2  0  0  0  0  0  0
  187.7500  175.1330  142.6330 C   0  0  0  0  0  2  0  0  0  0  0  0
  187.7650  176.1190  141.4720 C   0  0  0  0  0  0  0  0  0  0  0  0
  187.8040  175.7400  140.3120 O   0  0  0  0  0  0  0  0  0  0  0  0
  187.4950  177.5850  141.7370 C   0  0  0  0  0  2  0  0  0  0  0  0
  183.8600  178.2180  142.7420 C   0  0  0  0  0  3  0  0  0  0  0  0
  183.9870  178.2730  140.3450 C   0  0  0  0  0  3  0  0  0  0  0  0
  183.2470  178.4160  141.5090 C   0  0  0  0  0  3  0  0  0  0  0  0
  185.3560  177.9540  140.4100 C   0  0  0  0  0  0  0  0  0  0  0  0
  186.0250  177.6590  139.2690 F   0  0  0  0  0  0  0  0  0  0  0  0
  185.2280  177.9050  142.8300 C   0  0  0  0  0  0  0  0  0  0  0  0
  186.0020  177.8400  141.6520 C   0  0  0  0  0  0  0  0  0  0  0  0
  185.8130  178.2590  145.3170 C   0  0  0  0  0  0  0  0  0  0  0  0
  185.8180  177.5290  144.0780 N   0  0  0  0  0  2  0  0  0  0  0  0
  185.4530  179.4720  145.3860 O   0  0  0  0  0  0  0  0  0  0  0  0
  186.1960  177.5370  146.5490 C   0  0  0  0  0  2  0  0  0  0  0  0
  187.1050  176.3790  146.1880 C   0  0  0  0  0  2  0  0  0  0  0  0
  189.2600  177.4650  145.7350 N   0  0  0  0  0  1  0  0  0  0  0  0
  188.5300  176.6030  146.6660 C   0  0  2  0  0  3  0  0  0  0  0  0
  189.2660  175.2780  146.8730 C   0  0  0  0  0  2  0  0  0  0  0  0
  190.7320  175.5020  147.1340 C   0  0  0  0  0  0  0  0  0  0  0  0
  193.1160  175.2840  146.3650 C   0  0  0  0  0  1  0  0  0  0  0  0
  191.6930  175.0840  146.1490 N   0  0  0  0  0  2  0  0  0  0  0  0
  191.0900  176.1930  148.1460 O   0  0  0  0  0  0  0  0  0  0  0  0
  191.8200  168.5940  141.4560 O   0  0  0  0  0  0  0  0  0  0  0  0
  193.9980  169.3690  140.8900 C   0  0  0  0  0  1  0  0  0  0  0  0
  193.1020  168.1670  141.0030 C   0  0  0  0  0  2  0  0  0  0  0  0
  189.5040  171.5090  138.2860 O   0  0  0  0  0  0  0  0  0  0  0  0
  191.4890  171.2370  136.8980 C   0  0  1  0  0  3  0  0  0  0  0  0
  190.1890  173.9320  135.5160 O   0  0  0  0  0  0  0  0  0  0  0  0
  191.1690  174.1580  137.6220 O   0  0  0  0  0  1  0  0  0  0  0  0
  189.3030  171.5690  135.8990 C   0  0  0  0  0  2  0  0  0  0  0  0
  191.2970  170.7510  135.4460 C   0  0  1  0  0  3  0  0  0  0  0  0
  193.8330  171.6800  138.0950 C   0  0  1  0  0  3  0  0  0  0  0  0
  190.1270  173.5700  136.9170 C   0  0  0  0  0  0  0  0  0  0  0  0
  190.3390  171.7440  134.8120 C   0  0  2  0  0  3  0  0  0  0  0  0
  192.8020  172.1070  137.0250 C   0  0  1  0  0  3  0  0  0  0  0  0
  190.9530  173.0760  134.8430 O   0  0  0  0  0  0  0  0  0  0  0  0
  193.9860  171.1910  136.6820 C   0  0  2  0  0  3  0  0  0  0  0  0
  192.4540  170.5330  134.6880 O   0  0  0  0  0  0  0  0  0  0  0  0
  193.7100  169.6950  136.5900 C   0  0  0  0  0  2  0  0  0  0  0  0
  190.1320  171.9990  137.0910 C   0  0  1  0  0  0  0  0  0  0  0  0
  193.0370  169.3670  135.2410 C   0  0  0  0  0  2  0  0  0  0  0  0
  188.9230  174.1020  137.3920 O   0  0  0  0  0  1  0  0  0  0  0  0
  195.0390  172.6810  138.2090 C   0  0  0  0  0  2  0  0  0  0  0  0
  195.6980  172.5830  139.4890 O   0  0  0  0  0  0  0  0  0  0  0  0
  196.8870  173.3270  139.4570 C   0  0  1  0  0  3  0  0  0  0  0  0
  195.8920  175.2230  140.4800 C   0  0  2  0  0  3  0  0  0  0  0  0
  196.4690  176.4780  140.7900 O   0  0  0  0  0  1  0  0  0  0  0  0
  195.7780  174.2380  141.6430 C   0  0  1  0  0  3  0  0  0  0  0  0
  196.9980  174.2310  140.7070 C   0  0  1  0  0  3  0  0  0  0  0  0
  195.9280  174.9490  142.9850 C   0  0  1  0  0  3  0  0  0  0  0  0
  195.0950  176.0980  142.9730 O   0  0  0  0  0  1  0  0  0  0  0  0
  195.6630  174.1000  144.1770 N   0  0  0  0  0  0  0  0  0  0  0  0
  197.7450  173.7620  145.3120 C   0  0  0  0  0  2  0  0  0  0  0  0
  197.5340  172.6050  144.3620 C   0  0  2  0  0  3  0  0  0  0  0  0
  196.0960  172.7160  143.9270 C   0  0  0  0  0  2  0  0  0  0  0  0
  196.4430  174.5140  145.3490 C   0  0  0  0  0  2  0  0  0  0  0  0
  197.7290  171.3850  145.0190 O   0  0  0  0  0  1  0  0  0  0  0  0
  197.9230  172.3700  139.3690 O   0  0  0  0  0  0  0  0  0  0  0  0
  197.4800  171.1450  139.8500 C   0  0  0  0  0  1  0  0  0  0  0  0
  1  5  1  0  0  0  0
  2  1  2  0  0  0  0
  2  6  1  0  0  0  0
  4  3  1  0  0  0  0
  4  7  1  0  0  0  0
  5 33  1  0  0  0  0
  5  3  2  0  0  0  0
  6  4  2  0  0  0  0
  7  8  1  0  0  0  0
  9  8  1  0  0  0  0
 10  9  1  0  0  0  0
 11 13  1  0  0  0  0
 11 10  1  0  0  0  0
 12 11  2  0  0  0  0
 14 19  1  0  0  0  0
 15 17  2  0  0  0  0
 15 16  1  0  0  0  0
 16 14  2  0  0  0  0
 17 20  1  0  0  0  0
 18 17  1  0  0  0  0
 19 22  1  0  0  0  0
 20 13  1  0  0  0  0
 20 19  2  0  0  0  0
 21 23  2  0  0  0  0
 21 24  1  0  0  0  0
 22 21  1  0  0  0  0
 25 24  1  0  0  0  0
 25 27  1  0  0  0  0
 27 26  1  6  0  0  0
 27 28  1  0  0  0  0
 28 29  1  0  0  0  0
 29 32  2  0  0  0  0
 31 30  1  0  0  0  0
 31 29  1  0  0  0  0
 34 35  1  0  0  0  0
 35 33  1  0  0  0  0
 36  2  1  0  0  0  0
 37 45  1  0  0  0  0
 37 50  1  0  0  0  0
 38 43  1  0  0  0  0
 40 50  1  0  0  0  0
 41 37  1  0  0  0  0
 42 53  1  0  0  0  0
 43 50  1  0  0  0  0
 43 52  1  0  0  0  0
 43 39  1  0  0  0  0
 44 46  1  0  0  0  0
 44 41  1  0  0  0  0
 44 40  1  0  0  0  0
 45 42  1  0  0  0  0
 46 38  1  0  0  0  0
 47 45  1  0  0  0  0
 47 42  1  0  0  0  0
 48 51  1  0  0  0  0
 48 41  1  0  0  0  0
 49 47  1  0  0  0  0
 50 36  1  0  0  0  0
 51 49  1  0  0  0  0
 53 54  1  0  0  0  0
 55 54  1  0  0  0  0
 55 59  1  0  0  0  0
 56 59  1  0  0  0  0
 56 57  1  0  0  0  0
 56 58  1  0  0  0  0
 58 60  1  0  0  0  0
 59 58  1  0  0  0  0
 60 62  1  0  0  0  0
 61 60  1  0  0  0  0
 62 66  1  0  0  0  0
 63 66  1  0  0  0  0
 64 67  1  0  0  0  0
 64 63  1  0  0  0  0
 65 62  1  0  0  0  0
 65 64  1  0  0  0  0
 68 55  1  0  0  0  0
 68 69  1  0  0  0  0
M  END
>  <MODEL>
3

>  <REMARK>
 VINA RESULT:      -6.0      2.626      8.175
  Name = 
  24 active torsions:
  status: ('A' for Active; 'I' for Inactive)
    1  A    between atoms: C_1  and  N_6
    2  A    between atoms: C_1  and  C_62
    3  A    between atoms: C_2  and  C_8
    4  A    between atoms: C_4  and  C_52
    5  A    between atoms: C_4  and  C_58
    6  A    between atoms: C_8  and  C_54
    7  A    between atoms: C_13  and  O_18
    8  A    between atoms: O_14  and  C_40
    9  A    between atoms: O_14  and  C_61
   10  A    between atoms: C_17  and  C_29
   11  A    between atoms: O_18  and  C_56
   12  A    between atoms: O_21  and  C_38
   13  A    between atoms: O_21  and  C_44
   14  A    between atoms: C_23  and  C_43
   15  A    between atoms: C_27  and  C_29
   16  A    between atoms: C_27  and  C_46
   17  A    between atoms: C_28  and  C_40
   18  A    between atoms: N_30  and  C_67
   19  A    between atoms: O_39  and  C_61
   20  A    between atoms: C_43  and  C_64
   21  A    between atoms: C_46  and  C_52
   22  A    between atoms: C_54  and  C_64
   23  A    between atoms: C_58  and  C_68
   24  A    between atoms: C_61  and  C_66
                            x       y       z     vdW  Elec       q    Type
                         _______ _______ _______ _____ _____    ______ ____

>  <TORSDO>
F 24

$$$$
=
 OpenBabel11072408393D

 69 76  0  0  1  0  0  0  0  0999 V2000
  192.7580  170.8300  144.6370 C   0  0  0  0  0  3  0  0  0  0  0  0
  191.8040  171.2010  143.6890 C   0  0  0  0  0  0  0  0  0  0  0  0
  193.5930  169.1180  143.1330 C   0  0  0  0  0  3  0  0  0  0  0  0
  192.6250  169.4950  142.1830 C   0  0  0  0  0  0  0  0  0  0  0  0
  193.6920  169.7980  144.3540 C   0  0  0  0  0  0  0  0  0  0  0  0
  191.7310  170.5340  142.4780 C   0  0  0  0  0  3  0  0  0  0  0  0
  192.4590  168.7250  140.9250 C   0  0  0  0  0  2  0  0  0  0  0  0
  192.0730  169.6570  139.7730 C   0  0  0  0  0  2  0  0  0  0  0  0
  191.1650  168.9520  138.7750 C   0  0  0  0  0  2  0  0  0  0  0  0
  191.9040  168.7090  137.4350 C   0  0  0  0  0  2  0  0  0  0  0  0
  192.8690  169.8190  137.0390 C   0  0  0  0  0  0  0  0  0  0  0  0
  194.0640  169.7420  137.2790 O   0  0  0  0  0  0  0  0  0  0  0  0
  192.3920  170.9310  136.1290 C   0  0  0  0  0  2  0  0  0  0  0  0
  191.0870  173.7380  138.3740 C   0  0  0  0  0  3  0  0  0  0  0  0
  189.1950  172.5410  137.5080 C   0  0  0  0  0  3  0  0  0  0  0  0
  189.7090  173.5910  138.2530 C   0  0  0  0  0  3  0  0  0  0  0  0
  190.0600  171.6430  136.8570 C   0  0  0  0  0  0  0  0  0  0  0  0
  189.5500  170.5340  136.2690 F   0  0  0  0  0  0  0  0  0  0  0  0
  191.9700  172.8570  137.7260 C   0  0  0  0  0  0  0  0  0  0  0  0
  191.4510  171.8370  136.9000 C   0  0  0  0  0  0  0  0  0  0  0  0
  194.2970  173.9700  137.7250 C   0  0  0  0  0  0  0  0  0  0  0  0
  193.3760  172.8970  137.9890 N   0  0  0  0  0  2  0  0  0  0  0  0
  193.9900  174.9620  136.9980 O   0  0  0  0  0  0  0  0  0  0  0  0
  195.6240  173.9200  138.3730 C   0  0  0  0  0  2  0  0  0  0  0  0
  195.4750  173.3750  139.7790 C   0  0  0  0  0  2  0  0  0  0  0  0
  194.9850  175.7080  140.3630 N   0  0  0  0  0  1  0  0  0  0  0  0
  195.6000  174.4650  140.8290 C   0  0  2  0  0  3  0  0  0  0  0  0
  197.0600  174.6950  141.2260 C   0  0  0  0  0  2  0  0  0  0  0  0
  197.3030  174.3110  142.6630 C   0  0  0  0  0  0  0  0  0  0  0  0
  197.1960  172.5740  144.4770 C   0  0  0  0  0  1  0  0  0  0  0  0
  196.9750  172.9810  143.1000 N   0  0  0  0  0  2  0  0  0  0  0  0
  197.9350  175.1140  143.4270 O   0  0  0  0  0  0  0  0  0  0  0  0
  194.6880  169.4500  145.2570 O   0  0  0  0  0  0  0  0  0  0  0  0
  195.6890  168.7550  147.3020 C   0  0  0  0  0  1  0  0  0  0  0  0
  194.3940  168.9850  146.5720 C   0  0  0  0  0  2  0  0  0  0  0  0
  190.8910  172.2340  143.9390 O   0  0  0  0  0  0  0  0  0  0  0  0
  191.4160  174.3780  144.9720 C   0  0  1  0  0  3  0  0  0  0  0  0
  190.4760  175.3990  141.9820 O   0  0  0  0  0  0  0  0  0  0  0  0
  188.8210  174.6190  143.4320 O   0  0  0  0  0  1  0  0  0  0  0  0
  192.2950  173.7980  142.7880 C   0  0  0  0  0  2  0  0  0  0  0  0
  192.6890  175.1150  144.5070 C   0  0  1  0  0  3  0  0  0  0  0  0
  189.7830  175.1730  146.9290 C   0  0  1  0  0  3  0  0  0  0  0  0
  189.9500  174.2590  142.7060 C   0  0  0  0  0  0  0  0  0  0  0  0
  192.5360  175.2750  143.0050 C   0  0  2  0  0  3  0  0  0  0  0  0
  190.3410  175.4060  145.5050 C   0  0  1  0  0  3  0  0  0  0  0  0
  191.3370  176.0760  142.7360 O   0  0  0  0  0  0  0  0  0  0  0  0
  190.9490  176.1010  146.7340 C   0  0  2  0  0  3  0  0  0  0  0  0
  193.0100  176.3100  145.1630 O   0  0  0  0  0  0  0  0  0  0  0  0
  192.2250  175.5030  147.3150 C   0  0  0  0  0  2  0  0  0  0  0  0
  191.0570  173.6290  143.6420 C   0  0  1  0  0  0  0  0  0  0  0  0
  193.4370  175.9130  146.4540 C   0  0  0  0  0  2  0  0  0  0  0  0
  189.5650  173.3360  141.7280 O   0  0  0  0  0  1  0  0  0  0  0  0
  188.6410  176.1840  147.3070 C   0  0  0  0  0  2  0  0  0  0  0  0
  187.4330  175.9330  146.5600 O   0  0  0  0  0  0  0  0  0  0  0  0
  186.7080  177.1270  146.4320 C   0  0  1  0  0  3  0  0  0  0  0  0
  186.7250  178.9280  144.8870 C   0  0  2  0  0  3  0  0  0  0  0  0
  185.6580  179.4610  144.1240 O   0  0  0  0  0  1  0  0  0  0  0  0
  187.6580  177.9700  144.1470 C   0  0  1  0  0  3  0  0  0  0  0  0
  186.4490  177.4510  144.9420 C   0  0  1  0  0  3  0  0  0  0  0  0
  187.4970  178.1030  142.6350 C   0  0  1  0  0  3  0  0  0  0  0  0
  188.7890  178.2480  142.0630 O   0  0  0  0  0  1  0  0  0  0  0  0
  186.7390  176.9990  141.9860 N   0  0  0  0  0  0  0  0  0  0  0  0
  186.4560  177.5670  139.6770 C   0  0  0  0  0  2  0  0  0  0  0  0
  185.2370  178.0450  140.4320 C   0  0  2  0  0  3  0  0  0  0  0  0
  185.3350  177.3910  141.7860 C   0  0  0  0  0  2  0  0  0  0  0  0
  187.2250  176.7000  140.6350 C   0  0  0  0  0  2  0  0  0  0  0  0
  184.0640  177.6240  139.7960 O   0  0  0  0  0  1  0  0  0  0  0  0
  185.5210  176.9230  147.1710 O   0  0  0  0  0  0  0  0  0  0  0  0
  184.8690  178.1330  147.3660 C   0  0  0  0  0  1  0  0  0  0  0  0
  2 36  1  0  0  0  0
  2  1  2  0  0  0  0
  3  5  2  0  0  0  0
  4  6  2  0  0  0  0
  4  3  1  0  0  0  0
  5  1  1  0  0  0  0
  5 33  1  0  0  0  0
  6  2  1  0  0  0  0
  7  4  1  0  0  0  0
  8  7  1  0  0  0  0
  9  8  1  0  0  0  0
 10  9  1  0  0  0  0
 11 12  2  0  0  0  0
 11 10  1  0  0  0  0
 13 20  1  0  0  0  0
 13 11  1  0  0  0  0
 15 16  2  0  0  0  0
 16 14  1  0  0  0  0
 17 20  2  0  0  0  0
 17 15  1  0  0  0  0
 18 17  1  0  0  0  0
 19 22  1  0  0  0  0
 19 14  2  0  0  0  0
 20 19  1  0  0  0  0
 21 22  1  0  0  0  0
 21 24  1  0  0  0  0
 23 21  2  0  0  0  0
 24 25  1  0  0  0  0
 25 27  1  0  0  0  0
 27 26  1  6  0  0  0
 27 28  1  0  0  0  0
 28 29  1  0  0  0  0
 29 31  1  0  0  0  0
 29 32  2  0  0  0  0
 31 30  1  0  0  0  0
 33 35  1  0  0  0  0
 35 34  1  0  0  0  0
 37 45  1  0  0  0  0
 38 43  1  0  0  0  0
 38 46  1  0  0  0  0
 40 44  1  0  0  0  0
 40 50  1  0  0  0  0
 41 37  1  0  0  0  0
 41 48  1  0  0  0  0
 42 53  1  0  0  0  0
 43 39  1  0  0  0  0
 43 50  1  0  0  0  0
 44 41  1  0  0  0  0
 45 47  1  0  0  0  0
 45 42  1  0  0  0  0
 46 44  1  0  0  0  0
 47 42  1  0  0  0  0
 47 49  1  0  0  0  0
 48 51  1  0  0  0  0
 50 36  1  0  0  0  0
 50 37  1  0  0  0  0
 51 49  1  0  0  0  0
 52 43  1  0  0  0  0
 54 53  1  0  0  0  0
 55 54  1  0  0  0  0
 55 68  1  0  0  0  0
 56 59  1  0  0  0  0
 57 56  1  0  0  0  0
 58 56  1  0  0  0  0
 58 59  1  0  0  0  0
 59 55  1  0  0  0  0
 60 58  1  0  0  0  0
 61 60  1  0  0  0  0
 62 60  1  0  0  0  0
 63 64  1  0  0  0  0
 63 66  1  0  0  0  0
 64 65  1  0  0  0  0
 65 62  1  0  0  0  0
 66 62  1  0  0  0  0
 67 64  1  0  0  0  0
 68 69  1  0  0  0  0
M  END
>  <MODEL>
4

>  <REMARK>
 VINA RESULT:      -6.0      2.785      9.204
  Name = 
  24 active torsions:
  status: ('A' for Active; 'I' for Inactive)
    1  A    between atoms: C_1  and  N_6
    2  A    between atoms: C_1  and  C_62
    3  A    between atoms: C_2  and  C_8
    4  A    between atoms: C_4  and  C_52
    5  A    between atoms: C_4  and  C_58
    6  A    between atoms: C_8  and  C_54
    7  A    between atoms: C_13  and  O_18
    8  A    between atoms: O_14  and  C_40
    9  A    between atoms: O_14  and  C_61
   10  A    between atoms: C_17  and  C_29
   11  A    between atoms: O_18  and  C_56
   12  A    between atoms: O_21  and  C_38
   13  A    between atoms: O_21  and  C_44
   14  A    between atoms: C_23  and  C_43
   15  A    between atoms: C_27  and  C_29
   16  A    between atoms: C_27  and  C_46
   17  A    between atoms: C_28  and  C_40
   18  A    between atoms: N_30  and  C_67
   19  A    between atoms: O_39  and  C_61
   20  A    between atoms: C_43  and  C_64
   21  A    between atoms: C_46  and  C_52
   22  A    between atoms: C_54  and  C_64
   23  A    between atoms: C_58  and  C_68
   24  A    between atoms: C_61  and  C_66
                            x       y       z     vdW  Elec       q    Type
                         _______ _______ _______ _____ _____    ______ ____

>  <TORSDO>
F 24

$$$$
=
 OpenBabel11072408393D

 69 76  0  0  1  0  0  0  0  0999 V2000
  189.2180  173.2260  139.2350 C   0  0  0  0  0  3  0  0  0  0  0  0
  188.6680  173.5090  137.9850 C   0  0  0  0  0  0  0  0  0  0  0  0
  188.0450  175.1270  140.1840 C   0  0  0  0  0  3  0  0  0  0  0  0
  187.4980  175.4100  138.9180 C   0  0  0  0  0  0  0  0  0  0  0  0
  188.8830  174.0190  140.3650 C   0  0  0  0  0  0  0  0  0  0  0  0
  187.8250  174.5960  137.8250 C   0  0  0  0  0  3  0  0  0  0  0  0
  186.6810  176.6290  138.7010 C   0  0  0  0  0  2  0  0  0  0  0  0
  186.8290  177.5910  139.8840 C   0  0  0  0  0  2  0  0  0  0  0  0
  185.4820  177.8780  140.5320 C   0  0  0  0  0  2  0  0  0  0  0  0
  185.6680  178.4570  141.9570 C   0  0  0  0  0  2  0  0  0  0  0  0
  186.7800  177.7960  142.7620 C   0  0  0  0  0  0  0  0  0  0  0  0
  187.9140  178.2470  142.7750 O   0  0  0  0  0  0  0  0  0  0  0  0
  186.4340  176.7030  143.7510 C   0  0  0  0  0  2  0  0  0  0  0  0
  187.4180  177.7640  147.2900 C   0  0  0  0  0  3  0  0  0  0  0  0
  185.1900  178.5540  146.8720 C   0  0  0  0  0  3  0  0  0  0  0  0
  186.2970  178.4760  147.7030 C   0  0  0  0  0  3  0  0  0  0  0  0
  185.2080  177.9380  145.6070 C   0  0  0  0  0  0  0  0  0  0  0  0
  184.0690  177.8850  144.8760 F   0  0  0  0  0  0  0  0  0  0  0  0
  187.4600  177.1470  146.0280 C   0  0  0  0  0  0  0  0  0  0  0  0
  186.3690  177.2930  145.1460 C   0  0  0  0  0  0  0  0  0  0  0  0
  188.9800  175.0880  146.3620 C   0  0  0  0  0  0  0  0  0  0  0  0
  188.5350  176.2700  145.6720 N   0  0  0  0  0  2  0  0  0  0  0  0
  188.5900  174.8020  147.5340 O   0  0  0  0  0  0  0  0  0  0  0  0
  189.8830  174.1650  145.6440 C   0  0  0  0  0  2  0  0  0  0  0  0
  190.5850  174.9170  144.5300 C   0  0  0  0  0  2  0  0  0  0  0  0
  192.4870  173.9710  145.7600 N   0  0  0  0  0  1  0  0  0  0  0  0
  192.0960  174.8780  144.6800 C   0  0  2  0  0  3  0  0  0  0  0  0
  192.6720  176.2770  144.9080 C   0  0  0  0  0  2  0  0  0  0  0  0
  192.8110  176.5790  146.3770 C   0  0  0  0  0  0  0  0  0  0  0  0
  191.7230  177.1300  148.5760 C   0  0  0  0  0  1  0  0  0  0  0  0
  191.6290  176.8360  147.1560 N   0  0  0  0  0  2  0  0  0  0  0  0
  193.9490  176.4510  146.9380 O   0  0  0  0  0  0  0  0  0  0  0  0
  189.3700  173.7230  141.6320 O   0  0  0  0  0  0  0  0  0  0  0  0
  187.4630  172.4760  142.3200 C   0  0  0  0  0  1  0  0  0  0  0  0
  188.9640  172.5620  142.3510 C   0  0  0  0  0  2  0  0  0  0  0  0
  188.9650  172.7220  136.8630 O   0  0  0  0  0  0  0  0  0  0  0  0
  191.1610  171.6880  137.0790 C   0  0  1  0  0  3  0  0  0  0  0  0
  191.7160  173.6800  134.5130 O   0  0  0  0  0  0  0  0  0  0  0  0
  191.4970  174.6600  136.6200 O   0  0  0  0  0  1  0  0  0  0  0  0
  190.0400  171.8000  134.9310 C   0  0  0  0  0  2  0  0  0  0  0  0
  191.5880  170.6630  136.0080 C   0  0  1  0  0  3  0  0  0  0  0  0
  192.5610  172.3410  139.2560 C   0  0  1  0  0  3  0  0  0  0  0  0
  190.8340  173.9440  135.6310 C   0  0  0  0  0  0  0  0  0  0  0  0
  191.4760  171.3950  134.6820 C   0  0  2  0  0  3  0  0  0  0  0  0
  192.4260  172.3880  137.7160 C   0  0  1  0  0  3  0  0  0  0  0  0
  192.3850  172.5460  134.7010 O   0  0  0  0  0  0  0  0  0  0  0  0
  193.2420  171.2940  138.4210 C   0  0  2  0  0  3  0  0  0  0  0  0
  192.8230  170.0280  136.1890 O   0  0  0  0  0  0  0  0  0  0  0  0
  192.5780  169.9340  138.6030 C   0  0  0  0  0  2  0  0  0  0  0  0
  190.2330  172.5990  136.2020 C   0  0  1  0  0  0  0  0  0  0  0  0
  192.6220  169.1450  137.2780 C   0  0  0  0  0  2  0  0  0  0  0  0
  189.8090  174.7500  135.1210 O   0  0  0  0  0  1  0  0  0  0  0  0
  193.7910  173.1660  139.7820 C   0  0  0  0  0  2  0  0  0  0  0  0
  193.3770  174.3170  140.5470 O   0  0  0  0  0  0  0  0  0  0  0  0
  194.4460  174.7570  141.3410 C   0  0  1  0  0  3  0  0  0  0  0  0
  195.9220  174.1550  143.0980 C   0  0  2  0  0  3  0  0  0  0  0  0
  197.2550  173.6820  143.0240 O   0  0  0  0  0  1  0  0  0  0  0  0
  194.8490  173.0880  143.3120 C   0  0  1  0  0  3  0  0  0  0  0  0
  195.2410  173.5540  141.9000 C   0  0  1  0  0  3  0  0  0  0  0  0
  195.4610  171.7830  143.8140 C   0  0  1  0  0  3  0  0  0  0  0  0
  196.3940  172.0950  144.8380 O   0  0  0  0  0  1  0  0  0  0  0  0
  194.4780  170.7630  144.2690 N   0  0  0  0  0  0  0  0  0  0  0  0
  194.3980  169.0340  142.6130 C   0  0  0  0  0  2  0  0  0  0  0  0
  193.3100  170.0370  142.3010 C   0  0  2  0  0  3  0  0  0  0  0  0
  193.2140  170.9040  143.5290 C   0  0  0  0  0  2  0  0  0  0  0  0
  194.9130  169.3920  143.9800 C   0  0  0  0  0  2  0  0  0  0  0  0
  192.0870  169.3890  142.0920 O   0  0  0  0  0  1  0  0  0  0  0  0
  195.2170  175.5900  140.4990 O   0  0  0  0  0  0  0  0  0  0  0  0
  195.7450  176.6460  141.2300 C   0  0  0  0  0  1  0  0  0  0  0  0
  1  5  1  0  0  0  0
  2  1  2  0  0  0  0
  3  5  2  0  0  0  0
  4  3  1  0  0  0  0
  5 33  1  0  0  0  0
  6  2  1  0  0  0  0
  6  4  2  0  0  0  0
  7  4  1  0  0  0  0
  7  8  1  0  0  0  0
  8  9  1  0  0  0  0
  9 10  1  0  0  0  0
 10 11  1  0  0  0  0
 11 12  2  0  0  0  0
 11 13  1  0  0  0  0
 13 20  1  0  0  0  0
 14 16  1  0  0  0  0
 15 16  2  0  0  0  0
 17 15  1  0  0  0  0
 18 17  1  0  0  0  0
 19 14  2  0  0  0  0
 20 17  2  0  0  0  0
 20 19  1  0  0  0  0
 21 23  2  0  0  0  0
 22 19  1  0  0  0  0
 22 21  1  0  0  0  0
 24 21  1  0  0  0  0
 25 27  1  0  0  0  0
 25 24  1  0  0  0  0
 27 28  1  0  0  0  0
 27 26  1  1  0  0  0
 28 29  1  0  0  0  0
 29 32  2  0  0  0  0
 29 31  1  0  0  0  0
 31 30  1  0  0  0  0
 33 35  1  0  0  0  0
 34 35  1  0  0  0  0
 36  2  1  0  0  0  0
 37 45  1  0  0  0  0
 38 46  1  0  0  0  0
 38 43  1  0  0  0  0
 40 50  1  0  0  0  0
 41 48  1  0  0  0  0
 41 37  1  0  0  0  0
 42 53  1  0  0  0  0
 43 50  1  0  0  0  0
 43 39  1  0  0  0  0
 44 46  1  0  0  0  0
 44 40  1  0  0  0  0
 44 41  1  0  0  0  0
 45 47  1  0  0  0  0
 45 42  1  0  0  0  0
 47 49  1  0  0  0  0
 47 42  1  0  0  0  0
 48 51  1  0  0  0  0
 50 36  1  0  0  0  0
 50 37  1  0  0  0  0
 51 49  1  0  0  0  0
 52 43  1  0  0  0  0
 53 54  1  0  0  0  0
 54 55  1  0  0  0  0
 55 59  1  0  0  0  0
 56 58  1  0  0  0  0
 57 56  1  0  0  0  0
 58 60  1  0  0  0  0
 59 56  1  0  0  0  0
 59 58  1  0  0  0  0
 60 62  1  0  0  0  0
 60 61  1  0  0  0  0
 63 66  1  0  0  0  0
 64 63  1  0  0  0  0
 64 65  1  0  0  0  0
 65 62  1  0  0  0  0
 66 62  1  0  0  0  0
 67 64  1  0  0  0  0
 68 69  1  0  0  0  0
 68 55  1  0  0  0  0
M  END
>  <MODEL>
5

>  <REMARK>
 VINA RESULT:      -5.8      2.797      8.112
  Name = 
  24 active torsions:
  status: ('A' for Active; 'I' for Inactive)
    1  A    between atoms: C_1  and  N_6
    2  A    between atoms: C_1  and  C_62
    3  A    between atoms: C_2  and  C_8
    4  A    between atoms: C_4  and  C_52
    5  A    between atoms: C_4  and  C_58
    6  A    between atoms: C_8  and  C_54
    7  A    between atoms: C_13  and  O_18
    8  A    between atoms: O_14  and  C_40
    9  A    between atoms: O_14  and  C_61
   10  A    between atoms: C_17  and  C_29
   11  A    between atoms: O_18  and  C_56
   12  A    between atoms: O_21  and  C_38
   13  A    between atoms: O_21  and  C_44
   14  A    between atoms: C_23  and  C_43
   15  A    between atoms: C_27  and  C_29
   16  A    between atoms: C_27  and  C_46
   17  A    between atoms: C_28  and  C_40
   18  A    between atoms: N_30  and  C_67
   19  A    between atoms: O_39  and  C_61
   20  A    between atoms: C_43  and  C_64
   21  A    between atoms: C_46  and  C_52
   22  A    between atoms: C_54  and  C_64
   23  A    between atoms: C_58  and  C_68
   24  A    between atoms: C_61  and  C_66
                            x       y       z     vdW  Elec       q    Type
                         _______ _______ _______ _____ _____    ______ ____

>  <TORSDO>
F 24

$$$$
=
 OpenBabel11072408393D

 69 76  0  0  1  0  0  0  0  0999 V2000
  190.6830  171.2480  140.7930 C   0  0  0  0  0  3  0  0  0  0  0  0
  189.8740  171.7620  139.7780 C   0  0  0  0  0  0  0  0  0  0  0  0
  189.6490  172.7580  142.3860 C   0  0  0  0  0  3  0  0  0  0  0  0
  188.8400  173.2750  141.3570 C   0  0  0  0  0  0  0  0  0  0  0  0
  190.5530  171.7200  142.1260 C   0  0  0  0  0  0  0  0  0  0  0  0
  188.9700  172.7730  140.0550 C   0  0  0  0  0  3  0  0  0  0  0  0
  187.9430  174.4300  141.6070 C   0  0  0  0  0  2  0  0  0  0  0  0
  188.7520  175.6520  142.0530 C   0  0  0  0  0  2  0  0  0  0  0  0
  188.0850  176.9460  141.6110 C   0  0  0  0  0  2  0  0  0  0  0  0
  187.7760  177.8500  142.8300 C   0  0  0  0  0  2  0  0  0  0  0  0
  188.3900  177.3710  144.1390 C   0  0  0  0  0  0  0  0  0  0  0  0
  189.4730  177.7830  144.5250 O   0  0  0  0  0  0  0  0  0  0  0  0
  187.5540  176.5500  145.0980 C   0  0  0  0  0  2  0  0  0  0  0  0
  185.1820  178.6930  147.1970 C   0  0  0  0  0  3  0  0  0  0  0  0
  187.3180  178.6620  148.2920 C   0  0  0  0  0  3  0  0  0  0  0  0
  185.9870  179.0480  148.2740 C   0  0  0  0  0  3  0  0  0  0  0  0
  187.8480  177.8930  147.2390 C   0  0  0  0  0  0  0  0  0  0  0  0
  189.1810  177.6610  147.1900 F   0  0  0  0  0  0  0  0  0  0  0  0
  185.6880  177.9190  146.1380 C   0  0  0  0  0  0  0  0  0  0  0  0
  187.0190  177.4540  146.1920 C   0  0  0  0  0  0  0  0  0  0  0  0
  184.5940  178.6500  143.9190 C   0  0  0  0  0  0  0  0  0  0  0  0
  184.9190  177.7020  144.9510 N   0  0  0  0  0  2  0  0  0  0  0  0
  184.7810  179.8960  144.0630 O   0  0  0  0  0  0  0  0  0  0  0  0
  184.0730  178.1300  142.6380 C   0  0  0  0  0  2  0  0  0  0  0  0
  182.6500  178.6130  142.4440 C   0  0  0  0  0  2  0  0  0  0  0  0
  182.9650  177.9050  140.1140 N   0  0  0  0  0  1  0  0  0  0  0  0
  182.0030  178.0000  141.2130 C   0  0  2  0  0  3  0  0  0  0  0  0
  180.7610  178.7840  140.7840 C   0  0  0  0  0  2  0  0  0  0  0  0
  179.6030  178.5240  141.7120 C   0  0  0  0  0  0  0  0  0  0  0  0
  177.9610  176.9010  142.7070 C   0  0  0  0  0  1  0  0  0  0  0  0
  179.0770  177.1900  141.8220 N   0  0  0  0  0  2  0  0  0  0  0  0
  179.2100  179.4500  142.4960 O   0  0  0  0  0  0  0  0  0  0  0  0
  191.3040  171.1840  143.1640 O   0  0  0  0  0  0  0  0  0  0  0  0
  192.6940  169.3270  143.6970 C   0  0  0  0  0  1  0  0  0  0  0  0
  192.6030  170.6350  142.9590 C   0  0  0  0  0  2  0  0  0  0  0  0
  189.9680  171.2900  138.4620 O   0  0  0  0  0  0  0  0  0  0  0  0
  192.3710  171.4290  138.0830 C   0  0  1  0  0  3  0  0  0  0  0  0
  191.2770  173.0150  135.4090 O   0  0  0  0  0  0  0  0  0  0  0  0
  191.1050  174.1070  137.4650 O   0  0  0  0  0  1  0  0  0  0  0  0
  190.8740  170.6690  136.3330 C   0  0  0  0  0  2  0  0  0  0  0  0
  192.9800  170.5580  136.9630 C   0  0  1  0  0  3  0  0  0  0  0  0
  193.7400  172.9900  139.7610 C   0  0  1  0  0  3  0  0  0  0  0  0
  190.6640  173.0200  136.7220 C   0  0  0  0  0  0  0  0  0  0  0  0
  192.2230  170.9350  135.7030 C   0  0  2  0  0  3  0  0  0  0  0  0
  193.2460  172.7230  138.3200 C   0  0  1  0  0  3  0  0  0  0  0  0
  192.4350  172.3620  135.4340 O   0  0  0  0  0  0  0  0  0  0  0  0
  194.6280  172.2540  138.7980 C   0  0  2  0  0  3  0  0  0  0  0  0
  194.3710  170.6000  136.8100 O   0  0  0  0  0  0  0  0  0  0  0  0
  194.7710  170.7900  139.1970 C   0  0  0  0  0  2  0  0  0  0  0  0
  190.9440  171.6580  137.4760 C   0  0  1  0  0  0  0  0  0  0  0  0
  194.8830  169.9100  137.9350 C   0  0  0  0  0  2  0  0  0  0  0  0
  189.2910  173.1710  136.4970 O   0  0  0  0  0  1  0  0  0  0  0  0
  194.4980  174.3590  139.8980 C   0  0  0  0  0  2  0  0  0  0  0  0
  195.9080  174.1700  140.1430 O   0  0  0  0  0  0  0  0  0  0  0  0
  196.4980  175.4060  140.4420 C   0  0  1  0  0  3  0  0  0  0  0  0
  196.2880  176.3710  142.5990 C   0  0  2  0  0  3  0  0  0  0  0  0
  197.2160  177.1610  143.3190 O   0  0  0  0  0  1  0  0  0  0  0  0
  196.2260  174.8950  142.9910 C   0  0  1  0  0  3  0  0  0  0  0  0
  197.1350  175.3810  141.8500 C   0  0  1  0  0  3  0  0  0  0  0  0
  196.8740  174.6580  144.3520 C   0  0  1  0  0  3  0  0  0  0  0  0
  195.9310  174.9960  145.3580 O   0  0  0  0  0  1  0  0  0  0  0  0
  197.4180  173.2880  144.5570 N   0  0  0  0  0  0  0  0  0  0  0  0
  195.7430  171.7250  143.8570 C   0  0  0  0  0  2  0  0  0  0  0  0
  195.5830  171.9530  145.3430 C   0  0  2  0  0  3  0  0  0  0  0  0
  196.8330  172.6810  145.7630 C   0  0  0  0  0  2  0  0  0  0  0  0
  197.0480  172.3680  143.4760 C   0  0  0  0  0  2  0  0  0  0  0  0
  195.5030  170.7330  146.0240 O   0  0  0  0  0  1  0  0  0  0  0  0
  197.4380  175.6290  139.4100 O   0  0  0  0  0  0  0  0  0  0  0  0
  197.5120  174.5140  138.5860 C   0  0  0  0  0  1  0  0  0  0  0  0
  1  5  1  0  0  0  0
  2  6  1  0  0  0  0
  2  1  2  0  0  0  0
  4  7  1  0  0  0  0
  4  3  1  0  0  0  0
  5  3  2  0  0  0  0
  5 33  1  0  0  0  0
  6  4  2  0  0  0  0
  7  8  1  0  0  0  0
  9  8  1  0  0  0  0
  9 10  1  0  0  0  0
 10 11  1  0  0  0  0
 11 12  2  0  0  0  0
 11 13  1  0  0  0  0
 13 20  1  0  0  0  0
 14 16  1  0  0  0  0
 16 15  2  0  0  0  0
 17 15  1  0  0  0  0
 18 17  1  0  0  0  0
 19 20  1  0  0  0  0
 19 14  2  0  0  0  0
 20 17  2  0  0  0  0
 21 23  2  0  0  0  0
 21 22  1  0  0  0  0
 22 19  1  0  0  0  0
 24 21  1  0  0  0  0
 25 24  1  0  0  0  0
 27 26  1  6  0  0  0
 27 25  1  0  0  0  0
 28 27  1  0  0  0  0
 28 29  1  0  0  0  0
 29 31  1  0  0  0  0
 29 32  2  0  0  0  0
 31 30  1  0  0  0  0
 35 33  1  0  0  0  0
 35 34  1  0  0  0  0
 36  2  1  0  0  0  0
 37 45  1  0  0  0  0
 38 46  1  0  0  0  0
 38 43  1  0  0  0  0
 40 50  1  0  0  0  0
 41 37  1  0  0  0  0
 42 53  1  0  0  0  0
 43 39  1  0  0  0  0
 43 50  1  0  0  0  0
 44 40  1  0  0  0  0
 44 41  1  0  0  0  0
 45 47  1  0  0  0  0
 45 42  1  0  0  0  0
 46 44  1  0  0  0  0
 47 49  1  0  0  0  0
 47 42  1  0  0  0  0
 48 41  1  0  0  0  0
 48 51  1  0  0  0  0
 50 37  1  0  0  0  0
 50 36  1  0  0  0  0
 51 49  1  0  0  0  0
 52 43  1  0  0  0  0
 53 54  1  0  0  0  0
 54 55  1  0  0  0  0
 55 59  1  0  0  0  0
 56 58  1  0  0  0  0
 56 57  1  0  0  0  0
 58 60  1  0  0  0  0
 59 56  1  0  0  0  0
 59 58  1  0  0  0  0
 60 62  1  0  0  0  0
 60 61  1  0  0  0  0
 62 65  1  0  0  0  0
 63 64  1  0  0  0  0
 64 65  1  0  0  0  0
 64 67  1  0  0  0  0
 66 63  1  0  0  0  0
 66 62  1  0  0  0  0
 68 55  1  0  0  0  0
 69 68  1  0  0  0  0
M  END
>  <MODEL>
6

>  <REMARK>
 VINA RESULT:      -5.7      2.905      7.594
  Name = 
  24 active torsions:
  status: ('A' for Active; 'I' for Inactive)
    1  A    between atoms: C_1  and  N_6
    2  A    between atoms: C_1  and  C_62
    3  A    between atoms: C_2  and  C_8
    4  A    between atoms: C_4  and  C_52
    5  A    between atoms: C_4  and  C_58
    6  A    between atoms: C_8  and  C_54
    7  A    between atoms: C_13  and  O_18
    8  A    between atoms: O_14  and  C_40
    9  A    between atoms: O_14  and  C_61
   10  A    between atoms: C_17  and  C_29
   11  A    between atoms: O_18  and  C_56
   12  A    between atoms: O_21  and  C_38
   13  A    between atoms: O_21  and  C_44
   14  A    between atoms: C_23  and  C_43
   15  A    between atoms: C_27  and  C_29
   16  A    between atoms: C_27  and  C_46
   17  A    between atoms: C_28  and  C_40
   18  A    between atoms: N_30  and  C_67
   19  A    between atoms: O_39  and  C_61
   20  A    between atoms: C_43  and  C_64
   21  A    between atoms: C_46  and  C_52
   22  A    between atoms: C_54  and  C_64
   23  A    between atoms: C_58  and  C_68
   24  A    between atoms: C_61  and  C_66
                            x       y       z     vdW  Elec       q    Type
                         _______ _______ _______ _____ _____    ______ ____

>  <TORSDO>
F 24

$$$$
=
 OpenBabel11072408393D

 69 76  0  0  1  0  0  0  0  0999 V2000
  195.5800  171.6120  142.9730 C   0  0  0  0  0  3  0  0  0  0  0  0
  195.2260  172.7620  142.2650 C   0  0  0  0  0  0  0  0  0  0  0  0
  196.1560  172.9720  144.8980 C   0  0  0  0  0  3  0  0  0  0  0  0
  195.8010  174.1270  144.1770 C   0  0  0  0  0  0  0  0  0  0  0  0
  196.0190  171.7030  144.3200 C   0  0  0  0  0  0  0  0  0  0  0  0
  195.3460  174.0080  142.8570 C   0  0  0  0  0  3  0  0  0  0  0  0
  196.0230  175.4770  144.7520 C   0  0  0  0  0  2  0  0  0  0  0  0
  194.6900  176.1110  145.1610 C   0  0  0  0  0  2  0  0  0  0  0  0
  194.2080  175.5650  146.4980 C   0  0  0  0  0  2  0  0  0  0  0  0
  192.6620  175.4720  146.5290 C   0  0  0  0  0  2  0  0  0  0  0  0
  192.0780  174.4070  145.6100 C   0  0  0  0  0  0  0  0  0  0  0  0
  192.6370  173.3350  145.4380 O   0  0  0  0  0  0  0  0  0  0  0  0
  190.6700  174.5720  145.0790 C   0  0  0  0  0  2  0  0  0  0  0  0
  189.4260  177.9800  143.8680 C   0  0  0  0  0  3  0  0  0  0  0  0
  191.4860  177.4970  142.7340 C   0  0  0  0  0  3  0  0  0  0  0  0
  190.4370  178.3650  142.9940 C   0  0  0  0  0  3  0  0  0  0  0  0
  191.5420  176.2420  143.3690 C   0  0  0  0  0  0  0  0  0  0  0  0
  192.4810  175.3440  142.9860 F   0  0  0  0  0  0  0  0  0  0  0  0
  189.4660  176.7340  144.5190 C   0  0  0  0  0  0  0  0  0  0  0  0
  190.5730  175.8820  144.3210 C   0  0  0  0  0  0  0  0  0  0  0  0
  187.9260  176.6780  146.5880 C   0  0  0  0  0  0  0  0  0  0  0  0
  188.3460  176.2620  145.2760 N   0  0  0  0  0  2  0  0  0  0  0  0
  188.6600  177.3850  147.3420 O   0  0  0  0  0  0  0  0  0  0  0  0
  186.5690  176.2980  147.0330 C   0  0  0  0  0  2  0  0  0  0  0  0
  185.9280  177.4730  147.7440 C   0  0  0  0  0  2  0  0  0  0  0  0
  186.2600  179.9040  147.8410 N   0  0  0  0  0  1  0  0  0  0  0  0
  186.0610  178.7610  146.9490 C   0  0  2  0  0  3  0  0  0  0  0  0
  184.8520  178.9840  146.0380 C   0  0  0  0  0  2  0  0  0  0  0  0
  185.1900  178.6930  144.5990 C   0  0  0  0  0  0  0  0  0  0  0  0
  184.4580  177.8780  142.3360 C   0  0  0  0  0  1  0  0  0  0  0  0
  184.1700  178.1710  143.7300 N   0  0  0  0  0  2  0  0  0  0  0  0
  186.3210  179.0570  144.1360 O   0  0  0  0  0  0  0  0  0  0  0  0
  196.3210  170.5700  145.0650 O   0  0  0  0  0  0  0  0  0  0  0  0
  196.7620  169.2230  146.9770 C   0  0  0  0  0  1  0  0  0  0  0  0
  196.2880  170.5650  146.4890 C   0  0  0  0  0  2  0  0  0  0  0  0
  194.7630  172.6910  140.9440 O   0  0  0  0  0  0  0  0  0  0  0  0
  195.1110  173.4460  138.6530 C   0  0  1  0  0  3  0  0  0  0  0  0
  196.8950  170.6750  138.6190 O   0  0  0  0  0  0  0  0  0  0  0  0
  194.5710  170.4680  138.6520 O   0  0  0  0  0  1  0  0  0  0  0  0
  196.9830  172.7890  140.0480 C   0  0  0  0  0  2  0  0  0  0  0  0
  196.4990  174.0040  138.2760 C   0  0  1  0  0  3  0  0  0  0  0  0
  192.9790  173.3590  137.0480 C   0  0  1  0  0  3  0  0  0  0  0  0
  195.6770  170.9040  139.3690 C   0  0  0  0  0  0  0  0  0  0  0  0
  197.4840  172.9020  138.6250 C   0  0  2  0  0  3  0  0  0  0  0  0
  194.3940  172.8330  137.3850 C   0  0  1  0  0  3  0  0  0  0  0  0
  197.1620  171.7120  137.8300 O   0  0  0  0  0  0  0  0  0  0  0  0
  194.1770  173.9810  136.3880 C   0  0  2  0  0  3  0  0  0  0  0  0
  196.6560  174.4980  136.9750 O   0  0  0  0  0  0  0  0  0  0  0  0
  194.4040  175.4010  136.8960 C   0  0  0  0  0  2  0  0  0  0  0  0
  195.5410  172.4280  139.7660 C   0  0  1  0  0  0  0  0  0  0  0  0
  195.9150  175.7040  136.9520 C   0  0  0  0  0  2  0  0  0  0  0  0
  195.7900  170.1160  140.5210 O   0  0  0  0  0  1  0  0  0  0  0  0
  192.3210  172.5980  135.8420 C   0  0  0  0  0  2  0  0  0  0  0  0
  191.0540  172.0090  136.2050 O   0  0  0  0  0  0  0  0  0  0  0  0
  191.2800  170.8700  136.9910 C   0  0  1  0  0  3  0  0  0  0  0  0
  191.2520  170.3270  139.3000 C   0  0  2  0  0  3  0  0  0  0  0  0
  190.4610  169.3730  139.9860 O   0  0  0  0  0  1  0  0  0  0  0  0
  190.7730  171.7760  139.3900 C   0  0  1  0  0  3  0  0  0  0  0  0
  190.3490  170.8660  138.2260 C   0  0  1  0  0  3  0  0  0  0  0  0
  189.7800  171.9580  140.5340 C   0  0  1  0  0  3  0  0  0  0  0  0
  190.4680  172.5440  141.6300 O   0  0  0  0  0  1  0  0  0  0  0  0
  188.5580  172.7330  140.1860 N   0  0  0  0  0  0  0  0  0  0  0  0
  188.8760  174.9820  140.9490 C   0  0  0  0  0  2  0  0  0  0  0  0
  188.1570  174.2130  142.0340 C   0  0  2  0  0  3  0  0  0  0  0  0
  187.7190  172.9300  141.3790 C   0  0  0  0  0  2  0  0  0  0  0  0
  188.8640  174.0950  139.7340 C   0  0  0  0  0  2  0  0  0  0  0  0
  187.0320  174.9180  142.4750 O   0  0  0  0  0  1  0  0  0  0  0  0
  191.0610  169.7720  136.1270 O   0  0  0  0  0  0  0  0  0  0  0  0
  192.2020  169.5280  135.3730 C   0  0  0  0  0  1  0  0  0  0  0  0
  1  5  1  0  0  0  0
  2  6  1  0  0  0  0
  2  1  2  0  0  0  0
  4  7  1  0  0  0  0
  4  3  1  0  0  0  0
  5  3  2  0  0  0  0
  5 33  1  0  0  0  0
  6  4  2  0  0  0  0
  7  8  1  0  0  0  0
  8  9  1  0  0  0  0
  9 10  1  0  0  0  0
 11 10  1  0  0  0  0
 12 11  2  0  0  0  0
 13 11  1  0  0  0  0
 14 19  1  0  0  0  0
 15 16  1  0  0  0  0
 15 17  2  0  0  0  0
 16 14  2  0  0  0  0
 17 20  1  0  0  0  0
 18 17  1  0  0  0  0
 19 22  1  0  0  0  0
 20 19  2  0  0  0  0
 20 13  1  0  0  0  0
 21 24  1  0  0  0  0
 21 23  2  0  0  0  0
 22 21  1  0  0  0  0
 24 25  1  0  0  0  0
 27 25  1  0  0  0  0
 27 26  1  1  0  0  0
 28 27  1  0  0  0  0
 29 28  1  0  0  0  0
 30 31  1  0  0  0  0
 31 29  1  0  0  0  0
 32 29  2  0  0  0  0
 33 35  1  0  0  0  0
 35 34  1  0  0  0  0
 36  2  1  0  0  0  0
 37 50  1  0  0  0  0
 38 43  1  0  0  0  0
 39 43  1  0  0  0  0
 41 44  1  0  0  0  0
 41 37  1  0  0  0  0
 42 45  1  0  0  0  0
 43 50  1  0  0  0  0
 43 52  1  0  0  0  0
 44 40  1  0  0  0  0
 45 37  1  0  0  0  0
 46 38  1  0  0  0  0
 46 44  1  0  0  0  0
 47 49  1  0  0  0  0
 47 42  1  0  0  0  0
 47 45  1  0  0  0  0
 48 41  1  0  0  0  0
 49 51  1  0  0  0  0
 50 40  1  0  0  0  0
 50 36  1  0  0  0  0
 51 48  1  0  0  0  0
 53 54  1  0  0  0  0
 53 42  1  0  0  0  0
 54 55  1  0  0  0  0
 55 59  1  0  0  0  0
 56 58  1  0  0  0  0
 56 57  1  0  0  0  0
 58 60  1  0  0  0  0
 59 56  1  0  0  0  0
 59 58  1  0  0  0  0
 60 61  1  0  0  0  0
 62 60  1  0  0  0  0
 62 65  1  0  0  0  0
 63 64  1  0  0  0  0
 64 67  1  0  0  0  0
 65 64  1  0  0  0  0
 66 62  1  0  0  0  0
 66 63  1  0  0  0  0
 68 55  1  0  0  0  0
 69 68  1  0  0  0  0
M  END
>  <MODEL>
7

>  <REMARK>
 VINA RESULT:      -5.4      2.245      6.001
  Name = 
  24 active torsions:
  status: ('A' for Active; 'I' for Inactive)
    1  A    between atoms: C_1  and  N_6
    2  A    between atoms: C_1  and  C_62
    3  A    between atoms: C_2  and  C_8
    4  A    between atoms: C_4  and  C_52
    5  A    between atoms: C_4  and  C_58
    6  A    between atoms: C_8  and  C_54
    7  A    between atoms: C_13  and  O_18
    8  A    between atoms: O_14  and  C_40
    9  A    between atoms: O_14  and  C_61
   10  A    between atoms: C_17  and  C_29
   11  A    between atoms: O_18  and  C_56
   12  A    between atoms: O_21  and  C_38
   13  A    between atoms: O_21  and  C_44
   14  A    between atoms: C_23  and  C_43
   15  A    between atoms: C_27  and  C_29
   16  A    between atoms: C_27  and  C_46
   17  A    between atoms: C_28  and  C_40
   18  A    between atoms: N_30  and  C_67
   19  A    between atoms: O_39  and  C_61
   20  A    between atoms: C_43  and  C_64
   21  A    between atoms: C_46  and  C_52
   22  A    between atoms: C_54  and  C_64
   23  A    between atoms: C_58  and  C_68
   24  A    between atoms: C_61  and  C_66
                            x       y       z     vdW  Elec       q    Type
                         _______ _______ _______ _____ _____    ______ ____

>  <TORSDO>
F 24

$$$$
=
 OpenBabel11072408393D

 69 76  0  0  1  0  0  0  0  0999 V2000
  187.9020  176.9320  143.4070 C   0  0  0  0  0  3  0  0  0  0  0  0
  189.1660  176.6430  143.9220 C   0  0  0  0  0  0  0  0  0  0  0  0
  188.3730  175.5530  141.4670 C   0  0  0  0  0  3  0  0  0  0  0  0
  189.6490  175.2700  141.9900 C   0  0  0  0  0  0  0  0  0  0  0  0
  187.4750  176.3580  142.1800 C   0  0  0  0  0  0  0  0  0  0  0  0
  190.0360  175.8290  143.2150 C   0  0  0  0  0  3  0  0  0  0  0  0
  190.6340  174.4900  141.2010 C   0  0  0  0  0  2  0  0  0  0  0  0
  192.0490  175.0340  141.4220 C   0  0  0  0  0  2  0  0  0  0  0  0
  193.0680  174.2760  140.5820 C   0  0  0  0  0  2  0  0  0  0  0  0
  192.4770  173.9130  139.1970 C   0  0  0  0  0  2  0  0  0  0  0  0
  193.3350  174.3470  138.0150 C   0  0  0  0  0  0  0  0  0  0  0  0
  192.9520  174.2110  136.8630 O   0  0  0  0  0  0  0  0  0  0  0  0
  194.5800  175.1720  138.2620 C   0  0  0  0  0  2  0  0  0  0  0  0
  197.7490  173.1270  137.6320 C   0  0  0  0  0  3  0  0  0  0  0  0
  197.0060  174.0100  135.5270 C   0  0  0  0  0  3  0  0  0  0  0  0
  197.8880  173.2240  136.2510 C   0  0  0  0  0  3  0  0  0  0  0  0
  195.9590  174.6860  136.1790 C   0  0  0  0  0  0  0  0  0  0  0  0
  195.2060  175.5740  135.4860 F   0  0  0  0  0  0  0  0  0  0  0  0
  196.7060  173.7880  138.3030 C   0  0  0  0  0  0  0  0  0  0  0  0
  195.7570  174.5220  137.5600 C   0  0  0  0  0  0  0  0  0  0  0  0
  196.9400  174.9560  140.5920 C   0  0  0  0  0  0  0  0  0  0  0  0
  196.6630  173.8350  139.7330 N   0  0  0  0  0  2  0  0  0  0  0  0
  197.4880  176.0160  140.1650 O   0  0  0  0  0  0  0  0  0  0  0  0
  196.5180  174.8670  142.0050 C   0  0  0  0  0  2  0  0  0  0  0  0
  196.4170  173.4090  142.4070 C   0  0  0  0  0  2  0  0  0  0  0  0
  197.4840  174.3390  144.4120 N   0  0  0  0  0  1  0  0  0  0  0  0
  196.7400  173.1980  143.8760 C   0  0  2  0  0  3  0  0  0  0  0  0
  197.5070  171.8940  144.1000 C   0  0  0  0  0  2  0  0  0  0  0  0
  196.8330  171.0340  145.1370 C   0  0  0  0  0  0  0  0  0  0  0  0
  196.7250  168.8580  146.3930 C   0  0  0  0  0  1  0  0  0  0  0  0
  197.3480  169.7170  145.4000 N   0  0  0  0  0  2  0  0  0  0  0  0
  195.9200  171.5380  145.8710 O   0  0  0  0  0  0  0  0  0  0  0  0
  186.2010  176.5820  141.6760 O   0  0  0  0  0  0  0  0  0  0  0  0
  184.4790  177.9130  140.7120 C   0  0  0  0  0  1  0  0  0  0  0  0
  185.5670  177.8570  141.7490 C   0  0  0  0  0  2  0  0  0  0  0  0
  189.5950  177.1770  145.1440 O   0  0  0  0  0  0  0  0  0  0  0  0
  191.7440  176.2300  145.7990 C   0  0  1  0  0  3  0  0  0  0  0  0
  189.8360  175.0410  148.2090 O   0  0  0  0  0  0  0  0  0  0  0  0
  189.5930  174.1190  146.0790 O   0  0  0  0  0  1  0  0  0  0  0  0
  190.3580  177.4070  147.4040 C   0  0  0  0  0  2  0  0  0  0  0  0
  192.4480  176.8190  147.0390 C   0  0  1  0  0  3  0  0  0  0  0  0
  192.7340  174.3400  144.1960 C   0  0  1  0  0  3  0  0  0  0  0  0
  189.4400  175.2740  146.8350 C   0  0  0  0  0  0  0  0  0  0  0  0
  191.4450  176.6890  148.1720 C   0  0  2  0  0  3  0  0  0  0  0  0
  192.1650  174.7230  145.5820 C   0  0  1  0  0  3  0  0  0  0  0  0
  191.1370  175.2680  148.3670 O   0  0  0  0  0  0  0  0  0  0  0  0
  193.6770  174.7110  145.3050 C   0  0  2  0  0  3  0  0  0  0  0  0
  193.7130  176.3090  147.3560 O   0  0  0  0  0  0  0  0  0  0  0  0
  194.3470  176.0520  145.0260 C   0  0  0  0  0  2  0  0  0  0  0  0
  190.2520  176.4790  146.2140 C   0  0  1  0  0  0  0  0  0  0  0  0
  194.5710  176.8130  146.3490 C   0  0  0  0  0  2  0  0  0  0  0  0
  188.0770  175.5870  146.8830 O   0  0  0  0  0  1  0  0  0  0  0  0
  193.0100  172.7990  144.0580 C   0  0  0  0  0  2  0  0  0  0  0  0
  191.8350  172.0800  143.6260 O   0  0  0  0  0  0  0  0  0  0  0  0
  192.2110  170.8120  143.1610 C   0  0  1  0  0  3  0  0  0  0  0  0
  193.7230  170.0490  141.4990 C   0  0  2  0  0  3  0  0  0  0  0  0
  194.5170  170.8000  140.5990 O   0  0  0  0  0  1  0  0  0  0  0  0
  192.4270  169.4760  140.9240 C   0  0  1  0  0  3  0  0  0  0  0  0
  192.4520  170.8400  141.6340 C   0  0  1  0  0  3  0  0  0  0  0  0
  192.4520  169.4800  139.3980 C   0  0  1  0  0  3  0  0  0  0  0  0
  193.3680  168.4850  138.9670 O   0  0  0  0  0  1  0  0  0  0  0  0
  191.1240  169.3110  138.7490 N   0  0  0  0  0  0  0  0  0  0  0  0
  190.7080  171.2570  137.4160 C   0  0  0  0  0  2  0  0  0  0  0  0
  190.0870  171.4770  138.7770 C   0  0  2  0  0  3  0  0  0  0  0  0
  190.1100  170.1240  139.4390 C   0  0  0  0  0  2  0  0  0  0  0  0
  191.1040  169.8070  137.3690 C   0  0  0  0  0  2  0  0  0  0  0  0
  188.7620  171.9110  138.6510 O   0  0  0  0  0  1  0  0  0  0  0  0
  193.3680  170.4720  143.9000 O   0  0  0  0  0  0  0  0  0  0  0  0
  193.1280  169.3370  144.6620 C   0  0  0  0  0  1  0  0  0  0  0  0
  1  2  1  0  0  0  0
  2 36  1  0  0  0  0
  3  4  2  0  0  0  0
  3  5  1  0  0  0  0
  4  6  1  0  0  0  0
  5  1  2  0  0  0  0
  6  2  2  0  0  0  0
  7  8  1  0  0  0  0
  7  4  1  0  0  0  0
  9  8  1  0  0  0  0
 10  9  1  0  0  0  0
 11 13  1  0  0  0  0
 11 10  1  0  0  0  0
 12 11  2  0  0  0  0
 14 19  1  0  0  0  0
 15 17  2  0  0  0  0
 15 16  1  0  0  0  0
 16 14  2  0  0  0  0
 17 20  1  0  0  0  0
 18 17  1  0  0  0  0
 19 22  1  0  0  0  0
 20 13  1  0  0  0  0
 20 19  2  0  0  0  0
 21 24  1  0  0  0  0
 22 21  1  0  0  0  0
 23 21  2  0  0  0  0
 24 25  1  0  0  0  0
 25 27  1  0  0  0  0
 27 28  1  0  0  0  0
 27 26  1  6  0  0  0
 28 29  1  0  0  0  0
 29 31  1  0  0  0  0
 29 32  2  0  0  0  0
 31 30  1  0  0  0  0
 33 35  1  0  0  0  0
 33  5  1  0  0  0  0
 34 35  1  0  0  0  0
 36 50  1  0  0  0  0
 37 50  1  0  0  0  0
 37 41  1  0  0  0  0
 38 46  1  0  0  0  0
 39 43  1  0  0  0  0
 40 44  1  0  0  0  0
 41 48  1  0  0  0  0
 41 44  1  0  0  0  0
 42 47  1  0  0  0  0
 42 45  1  0  0  0  0
 43 52  1  0  0  0  0
 43 38  1  0  0  0  0
 44 46  1  0  0  0  0
 45 37  1  0  0  0  0
 47 45  1  0  0  0  0
 49 47  1  0  0  0  0
 49 51  1  0  0  0  0
 50 43  1  0  0  0  0
 50 40  1  0  0  0  0
 51 48  1  0  0  0  0
 53 42  1  0  0  0  0
 54 53  1  0  0  0  0
 55 54  1  0  0  0  0
 55 68  1  0  0  0  0
 56 59  1  0  0  0  0
 57 56  1  0  0  0  0
 58 56  1  0  0  0  0
 58 59  1  0  0  0  0
 59 55  1  0  0  0  0
 60 58  1  0  0  0  0
 61 60  1  0  0  0  0
 62 60  1  0  0  0  0
 62 65  1  0  0  0  0
 63 64  1  0  0  0  0
 64 65  1  0  0  0  0
 66 63  1  0  0  0  0
 66 62  1  0  0  0  0
 67 64  1  0  0  0  0
 68 69  1  0  0  0  0
M  END
>  <MODEL>
8

>  <REMARK>
 VINA RESULT:      -5.4      3.332      8.004
  Name = 
  24 active torsions:
  status: ('A' for Active; 'I' for Inactive)
    1  A    between atoms: C_1  and  N_6
    2  A    between atoms: C_1  and  C_62
    3  A    between atoms: C_2  and  C_8
    4  A    between atoms: C_4  and  C_52
    5  A    between atoms: C_4  and  C_58
    6  A    between atoms: C_8  and  C_54
    7  A    between atoms: C_13  and  O_18
    8  A    between atoms: O_14  and  C_40
    9  A    between atoms: O_14  and  C_61
   10  A    between atoms: C_17  and  C_29
   11  A    between atoms: O_18  and  C_56
   12  A    between atoms: O_21  and  C_38
   13  A    between atoms: O_21  and  C_44
   14  A    between atoms: C_23  and  C_43
   15  A    between atoms: C_27  and  C_29
   16  A    between atoms: C_27  and  C_46
   17  A    between atoms: C_28  and  C_40
   18  A    between atoms: N_30  and  C_67
   19  A    between atoms: O_39  and  C_61
   20  A    between atoms: C_43  and  C_64
   21  A    between atoms: C_46  and  C_52
   22  A    between atoms: C_54  and  C_64
   23  A    between atoms: C_58  and  C_68
   24  A    between atoms: C_61  and  C_66
                            x       y       z     vdW  Elec       q    Type
                         _______ _______ _______ _____ _____    ______ ____

>  <TORSDO>
F 24

$$$$
=
 OpenBabel11072408393D

 69 76  0  0  1  0  0  0  0  0999 V2000
  190.3910  170.8320  140.0800 C   0  0  0  0  0  3  0  0  0  0  0  0
  189.6030  171.7750  139.4180 C   0  0  0  0  0  0  0  0  0  0  0  0
  189.7800  171.8160  142.2120 C   0  0  0  0  0  3  0  0  0  0  0  0
  188.9910  172.7660  141.5370 C   0  0  0  0  0  0  0  0  0  0  0  0
  190.4610  170.8220  141.4980 C   0  0  0  0  0  0  0  0  0  0  0  0
  188.9190  172.7390  140.1380 C   0  0  0  0  0  3  0  0  0  0  0  0
  188.3370  173.8720  142.2800 C   0  0  0  0  0  2  0  0  0  0  0  0
  189.3730  174.9160  142.7100 C   0  0  0  0  0  2  0  0  0  0  0  0
  189.0230  176.2940  142.1670 C   0  0  0  0  0  2  0  0  0  0  0  0
  188.4140  177.1850  143.2790 C   0  0  0  0  0  2  0  0  0  0  0  0
  189.0920  177.0470  144.6360 C   0  0  0  0  0  0  0  0  0  0  0  0
  190.1470  177.6080  144.8840 O   0  0  0  0  0  0  0  0  0  0  0  0
  188.3420  176.3980  145.7800 C   0  0  0  0  0  2  0  0  0  0  0  0
  185.7320  178.8070  147.1950 C   0  0  0  0  0  3  0  0  0  0  0  0
  187.7570  179.0860  148.4540 C   0  0  0  0  0  3  0  0  0  0  0  0
  186.4240  179.4030  148.2440 C   0  0  0  0  0  3  0  0  0  0  0  0
  188.4010  178.1480  147.6260 C   0  0  0  0  0  0  0  0  0  0  0  0
  189.7390  177.9680  147.7390 F   0  0  0  0  0  0  0  0  0  0  0  0
  186.3530  177.8620  146.3610 C   0  0  0  0  0  0  0  0  0  0  0  0
  187.6850  177.4750  146.6210 C   0  0  0  0  0  0  0  0  0  0  0  0
  184.7950  178.0900  144.3180 C   0  0  0  0  0  0  0  0  0  0  0  0
  185.7030  177.3820  145.1790 N   0  0  0  0  0  2  0  0  0  0  0  0
  184.2770  179.2000  144.6460 O   0  0  0  0  0  0  0  0  0  0  0  0
  184.5060  177.5120  142.9890 C   0  0  0  0  0  2  0  0  0  0  0  0
  183.8550  178.5650  142.1150 C   0  0  0  0  0  2  0  0  0  0  0  0
  182.4440  178.1560  140.1480 N   0  0  0  0  0  1  0  0  0  0  0  0
  182.4910  178.1240  141.6110 C   0  0  2  0  0  3  0  0  0  0  0  0
  181.3700  178.9730  142.2120 C   0  0  0  0  0  2  0  0  0  0  0  0
  180.2530  179.1840  141.2230 C   0  0  0  0  0  0  0  0  0  0  0  0
  178.0500  178.4390  140.2680 C   0  0  0  0  0  1  0  0  0  0  0  0
  179.1460  178.2670  141.2070 N   0  0  0  0  0  2  0  0  0  0  0  0
  180.2290  180.2520  140.5260 O   0  0  0  0  0  0  0  0  0  0  0  0
  191.1910  169.8590  142.1840 O   0  0  0  0  0  0  0  0  0  0  0  0
  193.4720  169.2780  142.5340 C   0  0  0  0  0  1  0  0  0  0  0  0
  192.2990  169.1830  141.5960 C   0  0  0  0  0  2  0  0  0  0  0  0
  189.4990  171.7840  138.0200 O   0  0  0  0  0  0  0  0  0  0  0  0
  191.7750  171.2050  137.3700 C   0  0  1  0  0  3  0  0  0  0  0  0
  191.3220  173.8980  135.5250 O   0  0  0  0  0  0  0  0  0  0  0  0
  191.5950  174.1920  137.8250 O   0  0  0  0  0  1  0  0  0  0  0  0
  190.0810  171.6730  135.6990 C   0  0  0  0  0  2  0  0  0  0  0  0
  192.0010  170.6270  135.9580 C   0  0  1  0  0  3  0  0  0  0  0  0
  193.6480  171.5050  139.2490 C   0  0  1  0  0  3  0  0  0  0  0  0
  190.7710  173.6560  136.8440 C   0  0  0  0  0  0  0  0  0  0  0  0
  191.4240  171.6570  135.0030 C   0  0  2  0  0  3  0  0  0  0  0  0
  193.0730  171.9470  137.8830 C   0  0  1  0  0  3  0  0  0  0  0  0
  192.1520  172.9190  135.1770 O   0  0  0  0  0  0  0  0  0  0  0  0
  194.1860  170.8920  137.9860 C   0  0  2  0  0  3  0  0  0  0  0  0
  193.3050  170.2340  135.6310 O   0  0  0  0  0  0  0  0  0  0  0  0
  193.7750  169.4280  137.8720 C   0  0  0  0  0  2  0  0  0  0  0  0
  190.5300  172.1110  137.0760 C   0  0  1  0  0  0  0  0  0  0  0  0
  193.5350  169.0630  136.3930 C   0  0  0  0  0  2  0  0  0  0  0  0
  189.5520  174.3430  136.8750 O   0  0  0  0  0  1  0  0  0  0  0  0
  194.8650  172.3860  139.7080 C   0  0  0  0  0  2  0  0  0  0  0  0
  195.8920  171.5950  140.3420 O   0  0  0  0  0  0  0  0  0  0  0  0
  196.7150  172.4310  141.1100 C   0  0  1  0  0  3  0  0  0  0  0  0
  196.7580  172.4520  143.4820 C   0  0  2  0  0  3  0  0  0  0  0  0
  195.7990  171.9550  144.3980 O   0  0  0  0  0  1  0  0  0  0  0  0
  196.7200  173.9590  143.2320 C   0  0  1  0  0  3  0  0  0  0  0  0
  195.9450  172.9800  142.3340 C   0  0  1  0  0  3  0  0  0  0  0  0
  195.9350  174.6800  144.3230 C   0  0  1  0  0  3  0  0  0  0  0  0
  196.6950  174.6320  145.5210 O   0  0  0  0  0  1  0  0  0  0  0  0
  195.5350  176.0740  143.9910 N   0  0  0  0  0  0  0  0  0  0  0  0
  193.3300  176.4290  144.8590 C   0  0  0  0  0  2  0  0  0  0  0  0
  193.2040  175.9820  143.4210 C   0  0  2  0  0  3  0  0  0  0  0  0
  194.5970  176.0810  142.8570 C   0  0  0  0  0  2  0  0  0  0  0  0
  194.7890  176.7210  145.0770 C   0  0  0  0  0  2  0  0  0  0  0  0
  192.3520  176.8360  142.7110 O   0  0  0  0  0  1  0  0  0  0  0  0
  197.8280  171.6340  141.4650 O   0  0  0  0  0  0  0  0  0  0  0  0
  197.8570  170.4860  140.6850 C   0  0  0  0  0  1  0  0  0  0  0  0
  1  5  1  0  0  0  0
  2  1  2  0  0  0  0
  2  6  1  0  0  0  0
  4  3  1  0  0  0  0
  4  7  1  0  0  0  0
  5 33  1  0  0  0  0
  5  3  2  0  0  0  0
  6  4  2  0  0  0  0
  7  8  1  0  0  0  0
  9  8  1  0  0  0  0
  9 10  1  0  0  0  0
 10 11  1  0  0  0  0
 11 12  2  0  0  0  0
 11 13  1  0  0  0  0
 13 20  1  0  0  0  0
 14 16  1  0  0  0  0
 16 15  2  0  0  0  0
 17 18  1  0  0  0  0
 17 15  1  0  0  0  0
 19 20  1  0  0  0  0
 19 14  2  0  0  0  0
 20 17  2  0  0  0  0
 21 23  2  0  0  0  0
 21 22  1  0  0  0  0
 22 19  1  0  0  0  0
 24 21  1  0  0  0  0
 25 24  1  0  0  0  0
 27 26  1  6  0  0  0
 27 25  1  0  0  0  0
 27 28  1  0  0  0  0
 29 28  1  0  0  0  0
 30 31  1  0  0  0  0
 31 29  1  0  0  0  0
 32 29  2  0  0  0  0
 35 33  1  0  0  0  0
 35 34  1  0  0  0  0
 36  2  1  0  0  0  0
 37 45  1  0  0  0  0
 38 43  1  0  0  0  0
 40 50  1  0  0  0  0
 41 37  1  0  0  0  0
 42 53  1  0  0  0  0
 43 52  1  0  0  0  0
 43 50  1  0  0  0  0
 43 39  1  0  0  0  0
 44 46  1  0  0  0  0
 44 40  1  0  0  0  0
 44 41  1  0  0  0  0
 45 47  1  0  0  0  0
 45 42  1  0  0  0  0
 46 38  1  0  0  0  0
 47 42  1  0  0  0  0
 48 41  1  0  0  0  0
 48 51  1  0  0  0  0
 49 47  1  0  0  0  0
 50 37  1  0  0  0  0
 50 36  1  0  0  0  0
 51 49  1  0  0  0  0
 53 54  1  0  0  0  0
 54 55  1  0  0  0  0
 55 68  1  0  0  0  0
 55 59  1  0  0  0  0
 56 57  1  0  0  0  0
 58 56  1  0  0  0  0
 58 60  1  0  0  0  0
 59 58  1  0  0  0  0
 59 56  1  0  0  0  0
 60 61  1  0  0  0  0
 62 60  1  0  0  0  0
 62 66  1  0  0  0  0
 63 66  1  0  0  0  0
 64 63  1  0  0  0  0
 65 64  1  0  0  0  0
 65 62  1  0  0  0  0
 67 64  1  0  0  0  0
 69 68  1  0  0  0  0
M  END
>  <MODEL>
9

>  <REMARK>
 VINA RESULT:      -5.4      2.985      7.868
  Name = 
  24 active torsions:
  status: ('A' for Active; 'I' for Inactive)
    1  A    between atoms: C_1  and  N_6
    2  A    between atoms: C_1  and  C_62
    3  A    between atoms: C_2  and  C_8
    4  A    between atoms: C_4  and  C_52
    5  A    between atoms: C_4  and  C_58
    6  A    between atoms: C_8  and  C_54
    7  A    between atoms: C_13  and  O_18
    8  A    between atoms: O_14  and  C_40
    9  A    between atoms: O_14  and  C_61
   10  A    between atoms: C_17  and  C_29
   11  A    between atoms: O_18  and  C_56
   12  A    between atoms: O_21  and  C_38
   13  A    between atoms: O_21  and  C_44
   14  A    between atoms: C_23  and  C_43
   15  A    between atoms: C_27  and  C_29
   16  A    between atoms: C_27  and  C_46
   17  A    between atoms: C_28  and  C_40
   18  A    between atoms: N_30  and  C_67
   19  A    between atoms: O_39  and  C_61
   20  A    between atoms: C_43  and  C_64
   21  A    between atoms: C_46  and  C_52
   22  A    between atoms: C_54  and  C_64
   23  A    between atoms: C_58  and  C_68
   24  A    between atoms: C_61  and  C_66
                            x       y       z     vdW  Elec       q    Type
                         _______ _______ _______ _____ _____    ______ ____

>  <TORSDO>
F 24

$$$$
