=
 OpenBabel11062420153D

 25 27  0  0  1  0  0  0  0  0999 V2000
  184.6910  177.5970  142.3100 C   0  0  0  0  0  2  0  0  0  0  0  0
  186.0380  177.8800  142.9690 C   0  0  1  0  0  3  0  0  0  0  0  0
  186.4960  177.0510  140.0270 C   0  0  0  0  0  2  0  0  0  0  0  0
  188.3930  175.2300  143.2610 O   0  0  0  0  0  0  0  0  0  0  0  0
  186.0010  177.5190  144.4270 C   0  0  0  0  0  0  0  0  0  0  0  0
  187.0290  176.9600  142.4270 N   0  0  0  0  0  0  0  0  0  0  0  0
  186.2590  178.3910  148.5860 O   0  0  0  0  0  0  0  0  0  0  0  0
  186.3730  177.8960  147.4360 C   0  0  0  0  0  0  0  0  0  0  0  0
  185.7470  178.3770  140.0750 C   0  0  0  0  0  2  0  0  0  0  0  0
  187.5830  176.1720  143.4710 C   0  0  0  0  0  0  0  0  0  0  0  0
  185.1170  177.5050  146.7150 C   0  0  0  0  0  2  0  0  0  0  0  0
  185.1100  177.9940  145.3000 C   0  0  0  0  0  3  0  0  0  0  0  0
  184.5100  178.3430  140.9830 C   0  0  1  0  0  3  0  0  0  0  0  0
  187.6940  177.7220  146.8900 N   0  0  0  0  0  0  0  0  0  0  0  0
  187.0600  176.5320  144.8170 C   0  0  1  0  0  3  0  0  0  0  0  0
  187.5930  177.0380  141.0840 C   0  0  0  0  0  2  0  0  0  0  0  0
  188.0680  177.1890  145.7570 C   0  0  0  0  0  0  0  0  0  0  0  0
  192.4030  176.9460  145.1120 O   0  0  0  0  0  0  0  0  0  0  0  0
  189.5210  177.2010  145.4780 C   0  0  0  0  0  0  0  0  0  0  0  0
  189.9940  178.0950  144.7240 O   0  0  0  0  0  0  0  0  0  0  0  0
  190.3720  176.1650  145.9870 N   0  0  0  0  0  2  0  0  0  0  0  0
  192.5370  174.9360  146.3680 C   0  0  0  0  0  1  0  0  0  0  0  0
  191.7850  176.0750  145.7800 C   0  0  0  0  0  0  0  0  0  0  0  0
  183.4270  177.8010  140.2880 O   0  0  0  0  0  0  0  0  0  0  0  0
  182.2980  178.2610  140.9680 C   0  0  0  0  0  1  0  0  0  0  0  0
  2  1  1  6  0  0  0
  2  5  1  0  0  0  0
  3  9  1  0  0  0  0
  3 16  1  0  0  0  0
  4 10  2  0  0  0  0
  5 15  1  0  0  0  0
  5 12  2  0  0  0  0
  6  2  1  0  0  0  0
  6 10  1  0  0  0  0
  8  7  2  0  0  0  0
  9 13  1  0  0  0  0
 11  8  1  0  0  0  0
 12 11  1  0  0  0  0
 13 24  1  6  0  0  0
 13  1  1  0  0  0  0
 14  8  1  0  0  0  0
 15 10  1  6  0  0  0
 15 17  1  0  0  0  0
 16  6  1  0  0  0  0
 17 14  2  0  0  0  0
 18 23  2  0  0  0  0
 19 17  1  0  0  0  0
 19 21  1  0  0  0  0
 20 19  2  0  0  0  0
 23 21  1  0  0  0  0
 23 22  1  0  0  0  0
 24 25  1  0  0  0  0
M  END
>  <MODEL>
1

>  <REMARK>
 VINA RESULT:      -7.4      0.000      0.000
  Name = 
  2 active torsions:
  status: ('A' for Active; 'I' for Inactive)
    1  A    between atoms: C_6  and  C_23
    2  A    between atoms: C_16  and  O_18
                            x       y       z     vdW  Elec       q    Type
                         _______ _______ _______ _____ _____    ______ ____

>  <TORSDO>
F 2

$$$$
=
 OpenBabel11062420153D

 25 27  0  0  1  0  0  0  0  0999 V2000
  185.7890  177.6860  144.5890 C   0  0  0  0  0  2  0  0  0  0  0  0
  186.9150  176.6740  144.7740 C   0  0  1  0  0  3  0  0  0  0  0  0
  186.6120  178.3440  147.3560 C   0  0  0  0  0  2  0  0  0  0  0  0
  190.2200  177.8680  145.3230 O   0  0  0  0  0  0  0  0  0  0  0  0
  187.6170  176.4180  143.4700 C   0  0  0  0  0  0  0  0  0  0  0  0
  187.9570  177.2750  145.5950 N   0  0  0  0  0  0  0  0  0  0  0  0
  188.8950  173.9600  140.2380 O   0  0  0  0  0  0  0  0  0  0  0  0
  188.8170  174.7810  141.1870 C   0  0  0  0  0  0  0  0  0  0  0  0
  185.3600  177.5050  147.1390 C   0  0  0  0  0  2  0  0  0  0  0  0
  189.1820  177.3100  144.8780 C   0  0  0  0  0  0  0  0  0  0  0  0
  187.7940  175.8720  141.0850 C   0  0  0  0  0  2  0  0  0  0  0  0
  187.0070  176.0210  142.3490 C   0  0  0  0  0  3  0  0  0  0  0  0
  184.7660  177.6530  145.7310 C   0  0  1  0  0  3  0  0  0  0  0  0
  189.7180  174.6320  142.3010 N   0  0  0  0  0  0  0  0  0  0  0  0
  189.0910  176.6830  143.5310 C   0  0  1  0  0  3  0  0  0  0  0  0
  187.8510  177.5190  147.0300 C   0  0  0  0  0  2  0  0  0  0  0  0
  189.8660  175.3780  143.3630 C   0  0  0  0  0  0  0  0  0  0  0  0
  193.0670  174.1990  146.1250 O   0  0  0  0  0  0  0  0  0  0  0  0
  190.8680  174.9180  144.3490 C   0  0  0  0  0  0  0  0  0  0  0  0
  190.4980  174.1790  145.3020 O   0  0  0  0  0  0  0  0  0  0  0  0
  192.2260  175.3730  144.2760 N   0  0  0  0  0  2  0  0  0  0  0  0
  194.6390  175.5540  144.9730 C   0  0  0  0  0  1  0  0  0  0  0  0
  193.2770  174.9970  145.1730 C   0  0  0  0  0  0  0  0  0  0  0  0
  183.9650  178.7950  145.6720 O   0  0  0  0  0  0  0  0  0  0  0  0
  184.2980  179.4050  144.4610 C   0  0  0  0  0  1  0  0  0  0  0  0
  1 13  1  0  0  0  0
  2  1  1  6  0  0  0
  2  6  1  0  0  0  0
  5 15  1  0  0  0  0
  5  2  1  0  0  0  0
  6 16  1  0  0  0  0
  7  8  2  0  0  0  0
  8 14  1  0  0  0  0
  9  3  1  0  0  0  0
 10  4  2  0  0  0  0
 10  6  1  0  0  0  0
 11  8  1  0  0  0  0
 11 12  1  0  0  0  0
 12  5  2  0  0  0  0
 13 24  1  1  0  0  0
 13  9  1  0  0  0  0
 14 17  2  0  0  0  0
 15 17  1  1  0  0  0
 15 10  1  0  0  0  0
 16  3  1  0  0  0  0
 17 19  1  0  0  0  0
 19 20  2  0  0  0  0
 21 19  1  0  0  0  0
 21 23  1  0  0  0  0
 22 23  1  0  0  0  0
 23 18  2  0  0  0  0
 25 24  1  0  0  0  0
M  END
>  <MODEL>
2

>  <REMARK>
 VINA RESULT:      -7.3      2.417      4.787
  Name = 
  2 active torsions:
  status: ('A' for Active; 'I' for Inactive)
    1  A    between atoms: C_6  and  C_23
    2  A    between atoms: C_16  and  O_18
                            x       y       z     vdW  Elec       q    Type
                         _______ _______ _______ _____ _____    ______ ____

>  <TORSDO>
F 2

$$$$
=
 OpenBabel11062420153D

 25 27  0  0  1  0  0  0  0  0999 V2000
  186.4030  177.3920  144.8360 C   0  0  0  0  0  2  0  0  0  0  0  0
  187.9060  177.4650  144.5810 C   0  0  1  0  0  3  0  0  0  0  0  0
  186.3950  178.3280  142.0270 C   0  0  0  0  0  2  0  0  0  0  0  0
  189.3240  175.3630  142.0870 O   0  0  0  0  0  0  0  0  0  0  0  0
  188.6290  176.4050  145.3640 C   0  0  0  0  0  0  0  0  0  0  0  0
  188.1670  177.0860  143.1980 N   0  0  0  0  0  0  0  0  0  0  0  0
  191.4090  175.0450  148.2870 O   0  0  0  0  0  0  0  0  0  0  0  0
  190.7280  175.2290  147.2460 C   0  0  0  0  0  0  0  0  0  0  0  0
  186.1350  179.3340  143.1410 C   0  0  0  0  0  2  0  0  0  0  0  0
  189.0210  175.9520  143.1570 C   0  0  0  0  0  0  0  0  0  0  0  0
  189.2380  175.1080  147.3550 C   0  0  0  0  0  2  0  0  0  0  0  0
  188.5340  176.2480  146.6870 C   0  0  0  0  0  3  0  0  0  0  0  0
  185.6720  178.6830  144.4510 C   0  0  1  0  0  3  0  0  0  0  0  0
  191.4180  175.5290  146.0170 N   0  0  0  0  0  0  0  0  0  0  0  0
  189.4610  175.5000  144.5060 C   0  0  1  0  0  3  0  0  0  0  0  0
  187.8610  177.9130  142.0360 C   0  0  0  0  0  2  0  0  0  0  0  0
  190.9430  175.7040  144.8130 C   0  0  0  0  0  0  0  0  0  0  0  0
  193.9250  176.3770  141.6640 O   0  0  0  0  0  0  0  0  0  0  0  0
  191.9310  176.0420  143.7650 C   0  0  0  0  0  0  0  0  0  0  0  0
  192.1030  177.2510  143.4500 O   0  0  0  0  0  0  0  0  0  0  0  0
  192.6240  175.0070  143.0540 N   0  0  0  0  0  2  0  0  0  0  0  0
  194.2300  174.0410  141.3720 C   0  0  0  0  0  1  0  0  0  0  0  0
  193.5950  175.2150  142.0240 C   0  0  0  0  0  0  0  0  0  0  0  0
  184.2970  178.4420  144.4010 O   0  0  0  0  0  0  0  0  0  0  0  0
  183.8330  178.7460  145.6820 C   0  0  0  0  0  1  0  0  0  0  0  0
  2  1  1  6  0  0  0
  2  5  1  0  0  0  0
  3 16  1  0  0  0  0
  3  9  1  0  0  0  0
  4 10  2  0  0  0  0
  5 12  2  0  0  0  0
  6  2  1  0  0  0  0
  8 11  1  0  0  0  0
  8  7  2  0  0  0  0
  9 13  1  0  0  0  0
 10  6  1  0  0  0  0
 12 11  1  0  0  0  0
 13 24  1  6  0  0  0
 13  1  1  0  0  0  0
 14  8  1  0  0  0  0
 15 10  1  6  0  0  0
 15 17  1  0  0  0  0
 15  5  1  0  0  0  0
 16  6  1  0  0  0  0
 17 14  2  0  0  0  0
 18 23  2  0  0  0  0
 19 17  1  0  0  0  0
 20 19  2  0  0  0  0
 21 19  1  0  0  0  0
 22 23  1  0  0  0  0
 23 21  1  0  0  0  0
 24 25  1  0  0  0  0
M  END
>  <MODEL>
3

>  <REMARK>
 VINA RESULT:      -7.2      2.493      3.687
  Name = 
  2 active torsions:
  status: ('A' for Active; 'I' for Inactive)
    1  A    between atoms: C_6  and  C_23
    2  A    between atoms: C_16  and  O_18
                            x       y       z     vdW  Elec       q    Type
                         _______ _______ _______ _____ _____    ______ ____

>  <TORSDO>
F 2

$$$$
=
 OpenBabel11062420153D

 25 27  0  0  1  0  0  0  0  0999 V2000
  186.0740  177.1630  142.2050 C   0  0  0  0  0  2  0  0  0  0  0  0
  186.9520  176.4280  143.2130 C   0  0  1  0  0  3  0  0  0  0  0  0
  185.9400  179.0640  144.4710 C   0  0  0  0  0  2  0  0  0  0  0  0
  189.9610  177.9740  144.3130 O   0  0  0  0  0  0  0  0  0  0  0  0
  188.0350  175.6580  142.5120 C   0  0  0  0  0  0  0  0  0  0  0  0
  187.6970  177.4100  143.9900 N   0  0  0  0  0  0  0  0  0  0  0  0
  190.1000  172.0980  141.4250 O   0  0  0  0  0  0  0  0  0  0  0  0
  189.7810  173.2530  141.8070 C   0  0  0  0  0  0  0  0  0  0  0  0
  184.7630  178.1310  144.2200 C   0  0  0  0  0  2  0  0  0  0  0  0
  189.0920  177.2030  143.8260 C   0  0  0  0  0  0  0  0  0  0  0  0
  188.9780  174.1020  140.8670 C   0  0  0  0  0  2  0  0  0  0  0  0
  187.8190  174.7530  141.5540 C   0  0  0  0  0  3  0  0  0  0  0  0
  184.7190  177.5800  142.7880 C   0  0  1  0  0  3  0  0  0  0  0  0
  190.2130  173.6910  143.1090 N   0  0  0  0  0  0  0  0  0  0  0  0
  189.4140  176.0270  142.9710 C   0  0  1  0  0  3  0  0  0  0  0  0
  187.1210  178.2710  145.0170 C   0  0  0  0  0  2  0  0  0  0  0  0
  190.0570  174.8470  143.6970 C   0  0  0  0  0  0  0  0  0  0  0  0
  191.9420  175.2960  147.6350 O   0  0  0  0  0  0  0  0  0  0  0  0
  190.5960  174.9590  145.0700 C   0  0  0  0  0  0  0  0  0  0  0  0
  189.8530  174.6710  146.0480 O   0  0  0  0  0  0  0  0  0  0  0  0
  191.9180  175.4680  145.2960 N   0  0  0  0  0  2  0  0  0  0  0  0
  193.9190  176.1680  146.6550 C   0  0  0  0  0  1  0  0  0  0  0  0
  192.5400  175.6210  146.5760 C   0  0  0  0  0  0  0  0  0  0  0  0
  184.1130  178.5090  141.9400 O   0  0  0  0  0  0  0  0  0  0  0  0
  184.6970  178.2910  140.6910 C   0  0  0  0  0  1  0  0  0  0  0  0
  1 13  1  0  0  0  0
  2  1  1  6  0  0  0
  2  6  1  0  0  0  0
  3 16  1  0  0  0  0
  5  2  1  0  0  0  0
  6 16  1  0  0  0  0
  7  8  2  0  0  0  0
  8 14  1  0  0  0  0
  9  3  1  0  0  0  0
 10  6  1  0  0  0  0
 10  4  2  0  0  0  0
 11 12  1  0  0  0  0
 11  8  1  0  0  0  0
 12  5  2  0  0  0  0
 13 24  1  6  0  0  0
 13  9  1  0  0  0  0
 14 17  2  0  0  0  0
 15  5  1  1  0  0  0
 15 17  1  0  0  0  0
 15 10  1  0  0  0  0
 17 19  1  0  0  0  0
 19 21  1  0  0  0  0
 19 20  2  0  0  0  0
 21 23  1  0  0  0  0
 23 22  1  0  0  0  0
 23 18  2  0  0  0  0
 25 24  1  0  0  0  0
M  END
>  <MODEL>
4

>  <REMARK>
 VINA RESULT:      -7.1      2.222      4.323
  Name = 
  2 active torsions:
  status: ('A' for Active; 'I' for Inactive)
    1  A    between atoms: C_6  and  C_23
    2  A    between atoms: C_16  and  O_18
                            x       y       z     vdW  Elec       q    Type
                         _______ _______ _______ _____ _____    ______ ____

>  <TORSDO>
F 2

$$$$
=
 OpenBabel11062420153D

 25 27  0  0  1  0  0  0  0  0999 V2000
  186.1330  177.0110  144.9040 C   0  0  0  0  0  2  0  0  0  0  0  0
  187.4940  176.3370  144.7520 C   0  0  1  0  0  3  0  0  0  0  0  0
  187.4800  178.0390  147.3320 C   0  0  0  0  0  2  0  0  0  0  0  0
  190.3820  178.3750  144.3580 O   0  0  0  0  0  0  0  0  0  0  0  0
  187.8520  176.1850  143.3000 C   0  0  0  0  0  0  0  0  0  0  0  0
  188.5230  177.2380  145.2520 N   0  0  0  0  0  0  0  0  0  0  0  0
  188.7980  173.9320  139.8150 O   0  0  0  0  0  0  0  0  0  0  0  0
  188.7680  174.7660  140.7550 C   0  0  0  0  0  0  0  0  0  0  0  0
  186.4860  176.8930  147.4680 C   0  0  0  0  0  2  0  0  0  0  0  0
  189.4490  177.5410  144.2180 C   0  0  0  0  0  0  0  0  0  0  0  0
  187.5050  175.5480  140.9580 C   0  0  0  0  0  2  0  0  0  0  0  0
  187.0860  175.5720  142.3940 C   0  0  0  0  0  3  0  0  0  0  0  0
  185.5110  176.7900  146.2870 C   0  0  1  0  0  3  0  0  0  0  0  0
  189.9470  174.9270  141.5680 N   0  0  0  0  0  0  0  0  0  0  0  0
  189.1600  176.8250  142.9450 C   0  0  1  0  0  3  0  0  0  0  0  0
  188.7540  177.5410  146.6610 C   0  0  0  0  0  2  0  0  0  0  0  0
  190.1770  175.7540  142.5530 C   0  0  0  0  0  0  0  0  0  0  0  0
  193.9720  175.1300  144.6680 O   0  0  0  0  0  0  0  0  0  0  0  0
  191.4970  175.6340  143.2110 C   0  0  0  0  0  0  0  0  0  0  0  0
  192.4180  176.4340  142.8910 O   0  0  0  0  0  0  0  0  0  0  0  0
  191.7560  174.5720  144.1390 N   0  0  0  0  0  2  0  0  0  0  0  0
  193.1130  173.2070  145.7630 C   0  0  0  0  0  1  0  0  0  0  0  0
  192.9900  174.3580  144.8310 C   0  0  0  0  0  0  0  0  0  0  0  0
  184.4510  177.6810  146.4680 O   0  0  0  0  0  0  0  0  0  0  0  0
  184.4410  178.4670  145.3150 C   0  0  0  0  0  1  0  0  0  0  0  0
  1 13  1  0  0  0  0
  2  1  1  6  0  0  0
  2  6  1  0  0  0  0
  3  9  1  0  0  0  0
  5  2  1  0  0  0  0
  6 16  1  0  0  0  0
  7  8  2  0  0  0  0
  8 11  1  0  0  0  0
  8 14  1  0  0  0  0
 10  4  2  0  0  0  0
 10  6  1  0  0  0  0
 11 12  1  0  0  0  0
 12  5  2  0  0  0  0
 13 24  1  1  0  0  0
 13  9  1  0  0  0  0
 14 17  2  0  0  0  0
 15 17  1  1  0  0  0
 15  5  1  0  0  0  0
 15 10  1  0  0  0  0
 16  3  1  0  0  0  0
 17 19  1  0  0  0  0
 18 23  2  0  0  0  0
 19 21  1  0  0  0  0
 20 19  2  0  0  0  0
 21 23  1  0  0  0  0
 23 22  1  0  0  0  0
 25 24  1  0  0  0  0
M  END
>  <MODEL>
5

>  <REMARK>
 VINA RESULT:      -6.6      2.625      5.023
  Name = 
  2 active torsions:
  status: ('A' for Active; 'I' for Inactive)
    1  A    between atoms: C_6  and  C_23
    2  A    between atoms: C_16  and  O_18
                            x       y       z     vdW  Elec       q    Type
                         _______ _______ _______ _____ _____    ______ ____

>  <TORSDO>
F 2

$$$$
=
 OpenBabel11062420153D

 25 27  0  0  1  0  0  0  0  0999 V2000
  194.4180  175.2390  145.1590 C   0  0  0  0  0  2  0  0  0  0  0  0
  193.0240  175.1120  144.5530 C   0  0  1  0  0  3  0  0  0  0  0  0
  195.0050  176.0380  142.3690 C   0  0  0  0  0  2  0  0  0  0  0  0
  191.4480  178.0240  143.2530 O   0  0  0  0  0  0  0  0  0  0  0  0
  191.9700  175.4420  145.5730 C   0  0  0  0  0  0  0  0  0  0  0  0
  192.8510  176.1550  143.5510 N   0  0  0  0  0  0  0  0  0  0  0  0
  188.6010  174.5410  148.0130 O   0  0  0  0  0  0  0  0  0  0  0  0
  189.4290  175.0650  147.2250 C   0  0  0  0  0  0  0  0  0  0  0  0
  195.3660  174.6300  142.8260 C   0  0  0  0  0  2  0  0  0  0  0  0
  191.7540  176.9870  143.9000 C   0  0  0  0  0  0  0  0  0  0  0  0
  190.8180  175.3110  147.7340 C   0  0  0  0  0  2  0  0  0  0  0  0
  191.8590  174.8470  146.7630 C   0  0  0  0  0  3  0  0  0  0  0  0
  195.4890  174.4980  144.3500 C   0  0  1  0  0  3  0  0  0  0  0  0
  188.9930  175.4070  145.8960 N   0  0  0  0  0  0  0  0  0  0  0  0
  191.0530  176.5450  145.1370 C   0  0  1  0  0  3  0  0  0  0  0  0
  193.4930  176.1680  142.2410 C   0  0  0  0  0  2  0  0  0  0  0  0
  189.6410  176.0000  144.9290 C   0  0  0  0  0  0  0  0  0  0  0  0
  187.3040  176.7670  141.2940 O   0  0  0  0  0  0  0  0  0  0  0  0
  188.9050  176.1690  143.6570 C   0  0  0  0  0  0  0  0  0  0  0  0
  189.1620  175.4000  142.6920 O   0  0  0  0  0  0  0  0  0  0  0  0
  187.9710  177.2450  143.4910 N   0  0  0  0  0  2  0  0  0  0  0  0
  186.2790  178.6660  142.2830 C   0  0  0  0  0  1  0  0  0  0  0  0
  187.2070  177.5060  142.3100 C   0  0  0  0  0  0  0  0  0  0  0  0
  196.7560  174.9150  144.7620 O   0  0  0  0  0  0  0  0  0  0  0  0
  197.3210  173.7950  145.3740 C   0  0  0  0  0  1  0  0  0  0  0  0
  2  1  1  1  0  0  0
  2  5  1  0  0  0  0
  3  9  1  0  0  0  0
  4 10  2  0  0  0  0
  5 12  2  0  0  0  0
  6 10  1  0  0  0  0
  6  2  1  0  0  0  0
  8 11  1  0  0  0  0
  8  7  2  0  0  0  0
  9 13  1  0  0  0  0
 12 11  1  0  0  0  0
 13 24  1  1  0  0  0
 13  1  1  0  0  0  0
 14  8  1  0  0  0  0
 15 10  1  6  0  0  0
 15  5  1  0  0  0  0
 16  3  1  0  0  0  0
 16  6  1  0  0  0  0
 17 15  1  0  0  0  0
 17 14  2  0  0  0  0
 18 23  2  0  0  0  0
 19 17  1  0  0  0  0
 20 19  2  0  0  0  0
 21 19  1  0  0  0  0
 22 23  1  0  0  0  0
 23 21  1  0  0  0  0
 24 25  1  0  0  0  0
M  END
>  <MODEL>
6

>  <REMARK>
 VINA RESULT:      -6.5      2.855      7.656
  Name = 
  2 active torsions:
  status: ('A' for Active; 'I' for Inactive)
    1  A    between atoms: C_6  and  C_23
    2  A    between atoms: C_16  and  O_18
                            x       y       z     vdW  Elec       q    Type
                         _______ _______ _______ _____ _____    ______ ____

>  <TORSDO>
F 2

$$$$
=
 OpenBabel11062420153D

 25 27  0  0  1  0  0  0  0  0999 V2000
  193.5350  174.6760  143.8750 C   0  0  0  0  0  2  0  0  0  0  0  0
  192.3200  175.5970  143.9170 C   0  0  1  0  0  3  0  0  0  0  0  0
  193.9670  175.9640  146.5060 C   0  0  0  0  0  2  0  0  0  0  0  0
  189.8870  175.1100  146.4660 O   0  0  0  0  0  0  0  0  0  0  0  0
  191.1570  174.9740  143.1970 C   0  0  0  0  0  0  0  0  0  0  0  0
  191.8460  175.6870  145.2920 N   0  0  0  0  0  0  0  0  0  0  0  0
  188.1910  174.8180  140.1470 O   0  0  0  0  0  0  0  0  0  0  0  0
  188.8230  174.7950  141.2340 C   0  0  0  0  0  0  0  0  0  0  0  0
  194.7800  176.4390  145.3090 C   0  0  0  0  0  2  0  0  0  0  0  0
  190.5040  175.2280  145.3740 C   0  0  0  0  0  0  0  0  0  0  0  0
  189.9970  173.8680  141.3400 C   0  0  0  0  0  2  0  0  0  0  0  0
  191.1930  174.5460  141.9330 C   0  0  0  0  0  3  0  0  0  0  0  0
  194.8480  175.4100  144.1730 C   0  0  1  0  0  3  0  0  0  0  0  0
  188.3760  175.6440  142.3080 N   0  0  0  0  0  0  0  0  0  0  0  0
  189.9330  174.8440  144.0540 C   0  0  1  0  0  3  0  0  0  0  0  0
  192.5200  176.4170  146.3600 C   0  0  0  0  0  2  0  0  0  0  0  0
  188.8270  175.7560  143.5290 C   0  0  0  0  0  0  0  0  0  0  0  0
  186.6020  178.5210  146.1110 O   0  0  0  0  0  0  0  0  0  0  0  0
  188.1590  176.7640  144.3820 C   0  0  0  0  0  0  0  0  0  0  0  0
  188.7260  177.8730  144.5820 O   0  0  0  0  0  0  0  0  0  0  0  0
  186.9230  176.4580  145.0420 N   0  0  0  0  0  2  0  0  0  0  0  0
  184.9230  176.8910  146.5100 C   0  0  0  0  0  1  0  0  0  0  0  0
  186.1920  177.3510  145.8880 C   0  0  0  0  0  0  0  0  0  0  0  0
  195.8530  174.4770  144.4360 O   0  0  0  0  0  0  0  0  0  0  0  0
  197.0280  175.0770  143.9800 C   0  0  0  0  0  1  0  0  0  0  0  0
  1 13  1  0  0  0  0
  2  1  1  1  0  0  0
  2  6  1  0  0  0  0
  5  2  1  0  0  0  0
  6 10  1  0  0  0  0
  6 16  1  0  0  0  0
  7  8  2  0  0  0  0
  8 11  1  0  0  0  0
  8 14  1  0  0  0  0
  9  3  1  0  0  0  0
 10  4  2  0  0  0  0
 11 12  1  0  0  0  0
 12  5  2  0  0  0  0
 13 24  1  1  0  0  0
 13  9  1  0  0  0  0
 14 17  2  0  0  0  0
 15  5  1  6  0  0  0
 15 10  1  0  0  0  0
 16  3  1  0  0  0  0
 17 15  1  0  0  0  0
 17 19  1  0  0  0  0
 19 20  2  0  0  0  0
 19 21  1  0  0  0  0
 21 23  1  0  0  0  0
 23 18  2  0  0  0  0
 23 22  1  0  0  0  0
 25 24  1  0  0  0  0
M  END
>  <MODEL>
7

>  <REMARK>
 VINA RESULT:      -6.5      2.984      7.744
  Name = 
  2 active torsions:
  status: ('A' for Active; 'I' for Inactive)
    1  A    between atoms: C_6  and  C_23
    2  A    between atoms: C_16  and  O_18
                            x       y       z     vdW  Elec       q    Type
                         _______ _______ _______ _____ _____    ______ ____

>  <TORSDO>
F 2

$$$$
=
 OpenBabel11062420153D

 25 27  0  0  1  0  0  0  0  0999 V2000
  192.2170  174.1910  144.3650 C   0  0  0  0  0  2  0  0  0  0  0  0
  191.3110  175.2240  143.7000 C   0  0  1  0  0  3  0  0  0  0  0  0
  192.1270  176.2360  146.5050 C   0  0  0  0  0  2  0  0  0  0  0  0
  188.1750  175.9720  145.2040 O   0  0  0  0  0  0  0  0  0  0  0  0
  190.3080  174.5520  142.8050 C   0  0  0  0  0  0  0  0  0  0  0  0
  190.4770  175.8430  144.7220 N   0  0  0  0  0  0  0  0  0  0  0  0
  188.4720  173.7540  139.0490 O   0  0  0  0  0  0  0  0  0  0  0  0
  188.7160  174.0210  140.2530 C   0  0  0  0  0  0  0  0  0  0  0  0
  193.3570  176.1570  145.6100 C   0  0  0  0  0  2  0  0  0  0  0  0
  189.1050  175.6240  144.4280 C   0  0  0  0  0  0  0  0  0  0  0  0
  189.5370  173.0400  141.0350 C   0  0  0  0  0  2  0  0  0  0  0  0
  190.6230  173.7150  141.8140 C   0  0  0  0  0  3  0  0  0  0  0  0
  193.5130  174.8000  144.9100 C   0  0  1  0  0  3  0  0  0  0  0  0
  188.1850  175.2400  140.8080 N   0  0  0  0  0  0  0  0  0  0  0  0
  188.8890  174.8890  143.1520 C   0  0  1  0  0  3  0  0  0  0  0  0
  190.9500  176.7990  145.7180 C   0  0  0  0  0  2  0  0  0  0  0  0
  188.2540  175.7040  142.0270 C   0  0  0  0  0  0  0  0  0  0  0  0
  186.1000  179.4560  142.7650 O   0  0  0  0  0  0  0  0  0  0  0  0
  187.6260  177.0230  142.2600 C   0  0  0  0  0  0  0  0  0  0  0  0
  188.3490  178.0570  142.2540 O   0  0  0  0  0  0  0  0  0  0  0  0
  186.2300  177.1220  142.5730 N   0  0  0  0  0  2  0  0  0  0  0  0
  184.0690  178.2860  143.1370 C   0  0  0  0  0  1  0  0  0  0  0  0
  185.5190  178.3400  142.8190 C   0  0  0  0  0  0  0  0  0  0  0  0
  194.1300  173.8900  145.7710 O   0  0  0  0  0  0  0  0  0  0  0  0
  194.0380  172.6600  145.1180 C   0  0  0  0  0  1  0  0  0  0  0  0
  1 13  1  0  0  0  0
  2  1  1  1  0  0  0
  2  6  1  0  0  0  0
  5 15  1  0  0  0  0
  5  2  1  0  0  0  0
  6 16  1  0  0  0  0
  7  8  2  0  0  0  0
  8 14  1  0  0  0  0
  8 11  1  0  0  0  0
  9  3  1  0  0  0  0
 10  6  1  0  0  0  0
 10  4  2  0  0  0  0
 11 12  1  0  0  0  0
 12  5  2  0  0  0  0
 13  9  1  0  0  0  0
 13 24  1  1  0  0  0
 14 17  2  0  0  0  0
 15 17  1  6  0  0  0
 15 10  1  0  0  0  0
 16  3  1  0  0  0  0
 17 19  1  0  0  0  0
 18 23  2  0  0  0  0
 19 21  1  0  0  0  0
 20 19  2  0  0  0  0
 21 23  1  0  0  0  0
 23 22  1  0  0  0  0
 25 24  1  0  0  0  0
M  END
>  <MODEL>
8

>  <REMARK>
 VINA RESULT:      -6.4      2.630      7.645
  Name = 
  2 active torsions:
  status: ('A' for Active; 'I' for Inactive)
    1  A    between atoms: C_6  and  C_23
    2  A    between atoms: C_16  and  O_18
                            x       y       z     vdW  Elec       q    Type
                         _______ _______ _______ _____ _____    ______ ____

>  <TORSDO>
F 2

$$$$
=
 OpenBabel11062420153D

 25 27  0  0  1  0  0  0  0  0999 V2000
  185.4450  177.5460  143.0670 C   0  0  0  0  0  2  0  0  0  0  0  0
  186.9570  177.7520  143.0480 C   0  0  1  0  0  3  0  0  0  0  0  0
  185.9860  177.0540  140.1980 C   0  0  0  0  0  2  0  0  0  0  0  0
  189.0470  175.0140  142.1590 O   0  0  0  0  0  0  0  0  0  0  0  0
  187.5680  177.3210  144.3510 C   0  0  0  0  0  0  0  0  0  0  0  0
  187.5450  176.8260  142.0880 N   0  0  0  0  0  0  0  0  0  0  0  0
  189.7290  177.9770  147.9590 O   0  0  0  0  0  0  0  0  0  0  0  0
  189.2830  177.5360  146.8700 C   0  0  0  0  0  0  0  0  0  0  0  0
  185.4110  178.3990  140.6200 C   0  0  0  0  0  2  0  0  0  0  0  0
  188.4710  175.9700  142.7410 C   0  0  0  0  0  0  0  0  0  0  0  0
  187.8190  177.2230  146.7890 C   0  0  0  0  0  2  0  0  0  0  0  0
  187.1950  177.7820  145.5480 C   0  0  0  0  0  3  0  0  0  0  0  0
  184.7210  178.3620  141.9900 C   0  0  1  0  0  3  0  0  0  0  0  0
  190.2020  177.3460  145.7770 N   0  0  0  0  0  0  0  0  0  0  0  0
  188.6350  176.2800  144.1880 C   0  0  1  0  0  3  0  0  0  0  0  0
  187.4410  176.9520  140.6380 C   0  0  0  0  0  2  0  0  0  0  0  0
  189.9930  176.8570  144.5830 C   0  0  0  0  0  0  0  0  0  0  0  0
  193.5360  176.4950  142.0190 O   0  0  0  0  0  0  0  0  0  0  0  0
  191.1590  176.8340  143.6740 C   0  0  0  0  0  0  0  0  0  0  0  0
  191.3060  177.7700  142.8410 O   0  0  0  0  0  0  0  0  0  0  0  0
  192.0670  175.7240  143.6770 N   0  0  0  0  0  2  0  0  0  0  0  0
  194.0700  174.3800  142.9540 C   0  0  0  0  0  1  0  0  0  0  0  0
  193.2230  175.5950  142.8420 C   0  0  0  0  0  0  0  0  0  0  0  0
  183.4140  177.8910  141.8500 O   0  0  0  0  0  0  0  0  0  0  0  0
  182.9000  178.5810  140.7510 C   0  0  0  0  0  1  0  0  0  0  0  0
  2  1  1  1  0  0  0
  2  5  1  0  0  0  0
  3  9  1  0  0  0  0
  3 16  1  0  0  0  0
  4 10  2  0  0  0  0
  5 12  2  0  0  0  0
  6 10  1  0  0  0  0
  6  2  1  0  0  0  0
  8  7  2  0  0  0  0
  9 13  1  0  0  0  0
 11  8  1  0  0  0  0
 12 11  1  0  0  0  0
 13 24  1  6  0  0  0
 13  1  1  0  0  0  0
 14  8  1  0  0  0  0
 15 10  1  6  0  0  0
 15  5  1  0  0  0  0
 15 17  1  0  0  0  0
 16  6  1  0  0  0  0
 17 14  2  0  0  0  0
 18 23  2  0  0  0  0
 19 21  1  0  0  0  0
 19 17  1  0  0  0  0
 20 19  2  0  0  0  0
 23 22  1  0  0  0  0
 23 21  1  0  0  0  0
 25 24  1  0  0  0  0
M  END
>  <MODEL>
9

>  <REMARK>
 VINA RESULT:      -6.4      1.845      2.175
  Name = 
  2 active torsions:
  status: ('A' for Active; 'I' for Inactive)
    1  A    between atoms: C_6  and  C_23
    2  A    between atoms: C_16  and  O_18
                            x       y       z     vdW  Elec       q    Type
                         _______ _______ _______ _____ _____    ______ ____

>  <TORSDO>
F 2

$$$$
