=
 OpenBabel11072408503D

 26 31  0  0  1  0  0  0  0  0999 V2000
  186.6790  176.7400  146.4130 C   0  0  2  0  0  3  0  0  0  0  0  0
  185.4730  177.8420  143.3920 C   0  0  0  0  0  3  0  0  0  0  0  0
  190.7990  175.7560  147.5030 C   0  0  0  0  0  2  0  0  0  0  0  0
  188.6110  176.6580  143.6430 C   0  0  0  0  0  0  0  0  0  0  0  0
  186.6980  177.4260  147.5220 N   0  0  0  0  0  2  0  0  0  0  0  0
  184.8180  178.0470  145.6240 C   0  0  0  0  0  0  0  0  0  0  0  0
  189.0940  176.6100  145.8470 C   0  0  0  0  0  0  0  0  0  0  0  0
  189.7940  176.8530  147.1460 C   0  0  0  0  0  2  0  0  0  0  0  0
  192.3440  176.6280  145.6730 C   0  0  0  0  0  2  0  0  0  0  0  0
  184.8180  178.7340  146.7320 N   0  0  0  0  0  0  0  0  0  0  0  0
  185.4750  178.1550  147.9260 C   0  0  0  0  0  2  0  0  0  0  0  0
  187.7720  176.4210  145.7030 N   0  0  0  0  0  0  0  0  0  0  0  0
  189.6530  176.7110  144.5750 C   0  0  0  0  0  0  0  0  0  0  0  0
  191.3630  176.9380  144.2150 S   0  0  0  0  0  0  0  0  0  0  0  0
  191.7750  175.9680  143.1410 O   0  0  0  0  0  0  0  0  0  0  0  0
  185.6390  176.8830  145.5190 C   0  0  1  0  0  3  0  0  0  0  0  0
  184.6770  178.6410  144.3400 N   0  0  0  0  0  0  0  0  0  0  0  0
  186.1040  176.7590  144.2340 C   0  0  2  0  0  3  0  0  0  0  0  0
  191.7980  175.4010  146.3930 C   0  0  0  0  0  2  0  0  0  0  0  0
  191.5950  178.3470  143.7410 O   0  0  0  0  0  0  0  0  0  0  0  0
  187.4620  176.4630  144.4080 C   0  0  0  0  0  0  0  0  0  0  0  0
  187.8450  175.7170  141.4800 C   0  0  0  0  0  2  0  0  0  0  0  0
  188.7800  176.7020  142.1500 C   0  0  1  0  0  3  0  0  0  0  0  0
  187.1980  176.3590  140.4130 O   0  0  0  0  0  0  0  0  0  0  0  0
  187.1820  177.7220  140.7460 C   0  0  0  0  0  2  0  0  0  0  0  0
  188.4280  178.0290  141.5470 C   0  0  0  0  0  2  0  0  0  0  0  0
  1  5  1  6  0  0  0
  2 17  2  0  0  0  0
  4 21  2  0  0  0  0
  4 13  1  0  0  0  0
  5 11  1  0  0  0  0
  6 10  2  0  0  0  0
  7  8  1  0  0  0  0
  8  3  1  0  0  0  0
  9 19  1  0  0  0  0
 10 11  1  0  0  0  0
 12  7  1  0  0  0  0
 12  1  1  0  0  0  0
 13  7  2  0  0  0  0
 14 13  1  0  0  0  0
 14  9  1  0  0  0  0
 15 14  2  0  0  0  0
 16  6  1  6  0  0  0
 16  1  1  0  0  0  0
 17  6  1  0  0  0  0
 18  2  1  6  0  0  0
 18 21  1  0  0  0  0
 18 16  1  0  0  0  0
 19  3  1  0  0  0  0
 20 14  2  0  0  0  0
 21 12  1  0  0  0  0
 22 23  1  0  0  0  0
 23  4  1  1  0  0  0
 24 25  1  0  0  0  0
 24 22  1  0  0  0  0
 25 26  1  0  0  0  0
 26 23  1  0  0  0  0
M  END
>  <MODEL>
1

>  <REMARK>
 VINA RESULT:      -8.6      0.000      0.000
  Name = 
  1 active torsions:
  status: ('A' for Active; 'I' for Inactive)
    1  A    between atoms: C_4  and  C_14
                            x       y       z     vdW  Elec       q    Type
                         _______ _______ _______ _____ _____    ______ ____

>  <TORSDO>
F 1

$$$$
=
 OpenBabel11072408503D

 26 31  0  0  1  0  0  0  0  0999 V2000
  187.3280  178.3920  141.9320 C   0  0  2  0  0  3  0  0  0  0  0  0
  184.4190  178.2810  143.7530 C   0  0  0  0  0  3  0  0  0  0  0  0
  191.3430  177.1450  143.1380 C   0  0  0  0  0  2  0  0  0  0  0  0
  187.3850  177.7580  145.2490 C   0  0  0  0  0  0  0  0  0  0  0  0
  187.5850  177.6920  140.8610 N   0  0  0  0  0  2  0  0  0  0  0  0
  184.9690  178.2310  141.4840 C   0  0  0  0  0  0  0  0  0  0  0  0
  188.8700  177.3760  143.5930 C   0  0  0  0  0  0  0  0  0  0  0  0
  189.9240  176.7120  142.7650 C   0  0  0  0  0  2  0  0  0  0  0  0
  191.1510  175.7900  145.2880 C   0  0  0  0  0  2  0  0  0  0  0  0
  185.2100  177.5390  140.4060 N   0  0  0  0  0  0  0  0  0  0  0  0
  186.5580  177.6200  139.7980 C   0  0  0  0  0  2  0  0  0  0  0  0
  187.9180  178.1970  143.1210 N   0  0  0  0  0  0  0  0  0  0  0  0
  188.5920  177.1240  144.9350 C   0  0  0  0  0  0  0  0  0  0  0  0
  189.5570  176.1240  146.0170 S   0  0  0  0  0  0  0  0  0  0  0  0
  189.7640  176.8580  147.3150 O   0  0  0  0  0  0  0  0  0  0  0  0
  186.0520  178.8510  142.1780 C   0  0  1  0  0  3  0  0  0  0  0  0
  183.9460  177.8930  142.4120 N   0  0  0  0  0  0  0  0  0  0  0  0
  185.8020  178.8420  143.5280 C   0  0  2  0  0  3  0  0  0  0  0  0
  191.6780  177.0610  144.6330 C   0  0  0  0  0  2  0  0  0  0  0  0
  188.8410  174.8270  146.2780 O   0  0  0  0  0  0  0  0  0  0  0  0
  187.0190  178.4220  144.0800 C   0  0  0  0  0  0  0  0  0  0  0  0
  186.0600  179.0950  146.8650 C   0  0  0  0  0  2  0  0  0  0  0  0
  186.7370  177.7650  146.6050 C   0  0  1  0  0  3  0  0  0  0  0  0
  184.7700  178.8590  147.3640 O   0  0  0  0  0  0  0  0  0  0  0  0
  184.3980  177.6000  146.8690 C   0  0  0  0  0  2  0  0  0  0  0  0
  185.6430  176.7490  146.7520 C   0  0  0  0  0  2  0  0  0  0  0  0
  1  5  1  1  0  0  0
  1 16  1  0  0  0  0
  1 12  1  0  0  0  0
  3 19  1  0  0  0  0
  6 17  1  0  0  0  0
  7 13  2  0  0  0  0
  8  3  1  0  0  0  0
  8  7  1  0  0  0  0
  9 14  1  0  0  0  0
 10  6  2  0  0  0  0
 11 10  1  0  0  0  0
 11  5  1  0  0  0  0
 12  7  1  0  0  0  0
 12 21  1  0  0  0  0
 13  4  1  0  0  0  0
 13 14  1  0  0  0  0
 14 20  2  0  0  0  0
 14 15  2  0  0  0  0
 16  6  1  6  0  0  0
 16 18  1  0  0  0  0
 17  2  2  0  0  0  0
 18  2  1  6  0  0  0
 18 21  1  0  0  0  0
 19  9  1  0  0  0  0
 21  4  2  0  0  0  0
 22 24  1  0  0  0  0
 23  4  1  6  0  0  0
 23 26  1  0  0  0  0
 23 22  1  0  0  0  0
 25 24  1  0  0  0  0
 26 25  1  0  0  0  0
M  END
>  <MODEL>
2

>  <REMARK>
 VINA RESULT:      -8.5      2.738      4.653
  Name = 
  1 active torsions:
  status: ('A' for Active; 'I' for Inactive)
    1  A    between atoms: C_4  and  C_14
                            x       y       z     vdW  Elec       q    Type
                         _______ _______ _______ _____ _____    ______ ____

>  <TORSDO>
F 1

$$$$
=
 OpenBabel11072408503D

 26 31  0  0  1  0  0  0  0  0999 V2000
  187.4700  176.9440  143.3760 C   0  0  2  0  0  3  0  0  0  0  0  0
  188.2370  177.5240  146.6730 C   0  0  0  0  0  3  0  0  0  0  0  0
  188.7290  173.6140  140.8340 C   0  0  0  0  0  2  0  0  0  0  0  0
  189.8710  175.1520  144.9360 C   0  0  0  0  0  0  0  0  0  0  0  0
  186.2850  176.6700  142.9050 N   0  0  0  0  0  2  0  0  0  0  0  0
  186.4770  178.0880  145.2450 C   0  0  0  0  0  0  0  0  0  0  0  0
  188.6550  174.7810  143.0720 C   0  0  0  0  0  0  0  0  0  0  0  0
  187.8690  174.0730  142.0140 C   0  0  0  0  0  2  0  0  0  0  0  0
  189.7370  171.8060  142.3210 C   0  0  0  0  0  2  0  0  0  0  0  0
  185.2850  177.8320  144.7820 N   0  0  0  0  0  0  0  0  0  0  0  0
  185.1390  177.4970  143.3470 C   0  0  0  0  0  2  0  0  0  0  0  0
  188.4790  176.0610  143.4400 N   0  0  0  0  0  0  0  0  0  0  0  0
  189.5590  174.2010  143.9590 C   0  0  0  0  0  0  0  0  0  0  0  0
  190.1440  172.5410  143.8950 S   0  0  0  0  0  0  0  0  0  0  0  0
  191.6400  172.5380  144.0570 O   0  0  0  0  0  0  0  0  0  0  0  0
  187.6200  177.8130  144.4350 C   0  0  1  0  0  3  0  0  0  0  0  0
  186.8260  177.9440  146.6160 N   0  0  0  0  0  0  0  0  0  0  0  0
  188.6640  177.4110  145.2290 C   0  0  2  0  0  3  0  0  0  0  0  0
  189.9880  172.8230  141.2130 C   0  0  0  0  0  2  0  0  0  0  0  0
  189.5140  171.7410  145.0020 O   0  0  0  0  0  0  0  0  0  0  0  0
  189.1770  176.2970  144.5500 C   0  0  0  0  0  0  0  0  0  0  0  0
  191.9860  175.9300  145.9730 C   0  0  0  0  0  2  0  0  0  0  0  0
  190.8380  174.9460  146.0690 C   0  0  1  0  0  3  0  0  0  0  0  0
  192.1950  176.5080  147.2350 O   0  0  0  0  0  0  0  0  0  0  0  0
  190.9570  176.4380  147.8920 C   0  0  0  0  0  2  0  0  0  0  0  0
  190.2390  175.1930  147.4200 C   0  0  0  0  0  2  0  0  0  0  0  0
  1  5  1  1  0  0  0
  1 12  1  0  0  0  0
  1 16  1  0  0  0  0
  3 19  1  0  0  0  0
  3  8  1  0  0  0  0
  5 11  1  0  0  0  0
  6 17  1  0  0  0  0
  7 12  1  0  0  0  0
  7 13  2  0  0  0  0
  8  7  1  0  0  0  0
  9 14  1  0  0  0  0
 10  6  2  0  0  0  0
 11 10  1  0  0  0  0
 12 21  1  0  0  0  0
 13  4  1  0  0  0  0
 14 13  1  0  0  0  0
 14 15  2  0  0  0  0
 14 20  2  0  0  0  0
 16 18  1  0  0  0  0
 16  6  1  1  0  0  0
 17  2  2  0  0  0  0
 18  2  1  1  0  0  0
 19  9  1  0  0  0  0
 21  4  2  0  0  0  0
 21 18  1  0  0  0  0
 22 23  1  0  0  0  0
 22 24  1  0  0  0  0
 23  4  1  6  0  0  0
 23 26  1  0  0  0  0
 24 25  1  0  0  0  0
 26 25  1  0  0  0  0
M  END
>  <MODEL>
3

>  <REMARK>
 VINA RESULT:      -7.4      2.476      4.933
  Name = 
  1 active torsions:
  status: ('A' for Active; 'I' for Inactive)
    1  A    between atoms: C_4  and  C_14
                            x       y       z     vdW  Elec       q    Type
                         _______ _______ _______ _____ _____    ______ ____

>  <TORSDO>
F 1

$$$$
=
 OpenBabel11072408503D

 26 31  0  0  1  0  0  0  0  0999 V2000
  188.0070  177.1190  141.6440 C   0  0  2  0  0  3  0  0  0  0  0  0
  187.9180  177.6920  145.0290 C   0  0  0  0  0  3  0  0  0  0  0  0
  189.6340  173.6640  139.5110 C   0  0  0  0  0  2  0  0  0  0  0  0
  189.7670  175.1770  143.7760 C   0  0  0  0  0  0  0  0  0  0  0  0
  186.9710  176.9280  140.8750 N   0  0  0  0  0  2  0  0  0  0  0  0
  186.6460  178.3640  143.1900 C   0  0  0  0  0  0  0  0  0  0  0  0
  189.0610  174.8690  141.6550 C   0  0  0  0  0  0  0  0  0  0  0  0
  188.5310  174.2050  140.4240 C   0  0  0  0  0  2  0  0  0  0  0  0
  190.0720  171.8090  141.2030 C   0  0  0  0  0  2  0  0  0  0  0  0
  185.6030  178.1900  142.4270 N   0  0  0  0  0  0  0  0  0  0  0  0
  185.8150  177.8450  141.0030 C   0  0  0  0  0  2  0  0  0  0  0  0
  188.8930  176.1640  141.9690 N   0  0  0  0  0  0  0  0  0  0  0  0
  189.6520  174.2370  142.7460 C   0  0  0  0  0  0  0  0  0  0  0  0
  190.1040  172.5360  142.8320 S   0  0  0  0  0  0  0  0  0  0  0  0
  191.5000  172.4240  143.3840 O   0  0  0  0  0  0  0  0  0  0  0  0
  187.9380  177.9910  142.7090 C   0  0  1  0  0  3  0  0  0  0  0  0
  186.6080  178.2160  144.6040 N   0  0  0  0  0  0  0  0  0  0  0  0
  188.7020  177.5240  143.7490 C   0  0  2  0  0  3  0  0  0  0  0  0
  190.6830  172.7870  140.2060 C   0  0  0  0  0  2  0  0  0  0  0  0
  189.1440  171.8040  143.7290 O   0  0  0  0  0  0  0  0  0  0  0  0
  189.2880  176.3650  143.2250 C   0  0  0  0  0  0  0  0  0  0  0  0
  191.0750  176.1610  145.6400 C   0  0  0  0  0  2  0  0  0  0  0  0
  190.3820  174.9170  145.1230 C   0  0  1  0  0  3  0  0  0  0  0  0
  190.6970  176.3690  146.9750 O   0  0  0  0  0  0  0  0  0  0  0  0
  189.4350  175.7690  147.1090 C   0  0  0  0  0  2  0  0  0  0  0  0
  189.3780  174.5740  146.1830 C   0  0  0  0  0  2  0  0  0  0  0  0
  1  5  1  1  0  0  0
  1 12  1  0  0  0  0
  1 16  1  0  0  0  0
  3 19  1  0  0  0  0
  3  8  1  0  0  0  0
  5 11  1  0  0  0  0
  6 17  1  0  0  0  0
  7 12  1  0  0  0  0
  7 13  2  0  0  0  0
  8  7  1  0  0  0  0
  9 14  1  0  0  0  0
 10  6  2  0  0  0  0
 11 10  1  0  0  0  0
 12 21  1  0  0  0  0
 13 14  1  0  0  0  0
 13  4  1  0  0  0  0
 14 15  2  0  0  0  0
 14 20  2  0  0  0  0
 16  6  1  1  0  0  0
 16 18  1  0  0  0  0
 17  2  2  0  0  0  0
 18  2  1  1  0  0  0
 19  9  1  0  0  0  0
 21 18  1  0  0  0  0
 21  4  2  0  0  0  0
 22 24  1  0  0  0  0
 23  4  1  6  0  0  0
 23 22  1  0  0  0  0
 23 26  1  0  0  0  0
 24 25  1  0  0  0  0
 26 25  1  0  0  0  0
M  END
>  <MODEL>
4

>  <REMARK>
 VINA RESULT:      -7.3      2.818      5.257
  Name = 
  1 active torsions:
  status: ('A' for Active; 'I' for Inactive)
    1  A    between atoms: C_4  and  C_14
                            x       y       z     vdW  Elec       q    Type
                         _______ _______ _______ _____ _____    ______ ____

>  <TORSDO>
F 1

$$$$
=
 OpenBabel11072408503D

 26 31  0  0  1  0  0  0  0  0999 V2000
  189.6830  176.0740  143.7330 C   0  0  2  0  0  3  0  0  0  0  0  0
  189.2480  176.7050  147.0810 C   0  0  0  0  0  3  0  0  0  0  0  0
  187.0670  177.1570  140.3980 C   0  0  0  0  0  2  0  0  0  0  0  0
  186.7270  177.2060  144.9130 C   0  0  0  0  0  0  0  0  0  0  0  0
  190.6200  176.5780  142.9770 N   0  0  0  0  0  2  0  0  0  0  0  0
  191.0790  176.3580  145.6730 C   0  0  0  0  0  0  0  0  0  0  0  0
  187.6520  177.2040  142.8550 C   0  0  0  0  0  0  0  0  0  0  0  0
  188.0380  177.6430  141.4780 C   0  0  0  0  0  2  0  0  0  0  0  0
  185.3480  178.8390  141.2400 C   0  0  0  0  0  2  0  0  0  0  0  0
  192.0290  176.8530  144.9290 N   0  0  0  0  0  0  0  0  0  0  0  0
  192.0140  176.5680  143.4760 C   0  0  0  0  0  2  0  0  0  0  0  0
  188.3840  176.4010  143.6440 N   0  0  0  0  0  0  0  0  0  0  0  0
  186.5800  177.6820  143.6050 C   0  0  0  0  0  0  0  0  0  0  0  0
  185.3100  178.7550  143.0220 S   0  0  0  0  0  0  0  0  0  0  0  0
  183.9730  178.2150  143.4520 O   0  0  0  0  0  0  0  0  0  0  0  0
  189.9370  175.7660  145.0520 C   0  0  1  0  0  3  0  0  0  0  0  0
  190.6980  176.9190  146.9230 N   0  0  0  0  0  0  0  0  0  0  0  0
  188.8210  176.0040  145.8140 C   0  0  2  0  0  3  0  0  0  0  0  0
  185.5860  177.4430  140.6770 C   0  0  0  0  0  2  0  0  0  0  0  0
  185.5090  180.1310  143.5960 O   0  0  0  0  0  0  0  0  0  0  0  0
  187.8640  176.4020  144.8710 C   0  0  0  0  0  0  0  0  0  0  0  0
  186.0460  176.5270  147.2000 C   0  0  0  0  0  2  0  0  0  0  0  0
  185.7670  177.4630  146.0410 C   0  0  1  0  0  3  0  0  0  0  0  0
  186.0680  177.2720  148.3890 O   0  0  0  0  0  0  0  0  0  0  0  0
  186.4320  178.5740  148.0130 C   0  0  0  0  0  2  0  0  0  0  0  0
  185.8850  178.8370  146.6270 C   0  0  0  0  0  2  0  0  0  0  0  0
  1  5  1  1  0  0  0
  1 16  1  0  0  0  0
  3 19  1  0  0  0  0
  3  8  1  0  0  0  0
  5 11  1  0  0  0  0
  6 17  1  0  0  0  0
  7 13  2  0  0  0  0
  7 12  1  0  0  0  0
  8  7  1  0  0  0  0
  9 14  1  0  0  0  0
 10  6  2  0  0  0  0
 11 10  1  0  0  0  0
 12  1  1  0  0  0  0
 12 21  1  0  0  0  0
 13  4  1  0  0  0  0
 14 15  2  0  0  0  0
 14 20  2  0  0  0  0
 14 13  1  0  0  0  0
 16  6  1  1  0  0  0
 16 18  1  0  0  0  0
 17  2  2  0  0  0  0
 18  2  1  1  0  0  0
 19  9  1  0  0  0  0
 21  4  2  0  0  0  0
 21 18  1  0  0  0  0
 22 24  1  0  0  0  0
 23  4  1  6  0  0  0
 23 26  1  0  0  0  0
 23 22  1  0  0  0  0
 25 24  1  0  0  0  0
 26 25  1  0  0  0  0
M  END
>  <MODEL>
5

>  <REMARK>
 VINA RESULT:      -7.2      3.122      6.110
  Name = 
  1 active torsions:
  status: ('A' for Active; 'I' for Inactive)
    1  A    between atoms: C_4  and  C_14
                            x       y       z     vdW  Elec       q    Type
                         _______ _______ _______ _____ _____    ______ ____

>  <TORSDO>
F 1

$$$$
=
 OpenBabel11072408503D

 26 31  0  0  1  0  0  0  0  0999 V2000
  187.5260  176.6540  143.9550 C   0  0  2  0  0  3  0  0  0  0  0  0
  188.1230  175.2150  140.8950 C   0  0  0  0  0  3  0  0  0  0  0  0
  190.2010  176.9190  147.4060 C   0  0  0  0  0  2  0  0  0  0  0  0
  190.2360  174.6990  143.4600 C   0  0  0  0  0  0  0  0  0  0  0  0
  187.3440  177.9270  144.1770 N   0  0  0  0  0  2  0  0  0  0  0  0
  186.7480  176.9250  141.6940 C   0  0  0  0  0  0  0  0  0  0  0  0
  189.7400  176.2600  145.0120 C   0  0  0  0  0  0  0  0  0  0  0  0
  189.8940  177.3890  145.9820 C   0  0  0  0  0  2  0  0  0  0  0  0
  192.5510  176.2860  146.6500 C   0  0  0  0  0  2  0  0  0  0  0  0
  186.5510  178.1970  141.9040 N   0  0  0  0  0  0  0  0  0  0  0  0
  186.4150  178.6740  143.2990 C   0  0  0  0  0  2  0  0  0  0  0  0
  188.6170  175.9700  144.3350 N   0  0  0  0  0  0  0  0  0  0  0  0
  190.7580  175.4460  144.5220 C   0  0  0  0  0  0  0  0  0  0  0  0
  192.4230  175.4190  145.0960 S   0  0  0  0  0  0  0  0  0  0  0  0
  192.8520  173.9910  145.3020 O   0  0  0  0  0  0  0  0  0  0  0  0
  187.0620  176.0720  142.7950 C   0  0  1  0  0  3  0  0  0  0  0  0
  187.3600  176.4170  140.5150 N   0  0  0  0  0  0  0  0  0  0  0  0
  187.9250  175.0870  142.3870 C   0  0  2  0  0  3  0  0  0  0  0  0
  191.3600  175.9200  147.5270 C   0  0  0  0  0  2  0  0  0  0  0  0
  193.3170  176.0740  144.0780 O   0  0  0  0  0  0  0  0  0  0  0  0
  188.8910  175.0610  143.4000 C   0  0  0  0  0  0  0  0  0  0  0  0
  190.0740  172.5450  142.2410 C   0  0  0  0  0  2  0  0  0  0  0  0
  190.9940  173.6700  142.6690 C   0  0  1  0  0  3  0  0  0  0  0  0
  190.2860  172.2790  140.8800 O   0  0  0  0  0  0  0  0  0  0  0  0
  190.7610  173.4790  140.3290 C   0  0  0  0  0  2  0  0  0  0  0  0
  191.5640  174.2010  141.3880 C   0  0  0  0  0  2  0  0  0  0  0  0
  1  5  1  6  0  0  0
  1 12  1  0  0  0  0
  3 19  1  0  0  0  0
  4 13  1  0  0  0  0
  6 10  2  0  0  0  0
  7  8  1  0  0  0  0
  8  3  1  0  0  0  0
  9 19  1  0  0  0  0
 10 11  1  0  0  0  0
 11  5  1  0  0  0  0
 12  7  1  0  0  0  0
 13  7  2  0  0  0  0
 13 14  1  0  0  0  0
 14 15  2  0  0  0  0
 14  9  1  0  0  0  0
 16  6  1  6  0  0  0
 16  1  1  0  0  0  0
 17  2  2  0  0  0  0
 17  6  1  0  0  0  0
 18  2  1  6  0  0  0
 18 16  1  0  0  0  0
 18 21  1  0  0  0  0
 20 14  2  0  0  0  0
 21  4  2  0  0  0  0
 21 12  1  0  0  0  0
 22 23  1  0  0  0  0
 23  4  1  6  0  0  0
 24 22  1  0  0  0  0
 25 24  1  0  0  0  0
 25 26  1  0  0  0  0
 26 23  1  0  0  0  0
M  END
>  <MODEL>
6

>  <REMARK>
 VINA RESULT:      -7.1      2.511      3.472
  Name = 
  1 active torsions:
  status: ('A' for Active; 'I' for Inactive)
    1  A    between atoms: C_4  and  C_14
                            x       y       z     vdW  Elec       q    Type
                         _______ _______ _______ _____ _____    ______ ____

>  <TORSDO>
F 1

$$$$
=
 OpenBabel11072408503D

 26 31  0  0  1  0  0  0  0  0999 V2000
  185.9010  178.6410  144.8570 C   0  0  2  0  0  3  0  0  0  0  0  0
  187.5120  177.0240  147.4230 C   0  0  0  0  0  3  0  0  0  0  0  0
  186.1990  177.8940  140.5570 C   0  0  0  0  0  2  0  0  0  0  0  0
  188.4550  176.5200  144.2350 C   0  0  0  0  0  0  0  0  0  0  0  0
  184.6170  178.6190  144.6290 N   0  0  0  0  0  2  0  0  0  0  0  0
  185.5060  178.1960  147.1890 C   0  0  0  0  0  0  0  0  0  0  0  0
  186.7850  177.3220  142.9460 C   0  0  0  0  0  0  0  0  0  0  0  0
  185.7030  177.3910  141.9150 C   0  0  0  0  0  2  0  0  0  0  0  0
  187.3900  175.6680  140.2100 C   0  0  0  0  0  2  0  0  0  0  0  0
  184.2190  178.1820  146.9780 N   0  0  0  0  0  0  0  0  0  0  0  0
  183.6910  178.8430  145.7630 C   0  0  0  0  0  2  0  0  0  0  0  0
  186.8160  178.0340  144.0850 N   0  0  0  0  0  0  0  0  0  0  0  0
  187.8290  176.4010  142.9890 C   0  0  0  0  0  0  0  0  0  0  0  0
  188.2370  175.2460  141.7230 S   0  0  0  0  0  0  0  0  0  0  0  0
  189.7210  175.2900  141.4740 O   0  0  0  0  0  0  0  0  0  0  0  0
  186.3830  178.6280  146.1480 C   0  0  1  0  0  3  0  0  0  0  0  0
  186.1720  177.2360  147.9990 N   0  0  0  0  0  0  0  0  0  0  0  0
  187.5540  177.9160  146.2050 C   0  0  2  0  0  3  0  0  0  0  0  0
  187.4410  177.1780  140.0110 C   0  0  0  0  0  2  0  0  0  0  0  0
  187.8380  173.8620  142.1550 O   0  0  0  0  0  0  0  0  0  0  0  0
  187.7850  177.5650  144.8690 C   0  0  0  0  0  0  0  0  0  0  0  0
  190.6140  176.6100  145.4530 C   0  0  0  0  0  2  0  0  0  0  0  0
  189.6530  175.7290  144.6820 C   0  0  1  0  0  3  0  0  0  0  0  0
  190.9980  175.9440  146.6270 O   0  0  0  0  0  0  0  0  0  0  0  0
  189.9420  175.0710  146.9290 C   0  0  0  0  0  2  0  0  0  0  0  0
  189.3160  174.6160  145.6290 C   0  0  0  0  0  2  0  0  0  0  0  0
  1  5  1  1  0  0  0
  1 16  1  0  0  0  0
  2 17  2  0  0  0  0
  3  8  1  0  0  0  0
  4 21  2  0  0  0  0
  5 11  1  0  0  0  0
  6 17  1  0  0  0  0
  7 13  2  0  0  0  0
  7 12  1  0  0  0  0
  8  7  1  0  0  0  0
  9 14  1  0  0  0  0
 10  6  2  0  0  0  0
 11 10  1  0  0  0  0
 12  1  1  0  0  0  0
 12 21  1  0  0  0  0
 13  4  1  0  0  0  0
 14 20  2  0  0  0  0
 14 13  1  0  0  0  0
 15 14  2  0  0  0  0
 16 18  1  0  0  0  0
 16  6  1  1  0  0  0
 18  2  1  1  0  0  0
 19  9  1  0  0  0  0
 19  3  1  0  0  0  0
 21 18  1  0  0  0  0
 22 24  1  0  0  0  0
 23  4  1  1  0  0  0
 23 22  1  0  0  0  0
 23 26  1  0  0  0  0
 24 25  1  0  0  0  0
 26 25  1  0  0  0  0
M  END
>  <MODEL>
7

>  <REMARK>
 VINA RESULT:      -7.0      1.904      4.716
  Name = 
  1 active torsions:
  status: ('A' for Active; 'I' for Inactive)
    1  A    between atoms: C_4  and  C_14
                            x       y       z     vdW  Elec       q    Type
                         _______ _______ _______ _____ _____    ______ ____

>  <TORSDO>
F 1

$$$$
=
 OpenBabel11072408503D

 26 31  0  0  1  0  0  0  0  0999 V2000
  187.8370  176.7840  143.5010 C   0  0  2  0  0  3  0  0  0  0  0  0
  189.6110  177.1660  146.4160 C   0  0  0  0  0  3  0  0  0  0  0  0
  188.5770  174.0000  140.2090 C   0  0  0  0  0  2  0  0  0  0  0  0
  190.8490  175.3090  143.9000 C   0  0  0  0  0  0  0  0  0  0  0  0
  186.6100  176.3490  143.4060 N   0  0  0  0  0  2  0  0  0  0  0  0
  187.4070  177.5410  145.7450 C   0  0  0  0  0  0  0  0  0  0  0  0
  189.1250  174.9100  142.5000 C   0  0  0  0  0  0  0  0  0  0  0  0
  188.1260  174.1790  141.6600 C   0  0  0  0  0  2  0  0  0  0  0  0
  190.2740  172.2670  140.9900 C   0  0  0  0  0  2  0  0  0  0  0  0
  186.1750  177.1210  145.6610 N   0  0  0  0  0  0  0  0  0  0  0  0
  185.5870  176.9080  144.3190 C   0  0  0  0  0  2  0  0  0  0  0  0
  188.9150  176.0950  143.0970 N   0  0  0  0  0  0  0  0  0  0  0  0
  190.3500  174.4180  142.9430 C   0  0  0  0  0  0  0  0  0  0  0  0
  191.0970  172.9050  142.4390 S   0  0  0  0  0  0  0  0  0  0  0  0
  192.5430  173.1550  142.1020 O   0  0  0  0  0  0  0  0  0  0  0  0
  188.2240  177.5570  144.5740 C   0  0  1  0  0  3  0  0  0  0  0  0
  188.2250  177.3280  146.8880 N   0  0  0  0  0  0  0  0  0  0  0  0
  189.5230  177.2740  144.9120 C   0  0  2  0  0  3  0  0  0  0  0  0
  189.9840  173.4160  140.0310 C   0  0  0  0  0  2  0  0  0  0  0  0
  191.0040  171.9000  143.5540 O   0  0  0  0  0  0  0  0  0  0  0  0
  189.9150  176.3430  143.9420 C   0  0  0  0  0  0  0  0  0  0  0  0
  192.7960  176.5300  144.8350 C   0  0  0  0  0  2  0  0  0  0  0  0
  192.1670  175.1700  144.6100 C   0  0  1  0  0  3  0  0  0  0  0  0
  193.2350  176.6130  146.1650 O   0  0  0  0  0  0  0  0  0  0  0  0
  192.4190  175.7290  146.8880 C   0  0  0  0  0  2  0  0  0  0  0  0
  192.0490  174.5760  145.9810 C   0  0  0  0  0  2  0  0  0  0  0  0
  1  5  1  1  0  0  0
  1 16  1  0  0  0  0
  2 17  2  0  0  0  0
  3  8  1  0  0  0  0
  4 21  2  0  0  0  0
  5 11  1  0  0  0  0
  6 17  1  0  0  0  0
  7 13  2  0  0  0  0
  7 12  1  0  0  0  0
  8  7  1  0  0  0  0
  9 14  1  0  0  0  0
 10  6  2  0  0  0  0
 11 10  1  0  0  0  0
 12  1  1  0  0  0  0
 12 21  1  0  0  0  0
 13  4  1  0  0  0  0
 14 13  1  0  0  0  0
 14 20  2  0  0  0  0
 15 14  2  0  0  0  0
 16 18  1  0  0  0  0
 16  6  1  1  0  0  0
 18  2  1  1  0  0  0
 19  3  1  0  0  0  0
 19  9  1  0  0  0  0
 21 18  1  0  0  0  0
 22 24  1  0  0  0  0
 23  4  1  1  0  0  0
 23 22  1  0  0  0  0
 23 26  1  0  0  0  0
 24 25  1  0  0  0  0
 26 25  1  0  0  0  0
M  END
>  <MODEL>
8

>  <REMARK>
 VINA RESULT:      -6.8      2.363      5.083
  Name = 
  1 active torsions:
  status: ('A' for Active; 'I' for Inactive)
    1  A    between atoms: C_4  and  C_14
                            x       y       z     vdW  Elec       q    Type
                         _______ _______ _______ _____ _____    ______ ____

>  <TORSDO>
F 1

$$$$
=
 OpenBabel11072408503D

 26 31  0  0  1  0  0  0  0  0999 V2000
  190.8830  174.4120  145.5210 C   0  0  2  0  0  3  0  0  0  0  0  0
  190.0100  176.9550  147.6560 C   0  0  0  0  0  3  0  0  0  0  0  0
  189.3380  173.5690  141.5160 C   0  0  0  0  0  2  0  0  0  0  0  0
  188.1750  176.3350  144.9070 C   0  0  0  0  0  0  0  0  0  0  0  0
  192.0470  174.2600  144.9500 N   0  0  0  0  0  2  0  0  0  0  0  0
  191.9110  175.6420  147.3150 C   0  0  0  0  0  0  0  0  0  0  0  0
  189.4370  175.0070  143.5900 C   0  0  0  0  0  0  0  0  0  0  0  0
  190.1810  174.4930  142.3970 C   0  0  0  0  0  2  0  0  0  0  0  0
  188.0090  175.5940  140.7260 C   0  0  0  0  0  2  0  0  0  0  0  0
  193.0820  175.4900  146.7620 N   0  0  0  0  0  0  0  0  0  0  0  0
  193.2660  174.4000  145.7780 C   0  0  0  0  0  2  0  0  0  0  0  0
  189.7620  174.7590  144.8690 N   0  0  0  0  0  0  0  0  0  0  0  0
  188.4130  175.9500  143.5830 C   0  0  0  0  0  0  0  0  0  0  0  0
  187.6130  176.5930  142.1510 S   0  0  0  0  0  0  0  0  0  0  0  0
  186.1240  176.5650  142.3620 O   0  0  0  0  0  0  0  0  0  0  0  0
  190.7910  174.9250  146.7960 C   0  0  1  0  0  3  0  0  0  0  0  0
  191.4660  176.8750  147.8680 N   0  0  0  0  0  0  0  0  0  0  0  0
  189.6570  175.6890  146.9140 C   0  0  2  0  0  3  0  0  0  0  0  0
  187.9640  174.1220  141.1180 C   0  0  0  0  0  2  0  0  0  0  0  0
  188.0640  178.0080  141.9150 O   0  0  0  0  0  0  0  0  0  0  0  0
  189.0400  175.5470  145.6650 C   0  0  0  0  0  0  0  0  0  0  0  0
  185.7770  176.6330  145.4650 C   0  0  0  0  0  2  0  0  0  0  0  0
  187.1240  177.3150  145.3490 C   0  0  1  0  0  3  0  0  0  0  0  0
  185.1890  176.9930  146.6870 O   0  0  0  0  0  0  0  0  0  0  0  0
  186.2570  177.3030  147.5430 C   0  0  0  0  0  2  0  0  0  0  0  0
  187.3770  177.8890  146.7110 C   0  0  0  0  0  2  0  0  0  0  0  0
  1  5  1  6  0  0  0
  1 16  1  0  0  0  0
  2 17  2  0  0  0  0
  3  8  1  0  0  0  0
  4 21  2  0  0  0  0
  5 11  1  0  0  0  0
  6 17  1  0  0  0  0
  7 12  1  0  0  0  0
  8  7  1  0  0  0  0
  9 19  1  0  0  0  0
  9 14  1  0  0  0  0
 10  6  2  0  0  0  0
 11 10  1  0  0  0  0
 12  1  1  0  0  0  0
 12 21  1  0  0  0  0
 13  7  2  0  0  0  0
 13  4  1  0  0  0  0
 14 15  2  0  0  0  0
 14 13  1  0  0  0  0
 16 18  1  0  0  0  0
 16  6  1  6  0  0  0
 18  2  1  6  0  0  0
 19  3  1  0  0  0  0
 20 14  2  0  0  0  0
 21 18  1  0  0  0  0
 22 24  1  0  0  0  0
 23  4  1  1  0  0  0
 23 22  1  0  0  0  0
 23 26  1  0  0  0  0
 24 25  1  0  0  0  0
 26 25  1  0  0  0  0
M  END
>  <MODEL>
9

>  <REMARK>
 VINA RESULT:      -6.7      2.872      5.703
  Name = 
  1 active torsions:
  status: ('A' for Active; 'I' for Inactive)
    1  A    between atoms: C_4  and  C_14
                            x       y       z     vdW  Elec       q    Type
                         _______ _______ _______ _____ _____    ______ ____

>  <TORSDO>
F 1

$$$$
