=
 OpenBabel11072409233D

 39 42  0  0  1  0  0  0  0  0999 V2000
  190.0940  175.6230  145.8980 C   0  0  0  0  0  0  0  0  0  0  0  0
  188.7910  176.0790  145.6770 C   0  0  0  0  0  3  0  0  0  0  0  0
  189.6460  177.9140  144.3610 C   0  0  0  0  0  3  0  0  0  0  0  0
  190.9500  177.4630  144.5780 C   0  0  0  0  0  3  0  0  0  0  0  0
  188.5500  177.2350  144.9150 C   0  0  0  0  0  0  0  0  0  0  0  0
  190.2930  174.5060  146.6400 F   0  0  0  0  0  0  0  0  0  0  0  0
  191.1800  176.3210  145.3500 C   0  0  0  0  0  0  0  0  0  0  0  0
  184.0310  178.0880  146.6680 N   0  0  0  0  0  1  0  0  0  0  0  0
  185.3480  178.5130  143.2760 C   0  0  0  0  0  3  0  0  0  0  0  0
  184.5090  178.4900  144.3440 N   0  0  0  0  0  0  0  0  0  0  0  0
  186.6880  178.1210  143.4070 C   0  0  0  0  0  0  0  0  0  0  0  0
  184.9340  178.0950  145.5700 C   0  0  0  0  0  0  0  0  0  0  0  0
  187.1530  177.6890  144.6740 C   0  0  0  0  0  0  0  0  0  0  0  0
  186.2560  177.6910  145.7530 C   0  0  0  0  0  3  0  0  0  0  0  0
  187.5760  178.1840  142.2790 N   0  0  0  0  0  2  0  0  0  0  0  0
  187.6850  177.2040  141.2000 C   0  0  1  0  0  3  0  0  0  0  0  0
  188.7570  175.0510  142.0030 C   0  0  0  0  0  0  0  0  0  0  0  0
  189.9120  175.5280  141.8350 O   0  0  0  0  0  0  0  0  0  0  0  0
  187.6020  175.8450  141.7240 N   0  0  0  0  0  2  0  0  0  0  0  0
  188.5990  173.6760  142.4900 C   0  0  0  0  0  0  0  0  0  0  0  0
  189.3700  171.8120  144.0020 C   0  0  0  0  0  1  0  0  0  0  0  0
  189.4810  173.1690  143.4930 N   0  0  0  0  0  2  0  0  0  0  0  0
  187.6850  172.9460  142.0190 O   0  0  0  0  0  0  0  0  0  0  0  0
  186.6890  176.7150  138.8280 C   0  0  0  0  0  1  0  0  0  0  0  0
  186.6710  177.4660  140.1190 C   0  0  0  0  0  0  0  0  0  0  0  0
  185.7960  178.2930  140.3120 O   0  0  0  0  0  0  0  0  0  0  0  0
  192.5790  175.8440  145.5580 C   0  0  0  0  0  2  0  0  0  0  0  0
  193.5620  176.6720  144.7370 C   0  0  1  0  0  3  0  0  0  0  0  0
  194.2860  177.5000  145.6000 O   0  0  0  0  0  1  0  0  0  0  0  0
  195.9640  174.5270  145.2430 C   0  0  0  0  0  2  0  0  0  0  0  0
  196.9850  175.4100  143.6420 C   0  0  2  0  0  3  0  0  0  0  0  0
  194.4980  175.7530  143.9340 C   0  0  1  0  0  3  0  0  0  0  0  0
  194.4430  176.1000  142.4380 C   0  0  2  0  0  3  0  0  0  0  0  0
  193.1490  175.9020  141.9490 O   0  0  0  0  0  1  0  0  0  0  0  0
  195.8600  175.7850  144.5130 N   0  0  1  0  0  0  0  0  0  0  0  0
  195.4000  175.2000  141.6890 C   0  0  2  0  0  3  0  0  0  0  0  0
  196.7950  175.5540  142.1320 C   0  0  0  0  0  2  0  0  0  0  0  0
  195.2840  175.4750  139.9310 Cl  0  0  0  0  0  0  0  0  0  0  0  0
  197.2160  173.7080  144.2050 S   0  0  0  0  0  0  0  0  0  0  0  0
  1  6  1  0  0  0  0
  2  1  1  0  0  0  0
  3  4  2  0  0  0  0
  3  5  1  0  0  0  0
  4  7  1  0  0  0  0
  5  2  2  0  0  0  0
  7 27  1  0  0  0  0
  7  1  2  0  0  0  0
  9 11  2  0  0  0  0
  9 10  1  0  0  0  0
 10 12  2  0  0  0  0
 11 13  1  0  0  0  0
 12 14  1  0  0  0  0
 12  8  1  0  0  0  0
 13  5  1  0  0  0  0
 13 14  2  0  0  0  0
 15 11  1  0  0  0  0
 16 25  1  6  0  0  0
 16 19  1  0  0  0  0
 16 15  1  0  0  0  0
 17 20  1  0  0  0  0
 18 17  2  0  0  0  0
 19 17  1  0  0  0  0
 20 22  1  0  0  0  0
 22 21  1  0  0  0  0
 23 20  2  0  0  0  0
 24 25  1  0  0  0  0
 25 26  2  0  0  0  0
 28 27  1  0  0  0  0
 28 29  1  1  0  0  0
 31 37  1  6  0  0  0
 31 39  1  0  0  0  0
 31 35  1  0  0  0  0
 32 35  1  0  0  0  0
 32 28  1  1  0  0  0
 33 34  1  6  0  0  0
 33 32  1  0  0  0  0
 35 30  1  1  0  0  0
 36 38  1  6  0  0  0
 36 37  1  0  0  0  0
 36 33  1  0  0  0  0
 39 30  1  0  0  0  0
M  END
>  <MODEL>
1

>  <REMARK>
 VINA RESULT:      -7.9      0.000      0.000
  Name = 
  9 active torsions:
  status: ('A' for Active; 'I' for Inactive)
    1  A    between atoms: C_5  and  C_6
    2  A    between atoms: C_7  and  C_8
    3  A    between atoms: C_7  and  C_38
    4  A    between atoms: C_8  and  C_16
    5  A    between atoms: N_14  and  C_20
    6  A    between atoms: N_14  and  C_23
    7  A    between atoms: C_19  and  C_20
    8  A    between atoms: C_20  and  N_26
    9  A    between atoms: C_28  and  C_31
                            x       y       z     vdW  Elec       q    Type
                         _______ _______ _______ _____ _____    ______ ____

>  <TORSDO>
F 9

$$$$
=
 OpenBabel11072409233D

 39 42  0  0  1  0  0  0  0  0999 V2000
  190.2320  175.5790  145.8710 C   0  0  0  0  0  0  0  0  0  0  0  0
  188.9610  175.8640  145.3630 C   0  0  0  0  0  3  0  0  0  0  0  0
  189.8620  177.7440  144.1440 C   0  0  0  0  0  3  0  0  0  0  0  0
  191.1340  177.4630  144.6490 C   0  0  0  0  0  3  0  0  0  0  0  0
  188.7570  176.9550  144.5010 C   0  0  0  0  0  0  0  0  0  0  0  0
  190.3950  174.5200  146.7030 F   0  0  0  0  0  0  0  0  0  0  0  0
  191.3230  176.3840  145.5170 C   0  0  0  0  0  0  0  0  0  0  0  0
  184.1900  178.6490  145.1990 N   0  0  0  0  0  1  0  0  0  0  0  0
  185.7210  177.2060  142.2010 C   0  0  0  0  0  3  0  0  0  0  0  0
  184.8210  177.7580  143.0550 N   0  0  0  0  0  0  0  0  0  0  0  0
  187.0310  176.9290  142.6180 C   0  0  0  0  0  0  0  0  0  0  0  0
  185.1550  178.0660  144.3330 C   0  0  0  0  0  0  0  0  0  0  0  0
  187.4000  177.2270  143.9530 C   0  0  0  0  0  0  0  0  0  0  0  0
  186.4420  177.8070  144.8000 C   0  0  0  0  0  3  0  0  0  0  0  0
  187.9850  176.3780  141.6960 N   0  0  0  0  0  2  0  0  0  0  0  0
  188.0930  174.9790  141.2850 C   0  0  1  0  0  3  0  0  0  0  0  0
  188.2920  173.6460  139.1370 C   0  0  0  0  0  0  0  0  0  0  0  0
  187.9360  172.5890  139.7260 O   0  0  0  0  0  0  0  0  0  0  0  0
  188.3700  174.8790  139.8560 N   0  0  0  0  0  2  0  0  0  0  0  0
  188.6250  173.6100  137.7090 C   0  0  0  0  0  0  0  0  0  0  0  0
  189.6230  172.3780  135.7490 C   0  0  0  0  0  1  0  0  0  0  0  0
  189.2660  172.4590  137.1560 N   0  0  0  0  0  2  0  0  0  0  0  0
  188.3450  174.5960  136.9750 O   0  0  0  0  0  0  0  0  0  0  0  0
  190.5530  174.6070  142.1030 C   0  0  0  0  0  1  0  0  0  0  0  0
  189.1050  174.2410  142.1200 C   0  0  0  0  0  0  0  0  0  0  0  0
  188.7290  173.3390  142.8490 O   0  0  0  0  0  0  0  0  0  0  0  0
  192.6920  176.0890  146.0340 C   0  0  0  0  0  2  0  0  0  0  0  0
  193.7540  176.7620  145.1720 C   0  0  1  0  0  3  0  0  0  0  0  0
  194.6080  177.4990  145.9990 O   0  0  0  0  0  1  0  0  0  0  0  0
  195.5540  174.0900  145.6660 C   0  0  0  0  0  2  0  0  0  0  0  0
  196.8990  174.8250  144.2390 C   0  0  2  0  0  3  0  0  0  0  0  0
  194.5350  175.7110  144.3640 C   0  0  1  0  0  3  0  0  0  0  0  0
  194.7060  176.1680  142.9070 C   0  0  2  0  0  3  0  0  0  0  0  0
  193.4540  176.3100  142.3010 O   0  0  0  0  0  1  0  0  0  0  0  0
  195.8060  175.3870  145.0490 N   0  0  1  0  0  0  0  0  0  0  0  0
  195.5050  175.1270  142.1560 C   0  0  2  0  0  3  0  0  0  0  0  0
  196.8940  175.1160  142.7380 C   0  0  0  0  0  2  0  0  0  0  0  0
  195.6270  175.5460  140.4270 Cl  0  0  0  0  0  0  0  0  0  0  0  0
  196.6860  173.0790  144.6590 S   0  0  0  0  0  0  0  0  0  0  0  0
  1  6  1  0  0  0  0
  2  1  2  0  0  0  0
  3  5  2  0  0  0  0
  3  4  1  0  0  0  0
  4  7  2  0  0  0  0
  5  2  1  0  0  0  0
  7  1  1  0  0  0  0
  7 27  1  0  0  0  0
  9 11  2  0  0  0  0
  9 10  1  0  0  0  0
 10 12  2  0  0  0  0
 11 13  1  0  0  0  0
 12 14  1  0  0  0  0
 12  8  1  0  0  0  0
 13  5  1  0  0  0  0
 13 14  2  0  0  0  0
 15 11  1  0  0  0  0
 16 19  1  6  0  0  0
 16 15  1  0  0  0  0
 16 25  1  0  0  0  0
 17 18  2  0  0  0  0
 17 19  1  0  0  0  0
 20 17  1  0  0  0  0
 21 22  1  0  0  0  0
 22 20  1  0  0  0  0
 23 20  2  0  0  0  0
 24 25  1  0  0  0  0
 25 26  2  0  0  0  0
 28 29  1  1  0  0  0
 28 27  1  0  0  0  0
 31 37  1  6  0  0  0
 31 39  1  0  0  0  0
 31 35  1  0  0  0  0
 32 35  1  0  0  0  0
 32 28  1  1  0  0  0
 33 34  1  6  0  0  0
 33 32  1  0  0  0  0
 35 30  1  1  0  0  0
 36 38  1  6  0  0  0
 36 37  1  0  0  0  0
 36 33  1  0  0  0  0
 39 30  1  0  0  0  0
M  END
>  <MODEL>
2

>  <REMARK>
 VINA RESULT:      -7.9      2.019      2.826
  Name = 
  9 active torsions:
  status: ('A' for Active; 'I' for Inactive)
    1  A    between atoms: C_5  and  C_6
    2  A    between atoms: C_7  and  C_8
    3  A    between atoms: C_7  and  C_38
    4  A    between atoms: C_8  and  C_16
    5  A    between atoms: N_14  and  C_20
    6  A    between atoms: N_14  and  C_23
    7  A    between atoms: C_19  and  C_20
    8  A    between atoms: C_20  and  N_26
    9  A    between atoms: C_28  and  C_31
                            x       y       z     vdW  Elec       q    Type
                         _______ _______ _______ _____ _____    ______ ____

>  <TORSDO>
F 9

$$$$
=
 OpenBabel11072409233D

 39 42  0  0  1  0  0  0  0  0999 V2000
  190.6590  175.7400  146.8060 C   0  0  0  0  0  0  0  0  0  0  0  0
  189.3250  176.0060  146.4820 C   0  0  0  0  0  3  0  0  0  0  0  0
  190.0410  177.3910  144.6380 C   0  0  0  0  0  3  0  0  0  0  0  0
  191.3760  177.1280  144.9570 C   0  0  0  0  0  3  0  0  0  0  0  0
  188.9980  176.8430  145.4010 C   0  0  0  0  0  0  0  0  0  0  0  0
  190.9410  174.9310  147.8570 F   0  0  0  0  0  0  0  0  0  0  0  0
  191.6900  176.3070  146.0430 C   0  0  0  0  0  0  0  0  0  0  0  0
  184.7350  179.0580  146.4670 N   0  0  0  0  0  1  0  0  0  0  0  0
  185.5770  176.7990  143.7090 C   0  0  0  0  0  3  0  0  0  0  0  0
  184.8890  177.6200  144.5430 N   0  0  0  0  0  0  0  0  0  0  0  0
  186.9320  176.5160  143.9360 C   0  0  0  0  0  0  0  0  0  0  0  0
  185.4830  178.1980  145.6180 C   0  0  0  0  0  0  0  0  0  0  0  0
  187.5710  177.0940  145.0600 C   0  0  0  0  0  0  0  0  0  0  0  0
  186.8270  177.9450  145.8910 C   0  0  0  0  0  3  0  0  0  0  0  0
  187.6590  175.6740  143.0260 N   0  0  0  0  0  2  0  0  0  0  0  0
  188.3420  176.0970  141.8050 C   0  0  1  0  0  3  0  0  0  0  0  0
  189.1980  174.0440  140.5880 C   0  0  0  0  0  0  0  0  0  0  0  0
  190.1870  173.9590  141.3660 O   0  0  0  0  0  0  0  0  0  0  0  0
  188.2280  175.0780  140.7680 N   0  0  0  0  0  2  0  0  0  0  0  0
  189.0410  173.0760  139.4970 C   0  0  0  0  0  0  0  0  0  0  0  0
  189.6420  170.8530  138.4720 C   0  0  0  0  0  1  0  0  0  0  0  0
  189.7570  171.8400  139.5320 N   0  0  0  0  0  2  0  0  0  0  0  0
  188.2740  173.3390  138.5310 O   0  0  0  0  0  0  0  0  0  0  0  0
  186.7170  177.5800  140.3840 C   0  0  0  0  0  1  0  0  0  0  0  0
  187.8530  177.4440  141.3440 C   0  0  0  0  0  0  0  0  0  0  0  0
  188.3800  178.4520  141.7860 O   0  0  0  0  0  0  0  0  0  0  0  0
  193.1210  176.0240  146.3590 C   0  0  0  0  0  2  0  0  0  0  0  0
  194.0420  176.6580  145.3230 C   0  0  1  0  0  3  0  0  0  0  0  0
  194.9490  177.4980  145.9770 O   0  0  0  0  0  1  0  0  0  0  0  0
  196.0040  174.1030  145.8180 C   0  0  0  0  0  2  0  0  0  0  0  0
  197.1450  174.7610  144.1910 C   0  0  2  0  0  3  0  0  0  0  0  0
  194.7730  175.5710  144.5170 C   0  0  1  0  0  3  0  0  0  0  0  0
  194.7580  175.9090  143.0180 C   0  0  2  0  0  3  0  0  0  0  0  0
  193.4410  175.9540  142.5520 O   0  0  0  0  0  1  0  0  0  0  0  0
  196.1260  175.3510  145.0740 N   0  0  1  0  0  0  0  0  0  0  0  0
  195.5140  174.8360  142.2660 C   0  0  2  0  0  3  0  0  0  0  0  0
  196.9580  174.9240  142.6820 C   0  0  0  0  0  2  0  0  0  0  0  0
  195.4210  175.1110  140.5060 Cl  0  0  0  0  0  0  0  0  0  0  0  0
  197.0590  173.0510  144.7710 S   0  0  0  0  0  0  0  0  0  0  0  0
  1  6  1  0  0  0  0
  2  1  1  0  0  0  0
  3  4  2  0  0  0  0
  3  5  1  0  0  0  0
  4  7  1  0  0  0  0
  5  2  2  0  0  0  0
  7 27  1  0  0  0  0
  7  1  2  0  0  0  0
  9 11  2  0  0  0  0
  9 10  1  0  0  0  0
 10 12  2  0  0  0  0
 11 13  1  0  0  0  0
 12 14  1  0  0  0  0
 12  8  1  0  0  0  0
 13  5  1  0  0  0  0
 13 14  2  0  0  0  0
 15 11  1  0  0  0  0
 16 19  1  6  0  0  0
 16 15  1  0  0  0  0
 17 19  1  0  0  0  0
 17 18  2  0  0  0  0
 20 22  1  0  0  0  0
 20 17  1  0  0  0  0
 21 22  1  0  0  0  0
 23 20  2  0  0  0  0
 24 25  1  0  0  0  0
 25 26  2  0  0  0  0
 25 16  1  0  0  0  0
 28 29  1  1  0  0  0
 28 27  1  0  0  0  0
 31 37  1  6  0  0  0
 31 39  1  0  0  0  0
 31 35  1  0  0  0  0
 32 35  1  0  0  0  0
 32 28  1  1  0  0  0
 33 34  1  6  0  0  0
 33 32  1  0  0  0  0
 35 30  1  1  0  0  0
 36 38  1  6  0  0  0
 36 37  1  0  0  0  0
 36 33  1  0  0  0  0
 39 30  1  0  0  0  0
M  END
>  <MODEL>
3

>  <REMARK>
 VINA RESULT:      -7.8      1.664      1.806
  Name = 
  9 active torsions:
  status: ('A' for Active; 'I' for Inactive)
    1  A    between atoms: C_5  and  C_6
    2  A    between atoms: C_7  and  C_8
    3  A    between atoms: C_7  and  C_38
    4  A    between atoms: C_8  and  C_16
    5  A    between atoms: N_14  and  C_20
    6  A    between atoms: N_14  and  C_23
    7  A    between atoms: C_19  and  C_20
    8  A    between atoms: C_20  and  N_26
    9  A    between atoms: C_28  and  C_31
                            x       y       z     vdW  Elec       q    Type
                         _______ _______ _______ _____ _____    ______ ____

>  <TORSDO>
F 9

$$$$
=
 OpenBabel11072409233D

 39 42  0  0  1  0  0  0  0  0999 V2000
  190.2990  173.8900  144.7210 C   0  0  0  0  0  0  0  0  0  0  0  0
  191.5130  173.2490  144.9810 C   0  0  0  0  0  3  0  0  0  0  0  0
  192.3130  173.8550  142.7840 C   0  0  0  0  0  3  0  0  0  0  0  0
  191.1010  174.4980  142.5190 C   0  0  0  0  0  3  0  0  0  0  0  0
  192.5320  173.2140  144.0140 C   0  0  0  0  0  0  0  0  0  0  0  0
  189.3340  173.9040  145.6740 F   0  0  0  0  0  0  0  0  0  0  0  0
  190.0890  174.5140  143.4820 C   0  0  0  0  0  0  0  0  0  0  0  0
  195.4450  169.2700  143.5920 N   0  0  0  0  0  1  0  0  0  0  0  0
  196.0260  172.4360  145.3410 C   0  0  0  0  0  3  0  0  0  0  0  0
  196.1930  171.1810  144.8490 N   0  0  0  0  0  0  0  0  0  0  0  0
  194.8480  173.1550  145.0910 C   0  0  0  0  0  0  0  0  0  0  0  0
  195.2350  170.5830  144.0970 C   0  0  0  0  0  0  0  0  0  0  0  0
  193.8260  172.5460  144.3210 C   0  0  0  0  0  0  0  0  0  0  0  0
  194.0440  171.2520  143.8220 C   0  0  0  0  0  3  0  0  0  0  0  0
  194.6970  174.4950  145.5860 N   0  0  0  0  0  2  0  0  0  0  0  0
  195.1840  175.7190  144.9510 C   0  0  1  0  0  3  0  0  0  0  0  0
  196.3340  176.2450  142.7530 C   0  0  0  0  0  0  0  0  0  0  0  0
  197.1020  177.0700  143.3190 O   0  0  0  0  0  0  0  0  0  0  0  0
  195.3660  175.5210  143.5170 N   0  0  0  0  0  2  0  0  0  0  0  0
  196.4350  176.0260  141.3060 C   0  0  0  0  0  0  0  0  0  0  0  0
  197.8450  175.4530  139.2960 C   0  0  0  0  0  1  0  0  0  0  0  0
  197.6910  175.6730  140.7250 N   0  0  0  0  0  2  0  0  0  0  0  0
  195.4110  176.1520  140.5800 O   0  0  0  0  0  0  0  0  0  0  0  0
  192.8030  176.7970  145.1260 C   0  0  0  0  0  1  0  0  0  0  0  0
  194.2880  176.8880  145.2610 C   0  0  0  0  0  0  0  0  0  0  0  0
  194.7840  177.9290  145.6570 O   0  0  0  0  0  0  0  0  0  0  0  0
  188.8060  175.2190  143.1880 C   0  0  0  0  0  2  0  0  0  0  0  0
  188.8300  176.6410  143.7370 C   0  0  1  0  0  3  0  0  0  0  0  0
  189.4280  177.4810  142.7920 O   0  0  0  0  0  1  0  0  0  0  0  0
  186.0080  177.2780  142.2340 C   0  0  0  0  0  2  0  0  0  0  0  0
  185.8520  178.9950  143.4230 C   0  0  2  0  0  3  0  0  0  0  0  0
  187.4050  177.1100  144.0750 C   0  0  1  0  0  3  0  0  0  0  0  0
  187.3410  177.6500  145.5120 C   0  0  2  0  0  3  0  0  0  0  0  0
  187.6680  176.6370  146.4180 O   0  0  0  0  0  1  0  0  0  0  0  0
  186.9280  178.0640  143.0490 N   0  0  1  0  0  0  0  0  0  0  0  0
  185.9340  178.1310  145.7930 C   0  0  2  0  0  3  0  0  0  0  0  0
  185.6780  179.3200  144.9070 C   0  0  0  0  0  2  0  0  0  0  0  0
  185.7710  178.6530  147.4910 Cl  0  0  0  0  0  0  0  0  0  0  0  0
  184.4560  178.1160  142.6850 S   0  0  0  0  0  0  0  0  0  0  0  0
  1  2  1  0  0  0  0
  1  6  1  0  0  0  0
  3  5  1  0  0  0  0
  4  3  2  0  0  0  0
  4  7  1  0  0  0  0
  5 13  1  0  0  0  0
  5  2  2  0  0  0  0
  7  1  2  0  0  0  0
  8 12  1  0  0  0  0
 10  9  2  0  0  0  0
 11  9  1  0  0  0  0
 11 15  1  0  0  0  0
 12 10  1  0  0  0  0
 13 11  2  0  0  0  0
 14 12  2  0  0  0  0
 14 13  1  0  0  0  0
 16 19  1  6  0  0  0
 16 25  1  0  0  0  0
 16 15  1  0  0  0  0
 17 18  2  0  0  0  0
 17 19  1  0  0  0  0
 20 17  1  0  0  0  0
 21 22  1  0  0  0  0
 22 20  1  0  0  0  0
 23 20  2  0  0  0  0
 24 25  1  0  0  0  0
 25 26  2  0  0  0  0
 27  7  1  0  0  0  0
 27 28  1  0  0  0  0
 28 29  1  6  0  0  0
 30 39  1  0  0  0  0
 31 37  1  1  0  0  0
 32 28  1  6  0  0  0
 32 33  1  0  0  0  0
 33 36  1  0  0  0  0
 33 34  1  1  0  0  0
 35 30  1  6  0  0  0
 35 31  1  0  0  0  0
 35 32  1  0  0  0  0
 36 38  1  1  0  0  0
 37 36  1  0  0  0  0
 39 31  1  0  0  0  0
M  END
>  <MODEL>
4

>  <REMARK>
 VINA RESULT:      -7.7      3.933      9.074
  Name = 
  9 active torsions:
  status: ('A' for Active; 'I' for Inactive)
    1  A    between atoms: C_5  and  C_6
    2  A    between atoms: C_7  and  C_8
    3  A    between atoms: C_7  and  C_38
    4  A    between atoms: C_8  and  C_16
    5  A    between atoms: N_14  and  C_20
    6  A    between atoms: N_14  and  C_23
    7  A    between atoms: C_19  and  C_20
    8  A    between atoms: C_20  and  N_26
    9  A    between atoms: C_28  and  C_31
                            x       y       z     vdW  Elec       q    Type
                         _______ _______ _______ _____ _____    ______ ____

>  <TORSDO>
F 9

$$$$
=
 OpenBabel11072409233D

 39 42  0  0  1  0  0  0  0  0999 V2000
  190.0980  174.6280  143.9000 C   0  0  0  0  0  0  0  0  0  0  0  0
  188.9550  175.1630  143.2980 C   0  0  0  0  0  3  0  0  0  0  0  0
  190.0440  177.3120  143.1220 C   0  0  0  0  0  3  0  0  0  0  0  0
  191.1890  176.7810  143.7230 C   0  0  0  0  0  3  0  0  0  0  0  0
  188.9090  176.5140  142.9100 C   0  0  0  0  0  0  0  0  0  0  0  0
  190.1090  173.3220  144.2660 F   0  0  0  0  0  0  0  0  0  0  0  0
  191.2190  175.4420  144.1190 C   0  0  0  0  0  0  0  0  0  0  0  0
  186.2850  177.1880  138.8030 N   0  0  0  0  0  1  0  0  0  0  0  0
  185.5720  178.2410  142.2380 C   0  0  0  0  0  3  0  0  0  0  0  0
  185.4720  178.0500  140.8980 N   0  0  0  0  0  0  0  0  0  0  0  0
  186.6750  177.7500  142.9530 C   0  0  0  0  0  0  0  0  0  0  0  0
  186.4240  177.3760  140.2050 C   0  0  0  0  0  0  0  0  0  0  0  0
  187.6910  177.0570  142.2500 C   0  0  0  0  0  0  0  0  0  0  0  0
  187.5420  176.8720  140.8670 C   0  0  0  0  0  3  0  0  0  0  0  0
  186.7530  177.9270  144.3770 N   0  0  0  0  0  2  0  0  0  0  0  0
  186.0620  177.1340  145.3930 C   0  0  1  0  0  3  0  0  0  0  0  0
  188.3080  176.7260  146.4970 C   0  0  0  0  0  0  0  0  0  0  0  0
  188.6790  177.9050  146.2440 O   0  0  0  0  0  0  0  0  0  0  0  0
  187.0030  176.2850  146.1160 N   0  0  0  0  0  2  0  0  0  0  0  0
  189.2190  175.8050  147.1860 C   0  0  0  0  0  0  0  0  0  0  0  0
  191.4750  175.3600  148.2190 C   0  0  0  0  0  1  0  0  0  0  0  0
  190.5330  176.2370  147.5430 N   0  0  0  0  0  2  0  0  0  0  0  0
  188.8370  174.6350  147.4600 O   0  0  0  0  0  0  0  0  0  0  0  0
  184.0710  178.7800  145.8230 C   0  0  0  0  0  1  0  0  0  0  0  0
  185.2540  178.0090  146.3120 C   0  0  0  0  0  0  0  0  0  0  0  0
  185.5550  178.0710  147.4920 O   0  0  0  0  0  0  0  0  0  0  0  0
  192.4560  174.8890  144.7450 C   0  0  0  0  0  2  0  0  0  0  0  0
  193.6220  175.8570  144.5900 C   0  0  1  0  0  3  0  0  0  0  0  0
  193.9840  176.3350  145.8540 O   0  0  0  0  0  1  0  0  0  0  0  0
  195.8130  173.5170  145.1770 C   0  0  0  0  0  2  0  0  0  0  0  0
  197.2660  174.7730  144.3420 C   0  0  2  0  0  3  0  0  0  0  0  0
  194.8090  175.1650  143.8970 C   0  0  1  0  0  3  0  0  0  0  0  0
  195.2330  175.9460  142.6440 C   0  0  2  0  0  3  0  0  0  0  0  0
  194.1810  175.9820  141.7250 O   0  0  0  0  0  1  0  0  0  0  0  0
  195.9020  174.9390  144.8690 N   0  0  1  0  0  0  0  0  0  0  0  0
  196.4200  175.2530  142.0120 C   0  0  2  0  0  3  0  0  0  0  0  0
  197.5750  175.3720  142.9700 C   0  0  0  0  0  2  0  0  0  0  0  0
  196.8760  176.0470  140.4820 Cl  0  0  0  0  0  0  0  0  0  0  0  0
  197.3700  172.9690  144.4070 S   0  0  0  0  0  0  0  0  0  0  0  0
  1  7  1  0  0  0  0
  1  6  1  0  0  0  0
  2  1  2  0  0  0  0
  3  4  1  0  0  0  0
  4  7  2  0  0  0  0
  5  3  2  0  0  0  0
  5  2  1  0  0  0  0
  7 27  1  0  0  0  0
  8 12  1  0  0  0  0
  9 11  1  0  0  0  0
 10  9  2  0  0  0  0
 11 15  1  0  0  0  0
 12 14  2  0  0  0  0
 12 10  1  0  0  0  0
 13  5  1  0  0  0  0
 13 11  2  0  0  0  0
 14 13  1  0  0  0  0
 16 15  1  6  0  0  0
 16 19  1  0  0  0  0
 16 25  1  0  0  0  0
 17 20  1  0  0  0  0
 18 17  2  0  0  0  0
 19 17  1  0  0  0  0
 20 23  2  0  0  0  0
 20 22  1  0  0  0  0
 22 21  1  0  0  0  0
 24 25  1  0  0  0  0
 25 26  2  0  0  0  0
 28 27  1  0  0  0  0
 28 29  1  1  0  0  0
 31 37  1  6  0  0  0
 31 39  1  0  0  0  0
 31 35  1  0  0  0  0
 32 28  1  1  0  0  0
 32 35  1  0  0  0  0
 33 34  1  6  0  0  0
 33 32  1  0  0  0  0
 35 30  1  6  0  0  0
 36 38  1  6  0  0  0
 36 33  1  0  0  0  0
 36 37  1  0  0  0  0
 39 30  1  0  0  0  0
M  END
>  <MODEL>
5

>  <REMARK>
 VINA RESULT:      -7.7      2.415      3.791
  Name = 
  9 active torsions:
  status: ('A' for Active; 'I' for Inactive)
    1  A    between atoms: C_5  and  C_6
    2  A    between atoms: C_7  and  C_8
    3  A    between atoms: C_7  and  C_38
    4  A    between atoms: C_8  and  C_16
    5  A    between atoms: N_14  and  C_20
    6  A    between atoms: N_14  and  C_23
    7  A    between atoms: C_19  and  C_20
    8  A    between atoms: C_20  and  N_26
    9  A    between atoms: C_28  and  C_31
                            x       y       z     vdW  Elec       q    Type
                         _______ _______ _______ _____ _____    ______ ____

>  <TORSDO>
F 9

$$$$
=
 OpenBabel11072409233D

 39 42  0  0  1  0  0  0  0  0999 V2000
  192.0330  175.6290  147.0020 C   0  0  0  0  0  0  0  0  0  0  0  0
  193.2360  175.1430  146.4830 C   0  0  0  0  0  3  0  0  0  0  0  0
  192.8660  176.3800  144.4430 C   0  0  0  0  0  3  0  0  0  0  0  0
  191.6620  176.8700  144.9580 C   0  0  0  0  0  3  0  0  0  0  0  0
  193.6640  175.5030  145.1940 C   0  0  0  0  0  0  0  0  0  0  0  0
  191.6470  175.2590  148.2490 F   0  0  0  0  0  0  0  0  0  0  0  0
  191.2390  176.4930  146.2350 C   0  0  0  0  0  0  0  0  0  0  0  0
  197.9100  176.3770  142.8640 N   0  0  0  0  0  1  0  0  0  0  0  0
  196.5940  173.2490  144.2440 C   0  0  0  0  0  3  0  0  0  0  0  0
  197.3970  174.1520  143.6240 N   0  0  0  0  0  0  0  0  0  0  0  0
  195.3610  173.6380  144.7860 C   0  0  0  0  0  0  0  0  0  0  0  0
  197.0420  175.4560  143.5130 C   0  0  0  0  0  0  0  0  0  0  0  0
  194.9600  174.9920  144.6700 C   0  0  0  0  0  0  0  0  0  0  0  0
  195.8250  175.8940  144.0320 C   0  0  0  0  0  3  0  0  0  0  0  0
  194.5360  172.6820  145.4710 N   0  0  0  0  0  2  0  0  0  0  0  0
  193.5890  171.7510  144.8590 C   0  0  1  0  0  3  0  0  0  0  0  0
  191.5210  172.8680  143.9070 C   0  0  0  0  0  0  0  0  0  0  0  0
  190.9260  172.7770  145.0140 O   0  0  0  0  0  0  0  0  0  0  0  0
  192.8620  172.3930  143.7690 N   0  0  0  0  0  2  0  0  0  0  0  0
  190.8360  173.4670  142.7560 C   0  0  0  0  0  0  0  0  0  0  0  0
  189.2010  175.1570  141.8490 C   0  0  0  0  0  1  0  0  0  0  0  0
  189.9100  174.5360  142.9550 N   0  0  0  0  0  2  0  0  0  0  0  0
  191.0670  173.0330  141.5940 O   0  0  0  0  0  0  0  0  0  0  0  0
  195.2540  169.7800  145.3060 C   0  0  0  0  0  1  0  0  0  0  0  0
  194.2730  170.4820  144.4260 C   0  0  0  0  0  0  0  0  0  0  0  0
  194.0000  170.0000  143.3390 O   0  0  0  0  0  0  0  0  0  0  0  0
  189.9580  177.0380  146.7740 C   0  0  0  0  0  2  0  0  0  0  0  0
  188.7640  176.2850  146.2000 C   0  0  1  0  0  3  0  0  0  0  0  0
  188.3720  175.2970  147.1090 O   0  0  0  0  0  1  0  0  0  0  0  0
  186.3060  177.7610  147.7530 C   0  0  0  0  0  2  0  0  0  0  0  0
  185.0890  177.2880  146.1160 C   0  0  2  0  0  3  0  0  0  0  0  0
  187.6080  177.2570  145.9040 C   0  0  1  0  0  3  0  0  0  0  0  0
  187.4110  177.4170  144.3890 C   0  0  2  0  0  3  0  0  0  0  0  0
  188.5640  177.9570  143.8120 O   0  0  0  0  0  1  0  0  0  0  0  0
  186.3910  176.8330  146.6310 N   0  0  1  0  0  0  0  0  0  0  0  0
  186.2480  178.3510  144.1410 C   0  0  2  0  0  3  0  0  0  0  0  0
  185.0030  177.6640  144.6370 C   0  0  0  0  0  2  0  0  0  0  0  0
  186.0530  178.6710  142.3970 Cl  0  0  0  0  0  0  0  0  0  0  0  0
  184.8080  178.6650  147.2520 S   0  0  0  0  0  0  0  0  0  0  0  0
  1  6  1  0  0  0  0
  2  1  1  0  0  0  0
  3  4  2  0  0  0  0
  3  5  1  0  0  0  0
  4  7  1  0  0  0  0
  5  2  2  0  0  0  0
  7 27  1  0  0  0  0
  7  1  2  0  0  0  0
  8 12  1  0  0  0  0
  9 11  1  0  0  0  0
 10  9  2  0  0  0  0
 11 15  1  0  0  0  0
 12 10  1  0  0  0  0
 12 14  2  0  0  0  0
 13 11  2  0  0  0  0
 13  5  1  0  0  0  0
 14 13  1  0  0  0  0
 16 19  1  6  0  0  0
 16 15  1  0  0  0  0
 17 18  2  0  0  0  0
 19 17  1  0  0  0  0
 20 22  1  0  0  0  0
 20 17  1  0  0  0  0
 21 22  1  0  0  0  0
 23 20  2  0  0  0  0
 25 16  1  0  0  0  0
 25 24  1  0  0  0  0
 26 25  2  0  0  0  0
 28 27  1  0  0  0  0
 28 29  1  1  0  0  0
 31 37  1  6  0  0  0
 31 35  1  0  0  0  0
 31 39  1  0  0  0  0
 32 28  1  6  0  0  0
 32 35  1  0  0  0  0
 33 34  1  1  0  0  0
 33 32  1  0  0  0  0
 35 30  1  1  0  0  0
 36 38  1  6  0  0  0
 36 33  1  0  0  0  0
 36 37  1  0  0  0  0
 39 30  1  0  0  0  0
M  END
>  <MODEL>
6

>  <REMARK>
 VINA RESULT:      -7.7      3.727      8.579
  Name = 
  9 active torsions:
  status: ('A' for Active; 'I' for Inactive)
    1  A    between atoms: C_5  and  C_6
    2  A    between atoms: C_7  and  C_8
    3  A    between atoms: C_7  and  C_38
    4  A    between atoms: C_8  and  C_16
    5  A    between atoms: N_14  and  C_20
    6  A    between atoms: N_14  and  C_23
    7  A    between atoms: C_19  and  C_20
    8  A    between atoms: C_20  and  N_26
    9  A    between atoms: C_28  and  C_31
                            x       y       z     vdW  Elec       q    Type
                         _______ _______ _______ _____ _____    ______ ____

>  <TORSDO>
F 9

$$$$
=
 OpenBabel11072409233D

 39 42  0  0  1  0  0  0  0  0999 V2000
  190.4480  174.1210  145.3780 C   0  0  0  0  0  0  0  0  0  0  0  0
  191.7440  173.7580  145.0000 C   0  0  0  0  0  3  0  0  0  0  0  0
  192.6460  175.0220  146.8500 C   0  0  0  0  0  3  0  0  0  0  0  0
  191.3520  175.3870  147.2320 C   0  0  0  0  0  3  0  0  0  0  0  0
  192.8600  174.2110  145.7240 C   0  0  0  0  0  0  0  0  0  0  0  0
  189.3920  173.6700  144.6560 F   0  0  0  0  0  0  0  0  0  0  0  0
  190.2500  174.9430  146.4970 C   0  0  0  0  0  0  0  0  0  0  0  0
  196.4130  170.8060  145.7500 N   0  0  0  0  0  1  0  0  0  0  0  0
  196.3780  174.1450  144.2430 C   0  0  0  0  0  3  0  0  0  0  0  0
  196.7800  172.9110  144.6420 N   0  0  0  0  0  0  0  0  0  0  0  0
  195.0980  174.6210  144.5620 C   0  0  0  0  0  0  0  0  0  0  0  0
  195.9620  172.0950  145.3540 C   0  0  0  0  0  0  0  0  0  0  0  0
  194.2300  173.7940  145.3170 C   0  0  0  0  0  0  0  0  0  0  0  0
  194.6810  172.5220  145.7000 C   0  0  0  0  0  3  0  0  0  0  0  0
  194.6700  175.9140  144.1040 N   0  0  0  0  0  2  0  0  0  0  0  0
  194.1950  176.2500  142.7620 C   0  0  1  0  0  3  0  0  0  0  0  0
  195.9220  175.8330  140.9530 C   0  0  0  0  0  0  0  0  0  0  0  0
  196.4110  176.9840  141.1140 O   0  0  0  0  0  0  0  0  0  0  0  0
  194.8260  175.3980  141.7610 N   0  0  0  0  0  2  0  0  0  0  0  0
  196.4820  174.9370  139.9350 C   0  0  0  0  0  0  0  0  0  0  0  0
  196.6550  172.6260  138.9450 C   0  0  0  0  0  1  0  0  0  0  0  0
  196.1220  173.5550  139.9270 N   0  0  0  0  0  2  0  0  0  0  0  0
  197.2800  175.3920  139.0710 O   0  0  0  0  0  0  0  0  0  0  0  0
  191.8420  177.1610  143.4650 C   0  0  0  0  0  1  0  0  0  0  0  0
  192.6920  176.2090  142.6880 C   0  0  0  0  0  0  0  0  0  0  0  0
  192.1550  175.3960  141.9560 O   0  0  0  0  0  0  0  0  0  0  0  0
  188.8750  175.3300  146.9290 C   0  0  0  0  0  2  0  0  0  0  0  0
  188.6100  176.8030  146.6400 C   0  0  1  0  0  3  0  0  0  0  0  0
  189.7740  177.3800  146.1230 O   0  0  0  0  0  1  0  0  0  0  0  0
  187.9310  176.3370  143.4860 C   0  0  0  0  0  2  0  0  0  0  0  0
  186.9360  178.1800  143.5070 C   0  0  2  0  0  3  0  0  0  0  0  0
  187.4320  176.9550  145.6620 C   0  0  1  0  0  3  0  0  0  0  0  0
  186.3000  177.7720  146.3030 C   0  0  2  0  0  3  0  0  0  0  0  0
  185.8140  177.1100  147.4340 O   0  0  0  0  0  1  0  0  0  0  0  0
  187.9120  177.4960  144.3710 N   0  0  1  0  0  0  0  0  0  0  0  0
  185.1780  177.9270  145.3000 C   0  0  2  0  0  3  0  0  0  0  0  0
  185.6960  178.7770  144.1710 C   0  0  0  0  0  2  0  0  0  0  0  0
  183.7820  178.7600  146.0340 Cl  0  0  0  0  0  0  0  0  0  0  0  0
  186.5880  176.8280  142.3580 S   0  0  0  0  0  0  0  0  0  0  0  0
  1  7  1  0  0  0  0
  2  1  2  0  0  0  0
  2  5  1  0  0  0  0
  3  4  1  0  0  0  0
  5  3  2  0  0  0  0
  6  1  1  0  0  0  0
  7 27  1  0  0  0  0
  7  4  2  0  0  0  0
  9 11  2  0  0  0  0
  9 10  1  0  0  0  0
 10 12  2  0  0  0  0
 11 13  1  0  0  0  0
 12 14  1  0  0  0  0
 12  8  1  0  0  0  0
 13 14  2  0  0  0  0
 13  5  1  0  0  0  0
 15 11  1  0  0  0  0
 16 19  1  6  0  0  0
 16 15  1  0  0  0  0
 17 18  2  0  0  0  0
 17 19  1  0  0  0  0
 20 17  1  0  0  0  0
 21 22  1  0  0  0  0
 22 20  1  0  0  0  0
 23 20  2  0  0  0  0
 25 16  1  0  0  0  0
 25 24  1  0  0  0  0
 26 25  2  0  0  0  0
 28 29  1  6  0  0  0
 28 27  1  0  0  0  0
 31 37  1  1  0  0  0
 31 35  1  0  0  0  0
 32 33  1  0  0  0  0
 32 28  1  1  0  0  0
 33 34  1  1  0  0  0
 35 30  1  6  0  0  0
 35 32  1  0  0  0  0
 36 38  1  1  0  0  0
 36 33  1  0  0  0  0
 37 36  1  0  0  0  0
 39 30  1  0  0  0  0
 39 31  1  0  0  0  0
M  END
>  <MODEL>
7

>  <REMARK>
 VINA RESULT:      -7.7      3.874      8.536
  Name = 
  9 active torsions:
  status: ('A' for Active; 'I' for Inactive)
    1  A    between atoms: C_5  and  C_6
    2  A    between atoms: C_7  and  C_8
    3  A    between atoms: C_7  and  C_38
    4  A    between atoms: C_8  and  C_16
    5  A    between atoms: N_14  and  C_20
    6  A    between atoms: N_14  and  C_23
    7  A    between atoms: C_19  and  C_20
    8  A    between atoms: C_20  and  N_26
    9  A    between atoms: C_28  and  C_31
                            x       y       z     vdW  Elec       q    Type
                         _______ _______ _______ _____ _____    ______ ____

>  <TORSDO>
F 9

$$$$
=
 OpenBabel11072409233D

 39 42  0  0  1  0  0  0  0  0999 V2000
  190.0950  174.0810  144.5690 C   0  0  0  0  0  0  0  0  0  0  0  0
  191.3370  173.4530  144.7020 C   0  0  0  0  0  3  0  0  0  0  0  0
  191.7050  173.6590  142.3240 C   0  0  0  0  0  3  0  0  0  0  0  0
  190.4650  174.2880  142.1860 C   0  0  0  0  0  3  0  0  0  0  0  0
  192.1540  173.2240  143.5810 C   0  0  0  0  0  0  0  0  0  0  0  0
  189.3300  174.2840  145.6700 F   0  0  0  0  0  0  0  0  0  0  0  0
  189.6540  174.4970  143.3050 C   0  0  0  0  0  0  0  0  0  0  0  0
  194.8420  169.5410  145.4310 N   0  0  0  0  0  1  0  0  0  0  0  0
  195.8830  172.4250  143.4270 C   0  0  0  0  0  3  0  0  0  0  0  0
  195.9100  171.2790  144.1540 N   0  0  0  0  0  0  0  0  0  0  0  0
  194.6760  173.1020  143.1980 C   0  0  0  0  0  0  0  0  0  0  0  0
  194.7780  170.7460  144.6790 C   0  0  0  0  0  0  0  0  0  0  0  0
  193.4820  172.5740  143.7480 C   0  0  0  0  0  0  0  0  0  0  0  0
  193.5530  171.3810  144.4850 C   0  0  0  0  0  3  0  0  0  0  0  0
  194.6540  174.2940  142.3960 N   0  0  0  0  0  2  0  0  0  0  0  0
  195.0070  175.6440  142.8320 C   0  0  1  0  0  3  0  0  0  0  0  0
  193.4390  176.4210  144.6670 C   0  0  0  0  0  0  0  0  0  0  0  0
  192.5670  176.7570  143.8190 O   0  0  0  0  0  0  0  0  0  0  0  0
  194.6720  175.8390  144.2380 N   0  0  0  0  0  2  0  0  0  0  0  0
  193.1850  176.6260  146.0970 C   0  0  0  0  0  0  0  0  0  0  0  0
  191.5640  176.6440  148.0270 C   0  0  0  0  0  1  0  0  0  0  0  0
  191.8680  176.4450  146.6200 N   0  0  0  0  0  2  0  0  0  0  0  0
  194.1320  176.9620  146.8600 O   0  0  0  0  0  0  0  0  0  0  0  0
  197.1540  175.3630  141.3570 C   0  0  0  0  0  1  0  0  0  0  0  0
  196.4510  175.9520  142.5370 C   0  0  0  0  0  0  0  0  0  0  0  0
  197.0550  176.7240  143.2630 O   0  0  0  0  0  0  0  0  0  0  0  0
  188.3400  175.1850  143.1400 C   0  0  0  0  0  2  0  0  0  0  0  0
  188.4030  176.6110  143.6750 C   0  0  1  0  0  3  0  0  0  0  0  0
  189.0340  177.4220  142.7260 O   0  0  0  0  0  1  0  0  0  0  0  0
  185.6490  177.4230  142.1320 C   0  0  0  0  0  2  0  0  0  0  0  0
  185.5340  179.1000  143.3800 C   0  0  2  0  0  3  0  0  0  0  0  0
  186.9910  177.1280  143.9970 C   0  0  1  0  0  3  0  0  0  0  0  0
  186.9130  177.6160  145.4510 C   0  0  2  0  0  3  0  0  0  0  0  0
  187.1750  176.5580  146.3250 O   0  0  0  0  0  1  0  0  0  0  0  0
  186.5800  178.1380  142.9960 N   0  0  1  0  0  0  0  0  0  0  0  0
  185.5210  178.1460  145.7170 C   0  0  2  0  0  3  0  0  0  0  0  0
  185.3370  179.3770  144.8710 C   0  0  0  0  0  2  0  0  0  0  0  0
  185.3370  178.6110  147.4290 Cl  0  0  0  0  0  0  0  0  0  0  0  0
  184.1220  178.3090  142.5760 S   0  0  0  0  0  0  0  0  0  0  0  0
  1  2  1  0  0  0  0
  1  6  1  0  0  0  0
  3  5  1  0  0  0  0
  4  3  2  0  0  0  0
  4  7  1  0  0  0  0
  5 13  1  0  0  0  0
  5  2  2  0  0  0  0
  7  1  2  0  0  0  0
  9 10  1  0  0  0  0
 10 12  2  0  0  0  0
 11  9  2  0  0  0  0
 11 13  1  0  0  0  0
 12  8  1  0  0  0  0
 13 14  2  0  0  0  0
 14 12  1  0  0  0  0
 15 11  1  0  0  0  0
 16 15  1  1  0  0  0
 16 19  1  0  0  0  0
 17 20  1  0  0  0  0
 18 17  2  0  0  0  0
 19 17  1  0  0  0  0
 20 22  1  0  0  0  0
 20 23  2  0  0  0  0
 22 21  1  0  0  0  0
 24 25  1  0  0  0  0
 25 16  1  0  0  0  0
 25 26  2  0  0  0  0
 27  7  1  0  0  0  0
 27 28  1  0  0  0  0
 28 29  1  6  0  0  0
 30 39  1  0  0  0  0
 31 37  1  1  0  0  0
 32 28  1  6  0  0  0
 32 33  1  0  0  0  0
 33 36  1  0  0  0  0
 33 34  1  1  0  0  0
 35 30  1  6  0  0  0
 35 31  1  0  0  0  0
 35 32  1  0  0  0  0
 36 38  1  1  0  0  0
 37 36  1  0  0  0  0
 39 31  1  0  0  0  0
M  END
>  <MODEL>
8

>  <REMARK>
 VINA RESULT:      -7.5      4.006      8.878
  Name = 
  9 active torsions:
  status: ('A' for Active; 'I' for Inactive)
    1  A    between atoms: C_5  and  C_6
    2  A    between atoms: C_7  and  C_8
    3  A    between atoms: C_7  and  C_38
    4  A    between atoms: C_8  and  C_16
    5  A    between atoms: N_14  and  C_20
    6  A    between atoms: N_14  and  C_23
    7  A    between atoms: C_19  and  C_20
    8  A    between atoms: C_20  and  N_26
    9  A    between atoms: C_28  and  C_31
                            x       y       z     vdW  Elec       q    Type
                         _______ _______ _______ _____ _____    ______ ____

>  <TORSDO>
F 9

$$$$
=
 OpenBabel11072409233D

 39 42  0  0  1  0  0  0  0  0999 V2000
  191.3300  176.6660  145.1700 C   0  0  0  0  0  0  0  0  0  0  0  0
  190.0330  177.1480  144.9730 C   0  0  0  0  0  3  0  0  0  0  0  0
  189.1290  175.1710  146.0230 C   0  0  0  0  0  3  0  0  0  0  0  0
  190.4240  174.6850  146.2240 C   0  0  0  0  0  3  0  0  0  0  0  0
  188.9150  176.4030  145.3870 C   0  0  0  0  0  0  0  0  0  0  0  0
  192.3870  177.4080  144.7560 F   0  0  0  0  0  0  0  0  0  0  0  0
  191.5280  175.4260  145.7950 C   0  0  0  0  0  0  0  0  0  0  0  0
  185.2540  179.2940  146.9540 N   0  0  0  0  0  1  0  0  0  0  0  0
  185.4380  177.1390  143.9970 C   0  0  0  0  0  3  0  0  0  0  0  0
  184.9850  178.0080  144.9380 N   0  0  0  0  0  0  0  0  0  0  0  0
  186.7240  176.5880  144.0880 C   0  0  0  0  0  0  0  0  0  0  0  0
  185.7570  178.3770  145.9910 C   0  0  0  0  0  0  0  0  0  0  0  0
  187.5440  176.9460  145.1870 C   0  0  0  0  0  0  0  0  0  0  0  0
  187.0410  177.8550  146.1310 C   0  0  0  0  0  3  0  0  0  0  0  0
  187.2060  175.6980  143.0680 N   0  0  0  0  0  2  0  0  0  0  0  0
  188.1420  176.0280  141.9950 C   0  0  1  0  0  3  0  0  0  0  0  0
  188.9750  173.7770  141.1770 C   0  0  0  0  0  0  0  0  0  0  0  0
  189.6360  173.6030  142.2370 O   0  0  0  0  0  0  0  0  0  0  0  0
  188.1910  174.9600  141.0030 N   0  0  0  0  0  2  0  0  0  0  0  0
  189.0110  172.7610  140.1190 C   0  0  0  0  0  0  0  0  0  0  0  0
  190.2210  170.8700  138.9730 C   0  0  0  0  0  1  0  0  0  0  0  0
  190.1350  171.8870  140.0080 N   0  0  0  0  0  2  0  0  0  0  0  0
  188.0480  172.6650  139.3100 O   0  0  0  0  0  0  0  0  0  0  0  0
  186.6400  177.5590  140.4910 C   0  0  0  0  0  1  0  0  0  0  0  0
  187.8230  177.3660  141.3840 C   0  0  0  0  0  0  0  0  0  0  0  0
  188.5320  178.3240  141.6440 O   0  0  0  0  0  0  0  0  0  0  0  0
  192.9040  174.8990  146.0320 C   0  0  0  0  0  2  0  0  0  0  0  0
  193.3290  173.9650  144.9050 C   0  0  1  0  0  3  0  0  0  0  0  0
  192.5120  174.1950  143.7940 O   0  0  0  0  0  1  0  0  0  0  0  0
  195.3000  176.3140  143.8000 C   0  0  0  0  0  2  0  0  0  0  0  0
  196.1810  174.8810  142.5530 C   0  0  2  0  0  3  0  0  0  0  0  0
  194.8120  174.1800  144.5580 C   0  0  1  0  0  3  0  0  0  0  0  0
  195.5550  172.8370  144.5070 C   0  0  2  0  0  3  0  0  0  0  0  0
  195.5090  172.2170  145.7580 O   0  0  0  0  0  1  0  0  0  0  0  0
  194.9310  174.9860  143.3230 N   0  0  1  0  0  0  0  0  0  0  0  0
  196.9980  173.0880  144.1310 C   0  0  2  0  0  3  0  0  0  0  0  0
  197.0130  173.6100  142.7180 C   0  0  0  0  0  2  0  0  0  0  0  0
  197.9390  171.5740  144.1780 Cl  0  0  0  0  0  0  0  0  0  0  0  0
  196.9950  176.3850  143.1400 S   0  0  0  0  0  0  0  0  0  0  0  0
  1  7  1  0  0  0  0
  2  1  2  0  0  0  0
  2  5  1  0  0  0  0
  3  4  1  0  0  0  0
  5  3  2  0  0  0  0
  6  1  1  0  0  0  0
  7 27  1  0  0  0  0
  7  4  2  0  0  0  0
  9 11  2  0  0  0  0
  9 10  1  0  0  0  0
 10 12  2  0  0  0  0
 11 13  1  0  0  0  0
 12 14  1  0  0  0  0
 12  8  1  0  0  0  0
 13  5  1  0  0  0  0
 13 14  2  0  0  0  0
 15 11  1  0  0  0  0
 16 19  1  6  0  0  0
 16 15  1  0  0  0  0
 17 18  2  0  0  0  0
 19 17  1  0  0  0  0
 20 17  1  0  0  0  0
 21 22  1  0  0  0  0
 22 20  1  0  0  0  0
 23 20  2  0  0  0  0
 24 25  1  0  0  0  0
 25 26  2  0  0  0  0
 25 16  1  0  0  0  0
 28 29  1  6  0  0  0
 28 27  1  0  0  0  0
 31 37  1  1  0  0  0
 31 39  1  0  0  0  0
 31 35  1  0  0  0  0
 32 28  1  6  0  0  0
 33 32  1  0  0  0  0
 33 34  1  1  0  0  0
 35 30  1  1  0  0  0
 35 32  1  0  0  0  0
 36 38  1  6  0  0  0
 36 33  1  0  0  0  0
 37 36  1  0  0  0  0
 39 30  1  0  0  0  0
M  END
>  <MODEL>
9

>  <REMARK>
 VINA RESULT:      -7.5      2.335      2.779
  Name = 
  9 active torsions:
  status: ('A' for Active; 'I' for Inactive)
    1  A    between atoms: C_5  and  C_6
    2  A    between atoms: C_7  and  C_8
    3  A    between atoms: C_7  and  C_38
    4  A    between atoms: C_8  and  C_16
    5  A    between atoms: N_14  and  C_20
    6  A    between atoms: N_14  and  C_23
    7  A    between atoms: C_19  and  C_20
    8  A    between atoms: C_20  and  N_26
    9  A    between atoms: C_28  and  C_31
                            x       y       z     vdW  Elec       q    Type
                         _______ _______ _______ _____ _____    ______ ____

>  <TORSDO>
F 9

$$$$
