=
 OpenBabel11062420163D

 25 28  0  0  1  0  0  0  0  0999 V2000
  188.6310  175.9640  142.6010 C   0  0  0  0  0  2  0  0  0  0  0  0
  190.6360  174.6850  143.6550 C   0  0  1  0  0  3  0  0  0  0  0  0
  191.4500  175.6750  142.8110 C   0  0  2  0  0  3  0  0  0  0  0  0
  192.7500  174.7750  141.9240 S   0  0  0  0  0  1  0  0  0  0  0  0
  190.9740  177.6220  144.2270 C   0  0  0  0  0  2  0  0  0  0  0  0
  192.0820  176.7400  143.6860 C   0  0  0  0  0  2  0  0  0  0  0  0
  189.9870  176.8380  145.1000 C   0  0  1  0  0  3  0  0  0  0  0  0
  188.6250  177.5320  145.1690 C   0  0  0  0  0  2  0  0  0  0  0  0
  188.1990  177.9420  143.8940 O   0  0  0  0  0  0  0  0  0  0  0  0
  189.8350  175.3260  144.7900 C   0  0  1  0  0  0  0  0  0  0  0  0
  189.1020  174.8480  143.5390 C   0  0  1  0  0  3  0  0  0  0  0  0
  187.5840  176.8340  143.2940 C   0  0  1  0  0  3  0  0  0  0  0  0
  189.6430  174.4090  145.9790 C   0  0  0  0  0  1  0  0  0  0  0  0
  186.5520  177.2920  142.3100 C   0  0  0  0  0  0  0  0  0  0  0  0
  184.7290  178.1240  140.3840 C   0  0  0  0  0  3  0  0  0  0  0  0
  184.3740  178.1830  141.7320 C   0  0  0  0  0  3  0  0  0  0  0  0
  186.8630  177.2540  140.9480 C   0  0  0  0  0  3  0  0  0  0  0  0
  185.2910  177.7750  142.7110 C   0  0  0  0  0  0  0  0  0  0  0  0
  185.9560  177.6650  140.0230 N   0  0  0  0  0  0  0  0  0  0  0  0
  184.9580  177.8010  144.0750 O   0  0  0  0  0  0  0  0  0  0  0  0
  185.4600  180.0060  144.4290 O   0  0  0  0  0  0  0  0  0  0  0  0
  185.1530  178.8930  144.9300 C   0  0  0  0  0  0  0  0  0  0  0  0
  183.9620  178.1250  146.8290 O   0  0  0  0  0  0  0  0  0  0  0  0
  184.9290  178.7960  146.3840 C   0  0  0  0  0  0  0  0  0  0  0  0
  185.8030  179.4070  147.2750 O   0  0  0  0  0  1  0  0  0  0  0  0
  1 12  1  0  0  0  0
  1 11  1  0  0  0  0
  2 10  1  0  0  0  0
  3  2  1  0  0  0  0
  3  6  1  0  0  0  0
  4  3  1  0  0  0  0
  5  7  1  0  0  0  0
  6  5  1  0  0  0  0
  7  8  1  0  0  0  0
  9  8  1  0  0  0  0
 10  7  1  0  0  0  0
 10 13  1  0  0  0  0
 11  2  1  0  0  0  0
 11 10  1  0  0  0  0
 12  9  1  0  0  0  0
 14 18  1  0  0  0  0
 14 12  1  0  0  0  0
 15 16  1  0  0  0  0
 16 18  2  0  0  0  0
 17 14  2  0  0  0  0
 18 20  1  0  0  0  0
 19 15  2  0  0  0  0
 19 17  1  0  0  0  0
 20 22  1  0  0  0  0
 21 22  2  0  0  0  0
 22 24  1  0  0  0  0
 24 23  2  0  0  0  0
 24 25  1  0  0  0  0
M  END
>  <MODEL>
1

>  <REMARK>
 VINA RESULT:      -7.3      0.000      0.000
  Name = 
  4 active torsions:
  status: ('A' for Active; 'I' for Inactive)
    1  A    between atoms: C_2  and  C_22
    2  A    between atoms: O_13  and  C_20
    3  A    between atoms: O_13  and  C_24
    4  A    between atoms: C_17  and  C_20
                            x       y       z     vdW  Elec       q    Type
                         _______ _______ _______ _____ _____    ______ ____

>  <TORSDO>
F 4

$$$$
=
 OpenBabel11062420163D

 25 28  0  0  1  0  0  0  0  0999 V2000
  190.1230  177.4380  145.3220 C   0  0  0  0  0  2  0  0  0  0  0  0
  192.5080  176.7560  144.5400 C   0  0  1  0  0  3  0  0  0  0  0  0
  192.6810  176.4200  146.0270 C   0  0  2  0  0  3  0  0  0  0  0  0
  194.2540  177.1050  146.6130 S   0  0  0  0  0  1  0  0  0  0  0  0
  191.2690  174.4140  145.9720 C   0  0  0  0  0  2  0  0  0  0  0  0
  192.6700  174.9200  146.2490 C   0  0  0  0  0  2  0  0  0  0  0  0
  190.8420  174.6660  144.5210 C   0  0  1  0  0  3  0  0  0  0  0  0
  189.3170  174.6960  144.3830 C   0  0  0  0  0  2  0  0  0  0  0  0
  188.7320  175.4810  145.3900 O   0  0  0  0  0  0  0  0  0  0  0  0
  191.4980  175.8740  143.8030 C   0  0  1  0  0  0  0  0  0  0  0  0
  191.1130  177.3070  144.1610 C   0  0  1  0  0  3  0  0  0  0  0  0
  188.7800  176.8120  144.9510 C   0  0  1  0  0  3  0  0  0  0  0  0
  191.8200  175.6930  142.3340 C   0  0  0  0  0  1  0  0  0  0  0  0
  187.6540  177.5930  145.5550 C   0  0  0  0  0  0  0  0  0  0  0  0
  185.6020  178.9930  146.8000 C   0  0  0  0  0  3  0  0  0  0  0  0
  185.6950  179.0110  145.4090 C   0  0  0  0  0  3  0  0  0  0  0  0
  187.5180  177.6010  146.9460 C   0  0  0  0  0  3  0  0  0  0  0  0
  186.7220  178.2990  144.7710 C   0  0  0  0  0  0  0  0  0  0  0  0
  186.5070  178.2930  147.5340 N   0  0  0  0  0  0  0  0  0  0  0  0
  186.8580  178.3150  143.3740 O   0  0  0  0  0  0  0  0  0  0  0  0
  186.4380  176.3270  142.3200 O   0  0  0  0  0  0  0  0  0  0  0  0
  186.1120  177.5320  142.4840 C   0  0  0  0  0  0  0  0  0  0  0  0
  184.9690  178.3610  140.5810 O   0  0  0  0  0  0  0  0  0  0  0  0
  184.9140  178.0510  141.8000 C   0  0  0  0  0  0  0  0  0  0  0  0
  183.7070  178.1640  142.4790 O   0  0  0  0  0  1  0  0  0  0  0  0
  2  3  1  0  0  0  0
  3  6  1  0  0  0  0
  3  4  1  0  0  0  0
  5  6  1  0  0  0  0
  7  5  1  0  0  0  0
  8  7  1  0  0  0  0
  8  9  1  0  0  0  0
 10 11  1  0  0  0  0
 10  7  1  0  0  0  0
 10  2  1  0  0  0  0
 11  2  1  0  0  0  0
 11  1  1  0  0  0  0
 12  1  1  0  0  0  0
 12  9  1  0  0  0  0
 12 14  1  0  0  0  0
 13 10  1  0  0  0  0
 14 17  1  0  0  0  0
 15 19  1  0  0  0  0
 16 15  2  0  0  0  0
 17 19  2  0  0  0  0
 18 16  1  0  0  0  0
 18 14  2  0  0  0  0
 20 18  1  0  0  0  0
 21 22  2  0  0  0  0
 22 20  1  0  0  0  0
 23 24  2  0  0  0  0
 24 25  1  0  0  0  0
 24 22  1  0  0  0  0
M  END
>  <MODEL>
2

>  <REMARK>
 VINA RESULT:      -7.1      2.525      4.202
  Name = 
  4 active torsions:
  status: ('A' for Active; 'I' for Inactive)
    1  A    between atoms: C_2  and  C_22
    2  A    between atoms: O_13  and  C_20
    3  A    between atoms: O_13  and  C_24
    4  A    between atoms: C_17  and  C_20
                            x       y       z     vdW  Elec       q    Type
                         _______ _______ _______ _____ _____    ______ ____

>  <TORSDO>
F 4

$$$$
=
 OpenBabel11062420163D

 25 28  0  0  1  0  0  0  0  0999 V2000
  187.9660  175.9750  143.6230 C   0  0  0  0  0  2  0  0  0  0  0  0
  189.5910  174.8470  145.3120 C   0  0  1  0  0  3  0  0  0  0  0  0
  189.9430  173.9880  144.0900 C   0  0  2  0  0  3  0  0  0  0  0  0
  189.9640  172.2410  144.5750 S   0  0  0  0  0  1  0  0  0  0  0  0
  191.1820  175.7550  142.9220 C   0  0  0  0  0  2  0  0  0  0  0  0
  191.2990  174.3720  143.5310 C   0  0  0  0  0  2  0  0  0  0  0  0
  190.8000  176.8130  143.9640 C   0  0  1  0  0  3  0  0  0  0  0  0
  190.1410  178.0310  143.3110 C   0  0  0  0  0  2  0  0  0  0  0  0
  189.1680  177.6410  142.3760 O   0  0  0  0  0  0  0  0  0  0  0  0
  189.9860  176.3200  145.1880 C   0  0  1  0  0  0  0  0  0  0  0  0
  188.5170  175.9280  145.0520 C   0  0  1  0  0  3  0  0  0  0  0  0
  187.9840  177.4070  143.0930 C   0  0  1  0  0  3  0  0  0  0  0  0
  190.3080  176.9670  146.5190 C   0  0  0  0  0  1  0  0  0  0  0  0
  186.7960  177.6540  142.2150 C   0  0  0  0  0  0  0  0  0  0  0  0
  184.6770  178.1120  140.4770 C   0  0  0  0  0  3  0  0  0  0  0  0
  184.4430  178.1060  141.8520 C   0  0  0  0  0  3  0  0  0  0  0  0
  186.9820  177.6730  140.8300 C   0  0  0  0  0  3  0  0  0  0  0  0
  185.5090  177.8860  142.7370 C   0  0  0  0  0  0  0  0  0  0  0  0
  185.9300  177.8980  139.9980 N   0  0  0  0  0  0  0  0  0  0  0  0
  185.3050  177.8520  144.1260 O   0  0  0  0  0  0  0  0  0  0  0  0
  185.5420  180.1030  144.4680 O   0  0  0  0  0  0  0  0  0  0  0  0
  185.3360  178.9670  144.9720 C   0  0  0  0  0  0  0  0  0  0  0  0
  184.0780  178.1780  146.8180 O   0  0  0  0  0  0  0  0  0  0  0  0
  185.0550  178.8620  146.4150 C   0  0  0  0  0  0  0  0  0  0  0  0
  185.8850  179.4780  147.3430 O   0  0  0  0  0  1  0  0  0  0  0  0
  1 11  1  0  0  0  0
  3  4  1  0  0  0  0
  3  2  1  0  0  0  0
  5  6  1  0  0  0  0
  5  7  1  0  0  0  0
  6  3  1  0  0  0  0
  7 10  1  0  0  0  0
  8  7  1  0  0  0  0
  9 12  1  0  0  0  0
  9  8  1  0  0  0  0
 10  2  1  0  0  0  0
 10 13  1  0  0  0  0
 11 10  1  0  0  0  0
 11  2  1  0  0  0  0
 12  1  1  0  0  0  0
 14 18  1  0  0  0  0
 14 12  1  0  0  0  0
 15 16  1  0  0  0  0
 16 18  2  0  0  0  0
 17 14  2  0  0  0  0
 18 20  1  0  0  0  0
 19 15  2  0  0  0  0
 19 17  1  0  0  0  0
 20 22  1  0  0  0  0
 21 22  2  0  0  0  0
 22 24  1  0  0  0  0
 24 23  2  0  0  0  0
 24 25  1  0  0  0  0
M  END
>  <MODEL>
3

>  <REMARK>
 VINA RESULT:      -7.1      1.205      1.669
  Name = 
  4 active torsions:
  status: ('A' for Active; 'I' for Inactive)
    1  A    between atoms: C_2  and  C_22
    2  A    between atoms: O_13  and  C_20
    3  A    between atoms: O_13  and  C_24
    4  A    between atoms: C_17  and  C_20
                            x       y       z     vdW  Elec       q    Type
                         _______ _______ _______ _____ _____    ______ ____

>  <TORSDO>
F 4

$$$$
=
 OpenBabel11062420163D

 25 28  0  0  1  0  0  0  0  0999 V2000
  188.9300  175.8870  143.7520 C   0  0  0  0  0  2  0  0  0  0  0  0
  190.6160  174.6110  145.2680 C   0  0  1  0  0  3  0  0  0  0  0  0
  191.0250  173.9740  143.9330 C   0  0  2  0  0  3  0  0  0  0  0  0
  191.1520  172.1780  144.1440 S   0  0  0  0  0  1  0  0  0  0  0  0
  192.1570  175.9730  143.0680 C   0  0  0  0  0  2  0  0  0  0  0  0
  192.3560  174.5220  143.4580 C   0  0  0  0  0  2  0  0  0  0  0  0
  191.7050  176.8310  144.2550 C   0  0  1  0  0  3  0  0  0  0  0  0
  190.9750  178.0940  143.7900 C   0  0  0  0  0  2  0  0  0  0  0  0
  190.0310  177.7950  142.7930 O   0  0  0  0  0  0  0  0  0  0  0  0
  190.9190  176.1060  145.3780 C   0  0  1  0  0  0  0  0  0  0  0  0
  189.4780  175.6530  145.1640 C   0  0  1  0  0  3  0  0  0  0  0  0
  188.8620  177.3820  143.4490 C   0  0  1  0  0  3  0  0  0  0  0  0
  191.1960  176.5580  146.7970 C   0  0  0  0  0  1  0  0  0  0  0  0
  187.6640  177.6890  142.6040 C   0  0  0  0  0  0  0  0  0  0  0  0
  185.5140  178.2200  140.9260 C   0  0  0  0  0  3  0  0  0  0  0  0
  185.4190  178.5410  142.2800 C   0  0  0  0  0  3  0  0  0  0  0  0
  187.7140  177.3890  141.2410 C   0  0  0  0  0  3  0  0  0  0  0  0
  186.5030  178.2860  143.1330 C   0  0  0  0  0  0  0  0  0  0  0  0
  186.6500  177.6570  140.4380 N   0  0  0  0  0  0  0  0  0  0  0  0
  186.4320  178.5760  144.5050 O   0  0  0  0  0  0  0  0  0  0  0  0
  186.0000  176.6410  145.6480 O   0  0  0  0  0  0  0  0  0  0  0  0
  185.6950  177.8460  145.4450 C   0  0  0  0  0  0  0  0  0  0  0  0
  183.5970  178.9150  145.7040 O   0  0  0  0  0  0  0  0  0  0  0  0
  184.6340  178.4650  146.2590 C   0  0  0  0  0  0  0  0  0  0  0  0
  184.7460  178.5210  147.6420 O   0  0  0  0  0  1  0  0  0  0  0  0
  1 11  1  0  0  0  0
  2 10  1  0  0  0  0
  3  4  1  0  0  0  0
  3  2  1  0  0  0  0
  5  6  1  0  0  0  0
  5  7  1  0  0  0  0
  6  3  1  0  0  0  0
  7 10  1  0  0  0  0
  8  7  1  0  0  0  0
  9 12  1  0  0  0  0
  9  8  1  0  0  0  0
 10 13  1  0  0  0  0
 11  2  1  0  0  0  0
 11 10  1  0  0  0  0
 12  1  1  0  0  0  0
 14 18  1  0  0  0  0
 14 12  1  0  0  0  0
 15 16  1  0  0  0  0
 16 18  2  0  0  0  0
 17 14  2  0  0  0  0
 18 20  1  0  0  0  0
 19 15  2  0  0  0  0
 19 17  1  0  0  0  0
 20 22  1  0  0  0  0
 22 21  2  0  0  0  0
 22 24  1  0  0  0  0
 23 24  2  0  0  0  0
 24 25  1  0  0  0  0
M  END
>  <MODEL>
4

>  <REMARK>
 VINA RESULT:      -7.0      1.465      1.935
  Name = 
  4 active torsions:
  status: ('A' for Active; 'I' for Inactive)
    1  A    between atoms: C_2  and  C_22
    2  A    between atoms: O_13  and  C_20
    3  A    between atoms: O_13  and  C_24
    4  A    between atoms: C_17  and  C_20
                            x       y       z     vdW  Elec       q    Type
                         _______ _______ _______ _____ _____    ______ ____

>  <TORSDO>
F 4

$$$$
=
 OpenBabel11062420163D

 25 28  0  0  1  0  0  0  0  0999 V2000
  188.1470  175.7520  145.5900 C   0  0  0  0  0  2  0  0  0  0  0  0
  190.1920  174.1470  145.5200 C   0  0  1  0  0  3  0  0  0  0  0  0
  189.7170  173.9300  144.0770 C   0  0  2  0  0  3  0  0  0  0  0  0
  189.6910  172.1530  143.7180 S   0  0  0  0  0  1  0  0  0  0  0  0
  190.4560  176.1250  143.2630 C   0  0  0  0  0  2  0  0  0  0  0  0
  190.6350  174.6290  143.0930 C   0  0  0  0  0  2  0  0  0  0  0  0
  190.8460  176.5950  144.6690 C   0  0  1  0  0  3  0  0  0  0  0  0
  190.1600  177.9160  145.0300 C   0  0  0  0  0  2  0  0  0  0  0  0
  188.7960  177.8860  144.6980 O   0  0  0  0  0  0  0  0  0  0  0  0
  190.7080  175.5570  145.8130 C   0  0  1  0  0  0  0  0  0  0  0  0
  189.3360  175.1410  146.3380 C   0  0  1  0  0  3  0  0  0  0  0  0
  188.1290  177.2690  145.7670 C   0  0  1  0  0  3  0  0  0  0  0  0
  191.7710  175.5940  146.8910 C   0  0  0  0  0  1  0  0  0  0  0  0
  186.7200  177.7690  145.8490 C   0  0  0  0  0  0  0  0  0  0  0  0
  184.1050  178.6650  146.1350 C   0  0  0  0  0  3  0  0  0  0  0  0
  184.6830  178.6400  144.8660 C   0  0  0  0  0  3  0  0  0  0  0  0
  186.0970  177.8090  147.0990 C   0  0  0  0  0  3  0  0  0  0  0  0
  185.9990  178.1790  144.7110 C   0  0  0  0  0  0  0  0  0  0  0  0
  184.8170  178.2520  147.2160 N   0  0  0  0  0  0  0  0  0  0  0  0
  186.6180  178.1610  143.4510 O   0  0  0  0  0  0  0  0  0  0  0  0
  186.3160  176.0410  142.6450 O   0  0  0  0  0  0  0  0  0  0  0  0
  186.3030  177.2780  142.4110 C   0  0  0  0  0  0  0  0  0  0  0  0
  184.8160  178.4190  140.9610 O   0  0  0  0  0  1  0  0  0  0  0  0
  185.8790  177.7540  141.0830 C   0  0  0  0  0  0  0  0  0  0  0  0
  186.6630  177.5120  139.9620 O   0  0  0  0  0  0  0  0  0  0  0  0
  1 12  1  0  0  0  0
  1 11  1  0  0  0  0
  2 10  1  0  0  0  0
  2 11  1  0  0  0  0
  3  2  1  0  0  0  0
  4  3  1  0  0  0  0
  5  7  1  0  0  0  0
  6  5  1  0  0  0  0
  6  3  1  0  0  0  0
  7  8  1  0  0  0  0
  7 10  1  0  0  0  0
  9  8  1  0  0  0  0
  9 12  1  0  0  0  0
 10 11  1  0  0  0  0
 10 13  1  0  0  0  0
 12 14  1  0  0  0  0
 14 17  1  0  0  0  0
 15 19  1  0  0  0  0
 16 15  2  0  0  0  0
 17 19  2  0  0  0  0
 18 16  1  0  0  0  0
 18 14  2  0  0  0  0
 20 18  1  0  0  0  0
 22 21  2  0  0  0  0
 22 20  1  0  0  0  0
 23 24  1  0  0  0  0
 24 22  1  0  0  0  0
 25 24  2  0  0  0  0
M  END
>  <MODEL>
5

>  <REMARK>
 VINA RESULT:      -6.9      2.401      3.940
  Name = 
  4 active torsions:
  status: ('A' for Active; 'I' for Inactive)
    1  A    between atoms: C_2  and  C_22
    2  A    between atoms: O_13  and  C_20
    3  A    between atoms: O_13  and  C_24
    4  A    between atoms: C_17  and  C_20
                            x       y       z     vdW  Elec       q    Type
                         _______ _______ _______ _____ _____    ______ ____

>  <TORSDO>
F 4

$$$$
=
 OpenBabel11062420163D

 25 28  0  0  1  0  0  0  0  0999 V2000
  190.1780  177.0910  145.1480 C   0  0  0  0  0  2  0  0  0  0  0  0
  192.5500  176.6380  144.1820 C   0  0  1  0  0  3  0  0  0  0  0  0
  192.9130  176.5160  145.6680 C   0  0  2  0  0  3  0  0  0  0  0  0
  194.4190  177.4710  145.9950 S   0  0  0  0  0  1  0  0  0  0  0  0
  191.8070  174.3490  145.9930 C   0  0  0  0  0  2  0  0  0  0  0  0
  193.1400  175.0670  146.0520 C   0  0  0  0  0  2  0  0  0  0  0  0
  191.2100  174.3600  144.5800 C   0  0  1  0  0  3  0  0  0  0  0  0
  189.6910  174.1710  144.6120 C   0  0  0  0  0  2  0  0  0  0  0  0
  189.0980  174.9910  145.5870 O   0  0  0  0  0  0  0  0  0  0  0  0
  191.6120  175.5450  143.6650 C   0  0  1  0  0  0  0  0  0  0  0  0
  191.0610  176.9480  143.9040 C   0  0  1  0  0  3  0  0  0  0  0  0
  188.9110  176.2520  145.0010 C   0  0  1  0  0  3  0  0  0  0  0  0
  191.8140  175.2280  142.1980 C   0  0  0  0  0  1  0  0  0  0  0  0
  187.7480  176.9460  145.6400 C   0  0  0  0  0  0  0  0  0  0  0  0
  185.6650  178.2500  146.9370 C   0  0  0  0  0  3  0  0  0  0  0  0
  185.4470  177.7060  145.6710 C   0  0  0  0  0  3  0  0  0  0  0  0
  187.9170  177.5030  146.9100 C   0  0  0  0  0  3  0  0  0  0  0  0
  186.4890  177.0370  145.0130 C   0  0  0  0  0  0  0  0  0  0  0  0
  186.8840  178.1380  147.5260 N   0  0  0  0  0  0  0  0  0  0  0  0
  186.3100  176.4980  143.7300 O   0  0  0  0  0  0  0  0  0  0  0  0
  184.7310  177.5210  142.4260 O   0  0  0  0  0  0  0  0  0  0  0  0
  185.9450  177.2290  142.5930 C   0  0  0  0  0  0  0  0  0  0  0  0
  188.0870  178.0770  142.0370 O   0  0  0  0  0  1  0  0  0  0  0  0
  186.9430  177.7350  141.6340 C   0  0  0  0  0  0  0  0  0  0  0  0
  186.6510  177.8010  140.2780 O   0  0  0  0  0  0  0  0  0  0  0  0
  2  3  1  0  0  0  0
  3  4  1  0  0  0  0
  3  6  1  0  0  0  0
  5  6  1  0  0  0  0
  7  8  1  0  0  0  0
  7  5  1  0  0  0  0
  8  9  1  0  0  0  0
 10 11  1  0  0  0  0
 10  2  1  0  0  0  0
 10  7  1  0  0  0  0
 11  2  1  0  0  0  0
 11  1  1  0  0  0  0
 12  1  1  0  0  0  0
 12  9  1  0  0  0  0
 12 14  1  0  0  0  0
 13 10  1  0  0  0  0
 14 17  1  0  0  0  0
 15 19  1  0  0  0  0
 16 15  2  0  0  0  0
 17 19  2  0  0  0  0
 18 14  2  0  0  0  0
 18 16  1  0  0  0  0
 20 18  1  0  0  0  0
 21 22  2  0  0  0  0
 22 20  1  0  0  0  0
 24 23  1  0  0  0  0
 24 22  1  0  0  0  0
 25 24  2  0  0  0  0
M  END
>  <MODEL>
6

>  <REMARK>
 VINA RESULT:      -6.6      2.645      4.327
  Name = 
  4 active torsions:
  status: ('A' for Active; 'I' for Inactive)
    1  A    between atoms: C_2  and  C_22
    2  A    between atoms: O_13  and  C_20
    3  A    between atoms: O_13  and  C_24
    4  A    between atoms: C_17  and  C_20
                            x       y       z     vdW  Elec       q    Type
                         _______ _______ _______ _____ _____    ______ ____

>  <TORSDO>
F 4

$$$$
=
 OpenBabel11062420163D

 25 28  0  0  1  0  0  0  0  0999 V2000
  188.2000  174.4730  141.6430 C   0  0  0  0  0  2  0  0  0  0  0  0
  189.7380  172.3920  141.9010 C   0  0  1  0  0  3  0  0  0  0  0  0
  190.4940  173.0570  140.7430 C   0  0  2  0  0  3  0  0  0  0  0  0
  190.8590  171.8130  139.4760 S   0  0  0  0  0  1  0  0  0  0  0  0
  191.4430  174.8660  142.1040 C   0  0  0  0  0  2  0  0  0  0  0  0
  191.7890  173.6780  141.2280 C   0  0  0  0  0  2  0  0  0  0  0  0
  190.6400  174.4540  143.3430 C   0  0  1  0  0  3  0  0  0  0  0  0
  189.8250  175.6240  143.8990 C   0  0  0  0  0  2  0  0  0  0  0  0
  189.1510  176.3060  142.8710 O   0  0  0  0  0  0  0  0  0  0  0  0
  189.7750  173.1730  143.2160 C   0  0  1  0  0  0  0  0  0  0  0  0
  188.4920  173.1680  142.3890 C   0  0  1  0  0  3  0  0  0  0  0  0
  187.9570  175.6100  142.6340 C   0  0  1  0  0  3  0  0  0  0  0  0
  189.6960  172.2870  144.4420 C   0  0  0  0  0  1  0  0  0  0  0  0
  186.9130  176.5460  142.1090 C   0  0  0  0  0  0  0  0  0  0  0  0
  185.0460  178.2910  141.0170 C   0  0  0  0  0  3  0  0  0  0  0  0
  184.9240  177.9090  142.3530 C   0  0  0  0  0  3  0  0  0  0  0  0
  186.9960  176.9600  140.7770 C   0  0  0  0  0  3  0  0  0  0  0  0
  185.8680  177.0370  142.9160 C   0  0  0  0  0  0  0  0  0  0  0  0
  186.0710  177.8140  140.2630 N   0  0  0  0  0  0  0  0  0  0  0  0
  185.7620  176.6150  144.2500 O   0  0  0  0  0  0  0  0  0  0  0  0
  187.3400  177.9160  145.2780 O   0  0  0  0  0  0  0  0  0  0  0  0
  186.2280  177.3310  145.3600 C   0  0  0  0  0  0  0  0  0  0  0  0
  185.9410  177.2680  147.7110 O   0  0  0  0  0  1  0  0  0  0  0  0
  185.4230  177.4870  146.5850 C   0  0  0  0  0  0  0  0  0  0  0  0
  184.1030  177.9150  146.5130 O   0  0  0  0  0  0  0  0  0  0  0  0
  1 11  1  0  0  0  0
  1 12  1  0  0  0  0
  2 11  1  0  0  0  0
  2 10  1  0  0  0  0
  3  6  1  0  0  0  0
  3  2  1  0  0  0  0
  4  3  1  0  0  0  0
  5  7  1  0  0  0  0
  6  5  1  0  0  0  0
  7  8  1  0  0  0  0
  9  8  1  0  0  0  0
 10  7  1  0  0  0  0
 10 13  1  0  0  0  0
 11 10  1  0  0  0  0
 12  9  1  0  0  0  0
 14 12  1  0  0  0  0
 14 18  1  0  0  0  0
 15 16  1  0  0  0  0
 16 18  2  0  0  0  0
 17 14  2  0  0  0  0
 18 20  1  0  0  0  0
 19 17  1  0  0  0  0
 19 15  2  0  0  0  0
 20 22  1  0  0  0  0
 21 22  2  0  0  0  0
 22 24  1  0  0  0  0
 24 23  1  0  0  0  0
 25 24  2  0  0  0  0
M  END
>  <MODEL>
7

>  <REMARK>
 VINA RESULT:      -6.6      1.883      2.388
  Name = 
  4 active torsions:
  status: ('A' for Active; 'I' for Inactive)
    1  A    between atoms: C_2  and  C_22
    2  A    between atoms: O_13  and  C_20
    3  A    between atoms: O_13  and  C_24
    4  A    between atoms: C_17  and  C_20
                            x       y       z     vdW  Elec       q    Type
                         _______ _______ _______ _____ _____    ______ ____

>  <TORSDO>
F 4

$$$$
=
 OpenBabel11062420163D

 25 28  0  0  1  0  0  0  0  0999 V2000
  191.8130  174.2660  143.8680 C   0  0  0  0  0  2  0  0  0  0  0  0
  193.0610  174.5220  146.1360 C   0  0  1  0  0  3  0  0  0  0  0  0
  194.1750  175.0670  145.2310 C   0  0  2  0  0  3  0  0  0  0  0  0
  195.7500  174.3000  145.6960 S   0  0  0  0  0  1  0  0  0  0  0  0
  193.0510  177.1950  144.7480 C   0  0  0  0  0  2  0  0  0  0  0  0
  194.2890  176.5730  145.3620 C   0  0  0  0  0  2  0  0  0  0  0  0
  191.7710  176.7680  145.4760 C   0  0  1  0  0  3  0  0  0  0  0  0
  190.5410  176.9000  144.5740 C   0  0  0  0  0  2  0  0  0  0  0  0
  190.7870  176.3630  143.2990 O   0  0  0  0  0  0  0  0  0  0  0  0
  191.8030  175.3910  146.1880 C   0  0  1  0  0  0  0  0  0  0  0  0
  191.7770  174.0900  145.3890 C   0  0  1  0  0  3  0  0  0  0  0  0
  190.5530  174.9830  143.3860 C   0  0  1  0  0  3  0  0  0  0  0  0
  191.0630  175.2940  147.5060 C   0  0  0  0  0  1  0  0  0  0  0  0
  190.1280  174.4500  142.0530 C   0  0  0  0  0  0  0  0  0  0  0  0
  189.4700  173.4400  139.5490 C   0  0  0  0  0  3  0  0  0  0  0  0
  188.4660  173.9770  140.3540 C   0  0  0  0  0  3  0  0  0  0  0  0
  191.1000  173.9050  141.2090 C   0  0  0  0  0  3  0  0  0  0  0  0
  188.7900  174.4990  141.6150 C   0  0  0  0  0  0  0  0  0  0  0  0
  190.7560  173.4160  139.9880 N   0  0  0  0  0  0  0  0  0  0  0  0
  187.8000  175.0270  142.4590 O   0  0  0  0  0  0  0  0  0  0  0  0
  186.0340  176.4200  142.8820 O   0  0  0  0  0  0  0  0  0  0  0  0
  187.0850  176.2070  142.2220 C   0  0  0  0  0  0  0  0  0  0  0  0
  187.0580  177.3400  140.1410 O   0  0  0  0  0  0  0  0  0  0  0  0
  187.5680  177.2390  141.2870 C   0  0  0  0  0  0  0  0  0  0  0  0
  188.5570  178.1360  141.6750 O   0  0  0  0  0  1  0  0  0  0  0  0
  1 11  1  0  0  0  0
  2 10  1  0  0  0  0
  3  6  1  0  0  0  0
  3  4  1  0  0  0  0
  3  2  1  0  0  0  0
  5  6  1  0  0  0  0
  5  7  1  0  0  0  0
  7 10  1  0  0  0  0
  8  7  1  0  0  0  0
  9 12  1  0  0  0  0
  9  8  1  0  0  0  0
 10 13  1  0  0  0  0
 11  2  1  0  0  0  0
 11 10  1  0  0  0  0
 12  1  1  0  0  0  0
 14 12  1  0  0  0  0
 15 19  2  0  0  0  0
 15 16  1  0  0  0  0
 16 18  2  0  0  0  0
 17 14  2  0  0  0  0
 18 14  1  0  0  0  0
 18 20  1  0  0  0  0
 19 17  1  0  0  0  0
 22 20  1  0  0  0  0
 22 21  2  0  0  0  0
 23 24  2  0  0  0  0
 24 25  1  0  0  0  0
 24 22  1  0  0  0  0
M  END
>  <MODEL>
8

>  <REMARK>
 VINA RESULT:      -6.1      3.103      4.507
  Name = 
  4 active torsions:
  status: ('A' for Active; 'I' for Inactive)
    1  A    between atoms: C_2  and  C_22
    2  A    between atoms: O_13  and  C_20
    3  A    between atoms: O_13  and  C_24
    4  A    between atoms: C_17  and  C_20
                            x       y       z     vdW  Elec       q    Type
                         _______ _______ _______ _____ _____    ______ ____

>  <TORSDO>
F 4

$$$$
=
 OpenBabel11062420163D

 25 28  0  0  1  0  0  0  0  0999 V2000
  191.8060  174.1380  143.8070 C   0  0  0  0  0  2  0  0  0  0  0  0
  193.2530  174.1340  145.9680 C   0  0  1  0  0  3  0  0  0  0  0  0
  194.4040  174.0680  144.9550 C   0  0  2  0  0  3  0  0  0  0  0  0
  195.5800  172.7890  145.4720 S   0  0  0  0  0  1  0  0  0  0  0  0
  194.1790  176.3950  144.2070 C   0  0  0  0  0  2  0  0  0  0  0  0
  195.1190  175.4030  144.8620 C   0  0  0  0  0  2  0  0  0  0  0  0
  192.9060  176.6140  145.0340 C   0  0  1  0  0  3  0  0  0  0  0  0
  191.7540  177.1250  144.1650 C   0  0  0  0  0  2  0  0  0  0  0  0
  191.6500  176.3870  142.9750 O   0  0  0  0  0  0  0  0  0  0  0  0
  192.4530  175.4380  145.9370 C   0  0  1  0  0  0  0  0  0  0  0  0
  191.8410  174.1740  145.3370 C   0  0  1  0  0  3  0  0  0  0  0  0
  190.8960  175.2410  143.2690 C   0  0  1  0  0  3  0  0  0  0  0  0
  191.8580  175.8070  147.2800 C   0  0  0  0  0  1  0  0  0  0  0  0
  190.1750  174.7730  142.0430 C   0  0  0  0  0  0  0  0  0  0  0  0
  188.9480  173.8290  139.7350 C   0  0  0  0  0  3  0  0  0  0  0  0
  188.3000  174.7920  140.5080 C   0  0  0  0  0  3  0  0  0  0  0  0
  190.7870  173.8110  141.2350 C   0  0  0  0  0  3  0  0  0  0  0  0
  188.9160  175.2820  141.6690 C   0  0  0  0  0  0  0  0  0  0  0  0
  190.1680  173.3630  140.1100 N   0  0  0  0  0  0  0  0  0  0  0  0
  188.2820  176.2350  142.4810 O   0  0  0  0  0  0  0  0  0  0  0  0
  189.0930  178.3140  141.9730 O   0  0  0  0  0  0  0  0  0  0  0  0
  188.0850  177.5790  142.1410 C   0  0  0  0  0  0  0  0  0  0  0  0
  186.3020  179.0640  142.6230 O   0  0  0  0  0  1  0  0  0  0  0  0
  186.7420  178.1350  141.8960 C   0  0  0  0  0  0  0  0  0  0  0  0
  185.9680  177.6710  140.8400 O   0  0  0  0  0  0  0  0  0  0  0  0
  1 11  1  0  0  0  0
  3  4  1  0  0  0  0
  3  2  1  0  0  0  0
  5  6  1  0  0  0  0
  5  7  1  0  0  0  0
  6  3  1  0  0  0  0
  7 10  1  0  0  0  0
  8  7  1  0  0  0  0
  9 12  1  0  0  0  0
  9  8  1  0  0  0  0
 10  2  1  0  0  0  0
 10 13  1  0  0  0  0
 11 10  1  0  0  0  0
 11  2  1  0  0  0  0
 12  1  1  0  0  0  0
 14 12  1  0  0  0  0
 15 19  2  0  0  0  0
 15 16  1  0  0  0  0
 16 18  2  0  0  0  0
 17 14  2  0  0  0  0
 18 14  1  0  0  0  0
 18 20  1  0  0  0  0
 19 17  1  0  0  0  0
 21 22  2  0  0  0  0
 22 20  1  0  0  0  0
 24 22  1  0  0  0  0
 24 23  1  0  0  0  0
 25 24  2  0  0  0  0
M  END
>  <MODEL>
9

>  <REMARK>
 VINA RESULT:      -6.0      2.880      4.406
  Name = 
  4 active torsions:
  status: ('A' for Active; 'I' for Inactive)
    1  A    between atoms: C_2  and  C_22
    2  A    between atoms: O_13  and  C_20
    3  A    between atoms: O_13  and  C_24
    4  A    between atoms: C_17  and  C_20
                            x       y       z     vdW  Elec       q    Type
                         _______ _______ _______ _____ _____    ______ ____

>  <TORSDO>
F 4

$$$$
