=
 OpenBabel11062420563D

 31 36  0  0  1  0  0  0  0  0999 V2000
  192.1090  176.2770  146.3420 C   0  0  0  0  0  3  0  0  0  0  0  0
  194.4730  175.8300  144.8990 C   0  0  0  0  0  0  0  0  0  0  0  0
  193.2180  175.5430  144.3070 C   0  0  0  0  0  0  0  0  0  0  0  0
  189.5930  173.8210  142.8270 C   0  0  0  0  0  3  0  0  0  0  0  0
  193.1370  175.1760  142.8510 C   0  0  0  0  0  2  0  0  0  0  0  0
  190.7340  174.5170  143.2580 C   0  0  0  0  0  0  0  0  0  0  0  0
  191.9560  173.5240  141.4120 C   0  0  0  0  0  3  0  0  0  0  0  0
  194.5140  176.3480  146.2010 C   0  0  0  0  0  3  0  0  0  0  0  0
  192.0280  175.7420  145.0480 C   0  0  0  0  0  0  0  0  0  0  0  0
  190.6660  175.4710  144.4320 C   0  0  2  0  0  3  0  0  0  0  0  0
  189.6540  172.9970  141.7470 N   0  0  0  0  0  0  0  0  0  0  0  0
  193.3420  176.5740  146.9170 C   0  0  0  0  0  3  0  0  0  0  0  0
  191.9240  174.3670  142.5230 C   0  0  0  0  0  0  0  0  0  0  0  0
  190.8030  172.8330  141.0410 C   0  0  0  0  0  3  0  0  0  0  0  0
  196.9930  174.0050  142.8840 C   0  0  0  0  0  2  0  0  0  0  0  0
  196.3760  176.7020  143.4760 C   0  0  0  0  0  2  0  0  0  0  0  0
  195.7140  175.6160  144.2020 N   0  0  0  0  0  0  0  0  0  0  0  0
  196.3500  174.2980  144.2390 C   0  0  0  0  0  2  0  0  0  0  0  0
  197.0160  176.1490  142.2030 C   0  0  0  0  0  2  0  0  0  0  0  0
  197.8480  175.0610  142.5220 O   0  0  0  0  0  0  0  0  0  0  0  0
  189.6670  174.9810  145.4840 C   0  0  0  0  0  2  0  0  0  0  0  0
  186.6840  178.4330  143.6250 C   0  0  0  0  0  3  0  0  0  0  0  0
  185.6310  179.3370  143.7950 C   0  0  0  0  0  3  0  0  0  0  0  0
  187.9190  176.1020  146.8810 C   0  0  0  0  0  3  0  0  0  0  0  0
  186.8680  177.0120  147.0330 C   0  0  0  0  0  3  0  0  0  0  0  0
  188.1550  176.7420  144.5530 C   0  0  0  0  0  3  0  0  0  0  0  0
  186.4570  177.7900  145.9480 C   0  0  0  0  0  0  0  0  0  0  0  0
  185.0150  179.4450  145.0450 C   0  0  0  0  0  3  0  0  0  0  0  0
  188.5650  175.9690  145.6450 C   0  0  0  0  0  0  0  0  0  0  0  0
  185.4360  178.6770  146.0870 N   0  0  0  0  0  0  0  0  0  0  0  0
  187.1050  177.6530  144.7000 C   0  0  0  0  0  0  0  0  0  0  0  0
  1 12  1  0  0  0  0
  2  8  1  0  0  0  0
  3  2  2  0  0  0  0
  3  9  1  0  0  0  0
  4  6  1  0  0  0  0
  5  3  1  0  0  0  0
  6 10  1  0  0  0  0
  7 13  1  0  0  0  0
  8 12  2  0  0  0  0
  9  1  2  0  0  0  0
 10  9  1  0  0  0  0
 10 21  1  1  0  0  0
 11  4  2  0  0  0  0
 13  5  1  0  0  0  0
 13  6  2  0  0  0  0
 14  7  2  0  0  0  0
 14 11  1  0  0  0  0
 15 18  1  0  0  0  0
 16 17  1  0  0  0  0
 17 18  1  0  0  0  0
 17  2  1  0  0  0  0
 19 20  1  0  0  0  0
 19 16  1  0  0  0  0
 20 15  1  0  0  0  0
 21 29  1  0  0  0  0
 22 23  2  0  0  0  0
 22 31  1  0  0  0  0
 23 28  1  0  0  0  0
 24 25  1  0  0  0  0
 26 31  2  0  0  0  0
 26 29  1  0  0  0  0
 27 30  1  0  0  0  0
 27 25  2  0  0  0  0
 28 30  2  0  0  0  0
 29 24  2  0  0  0  0
 31 27  1  0  0  0  0
M  END
>  <MODEL>
1

>  <REMARK>
 VINA RESULT:      -8.5      0.000      0.000
  Name = 
  3 active torsions:
  status: ('A' for Active; 'I' for Inactive)
    1  A    between atoms: C_2  and  N_12
    2  A    between atoms: C_20  and  C_26
    3  A    between atoms: C_23  and  C_26
                            x       y       z     vdW  Elec       q    Type
                         _______ _______ _______ _____ _____    ______ ____

>  <TORSDO>
F 3

$$$$
=
 OpenBabel11062420563D

 31 36  0  0  1  0  0  0  0  0999 V2000
  192.1620  176.4040  146.4690 C   0  0  0  0  0  3  0  0  0  0  0  0
  194.5420  175.2790  145.5000 C   0  0  0  0  0  0  0  0  0  0  0  0
  193.2970  174.8780  144.9560 C   0  0  0  0  0  0  0  0  0  0  0  0
  189.6030  172.9820  143.9270 C   0  0  0  0  0  3  0  0  0  0  0  0
  193.2550  173.9930  143.7400 C   0  0  0  0  0  2  0  0  0  0  0  0
  190.7830  173.7080  144.1610 C   0  0  0  0  0  0  0  0  0  0  0  0
  191.9950  172.0050  142.9280 C   0  0  0  0  0  3  0  0  0  0  0  0
  194.5670  176.2470  146.5130 C   0  0  0  0  0  3  0  0  0  0  0  0
  192.0960  175.4260  145.4660 C   0  0  0  0  0  0  0  0  0  0  0  0
  190.7470  175.0380  144.8840 C   0  0  2  0  0  3  0  0  0  0  0  0
  189.6390  171.8080  143.2420 N   0  0  0  0  0  0  0  0  0  0  0  0
  193.3870  176.8100  146.9920 C   0  0  0  0  0  3  0  0  0  0  0  0
  191.9880  173.2080  143.6380 C   0  0  0  0  0  0  0  0  0  0  0  0
  190.8010  171.3080  142.7470 C   0  0  0  0  0  3  0  0  0  0  0  0
  197.0310  172.6550  144.6850 C   0  0  0  0  0  2  0  0  0  0  0  0
  196.5190  175.3310  143.9210 C   0  0  0  0  0  2  0  0  0  0  0  0
  195.7900  174.7300  145.0400 N   0  0  0  0  0  0  0  0  0  0  0  0
  196.3660  173.5660  145.7160 C   0  0  0  0  0  2  0  0  0  0  0  0
  197.1680  174.2290  143.0840 C   0  0  0  0  0  2  0  0  0  0  0  0
  197.9410  173.3950  143.9100 O   0  0  0  0  0  0  0  0  0  0  0  0
  189.6530  175.0540  145.9550 C   0  0  0  0  0  2  0  0  0  0  0  0
  185.3620  177.2890  146.8870 C   0  0  0  0  0  3  0  0  0  0  0  0
  184.4020  178.2470  146.5480 C   0  0  0  0  0  3  0  0  0  0  0  0
  188.7650  176.8690  144.4770 C   0  0  0  0  0  3  0  0  0  0  0  0
  187.7940  177.8210  144.1520 C   0  0  0  0  0  3  0  0  0  0  0  0
  187.4700  176.1880  146.4130 C   0  0  0  0  0  3  0  0  0  0  0  0
  186.6590  177.9600  144.9550 C   0  0  0  0  0  0  0  0  0  0  0  0
  184.5960  179.0420  145.4140 C   0  0  0  0  0  3  0  0  0  0  0  0
  188.6030  176.0500  145.6020 C   0  0  0  0  0  0  0  0  0  0  0  0
  185.7100  178.8840  144.6470 N   0  0  0  0  0  0  0  0  0  0  0  0
  186.4980  177.1390  146.0930 C   0  0  0  0  0  0  0  0  0  0  0  0
  1 12  1  0  0  0  0
  2  8  1  0  0  0  0
  3  9  1  0  0  0  0
  3  2  2  0  0  0  0
  4  6  1  0  0  0  0
  5  3  1  0  0  0  0
  6 10  1  0  0  0  0
  7 13  1  0  0  0  0
  8 12  2  0  0  0  0
  9  1  2  0  0  0  0
 10  9  1  0  0  0  0
 10 21  1  1  0  0  0
 11  4  2  0  0  0  0
 13  5  1  0  0  0  0
 13  6  2  0  0  0  0
 14  7  2  0  0  0  0
 14 11  1  0  0  0  0
 15 18  1  0  0  0  0
 16 17  1  0  0  0  0
 17  2  1  0  0  0  0
 17 18  1  0  0  0  0
 19 20  1  0  0  0  0
 19 16  1  0  0  0  0
 20 15  1  0  0  0  0
 23 22  1  0  0  0  0
 24 29  1  0  0  0  0
 25 24  2  0  0  0  0
 25 27  1  0  0  0  0
 27 31  1  0  0  0  0
 28 23  2  0  0  0  0
 29 21  1  0  0  0  0
 29 26  2  0  0  0  0
 30 27  2  0  0  0  0
 30 28  1  0  0  0  0
 31 26  1  0  0  0  0
 31 22  2  0  0  0  0
M  END
>  <MODEL>
2

>  <REMARK>
 VINA RESULT:      -8.4      1.263      1.763
  Name = 
  3 active torsions:
  status: ('A' for Active; 'I' for Inactive)
    1  A    between atoms: C_2  and  N_12
    2  A    between atoms: C_20  and  C_26
    3  A    between atoms: C_23  and  C_26
                            x       y       z     vdW  Elec       q    Type
                         _______ _______ _______ _____ _____    ______ ____

>  <TORSDO>
F 3

$$$$
=
 OpenBabel11062420563D

 31 36  0  0  1  0  0  0  0  0999 V2000
  189.1900  174.7730  143.0530 C   0  0  0  0  0  3  0  0  0  0  0  0
  190.8980  172.6520  142.3770 C   0  0  0  0  0  0  0  0  0  0  0  0
  191.2120  173.4910  143.4750 C   0  0  0  0  0  0  0  0  0  0  0  0
  192.6700  176.4750  146.1700 C   0  0  0  0  0  3  0  0  0  0  0  0
  192.3530  173.1400  144.3910 C   0  0  0  0  0  2  0  0  0  0  0  0
  192.1130  175.4400  145.4010 C   0  0  0  0  0  0  0  0  0  0  0  0
  194.2450  174.2890  145.5290 C   0  0  0  0  0  3  0  0  0  0  0  0
  189.7250  172.8890  141.6480 C   0  0  0  0  0  3  0  0  0  0  0  0
  190.3640  174.5770  143.7970 C   0  0  0  0  0  0  0  0  0  0  0  0
  190.6580  175.4760  144.9860 C   0  0  2  0  0  3  0  0  0  0  0  0
  193.9670  176.4160  146.5730 N   0  0  0  0  0  0  0  0  0  0  0  0
  188.8740  173.9390  141.9840 C   0  0  0  0  0  3  0  0  0  0  0  0
  192.9200  174.3300  145.0930 C   0  0  0  0  0  0  0  0  0  0  0  0
  194.7590  175.3550  146.2660 C   0  0  0  0  0  3  0  0  0  0  0  0
  194.0560  170.8820  141.5760 C   0  0  0  0  0  2  0  0  0  0  0  0
  191.4400  170.1800  142.3950 C   0  0  0  0  0  2  0  0  0  0  0  0
  191.7420  171.5530  141.9880 N   0  0  0  0  0  0  0  0  0  0  0  0
  192.9130  171.8000  141.1430 C   0  0  0  0  0  2  0  0  0  0  0  0
  192.7420  169.4370  142.6920 C   0  0  0  0  0  2  0  0  0  0  0  0
  193.6150  169.5470  141.5960 O   0  0  0  0  0  0  0  0  0  0  0  0
  190.1940  176.9130  144.7250 C   0  0  0  0  0  2  0  0  0  0  0  0
  185.7370  178.9990  144.4760 C   0  0  0  0  0  3  0  0  0  0  0  0
  184.4480  179.1550  144.9930 C   0  0  0  0  0  3  0  0  0  0  0  0
  188.4150  176.4250  146.4180 C   0  0  0  0  0  3  0  0  0  0  0  0
  187.1220  176.5940  146.9210 C   0  0  0  0  0  3  0  0  0  0  0  0
  187.9320  177.9740  144.6140 C   0  0  0  0  0  3  0  0  0  0  0  0
  186.2290  177.4530  146.2740 C   0  0  0  0  0  0  0  0  0  0  0  0
  184.0800  178.4520  146.1440 C   0  0  0  0  0  3  0  0  0  0  0  0
  188.8230  177.1160  145.2690 C   0  0  0  0  0  0  0  0  0  0  0  0
  184.9690  177.6230  146.7570 N   0  0  0  0  0  0  0  0  0  0  0  0
  186.6380  178.1460  145.1130 C   0  0  0  0  0  0  0  0  0  0  0  0
  1  9  1  0  0  0  0
  2  3  1  0  0  0  0
  3  9  2  0  0  0  0
  3  5  1  0  0  0  0
  4 11  1  0  0  0  0
  5 13  1  0  0  0  0
  6  4  2  0  0  0  0
  7 14  1  0  0  0  0
  8 12  1  0  0  0  0
  8  2  2  0  0  0  0
  9 10  1  0  0  0  0
 10 21  1  6  0  0  0
 10  6  1  0  0  0  0
 12  1  2  0  0  0  0
 13  6  1  0  0  0  0
 13  7  2  0  0  0  0
 14 11  2  0  0  0  0
 15 20  1  0  0  0  0
 16 19  1  0  0  0  0
 17  2  1  0  0  0  0
 17 16  1  0  0  0  0
 18 15  1  0  0  0  0
 18 17  1  0  0  0  0
 20 19  1  0  0  0  0
 21 29  1  0  0  0  0
 22 23  2  0  0  0  0
 22 31  1  0  0  0  0
 23 28  1  0  0  0  0
 24 25  1  0  0  0  0
 26 31  2  0  0  0  0
 26 29  1  0  0  0  0
 27 30  1  0  0  0  0
 27 25  2  0  0  0  0
 28 30  2  0  0  0  0
 29 24  2  0  0  0  0
 31 27  1  0  0  0  0
M  END
>  <MODEL>
3

>  <REMARK>
 VINA RESULT:      -7.9      2.208      4.518
  Name = 
  3 active torsions:
  status: ('A' for Active; 'I' for Inactive)
    1  A    between atoms: C_2  and  N_12
    2  A    between atoms: C_20  and  C_26
    3  A    between atoms: C_23  and  C_26
                            x       y       z     vdW  Elec       q    Type
                         _______ _______ _______ _____ _____    ______ ____

>  <TORSDO>
F 3

$$$$
=
 OpenBabel11062420563D

 31 36  0  0  1  0  0  0  0  0999 V2000
  188.6300  175.4250  141.8440 C   0  0  0  0  0  3  0  0  0  0  0  0
  190.2650  173.4730  140.6660 C   0  0  0  0  0  0  0  0  0  0  0  0
  190.7140  174.1740  141.8130 C   0  0  0  0  0  0  0  0  0  0  0  0
  192.4780  176.8380  144.6570 C   0  0  0  0  0  3  0  0  0  0  0  0
  191.9780  173.7500  142.5100 C   0  0  0  0  0  2  0  0  0  0  0  0
  191.8390  175.8910  143.8400 C   0  0  0  0  0  0  0  0  0  0  0  0
  193.9890  174.8120  143.5230 C   0  0  0  0  0  3  0  0  0  0  0  0
  188.9980  173.7590  140.1410 C   0  0  0  0  0  3  0  0  0  0  0  0
  189.8990  175.1790  142.3880 C   0  0  0  0  0  0  0  0  0  0  0  0
  190.3390  175.9270  143.6350 C   0  0  2  0  0  3  0  0  0  0  0  0
  193.8190  176.7750  144.8680 N   0  0  0  0  0  0  0  0  0  0  0  0
  188.1830  174.7240  140.7260 C   0  0  0  0  0  3  0  0  0  0  0  0
  192.6140  174.8610  143.2810 C   0  0  0  0  0  0  0  0  0  0  0  0
  194.5810  175.7920  144.3190 C   0  0  0  0  0  3  0  0  0  0  0  0
  191.0470  170.1940  139.1220 C   0  0  0  0  0  2  0  0  0  0  0  0
  192.0940  172.8220  139.0430 C   0  0  0  0  0  2  0  0  0  0  0  0
  191.0670  172.4650  140.0240 N   0  0  0  0  0  0  0  0  0  0  0  0
  190.8810  171.0560  140.3740 C   0  0  0  0  0  2  0  0  0  0  0  0
  192.1280  171.7690  137.9350 C   0  0  0  0  0  2  0  0  0  0  0  0
  192.2710  170.4890  138.4980 O   0  0  0  0  0  0  0  0  0  0  0  0
  189.8170  177.3670  143.6320 C   0  0  0  0  0  2  0  0  0  0  0  0
  185.1790  178.5540  144.8010 C   0  0  0  0  0  3  0  0  0  0  0  0
  184.1680  178.6670  145.7590 C   0  0  0  0  0  3  0  0  0  0  0  0
  188.9600  177.1780  145.9770 C   0  0  0  0  0  3  0  0  0  0  0  0
  187.9360  177.2980  146.9220 C   0  0  0  0  0  3  0  0  0  0  0  0
  187.4680  177.9770  144.2390 C   0  0  0  0  0  3  0  0  0  0  0  0
  186.6770  177.7580  146.5300 C   0  0  0  0  0  0  0  0  0  0  0  0
  184.4380  178.3210  147.0860 C   0  0  0  0  0  3  0  0  0  0  0  0
  188.7290  177.5200  144.6380 C   0  0  0  0  0  0  0  0  0  0  0  0
  185.6750  177.8780  147.4420 N   0  0  0  0  0  0  0  0  0  0  0  0
  186.4420  178.0980  145.1790 C   0  0  0  0  0  0  0  0  0  0  0  0
  1  9  1  0  0  0  0
  2  3  1  0  0  0  0
  3  9  2  0  0  0  0
  3  5  1  0  0  0  0
  4 11  1  0  0  0  0
  5 13  1  0  0  0  0
  6  4  2  0  0  0  0
  7 14  1  0  0  0  0
  8  2  2  0  0  0  0
  8 12  1  0  0  0  0
  9 10  1  0  0  0  0
 10 21  1  6  0  0  0
 10  6  1  0  0  0  0
 12  1  2  0  0  0  0
 13  7  2  0  0  0  0
 13  6  1  0  0  0  0
 14 11  2  0  0  0  0
 15 18  1  0  0  0  0
 16 17  1  0  0  0  0
 17 18  1  0  0  0  0
 17  2  1  0  0  0  0
 19 20  1  0  0  0  0
 19 16  1  0  0  0  0
 20 15  1  0  0  0  0
 21 29  1  0  0  0  0
 22 31  2  0  0  0  0
 22 23  1  0  0  0  0
 23 28  2  0  0  0  0
 24 25  2  0  0  0  0
 26 29  2  0  0  0  0
 26 31  1  0  0  0  0
 27 25  1  0  0  0  0
 27 30  2  0  0  0  0
 28 30  1  0  0  0  0
 29 24  1  0  0  0  0
 31 27  1  0  0  0  0
M  END
>  <MODEL>
4

>  <REMARK>
 VINA RESULT:      -7.8      2.269      4.911
  Name = 
  3 active torsions:
  status: ('A' for Active; 'I' for Inactive)
    1  A    between atoms: C_2  and  N_12
    2  A    between atoms: C_20  and  C_26
    3  A    between atoms: C_23  and  C_26
                            x       y       z     vdW  Elec       q    Type
                         _______ _______ _______ _____ _____    ______ ____

>  <TORSDO>
F 3

$$$$
=
 OpenBabel11062420563D

 31 36  0  0  1  0  0  0  0  0999 V2000
  188.6600  174.9080  141.2420 C   0  0  0  0  0  3  0  0  0  0  0  0
  190.3030  172.6350  141.2070 C   0  0  0  0  0  0  0  0  0  0  0  0
  190.4680  173.6120  142.2200 C   0  0  0  0  0  0  0  0  0  0  0  0
  191.6140  176.8920  144.7150 C   0  0  0  0  0  3  0  0  0  0  0  0
  191.3910  173.3480  143.3790 C   0  0  0  0  0  2  0  0  0  0  0  0
  191.1360  175.7810  144.0000 C   0  0  0  0  0  0  0  0  0  0  0  0
  193.1170  174.5650  144.6970 C   0  0  0  0  0  3  0  0  0  0  0  0
  189.3070  172.8150  140.2380 C   0  0  0  0  0  3  0  0  0  0  0  0
  189.6570  174.7720  142.2190 C   0  0  0  0  0  0  0  0  0  0  0  0
  189.7900  175.8220  143.3090 C   0  0  2  0  0  3  0  0  0  0  0  0
  192.8060  176.8330  145.3660 N   0  0  0  0  0  0  0  0  0  0  0  0
  188.4880  173.9410  140.2560 C   0  0  0  0  0  3  0  0  0  0  0  0
  191.9020  174.6020  144.0100 C   0  0  0  0  0  0  0  0  0  0  0  0
  193.5610  175.7040  145.3670 C   0  0  0  0  0  3  0  0  0  0  0  0
  193.4260  170.6370  141.1330 C   0  0  0  0  0  2  0  0  0  0  0  0
  190.7060  170.2040  141.7830 C   0  0  0  0  0  2  0  0  0  0  0  0
  191.1220  171.4530  141.1430 N   0  0  0  0  0  0  0  0  0  0  0  0
  192.3840  171.4830  140.4010 C   0  0  0  0  0  2  0  0  0  0  0  0
  191.9290  169.4970  142.3660 C   0  0  0  0  0  2  0  0  0  0  0  0
  192.9140  169.3500  141.3730 O   0  0  0  0  0  0  0  0  0  0  0  0
  189.4890  177.2240  142.7690 C   0  0  0  0  0  2  0  0  0  0  0  0
  186.0880  177.6700  146.3060 C   0  0  0  0  0  3  0  0  0  0  0  0
  184.8340  178.1240  146.7230 C   0  0  0  0  0  3  0  0  0  0  0  0
  187.2960  178.3560  142.3520 C   0  0  0  0  0  3  0  0  0  0  0  0
  186.0440  178.8030  142.7860 C   0  0  0  0  0  3  0  0  0  0  0  0
  187.7510  177.4460  144.5540 C   0  0  0  0  0  3  0  0  0  0  0  0
  185.6410  178.5730  144.1040 C   0  0  0  0  0  0  0  0  0  0  0  0
  184.0100  178.7950  145.8150 C   0  0  0  0  0  3  0  0  0  0  0  0
  188.1470  177.6750  143.2320 C   0  0  0  0  0  0  0  0  0  0  0  0
  184.4250  179.0040  144.5350 N   0  0  0  0  0  0  0  0  0  0  0  0
  186.5010  177.8910  144.9930 C   0  0  0  0  0  0  0  0  0  0  0  0
  1  9  1  0  0  0  0
  2  3  1  0  0  0  0
  3  5  1  0  0  0  0
  4 11  1  0  0  0  0
  5 13  1  0  0  0  0
  6 13  1  0  0  0  0
  6  4  2  0  0  0  0
  7 14  1  0  0  0  0
  8 12  1  0  0  0  0
  8  2  2  0  0  0  0
  9  3  2  0  0  0  0
  9 10  1  0  0  0  0
 10 21  1  6  0  0  0
 10  6  1  0  0  0  0
 11 14  2  0  0  0  0
 12  1  2  0  0  0  0
 13  7  2  0  0  0  0
 15 20  1  0  0  0  0
 16 19  1  0  0  0  0
 17  2  1  0  0  0  0
 17 16  1  0  0  0  0
 18 15  1  0  0  0  0
 18 17  1  0  0  0  0
 20 19  1  0  0  0  0
 21 29  1  0  0  0  0
 22 23  1  0  0  0  0
 24 25  2  0  0  0  0
 24 29  1  0  0  0  0
 25 27  1  0  0  0  0
 26 31  1  0  0  0  0
 27 30  2  0  0  0  0
 27 31  1  0  0  0  0
 28 23  2  0  0  0  0
 29 26  2  0  0  0  0
 30 28  1  0  0  0  0
 31 22  2  0  0  0  0
M  END
>  <MODEL>
5

>  <REMARK>
 VINA RESULT:      -7.8      2.465      5.066
  Name = 
  3 active torsions:
  status: ('A' for Active; 'I' for Inactive)
    1  A    between atoms: C_2  and  N_12
    2  A    between atoms: C_20  and  C_26
    3  A    between atoms: C_23  and  C_26
                            x       y       z     vdW  Elec       q    Type
                         _______ _______ _______ _____ _____    ______ ____

>  <TORSDO>
F 3

$$$$
=
 OpenBabel11062420563D

 31 36  0  0  1  0  0  0  0  0999 V2000
  189.1080  174.5320  142.9250 C   0  0  0  0  0  3  0  0  0  0  0  0
  187.1960  176.4800  143.5760 C   0  0  0  0  0  0  0  0  0  0  0  0
  188.4330  176.4440  144.2660 C   0  0  0  0  0  0  0  0  0  0  0  0
  191.6950  175.8360  146.9650 C   0  0  0  0  0  3  0  0  0  0  0  0
  188.8000  177.5530  145.2140 C   0  0  0  0  0  2  0  0  0  0  0  0
  190.7200  176.1110  145.9920 C   0  0  0  0  0  0  0  0  0  0  0  0
  189.8180  177.8100  147.4710 C   0  0  0  0  0  3  0  0  0  0  0  0
  186.9500  175.5430  142.5630 C   0  0  0  0  0  3  0  0  0  0  0  0
  189.3840  175.4420  143.9560 C   0  0  0  0  0  0  0  0  0  0  0  0
  190.7310  175.3950  144.6580 C   0  0  2  0  0  3  0  0  0  0  0  0
  191.7020  176.5120  148.1460 N   0  0  0  0  0  0  0  0  0  0  0  0
  187.8990  174.5780  142.2360 C   0  0  0  0  0  3  0  0  0  0  0  0
  189.7810  177.1240  146.2560 C   0  0  0  0  0  0  0  0  0  0  0  0
  190.7890  177.4810  148.4160 C   0  0  0  0  0  3  0  0  0  0  0  0
  185.0010  178.5970  145.6840 C   0  0  0  0  0  2  0  0  0  0  0  0
  186.0000  178.6440  143.0370 C   0  0  0  0  0  2  0  0  0  0  0  0
  186.1820  177.4560  143.8740 N   0  0  0  0  0  0  0  0  0  0  0  0
  185.2900  177.2520  145.0170 C   0  0  0  0  0  2  0  0  0  0  0  0
  185.6340  179.8380  143.9180 C   0  0  0  0  0  2  0  0  0  0  0  0
  184.5310  179.5130  144.7270 O   0  0  0  0  0  0  0  0  0  0  0  0
  191.2300  173.9550  144.8080 C   0  0  0  0  0  2  0  0  0  0  0  0
  195.6880  172.0560  145.7030 C   0  0  0  0  0  3  0  0  0  0  0  0
  197.0530  171.9930  145.4100 C   0  0  0  0  0  3  0  0  0  0  0  0
  193.2530  174.6820  143.5250 C   0  0  0  0  0  3  0  0  0  0  0  0
  194.6210  174.6070  143.2470 C   0  0  0  0  0  3  0  0  0  0  0  0
  193.4990  173.0060  145.2620 C   0  0  0  0  0  3  0  0  0  0  0  0
  195.4330  173.7320  143.9740 C   0  0  0  0  0  0  0  0  0  0  0  0
  197.5770  172.8070  144.4020 C   0  0  0  0  0  3  0  0  0  0  0  0
  192.6920  173.8870  144.5330 C   0  0  0  0  0  0  0  0  0  0  0  0
  196.7640  173.6530  143.7100 N   0  0  0  0  0  0  0  0  0  0  0  0
  194.8670  172.9260  144.9870 C   0  0  0  0  0  0  0  0  0  0  0  0
  1  9  1  0  0  0  0
  2 17  1  0  0  0  0
  2  3  1  0  0  0  0
  3  5  1  0  0  0  0
  4 11  1  0  0  0  0
  5 13  1  0  0  0  0
  6 13  1  0  0  0  0
  6  4  2  0  0  0  0
  7 14  1  0  0  0  0
  8  2  2  0  0  0  0
  9  3  2  0  0  0  0
  9 10  1  0  0  0  0
 10 21  1  1  0  0  0
 10  6  1  0  0  0  0
 11 14  2  0  0  0  0
 12  8  1  0  0  0  0
 12  1  2  0  0  0  0
 13  7  2  0  0  0  0
 16 17  1  0  0  0  0
 16 19  1  0  0  0  0
 17 18  1  0  0  0  0
 18 15  1  0  0  0  0
 19 20  1  0  0  0  0
 20 15  1  0  0  0  0
 23 22  1  0  0  0  0
 24 29  1  0  0  0  0
 25 24  2  0  0  0  0
 25 27  1  0  0  0  0
 27 31  1  0  0  0  0
 28 23  2  0  0  0  0
 29 21  1  0  0  0  0
 29 26  2  0  0  0  0
 30 27  2  0  0  0  0
 30 28  1  0  0  0  0
 31 26  1  0  0  0  0
 31 22  2  0  0  0  0
M  END
>  <MODEL>
6

>  <REMARK>
 VINA RESULT:      -7.6      3.311      8.855
  Name = 
  3 active torsions:
  status: ('A' for Active; 'I' for Inactive)
    1  A    between atoms: C_2  and  N_12
    2  A    between atoms: C_20  and  C_26
    3  A    between atoms: C_23  and  C_26
                            x       y       z     vdW  Elec       q    Type
                         _______ _______ _______ _____ _____    ______ ____

>  <TORSDO>
F 3

$$$$
=
 OpenBabel11062420563D

 31 36  0  0  1  0  0  0  0  0999 V2000
  188.9110  175.1760  142.4880 C   0  0  0  0  0  3  0  0  0  0  0  0
  186.8830  176.5530  143.8530 C   0  0  0  0  0  0  0  0  0  0  0  0
  188.2170  176.6080  144.3260 C   0  0  0  0  0  0  0  0  0  0  0  0
  191.9760  176.0800  146.2980 C   0  0  0  0  0  3  0  0  0  0  0  0
  188.5830  177.5460  145.4440 C   0  0  0  0  0  2  0  0  0  0  0  0
  190.8080  176.3610  145.5710 C   0  0  0  0  0  0  0  0  0  0  0  0
  189.9510  177.5180  147.5240 C   0  0  0  0  0  3  0  0  0  0  0  0
  186.5970  175.8160  142.6950 C   0  0  0  0  0  3  0  0  0  0  0  0
  189.2340  175.8890  143.6520 C   0  0  0  0  0  0  0  0  0  0  0  0
  190.6790  175.9520  144.1180 C   0  0  2  0  0  3  0  0  0  0  0  0
  192.1000  176.4850  147.5890 N   0  0  0  0  0  0  0  0  0  0  0  0
  187.6030  175.1360  142.0140 C   0  0  0  0  0  3  0  0  0  0  0  0
  189.7930  177.1030  146.2000 C   0  0  0  0  0  0  0  0  0  0  0  0
  191.1180  177.1880  148.2120 C   0  0  0  0  0  3  0  0  0  0  0  0
  184.9700  177.9740  146.6930 C   0  0  0  0  0  2  0  0  0  0  0  0
  185.1350  178.3820  143.8980 C   0  0  0  0  0  2  0  0  0  0  0  0
  185.8060  177.2380  144.5180 N   0  0  0  0  0  0  0  0  0  0  0  0
  185.3470  176.7720  145.8280 C   0  0  0  0  0  2  0  0  0  0  0  0
  184.7810  179.4100  144.9720 C   0  0  0  0  0  2  0  0  0  0  0  0
  184.0560  178.7900  146.0050 O   0  0  0  0  0  0  0  0  0  0  0  0
  191.4080  174.6320  143.8500 C   0  0  0  0  0  2  0  0  0  0  0  0
  195.9690  176.1040  142.7060 C   0  0  0  0  0  3  0  0  0  0  0  0
  196.9810  176.2660  141.7560 C   0  0  0  0  0  3  0  0  0  0  0  0
  192.3020  174.4570  141.5190 C   0  0  0  0  0  3  0  0  0  0  0  0
  193.3260  174.6280  140.5820 C   0  0  0  0  0  3  0  0  0  0  0  0
  193.7180  175.3870  143.2560 C   0  0  0  0  0  3  0  0  0  0  0  0
  194.5480  175.1780  140.9780 C   0  0  0  0  0  0  0  0  0  0  0  0
  196.7500  175.8780  140.4330 C   0  0  0  0  0  3  0  0  0  0  0  0
  192.4940  174.8390  142.8520 C   0  0  0  0  0  0  0  0  0  0  0  0
  195.5490  175.3470  140.0730 N   0  0  0  0  0  0  0  0  0  0  0  0
  194.7440  175.5580  142.3230 C   0  0  0  0  0  0  0  0  0  0  0  0
  1  9  1  0  0  0  0
  2  3  1  0  0  0  0
  2 17  1  0  0  0  0
  3  5  1  0  0  0  0
  4 11  1  0  0  0  0
  5 13  1  0  0  0  0
  6 13  1  0  0  0  0
  6  4  2  0  0  0  0
  7 14  1  0  0  0  0
  8  2  2  0  0  0  0
  9 10  1  0  0  0  0
  9  3  2  0  0  0  0
 10 21  1  1  0  0  0
 10  6  1  0  0  0  0
 11 14  2  0  0  0  0
 12  1  2  0  0  0  0
 12  8  1  0  0  0  0
 13  7  2  0  0  0  0
 16 17  1  0  0  0  0
 16 19  1  0  0  0  0
 17 18  1  0  0  0  0
 18 15  1  0  0  0  0
 19 20  1  0  0  0  0
 20 15  1  0  0  0  0
 23 22  2  0  0  0  0
 24 29  1  0  0  0  0
 25 27  1  0  0  0  0
 25 24  2  0  0  0  0
 27 31  2  0  0  0  0
 28 23  1  0  0  0  0
 29 26  2  0  0  0  0
 29 21  1  0  0  0  0
 30 28  2  0  0  0  0
 30 27  1  0  0  0  0
 31 22  1  0  0  0  0
 31 26  1  0  0  0  0
M  END
>  <MODEL>
7

>  <REMARK>
 VINA RESULT:      -7.6      3.309      8.746
  Name = 
  3 active torsions:
  status: ('A' for Active; 'I' for Inactive)
    1  A    between atoms: C_2  and  N_12
    2  A    between atoms: C_20  and  C_26
    3  A    between atoms: C_23  and  C_26
                            x       y       z     vdW  Elec       q    Type
                         _______ _______ _______ _____ _____    ______ ____

>  <TORSDO>
F 3

$$$$
=
 OpenBabel11062420563D

 31 36  0  0  1  0  0  0  0  0999 V2000
  190.6410  176.2810  145.7910 C   0  0  0  0  0  3  0  0  0  0  0  0
  187.9710  177.0650  145.4390 C   0  0  0  0  0  0  0  0  0  0  0  0
  188.5660  176.1550  144.5310 C   0  0  0  0  0  0  0  0  0  0  0  0
  190.5290  174.1650  141.2930 C   0  0  0  0  0  3  0  0  0  0  0  0
  187.7240  175.4670  143.4910 C   0  0  0  0  0  2  0  0  0  0  0  0
  189.8720  174.6840  142.4210 C   0  0  0  0  0  0  0  0  0  0  0  0
  187.8620  174.8820  141.0760 C   0  0  0  0  0  3  0  0  0  0  0  0
  188.7260  177.5540  146.5140 C   0  0  0  0  0  3  0  0  0  0  0  0
  189.9220  175.7830  144.6940 C   0  0  0  0  0  0  0  0  0  0  0  0
  190.5810  174.7870  143.7550 C   0  0  2  0  0  3  0  0  0  0  0  0
  189.8730  174.0400  140.1090 N   0  0  0  0  0  0  0  0  0  0  0  0
  190.0510  177.1630  146.6920 C   0  0  0  0  0  3  0  0  0  0  0  0
  188.5150  175.0320  142.3010 C   0  0  0  0  0  0  0  0  0  0  0  0
  188.5660  174.3890  139.9780 C   0  0  0  0  0  3  0  0  0  0  0  0
  184.5250  177.9140  146.5140 C   0  0  0  0  0  2  0  0  0  0  0  0
  186.2370  178.5540  144.3530 C   0  0  0  0  0  2  0  0  0  0  0  0
  186.6060  177.5010  145.3010 N   0  0  0  0  0  0  0  0  0  0  0  0
  185.5550  176.8650  146.0970 C   0  0  0  0  0  2  0  0  0  0  0  0
  185.1330  179.4210  144.9580 C   0  0  0  0  0  2  0  0  0  0  0  0
  184.0660  178.6090  145.3810 O   0  0  0  0  0  0  0  0  0  0  0  0
  192.0680  175.0990  143.5670 C   0  0  0  0  0  2  0  0  0  0  0  0
  196.2250  173.4320  145.6230 C   0  0  0  0  0  3  0  0  0  0  0  0
  196.9750  172.3710  146.1370 C   0  0  0  0  0  3  0  0  0  0  0  0
  192.3850  172.6780  144.1210 C   0  0  0  0  0  3  0  0  0  0  0  0
  193.1510  171.6280  144.6380 C   0  0  0  0  0  3  0  0  0  0  0  0
  194.1780  174.2400  144.6010 C   0  0  0  0  0  3  0  0  0  0  0  0
  194.4310  171.8800  145.1380 C   0  0  0  0  0  0  0  0  0  0  0  0
  196.4310  171.0830  146.1380 C   0  0  0  0  0  3  0  0  0  0  0  0
  192.8980  173.9810  144.0970 C   0  0  0  0  0  0  0  0  0  0  0  0
  195.1820  170.8650  145.6430 N   0  0  0  0  0  0  0  0  0  0  0  0
  194.9460  173.1940  145.1190 C   0  0  0  0  0  0  0  0  0  0  0  0
  1 12  1  0  0  0  0
  2  8  1  0  0  0  0
  3  9  1  0  0  0  0
  3  2  2  0  0  0  0
  4  6  1  0  0  0  0
  5  3  1  0  0  0  0
  6 10  1  0  0  0  0
  7 13  1  0  0  0  0
  8 12  2  0  0  0  0
  9  1  2  0  0  0  0
 10 21  1  6  0  0  0
 10  9  1  0  0  0  0
 11  4  2  0  0  0  0
 13  6  2  0  0  0  0
 13  5  1  0  0  0  0
 14 11  1  0  0  0  0
 14  7  2  0  0  0  0
 16 19  1  0  0  0  0
 16 17  1  0  0  0  0
 17  2  1  0  0  0  0
 17 18  1  0  0  0  0
 18 15  1  0  0  0  0
 19 20  1  0  0  0  0
 20 15  1  0  0  0  0
 21 29  1  0  0  0  0
 22 23  1  0  0  0  0
 23 28  2  0  0  0  0
 24 25  2  0  0  0  0
 25 27  1  0  0  0  0
 26 31  1  0  0  0  0
 27 30  2  0  0  0  0
 29 24  1  0  0  0  0
 29 26  2  0  0  0  0
 30 28  1  0  0  0  0
 31 27  1  0  0  0  0
 31 22  2  0  0  0  0
M  END
>  <MODEL>
8

>  <REMARK>
 VINA RESULT:      -7.4      3.365      8.241
  Name = 
  3 active torsions:
  status: ('A' for Active; 'I' for Inactive)
    1  A    between atoms: C_2  and  N_12
    2  A    between atoms: C_20  and  C_26
    3  A    between atoms: C_23  and  C_26
                            x       y       z     vdW  Elec       q    Type
                         _______ _______ _______ _____ _____    ______ ____

>  <TORSDO>
F 3

$$$$
=
 OpenBabel11062420563D

 31 36  0  0  1  0  0  0  0  0999 V2000
  189.9220  175.0640  141.9870 C   0  0  0  0  0  3  0  0  0  0  0  0
  191.7170  173.1730  143.0240 C   0  0  0  0  0  0  0  0  0  0  0  0
  191.0660  174.0820  143.8940 C   0  0  0  0  0  0  0  0  0  0  0  0
  189.8660  177.3210  146.4160 C   0  0  0  0  0  3  0  0  0  0  0  0
  191.1880  173.9190  145.3850 C   0  0  0  0  0  2  0  0  0  0  0  0
  190.1260  176.1970  145.6170 C   0  0  0  0  0  0  0  0  0  0  0  0
  191.5510  175.3490  147.3890 C   0  0  0  0  0  3  0  0  0  0  0  0
  191.4440  173.2260  141.6500 C   0  0  0  0  0  3  0  0  0  0  0  0
  190.1820  175.0530  143.3650 C   0  0  0  0  0  0  0  0  0  0  0  0
  189.4460  176.0220  144.2760 C   0  0  2  0  0  3  0  0  0  0  0  0
  190.4510  177.4510  147.6370 N   0  0  0  0  0  0  0  0  0  0  0  0
  190.5510  174.1600  141.1340 C   0  0  0  0  0  3  0  0  0  0  0  0
  190.9730  175.1970  146.1270 C   0  0  0  0  0  0  0  0  0  0  0  0
  191.2840  176.4990  148.1320 C   0  0  0  0  0  3  0  0  0  0  0  0
  193.2590  169.8230  143.4060 C   0  0  0  0  0  2  0  0  0  0  0  0
  194.0570  172.5180  143.7330 C   0  0  0  0  0  2  0  0  0  0  0  0
  192.6490  172.1870  143.5050 N   0  0  0  0  0  0  0  0  0  0  0  0
  192.1820  170.8320  143.8050 C   0  0  0  0  0  2  0  0  0  0  0  0
  194.9300  171.3270  143.3410 C   0  0  0  0  0  2  0  0  0  0  0  0
  194.4830  170.1700  144.0030 O   0  0  0  0  0  0  0  0  0  0  0  0
  189.2260  177.3730  143.5890 C   0  0  0  0  0  2  0  0  0  0  0  0
  185.4200  178.0240  140.5270 C   0  0  0  0  0  3  0  0  0  0  0  0
  184.0500  178.2100  140.3290 C   0  0  0  0  0  3  0  0  0  0  0  0
  186.8880  177.6590  144.4360 C   0  0  0  0  0  3  0  0  0  0  0  0
  185.5190  177.8470  144.2190 C   0  0  0  0  0  3  0  0  0  0  0  0
  187.2880  177.7150  142.0430 C   0  0  0  0  0  3  0  0  0  0  0  0
  185.0300  177.9700  142.9160 C   0  0  0  0  0  0  0  0  0  0  0  0
  183.1990  178.2730  141.4360 C   0  0  0  0  0  3  0  0  0  0  0  0
  187.7730  177.5970  143.3520 C   0  0  0  0  0  0  0  0  0  0  0  0
  183.7010  178.1530  142.6960 N   0  0  0  0  0  0  0  0  0  0  0  0
  185.9210  177.9020  141.8220 C   0  0  0  0  0  0  0  0  0  0  0  0
  1  9  1  0  0  0  0
  2 17  1  0  0  0  0
  2  3  1  0  0  0  0
  3  5  1  0  0  0  0
  4 11  1  0  0  0  0
  5 13  1  0  0  0  0
  6 13  1  0  0  0  0
  6  4  2  0  0  0  0
  7 14  1  0  0  0  0
  8  2  2  0  0  0  0
  9  3  2  0  0  0  0
  9 10  1  0  0  0  0
 10 21  1  6  0  0  0
 10  6  1  0  0  0  0
 11 14  2  0  0  0  0
 12  8  1  0  0  0  0
 12  1  2  0  0  0  0
 13  7  2  0  0  0  0
 15 18  1  0  0  0  0
 15 20  1  0  0  0  0
 17 16  1  0  0  0  0
 17 18  1  0  0  0  0
 19 16  1  0  0  0  0
 19 20  1  0  0  0  0
 22 31  1  0  0  0  0
 23 22  2  0  0  0  0
 23 28  1  0  0  0  0
 25 24  1  0  0  0  0
 26 29  1  0  0  0  0
 27 25  2  0  0  0  0
 28 30  2  0  0  0  0
 29 21  1  0  0  0  0
 29 24  2  0  0  0  0
 30 27  1  0  0  0  0
 31 26  2  0  0  0  0
 31 27  1  0  0  0  0
M  END
>  <MODEL>
9

>  <REMARK>
 VINA RESULT:      -7.3      2.764      4.626
  Name = 
  3 active torsions:
  status: ('A' for Active; 'I' for Inactive)
    1  A    between atoms: C_2  and  N_12
    2  A    between atoms: C_20  and  C_26
    3  A    between atoms: C_23  and  C_26
                            x       y       z     vdW  Elec       q    Type
                         _______ _______ _______ _____ _____    ______ ____

>  <TORSDO>
F 3

$$$$
