=
 OpenBabel11062419253D

 38 44  0  0  1  0  0  0  0  0999 V2000
  194.2530  176.1030  144.6860 C   0  0  1  0  0  3  0  0  0  0  0  0
  195.0430  175.6350  142.3920 C   0  0  0  0  0  0  0  0  0  0  0  0
  192.6900  175.5040  142.7650 O   0  0  0  0  0  0  0  0  0  0  0  0
  191.5610  176.1360  144.9060 C   0  0  2  0  0  0  0  0  0  0  0  0
  187.9730  176.2990  145.3270 C   0  0  0  0  0  3  0  0  0  0  0  0
  191.8800  175.1370  147.1690 C   0  0  0  0  0  1  0  0  0  0  0  0
  194.4040  175.2440  145.7860 O   0  0  0  0  0  0  0  0  0  0  0  0
  190.0390  176.6920  146.6880 C   0  0  0  0  0  2  0  0  0  0  0  0
  195.2760  175.6780  143.7060 C   0  0  0  0  0  0  0  0  0  0  0  0
  196.3390  174.9550  144.4050 C   0  0  0  0  0  2  0  0  0  0  0  0
  189.3030  176.2720  145.4520 C   0  0  0  0  0  0  0  0  0  0  0  0
  190.1890  175.8350  144.3400 C   0  0  2  0  0  3  0  0  0  0  0  0
  192.1150  177.3710  144.2100 C   0  0  0  0  0  2  0  0  0  0  0  0
  192.8380  176.0470  144.0650 C   0  0  1  0  0  0  0  0  0  0  0  0
  195.7800  174.9170  145.8190 C   0  0  0  0  0  2  0  0  0  0  0  0
  193.6810  176.0670  141.9280 C   0  0  0  0  0  2  0  0  0  0  0  0
  191.5090  176.3970  146.4060 C   0  0  2  0  0  3  0  0  0  0  0  0
  196.8170  175.8410  140.8250 O   0  0  0  0  0  0  0  0  0  0  0  0
  196.0250  175.0860  141.4470 C   0  0  0  0  0  3  0  0  0  0  0  0
  190.0490  174.4330  144.1490 O   0  0  0  0  0  0  0  0  0  0  0  0
  188.8660  174.3940  139.9750 N   0  0  0  0  0  2  0  0  0  0  0  0
  189.5590  173.8830  142.9630 C   0  0  0  0  0  0  0  0  0  0  0  0
  187.6800  176.1540  140.9660 N   0  0  0  0  0  2  0  0  0  0  0  0
  188.3610  175.0720  141.1330 C   0  0  0  0  0  0  0  0  0  0  0  0
  189.7970  172.3830  141.0700 C   0  0  0  0  0  2  0  0  0  0  0  0
  189.9780  172.7440  138.6780 N   0  0  0  0  0  1  0  0  0  0  0  0
  188.2400  174.3660  142.4480 C   0  0  0  0  0  2  0  0  0  0  0  0
  189.9490  173.4140  139.9650 C   0  0  1  0  0  3  0  0  0  0  0  0
  190.2320  172.9640  142.3330 N   0  0  0  0  0  0  0  0  0  0  0  0
  186.8860  176.8320  146.6540 S   0  0  0  0  0  0  0  0  0  0  0  0
  185.2560  178.7340  142.5370 O   0  0  0  0  0  0  0  0  0  0  0  0
  184.7730  178.3640  145.8270 C   0  0  0  0  0  0  0  0  0  0  0  0
  186.0010  177.0670  144.0860 C   0  0  0  0  0  2  0  0  0  0  0  0
  184.3070  178.5680  146.9370 O   0  0  0  0  0  0  0  0  0  0  0  0
  184.1780  178.7420  143.4420 C   0  0  2  0  0  3  0  0  0  0  0  0
  184.6180  179.3990  144.7550 C   0  0  0  0  0  2  0  0  0  0  0  0
  184.9160  177.4830  143.0870 C   0  0  1  0  0  3  0  0  0  0  0  0
  185.4820  177.0720  145.5230 C   0  0  1  0  0  3  0  0  0  0  0  0
  1  9  1  6  0  0  0
  1  7  1  0  0  0  0
  2  9  2  0  0  0  0
  3 14  1  0  0  0  0
  4 13  1  6  0  0  0
  4 17  1  0  0  0  0
  5 11  2  0  0  0  0
  5 30  1  0  0  0  0
  7 15  1  0  0  0  0
  9 10  1  0  0  0  0
 10 15  1  0  0  0  0
 11  8  1  0  0  0  0
 12 20  1  1  0  0  0
 12  4  1  0  0  0  0
 12 11  1  0  0  0  0
 14 13  1  6  0  0  0
 14  1  1  0  0  0  0
 14  4  1  0  0  0  0
 16  2  1  0  0  0  0
 16  3  1  0  0  0  0
 17  8  1  0  0  0  0
 17  6  1  1  0  0  0
 18 19  2  0  0  0  0
 19  2  1  0  0  0  0
 21 24  1  0  0  0  0
 22 20  1  0  0  0  0
 23 24  2  0  0  0  0
 24 27  1  0  0  0  0
 25 29  1  0  0  0  0
 27 22  1  0  0  0  0
 28 26  1  6  0  0  0
 28 21  1  0  0  0  0
 28 25  1  0  0  0  0
 29 22  2  0  0  0  0
 31 37  1  0  0  0  0
 31 35  1  0  0  0  0
 32 34  2  0  0  0  0
 33 38  1  0  0  0  0
 35 36  1  1  0  0  0
 36 32  1  0  0  0  0
 37 35  1  0  0  0  0
 37 33  1  1  0  0  0
 38 32  1  0  0  0  0
 38 30  1  1  0  0  0
M  END
>  <MODEL>
1

>  <REMARK>
 VINA RESULT:      -8.9      0.000      0.000
  Name = 
  5 active torsions:
  status: ('A' for Active; 'I' for Inactive)
    1  A    between atoms: C_4  and  C_38
    2  A    between atoms: C_7  and  O_11
    3  A    between atoms: C_10  and  S_13
    4  A    between atoms: O_11  and  C_30
    5  A    between atoms: S_13  and  C_24
                            x       y       z     vdW  Elec       q    Type
                         _______ _______ _______ _____ _____    ______ ____

>  <TORSDO>
F 5

$$$$
=
 OpenBabel11062419253D

 38 44  0  0  1  0  0  0  0  0999 V2000
  190.4610  171.1510  142.1630 C   0  0  1  0  0  3  0  0  0  0  0  0
  192.5280  170.5150  143.3580 C   0  0  0  0  0  0  0  0  0  0  0  0
  191.8750  172.8060  143.4870 O   0  0  0  0  0  0  0  0  0  0  0  0
  189.7280  173.7170  142.5810 C   0  0  2  0  0  0  0  0  0  0  0  0
  188.5810  177.1030  143.1240 C   0  0  0  0  0  3  0  0  0  0  0  0
  188.9330  173.7220  140.2180 C   0  0  0  0  0  1  0  0  0  0  0  0
  190.3330  171.2660  140.7700 O   0  0  0  0  0  0  0  0  0  0  0  0
  187.8000  175.0230  141.9680 C   0  0  0  0  0  2  0  0  0  0  0  0
  191.6420  170.2890  142.3840 C   0  0  0  0  0  0  0  0  0  0  0  0
  191.8860  169.4900  141.1820 C   0  0  0  0  0  2  0  0  0  0  0  0
  188.7900  175.8410  142.7410 C   0  0  0  0  0  0  0  0  0  0  0  0
  190.0420  175.1130  143.0780 C   0  0  2  0  0  3  0  0  0  0  0  0
  189.4630  172.8210  143.7830 C   0  0  0  0  0  2  0  0  0  0  0  0
  190.6330  172.5150  142.8700 C   0  0  1  0  0  0  0  0  0  0  0  0
  190.8230  170.0470  140.2480 C   0  0  0  0  0  2  0  0  0  0  0  0
  192.2640  171.6870  144.2590 C   0  0  0  0  0  2  0  0  0  0  0  0
  188.5040  173.7020  141.6740 C   0  0  2  0  0  3  0  0  0  0  0  0
  194.0680  169.1660  144.5640 O   0  0  0  0  0  0  0  0  0  0  0  0
  193.7630  169.7290  143.4810 C   0  0  0  0  0  3  0  0  0  0  0  0
  191.1200  175.6550  142.3260 O   0  0  0  0  0  0  0  0  0  0  0  0
  194.2170  175.7030  145.3640 N   0  0  0  0  0  2  0  0  0  0  0  0
  192.3310  176.0260  142.9120 C   0  0  0  0  0  0  0  0  0  0  0  0
  192.2260  176.2620  146.4640 N   0  0  0  0  0  2  0  0  0  0  0  0
  192.8540  176.1480  145.3430 C   0  0  0  0  0  0  0  0  0  0  0  0
  194.7570  175.9780  142.9670 C   0  0  0  0  0  2  0  0  0  0  0  0
  196.3650  175.0920  144.5550 N   0  0  0  0  0  1  0  0  0  0  0  0
  192.2940  176.8620  144.1520 C   0  0  0  0  0  2  0  0  0  0  0  0
  194.9520  175.1520  144.2290 C   0  0  1  0  0  3  0  0  0  0  0  0
  193.4620  175.6600  142.3800 N   0  0  0  0  0  0  0  0  0  0  0  0
  187.0720  177.9960  142.7360 S   0  0  0  0  0  0  0  0  0  0  0  0
  184.5780  176.7920  146.6800 O   0  0  0  0  0  0  0  0  0  0  0  0
  185.5330  179.2510  144.6210 C   0  0  0  0  0  0  0  0  0  0  0  0
  186.4450  177.0020  145.1950 C   0  0  0  0  0  2  0  0  0  0  0  0
  185.5480  180.3540  144.1000 O   0  0  0  0  0  0  0  0  0  0  0  0
  184.7830  178.1840  146.7380 C   0  0  2  0  0  3  0  0  0  0  0  0
  184.3390  178.8210  145.4170 C   0  0  0  0  0  2  0  0  0  0  0  0
  185.9210  177.2110  146.6200 C   0  0  1  0  0  3  0  0  0  0  0  0
  186.7150  178.3290  144.4880 C   0  0  1  0  0  3  0  0  0  0  0  0
  1  7  1  6  0  0  0
  1  9  1  0  0  0  0
  1 14  1  0  0  0  0
  2 19  1  0  0  0  0
  2 16  1  0  0  0  0
  3 16  1  0  0  0  0
  4 14  1  0  0  0  0
  4 12  1  0  0  0  0
  4 13  1  1  0  0  0
  8 11  1  0  0  0  0
  9  2  2  0  0  0  0
 10  9  1  0  0  0  0
 11 12  1  0  0  0  0
 11  5  2  0  0  0  0
 12 20  1  6  0  0  0
 14  3  1  0  0  0  0
 14 13  1  1  0  0  0
 15  7  1  0  0  0  0
 15 10  1  0  0  0  0
 17  6  1  6  0  0  0
 17  8  1  0  0  0  0
 17  4  1  0  0  0  0
 19 18  2  0  0  0  0
 20 22  1  0  0  0  0
 22 27  1  0  0  0  0
 24 21  1  0  0  0  0
 24 23  2  0  0  0  0
 25 28  1  0  0  0  0
 27 24  1  0  0  0  0
 28 26  1  1  0  0  0
 28 21  1  0  0  0  0
 29 22  2  0  0  0  0
 29 25  1  0  0  0  0
 30  5  1  0  0  0  0
 31 35  1  0  0  0  0
 32 36  1  0  0  0  0
 34 32  2  0  0  0  0
 35 36  1  6  0  0  0
 37 33  1  6  0  0  0
 37 31  1  0  0  0  0
 37 35  1  0  0  0  0
 38 30  1  6  0  0  0
 38 32  1  0  0  0  0
 38 33  1  0  0  0  0
M  END
>  <MODEL>
2

>  <REMARK>
 VINA RESULT:      -8.2      3.012      5.449
  Name = 
  5 active torsions:
  status: ('A' for Active; 'I' for Inactive)
    1  A    between atoms: C_4  and  C_38
    2  A    between atoms: C_7  and  O_11
    3  A    between atoms: C_10  and  S_13
    4  A    between atoms: O_11  and  C_30
    5  A    between atoms: S_13  and  C_24
                            x       y       z     vdW  Elec       q    Type
                         _______ _______ _______ _____ _____    ______ ____

>  <TORSDO>
F 5

$$$$
=
 OpenBabel11062419253D

 38 44  0  0  1  0  0  0  0  0999 V2000
  187.4150  177.3800  147.5640 C   0  0  1  0  0  3  0  0  0  0  0  0
  185.4700  177.6620  146.0650 C   0  0  0  0  0  0  0  0  0  0  0  0
  187.4190  176.6610  145.1190 O   0  0  0  0  0  0  0  0  0  0  0  0
  189.4610  176.0360  146.4230 C   0  0  2  0  0  0  0  0  0  0  0  0
  192.2420  174.1750  145.0520 C   0  0  0  0  0  3  0  0  0  0  0  0
  190.9750  177.5310  147.7230 C   0  0  0  0  0  1  0  0  0  0  0  0
  188.2500  178.4160  148.0110 O   0  0  0  0  0  0  0  0  0  0  0  0
  191.5660  175.1960  147.2370 C   0  0  0  0  0  2  0  0  0  0  0  0
  186.1550  178.0350  147.1490 C   0  0  0  0  0  0  0  0  0  0  0  0
  186.0450  179.3320  147.8190 C   0  0  0  0  0  2  0  0  0  0  0  0
  191.3870  174.8990  145.7780 C   0  0  0  0  0  0  0  0  0  0  0  0
  190.1410  175.4660  145.1950 C   0  0  2  0  0  3  0  0  0  0  0  0
  188.2930  175.1340  146.7950 C   0  0  0  0  0  2  0  0  0  0  0  0
  188.0260  176.5710  146.3960 C   0  0  1  0  0  0  0  0  0  0  0  0
  187.3790  179.3920  148.5470 C   0  0  0  0  0  2  0  0  0  0  0  0
  186.0220  176.5090  145.2760 C   0  0  0  0  0  2  0  0  0  0  0  0
  190.4150  176.1250  147.6080 C   0  0  2  0  0  3  0  0  0  0  0  0
  184.1350  178.6590  144.3720 O   0  0  0  0  0  0  0  0  0  0  0  0
  184.2950  178.4070  145.5940 C   0  0  0  0  0  3  0  0  0  0  0  0
  190.4770  176.5210  144.3020 O   0  0  0  0  0  0  0  0  0  0  0  0
  187.2500  176.0930  141.4340 N   0  0  0  0  0  2  0  0  0  0  0  0
  189.7940  176.7330  143.1030 C   0  0  0  0  0  0  0  0  0  0  0  0
  187.9400  173.9170  141.9590 N   0  0  0  0  0  2  0  0  0  0  0  0
  188.2120  175.1780  141.9740 C   0  0  0  0  0  0  0  0  0  0  0  0
  188.5590  178.1830  141.5990 C   0  0  0  0  0  2  0  0  0  0  0  0
  186.2820  178.1560  140.7640 N   0  0  0  0  0  1  0  0  0  0  0  0
  189.6420  175.5810  142.1600 C   0  0  0  0  0  2  0  0  0  0  0  0
  187.1930  177.5270  141.7030 C   0  0  1  0  0  3  0  0  0  0  0  0
  189.3170  177.9090  142.8130 N   0  0  0  0  0  0  0  0  0  0  0  0
  193.7460  173.4740  145.7390 S   0  0  0  0  0  0  0  0  0  0  0  0
  195.9790  175.5930  142.0310 O   0  0  0  0  0  0  0  0  0  0  0  0
  196.2250  174.4950  145.1830 C   0  0  0  0  0  0  0  0  0  0  0  0
  194.3310  175.2190  143.7290 C   0  0  0  0  0  2  0  0  0  0  0  0
  196.7530  174.1540  146.2290 O   0  0  0  0  0  0  0  0  0  0  0  0
  196.7420  175.8750  143.1810 C   0  0  2  0  0  3  0  0  0  0  0  0
  197.0400  174.5720  143.9290 C   0  0  0  0  0  2  0  0  0  0  0  0
  195.2860  176.2280  143.0800 C   0  0  1  0  0  3  0  0  0  0  0  0
  194.7650  174.8600  145.1500 C   0  0  1  0  0  3  0  0  0  0  0  0
  1  9  1  6  0  0  0
  1  7  1  0  0  0  0
  2  9  2  0  0  0  0
  3 16  1  0  0  0  0
  3 14  1  0  0  0  0
  4 13  1  1  0  0  0
  4 17  1  0  0  0  0
  5 30  1  0  0  0  0
  5 11  2  0  0  0  0
  7 15  1  0  0  0  0
  8 17  1  0  0  0  0
  9 10  1  0  0  0  0
 10 15  1  0  0  0  0
 11  8  1  0  0  0  0
 12 20  1  6  0  0  0
 12 11  1  0  0  0  0
 12  4  1  0  0  0  0
 14  4  1  0  0  0  0
 14 13  1  1  0  0  0
 14  1  1  0  0  0  0
 16  2  1  0  0  0  0
 17  6  1  6  0  0  0
 18 19  2  0  0  0  0
 19  2  1  0  0  0  0
 21 28  1  0  0  0  0
 21 24  1  0  0  0  0
 22 20  1  0  0  0  0
 23 24  2  0  0  0  0
 24 27  1  0  0  0  0
 25 28  1  0  0  0  0
 25 29  1  0  0  0  0
 27 22  1  0  0  0  0
 28 26  1  6  0  0  0
 29 22  2  0  0  0  0
 31 37  1  0  0  0  0
 31 35  1  0  0  0  0
 32 34  2  0  0  0  0
 33 38  1  0  0  0  0
 35 36  1  1  0  0  0
 36 32  1  0  0  0  0
 37 35  1  0  0  0  0
 37 33  1  1  0  0  0
 38 32  1  0  0  0  0
 38 30  1  6  0  0  0
M  END
>  <MODEL>
3

>  <REMARK>
 VINA RESULT:      -7.9      2.345      7.951
  Name = 
  5 active torsions:
  status: ('A' for Active; 'I' for Inactive)
    1  A    between atoms: C_4  and  C_38
    2  A    between atoms: C_7  and  O_11
    3  A    between atoms: C_10  and  S_13
    4  A    between atoms: O_11  and  C_30
    5  A    between atoms: S_13  and  C_24
                            x       y       z     vdW  Elec       q    Type
                         _______ _______ _______ _____ _____    ______ ____

>  <TORSDO>
F 5

$$$$
=
 OpenBabel11062419253D

 38 44  0  0  1  0  0  0  0  0999 V2000
  195.0460  176.1230  144.1560 C   0  0  1  0  0  3  0  0  0  0  0  0
  195.8220  175.9430  141.8170 C   0  0  0  0  0  0  0  0  0  0  0  0
  193.4720  175.7610  142.1850 O   0  0  0  0  0  0  0  0  0  0  0  0
  192.3560  176.1240  144.3950 C   0  0  2  0  0  0  0  0  0  0  0  0
  188.7700  176.2260  144.8560 C   0  0  0  0  0  3  0  0  0  0  0  0
  192.6910  174.8550  146.5160 C   0  0  0  0  0  1  0  0  0  0  0  0
  195.2060  175.1370  145.1410 O   0  0  0  0  0  0  0  0  0  0  0  0
  190.8450  176.4540  146.2410 C   0  0  0  0  0  2  0  0  0  0  0  0
  196.0640  175.8250  143.1250 C   0  0  0  0  0  0  0  0  0  0  0  0
  197.1320  175.0230  143.7230 C   0  0  0  0  0  2  0  0  0  0  0  0
  190.1010  176.1860  144.9670 C   0  0  0  0  0  0  0  0  0  0  0  0
  190.9800  175.8910  143.8050 C   0  0  2  0  0  3  0  0  0  0  0  0
  192.9030  177.4360  143.8520 C   0  0  0  0  0  2  0  0  0  0  0  0
  193.6270  176.1420  143.5410 C   0  0  1  0  0  0  0  0  0  0  0  0
  196.5820  174.8120  145.1250 C   0  0  0  0  0  2  0  0  0  0  0  0
  194.4570  176.4250  141.4180 C   0  0  0  0  0  2  0  0  0  0  0  0
  192.3130  176.1980  145.9160 C   0  0  2  0  0  3  0  0  0  0  0  0
  196.4260  174.9620  139.7390 O   0  0  0  0  0  0  0  0  0  0  0  0
  196.7990  175.5160  140.8050 C   0  0  0  0  0  3  0  0  0  0  0  0
  190.8410  174.5220  143.4440 O   0  0  0  0  0  0  0  0  0  0  0  0
  189.6990  171.7640  140.2960 N   0  0  0  0  0  2  0  0  0  0  0  0
  190.5580  174.1170  142.1390 C   0  0  0  0  0  0  0  0  0  0  0  0
  191.4950  170.7590  141.4140 N   0  0  0  0  0  2  0  0  0  0  0  0
  190.8280  171.8370  141.1760 C   0  0  0  0  0  0  0  0  0  0  0  0
  189.1450  174.1700  140.1670 C   0  0  0  0  0  2  0  0  0  0  0  0
  187.8280  172.4830  139.0230 N   0  0  0  0  0  1  0  0  0  0  0  0
  191.4870  173.1470  141.4790 C   0  0  0  0  0  2  0  0  0  0  0  0
  188.6200  172.7440  140.2100 C   0  0  1  0  0  3  0  0  0  0  0  0
  189.5180  174.5860  141.5120 N   0  0  0  0  0  0  0  0  0  0  0  0
  187.6920  176.5900  146.2440 S   0  0  0  0  0  0  0  0  0  0  0  0
  185.5600  180.2350  143.9210 O   0  0  0  0  0  0  0  0  0  0  0  0
  185.1700  177.6230  145.9770 C   0  0  0  0  0  0  0  0  0  0  0  0
  186.8560  178.2480  144.2480 C   0  0  0  0  0  2  0  0  0  0  0  0
  184.6310  176.8850  146.7850 O   0  0  0  0  0  0  0  0  0  0  0  0
  184.5410  179.3340  144.2850 C   0  0  2  0  0  3  0  0  0  0  0  0
  184.6510  179.0140  145.7800 C   0  0  0  0  0  2  0  0  0  0  0  0
  185.7230  178.9150  143.4600 C   0  0  1  0  0  3  0  0  0  0  0  0
  186.3380  177.1370  145.1600 C   0  0  1  0  0  3  0  0  0  0  0  0
  1  9  1  6  0  0  0
  1  7  1  0  0  0  0
  2  9  2  0  0  0  0
  3 14  1  0  0  0  0
  4 13  1  6  0  0  0
  4 17  1  0  0  0  0
  5 11  2  0  0  0  0
  5 30  1  0  0  0  0
  9 10  1  0  0  0  0
 10 15  1  0  0  0  0
 11  8  1  0  0  0  0
 12 20  1  1  0  0  0
 12  4  1  0  0  0  0
 12 11  1  0  0  0  0
 14 13  1  6  0  0  0
 14  1  1  0  0  0  0
 14  4  1  0  0  0  0
 15  7  1  0  0  0  0
 16  2  1  0  0  0  0
 16  3  1  0  0  0  0
 17  8  1  0  0  0  0
 17  6  1  1  0  0  0
 18 19  2  0  0  0  0
 19  2  1  0  0  0  0
 21 24  1  0  0  0  0
 22 20  1  0  0  0  0
 24 23  2  0  0  0  0
 24 27  1  0  0  0  0
 25 28  1  0  0  0  0
 25 29  1  0  0  0  0
 27 22  1  0  0  0  0
 28 26  1  6  0  0  0
 28 21  1  0  0  0  0
 29 22  2  0  0  0  0
 31 35  1  0  0  0  0
 32 34  2  0  0  0  0
 33 38  1  0  0  0  0
 35 36  1  1  0  0  0
 36 32  1  0  0  0  0
 37 31  1  0  0  0  0
 37 33  1  1  0  0  0
 37 35  1  0  0  0  0
 38 32  1  0  0  0  0
 38 30  1  1  0  0  0
M  END
>  <MODEL>
4

>  <REMARK>
 VINA RESULT:      -7.8      1.276      1.893
  Name = 
  5 active torsions:
  status: ('A' for Active; 'I' for Inactive)
    1  A    between atoms: C_4  and  C_38
    2  A    between atoms: C_7  and  O_11
    3  A    between atoms: C_10  and  S_13
    4  A    between atoms: O_11  and  C_30
    5  A    between atoms: S_13  and  C_24
                            x       y       z     vdW  Elec       q    Type
                         _______ _______ _______ _____ _____    ______ ____

>  <TORSDO>
F 5

$$$$
=
 OpenBabel11062419253D

 38 44  0  0  1  0  0  0  0  0999 V2000
  193.2480  176.6210  144.7320 C   0  0  1  0  0  3  0  0  0  0  0  0
  194.7060  174.8390  143.8350 C   0  0  0  0  0  0  0  0  0  0  0  0
  192.4350  174.8370  143.1050 O   0  0  0  0  0  0  0  0  0  0  0  0
  190.7740  176.6280  143.6490 C   0  0  2  0  0  0  0  0  0  0  0  0
  187.4560  176.8090  142.2200 C   0  0  0  0  0  3  0  0  0  0  0  0
  189.9520  177.3340  145.8940 C   0  0  0  0  0  1  0  0  0  0  0  0
  192.7520  176.6790  146.0440 O   0  0  0  0  0  0  0  0  0  0  0  0
  188.8800  178.1050  143.8220 C   0  0  0  0  0  2  0  0  0  0  0  0
  194.4260  175.7290  144.7910 C   0  0  0  0  0  0  0  0  0  0  0  0
  194.9290  175.6870  146.1650 C   0  0  0  0  0  2  0  0  0  0  0  0
  188.5880  176.9470  142.9170 C   0  0  0  0  0  0  0  0  0  0  0  0
  189.6910  175.9530  142.8330 C   0  0  2  0  0  3  0  0  0  0  0  0
  191.8380  177.1580  142.6990 C   0  0  0  0  0  2  0  0  0  0  0  0
  192.2090  176.0960  143.7150 C   0  0  1  0  0  0  0  0  0  0  0  0
  193.8850  176.5320  146.8780 C   0  0  0  0  0  2  0  0  0  0  0  0
  193.7750  174.7910  142.6570 C   0  0  0  0  0  2  0  0  0  0  0  0
  190.2230  177.7870  144.4710 C   0  0  2  0  0  3  0  0  0  0  0  0
  195.9510  172.9380  143.1420 O   0  0  0  0  0  0  0  0  0  0  0  0
  195.8030  173.8710  143.9730 C   0  0  0  0  0  3  0  0  0  0  0  0
  189.2900  174.7490  143.4770 O   0  0  0  0  0  0  0  0  0  0  0  0
  189.7030  172.0260  140.1250 N   0  0  0  0  0  2  0  0  0  0  0  0
  189.2380  173.5240  142.8100 C   0  0  0  0  0  0  0  0  0  0  0  0
  188.3250  173.7660  139.3760 N   0  0  0  0  0  2  0  0  0  0  0  0
  188.8460  173.1460  140.3810 C   0  0  0  0  0  0  0  0  0  0  0  0
  190.0730  171.2740  142.4500 C   0  0  0  0  0  2  0  0  0  0  0  0
  191.1280  170.1770  140.5610 N   0  0  0  0  0  1  0  0  0  0  0  0
  188.2210  173.3480  141.7260 C   0  0  0  0  0  2  0  0  0  0  0  0
  190.6670  171.4580  141.0630 C   0  0  1  0  0  3  0  0  0  0  0  0
  190.0480  172.5590  143.1370 N   0  0  0  0  0  0  0  0  0  0  0  0
  186.1180  178.0040  142.2990 S   0  0  0  0  0  0  0  0  0  0  0  0
  184.3610  176.8000  146.6220 O   0  0  0  0  0  0  0  0  0  0  0  0
  185.3690  179.2740  144.6060 C   0  0  0  0  0  0  0  0  0  0  0  0
  185.8470  176.8290  144.7440 C   0  0  0  0  0  2  0  0  0  0  0  0
  185.5190  180.4120  144.1930 O   0  0  0  0  0  0  0  0  0  0  0  0
  184.8870  178.1000  146.7450 C   0  0  2  0  0  3  0  0  0  0  0  0
  184.3170  178.9890  145.6340 C   0  0  0  0  0  2  0  0  0  0  0  0
  185.7160  176.9430  146.2670 C   0  0  1  0  0  3  0  0  0  0  0  0
  186.2480  178.1580  144.1070 C   0  0  1  0  0  3  0  0  0  0  0  0
  1  9  1  1  0  0  0
  1  7  1  0  0  0  0
  2 19  1  0  0  0  0
  2  9  2  0  0  0  0
  3 14  1  0  0  0  0
  4 13  1  6  0  0  0
  4 14  1  0  0  0  0
  4 17  1  0  0  0  0
  5 30  1  0  0  0  0
  5 11  2  0  0  0  0
  7 15  1  0  0  0  0
  8 17  1  0  0  0  0
  9 10  1  0  0  0  0
 10 15  1  0  0  0  0
 11  8  1  0  0  0  0
 12 11  1  0  0  0  0
 12 20  1  1  0  0  0
 12  4  1  0  0  0  0
 14 13  1  6  0  0  0
 14  1  1  0  0  0  0
 16  3  1  0  0  0  0
 16  2  1  0  0  0  0
 17  6  1  1  0  0  0
 18 19  2  0  0  0  0
 21 24  1  0  0  0  0
 21 28  1  0  0  0  0
 22 29  2  0  0  0  0
 22 20  1  0  0  0  0
 23 24  2  0  0  0  0
 24 27  1  0  0  0  0
 25 29  1  0  0  0  0
 27 22  1  0  0  0  0
 28 26  1  6  0  0  0
 28 25  1  0  0  0  0
 31 35  1  0  0  0  0
 32 36  1  0  0  0  0
 34 32  2  0  0  0  0
 35 36  1  6  0  0  0
 37 33  1  6  0  0  0
 37 31  1  0  0  0  0
 37 35  1  0  0  0  0
 38 30  1  6  0  0  0
 38 32  1  0  0  0  0
 38 33  1  0  0  0  0
M  END
>  <MODEL>
5

>  <REMARK>
 VINA RESULT:      -7.8      1.784      2.473
  Name = 
  5 active torsions:
  status: ('A' for Active; 'I' for Inactive)
    1  A    between atoms: C_4  and  C_38
    2  A    between atoms: C_7  and  O_11
    3  A    between atoms: C_10  and  S_13
    4  A    between atoms: O_11  and  C_30
    5  A    between atoms: S_13  and  C_24
                            x       y       z     vdW  Elec       q    Type
                         _______ _______ _______ _____ _____    ______ ____

>  <TORSDO>
F 5

$$$$
=
 OpenBabel11062419253D

 38 44  0  0  1  0  0  0  0  0999 V2000
  192.2960  174.9210  145.6910 C   0  0  1  0  0  3  0  0  0  0  0  0
  191.3670  176.3520  147.4790 C   0  0  0  0  0  0  0  0  0  0  0  0
  190.0400  176.0920  145.5130 O   0  0  0  0  0  0  0  0  0  0  0  0
  190.5930  174.5390  143.6300 C   0  0  2  0  0  0  0  0  0  0  0  0
  188.3830  173.8720  140.8460 C   0  0  0  0  0  3  0  0  0  0  0  0
  192.6040  174.5620  142.1550 C   0  0  0  0  0  1  0  0  0  0  0  0
  193.3580  175.2700  144.8430 O   0  0  0  0  0  0  0  0  0  0  0  0
  190.6460  173.1640  141.6540 C   0  0  0  0  0  2  0  0  0  0  0  0
  192.4220  175.8030  146.8720 C   0  0  0  0  0  0  0  0  0  0  0  0
  193.8020  176.2810  146.9680 C   0  0  0  0  0  2  0  0  0  0  0  0
  189.3870  173.9760  141.7200 C   0  0  0  0  0  0  0  0  0  0  0  0
  189.3320  174.9090  142.8770 C   0  0  2  0  0  3  0  0  0  0  0  0
  190.2040  173.7530  144.8740 C   0  0  0  0  0  2  0  0  0  0  0  0
  190.9100  175.0850  145.0260 C   0  0  1  0  0  0  0  0  0  0  0  0
  194.4000  175.6880  145.7030 C   0  0  0  0  0  2  0  0  0  0  0  0
  190.0120  176.0150  146.9240 C   0  0  0  0  0  2  0  0  0  0  0  0
  191.5290  173.6900  142.7800 C   0  0  2  0  0  3  0  0  0  0  0  0
  190.6610  178.2340  148.7460 O   0  0  0  0  0  0  0  0  0  0  0  0
  191.5180  177.3290  148.5650 C   0  0  0  0  0  3  0  0  0  0  0  0
  189.4320  176.2480  142.4070 O   0  0  0  0  0  0  0  0  0  0  0  0
  185.4620  177.7190  141.4610 N   0  0  0  0  0  2  0  0  0  0  0  0
  188.3550  177.1360  142.4390 C   0  0  0  0  0  0  0  0  0  0  0  0
  186.4980  177.2930  139.4050 N   0  0  0  0  0  2  0  0  0  0  0  0
  186.6360  177.4840  140.6730 C   0  0  0  0  0  0  0  0  0  0  0  0
  186.5370  178.2140  143.6310 C   0  0  0  0  0  2  0  0  0  0  0  0
  184.1250  178.1700  143.3720 N   0  0  0  0  0  1  0  0  0  0  0  0
  187.9930  177.8590  141.1800 C   0  0  0  0  0  2  0  0  0  0  0  0
  185.3640  177.5710  142.9110 C   0  0  1  0  0  3  0  0  0  0  0  0
  187.6960  177.3350  143.5440 N   0  0  0  0  0  0  0  0  0  0  0  0
  188.4270  172.7440  139.4490 S   0  0  0  0  0  0  0  0  0  0  0  0
  188.6850  174.5940  135.0070 O   0  0  0  0  0  0  0  0  0  0  0  0
  190.3750  173.4570  137.6620 C   0  0  0  0  0  0  0  0  0  0  0  0
  188.0970  174.4160  137.3210 C   0  0  0  0  0  2  0  0  0  0  0  0
  191.3200  173.0480  138.3170 O   0  0  0  0  0  0  0  0  0  0  0  0
  189.9510  174.7750  135.5960 C   0  0  2  0  0  3  0  0  0  0  0  0
  190.4450  173.4400  136.1660 C   0  0  0  0  0  2  0  0  0  0  0  0
  188.6930  175.3030  136.2230 C   0  0  1  0  0  3  0  0  0  0  0  0
  189.1490  173.9990  138.3480 C   0  0  1  0  0  3  0  0  0  0  0  0
  1  7  1  6  0  0  0
  1  9  1  0  0  0  0
  2 19  1  0  0  0  0
  3 16  1  0  0  0  0
  4 13  1  1  0  0  0
  4 14  1  0  0  0  0
  5 11  2  0  0  0  0
  7 15  1  0  0  0  0
  8 11  1  0  0  0  0
  8 17  1  0  0  0  0
  9 10  1  0  0  0  0
  9  2  2  0  0  0  0
 11 12  1  0  0  0  0
 12 20  1  6  0  0  0
 12  4  1  0  0  0  0
 14 13  1  1  0  0  0
 14  3  1  0  0  0  0
 14  1  1  0  0  0  0
 15 10  1  0  0  0  0
 16  2  1  0  0  0  0
 17  6  1  6  0  0  0
 17  4  1  0  0  0  0
 19 18  2  0  0  0  0
 20 22  1  0  0  0  0
 21 28  1  0  0  0  0
 22 29  2  0  0  0  0
 23 24  2  0  0  0  0
 24 27  1  0  0  0  0
 24 21  1  0  0  0  0
 27 22  1  0  0  0  0
 28 26  1  1  0  0  0
 28 25  1  0  0  0  0
 29 25  1  0  0  0  0
 30  5  1  0  0  0  0
 31 35  1  0  0  0  0
 31 37  1  0  0  0  0
 32 34  2  0  0  0  0
 32 38  1  0  0  0  0
 33 38  1  0  0  0  0
 35 36  1  1  0  0  0
 35 37  1  0  0  0  0
 36 32  1  0  0  0  0
 37 33  1  1  0  0  0
 38 30  1  1  0  0  0
M  END
>  <MODEL>
6

>  <REMARK>
 VINA RESULT:      -7.6      3.251      6.585
  Name = 
  5 active torsions:
  status: ('A' for Active; 'I' for Inactive)
    1  A    between atoms: C_4  and  C_38
    2  A    between atoms: C_7  and  O_11
    3  A    between atoms: C_10  and  S_13
    4  A    between atoms: O_11  and  C_30
    5  A    between atoms: S_13  and  C_24
                            x       y       z     vdW  Elec       q    Type
                         _______ _______ _______ _____ _____    ______ ____

>  <TORSDO>
F 5

$$$$
=
 OpenBabel11062419253D

 38 44  0  0  1  0  0  0  0  0999 V2000
  187.3520  177.4090  147.5940 C   0  0  1  0  0  3  0  0  0  0  0  0
  185.4040  177.6550  146.0930 C   0  0  0  0  0  0  0  0  0  0  0  0
  187.3750  176.7000  145.1460 O   0  0  0  0  0  0  0  0  0  0  0  0
  189.4280  176.1140  146.4500 C   0  0  2  0  0  0  0  0  0  0  0  0
  192.2500  174.3170  145.0760 C   0  0  0  0  0  3  0  0  0  0  0  0
  190.9090  177.6350  147.7580 C   0  0  0  0  0  1  0  0  0  0  0  0
  188.1640  178.4600  148.0460 O   0  0  0  0  0  0  0  0  0  0  0  0
  191.5490  175.3150  147.2640 C   0  0  0  0  0  2  0  0  0  0  0  0
  186.0800  178.0390  147.1790 C   0  0  0  0  0  0  0  0  0  0  0  0
  185.9410  179.3300  147.8550 C   0  0  0  0  0  2  0  0  0  0  0  0
  191.3790  175.0200  145.8040 C   0  0  0  0  0  0  0  0  0  0  0  0
  190.1220  175.5630  145.2210 C   0  0  2  0  0  3  0  0  0  0  0  0
  188.2790  175.1850  146.8170 C   0  0  0  0  0  2  0  0  0  0  0  0
  187.9820  176.6180  146.4240 C   0  0  1  0  0  0  0  0  0  0  0  0
  187.2720  179.4160  148.5850 C   0  0  0  0  0  2  0  0  0  0  0  0
  185.9810  176.5180  145.3000 C   0  0  0  0  0  2  0  0  0  0  0  0
  190.3780  176.2180  147.6370 C   0  0  2  0  0  3  0  0  0  0  0  0
  184.1720  178.8730  144.4680 O   0  0  0  0  0  0  0  0  0  0  0  0
  184.2140  178.3780  145.6240 C   0  0  0  0  0  3  0  0  0  0  0  0
  190.4360  176.6290  144.3330 O   0  0  0  0  0  0  0  0  0  0  0  0
  187.1730  176.2150  141.5050 N   0  0  0  0  0  2  0  0  0  0  0  0
  189.7430  176.8380  143.1400 C   0  0  0  0  0  0  0  0  0  0  0  0
  187.8420  174.0350  142.0400 N   0  0  0  0  0  2  0  0  0  0  0  0
  188.1300  175.2930  142.0420 C   0  0  0  0  0  0  0  0  0  0  0  0
  188.5090  178.2910  141.6380 C   0  0  0  0  0  2  0  0  0  0  0  0
  186.2210  178.2830  140.8280 N   0  0  0  0  0  1  0  0  0  0  0  0
  189.5660  175.6810  142.2080 C   0  0  0  0  0  2  0  0  0  0  0  0
  187.1350  177.6520  141.7620 C   0  0  1  0  0  3  0  0  0  0  0  0
  189.2770  178.0180  142.8450 N   0  0  0  0  0  0  0  0  0  0  0  0
  193.7670  173.6450  145.7630 S   0  0  0  0  0  0  0  0  0  0  0  0
  191.6690  171.0100  142.3160 O   0  0  0  0  0  0  0  0  0  0  0  0
  193.8260  171.0560  144.8740 C   0  0  0  0  0  0  0  0  0  0  0  0
  192.9290  172.7850  143.3160 C   0  0  0  0  0  2  0  0  0  0  0  0
  194.5560  170.6250  145.7510 O   0  0  0  0  0  0  0  0  0  0  0  0
  192.8080  170.2970  142.7360 C   0  0  2  0  0  3  0  0  0  0  0  0
  192.7910  170.1620  144.2630 C   0  0  0  0  0  2  0  0  0  0  0  0
  192.8890  171.7070  142.2270 C   0  0  1  0  0  3  0  0  0  0  0  0
  193.9720  172.4730  144.3870 C   0  0  1  0  0  3  0  0  0  0  0  0
  1  9  1  6  0  0  0
  1  7  1  0  0  0  0
  2  9  2  0  0  0  0
  3 16  1  0  0  0  0
  3 14  1  0  0  0  0
  4 13  1  1  0  0  0
  4 17  1  0  0  0  0
  5 30  1  0  0  0  0
  5 11  2  0  0  0  0
  7 15  1  0  0  0  0
  8 17  1  0  0  0  0
  9 10  1  0  0  0  0
 10 15  1  0  0  0  0
 11  8  1  0  0  0  0
 12 20  1  6  0  0  0
 12 11  1  0  0  0  0
 12  4  1  0  0  0  0
 14  4  1  0  0  0  0
 14 13  1  1  0  0  0
 14  1  1  0  0  0  0
 16  2  1  0  0  0  0
 17  6  1  6  0  0  0
 18 19  2  0  0  0  0
 19  2  1  0  0  0  0
 21 28  1  0  0  0  0
 21 24  1  0  0  0  0
 22 20  1  0  0  0  0
 23 24  2  0  0  0  0
 24 27  1  0  0  0  0
 25 28  1  0  0  0  0
 25 29  1  0  0  0  0
 27 22  1  0  0  0  0
 28 26  1  6  0  0  0
 29 22  2  0  0  0  0
 31 35  1  0  0  0  0
 32 34  2  0  0  0  0
 33 38  1  0  0  0  0
 35 36  1  1  0  0  0
 36 32  1  0  0  0  0
 37 31  1  0  0  0  0
 37 35  1  0  0  0  0
 37 33  1  1  0  0  0
 38 32  1  0  0  0  0
 38 30  1  1  0  0  0
M  END
>  <MODEL>
7

>  <REMARK>
 VINA RESULT:      -7.3      2.977      7.822
  Name = 
  5 active torsions:
  status: ('A' for Active; 'I' for Inactive)
    1  A    between atoms: C_4  and  C_38
    2  A    between atoms: C_7  and  O_11
    3  A    between atoms: C_10  and  S_13
    4  A    between atoms: O_11  and  C_30
    5  A    between atoms: S_13  and  C_24
                            x       y       z     vdW  Elec       q    Type
                         _______ _______ _______ _____ _____    ______ ____

>  <TORSDO>
F 5

$$$$
=
 OpenBabel11062419253D

 38 44  0  0  1  0  0  0  0  0999 V2000
  188.2680  177.9180  144.7740 C   0  0  1  0  0  3  0  0  0  0  0  0
  186.2550  177.2040  146.0170 C   0  0  0  0  0  0  0  0  0  0  0  0
  188.2190  175.8800  146.3030 O   0  0  0  0  0  0  0  0  0  0  0  0
  190.4650  176.4630  145.3670 C   0  0  2  0  0  0  0  0  0  0  0  0
  193.5040  174.6570  146.1300 C   0  0  0  0  0  3  0  0  0  0  0  0
  191.1120  176.7360  142.9740 C   0  0  0  0  0  1  0  0  0  0  0  0
  188.4590  177.7760  143.3910 O   0  0  0  0  0  0  0  0  0  0  0  0
  192.7910  176.6330  144.7650 C   0  0  0  0  0  2  0  0  0  0  0  0
  186.8050  177.8450  144.9830 C   0  0  0  0  0  0  0  0  0  0  0  0
  186.1240  178.1850  143.7330 C   0  0  0  0  0  2  0  0  0  0  0  0
  192.5420  175.4520  145.6540 C   0  0  0  0  0  0  0  0  0  0  0  0
  191.1080  175.2440  145.9940 C   0  0  2  0  0  3  0  0  0  0  0  0
  190.0800  177.4340  146.4740 C   0  0  0  0  0  2  0  0  0  0  0  0
  188.9970  176.8330  145.6000 C   0  0  1  0  0  0  0  0  0  0  0  0
  187.3100  178.3450  142.7950 C   0  0  0  0  0  2  0  0  0  0  0  0
  187.1950  176.5630  146.9980 C   0  0  0  0  0  2  0  0  0  0  0  0
  191.4100  177.1660  144.3990 C   0  0  2  0  0  3  0  0  0  0  0  0
  184.0670  177.9710  146.5340 O   0  0  0  0  0  0  0  0  0  0  0  0
  184.8010  177.0290  146.1370 C   0  0  0  0  0  3  0  0  0  0  0  0
  190.6360  174.0690  145.3460 O   0  0  0  0  0  0  0  0  0  0  0  0
  190.2240  172.1500  141.4770 N   0  0  0  0  0  2  0  0  0  0  0  0
  190.4420  174.0020  143.9650 C   0  0  0  0  0  0  0  0  0  0  0  0
  192.2600  171.3980  142.3560 N   0  0  0  0  0  2  0  0  0  0  0  0
  191.3120  172.2710  142.4030 C   0  0  0  0  0  0  0  0  0  0  0  0
  189.0150  174.2380  142.0160 C   0  0  0  0  0  2  0  0  0  0  0  0
  188.1920  172.6660  140.3620 N   0  0  0  0  0  1  0  0  0  0  0  0
  191.5860  173.5630  143.1070 C   0  0  0  0  0  2  0  0  0  0  0  0
  188.9120  172.7750  141.6170 C   0  0  1  0  0  3  0  0  0  0  0  0
  189.2940  174.3280  143.4430 N   0  0  0  0  0  0  0  0  0  0  0  0
  195.2400  174.8980  145.7400 S   0  0  0  0  0  0  0  0  0  0  0  0
  194.7450  170.1390  146.3230 O   0  0  0  0  0  0  0  0  0  0  0  0
  196.7390  172.6410  145.3410 C   0  0  0  0  0  0  0  0  0  0  0  0
  194.2700  172.3570  145.5540 C   0  0  0  0  0  2  0  0  0  0  0  0
  197.7660  173.2130  145.0130 O   0  0  0  0  0  0  0  0  0  0  0  0
  195.8260  170.3300  145.4410 C   0  0  2  0  0  3  0  0  0  0  0  0
  196.8160  171.3270  146.0540 C   0  0  0  0  0  2  0  0  0  0  0  0
  194.4590  170.8870  145.1640 C   0  0  1  0  0  3  0  0  0  0  0  0
  195.3960  173.2370  145.0130 C   0  0  1  0  0  3  0  0  0  0  0  0
  1  7  1  6  0  0  0
  1  9  1  0  0  0  0
  1 14  1  0  0  0  0
  2 19  1  0  0  0  0
  2 16  1  0  0  0  0
  3 16  1  0  0  0  0
  4 14  1  0  0  0  0
  4 12  1  0  0  0  0
  4 13  1  1  0  0  0
  8 11  1  0  0  0  0
  9  2  2  0  0  0  0
 10  9  1  0  0  0  0
 11 12  1  0  0  0  0
 11  5  2  0  0  0  0
 12 20  1  6  0  0  0
 14  3  1  0  0  0  0
 14 13  1  1  0  0  0
 15  7  1  0  0  0  0
 15 10  1  0  0  0  0
 17  6  1  6  0  0  0
 17  8  1  0  0  0  0
 17  4  1  0  0  0  0
 19 18  2  0  0  0  0
 21 28  1  0  0  0  0
 21 24  1  0  0  0  0
 22 20  1  0  0  0  0
 23 24  2  0  0  0  0
 24 27  1  0  0  0  0
 25 29  1  0  0  0  0
 27 22  1  0  0  0  0
 28 26  1  6  0  0  0
 28 25  1  0  0  0  0
 29 22  2  0  0  0  0
 30  5  1  0  0  0  0
 32 36  1  0  0  0  0
 34 32  2  0  0  0  0
 35 36  1  1  0  0  0
 35 31  1  0  0  0  0
 37 35  1  0  0  0  0
 37 33  1  1  0  0  0
 37 31  1  0  0  0  0
 38 32  1  0  0  0  0
 38 33  1  0  0  0  0
 38 30  1  1  0  0  0
M  END
>  <MODEL>
8

>  <REMARK>
 VINA RESULT:      -7.1      2.678      8.197
  Name = 
  5 active torsions:
  status: ('A' for Active; 'I' for Inactive)
    1  A    between atoms: C_4  and  C_38
    2  A    between atoms: C_7  and  O_11
    3  A    between atoms: C_10  and  S_13
    4  A    between atoms: O_11  and  C_30
    5  A    between atoms: S_13  and  C_24
                            x       y       z     vdW  Elec       q    Type
                         _______ _______ _______ _____ _____    ______ ____

>  <TORSDO>
F 5

$$$$
=
 OpenBabel11062419253D

 38 44  0  0  1  0  0  0  0  0999 V2000
  192.8320  176.8970  145.0370 C   0  0  1  0  0  3  0  0  0  0  0  0
  194.2060  175.7260  143.3490 C   0  0  0  0  0  0  0  0  0  0  0  0
  191.8380  175.5390  143.1240 O   0  0  0  0  0  0  0  0  0  0  0  0
  190.1820  176.7820  144.5280 C   0  0  2  0  0  0  0  0  0  0  0  0
  186.6170  176.7850  143.9210 C   0  0  0  0  0  3  0  0  0  0  0  0
  189.8610  176.6640  146.9980 C   0  0  0  0  0  1  0  0  0  0  0  0
  192.6660  176.4900  146.3700 O   0  0  0  0  0  0  0  0  0  0  0  0
  188.2440  177.7970  145.5350 C   0  0  0  0  0  2  0  0  0  0  0  0
  194.0750  176.2430  144.5740 C   0  0  0  0  0  0  0  0  0  0  0  0
  194.8980  175.8980  145.7340 C   0  0  0  0  0  2  0  0  0  0  0  0
  187.8630  176.9130  144.3860 C   0  0  0  0  0  0  0  0  0  0  0  0
  189.0100  176.1910  143.7730 C   0  0  2  0  0  3  0  0  0  0  0  0
  190.9230  177.7390  143.6040 C   0  0  0  0  0  2  0  0  0  0  0  0
  191.6370  176.5120  144.1340 C   0  0  1  0  0  0  0  0  0  0  0  0
  193.9760  176.3100  146.8710 C   0  0  0  0  0  2  0  0  0  0  0  0
  193.0280  175.8560  142.4270 C   0  0  0  0  0  2  0  0  0  0  0  0
  189.7300  177.5440  145.7670 C   0  0  2  0  0  3  0  0  0  0  0  0
  195.7560  174.9060  141.7460 O   0  0  0  0  0  0  0  0  0  0  0  0
  195.3980  174.9650  142.9510 C   0  0  0  0  0  3  0  0  0  0  0  0
  188.9040  174.8030  144.0670 O   0  0  0  0  0  0  0  0  0  0  0  0
  189.6850  173.1910  140.1160 N   0  0  0  0  0  2  0  0  0  0  0  0
  188.9860  173.8200  143.0790 C   0  0  0  0  0  0  0  0  0  0  0  0
  188.1920  174.9680  139.8030 N   0  0  0  0  0  2  0  0  0  0  0  0
  188.7240  174.1260  140.6230 C   0  0  0  0  0  0  0  0  0  0  0  0
  190.0270  171.8330  142.1530 C   0  0  0  0  0  2  0  0  0  0  0  0
  191.2470  171.4020  140.1010 N   0  0  0  0  0  1  0  0  0  0  0  0
  188.0310  173.8880  141.9290 C   0  0  0  0  0  2  0  0  0  0  0  0
  190.6560  172.4480  140.9140 C   0  0  1  0  0  3  0  0  0  0  0  0
  189.8630  172.8630  143.1710 N   0  0  0  0  0  0  0  0  0  0  0  0
  185.2210  177.6560  144.6400 S   0  0  0  0  0  0  0  0  0  0  0  0
  183.8300  177.4980  140.0280 O   0  0  0  0  0  0  0  0  0  0  0  0
  186.1110  178.5850  142.2230 C   0  0  0  0  0  0  0  0  0  0  0  0
  183.7130  177.9160  142.3840 C   0  0  0  0  0  2  0  0  0  0  0  0
  187.1640  179.0470  142.6320 O   0  0  0  0  0  0  0  0  0  0  0  0
  184.7570  178.5520  140.1370 C   0  0  2  0  0  3  0  0  0  0  0  0
  186.0280  178.0460  140.8280 C   0  0  0  0  0  2  0  0  0  0  0  0
  183.5140  178.4900  140.9770 C   0  0  1  0  0  3  0  0  0  0  0  0
  184.8900  178.5720  143.1040 C   0  0  1  0  0  3  0  0  0  0  0  0
  1  9  1  6  0  0  0
  1  7  1  0  0  0  0
  2  9  2  0  0  0  0
  3 14  1  0  0  0  0
  4 13  1  6  0  0  0
  4 17  1  0  0  0  0
  5 11  2  0  0  0  0
  5 30  1  0  0  0  0
  7 15  1  0  0  0  0
  8 17  1  0  0  0  0
  9 10  1  0  0  0  0
 10 15  1  0  0  0  0
 11  8  1  0  0  0  0
 12 20  1  1  0  0  0
 12 11  1  0  0  0  0
 12  4  1  0  0  0  0
 14 13  1  6  0  0  0
 14  4  1  0  0  0  0
 14  1  1  0  0  0  0
 16  3  1  0  0  0  0
 16  2  1  0  0  0  0
 17  6  1  1  0  0  0
 18 19  2  0  0  0  0
 19  2  1  0  0  0  0
 21 24  1  0  0  0  0
 21 28  1  0  0  0  0
 22 29  2  0  0  0  0
 22 20  1  0  0  0  0
 23 24  2  0  0  0  0
 24 27  1  0  0  0  0
 25 29  1  0  0  0  0
 27 22  1  0  0  0  0
 28 26  1  6  0  0  0
 28 25  1  0  0  0  0
 31 35  1  0  0  0  0
 31 37  1  0  0  0  0
 32 34  2  0  0  0  0
 32 38  1  0  0  0  0
 33 38  1  0  0  0  0
 35 36  1  1  0  0  0
 35 37  1  0  0  0  0
 36 32  1  0  0  0  0
 37 33  1  1  0  0  0
 38 30  1  1  0  0  0
M  END
>  <MODEL>
9

>  <REMARK>
 VINA RESULT:      -6.9      1.659      2.271
  Name = 
  5 active torsions:
  status: ('A' for Active; 'I' for Inactive)
    1  A    between atoms: C_4  and  C_38
    2  A    between atoms: C_7  and  O_11
    3  A    between atoms: C_10  and  S_13
    4  A    between atoms: O_11  and  C_30
    5  A    between atoms: S_13  and  C_24
                            x       y       z     vdW  Elec       q    Type
                         _______ _______ _______ _____ _____    ______ ____

>  <TORSDO>
F 5

$$$$
