=
 OpenBabel11062422463D

 29 31  0  0  1  0  0  0  0  0999 V2000
  188.7500  174.4720  142.5530 C   0  0  0  0  0  0  0  0  0  0  0  0
  187.9200  175.5150  142.5180 C   0  0  0  0  0  3  0  0  0  0  0  0
  189.9250  174.4250  143.5070 C   0  0  1  0  0  3  0  0  0  0  0  0
  188.5340  173.3490  141.5990 C   0  0  0  0  0  1  0  0  0  0  0  0
  188.0870  176.6710  143.4100 C   0  0  0  0  0  0  0  0  0  0  0  0
  190.0650  175.6370  144.3340 N   0  0  0  0  0  0  0  0  0  0  0  0
  189.1100  176.7100  144.2650 C   0  0  0  0  0  3  0  0  0  0  0  0
  192.0300  172.3340  143.4530 C   0  0  0  0  0  1  0  0  0  0  0  0
  190.8130  172.3000  144.3240 C   0  0  0  0  0  3  0  0  0  0  0  0
  189.9090  173.2230  144.3280 N   0  0  0  0  0  0  0  0  0  0  0  0
  191.2240  175.7360  145.2200 C   0  0  2  0  0  3  0  0  0  0  0  0
  190.8660  176.4130  146.5410 C   0  0  0  0  0  2  0  0  0  0  0  0
  190.5590  175.3950  147.5810 C   0  0  0  0  0  0  0  0  0  0  0  0
  189.3410  174.7270  147.5610 O   0  0  0  0  0  0  0  0  0  0  0  0
  191.3960  175.1520  148.4890 O   0  0  0  0  0  1  0  0  0  0  0  0
  192.4330  176.3730  144.5270 C   0  0  0  0  0  2  0  0  0  0  0  0
  194.8770  176.3320  144.2860 N   0  0  0  0  0  2  0  0  0  0  0  0
  194.5950  175.9490  145.6730 C   0  0  0  0  0  0  0  0  0  0  0  0
  195.5310  175.0410  146.1650 O   0  0  0  0  0  1  0  0  0  0  0  0
  193.6910  175.5110  144.6140 C   0  0  1  0  0  3  0  0  0  0  0  0
  194.2860  177.0540  146.4700 O   0  0  0  0  0  1  0  0  0  0  0  0
  187.1390  177.7410  143.3440 N   0  0  0  0  0  2  0  0  0  0  0  0
  184.8690  178.6230  143.3910 C   0  0  2  0  0  3  0  0  0  0  0  0
  184.8800  178.4090  146.2650 C   0  0  0  0  0  2  0  0  0  0  0  0
  183.7590  179.0170  144.2430 N   0  0  0  0  0  0  0  0  0  0  0  0
  184.3620  177.9010  142.2370 N   0  0  0  0  0  1  0  0  0  0  0  0
  186.1790  178.4130  145.4760 C   0  0  0  0  0  2  0  0  0  0  0  0
  183.7840  178.9720  145.4980 N   0  0  0  0  0  0  0  0  0  0  0  0
  185.9070  177.7800  144.1230 C   0  0  2  0  0  3  0  0  0  0  0  0
  1  3  1  0  0  0  0
  2  1  2  0  0  0  0
  2  5  1  0  0  0  0
  3 10  1  1  0  0  0
  3  6  1  0  0  0  0
  4  1  1  0  0  0  0
  5  7  2  0  0  0  0
  6 11  1  0  0  0  0
  7  6  1  0  0  0  0
  8  9  1  0  0  0  0
  9 10  2  0  0  0  0
 11 16  1  6  0  0  0
 11 12  1  0  0  0  0
 12 13  1  0  0  0  0
 13 15  1  0  0  0  0
 14 13  2  0  0  0  0
 17 20  1  0  0  0  0
 17 18  1  0  0  0  0
 18 19  1  0  0  0  0
 18 21  1  0  0  0  0
 20 16  1  1  0  0  0
 20 18  1  0  0  0  0
 22  5  1  0  0  0  0
 23 26  1  6  0  0  0
 23 29  1  0  0  0  0
 23 25  1  0  0  0  0
 25 28  2  0  0  0  0
 27 24  1  0  0  0  0
 28 24  1  0  0  0  0
 29 22  1  6  0  0  0
 29 27  1  0  0  0  0
M  END
>  <MODEL>
1

>  <REMARK>
 VINA RESULT:      -6.5      0.000      0.000
  Name = 
  8 active torsions:
  status: ('A' for Active; 'I' for Inactive)
    1  A    between atoms: C_4  and  N_20
    2  A    between atoms: C_15  and  N_25
    3  A    between atoms: C_16  and  C_17
    4  A    between atoms: C_17  and  C_21
    5  A    between atoms: C_21  and  N_24
    6  A    between atoms: C_21  and  C_27
    7  A    between atoms: C_23  and  C_27
    8  A    between atoms: N_25  and  C_28
                            x       y       z     vdW  Elec       q    Type
                         _______ _______ _______ _____ _____    ______ ____

>  <TORSDO>
F 8

$$$$
=
 OpenBabel11062422463D

 29 31  0  0  1  0  0  0  0  0999 V2000
  187.2360  177.5800  146.2320 C   0  0  0  0  0  0  0  0  0  0  0  0
  186.4930  178.1500  145.2830 C   0  0  0  0  0  3  0  0  0  0  0  0
  188.5280  176.8610  145.9030 C   0  0  1  0  0  3  0  0  0  0  0  0
  186.7570  177.6200  147.6420 C   0  0  0  0  0  1  0  0  0  0  0  0
  186.8880  178.1260  143.8680 C   0  0  0  0  0  0  0  0  0  0  0  0
  188.8380  176.8290  144.4620 N   0  0  0  0  0  0  0  0  0  0  0  0
  188.0040  177.4960  143.4980 C   0  0  0  0  0  3  0  0  0  0  0  0
  190.3330  175.1900  147.5630 C   0  0  0  0  0  1  0  0  0  0  0  0
  190.4490  176.6730  147.4020 C   0  0  0  0  0  3  0  0  0  0  0  0
  189.6480  177.3790  146.6740 N   0  0  0  0  0  0  0  0  0  0  0  0
  190.0120  176.0750  144.0270 C   0  0  2  0  0  3  0  0  0  0  0  0
  190.8210  176.8460  142.9860 C   0  0  0  0  0  2  0  0  0  0  0  0
  192.2660  176.8350  143.3380 C   0  0  0  0  0  0  0  0  0  0  0  0
  192.6730  177.2070  144.6130 O   0  0  0  0  0  1  0  0  0  0  0  0
  193.1210  176.5060  142.4750 O   0  0  0  0  0  0  0  0  0  0  0  0
  189.6570  174.6530  143.5800 C   0  0  0  0  0  2  0  0  0  0  0  0
  189.2180  173.1390  141.6960 N   0  0  0  0  0  2  0  0  0  0  0  0
  188.4800  174.3740  141.4110 C   0  0  0  0  0  0  0  0  0  0  0  0
  188.4110  174.6380  140.0440 O   0  0  0  0  0  1  0  0  0  0  0  0
  189.7800  174.4560  142.0710 C   0  0  1  0  0  3  0  0  0  0  0  0
  187.2950  174.4600  142.1460 O   0  0  0  0  0  1  0  0  0  0  0  0
  186.0610  178.7880  142.9050 N   0  0  0  0  0  2  0  0  0  0  0  0
  185.1280  178.3250  140.7030 C   0  0  2  0  0  3  0  0  0  0  0  0
  182.5200  178.0610  141.9000 C   0  0  0  0  0  2  0  0  0  0  0  0
  183.9130  178.0410  139.9570 N   0  0  0  0  0  0  0  0  0  0  0  0
  186.2040  177.4800  140.2150 N   0  0  0  0  0  1  0  0  0  0  0  0
  183.6450  178.7790  142.6260 C   0  0  0  0  0  2  0  0  0  0  0  0
  182.7690  177.9780  140.4720 N   0  0  0  0  0  0  0  0  0  0  0  0
  184.9570  178.1410  142.2070 C   0  0  2  0  0  3  0  0  0  0  0  0
  1  4  1  0  0  0  0
  2  1  2  0  0  0  0
  3  1  1  0  0  0  0
  3 10  1  1  0  0  0
  5  2  1  0  0  0  0
  6  3  1  0  0  0  0
  7  5  2  0  0  0  0
  7  6  1  0  0  0  0
  9  8  1  0  0  0  0
 10  9  2  0  0  0  0
 11 12  1  6  0  0  0
 11  6  1  0  0  0  0
 12 13  1  0  0  0  0
 13 14  1  0  0  0  0
 15 13  2  0  0  0  0
 16 11  1  0  0  0  0
 17 20  1  0  0  0  0
 18 17  1  0  0  0  0
 18 20  1  0  0  0  0
 18 21  1  0  0  0  0
 19 18  1  0  0  0  0
 20 16  1  1  0  0  0
 22  5  1  0  0  0  0
 23 26  1  6  0  0  0
 23 29  1  0  0  0  0
 24 27  1  0  0  0  0
 25 28  2  0  0  0  0
 25 23  1  0  0  0  0
 28 24  1  0  0  0  0
 29 27  1  0  0  0  0
 29 22  1  1  0  0  0
M  END
>  <MODEL>
2

>  <REMARK>
 VINA RESULT:      -6.5      2.615      4.984
  Name = 
  8 active torsions:
  status: ('A' for Active; 'I' for Inactive)
    1  A    between atoms: C_4  and  N_20
    2  A    between atoms: C_15  and  N_25
    3  A    between atoms: C_16  and  C_17
    4  A    between atoms: C_17  and  C_21
    5  A    between atoms: C_21  and  N_24
    6  A    between atoms: C_21  and  C_27
    7  A    between atoms: C_23  and  C_27
    8  A    between atoms: N_25  and  C_28
                            x       y       z     vdW  Elec       q    Type
                         _______ _______ _______ _____ _____    ______ ____

>  <TORSDO>
F 8

$$$$
=
 OpenBabel11062422463D

 29 31  0  0  1  0  0  0  0  0999 V2000
  189.0240  174.8290  142.1390 C   0  0  0  0  0  0  0  0  0  0  0  0
  188.4750  175.9760  141.7350 C   0  0  0  0  0  3  0  0  0  0  0  0
  189.8920  174.7600  143.3780 C   0  0  1  0  0  3  0  0  0  0  0  0
  188.8070  173.6020  141.3240 C   0  0  0  0  0  1  0  0  0  0  0  0
  188.6680  177.2320  142.4720 C   0  0  0  0  0  0  0  0  0  0  0  0
  190.0870  176.0630  144.0390 N   0  0  0  0  0  0  0  0  0  0  0  0
  189.4350  177.2530  143.5630 C   0  0  0  0  0  3  0  0  0  0  0  0
  191.4500  172.3770  144.2140 C   0  0  0  0  0  1  0  0  0  0  0  0
  190.0740  172.7120  144.6990 C   0  0  0  0  0  3  0  0  0  0  0  0
  189.4160  173.7560  144.3180 N   0  0  0  0  0  0  0  0  0  0  0  0
  190.9890  176.1240  145.1890 C   0  0  2  0  0  3  0  0  0  0  0  0
  190.3220  176.7870  146.3920 C   0  0  0  0  0  2  0  0  0  0  0  0
  189.2680  175.9000  146.9550 C   0  0  0  0  0  0  0  0  0  0  0  0
  189.6250  174.7470  147.6430 O   0  0  0  0  0  1  0  0  0  0  0  0
  188.0530  176.1860  146.7910 O   0  0  0  0  0  0  0  0  0  0  0  0
  192.3430  176.7470  144.8330 C   0  0  0  0  0  2  0  0  0  0  0  0
  194.7280  176.3850  144.3710 N   0  0  0  0  0  2  0  0  0  0  0  0
  194.5340  176.0750  145.7910 C   0  0  0  0  0  0  0  0  0  0  0  0
  195.3900  175.0650  146.2280 O   0  0  0  0  0  1  0  0  0  0  0  0
  193.4840  175.7320  144.8360 C   0  0  1  0  0  3  0  0  0  0  0  0
  194.4440  177.2290  146.5730 O   0  0  0  0  0  1  0  0  0  0  0  0
  188.0220  178.4200  142.0020 N   0  0  0  0  0  2  0  0  0  0  0  0
  186.0350  177.9960  143.3460 C   0  0  2  0  0  3  0  0  0  0  0  0
  184.4150  178.2810  140.9790 C   0  0  0  0  0  2  0  0  0  0  0  0
  184.5890  177.8480  143.3240 N   0  0  0  0  0  0  0  0  0  0  0  0
  186.4250  178.7710  144.5100 N   0  0  0  0  0  1  0  0  0  0  0  0
  185.9060  178.0040  140.8780 C   0  0  0  0  0  2  0  0  0  0  0  0
  183.8890  177.9210  142.2840 N   0  0  0  0  0  0  0  0  0  0  0  0
  186.5830  178.6410  142.0780 C   0  0  2  0  0  3  0  0  0  0  0  0
  1  3  1  0  0  0  0
  2  1  2  0  0  0  0
  2  5  1  0  0  0  0
  3  6  1  0  0  0  0
  3 10  1  1  0  0  0
  4  1  1  0  0  0  0
  5  7  2  0  0  0  0
  6 11  1  0  0  0  0
  7  6  1  0  0  0  0
  8  9  1  0  0  0  0
 10  9  2  0  0  0  0
 11 16  1  6  0  0  0
 11 12  1  0  0  0  0
 12 13  1  0  0  0  0
 13 14  1  0  0  0  0
 15 13  2  0  0  0  0
 17 20  1  0  0  0  0
 17 18  1  0  0  0  0
 18 19  1  0  0  0  0
 18 21  1  0  0  0  0
 20 16  1  1  0  0  0
 20 18  1  0  0  0  0
 22  5  1  0  0  0  0
 23 26  1  1  0  0  0
 24 28  1  0  0  0  0
 25 23  1  0  0  0  0
 27 24  1  0  0  0  0
 27 29  1  0  0  0  0
 28 25  2  0  0  0  0
 29 22  1  6  0  0  0
 29 23  1  0  0  0  0
M  END
>  <MODEL>
3

>  <REMARK>
 VINA RESULT:      -6.3      1.230      1.946
  Name = 
  8 active torsions:
  status: ('A' for Active; 'I' for Inactive)
    1  A    between atoms: C_4  and  N_20
    2  A    between atoms: C_15  and  N_25
    3  A    between atoms: C_16  and  C_17
    4  A    between atoms: C_17  and  C_21
    5  A    between atoms: C_21  and  N_24
    6  A    between atoms: C_21  and  C_27
    7  A    between atoms: C_23  and  C_27
    8  A    between atoms: N_25  and  C_28
                            x       y       z     vdW  Elec       q    Type
                         _______ _______ _______ _____ _____    ______ ____

>  <TORSDO>
F 8

$$$$
=
 OpenBabel11062422463D

 29 31  0  0  1  0  0  0  0  0999 V2000
  189.1100  174.6670  143.2120 C   0  0  0  0  0  0  0  0  0  0  0  0
  188.3730  175.7290  143.5400 C   0  0  0  0  0  3  0  0  0  0  0  0
  190.5570  174.5440  143.6410 C   0  0  1  0  0  3  0  0  0  0  0  0
  188.5000  173.6010  142.3700 C   0  0  0  0  0  1  0  0  0  0  0  0
  188.9150  176.8320  144.3450 C   0  0  0  0  0  0  0  0  0  0  0  0
  191.0520  175.7060  144.3990 N   0  0  0  0  0  0  0  0  0  0  0  0
  190.1880  176.8030  144.7440 C   0  0  0  0  0  3  0  0  0  0  0  0
  192.2160  172.3150  142.5970 C   0  0  0  0  0  1  0  0  0  0  0  0
  191.5250  172.3170  143.9250 C   0  0  0  0  0  3  0  0  0  0  0  0
  190.8060  173.3010  144.3560 N   0  0  0  0  0  0  0  0  0  0  0  0
  192.4640  175.7330  144.7760 C   0  0  2  0  0  3  0  0  0  0  0  0
  192.6560  176.2490  146.2010 C   0  0  0  0  0  2  0  0  0  0  0  0
  194.1040  176.4010  146.5070 C   0  0  0  0  0  0  0  0  0  0  0  0
  194.9420  175.2930  146.4740 O   0  0  0  0  0  0  0  0  0  0  0  0
  194.5650  177.5310  146.8150 O   0  0  0  0  0  1  0  0  0  0  0  0
  193.3280  176.4710  143.7480 C   0  0  0  0  0  2  0  0  0  0  0  0
  194.7940  176.3010  141.7850 N   0  0  0  0  0  2  0  0  0  0  0  0
  195.5670  175.7880  142.9210 C   0  0  0  0  0  0  0  0  0  0  0  0
  196.4450  174.7740  142.5400 O   0  0  0  0  0  1  0  0  0  0  0  0
  194.1320  175.5260  142.8590 C   0  0  1  0  0  3  0  0  0  0  0  0
  196.0760  176.8170  143.7160 O   0  0  0  0  0  1  0  0  0  0  0  0
  188.0590  177.9260  144.6900 N   0  0  0  0  0  2  0  0  0  0  0  0
  185.9250  179.0490  144.3470 C   0  0  2  0  0  3  0  0  0  0  0  0
  184.8020  177.5010  146.5030 C   0  0  0  0  0  2  0  0  0  0  0  0
  184.5530  179.1730  144.8130 N   0  0  0  0  0  0  0  0  0  0  0  0
  185.9470  179.0570  142.8950 N   0  0  0  0  0  1  0  0  0  0  0  0
  186.3060  177.6590  146.3540 C   0  0  0  0  0  2  0  0  0  0  0  0
  184.0800  178.5360  145.7860 N   0  0  0  0  0  0  0  0  0  0  0  0
  186.6190  177.7990  144.8760 C   0  0  2  0  0  3  0  0  0  0  0  0
  1  2  2  0  0  0  0
  1  3  1  0  0  0  0
  2  5  1  0  0  0  0
  3 10  1  1  0  0  0
  3  6  1  0  0  0  0
  4  1  1  0  0  0  0
  5 22  1  0  0  0  0
  5  7  2  0  0  0  0
  6  7  1  0  0  0  0
  6 11  1  0  0  0  0
  8  9  1  0  0  0  0
  9 10  2  0  0  0  0
 11 16  1  6  0  0  0
 11 12  1  0  0  0  0
 12 13  1  0  0  0  0
 13 15  1  0  0  0  0
 14 13  2  0  0  0  0
 17 20  1  0  0  0  0
 17 18  1  0  0  0  0
 18 21  1  0  0  0  0
 19 18  1  0  0  0  0
 20 18  1  0  0  0  0
 20 16  1  1  0  0  0
 23 26  1  6  0  0  0
 23 25  1  0  0  0  0
 23 29  1  0  0  0  0
 25 28  2  0  0  0  0
 27 24  1  0  0  0  0
 28 24  1  0  0  0  0
 29 22  1  1  0  0  0
 29 27  1  0  0  0  0
M  END
>  <MODEL>
4

>  <REMARK>
 VINA RESULT:      -6.3      1.785      2.186
  Name = 
  8 active torsions:
  status: ('A' for Active; 'I' for Inactive)
    1  A    between atoms: C_4  and  N_20
    2  A    between atoms: C_15  and  N_25
    3  A    between atoms: C_16  and  C_17
    4  A    between atoms: C_17  and  C_21
    5  A    between atoms: C_21  and  N_24
    6  A    between atoms: C_21  and  C_27
    7  A    between atoms: C_23  and  C_27
    8  A    between atoms: N_25  and  C_28
                            x       y       z     vdW  Elec       q    Type
                         _______ _______ _______ _____ _____    ______ ____

>  <TORSDO>
F 8

$$$$
=
 OpenBabel11062422463D

 29 31  0  0  1  0  0  0  0  0999 V2000
  188.0600  177.2290  145.8230 C   0  0  0  0  0  0  0  0  0  0  0  0
  187.4490  177.6820  144.7270 C   0  0  0  0  0  3  0  0  0  0  0  0
  189.4610  176.6570  145.7690 C   0  0  1  0  0  3  0  0  0  0  0  0
  187.3250  177.2520  147.1170 C   0  0  0  0  0  1  0  0  0  0  0  0
  188.1010  177.6650  143.4110 C   0  0  0  0  0  0  0  0  0  0  0  0
  190.0360  176.6220  144.4130 N   0  0  0  0  0  0  0  0  0  0  0  0
  189.3290  177.1600  143.2820 C   0  0  0  0  0  3  0  0  0  0  0  0
  190.8890  175.2910  147.9830 C   0  0  0  0  0  1  0  0  0  0  0  0
  190.9880  176.7520  147.6750 C   0  0  0  0  0  3  0  0  0  0  0  0
  190.3550  177.3240  146.7050 N   0  0  0  0  0  0  0  0  0  0  0  0
  191.3470  175.9980  144.2360 C   0  0  2  0  0  3  0  0  0  0  0  0
  192.0080  176.4390  142.9320 C   0  0  0  0  0  2  0  0  0  0  0  0
  193.4570  176.1060  142.9460 C   0  0  0  0  0  0  0  0  0  0  0  0
  194.2300  176.4120  144.0590 O   0  0  0  0  0  1  0  0  0  0  0  0
  193.9870  175.5630  141.9410 O   0  0  0  0  0  0  0  0  0  0  0  0
  191.2930  174.4750  144.3970 C   0  0  0  0  0  2  0  0  0  0  0  0
  191.1030  172.3930  143.1070 N   0  0  0  0  0  2  0  0  0  0  0  0
  189.7720  172.6540  143.6640 C   0  0  0  0  0  0  0  0  0  0  0  0
  188.7560  172.2100  142.8190 O   0  0  0  0  0  1  0  0  0  0  0  0
  190.5960  173.7780  143.2310 C   0  0  1  0  0  3  0  0  0  0  0  0
  189.6880  172.3020  145.0130 O   0  0  0  0  0  1  0  0  0  0  0  0
  187.4010  178.1990  142.2820 N   0  0  0  0  0  2  0  0  0  0  0  0
  185.7730  178.1480  140.4710 C   0  0  2  0  0  3  0  0  0  0  0  0
  183.6530  178.2790  142.4200 C   0  0  0  0  0  2  0  0  0  0  0  0
  184.3580  178.1820  140.1370 N   0  0  0  0  0  0  0  0  0  0  0  0
  186.4430  177.1630  139.6410 N   0  0  0  0  0  1  0  0  0  0  0  0
  185.0710  178.6880  142.7790 C   0  0  0  0  0  2  0  0  0  0  0  0
  183.4370  178.2920  140.9840 N   0  0  0  0  0  0  0  0  0  0  0  0
  186.0260  177.8520  141.9460 C   0  0  2  0  0  3  0  0  0  0  0  0
  1  4  1  0  0  0  0
  2  1  2  0  0  0  0
  3  1  1  0  0  0  0
  3 10  1  1  0  0  0
  5  2  1  0  0  0  0
  6  3  1  0  0  0  0
  7  5  2  0  0  0  0
  7  6  1  0  0  0  0
  9  8  1  0  0  0  0
 10  9  2  0  0  0  0
 11 12  1  6  0  0  0
 11 16  1  0  0  0  0
 11  6  1  0  0  0  0
 12 13  1  0  0  0  0
 13 14  1  0  0  0  0
 15 13  2  0  0  0  0
 17 20  1  0  0  0  0
 17 18  1  0  0  0  0
 18 21  1  0  0  0  0
 19 18  1  0  0  0  0
 20 18  1  0  0  0  0
 20 16  1  1  0  0  0
 22  5  1  0  0  0  0
 23 26  1  6  0  0  0
 23 29  1  0  0  0  0
 24 27  1  0  0  0  0
 25 23  1  0  0  0  0
 25 28  2  0  0  0  0
 28 24  1  0  0  0  0
 29 22  1  1  0  0  0
 29 27  1  0  0  0  0
M  END
>  <MODEL>
5

>  <REMARK>
 VINA RESULT:      -6.1      2.415      4.544
  Name = 
  8 active torsions:
  status: ('A' for Active; 'I' for Inactive)
    1  A    between atoms: C_4  and  N_20
    2  A    between atoms: C_15  and  N_25
    3  A    between atoms: C_16  and  C_17
    4  A    between atoms: C_17  and  C_21
    5  A    between atoms: C_21  and  N_24
    6  A    between atoms: C_21  and  C_27
    7  A    between atoms: C_23  and  C_27
    8  A    between atoms: N_25  and  C_28
                            x       y       z     vdW  Elec       q    Type
                         _______ _______ _______ _____ _____    ______ ____

>  <TORSDO>
F 8

$$$$
=
 OpenBabel11062422463D

 29 31  0  0  1  0  0  0  0  0999 V2000
  191.6080  176.1120  147.0680 C   0  0  0  0  0  0  0  0  0  0  0  0
  192.8640  175.7130  146.8630 C   0  0  0  0  0  3  0  0  0  0  0  0
  190.5280  175.8920  146.0300 C   0  0  1  0  0  3  0  0  0  0  0  0
  191.2780  176.8270  148.3320 C   0  0  0  0  0  1  0  0  0  0  0  0
  193.2700  175.0260  145.6300 C   0  0  0  0  0  0  0  0  0  0  0  0
  191.0130  175.2470  144.7970 N   0  0  0  0  0  0  0  0  0  0  0  0
  192.3770  174.8130  144.6620 C   0  0  0  0  0  3  0  0  0  0  0  0
  187.8710  177.1240  146.5100 C   0  0  0  0  0  1  0  0  0  0  0  0
  188.2160  175.6970  146.7990 C   0  0  0  0  0  3  0  0  0  0  0  0
  189.3820  175.1840  146.5820 N   0  0  0  0  0  0  0  0  0  0  0  0
  190.0710  175.0760  143.6920 C   0  0  2  0  0  3  0  0  0  0  0  0
  190.3560  173.8020  142.9010 C   0  0  0  0  0  2  0  0  0  0  0  0
  189.4330  172.7130  143.3200 C   0  0  0  0  0  0  0  0  0  0  0  0
  189.5520  172.1490  144.5850 O   0  0  0  0  0  1  0  0  0  0  0  0
  188.5570  172.2900  142.5220 O   0  0  0  0  0  0  0  0  0  0  0  0
  189.9800  176.3250  142.8080 C   0  0  0  0  0  2  0  0  0  0  0  0
  188.4220  177.8720  141.7070 N   0  0  0  0  0  2  0  0  0  0  0  0
  187.7050  176.6000  141.8500 C   0  0  0  0  0  0  0  0  0  0  0  0
  186.3380  176.7900  142.0480 O   0  0  0  0  0  1  0  0  0  0  0  0
  188.6250  177.0230  142.9020 C   0  0  1  0  0  3  0  0  0  0  0  0
  188.0950  175.6660  140.8880 O   0  0  0  0  0  1  0  0  0  0  0  0
  194.6270  174.5930  145.4900 N   0  0  0  0  0  2  0  0  0  0  0  0
  196.8570  174.3270  144.5450 C   0  0  2  0  0  3  0  0  0  0  0  0
  196.4980  176.7890  143.0900 C   0  0  0  0  0  2  0  0  0  0  0  0
  197.8630  174.9150  143.6760 N   0  0  0  0  0  0  0  0  0  0  0  0
  196.7940  172.8950  144.3140 N   0  0  0  0  0  1  0  0  0  0  0  0
  195.6310  176.4580  144.2930 C   0  0  0  0  0  2  0  0  0  0  0  0
  197.7260  176.0140  143.0840 N   0  0  0  0  0  0  0  0  0  0  0  0
  195.4770  174.9490  144.3600 C   0  0  2  0  0  3  0  0  0  0  0  0
  1  4  1  0  0  0  0
  2  1  2  0  0  0  0
  3 10  1  1  0  0  0
  3  1  1  0  0  0  0
  5  2  1  0  0  0  0
  6  3  1  0  0  0  0
  7  6  1  0  0  0  0
  7  5  2  0  0  0  0
  8  9  1  0  0  0  0
 10  9  2  0  0  0  0
 11 16  1  6  0  0  0
 11  6  1  0  0  0  0
 12 13  1  0  0  0  0
 12 11  1  0  0  0  0
 13 14  1  0  0  0  0
 15 13  2  0  0  0  0
 17 18  1  0  0  0  0
 17 20  1  0  0  0  0
 18 19  1  0  0  0  0
 18 20  1  0  0  0  0
 20 16  1  6  0  0  0
 21 18  1  0  0  0  0
 22  5  1  0  0  0  0
 23 26  1  6  0  0  0
 24 27  1  0  0  0  0
 25 23  1  0  0  0  0
 27 29  1  0  0  0  0
 28 24  1  0  0  0  0
 28 25  2  0  0  0  0
 29 23  1  0  0  0  0
 29 22  1  1  0  0  0
M  END
>  <MODEL>
6

>  <REMARK>
 VINA RESULT:      -6.1      3.269      8.125
  Name = 
  8 active torsions:
  status: ('A' for Active; 'I' for Inactive)
    1  A    between atoms: C_4  and  N_20
    2  A    between atoms: C_15  and  N_25
    3  A    between atoms: C_16  and  C_17
    4  A    between atoms: C_17  and  C_21
    5  A    between atoms: C_21  and  N_24
    6  A    between atoms: C_21  and  C_27
    7  A    between atoms: C_23  and  C_27
    8  A    between atoms: N_25  and  C_28
                            x       y       z     vdW  Elec       q    Type
                         _______ _______ _______ _____ _____    ______ ____

>  <TORSDO>
F 8

$$$$
=
 OpenBabel11062422463D

 29 31  0  0  1  0  0  0  0  0999 V2000
  191.4630  176.5030  146.5500 C   0  0  0  0  0  0  0  0  0  0  0  0
  192.6370  176.4040  145.9250 C   0  0  0  0  0  3  0  0  0  0  0  0
  190.1560  176.4950  145.7860 C   0  0  1  0  0  3  0  0  0  0  0  0
  191.4480  176.6660  148.0300 C   0  0  0  0  0  1  0  0  0  0  0  0
  192.7310  176.2680  144.4650 C   0  0  0  0  0  0  0  0  0  0  0  0
  190.3240  176.4100  144.3240 N   0  0  0  0  0  0  0  0  0  0  0  0
  191.6230  176.2720  143.7230 C   0  0  0  0  0  3  0  0  0  0  0  0
  187.6260  177.0480  147.2360 C   0  0  0  0  0  1  0  0  0  0  0  0
  188.1420  175.6820  146.9060 C   0  0  0  0  0  3  0  0  0  0  0  0
  189.2480  175.4680  146.2750 N   0  0  0  0  0  0  0  0  0  0  0  0
  189.1280  176.4940  143.4870 C   0  0  2  0  0  3  0  0  0  0  0  0
  189.4250  176.1030  142.0410 C   0  0  0  0  0  2  0  0  0  0  0  0
  188.4740  175.0570  141.5800 C   0  0  0  0  0  0  0  0  0  0  0  0
  187.4110  174.6790  142.3900 O   0  0  0  0  0  1  0  0  0  0  0  0
  188.6440  174.5010  140.4630 O   0  0  0  0  0  0  0  0  0  0  0  0
  188.4260  177.8510  143.6110 C   0  0  0  0  0  2  0  0  0  0  0  0
  186.2840  179.0480  143.7070 N   0  0  0  0  0  2  0  0  0  0  0  0
  186.1350  178.0240  142.6670 C   0  0  0  0  0  0  0  0  0  0  0  0
  184.8310  177.5380  142.5950 O   0  0  0  0  0  1  0  0  0  0  0  0
  186.9250  177.7230  143.8580 C   0  0  1  0  0  3  0  0  0  0  0  0
  186.7530  178.3960  141.4710 O   0  0  0  0  0  1  0  0  0  0  0  0
  194.0220  176.1310  143.8620 N   0  0  0  0  0  2  0  0  0  0  0  0
  196.4130  175.7130  143.6520 C   0  0  2  0  0  3  0  0  0  0  0  0
  196.2100  173.7120  145.7180 C   0  0  0  0  0  2  0  0  0  0  0  0
  197.5310  174.9150  144.1290 N   0  0  0  0  0  0  0  0  0  0  0  0
  196.8340  177.0940  143.4980 N   0  0  0  0  0  1  0  0  0  0  0  0
  194.9790  174.1840  144.9610 C   0  0  0  0  0  2  0  0  0  0  0  0
  197.4320  174.0070  144.9910 N   0  0  0  0  0  0  0  0  0  0  0  0
  195.1970  175.6340  144.5690 C   0  0  2  0  0  3  0  0  0  0  0  0
  1  4  1  0  0  0  0
  2  1  2  0  0  0  0
  3 10  1  1  0  0  0
  3  1  1  0  0  0  0
  5  2  1  0  0  0  0
  6  3  1  0  0  0  0
  7  6  1  0  0  0  0
  7  5  2  0  0  0  0
  9  8  1  0  0  0  0
 10  9  2  0  0  0  0
 11 12  1  6  0  0  0
 11 16  1  0  0  0  0
 11  6  1  0  0  0  0
 13 12  1  0  0  0  0
 13 14  1  0  0  0  0
 15 13  2  0  0  0  0
 17 20  1  0  0  0  0
 18 17  1  0  0  0  0
 18 20  1  0  0  0  0
 19 18  1  0  0  0  0
 20 16  1  6  0  0  0
 21 18  1  0  0  0  0
 22  5  1  0  0  0  0
 23 26  1  1  0  0  0
 23 25  1  0  0  0  0
 23 29  1  0  0  0  0
 25 28  2  0  0  0  0
 27 24  1  0  0  0  0
 28 24  1  0  0  0  0
 29 22  1  6  0  0  0
 29 27  1  0  0  0  0
M  END
>  <MODEL>
7

>  <REMARK>
 VINA RESULT:      -6.1      3.423      8.275
  Name = 
  8 active torsions:
  status: ('A' for Active; 'I' for Inactive)
    1  A    between atoms: C_4  and  N_20
    2  A    between atoms: C_15  and  N_25
    3  A    between atoms: C_16  and  C_17
    4  A    between atoms: C_17  and  C_21
    5  A    between atoms: C_21  and  N_24
    6  A    between atoms: C_21  and  C_27
    7  A    between atoms: C_23  and  C_27
    8  A    between atoms: N_25  and  C_28
                            x       y       z     vdW  Elec       q    Type
                         _______ _______ _______ _____ _____    ______ ____

>  <TORSDO>
F 8

$$$$
=
 OpenBabel11062422463D

 29 31  0  0  1  0  0  0  0  0999 V2000
  190.9930  176.5690  146.9880 C   0  0  0  0  0  0  0  0  0  0  0  0
  189.6760  176.6500  146.7910 C   0  0  0  0  0  3  0  0  0  0  0  0
  191.9120  175.9500  145.9570 C   0  0  1  0  0  3  0  0  0  0  0  0
  191.5590  177.0640  148.2740 C   0  0  0  0  0  1  0  0  0  0  0  0
  189.0430  176.1580  145.5600 C   0  0  0  0  0  0  0  0  0  0  0  0
  191.2070  175.4300  144.7710 N   0  0  0  0  0  0  0  0  0  0  0  0
  189.7860  175.5830  144.6130 C   0  0  0  0  0  3  0  0  0  0  0  0
  194.7980  175.2830  146.1370 C   0  0  0  0  0  1  0  0  0  0  0  0
  194.2510  176.5870  145.6460 C   0  0  0  0  0  3  0  0  0  0  0  0
  192.9880  176.8530  145.5780 N   0  0  0  0  0  0  0  0  0  0  0  0
  191.9910  174.7240  143.7580 C   0  0  2  0  0  3  0  0  0  0  0  0
  191.9100  175.4170  142.4000 C   0  0  0  0  0  2  0  0  0  0  0  0
  193.2340  175.3890  141.7230 C   0  0  0  0  0  0  0  0  0  0  0  0
  193.4170  174.6080  140.5880 O   0  0  0  0  0  0  0  0  0  0  0  0
  194.1930  176.0570  142.1900 O   0  0  0  0  0  1  0  0  0  0  0  0
  191.6470  173.2320  143.6930 C   0  0  0  0  0  2  0  0  0  0  0  0
  190.4690  171.4360  142.5010 N   0  0  0  0  0  2  0  0  0  0  0  0
  189.4330  172.2520  143.1430 C   0  0  0  0  0  0  0  0  0  0  0  0
  188.2590  172.2920  142.3920 O   0  0  0  0  0  1  0  0  0  0  0  0
  190.6240  172.9040  142.6080 C   0  0  1  0  0  3  0  0  0  0  0  0
  189.3170  171.9750  144.5070 O   0  0  0  0  0  1  0  0  0  0  0  0
  187.6290  176.3080  145.3980 N   0  0  0  0  0  2  0  0  0  0  0  0
  185.6880  177.3770  146.4100 C   0  0  2  0  0  3  0  0  0  0  0  0
  185.7920  179.4150  144.3730 C   0  0  0  0  0  2  0  0  0  0  0  0
  184.7460  178.4810  146.3100 N   0  0  0  0  0  0  0  0  0  0  0  0
  186.0720  177.1910  147.7980 N   0  0  0  0  0  1  0  0  0  0  0  0
  186.4910  178.0790  144.1810 C   0  0  0  0  0  2  0  0  0  0  0  0
  184.7600  179.3380  145.3920 N   0  0  0  0  0  0  0  0  0  0  0  0
  186.9280  177.5780  145.5450 C   0  0  2  0  0  3  0  0  0  0  0  0
  1  4  1  0  0  0  0
  2  1  2  0  0  0  0
  3 10  1  6  0  0  0
  3  1  1  0  0  0  0
  5  2  1  0  0  0  0
  6  3  1  0  0  0  0
  7  6  1  0  0  0  0
  7  5  2  0  0  0  0
  9  8  1  0  0  0  0
 10  9  2  0  0  0  0
 11 12  1  6  0  0  0
 11  6  1  0  0  0  0
 13 15  1  0  0  0  0
 13 12  1  0  0  0  0
 14 13  2  0  0  0  0
 16 11  1  0  0  0  0
 17 20  1  0  0  0  0
 17 18  1  0  0  0  0
 18 21  1  0  0  0  0
 19 18  1  0  0  0  0
 20 18  1  0  0  0  0
 20 16  1  1  0  0  0
 22  5  1  0  0  0  0
 23 26  1  1  0  0  0
 24 28  1  0  0  0  0
 25 23  1  0  0  0  0
 27 24  1  0  0  0  0
 27 29  1  0  0  0  0
 28 25  2  0  0  0  0
 29 22  1  6  0  0  0
 29 23  1  0  0  0  0
M  END
>  <MODEL>
8

>  <REMARK>
 VINA RESULT:      -5.9      2.525      4.988
  Name = 
  8 active torsions:
  status: ('A' for Active; 'I' for Inactive)
    1  A    between atoms: C_4  and  N_20
    2  A    between atoms: C_15  and  N_25
    3  A    between atoms: C_16  and  C_17
    4  A    between atoms: C_17  and  C_21
    5  A    between atoms: C_21  and  N_24
    6  A    between atoms: C_21  and  C_27
    7  A    between atoms: C_23  and  C_27
    8  A    between atoms: N_25  and  C_28
                            x       y       z     vdW  Elec       q    Type
                         _______ _______ _______ _____ _____    ______ ____

>  <TORSDO>
F 8

$$$$
=
 OpenBabel11062422463D

 29 31  0  0  1  0  0  0  0  0999 V2000
  191.2590  176.0260  145.7160 C   0  0  0  0  0  0  0  0  0  0  0  0
  190.2000  176.2600  146.4920 C   0  0  0  0  0  3  0  0  0  0  0  0
  191.1160  175.8110  144.2240 C   0  0  1  0  0  3  0  0  0  0  0  0
  192.6050  175.9360  146.3450 C   0  0  0  0  0  1  0  0  0  0  0  0
  188.8380  176.3350  145.9460 C   0  0  0  0  0  0  0  0  0  0  0  0
  189.7210  175.8480  143.7510 N   0  0  0  0  0  0  0  0  0  0  0  0
  188.6310  176.1380  144.6430 C   0  0  0  0  0  3  0  0  0  0  0  0
  193.5170  174.9850  142.6870 C   0  0  0  0  0  1  0  0  0  0  0  0
  193.0050  176.3880  142.7840 C   0  0  0  0  0  3  0  0  0  0  0  0
  191.9570  176.7230  143.4620 N   0  0  0  0  0  0  0  0  0  0  0  0
  189.4630  175.5540  142.3410 C   0  0  2  0  0  3  0  0  0  0  0  0
  187.9960  175.7760  141.9800 C   0  0  0  0  0  2  0  0  0  0  0  0
  187.8290  177.0620  141.2520 C   0  0  0  0  0  0  0  0  0  0  0  0
  186.9830  177.1340  140.1530 O   0  0  0  0  0  0  0  0  0  0  0  0
  188.4710  178.0800  141.6210 O   0  0  0  0  0  1  0  0  0  0  0  0
  189.9810  174.1710  141.9310 C   0  0  0  0  0  2  0  0  0  0  0  0
  190.8620  173.2930  139.8130 N   0  0  0  0  0  2  0  0  0  0  0  0
  189.7790  172.3890  140.2140 C   0  0  0  0  0  0  0  0  0  0  0  0
  189.1080  171.8580  139.1130 O   0  0  0  0  0  1  0  0  0  0  0  0
  189.6510  173.8180  140.4830 C   0  0  1  0  0  3  0  0  0  0  0  0
  190.1790  171.5020  141.2160 O   0  0  0  0  0  1  0  0  0  0  0  0
  187.7500  176.6240  146.8300 N   0  0  0  0  0  2  0  0  0  0  0  0
  186.1050  178.1210  147.8230 C   0  0  2  0  0  3  0  0  0  0  0  0
  184.5160  177.9090  145.4270 C   0  0  0  0  0  2  0  0  0  0  0  0
  184.8240  178.7830  147.6310 N   0  0  0  0  0  0  0  0  0  0  0  0
  187.0390  179.0430  148.4430 N   0  0  0  0  0  1  0  0  0  0  0  0
  185.5850  176.8790  145.7500 C   0  0  0  0  0  2  0  0  0  0  0  0
  184.1080  178.6480  146.6080 N   0  0  0  0  0  0  0  0  0  0  0  0
  186.6900  177.5760  146.5240 C   0  0  2  0  0  3  0  0  0  0  0  0
  1  4  1  0  0  0  0
  1  2  2  0  0  0  0
  3 10  1  6  0  0  0
  3  1  1  0  0  0  0
  5  2  1  0  0  0  0
  5 22  1  0  0  0  0
  6  3  1  0  0  0  0
  6  7  1  0  0  0  0
  7  5  2  0  0  0  0
  8  9  1  0  0  0  0
  9 10  2  0  0  0  0
 11 16  1  1  0  0  0
 11  6  1  0  0  0  0
 12 11  1  0  0  0  0
 13 15  1  0  0  0  0
 13 12  1  0  0  0  0
 14 13  2  0  0  0  0
 17 18  1  0  0  0  0
 17 20  1  0  0  0  0
 18 20  1  0  0  0  0
 18 21  1  0  0  0  0
 19 18  1  0  0  0  0
 20 16  1  1  0  0  0
 23 26  1  6  0  0  0
 24 27  1  0  0  0  0
 24 28  1  0  0  0  0
 25 23  1  0  0  0  0
 27 29  1  0  0  0  0
 28 25  2  0  0  0  0
 29 22  1  1  0  0  0
 29 23  1  0  0  0  0
M  END
>  <MODEL>
9

>  <REMARK>
 VINA RESULT:      -5.9      3.484      5.313
  Name = 
  8 active torsions:
  status: ('A' for Active; 'I' for Inactive)
    1  A    between atoms: C_4  and  N_20
    2  A    between atoms: C_15  and  N_25
    3  A    between atoms: C_16  and  C_17
    4  A    between atoms: C_17  and  C_21
    5  A    between atoms: C_21  and  N_24
    6  A    between atoms: C_21  and  C_27
    7  A    between atoms: C_23  and  C_27
    8  A    between atoms: N_25  and  C_28
                            x       y       z     vdW  Elec       q    Type
                         _______ _______ _______ _____ _____    ______ ____

>  <TORSDO>
F 8

$$$$
