=
 OpenBabel11072409423D

 70 78  0  0  1  0  0  0  0  0999 V2000
  189.4010  175.0610  146.9700 C   0  0  0  0  0  2  0  0  0  0  0  0
  188.5600  174.9250  145.7220 C   0  0  2  0  0  3  0  0  0  0  0  0
  189.5520  174.6020  144.6450 C   0  0  0  0  0  2  0  0  0  0  0  0
  190.6330  173.8510  145.3860 C   0  0  2  0  0  3  0  0  0  0  0  0
  190.6440  174.3260  146.7650 N   0  0  0  0  0  2  0  0  0  0  0  0
  191.9930  174.0830  144.7490 C   0  0  0  0  0  2  0  0  0  0  0  0
  192.4500  169.7800  142.3640 C   0  0  0  0  0  3  0  0  0  0  0  0
  192.0930  173.3850  143.4710 N   0  0  0  0  0  0  0  0  0  0  0  0
  193.4660  170.0630  144.5320 C   0  0  0  0  0  3  0  0  0  0  0  0
  190.2460  172.6590  141.4640 C   0  0  0  0  0  2  0  0  0  0  0  0
  192.0920  174.2370  142.2780 C   0  0  2  0  0  3  0  0  0  0  0  0
  193.1040  171.4090  144.5180 C   0  0  0  0  0  3  0  0  0  0  0  0
  191.3180  171.6450  141.1100 C   0  0  1  0  0  3  0  0  0  0  0  0
  193.1450  169.2490  143.4500 C   0  0  0  0  0  3  0  0  0  0  0  0
  192.0500  171.1290  142.3380 C   0  0  0  0  0  0  0  0  0  0  0  0
  192.4110  171.9700  143.4310 C   0  0  0  0  0  0  0  0  0  0  0  0
  190.8200  174.0710  141.4350 C   0  0  0  0  0  2  0  0  0  0  0  0
  194.7320  174.8280  139.6010 C   0  0  0  0  0  3  0  0  0  0  0  0
  194.4620  173.3550  141.9620 C   0  0  0  0  0  3  0  0  0  0  0  0
  193.5390  174.8840  140.3290 C   0  0  0  0  0  3  0  0  0  0  0  0
  193.3950  174.1530  141.5170 C   0  0  0  0  0  0  0  0  0  0  0  0
  195.7940  174.0240  140.0440 C   0  0  0  0  0  0  0  0  0  0  0  0
  195.6550  173.2980  141.2350 C   0  0  0  0  0  3  0  0  0  0  0  0
  197.9390  173.0680  139.8810 F   0  0  0  0  0  0  0  0  0  0  0  0
  196.8780  173.6400  137.9760 F   0  0  0  0  0  0  0  0  0  0  0  0
  197.0960  173.9950  139.2960 C   0  0  0  0  0  0  0  0  0  0  0  0
  197.7040  175.2370  139.3240 F   0  0  0  0  0  0  0  0  0  0  0  0
  190.6910  170.5420  140.2650 C   0  0  0  0  0  2  0  0  0  0  0  0
  191.4440  170.4140  138.9490 C   0  0  2  0  0  3  0  0  0  0  0  0
  191.8260  172.2610  137.3530 C   0  0  1  0  0  3  0  0  0  0  0  0
  192.2740  171.6750  138.6990 C   0  0  2  0  0  3  0  0  0  0  0  0
  189.6990  169.3710  137.5420 C   0  0  0  0  0  1  0  0  0  0  0  0
  190.5000  170.3930  137.8110 C   0  0  0  0  0  0  0  0  0  0  0  0
  190.7410  171.4230  136.8730 N   0  0  0  0  0  0  0  0  0  0  0  0
  190.2590  173.9110  138.0620 O   0  0  0  0  0  0  0  0  0  0  0  0
  192.1690  174.7630  137.0530 N   0  0  0  0  0  1  0  0  0  0  0  0
  191.3740  173.6780  137.5250 C   0  0  0  0  0  0  0  0  0  0  0  0
  194.8210  171.0580  138.5910 N   0  0  0  0  0  0  0  0  0  0  0  0
  193.6970  171.3320  138.6380 C   0  0  0  0  0  0  0  0  0  0  0  0
  187.8330  176.2260  145.4240 C   0  0  0  0  0  2  0  0  0  0  0  0
  188.8200  177.3660  145.1980 C   0  0  0  0  0  2  0  0  0  0  0  0
  188.8000  177.8130  143.7700 C   0  0  0  0  0  0  0  0  0  0  0  0
  189.8480  177.6750  142.9450 C   0  0  0  0  0  3  0  0  0  0  0  0
  187.5810  178.3220  143.2390 N   0  0  0  0  0  0  0  0  0  0  0  0
  185.3100  177.7750  142.1530 C   0  0  2  0  0  3  0  0  0  0  0  0
  186.6540  178.4810  142.1850 C   0  0  2  0  0  0  0  0  0  0  0  0
  186.4470  177.1080  141.8340 O   0  0  0  0  0  0  0  0  0  0  0  0
  185.5430  179.8780  144.1120 N   0  0  0  0  0  2  0  0  0  0  0  0
  186.3080  179.1160  143.3990 C   0  0  0  0  0  0  0  0  0  0  0  0
  184.5990  178.1220  140.9350 N   0  0  0  0  0  2  0  0  0  0  0  0
  182.1830  178.2480  140.6270 C   0  0  1  0  0  0  0  0  0  0  0  0
  182.5020  177.8280  141.9280 O   0  0  0  0  0  0  0  0  0  0  0  0
  183.3690  178.7810  141.3470 C   0  0  1  0  0  3  0  0  0  0  0  0
  182.3410  177.1290  139.6040 C   0  0  0  0  0  1  0  0  0  0  0  0
  180.9560  179.1490  140.5880 C   0  0  0  0  0  2  0  0  0  0  0  0
  179.6750  178.3490  140.4050 C   0  0  0  0  0  2  0  0  0  0  0  0
  179.3940  177.6230  141.5620 O   0  0  0  0  0  0  0  0  0  0  0  0
  178.8820  178.5660  142.4510 C   0  0  0  0  0  1  0  0  0  0  0  0
  191.1290  177.2070  143.2840 O   0  0  0  0  0  0  0  0  0  0  0  0
  192.0870  177.9070  144.0750 C   0  0  0  0  0  2  0  0  0  0  0  0
  193.2480  176.9960  144.4540 C   0  0  0  0  0  2  0  0  0  0  0  0
  194.2380  177.7170  145.1240 O   0  0  0  0  0  0  0  0  0  0  0  0
  195.4170  176.3420  143.5900 C   0  0  1  0  0  3  0  0  0  0  0  0
  196.7420  176.1420  143.1920 O   0  0  0  0  0  1  0  0  0  0  0  0
  195.0180  175.4820  144.7970 C   0  0  2  0  0  3  0  0  0  0  0  0
  195.3950  176.9430  144.9830 C   0  0  2  0  0  3  0  0  0  0  0  0
  196.1240  174.4070  146.6930 F   0  0  0  0  0  0  0  0  0  0  0  0
  195.8550  173.2470  144.7740 O   0  0  0  0  0  1  0  0  0  0  0  0
  196.1030  174.5110  145.3080 C   0  0  0  0  0  0  0  0  0  0  0  0
  197.3430  174.9410  144.8680 F   0  0  0  0  0  0  0  0  0  0  0  0
  2 40  1  6  0  0  0
  2  1  1  0  0  0  0
  3  4  1  0  0  0  0
  3  2  1  0  0  0  0
  4  6  1  6  0  0  0
  4  5  1  0  0  0  0
  5  1  1  0  0  0  0
  7 14  1  0  0  0  0
  8  6  1  0  0  0  0
 11 21  1  6  0  0  0
 11  8  1  0  0  0  0
 12  9  1  0  0  0  0
 13 28  1  1  0  0  0
 13 10  1  0  0  0  0
 13 15  1  0  0  0  0
 14  9  2  0  0  0  0
 15  7  2  0  0  0  0
 15 16  1  0  0  0  0
 16  8  1  0  0  0  0
 16 12  2  0  0  0  0
 17 10  1  0  0  0  0
 17 11  1  0  0  0  0
 18 22  2  0  0  0  0
 18 20  1  0  0  0  0
 20 21  2  0  0  0  0
 21 19  1  0  0  0  0
 22 23  1  0  0  0  0
 23 19  2  0  0  0  0
 25 26  1  0  0  0  0
 26 27  1  0  0  0  0
 26 24  1  0  0  0  0
 26 22  1  0  0  0  0
 29 28  1  1  0  0  0
 30 37  1  1  0  0  0
 30 31  1  0  0  0  0
 31 39  1  6  0  0  0
 31 29  1  0  0  0  0
 32 33  1  0  0  0  0
 33 29  1  0  0  0  0
 34 30  1  0  0  0  0
 34 33  2  0  0  0  0
 36 37  1  0  0  0  0
 37 35  2  0  0  0  0
 38 39  3  0  0  0  0
 41 40  1  0  0  0  0
 42 41  1  0  0  0  0
 43 59  1  0  0  0  0
 43 42  2  0  0  0  0
 44 49  1  0  0  0  0
 44 42  1  0  0  0  0
 45 50  1  6  0  0  0
 45 46  1  0  0  0  0
 46 47  1  6  0  0  0
 46 44  1  0  0  0  0
 46 49  1  0  0  0  0
 47 45  1  0  0  0  0
 49 48  2  0  0  0  0
 51 54  1  6  0  0  0
 51 53  1  0  0  0  0
 51 52  1  0  0  0  0
 53 50  1  6  0  0  0
 53 52  1  0  0  0  0
 55 51  1  0  0  0  0
 56 55  1  0  0  0  0
 56 57  1  0  0  0  0
 57 58  1  0  0  0  0
 59 60  1  0  0  0  0
 60 61  1  0  0  0  0
 61 62  1  0  0  0  0
 63 64  1  1  0  0  0
 63 65  1  0  0  0  0
 63 66  1  0  0  0  0
 65 66  1  0  0  0  0
 65 69  1  1  0  0  0
 66 62  1  6  0  0  0
 68 69  1  0  0  0  0
 69 67  1  0  0  0  0
 70 69  1  0  0  0  0
M  END
>  <MODEL>
1

>  <REMARK>
 VINA RESULT:      -5.8      0.000      0.000
  Name = 
  23 active torsions:
  status: ('A' for Active; 'I' for Inactive)
    1  A    between atoms: O_1  and  C_37
    2  A    between atoms: O_1  and  C_40
    3  A    between atoms: C_2  and  C_8
    4  A    between atoms: C_3  and  C_50
    5  A    between atoms: N_4  and  C_7
    6  A    between atoms: C_6  and  C_19
    7  A    between atoms: C_6  and  C_36
    8  A    between atoms: C_7  and  C_19
    9  A    between atoms: C_8  and  C_14
   10  A    between atoms: O_9  and  C_14
   11  A    between atoms: C_10  and  N_20
   12  A    between atoms: C_10  and  C_41
   13  A    between atoms: C_16  and  N_48
   14  A    between atoms: C_24  and  C_68
   15  A    between atoms: C_27  and  C_63
   16  A    between atoms: C_28  and  C_59
   17  A    between atoms: C_31  and  C_60
   18  A    between atoms: C_32  and  C_58
   19  A    between atoms: C_33  and  O_39
   20  A    between atoms: O_39  and  C_49
   21  A    between atoms: C_40  and  C_49
   22  A    between atoms: C_47  and  N_48
   23  A    between atoms: C_50  and  C_51
                            x       y       z     vdW  Elec       q    Type
                         _______ _______ _______ _____ _____    ______ ____

>  <TORSDO>
F 23

$$$$
=
 OpenBabel11072409423D

 70 78  0  0  1  0  0  0  0  0999 V2000
  189.2240  175.9230  142.1850 C   0  0  0  0  0  2  0  0  0  0  0  0
  188.0560  174.9930  142.4070 C   0  0  2  0  0  3  0  0  0  0  0  0
  188.1940  173.9650  141.3230 C   0  0  0  0  0  2  0  0  0  0  0  0
  189.6870  173.8980  141.1010 C   0  0  2  0  0  3  0  0  0  0  0  0
  190.2500  175.2000  141.4420 N   0  0  0  0  0  2  0  0  0  0  0  0
  190.0080  173.5590  139.6550 C   0  0  0  0  0  2  0  0  0  0  0  0
  192.2070  169.4880  137.9210 C   0  0  0  0  0  3  0  0  0  0  0  0
  191.2230  172.7540  139.5690 N   0  0  0  0  0  0  0  0  0  0  0  0
  189.8570  169.4450  138.4590 C   0  0  0  0  0  3  0  0  0  0  0  0
  193.6190  172.9430  138.0880 C   0  0  0  0  0  2  0  0  0  0  0  0
  192.3810  173.2670  140.3070 C   0  0  2  0  0  3  0  0  0  0  0  0
  189.9600  170.7340  138.9790 C   0  0  0  0  0  3  0  0  0  0  0  0
  193.7010  171.4580  138.3910 C   0  0  1  0  0  3  0  0  0  0  0  0
  190.9840  168.8180  137.9350 C   0  0  0  0  0  3  0  0  0  0  0  0
  192.3310  170.8000  138.4150 C   0  0  0  0  0  0  0  0  0  0  0  0
  191.1830  171.4270  138.9840 C   0  0  0  0  0  0  0  0  0  0  0  0
  193.5090  173.7440  139.3800 C   0  0  0  0  0  2  0  0  0  0  0  0
  192.4060  170.3050  142.6970 C   0  0  0  0  0  3  0  0  0  0  0  0
  193.9250  172.6040  142.2230 C   0  0  0  0  0  3  0  0  0  0  0  0
  192.0440  171.1840  141.6720 C   0  0  0  0  0  3  0  0  0  0  0  0
  192.8020  172.3380  141.4230 C   0  0  0  0  0  0  0  0  0  0  0  0
  193.5250  170.5770  143.5000 C   0  0  0  0  0  0  0  0  0  0  0  0
  194.2880  171.7250  143.2480 C   0  0  0  0  0  3  0  0  0  0  0  0
  194.9170  168.7640  144.0640 F   0  0  0  0  0  0  0  0  0  0  0  0
  194.4750  170.3030  145.6510 F   0  0  0  0  0  0  0  0  0  0  0  0
  193.9510  169.6140  144.5710 C   0  0  0  0  0  0  0  0  0  0  0  0
  192.8750  168.8620  145.0080 F   0  0  0  0  0  0  0  0  0  0  0  0
  194.6720  170.8090  137.4110 C   0  0  0  0  0  2  0  0  0  0  0  0
  195.9210  170.3580  138.1530 C   0  0  2  0  0  3  0  0  0  0  0  0
  197.2850  171.7910  139.6320 C   0  0  1  0  0  3  0  0  0  0  0  0
  195.9690  171.0060  139.5380 C   0  0  2  0  0  3  0  0  0  0  0  0
  197.5750  170.4360  136.3170 C   0  0  0  0  0  2  0  0  0  0  0  0
  197.1360  170.8770  137.4880 C   0  0  0  0  0  0  0  0  0  0  0  0
  197.9410  171.6640  138.3420 N   0  0  0  0  0  2  0  0  0  0  0  0
  196.9210  174.0660  139.0220 O   0  0  0  0  0  0  0  0  0  0  0  0
  196.8990  173.6640  141.3090 N   0  0  0  0  0  1  0  0  0  0  0  0
  197.0130  173.2270  139.9560 C   0  0  0  0  0  0  0  0  0  0  0  0
  195.9090  169.1530  141.3930 N   0  0  0  0  0  0  0  0  0  0  0  0
  195.9370  169.9720  140.5750 C   0  0  0  0  0  0  0  0  0  0  0  0
  186.7420  175.7460  142.2820 C   0  0  0  0  0  2  0  0  0  0  0  0
  186.8860  177.1830  142.7700 C   0  0  0  0  0  2  0  0  0  0  0  0
  186.2070  177.3680  144.0910 C   0  0  0  0  0  0  0  0  0  0  0  0
  184.8920  177.5990  144.2120 C   0  0  0  0  0  3  0  0  0  0  0  0
  186.9780  177.1980  145.2760 N   0  0  0  0  0  0  0  0  0  0  0  0
  189.3320  177.0730  146.3150 C   0  0  2  0  0  3  0  0  0  0  0  0
  187.9470  176.5130  146.0420 C   0  0  2  0  0  0  0  0  0  0  0  0
  189.0380  176.5160  145.1130 O   0  0  0  0  0  0  0  0  0  0  0  0
  187.1790  178.4050  147.6920 N   0  0  0  0  0  2  0  0  0  0  0  0
  187.3560  177.6310  146.6710 C   0  0  0  0  0  0  0  0  0  0  0  0
  190.0990  176.1270  147.1060 N   0  0  0  0  0  2  0  0  0  0  0  0
  192.3630  175.6760  146.3210 C   0  0  1  0  0  0  0  0  0  0  0  0
  191.8600  176.8560  145.7490 O   0  0  0  0  0  0  0  0  0  0  0  0
  191.4780  176.5930  147.0840 C   0  0  1  0  0  3  0  0  0  0  0  0
  191.7930  174.4260  145.6600 C   0  0  0  0  0  1  0  0  0  0  0  0
  193.8520  175.7640  146.6280 C   0  0  0  0  0  2  0  0  0  0  0  0
  194.6610  176.1380  145.3940 C   0  0  0  0  0  2  0  0  0  0  0  0
  195.0080  174.9890  144.6820 O   0  0  0  0  0  0  0  0  0  0  0  0
  196.3910  175.0780  144.5280 C   0  0  0  0  0  1  0  0  0  0  0  0
  183.9740  177.8060  143.1670 O   0  0  0  0  0  0  0  0  0  0  0  0
  184.1020  178.7750  142.1300 C   0  0  0  0  0  2  0  0  0  0  0  0
  183.2050  178.4280  140.9480 C   0  0  0  0  0  2  0  0  0  0  0  0
  182.0730  177.7340  141.3790 O   0  0  0  0  0  0  0  0  0  0  0  0
  179.7920  178.0630  141.9430 C   0  0  1  0  0  3  0  0  0  0  0  0
  179.0440  178.9230  142.7530 O   0  0  0  0  0  1  0  0  0  0  0  0
  180.0220  178.6180  140.5320 C   0  0  2  0  0  3  0  0  0  0  0  0
  181.1100  178.7260  141.5880 C   0  0  2  0  0  3  0  0  0  0  0  0
  178.2540  180.2220  141.0560 F   0  0  0  0  0  0  0  0  0  0  0  0
  180.2760  180.9880  140.4060 O   0  0  0  0  0  1  0  0  0  0  0  0
  179.3400  179.9690  140.2300 C   0  0  0  0  0  0  0  0  0  0  0  0
  178.9170  179.9810  138.9120 F   0  0  0  0  0  0  0  0  0  0  0  0
  1  2  1  0  0  0  0
  2 40  1  6  0  0  0
  3  2  1  0  0  0  0
  4  6  1  6  0  0  0
  4  3  1  0  0  0  0
  4  5  1  0  0  0  0
  5  1  1  0  0  0  0
  7 14  2  0  0  0  0
  7 15  1  0  0  0  0
  8  6  1  0  0  0  0
  8 11  1  0  0  0  0
  9 12  2  0  0  0  0
 10 13  1  0  0  0  0
 10 17  1  0  0  0  0
 11 21  1  1  0  0  0
 12 16  1  0  0  0  0
 13 28  1  6  0  0  0
 13 15  1  0  0  0  0
 14  9  1  0  0  0  0
 15 16  2  0  0  0  0
 16  8  1  0  0  0  0
 17 11  1  0  0  0  0
 18 22  1  0  0  0  0
 19 23  1  0  0  0  0
 20 18  2  0  0  0  0
 21 20  1  0  0  0  0
 21 19  2  0  0  0  0
 22 26  1  0  0  0  0
 23 22  2  0  0  0  0
 24 26  1  0  0  0  0
 26 27  1  0  0  0  0
 26 25  1  0  0  0  0
 29 28  1  6  0  0  0
 29 31  1  0  0  0  0
 30 37  1  6  0  0  0
 31 30  1  0  0  0  0
 31 39  1  1  0  0  0
 32 33  2  0  0  0  0
 33 29  1  0  0  0  0
 33 34  1  0  0  0  0
 34 30  1  0  0  0  0
 35 37  2  0  0  0  0
 37 36  1  0  0  0  0
 39 38  3  0  0  0  0
 40 41  1  0  0  0  0
 41 42  1  0  0  0  0
 42 43  2  0  0  0  0
 42 44  1  0  0  0  0
 44 46  1  0  0  0  0
 44 49  1  0  0  0  0
 45 50  1  1  0  0  0
 46 47  1  1  0  0  0
 46 45  1  0  0  0  0
 46 49  1  0  0  0  0
 47 45  1  0  0  0  0
 49 48  2  0  0  0  0
 51 54  1  6  0  0  0
 51 55  1  0  0  0  0
 51 53  1  0  0  0  0
 52 51  1  0  0  0  0
 52 53  1  0  0  0  0
 53 50  1  6  0  0  0
 56 55  1  0  0  0  0
 57 56  1  0  0  0  0
 58 57  1  0  0  0  0
 59 43  1  0  0  0  0
 60 59  1  0  0  0  0
 61 62  1  0  0  0  0
 61 60  1  0  0  0  0
 63 64  1  1  0  0  0
 65 69  1  1  0  0  0
 65 66  1  0  0  0  0
 65 63  1  0  0  0  0
 66 62  1  6  0  0  0
 66 63  1  0  0  0  0
 69 68  1  0  0  0  0
 69 67  1  0  0  0  0
 70 69  1  0  0  0  0
M  END
>  <MODEL>
2

>  <REMARK>
 VINA RESULT:      -5.1      4.084      9.110
  Name = 
  23 active torsions:
  status: ('A' for Active; 'I' for Inactive)
    1  A    between atoms: O_1  and  C_37
    2  A    between atoms: O_1  and  C_40
    3  A    between atoms: C_2  and  C_8
    4  A    between atoms: C_3  and  C_50
    5  A    between atoms: N_4  and  C_7
    6  A    between atoms: C_6  and  C_19
    7  A    between atoms: C_6  and  C_36
    8  A    between atoms: C_7  and  C_19
    9  A    between atoms: C_8  and  C_14
   10  A    between atoms: O_9  and  C_14
   11  A    between atoms: C_10  and  N_20
   12  A    between atoms: C_10  and  C_41
   13  A    between atoms: C_16  and  N_48
   14  A    between atoms: C_24  and  C_68
   15  A    between atoms: C_27  and  C_63
   16  A    between atoms: C_28  and  C_59
   17  A    between atoms: C_31  and  C_60
   18  A    between atoms: C_32  and  C_58
   19  A    between atoms: C_33  and  O_39
   20  A    between atoms: O_39  and  C_49
   21  A    between atoms: C_40  and  C_49
   22  A    between atoms: C_47  and  N_48
   23  A    between atoms: C_50  and  C_51
                            x       y       z     vdW  Elec       q    Type
                         _______ _______ _______ _____ _____    ______ ____

>  <TORSDO>
F 23

$$$$
=
 OpenBabel11072409423D

 70 78  0  0  1  0  0  0  0  0999 V2000
  190.1850  175.7160  142.5040 C   0  0  0  0  0  2  0  0  0  0  0  0
  189.1340  174.8110  141.9080 C   0  0  2  0  0  3  0  0  0  0  0  0
  189.2420  173.5470  142.7070 C   0  0  0  0  0  2  0  0  0  0  0  0
  189.7000  174.0340  144.0620 C   0  0  2  0  0  3  0  0  0  0  0  0
  190.4630  175.2620  143.8620 N   0  0  0  0  0  2  0  0  0  0  0  0
  190.5670  172.9950  144.7510 C   0  0  0  0  0  2  0  0  0  0  0  0
  192.6490  170.7510  140.8710 C   0  0  0  0  0  3  0  0  0  0  0  0
  191.7790  172.7360  143.9780 N   0  0  0  0  0  0  0  0  0  0  0  0
  190.7750  169.7240  141.9870 C   0  0  0  0  0  3  0  0  0  0  0  0
  193.2850  174.2190  142.1080 C   0  0  0  0  0  2  0  0  0  0  0  0
  193.0080  173.3430  144.4990 C   0  0  2  0  0  3  0  0  0  0  0  0
  190.8180  170.7200  142.9610 C   0  0  0  0  0  3  0  0  0  0  0  0
  193.7780  172.8430  141.6980 C   0  0  1  0  0  3  0  0  0  0  0  0
  191.6970  169.7360  140.9440 C   0  0  0  0  0  3  0  0  0  0  0  0
  192.6960  171.7830  141.8270 C   0  0  0  0  0  0  0  0  0  0  0  0
  191.7740  171.7500  142.9140 C   0  0  0  0  0  0  0  0  0  0  0  0
  193.5460  174.4580  143.5900 C   0  0  0  0  0  2  0  0  0  0  0  0
  196.3460  171.6400  145.1630 C   0  0  0  0  0  3  0  0  0  0  0  0
  193.6260  171.0660  145.4620 C   0  0  0  0  0  3  0  0  0  0  0  0
  195.3860  172.5810  144.7770 C   0  0  0  0  0  3  0  0  0  0  0  0
  194.0190  172.3040  144.9270 C   0  0  0  0  0  0  0  0  0  0  0  0
  195.9510  170.4010  145.6900 C   0  0  0  0  0  0  0  0  0  0  0  0
  194.5860  170.1260  145.8480 C   0  0  0  0  0  3  0  0  0  0  0  0
  197.9390  169.2500  145.1720 F   0  0  0  0  0  0  0  0  0  0  0  0
  197.5800  169.8490  147.3160 F   0  0  0  0  0  0  0  0  0  0  0  0
  196.9750  169.4050  146.1530 C   0  0  0  0  0  0  0  0  0  0  0  0
  196.3880  168.1780  146.4030 F   0  0  0  0  0  0  0  0  0  0  0  0
  194.3810  172.9330  140.3010 C   0  0  0  0  0  2  0  0  0  0  0  0
  195.8020  173.4710  140.3910 C   0  0  2  0  0  3  0  0  0  0  0  0
  197.0030  174.6060  138.5550 C   0  0  1  0  0  3  0  0  0  0  0  0
  195.9110  174.7870  139.6180 C   0  0  2  0  0  3  0  0  0  0  0  0
  197.0840  171.3740  140.1230 C   0  0  0  0  0  1  0  0  0  0  0  0
  196.7410  172.5760  139.6800 C   0  0  0  0  0  0  0  0  0  0  0  0
  197.4620  173.2310  138.6560 N   0  0  0  0  0  0  0  0  0  0  0  0
  195.4300  174.2750  136.7960 O   0  0  0  0  0  0  0  0  0  0  0  0
  197.1030  175.8130  136.3180 N   0  0  0  0  0  1  0  0  0  0  0  0
  196.4550  174.8890  137.1910 C   0  0  0  0  0  0  0  0  0  0  0  0
  196.5790  176.7260  141.2520 N   0  0  0  0  0  0  0  0  0  0  0  0
  196.2850  175.8710  140.5290 C   0  0  0  0  0  0  0  0  0  0  0  0
  189.4220  174.5540  140.4380 C   0  0  0  0  0  2  0  0  0  0  0  0
  188.1390  174.2530  139.6730 C   0  0  0  0  0  2  0  0  0  0  0  0
  188.1040  174.9970  138.3750 C   0  0  0  0  0  0  0  0  0  0  0  0
  187.3220  176.0640  138.1630 C   0  0  0  0  0  3  0  0  0  0  0  0
  189.0140  174.6090  137.3500 N   0  0  0  0  0  0  0  0  0  0  0  0
  190.4500  172.7200  136.3470 C   0  0  2  0  0  3  0  0  0  0  0  0
  190.2650  174.1140  136.9180 C   0  0  2  0  0  0  0  0  0  0  0  0
  190.3260  172.9050  137.6840 O   0  0  0  0  0  0  0  0  0  0  0  0
  189.0370  174.5660  134.6420 N   0  0  0  0  0  2  0  0  0  0  0  0
  189.3500  174.4310  135.8900 C   0  0  0  0  0  0  0  0  0  0  0  0
  191.8480  172.5020  136.0200 N   0  0  0  0  0  2  0  0  0  0  0  0
  192.5180  170.1590  135.9250 C   0  0  1  0  0  0  0  0  0  0  0  0
  191.1250  170.2870  135.8110 O   0  0  0  0  0  0  0  0  0  0  0  0
  191.9000  171.3000  135.2020 C   0  0  1  0  0  3  0  0  0  0  0  0
  192.9990  170.3260  137.3620 C   0  0  0  0  0  1  0  0  0  0  0  0
  193.0750  169.0350  135.0620 C   0  0  0  0  0  2  0  0  0  0  0  0
  194.3020  168.3950  135.6930 C   0  0  0  0  0  2  0  0  0  0  0  0
  195.4220  168.6080  134.8880 O   0  0  0  0  0  0  0  0  0  0  0  0
  196.5070  168.3390  135.7200 C   0  0  0  0  0  1  0  0  0  0  0  0
  186.3580  176.5890  139.0420 O   0  0  0  0  0  0  0  0  0  0  0  0
  186.6330  177.2750  140.2610 C   0  0  0  0  0  2  0  0  0  0  0  0
  185.4760  178.1900  140.6430 C   0  0  0  0  0  2  0  0  0  0  0  0
  184.8700  177.7490  141.8200 O   0  0  0  0  0  0  0  0  0  0  0  0
  186.5430  177.3820  143.4630 C   0  0  1  0  0  3  0  0  0  0  0  0
  187.6550  178.0590  143.9710 O   0  0  0  0  0  1  0  0  0  0  0  0
  185.2390  177.7500  144.1810 C   0  0  2  0  0  3  0  0  0  0  0  0
  185.5850  178.3820  142.8430 C   0  0  2  0  0  3  0  0  0  0  0  0
  186.2090  179.8070  145.0750 F   0  0  0  0  0  0  0  0  0  0  0  0
  184.1210  179.2160  145.6970 O   0  0  0  0  0  1  0  0  0  0  0  0
  185.3850  178.7290  145.3650 C   0  0  0  0  0  0  0  0  0  0  0  0
  185.8980  178.0490  146.4570 F   0  0  0  0  0  0  0  0  0  0  0  0
  1  5  1  0  0  0  0
  2 40  1  6  0  0  0
  2  1  1  0  0  0  0
  2  3  1  0  0  0  0
  3  4  1  0  0  0  0
  4  6  1  6  0  0  0
  5  4  1  0  0  0  0
  7 14  2  0  0  0  0
  7 15  1  0  0  0  0
  8 11  1  0  0  0  0
  8  6  1  0  0  0  0
  9 12  2  0  0  0  0
 10 17  1  0  0  0  0
 11 21  1  6  0  0  0
 13 28  1  6  0  0  0
 13 15  1  0  0  0  0
 13 10  1  0  0  0  0
 14  9  1  0  0  0  0
 15 16  2  0  0  0  0
 16 12  1  0  0  0  0
 16  8  1  0  0  0  0
 17 11  1  0  0  0  0
 18 22  1  0  0  0  0
 19 23  1  0  0  0  0
 20 21  1  0  0  0  0
 20 18  2  0  0  0  0
 21 19  2  0  0  0  0
 22 23  2  0  0  0  0
 22 26  1  0  0  0  0
 24 26  1  0  0  0  0
 26 27  1  0  0  0  0
 26 25  1  0  0  0  0
 29 28  1  6  0  0  0
 30 37  1  6  0  0  0
 30 34  1  0  0  0  0
 30 31  1  0  0  0  0
 31 29  1  0  0  0  0
 31 39  1  1  0  0  0
 33 32  1  0  0  0  0
 33 29  1  0  0  0  0
 34 33  2  0  0  0  0
 35 37  2  0  0  0  0
 36 37  1  0  0  0  0
 39 38  3  0  0  0  0
 41 40  1  0  0  0  0
 42 41  1  0  0  0  0
 43 42  2  0  0  0  0
 43 59  1  0  0  0  0
 44 42  1  0  0  0  0
 45 50  1  1  0  0  0
 45 46  1  0  0  0  0
 45 47  1  0  0  0  0
 46 49  1  1  0  0  0
 46 44  1  0  0  0  0
 46 47  1  0  0  0  0
 48 49  2  0  0  0  0
 49 44  1  0  0  0  0
 51 54  1  1  0  0  0
 52 51  1  0  0  0  0
 53 52  1  0  0  0  0
 53 51  1  0  0  0  0
 53 50  1  1  0  0  0
 55 56  1  0  0  0  0
 55 51  1  0  0  0  0
 57 56  1  0  0  0  0
 57 58  1  0  0  0  0
 59 60  1  0  0  0  0
 60 61  1  0  0  0  0
 61 62  1  0  0  0  0
 63 64  1  1  0  0  0
 63 65  1  0  0  0  0
 65 69  1  1  0  0  0
 66 62  1  6  0  0  0
 66 63  1  0  0  0  0
 66 65  1  0  0  0  0
 67 69  1  0  0  0  0
 69 68  1  0  0  0  0
 69 70  1  0  0  0  0
M  END
>  <MODEL>
3

>  <REMARK>
 VINA RESULT:      -5.1      3.542      8.562
  Name = 
  23 active torsions:
  status: ('A' for Active; 'I' for Inactive)
    1  A    between atoms: O_1  and  C_37
    2  A    between atoms: O_1  and  C_40
    3  A    between atoms: C_2  and  C_8
    4  A    between atoms: C_3  and  C_50
    5  A    between atoms: N_4  and  C_7
    6  A    between atoms: C_6  and  C_19
    7  A    between atoms: C_6  and  C_36
    8  A    between atoms: C_7  and  C_19
    9  A    between atoms: C_8  and  C_14
   10  A    between atoms: O_9  and  C_14
   11  A    between atoms: C_10  and  N_20
   12  A    between atoms: C_10  and  C_41
   13  A    between atoms: C_16  and  N_48
   14  A    between atoms: C_24  and  C_68
   15  A    between atoms: C_27  and  C_63
   16  A    between atoms: C_28  and  C_59
   17  A    between atoms: C_31  and  C_60
   18  A    between atoms: C_32  and  C_58
   19  A    between atoms: C_33  and  O_39
   20  A    between atoms: O_39  and  C_49
   21  A    between atoms: C_40  and  C_49
   22  A    between atoms: C_47  and  N_48
   23  A    between atoms: C_50  and  C_51
                            x       y       z     vdW  Elec       q    Type
                         _______ _______ _______ _____ _____    ______ ____

>  <TORSDO>
F 23

$$$$
=
 OpenBabel11072409423D

 70 78  0  0  1  0  0  0  0  0999 V2000
  190.0450  177.1120  142.6060 C   0  0  0  0  0  2  0  0  0  0  0  0
  188.8240  176.2230  142.5830 C   0  0  2  0  0  3  0  0  0  0  0  0
  189.2520  175.0320  141.7780 C   0  0  0  0  0  2  0  0  0  0  0  0
  190.7330  174.9380  142.0630 C   0  0  2  0  0  3  0  0  0  0  0  0
  191.2190  176.2820  142.3570 N   0  0  0  0  0  2  0  0  0  0  0  0
  191.4820  174.3680  140.8700 C   0  0  0  0  0  2  0  0  0  0  0  0
  196.1710  174.0420  142.3940 C   0  0  0  0  0  3  0  0  0  0  0  0
  192.5800  173.5120  141.3080 N   0  0  0  0  0  0  0  0  0  0  0  0
  195.5310  175.7780  140.8490 C   0  0  0  0  0  3  0  0  0  0  0  0
  193.2120  172.1840  143.7170 C   0  0  0  0  0  2  0  0  0  0  0  0
  192.2990  172.0740  141.3270 C   0  0  2  0  0  3  0  0  0  0  0  0
  194.2580  175.2170  140.7560 C   0  0  0  0  0  3  0  0  0  0  0  0
  194.6160  172.2100  143.1420 C   0  0  1  0  0  3  0  0  0  0  0  0
  196.4910  175.1850  141.6640 C   0  0  0  0  0  3  0  0  0  0  0  0
  194.8860  173.4710  142.3390 C   0  0  0  0  0  0  0  0  0  0  0  0
  193.9140  174.0590  141.4760 C   0  0  0  0  0  0  0  0  0  0  0  0
  192.2540  171.4990  142.7500 C   0  0  0  0  0  2  0  0  0  0  0  0
  195.0350  171.2980  138.7970 C   0  0  0  0  0  3  0  0  0  0  0  0
  192.9100  169.9650  140.0320 C   0  0  0  0  0  3  0  0  0  0  0  0
  194.2230  171.9740  139.7130 C   0  0  0  0  0  3  0  0  0  0  0  0
  193.1570  171.3130  140.3420 C   0  0  0  0  0  0  0  0  0  0  0  0
  194.7810  169.9530  138.4840 C   0  0  0  0  0  0  0  0  0  0  0  0
  193.7210  169.2900  139.1160 C   0  0  0  0  0  3  0  0  0  0  0  0
  194.9050  168.5680  136.5850 F   0  0  0  0  0  0  0  0  0  0  0  0
  196.5430  170.0840  136.9080 F   0  0  0  0  0  0  0  0  0  0  0  0
  195.6780  169.2060  137.5390 C   0  0  0  0  0  0  0  0  0  0  0  0
  196.4260  168.2610  138.2170 F   0  0  0  0  0  0  0  0  0  0  0  0
  195.6140  171.9810  144.2720 C   0  0  0  0  0  2  0  0  0  0  0  0
  196.2240  170.5930  144.1430 C   0  0  2  0  0  3  0  0  0  0  0  0
  194.9350  168.4950  143.9360 C   0  0  1  0  0  3  0  0  0  0  0  0
  195.3940  169.7470  143.1750 C   0  0  2  0  0  3  0  0  0  0  0  0
  196.8260  170.1560  146.5000 C   0  0  0  0  0  1  0  0  0  0  0  0
  196.1150  169.8580  145.4220 C   0  0  0  0  0  0  0  0  0  0  0  0
  195.4140  168.6360  145.3000 N   0  0  0  0  0  0  0  0  0  0  0  0
  192.7920  168.4410  144.9760 O   0  0  0  0  0  0  0  0  0  0  0  0
  192.7530  168.1670  142.6710 N   0  0  0  0  0  1  0  0  0  0  0  0
  193.4420  168.3830  143.9000 C   0  0  0  0  0  0  0  0  0  0  0  0
  196.8660  169.0430  141.1210 N   0  0  0  0  0  0  0  0  0  0  0  0
  196.2150  169.3520  142.0270 C   0  0  0  0  0  0  0  0  0  0  0  0
  187.6560  176.9380  141.9240 C   0  0  0  0  0  2  0  0  0  0  0  0
  187.1500  178.0800  142.7960 C   0  0  0  0  0  2  0  0  0  0  0  0
  186.1920  177.5790  143.8300 C   0  0  0  0  0  0  0  0  0  0  0  0
  184.8710  177.4900  143.6220 C   0  0  0  0  0  3  0  0  0  0  0  0
  186.7200  177.0860  145.0570 N   0  0  0  0  0  0  0  0  0  0  0  0
  188.6760  177.1300  146.7320 C   0  0  2  0  0  3  0  0  0  0  0  0
  187.7130  176.4130  145.8040 C   0  0  2  0  0  0  0  0  0  0  0  0
  188.8690  177.1510  145.3900 O   0  0  0  0  0  0  0  0  0  0  0  0
  185.9470  177.0110  147.6520 N   0  0  0  0  0  2  0  0  0  0  0  0
  186.6140  176.8920  146.5500 C   0  0  0  0  0  0  0  0  0  0  0  0
  189.5870  176.1710  147.3330 N   0  0  0  0  0  2  0  0  0  0  0  0
  191.9710  176.0090  146.8440 C   0  0  1  0  0  0  0  0  0  0  0  0
  191.3820  177.0620  146.1250 O   0  0  0  0  0  0  0  0  0  0  0  0
  190.8810  176.8330  147.4260 C   0  0  1  0  0  3  0  0  0  0  0  0
  191.6650  174.6480  146.2290 C   0  0  0  0  0  1  0  0  0  0  0  0
  193.3850  176.3360  147.3060 C   0  0  0  0  0  2  0  0  0  0  0  0
  194.4300  175.8400  146.3170 C   0  0  0  0  0  2  0  0  0  0  0  0
  194.8440  176.8870  145.4930 O   0  0  0  0  0  0  0  0  0  0  0  0
  194.2180  176.6400  144.2720 C   0  0  0  0  0  1  0  0  0  0  0  0
  184.1660  177.9310  142.4880 O   0  0  0  0  0  0  0  0  0  0  0  0
  182.9900  178.7370  142.5040 C   0  0  0  0  0  2  0  0  0  0  0  0
  182.1060  178.4300  141.3010 C   0  0  0  0  0  2  0  0  0  0  0  0
  180.8760  177.9150  141.7140 O   0  0  0  0  0  0  0  0  0  0  0  0
  178.5860  178.5230  141.5830 C   0  0  1  0  0  3  0  0  0  0  0  0
  177.7230  179.4290  142.2060 O   0  0  0  0  0  1  0  0  0  0  0  0
  179.3110  179.1220  140.3720 C   0  0  2  0  0  3  0  0  0  0  0  0
  180.0150  179.0160  141.7150 C   0  0  2  0  0  3  0  0  0  0  0  0
  180.0160  181.3850  139.7760 F   0  0  0  0  0  0  0  0  0  0  0  0
  178.1330  180.5420  138.8580 O   0  0  0  0  0  1  0  0  0  0  0  0
  178.9170  180.5700  140.0110 C   0  0  0  0  0  0  0  0  0  0  0  0
  178.1680  181.1080  141.0430 F   0  0  0  0  0  0  0  0  0  0  0  0
  2 40  1  6  0  0  0
  2  1  1  0  0  0  0
  3  4  1  0  0  0  0
  3  2  1  0  0  0  0
  4  6  1  6  0  0  0
  4  5  1  0  0  0  0
  5  1  1  0  0  0  0
  6  8  1  0  0  0  0
  8 11  1  0  0  0  0
  8 16  1  0  0  0  0
  9 14  1  0  0  0  0
 11 21  1  6  0  0  0
 11 17  1  0  0  0  0
 12  9  2  0  0  0  0
 12 16  1  0  0  0  0
 13 10  1  0  0  0  0
 13 28  1  1  0  0  0
 14  7  2  0  0  0  0
 15  7  1  0  0  0  0
 15 13  1  0  0  0  0
 16 15  2  0  0  0  0
 17 10  1  0  0  0  0
 18 20  1  0  0  0  0
 19 21  1  0  0  0  0
 20 21  2  0  0  0  0
 22 18  2  0  0  0  0
 22 23  1  0  0  0  0
 23 19  2  0  0  0  0
 24 26  1  0  0  0  0
 25 26  1  0  0  0  0
 26 27  1  0  0  0  0
 26 22  1  0  0  0  0
 29 28  1  1  0  0  0
 29 33  1  0  0  0  0
 30 37  1  1  0  0  0
 30 34  1  0  0  0  0
 31 39  1  6  0  0  0
 31 30  1  0  0  0  0
 31 29  1  0  0  0  0
 33 32  1  0  0  0  0
 34 33  2  0  0  0  0
 36 37  1  0  0  0  0
 37 35  2  0  0  0  0
 38 39  3  0  0  0  0
 40 41  1  0  0  0  0
 41 42  1  0  0  0  0
 42 44  1  0  0  0  0
 43 42  2  0  0  0  0
 44 46  1  0  0  0  0
 44 49  1  0  0  0  0
 45 50  1  1  0  0  0
 46 47  1  6  0  0  0
 46 49  1  0  0  0  0
 46 45  1  0  0  0  0
 47 45  1  0  0  0  0
 49 48  2  0  0  0  0
 51 54  1  6  0  0  0
 51 55  1  0  0  0  0
 51 53  1  0  0  0  0
 52 51  1  0  0  0  0
 52 53  1  0  0  0  0
 53 50  1  6  0  0  0
 56 55  1  0  0  0  0
 57 56  1  0  0  0  0
 58 57  1  0  0  0  0
 59 60  1  0  0  0  0
 59 43  1  0  0  0  0
 61 62  1  0  0  0  0
 61 60  1  0  0  0  0
 63 66  1  0  0  0  0
 63 64  1  1  0  0  0
 65 69  1  1  0  0  0
 65 63  1  0  0  0  0
 65 66  1  0  0  0  0
 66 62  1  6  0  0  0
 67 69  1  0  0  0  0
 68 69  1  0  0  0  0
 69 70  1  0  0  0  0
M  END
>  <MODEL>
4

>  <REMARK>
 VINA RESULT:      -4.7      4.131      9.418
  Name = 
  23 active torsions:
  status: ('A' for Active; 'I' for Inactive)
    1  A    between atoms: O_1  and  C_37
    2  A    between atoms: O_1  and  C_40
    3  A    between atoms: C_2  and  C_8
    4  A    between atoms: C_3  and  C_50
    5  A    between atoms: N_4  and  C_7
    6  A    between atoms: C_6  and  C_19
    7  A    between atoms: C_6  and  C_36
    8  A    between atoms: C_7  and  C_19
    9  A    between atoms: C_8  and  C_14
   10  A    between atoms: O_9  and  C_14
   11  A    between atoms: C_10  and  N_20
   12  A    between atoms: C_10  and  C_41
   13  A    between atoms: C_16  and  N_48
   14  A    between atoms: C_24  and  C_68
   15  A    between atoms: C_27  and  C_63
   16  A    between atoms: C_28  and  C_59
   17  A    between atoms: C_31  and  C_60
   18  A    between atoms: C_32  and  C_58
   19  A    between atoms: C_33  and  O_39
   20  A    between atoms: O_39  and  C_49
   21  A    between atoms: C_40  and  C_49
   22  A    between atoms: C_47  and  N_48
   23  A    between atoms: C_50  and  C_51
                            x       y       z     vdW  Elec       q    Type
                         _______ _______ _______ _____ _____    ______ ____

>  <TORSDO>
F 23

$$$$
=
 OpenBabel11072409423D

 70 78  0  0  1  0  0  0  0  0999 V2000
  190.3450  171.1520  144.3220 C   0  0  0  0  0  2  0  0  0  0  0  0
  191.0380  172.3920  144.8340 C   0  0  2  0  0  3  0  0  0  0  0  0
  190.4440  173.5060  144.0250 C   0  0  0  0  0  2  0  0  0  0  0  0
  189.0460  173.0120  143.7330 C   0  0  2  0  0  3  0  0  0  0  0  0
  189.0810  171.5530  143.7130 N   0  0  0  0  0  2  0  0  0  0  0  0
  188.5520  173.5340  142.3950 C   0  0  0  0  0  2  0  0  0  0  0  0
  193.1370  174.2010  140.6780 C   0  0  0  0  0  3  0  0  0  0  0  0
  189.5260  173.2660  141.3410 N   0  0  0  0  0  0  0  0  0  0  0  0
  192.0820  175.9320  141.9820 C   0  0  0  0  0  3  0  0  0  0  0  0
  191.1300  171.0490  140.6500 C   0  0  0  0  0  2  0  0  0  0  0  0
  189.0410  172.4660  140.2140 C   0  0  2  0  0  3  0  0  0  0  0  0
  190.8950  175.2010  141.9800 C   0  0  0  0  0  3  0  0  0  0  0  0
  191.9530  172.1070  139.9370 C   0  0  1  0  0  3  0  0  0  0  0  0
  193.2020  175.4350  141.3240 C   0  0  0  0  0  3  0  0  0  0  0  0
  191.9590  173.4310  140.6840 C   0  0  0  0  0  0  0  0  0  0  0  0
  190.8020  173.9590  141.3290 C   0  0  0  0  0  0  0  0  0  0  0  0
  189.6890  171.0750  140.1550 C   0  0  0  0  0  2  0  0  0  0  0  0
  188.1300  175.0490  137.5720 C   0  0  0  0  0  3  0  0  0  0  0  0
  189.9200  172.9220  137.8650 C   0  0  0  0  0  3  0  0  0  0  0  0
  188.1500  174.3100  138.7590 C   0  0  0  0  0  3  0  0  0  0  0  0
  189.0470  173.2440  138.9180 C   0  0  0  0  0  0  0  0  0  0  0  0
  188.9990  174.7210  136.5190 C   0  0  0  0  0  0  0  0  0  0  0  0
  189.9010  173.6610  136.6790 C   0  0  0  0  0  3  0  0  0  0  0  0
  190.1330  175.2030  134.5130 F   0  0  0  0  0  0  0  0  0  0  0  0
  187.8800  175.2930  134.5130 F   0  0  0  0  0  0  0  0  0  0  0  0
  189.0190  175.5400  135.2600 C   0  0  0  0  0  0  0  0  0  0  0  0
  189.0670  176.8900  135.5550 F   0  0  0  0  0  0  0  0  0  0  0  0
  193.3470  171.5500  139.6720 C   0  0  0  0  0  2  0  0  0  0  0  0
  193.3740  170.0640  139.9950 C   0  0  2  0  0  3  0  0  0  0  0  0
  195.3940  168.7880  140.6240 C   0  0  1  0  0  3  0  0  0  0  0  0
  194.3550  169.7950  141.1370 C   0  0  2  0  0  3  0  0  0  0  0  0
  193.3160  169.1170  137.7110 C   0  0  0  0  0  2  0  0  0  0  0  0
  193.9440  169.2980  138.8650 C   0  0  0  0  0  0  0  0  0  0  0  0
  195.0760  168.5330  139.2300 N   0  0  0  0  0  2  0  0  0  0  0  0
  197.7040  168.8910  140.0480 O   0  0  0  0  0  0  0  0  0  0  0  0
  197.0620  170.3580  141.7300 N   0  0  0  0  0  1  0  0  0  0  0  0
  196.7760  169.3470  140.7650 C   0  0  0  0  0  0  0  0  0  0  0  0
  193.0790  168.7800  143.1910 N   0  0  0  0  0  0  0  0  0  0  0  0
  193.6420  169.2260  142.2840 C   0  0  0  0  0  0  0  0  0  0  0  0
  192.5390  172.2950  144.6130 C   0  0  0  0  0  2  0  0  0  0  0  0
  193.3050  172.9130  145.7760 C   0  0  0  0  0  2  0  0  0  0  0  0
  194.0510  174.1340  145.3350 C   0  0  0  0  0  0  0  0  0  0  0  0
  193.5780  175.3780  145.4940 C   0  0  0  0  0  3  0  0  0  0  0  0
  195.3630  173.9690  144.8080 N   0  0  0  0  0  0  0  0  0  0  0  0
  197.1130  174.7740  143.0970 C   0  0  2  0  0  3  0  0  0  0  0  0
  196.2520  173.7030  143.7420 C   0  0  2  0  0  0  0  0  0  0  0  0
  195.7940  174.6760  142.7950 O   0  0  0  0  0  0  0  0  0  0  0  0
  197.8970  174.0150  145.7650 N   0  0  0  0  0  2  0  0  0  0  0  0
  196.8600  173.9470  144.9930 C   0  0  0  0  0  0  0  0  0  0  0  0
  197.8960  174.1940  142.0190 N   0  0  0  0  0  2  0  0  0  0  0  0
  197.2330  174.7290  139.7340 C   0  0  1  0  0  0  0  0  0  0  0  0
  196.6210  175.5990  140.6500 O   0  0  0  0  0  0  0  0  0  0  0  0
  197.9380  175.1890  140.9580 C   0  0  1  0  0  3  0  0  0  0  0  0
  196.5610  173.3610  139.6990 C   0  0  0  0  0  1  0  0  0  0  0  0
  197.6150  175.4220  138.4330 C   0  0  0  0  0  2  0  0  0  0  0  0
  196.4690  175.4130  137.4320 C   0  0  0  0  0  2  0  0  0  0  0  0
  196.9240  174.9800  136.1860 O   0  0  0  0  0  0  0  0  0  0  0  0
  197.2110  173.6280  136.3690 C   0  0  0  0  0  1  0  0  0  0  0  0
  192.3110  175.7400  145.9830 O   0  0  0  0  0  0  0  0  0  0  0  0
  191.3620  176.5600  145.3030 C   0  0  0  0  0  2  0  0  0  0  0  0
  190.2400  176.9850  146.2420 C   0  0  0  0  0  2  0  0  0  0  0  0
  189.3210  177.7940  145.5730 O   0  0  0  0  0  0  0  0  0  0  0  0
  187.1190  177.5920  144.7110 C   0  0  1  0  0  3  0  0  0  0  0  0
  186.1690  176.5820  144.5390 O   0  0  0  0  0  1  0  0  0  0  0  0
  187.0350  178.2650  146.0870 C   0  0  2  0  0  3  0  0  0  0  0  0
  188.0810  177.1950  145.8160 C   0  0  2  0  0  3  0  0  0  0  0  0
  185.8640  176.3900  147.1300 F   0  0  0  0  0  0  0  0  0  0  0  0
  186.0630  178.3320  148.2660 O   0  0  0  0  0  1  0  0  0  0  0  0
  185.8930  177.7720  147.0000 C   0  0  0  0  0  0  0  0  0  0  0  0
  184.6820  178.2020  146.4850 F   0  0  0  0  0  0  0  0  0  0  0  0
  1  2  1  0  0  0  0
  2 40  1  6  0  0  0
  3  2  1  0  0  0  0
  4  6  1  6  0  0  0
  4  3  1  0  0  0  0
  5  4  1  0  0  0  0
  5  1  1  0  0  0  0
  7 15  2  0  0  0  0
  7 14  1  0  0  0  0
  8  6  1  0  0  0  0
 11 21  1  6  0  0  0
 11  8  1  0  0  0  0
 12  9  1  0  0  0  0
 13 28  1  1  0  0  0
 13 10  1  0  0  0  0
 13 15  1  0  0  0  0
 14  9  2  0  0  0  0
 15 16  1  0  0  0  0
 16  8  1  0  0  0  0
 16 12  2  0  0  0  0
 17 11  1  0  0  0  0
 17 10  1  0  0  0  0
 18 20  1  0  0  0  0
 19 21  1  0  0  0  0
 20 21  2  0  0  0  0
 22 23  1  0  0  0  0
 22 18  2  0  0  0  0
 23 19  2  0  0  0  0
 24 26  1  0  0  0  0
 25 26  1  0  0  0  0
 26 27  1  0  0  0  0
 26 22  1  0  0  0  0
 29 28  1  6  0  0  0
 29 31  1  0  0  0  0
 30 37  1  6  0  0  0
 30 31  1  0  0  0  0
 31 39  1  1  0  0  0
 32 33  2  0  0  0  0
 33 34  1  0  0  0  0
 33 29  1  0  0  0  0
 34 30  1  0  0  0  0
 35 37  2  0  0  0  0
 37 36  1  0  0  0  0
 39 38  3  0  0  0  0
 40 41  1  0  0  0  0
 42 43  2  0  0  0  0
 42 41  1  0  0  0  0
 43 59  1  0  0  0  0
 44 49  1  0  0  0  0
 44 42  1  0  0  0  0
 45 50  1  6  0  0  0
 45 46  1  0  0  0  0
 46 47  1  6  0  0  0
 46 44  1  0  0  0  0
 46 49  1  0  0  0  0
 47 45  1  0  0  0  0
 49 48  2  0  0  0  0
 51 54  1  6  0  0  0
 51 52  1  0  0  0  0
 51 53  1  0  0  0  0
 52 53  1  0  0  0  0
 53 50  1  1  0  0  0
 55 51  1  0  0  0  0
 56 55  1  0  0  0  0
 57 58  1  0  0  0  0
 57 56  1  0  0  0  0
 60 59  1  0  0  0  0
 60 61  1  0  0  0  0
 62 61  1  0  0  0  0
 63 64  1  1  0  0  0
 63 66  1  0  0  0  0
 63 65  1  0  0  0  0
 65 69  1  1  0  0  0
 66 62  1  6  0  0  0
 66 65  1  0  0  0  0
 69 67  1  0  0  0  0
 69 68  1  0  0  0  0
 70 69  1  0  0  0  0
M  END
>  <MODEL>
5

>  <REMARK>
 VINA RESULT:      -3.9      4.371      8.878
  Name = 
  23 active torsions:
  status: ('A' for Active; 'I' for Inactive)
    1  A    between atoms: O_1  and  C_37
    2  A    between atoms: O_1  and  C_40
    3  A    between atoms: C_2  and  C_8
    4  A    between atoms: C_3  and  C_50
    5  A    between atoms: N_4  and  C_7
    6  A    between atoms: C_6  and  C_19
    7  A    between atoms: C_6  and  C_36
    8  A    between atoms: C_7  and  C_19
    9  A    between atoms: C_8  and  C_14
   10  A    between atoms: O_9  and  C_14
   11  A    between atoms: C_10  and  N_20
   12  A    between atoms: C_10  and  C_41
   13  A    between atoms: C_16  and  N_48
   14  A    between atoms: C_24  and  C_68
   15  A    between atoms: C_27  and  C_63
   16  A    between atoms: C_28  and  C_59
   17  A    between atoms: C_31  and  C_60
   18  A    between atoms: C_32  and  C_58
   19  A    between atoms: C_33  and  O_39
   20  A    between atoms: O_39  and  C_49
   21  A    between atoms: C_40  and  C_49
   22  A    between atoms: C_47  and  N_48
   23  A    between atoms: C_50  and  C_51
                            x       y       z     vdW  Elec       q    Type
                         _______ _______ _______ _____ _____    ______ ____

>  <TORSDO>
F 23

$$$$
=
 OpenBabel11072409423D

 70 78  0  0  1  0  0  0  0  0999 V2000
  188.2110  174.4830  142.3570 C   0  0  0  0  0  2  0  0  0  0  0  0
  189.2280  175.2710  141.5670 C   0  0  2  0  0  3  0  0  0  0  0  0
  190.5490  174.8170  142.1140 C   0  0  0  0  0  2  0  0  0  0  0  0
  190.2770  173.3910  142.5320 C   0  0  2  0  0  3  0  0  0  0  0  0
  188.8640  173.2870  142.8800 N   0  0  0  0  0  2  0  0  0  0  0  0
  191.1320  173.0000  143.7250 C   0  0  0  0  0  2  0  0  0  0  0  0
  194.1520  170.8440  140.4620 C   0  0  0  0  0  3  0  0  0  0  0  0
  192.5030  172.7190  143.3110 N   0  0  0  0  0  0  0  0  0  0  0  0
  192.0050  169.8570  140.9420 C   0  0  0  0  0  3  0  0  0  0  0  0
  194.5270  174.2140  142.0310 C   0  0  0  0  0  2  0  0  0  0  0  0
  193.5540  173.2400  144.1910 C   0  0  2  0  0  3  0  0  0  0  0  0
  191.8030  170.8030  141.9460 C   0  0  0  0  0  3  0  0  0  0  0  0
  195.0690  172.8360  141.6960 C   0  0  1  0  0  3  0  0  0  0  0  0
  193.1850  169.8740  140.2040 C   0  0  0  0  0  3  0  0  0  0  0  0
  193.9610  171.8260  141.4520 C   0  0  0  0  0  0  0  0  0  0  0  0
  192.7670  171.7860  142.2320 C   0  0  0  0  0  0  0  0  0  0  0  0
  194.3650  174.3690  143.5390 C   0  0  0  0  0  2  0  0  0  0  0  0
  196.3900  171.4390  145.9790 C   0  0  0  0  0  3  0  0  0  0  0  0
  193.9100  170.8050  144.8560 C   0  0  0  0  0  3  0  0  0  0  0  0
  195.6140  172.4400  145.3860 C   0  0  0  0  0  3  0  0  0  0  0  0
  194.3660  172.1340  144.8250 C   0  0  0  0  0  0  0  0  0  0  0  0
  195.9350  170.1120  146.0030 C   0  0  0  0  0  0  0  0  0  0  0  0
  194.6850  169.8050  145.4490 C   0  0  0  0  0  3  0  0  0  0  0  0
  195.9240  168.3380  147.5510 F   0  0  0  0  0  0  0  0  0  0  0  0
  197.2570  168.1660  145.7410 F   0  0  0  0  0  0  0  0  0  0  0  0
  196.7390  169.0400  146.6810 C   0  0  0  0  0  0  0  0  0  0  0  0
  197.7880  169.5910  147.3940 F   0  0  0  0  0  0  0  0  0  0  0  0
  196.0470  172.9620  140.5330 C   0  0  0  0  0  2  0  0  0  0  0  0
  195.6450  174.1350  139.6510 C   0  0  2  0  0  3  0  0  0  0  0  0
  195.5950  174.0950  137.1820 C   0  0  1  0  0  3  0  0  0  0  0  0
  194.8530  173.6310  138.4430 C   0  0  2  0  0  3  0  0  0  0  0  0
  197.7200  175.4760  139.7290 C   0  0  0  0  0  1  0  0  0  0  0  0
  196.8390  174.7600  139.0430 C   0  0  0  0  0  0  0  0  0  0  0  0
  196.7960  174.7770  137.6300 N   0  0  0  0  0  0  0  0  0  0  0  0
  195.9170  173.0520  135.0630 O   0  0  0  0  0  0  0  0  0  0  0  0
  196.2380  171.6520  136.8880 N   0  0  0  0  0  1  0  0  0  0  0  0
  195.9350  172.9230  136.3160 C   0  0  0  0  0  0  0  0  0  0  0  0
  192.4370  174.6510  138.4690 N   0  0  0  0  0  0  0  0  0  0  0  0
  193.5030  174.2000  138.4580 C   0  0  0  0  0  0  0  0  0  0  0  0
  189.0320  176.7630  141.7810 C   0  0  0  0  0  2  0  0  0  0  0  0
  188.0750  177.0290  142.9370 C   0  0  0  0  0  2  0  0  0  0  0  0
  186.6530  176.9780  142.4750 C   0  0  0  0  0  0  0  0  0  0  0  0
  185.6290  176.6800  143.2880 C   0  0  0  0  0  3  0  0  0  0  0  0
  186.3640  177.3560  141.1330 N   0  0  0  0  0  0  0  0  0  0  0  0
  185.9730  176.5690  138.7110 C   0  0  2  0  0  3  0  0  0  0  0  0
  186.6860  177.4060  139.7580 C   0  0  2  0  0  0  0  0  0  0  0  0
  186.9170  176.0130  139.5110 O   0  0  0  0  0  0  0  0  0  0  0  0
  184.4100  178.7130  139.8390 N   0  0  0  0  0  2  0  0  0  0  0  0
  185.4670  178.0200  140.1190 C   0  0  0  0  0  0  0  0  0  0  0  0
  186.5450  176.8250  137.4010 N   0  0  0  0  0  2  0  0  0  0  0  0
  187.9660  175.7650  135.7260 C   0  0  1  0  0  0  0  0  0  0  0  0
  188.7250  176.2040  136.8230 O   0  0  0  0  0  0  0  0  0  0  0  0
  187.4340  175.7090  137.1120 C   0  0  1  0  0  3  0  0  0  0  0  0
  187.5780  176.9090  134.7970 C   0  0  0  0  0  1  0  0  0  0  0  0
  188.4800  174.4540  135.1470 C   0  0  0  0  0  2  0  0  0  0  0  0
  189.6360  173.8920  135.9630 C   0  0  0  0  0  2  0  0  0  0  0  0
  190.5040  173.1790  135.1360 O   0  0  0  0  0  0  0  0  0  0  0  0
  191.2840  172.4280  136.0130 C   0  0  0  0  0  1  0  0  0  0  0  0
  185.7120  176.2750  144.6320 O   0  0  0  0  0  0  0  0  0  0  0  0
  185.5170  177.1160  145.7660 C   0  0  0  0  0  2  0  0  0  0  0  0
  186.5920  176.8690  146.8170 C   0  0  0  0  0  2  0  0  0  0  0  0
  187.7160  177.6570  146.5650 O   0  0  0  0  0  0  0  0  0  0  0  0
  190.0060  177.1700  146.1760 C   0  0  1  0  0  3  0  0  0  0  0  0
  191.1660  176.9980  146.9370 O   0  0  0  0  0  1  0  0  0  0  0  0
  189.2040  175.8730  146.0060 C   0  0  2  0  0  3  0  0  0  0  0  0
  188.7910  176.9030  147.0450 C   0  0  2  0  0  3  0  0  0  0  0  0
  189.9550  174.6910  148.0090 F   0  0  0  0  0  0  0  0  0  0  0  0
  189.0440  173.5110  146.3130 O   0  0  0  0  0  1  0  0  0  0  0  0
  189.8400  174.6120  146.6280 C   0  0  0  0  0  0  0  0  0  0  0  0
  191.0970  174.4200  146.0810 F   0  0  0  0  0  0  0  0  0  0  0  0
  1  5  1  0  0  0  0
  2 40  1  1  0  0  0
  2  3  1  0  0  0  0
  2  1  1  0  0  0  0
  3  4  1  0  0  0  0
  4  5  1  0  0  0  0
  4  6  1  1  0  0  0
  7 15  1  0  0  0  0
  8  6  1  0  0  0  0
  8 11  1  0  0  0  0
  9 12  2  0  0  0  0
 10 17  1  0  0  0  0
 11 21  1  6  0  0  0
 12 16  1  0  0  0  0
 13 28  1  6  0  0  0
 13 10  1  0  0  0  0
 14  7  2  0  0  0  0
 14  9  1  0  0  0  0
 15 13  1  0  0  0  0
 15 16  2  0  0  0  0
 16  8  1  0  0  0  0
 17 11  1  0  0  0  0
 18 22  1  0  0  0  0
 19 23  1  0  0  0  0
 20 18  2  0  0  0  0
 21 19  2  0  0  0  0
 21 20  1  0  0  0  0
 22 26  1  0  0  0  0
 23 22  2  0  0  0  0
 25 26  1  0  0  0  0
 26 27  1  0  0  0  0
 26 24  1  0  0  0  0
 29 28  1  1  0  0  0
 30 37  1  6  0  0  0
 30 34  1  0  0  0  0
 30 31  1  0  0  0  0
 31 39  1  6  0  0  0
 31 29  1  0  0  0  0
 33 29  1  0  0  0  0
 33 32  1  0  0  0  0
 34 33  2  0  0  0  0
 35 37  2  0  0  0  0
 37 36  1  0  0  0  0
 39 38  3  0  0  0  0
 40 41  1  0  0  0  0
 42 41  1  0  0  0  0
 42 43  2  0  0  0  0
 43 59  1  0  0  0  0
 44 42  1  0  0  0  0
 45 50  1  6  0  0  0
 45 47  1  0  0  0  0
 45 46  1  0  0  0  0
 46 47  1  6  0  0  0
 46 49  1  0  0  0  0
 46 44  1  0  0  0  0
 48 49  2  0  0  0  0
 49 44  1  0  0  0  0
 51 54  1  6  0  0  0
 51 52  1  0  0  0  0
 51 53  1  0  0  0  0
 52 53  1  0  0  0  0
 53 50  1  6  0  0  0
 55 51  1  0  0  0  0
 55 56  1  0  0  0  0
 57 56  1  0  0  0  0
 57 58  1  0  0  0  0
 59 60  1  0  0  0  0
 60 61  1  0  0  0  0
 62 61  1  0  0  0  0
 63 64  1  1  0  0  0
 63 66  1  0  0  0  0
 65 63  1  0  0  0  0
 65 69  1  1  0  0  0
 65 66  1  0  0  0  0
 66 62  1  6  0  0  0
 68 69  1  0  0  0  0
 69 67  1  0  0  0  0
 70 69  1  0  0  0  0
M  END
>  <MODEL>
6

>  <REMARK>
 VINA RESULT:      -3.8      3.472      6.216
  Name = 
  23 active torsions:
  status: ('A' for Active; 'I' for Inactive)
    1  A    between atoms: O_1  and  C_37
    2  A    between atoms: O_1  and  C_40
    3  A    between atoms: C_2  and  C_8
    4  A    between atoms: C_3  and  C_50
    5  A    between atoms: N_4  and  C_7
    6  A    between atoms: C_6  and  C_19
    7  A    between atoms: C_6  and  C_36
    8  A    between atoms: C_7  and  C_19
    9  A    between atoms: C_8  and  C_14
   10  A    between atoms: O_9  and  C_14
   11  A    between atoms: C_10  and  N_20
   12  A    between atoms: C_10  and  C_41
   13  A    between atoms: C_16  and  N_48
   14  A    between atoms: C_24  and  C_68
   15  A    between atoms: C_27  and  C_63
   16  A    between atoms: C_28  and  C_59
   17  A    between atoms: C_31  and  C_60
   18  A    between atoms: C_32  and  C_58
   19  A    between atoms: C_33  and  O_39
   20  A    between atoms: O_39  and  C_49
   21  A    between atoms: C_40  and  C_49
   22  A    between atoms: C_47  and  N_48
   23  A    between atoms: C_50  and  C_51
                            x       y       z     vdW  Elec       q    Type
                         _______ _______ _______ _____ _____    ______ ____

>  <TORSDO>
F 23

$$$$
=
 OpenBabel11072409423D

 70 78  0  0  1  0  0  0  0  0999 V2000
  184.8660  177.1200  146.2440 C   0  0  0  0  0  2  0  0  0  0  0  0
  185.2230  177.4470  144.8140 C   0  0  2  0  0  3  0  0  0  0  0  0
  186.7060  177.6660  144.8470 C   0  0  0  0  0  2  0  0  0  0  0  0
  187.1640  176.7560  145.9630 C   0  0  2  0  0  3  0  0  0  0  0  0
  186.0640  176.6240  146.9130 N   0  0  0  0  0  2  0  0  0  0  0  0
  188.3840  177.3260  146.6650 C   0  0  0  0  0  2  0  0  0  0  0  0
  192.7830  177.4710  144.4170 C   0  0  0  0  0  3  0  0  0  0  0  0
  189.5930  176.6080  146.2690 N   0  0  0  0  0  0  0  0  0  0  0  0
  190.9880  178.8770  143.6320 C   0  0  0  0  0  3  0  0  0  0  0  0
  191.9190  175.7560  147.6220 C   0  0  0  0  0  2  0  0  0  0  0  0
  189.6320  175.1860  146.6190 C   0  0  2  0  0  3  0  0  0  0  0  0
  190.1190  178.2560  144.5280 C   0  0  0  0  0  3  0  0  0  0  0  0
  192.4990  175.7380  146.2190 C   0  0  1  0  0  3  0  0  0  0  0  0
  192.3200  178.4790  143.5720 C   0  0  0  0  0  3  0  0  0  0  0  0
  191.9320  176.8470  145.3480 C   0  0  0  0  0  0  0  0  0  0  0  0
  190.5590  177.2310  145.3840 C   0  0  0  0  0  0  0  0  0  0  0  0
  190.6800  174.8710  147.6960 C   0  0  0  0  0  2  0  0  0  0  0  0
  189.4790  174.0770  142.9820 C   0  0  0  0  0  3  0  0  0  0  0  0
  189.8930  172.9150  145.4910 C   0  0  0  0  0  3  0  0  0  0  0  0
  189.4550  174.8710  144.1330 C   0  0  0  0  0  3  0  0  0  0  0  0
  189.6660  174.2980  145.3960 C   0  0  0  0  0  0  0  0  0  0  0  0
  189.7000  172.6940  143.0800 C   0  0  0  0  0  0  0  0  0  0  0  0
  189.9180  172.1220  144.3410 C   0  0  0  0  0  3  0  0  0  0  0  0
  190.0730  170.5400  142.2070 F   0  0  0  0  0  0  0  0  0  0  0  0
  188.5650  171.8630  141.1760 F   0  0  0  0  0  0  0  0  0  0  0  0
  189.7770  171.8420  141.8460 C   0  0  0  0  0  0  0  0  0  0  0  0
  190.7600  172.3070  140.9910 F   0  0  0  0  0  0  0  0  0  0  0  0
  194.0200  175.7550  146.3160 C   0  0  0  0  0  2  0  0  0  0  0  0
  194.5950  174.5740  145.5480 C   0  0  2  0  0  3  0  0  0  0  0  0
  194.5710  174.3390  143.0890 C   0  0  1  0  0  3  0  0  0  0  0  0
  195.2550  175.0630  144.2570 C   0  0  2  0  0  3  0  0  0  0  0  0
  192.7850  172.9200  145.8650 C   0  0  0  0  0  1  0  0  0  0  0  0
  193.5100  173.6910  145.0670 C   0  0  0  0  0  0  0  0  0  0  0  0
  193.5180  173.5200  143.6630 N   0  0  0  0  0  0  0  0  0  0  0  0
  194.7610  176.2160  141.6330 O   0  0  0  0  0  0  0  0  0  0  0  0
  192.6260  175.3120  141.7690 N   0  0  0  0  0  1  0  0  0  0  0  0
  194.0090  175.3310  142.1180 C   0  0  0  0  0  0  0  0  0  0  0  0
  197.8100  174.4740  144.2820 N   0  0  0  0  0  0  0  0  0  0  0  0
  196.6830  174.7360  144.2710 C   0  0  0  0  0  0  0  0  0  0  0  0
  184.4960  178.7000  144.3550 C   0  0  0  0  0  2  0  0  0  0  0  0
  184.8750  179.0610  142.9240 C   0  0  0  0  0  2  0  0  0  0  0  0
  183.8580  178.5430  141.9560 C   0  0  0  0  0  0  0  0  0  0  0  0
  184.1530  177.6690  140.9820 C   0  0  0  0  0  3  0  0  0  0  0  0
  182.4980  178.9230  142.1360 N   0  0  0  0  0  0  0  0  0  0  0  0
  180.0660  178.6700  141.3280 C   0  0  2  0  0  3  0  0  0  0  0  0
  181.2940  179.4940  141.6690 C   0  0  2  0  0  0  0  0  0  0  0  0
  181.1130  178.7330  140.4690 O   0  0  0  0  0  0  0  0  0  0  0  0
  180.6760  178.8530  144.1390 N   0  0  0  0  0  2  0  0  0  0  0  0
  181.2630  179.0170  142.9980 C   0  0  0  0  0  0  0  0  0  0  0  0
  179.0030  179.5390  140.8540 N   0  0  0  0  0  2  0  0  0  0  0  0
  178.8090  181.4960  139.4120 C   0  0  1  0  0  0  0  0  0  0  0  0
  180.0570  181.4690  140.0540 O   0  0  0  0  0  0  0  0  0  0  0  0
  179.5190  180.2180  139.6750 C   0  0  1  0  0  3  0  0  0  0  0  0
  177.6920  181.9630  140.3390 C   0  0  0  0  0  1  0  0  0  0  0  0
  178.8940  182.0360  137.9910 C   0  0  0  0  0  2  0  0  0  0  0  0
  179.4790  183.4400  137.9560 C   0  0  0  0  0  2  0  0  0  0  0  0
  180.8640  183.3790  137.7920 O   0  0  0  0  0  0  0  0  0  0  0  0
  181.0830  183.8360  136.4930 C   0  0  0  0  0  1  0  0  0  0  0  0
  185.4290  177.1870  140.6420 O   0  0  0  0  0  0  0  0  0  0  0  0
  186.3210  177.7880  139.7070 C   0  0  0  0  0  2  0  0  0  0  0  0
  186.4820  176.9120  138.4700 C   0  0  0  0  0  2  0  0  0  0  0  0
  187.0350  175.6770  138.8130 O   0  0  0  0  0  0  0  0  0  0  0  0
  188.6260  174.3130  137.6990 C   0  0  1  0  0  3  0  0  0  0  0  0
  188.6160  173.2260  136.8200 O   0  0  0  0  0  1  0  0  0  0  0  0
  188.5650  175.6660  136.9780 C   0  0  2  0  0  3  0  0  0  0  0  0
  187.3110  175.0620  137.5880 C   0  0  2  0  0  3  0  0  0  0  0  0
  189.5680  174.7610  134.9410 F   0  0  0  0  0  0  0  0  0  0  0  0
  187.3400  175.1250  135.0020 O   0  0  0  0  0  1  0  0  0  0  0  0
  188.5780  175.5990  135.4370 C   0  0  0  0  0  0  0  0  0  0  0  0
  188.7680  176.8720  134.9280 F   0  0  0  0  0  0  0  0  0  0  0  0
  1  5  1  0  0  0  0
  2 40  1  1  0  0  0
  2  3  1  0  0  0  0
  2  1  1  0  0  0  0
  3  4  1  0  0  0  0
  4  6  1  1  0  0  0
  4  5  1  0  0  0  0
  7 15  1  0  0  0  0
  8 11  1  0  0  0  0
  8  6  1  0  0  0  0
  9 12  2  0  0  0  0
 10 17  1  0  0  0  0
 11 21  1  6  0  0  0
 11 17  1  0  0  0  0
 12 16  1  0  0  0  0
 13 28  1  1  0  0  0
 13 10  1  0  0  0  0
 14  9  1  0  0  0  0
 14  7  2  0  0  0  0
 15 16  2  0  0  0  0
 15 13  1  0  0  0  0
 16  8  1  0  0  0  0
 18 22  2  0  0  0  0
 18 20  1  0  0  0  0
 20 21  2  0  0  0  0
 21 19  1  0  0  0  0
 22 23  1  0  0  0  0
 23 19  2  0  0  0  0
 25 26  1  0  0  0  0
 26 24  1  0  0  0  0
 26 22  1  0  0  0  0
 27 26  1  0  0  0  0
 29 28  1  6  0  0  0
 30 37  1  6  0  0  0
 30 34  1  0  0  0  0
 30 31  1  0  0  0  0
 31 39  1  1  0  0  0
 31 29  1  0  0  0  0
 33 29  1  0  0  0  0
 33 32  1  0  0  0  0
 34 33  2  0  0  0  0
 35 37  2  0  0  0  0
 36 37  1  0  0  0  0
 39 38  3  0  0  0  0
 41 40  1  0  0  0  0
 42 44  1  0  0  0  0
 42 41  1  0  0  0  0
 43 42  2  0  0  0  0
 44 49  1  0  0  0  0
 45 50  1  6  0  0  0
 45 46  1  0  0  0  0
 46 47  1  6  0  0  0
 46 44  1  0  0  0  0
 46 49  1  0  0  0  0
 47 45  1  0  0  0  0
 49 48  2  0  0  0  0
 51 53  1  0  0  0  0
 51 52  1  0  0  0  0
 51 54  1  1  0  0  0
 53 52  1  0  0  0  0
 53 50  1  1  0  0  0
 55 51  1  0  0  0  0
 56 55  1  0  0  0  0
 57 56  1  0  0  0  0
 58 57  1  0  0  0  0
 59 43  1  0  0  0  0
 60 59  1  0  0  0  0
 61 62  1  0  0  0  0
 61 60  1  0  0  0  0
 63 64  1  6  0  0  0
 65 69  1  6  0  0  0
 65 66  1  0  0  0  0
 65 63  1  0  0  0  0
 66 63  1  0  0  0  0
 66 62  1  1  0  0  0
 67 69  1  0  0  0  0
 68 69  1  0  0  0  0
 70 69  1  0  0  0  0
M  END
>  <MODEL>
7

>  <REMARK>
 VINA RESULT:      -3.5      3.576      7.390
  Name = 
  23 active torsions:
  status: ('A' for Active; 'I' for Inactive)
    1  A    between atoms: O_1  and  C_37
    2  A    between atoms: O_1  and  C_40
    3  A    between atoms: C_2  and  C_8
    4  A    between atoms: C_3  and  C_50
    5  A    between atoms: N_4  and  C_7
    6  A    between atoms: C_6  and  C_19
    7  A    between atoms: C_6  and  C_36
    8  A    between atoms: C_7  and  C_19
    9  A    between atoms: C_8  and  C_14
   10  A    between atoms: O_9  and  C_14
   11  A    between atoms: C_10  and  N_20
   12  A    between atoms: C_10  and  C_41
   13  A    between atoms: C_16  and  N_48
   14  A    between atoms: C_24  and  C_68
   15  A    between atoms: C_27  and  C_63
   16  A    between atoms: C_28  and  C_59
   17  A    between atoms: C_31  and  C_60
   18  A    between atoms: C_32  and  C_58
   19  A    between atoms: C_33  and  O_39
   20  A    between atoms: O_39  and  C_49
   21  A    between atoms: C_40  and  C_49
   22  A    between atoms: C_47  and  N_48
   23  A    between atoms: C_50  and  C_51
                            x       y       z     vdW  Elec       q    Type
                         _______ _______ _______ _____ _____    ______ ____

>  <TORSDO>
F 23

$$$$
=
 OpenBabel11072409423D

 70 78  0  0  1  0  0  0  0  0999 V2000
  189.8120  177.9110  142.6580 C   0  0  0  0  0  2  0  0  0  0  0  0
  188.4740  177.2500  142.8890 C   0  0  2  0  0  3  0  0  0  0  0  0
  188.6380  175.8760  142.3110 C   0  0  0  0  0  2  0  0  0  0  0  0
  190.1070  175.5900  142.5150 C   0  0  2  0  0  3  0  0  0  0  0  0
  190.8180  176.8650  142.5050 N   0  0  0  0  0  2  0  0  0  0  0  0
  190.6460  174.6920  141.4140 C   0  0  0  0  0  2  0  0  0  0  0  0
  195.0940  174.0780  143.4770 C   0  0  0  0  0  3  0  0  0  0  0  0
  191.6450  173.7670  141.9410 N   0  0  0  0  0  0  0  0  0  0  0  0
  194.7230  175.9060  141.9490 C   0  0  0  0  0  3  0  0  0  0  0  0
  191.9170  172.3110  144.3440 C   0  0  0  0  0  2  0  0  0  0  0  0
  191.3020  172.3440  141.8570 C   0  0  2  0  0  3  0  0  0  0  0  0
  193.4490  175.4110  141.6770 C   0  0  0  0  0  3  0  0  0  0  0  0
  193.3820  172.2930  143.9450 C   0  0  1  0  0  3  0  0  0  0  0  0
  195.5490  175.2340  142.8460 C   0  0  0  0  0  3  0  0  0  0  0  0
  193.8020  173.5730  143.2400 C   0  0  0  0  0  0  0  0  0  0  0  0
  192.9690  174.2420  142.2950 C   0  0  0  0  0  0  0  0  0  0  0  0
  191.0580  171.7140  143.2360 C   0  0  0  0  0  2  0  0  0  0  0  0
  192.8370  169.5010  139.8460 C   0  0  0  0  0  3  0  0  0  0  0  0
  193.3700  172.1940  140.3750 C   0  0  0  0  0  3  0  0  0  0  0  0
  191.9860  170.2320  140.6820 C   0  0  0  0  0  3  0  0  0  0  0  0
  192.2420  171.5850  140.9490 C   0  0  0  0  0  0  0  0  0  0  0  0
  193.9680  170.1110  139.2790 C   0  0  0  0  0  0  0  0  0  0  0  0
  194.2210  171.4650  139.5400 C   0  0  0  0  0  3  0  0  0  0  0  0
  194.0800  168.6240  137.4570 F   0  0  0  0  0  0  0  0  0  0  0  0
  195.6610  170.2230  137.6290 F   0  0  0  0  0  0  0  0  0  0  0  0
  194.8590  169.3480  138.3420 C   0  0  0  0  0  0  0  0  0  0  0  0
  195.6730  168.4750  139.0420 F   0  0  0  0  0  0  0  0  0  0  0  0
  194.2230  171.9700  145.1750 C   0  0  0  0  0  2  0  0  0  0  0  0
  194.7320  170.5390  145.0850 C   0  0  2  0  0  3  0  0  0  0  0  0
  196.4460  169.7450  143.4940 C   0  0  1  0  0  3  0  0  0  0  0  0
  196.2330  170.5370  144.7910 C   0  0  2  0  0  3  0  0  0  0  0  0
  192.8780  169.4910  143.8300 C   0  0  0  0  0  1  0  0  0  0  0  0
  194.1500  169.8550  143.9100 C   0  0  0  0  0  0  0  0  0  0  0  0
  195.1290  169.3610  143.0170 N   0  0  0  0  0  0  0  0  0  0  0  0
  197.5520  171.7380  142.7990 O   0  0  0  0  0  0  0  0  0  0  0  0
  197.3630  170.1140  141.1500 N   0  0  0  0  0  1  0  0  0  0  0  0
  197.1600  170.5850  142.4810 C   0  0  0  0  0  0  0  0  0  0  0  0
  197.5250  169.3750  146.7550 N   0  0  0  0  0  0  0  0  0  0  0  0
  196.9560  169.8900  145.8890 C   0  0  0  0  0  0  0  0  0  0  0  0
  187.3710  178.0150  142.1760 C   0  0  0  0  0  2  0  0  0  0  0  0
  186.6970  179.0070  143.1160 C   0  0  0  0  0  2  0  0  0  0  0  0
  185.7110  178.3160  144.0040 C   0  0  0  0  0  0  0  0  0  0  0  0
  184.4500  178.0520  143.6330 C   0  0  0  0  0  3  0  0  0  0  0  0
  186.1610  177.8330  145.2660 N   0  0  0  0  0  0  0  0  0  0  0  0
  188.0960  177.7200  146.9630 C   0  0  2  0  0  3  0  0  0  0  0  0
  187.0520  177.0820  146.0650 C   0  0  2  0  0  0  0  0  0  0  0  0
  188.2980  177.6340  145.6250 O   0  0  0  0  0  0  0  0  0  0  0  0
  185.3690  178.0190  147.8490 N   0  0  0  0  0  2  0  0  0  0  0  0
  186.0210  177.7460  146.7660 C   0  0  0  0  0  0  0  0  0  0  0  0
  188.8690  176.6890  147.6320 N   0  0  0  0  0  2  0  0  0  0  0  0
  191.1440  175.9450  147.1670 C   0  0  1  0  0  0  0  0  0  0  0  0
  190.2390  174.8760  147.0760 O   0  0  0  0  0  0  0  0  0  0  0  0
  189.7710  176.1340  146.6340 C   0  0  1  0  0  3  0  0  0  0  0  0
  191.4670  176.3080  148.6130 C   0  0  0  0  0  1  0  0  0  0  0  0
  192.2620  175.8550  146.1370 C   0  0  0  0  0  2  0  0  0  0  0  0
  193.5810  176.3720  146.6910 C   0  0  0  0  0  2  0  0  0  0  0  0
  193.9820  177.5100  145.9900 O   0  0  0  0  0  0  0  0  0  0  0  0
  193.4500  177.3410  144.7130 C   0  0  0  0  0  1  0  0  0  0  0  0
  183.8230  178.4530  142.4400 O   0  0  0  0  0  0  0  0  0  0  0  0
  182.5610  177.9850  141.9680 C   0  0  0  0  0  2  0  0  0  0  0  0
  182.1200  178.7650  140.7360 C   0  0  0  0  0  2  0  0  0  0  0  0
  181.4860  177.9220  139.8220 O   0  0  0  0  0  0  0  0  0  0  0  0
  179.3020  178.7240  139.3550 C   0  0  1  0  0  3  0  0  0  0  0  0
  178.0010  178.2120  139.3230 O   0  0  0  0  0  1  0  0  0  0  0  0
  179.7110  179.2300  140.7440 C   0  0  2  0  0  3  0  0  0  0  0  0
  180.1590  177.8600  140.2610 C   0  0  2  0  0  3  0  0  0  0  0  0
  179.1330  179.0400  143.1110 F   0  0  0  0  0  0  0  0  0  0  0  0
  177.8520  180.3240  141.7660 O   0  0  0  0  0  1  0  0  0  0  0  0
  178.6160  179.1580  141.8280 C   0  0  0  0  0  0  0  0  0  0  0  0
  177.7930  178.0760  141.5720 F   0  0  0  0  0  0  0  0  0  0  0  0
  1  2  1  0  0  0  0
  2 40  1  6  0  0  0
  3  4  1  0  0  0  0
  3  2  1  0  0  0  0
  4  6  1  6  0  0  0
  5  4  1  0  0  0  0
  5  1  1  0  0  0  0
  6  8  1  0  0  0  0
  8 16  1  0  0  0  0
  9 14  1  0  0  0  0
 11 21  1  1  0  0  0
 11  8  1  0  0  0  0
 11 17  1  0  0  0  0
 12  9  2  0  0  0  0
 12 16  1  0  0  0  0
 13 10  1  0  0  0  0
 13 28  1  1  0  0  0
 14  7  2  0  0  0  0
 15  7  1  0  0  0  0
 15 13  1  0  0  0  0
 16 15  2  0  0  0  0
 17 10  1  0  0  0  0
 18 20  1  0  0  0  0
 19 21  1  0  0  0  0
 20 21  2  0  0  0  0
 22 23  1  0  0  0  0
 22 18  2  0  0  0  0
 23 19  2  0  0  0  0
 24 26  1  0  0  0  0
 25 26  1  0  0  0  0
 26 27  1  0  0  0  0
 26 22  1  0  0  0  0
 29 28  1  6  0  0  0
 30 37  1  6  0  0  0
 30 31  1  0  0  0  0
 31 29  1  0  0  0  0
 31 39  1  1  0  0  0
 32 33  1  0  0  0  0
 33 29  1  0  0  0  0
 34 30  1  0  0  0  0
 34 33  2  0  0  0  0
 36 37  1  0  0  0  0
 37 35  2  0  0  0  0
 39 38  3  0  0  0  0
 40 41  1  0  0  0  0
 41 42  1  0  0  0  0
 42 44  1  0  0  0  0
 43 42  2  0  0  0  0
 44 46  1  0  0  0  0
 44 49  1  0  0  0  0
 45 50  1  1  0  0  0
 46 47  1  6  0  0  0
 46 49  1  0  0  0  0
 46 45  1  0  0  0  0
 47 45  1  0  0  0  0
 49 48  2  0  0  0  0
 51 54  1  1  0  0  0
 52 51  1  0  0  0  0
 53 52  1  0  0  0  0
 53 51  1  0  0  0  0
 53 50  1  1  0  0  0
 55 56  1  0  0  0  0
 55 51  1  0  0  0  0
 57 56  1  0  0  0  0
 58 57  1  0  0  0  0
 59 43  1  0  0  0  0
 60 59  1  0  0  0  0
 61 60  1  0  0  0  0
 62 61  1  0  0  0  0
 63 64  1  1  0  0  0
 63 66  1  0  0  0  0
 63 65  1  0  0  0  0
 65 69  1  1  0  0  0
 66 62  1  6  0  0  0
 66 65  1  0  0  0  0
 68 69  1  0  0  0  0
 69 67  1  0  0  0  0
 70 69  1  0  0  0  0
M  END
>  <MODEL>
8

>  <REMARK>
 VINA RESULT:      -3.5      4.013      9.182
  Name = 
  23 active torsions:
  status: ('A' for Active; 'I' for Inactive)
    1  A    between atoms: O_1  and  C_37
    2  A    between atoms: O_1  and  C_40
    3  A    between atoms: C_2  and  C_8
    4  A    between atoms: C_3  and  C_50
    5  A    between atoms: N_4  and  C_7
    6  A    between atoms: C_6  and  C_19
    7  A    between atoms: C_6  and  C_36
    8  A    between atoms: C_7  and  C_19
    9  A    between atoms: C_8  and  C_14
   10  A    between atoms: O_9  and  C_14
   11  A    between atoms: C_10  and  N_20
   12  A    between atoms: C_10  and  C_41
   13  A    between atoms: C_16  and  N_48
   14  A    between atoms: C_24  and  C_68
   15  A    between atoms: C_27  and  C_63
   16  A    between atoms: C_28  and  C_59
   17  A    between atoms: C_31  and  C_60
   18  A    between atoms: C_32  and  C_58
   19  A    between atoms: C_33  and  O_39
   20  A    between atoms: O_39  and  C_49
   21  A    between atoms: C_40  and  C_49
   22  A    between atoms: C_47  and  N_48
   23  A    between atoms: C_50  and  C_51
                            x       y       z     vdW  Elec       q    Type
                         _______ _______ _______ _____ _____    ______ ____

>  <TORSDO>
F 23

$$$$
=
 OpenBabel11072409423D

 70 78  0  0  1  0  0  0  0  0999 V2000
  184.9390  176.6330  145.7180 C   0  0  0  0  0  2  0  0  0  0  0  0
  185.3730  177.3250  144.4480 C   0  0  2  0  0  3  0  0  0  0  0  0
  186.8350  177.5890  144.6560 C   0  0  0  0  0  2  0  0  0  0  0  0
  187.2690  176.4480  145.5450 C   0  0  2  0  0  3  0  0  0  0  0  0
  186.1160  176.0350  146.3390 N   0  0  0  0  0  2  0  0  0  0  0  0
  188.4010  176.8720  146.4640 C   0  0  0  0  0  2  0  0  0  0  0  0
  192.7140  177.5720  144.1550 C   0  0  0  0  0  3  0  0  0  0  0  0
  189.6710  176.3030  146.0200 N   0  0  0  0  0  0  0  0  0  0  0  0
  190.7660  178.8090  143.4570 C   0  0  0  0  0  3  0  0  0  0  0  0
  192.1000  175.6510  147.3000 C   0  0  0  0  0  2  0  0  0  0  0  0
  189.8670  174.8800  146.3110 C   0  0  2  0  0  3  0  0  0  0  0  0
  189.9860  178.0650  144.3400 C   0  0  0  0  0  3  0  0  0  0  0  0
  192.6510  175.7490  145.8890 C   0  0  1  0  0  3  0  0  0  0  0  0
  192.1320  178.5580  143.3600 C   0  0  0  0  0  3  0  0  0  0  0  0
  191.9530  176.8250  145.0730 C   0  0  0  0  0  0  0  0  0  0  0  0
  190.5480  177.0600  145.1460 C   0  0  0  0  0  0  0  0  0  0  0  0
  190.9640  174.6370  147.3570 C   0  0  0  0  0  2  0  0  0  0  0  0
  189.6560  173.8720  142.6470 C   0  0  0  0  0  3  0  0  0  0  0  0
  190.4420  172.7270  145.0740 C   0  0  0  0  0  3  0  0  0  0  0  0
  189.5740  174.6130  143.8300 C   0  0  0  0  0  3  0  0  0  0  0  0
  189.9700  174.0500  145.0510 C   0  0  0  0  0  0  0  0  0  0  0  0
  190.1220  172.5470  142.6730 C   0  0  0  0  0  0  0  0  0  0  0  0
  190.5250  171.9860  143.8920 C   0  0  0  0  0  3  0  0  0  0  0  0
  189.3740  172.2530  140.4600 F   0  0  0  0  0  0  0  0  0  0  0  0
  191.5510  171.8710  140.9110 F   0  0  0  0  0  0  0  0  0  0  0  0
  190.2610  171.7600  141.4010 C   0  0  0  0  0  0  0  0  0  0  0  0
  189.9860  170.4230  141.6210 F   0  0  0  0  0  0  0  0  0  0  0  0
  194.1630  175.9240  145.9630 C   0  0  0  0  0  2  0  0  0  0  0  0
  194.8460  174.8180  145.1720 C   0  0  2  0  0  3  0  0  0  0  0  0
  194.6130  174.4670  142.7380 C   0  0  1  0  0  3  0  0  0  0  0  0
  195.2820  175.3460  143.8040 C   0  0  2  0  0  3  0  0  0  0  0  0
  193.3760  172.9090  145.7300 C   0  0  0  0  0  1  0  0  0  0  0  0
  193.8790  173.7490  144.8360 C   0  0  0  0  0  0  0  0  0  0  0  0
  193.7740  173.5170  143.4450 N   0  0  0  0  0  0  0  0  0  0  0  0
  192.6570  174.9170  141.4540 O   0  0  0  0  0  0  0  0  0  0  0  0
  194.3210  176.5260  141.2730 N   0  0  0  0  0  1  0  0  0  0  0  0
  193.8010  175.3090  141.8040 C   0  0  0  0  0  0  0  0  0  0  0  0
  197.8890  175.1800  143.5730 N   0  0  0  0  0  0  0  0  0  0  0  0
  196.7390  175.2550  143.6760 C   0  0  0  0  0  0  0  0  0  0  0  0
  184.6050  178.6220  144.2570 C   0  0  0  0  0  2  0  0  0  0  0  0
  185.0410  179.3340  142.9820 C   0  0  0  0  0  2  0  0  0  0  0  0
  184.3740  178.7370  141.7820 C   0  0  0  0  0  0  0  0  0  0  0  0
  185.0360  178.0430  140.8460 C   0  0  0  0  0  3  0  0  0  0  0  0
  182.9570  178.8330  141.6800 N   0  0  0  0  0  0  0  0  0  0  0  0
  180.7660  177.6730  140.9810 C   0  0  2  0  0  3  0  0  0  0  0  0
  181.7600  178.8190  140.9300 C   0  0  2  0  0  0  0  0  0  0  0  0
  181.9080  177.5620  140.2590 O   0  0  0  0  0  0  0  0  0  0  0  0
  180.8830  179.3000  143.3580 N   0  0  0  0  0  2  0  0  0  0  0  0
  181.6050  179.0350  142.3170 C   0  0  0  0  0  0  0  0  0  0  0  0
  179.6550  177.9430  140.0850 N   0  0  0  0  0  2  0  0  0  0  0  0
  178.3990  176.9050  138.2700 C   0  0  1  0  0  0  0  0  0  0  0  0
  179.7670  176.9660  137.9620 O   0  0  0  0  0  0  0  0  0  0  0  0
  179.4400  176.7260  139.3150 C   0  0  1  0  0  3  0  0  0  0  0  0
  177.7060  178.2520  138.0940 C   0  0  0  0  0  1  0  0  0  0  0  0
  177.7390  175.6350  137.7510 C   0  0  0  0  0  2  0  0  0  0  0  0
  178.7560  174.6800  137.1430 C   0  0  0  0  0  2  0  0  0  0  0  0
  178.7960  174.8400  135.7580 O   0  0  0  0  0  0  0  0  0  0  0  0
  178.3420  173.6230  135.2510 C   0  0  0  0  0  1  0  0  0  0  0  0
  186.4260  177.8490  140.7680 O   0  0  0  0  0  0  0  0  0  0  0  0
  187.0770  176.6190  140.4600 C   0  0  0  0  0  2  0  0  0  0  0  0
  187.2720  176.4700  138.9560 C   0  0  0  0  0  2  0  0  0  0  0  0
  186.2550  175.6890  138.4050 O   0  0  0  0  0  0  0  0  0  0  0  0
  188.2070  175.2220  137.1400 C   0  0  1  0  0  3  0  0  0  0  0  0
  188.5930  174.3370  136.1290 O   0  0  0  0  0  1  0  0  0  0  0  0
  187.5830  176.5140  136.5990 C   0  0  2  0  0  3  0  0  0  0  0  0
  186.7000  175.3900  137.1140 C   0  0  2  0  0  3  0  0  0  0  0  0
  186.3050  176.3810  134.5200 F   0  0  0  0  0  0  0  0  0  0  0  0
  187.9170  177.9490  134.7210 O   0  0  0  0  0  1  0  0  0  0  0  0
  187.5560  176.6460  135.0620 C   0  0  0  0  0  0  0  0  0  0  0  0
  188.4790  175.7730  134.5130 F   0  0  0  0  0  0  0  0  0  0  0  0
  1  5  1  0  0  0  0
  2 40  1  1  0  0  0
  2  3  1  0  0  0  0
  2  1  1  0  0  0  0
  3  4  1  0  0  0  0
  4  5  1  0  0  0  0
  4  6  1  1  0  0  0
  7 15  1  0  0  0  0
  8 11  1  0  0  0  0
  8  6  1  0  0  0  0
  9 12  2  0  0  0  0
 10 17  1  0  0  0  0
 11 21  1  6  0  0  0
 11 17  1  0  0  0  0
 12 16  1  0  0  0  0
 13 28  1  1  0  0  0
 13 10  1  0  0  0  0
 14  9  1  0  0  0  0
 14  7  2  0  0  0  0
 15 16  2  0  0  0  0
 15 13  1  0  0  0  0
 16  8  1  0  0  0  0
 18 22  2  0  0  0  0
 18 20  1  0  0  0  0
 20 21  2  0  0  0  0
 21 19  1  0  0  0  0
 22 23  1  0  0  0  0
 23 19  2  0  0  0  0
 24 26  1  0  0  0  0
 25 26  1  0  0  0  0
 26 27  1  0  0  0  0
 26 22  1  0  0  0  0
 29 28  1  1  0  0  0
 30 37  1  6  0  0  0
 30 34  1  0  0  0  0
 30 31  1  0  0  0  0
 31 39  1  1  0  0  0
 31 29  1  0  0  0  0
 33 29  1  0  0  0  0
 33 32  1  0  0  0  0
 34 33  2  0  0  0  0
 35 37  2  0  0  0  0
 36 37  1  0  0  0  0
 38 39  3  0  0  0  0
 41 40  1  0  0  0  0
 42 41  1  0  0  0  0
 43 42  2  0  0  0  0
 44 42  1  0  0  0  0
 44 49  1  0  0  0  0
 45 50  1  6  0  0  0
 46 47  1  6  0  0  0
 46 45  1  0  0  0  0
 46 44  1  0  0  0  0
 46 49  1  0  0  0  0
 47 45  1  0  0  0  0
 49 48  2  0  0  0  0
 51 54  1  6  0  0  0
 51 53  1  0  0  0  0
 52 51  1  0  0  0  0
 52 53  1  0  0  0  0
 53 50  1  1  0  0  0
 55 51  1  0  0  0  0
 56 55  1  0  0  0  0
 57 56  1  0  0  0  0
 58 57  1  0  0  0  0
 59 43  1  0  0  0  0
 60 59  1  0  0  0  0
 61 60  1  0  0  0  0
 62 61  1  0  0  0  0
 63 64  1  6  0  0  0
 65 69  1  6  0  0  0
 65 66  1  0  0  0  0
 65 63  1  0  0  0  0
 66 63  1  0  0  0  0
 66 62  1  1  0  0  0
 67 69  1  0  0  0  0
 68 69  1  0  0  0  0
 70 69  1  0  0  0  0
M  END
>  <MODEL>
9

>  <REMARK>
 VINA RESULT:      -3.3      3.710      7.354
  Name = 
  23 active torsions:
  status: ('A' for Active; 'I' for Inactive)
    1  A    between atoms: O_1  and  C_37
    2  A    between atoms: O_1  and  C_40
    3  A    between atoms: C_2  and  C_8
    4  A    between atoms: C_3  and  C_50
    5  A    between atoms: N_4  and  C_7
    6  A    between atoms: C_6  and  C_19
    7  A    between atoms: C_6  and  C_36
    8  A    between atoms: C_7  and  C_19
    9  A    between atoms: C_8  and  C_14
   10  A    between atoms: O_9  and  C_14
   11  A    between atoms: C_10  and  N_20
   12  A    between atoms: C_10  and  C_41
   13  A    between atoms: C_16  and  N_48
   14  A    between atoms: C_24  and  C_68
   15  A    between atoms: C_27  and  C_63
   16  A    between atoms: C_28  and  C_59
   17  A    between atoms: C_31  and  C_60
   18  A    between atoms: C_32  and  C_58
   19  A    between atoms: C_33  and  O_39
   20  A    between atoms: O_39  and  C_49
   21  A    between atoms: C_40  and  C_49
   22  A    between atoms: C_47  and  N_48
   23  A    between atoms: C_50  and  C_51
                            x       y       z     vdW  Elec       q    Type
                         _______ _______ _______ _____ _____    ______ ____

>  <TORSDO>
F 23

$$$$
