=
 OpenBabel11062422513D

 46 53  0  0  1  0  0  0  0  0999 V2000
  191.7470  172.9910  140.5830 N   0  0  0  0  0  0  0  0  0  0  0  0
  193.6170  174.4200  142.2480 C   0  0  2  0  0  3  0  0  0  0  0  0
  190.6340  172.7740  138.4190 N   0  0  0  0  0  0  0  0  0  0  0  0
  193.5440  173.0270  139.0620 O   0  0  0  0  0  0  0  0  0  0  0  0
  193.3770  174.7440  140.7840 C   0  0  1  0  0  3  0  0  0  0  0  0
  192.9430  173.5190  140.0550 C   0  0  0  0  0  0  0  0  0  0  0  0
  189.9140  173.9550  141.4860 C   0  0  1  0  0  3  0  0  0  0  0  0
  189.4630  173.1860  140.5070 C   0  0  1  0  0  3  0  0  0  0  0  0
  191.3280  173.8280  141.6080 N   0  0  2  0  0  0  0  0  0  0  0  0
  188.2070  173.3830  139.7810 C   0  0  0  0  0  3  0  0  0  0  0  0
  190.5990  172.4590  139.8540 C   0  0  2  0  0  3  0  0  0  0  0  0
  189.5550  173.0970  137.7530 C   0  0  0  0  0  3  0  0  0  0  0  0
  192.2540  174.9430  141.8220 C   0  0  1  0  0  3  0  0  0  0  0  0
  188.2570  173.3070  138.4450 C   0  0  0  0  0  3  0  0  0  0  0  0
  195.7890  175.4520  142.3480 C   0  0  0  0  0  0  0  0  0  0  0  0
  196.1890  175.0350  143.6830 N   0  0  0  0  0  2  0  0  0  0  0  0
  194.8570  175.1670  144.1830 N   0  0  0  0  0  0  0  0  0  0  0  0
  194.4630  175.5290  142.8670 C   0  0  2  0  0  3  0  0  0  0  0  0
  196.3610  175.6460  141.2440 O   0  0  0  0  0  0  0  0  0  0  0  0
  194.2430  175.0700  145.4670 C   0  0  0  0  0  0  0  0  0  0  0  0
  193.3450  174.1270  145.7100 C   0  0  0  0  0  2  0  0  0  0  0  0
  194.5660  176.0720  146.5210 C   0  0  0  0  0  2  0  0  0  0  0  0
  194.6290  177.4570  145.9120 C   0  0  0  0  0  1  0  0  0  0  0  0
  189.1230  174.8560  142.2020 O   0  0  0  0  0  0  0  0  0  0  0  0
  189.3440  177.2150  142.7790 C   0  0  1  0  0  3  0  0  0  0  0  0
  188.8710  176.1810  141.7510 C   0  0  2  0  0  3  0  0  0  0  0  0
  186.9470  177.0330  142.8740 C   0  0  1  0  0  3  0  0  0  0  0  0
  187.3860  176.3880  141.5690 C   0  0  1  0  0  3  0  0  0  0  0  0
  187.1840  177.2480  140.4850 O   0  0  0  0  0  1  0  0  0  0  0  0
  188.1540  177.7640  143.4380 C   0  0  1  0  0  3  0  0  0  0  0  0
  189.0090  176.8030  144.1530 N   0  0  0  0  0  0  0  0  0  0  0  0
  184.7070  177.4800  142.2260 O   0  0  0  0  0  0  0  0  0  0  0  0
  185.7240  177.9000  142.7620 C   0  0  0  0  0  0  0  0  0  0  0  0
  185.7450  179.2750  143.3510 C   0  0  0  0  0  2  0  0  0  0  0  0
  184.9830  179.3260  144.6650 C   0  0  0  0  0  2  0  0  0  0  0  0
  185.9530  179.2240  145.8330 C   0  0  0  0  0  2  0  0  0  0  0  0
  185.5660  178.1140  146.8010 C   0  0  0  0  0  3  0  0  0  0  0  0
  184.3350  178.3860  147.4030 O   0  0  0  0  0  1  0  0  0  0  0  0
  185.5160  176.8850  146.1410 O   0  0  0  0  0  1  0  0  0  0  0  0
  189.8810  177.5680  145.0290 C   0  0  0  0  0  2  0  0  0  0  0  0
  189.4530  177.3830  146.4750 C   0  0  0  0  0  2  0  0  0  0  0  0
  191.4910  176.7570  147.4900 O   0  0  0  0  0  0  0  0  0  0  0  0
  190.3550  176.4220  147.1860 C   0  0  0  0  0  0  0  0  0  0  0  0
  188.6430  174.8350  146.9360 O   0  0  0  0  0  0  0  0  0  0  0  0
  189.8660  175.0530  147.5280 C   0  0  0  0  0  3  0  0  0  0  0  0
  189.7400  174.3000  146.3790 O   0  0  0  0  0  0  0  0  0  0  0  0
  2 18  1  1  0  0  0
  4  6  2  0  0  0  0
  5  6  1  6  0  0  0
  5 13  1  0  0  0  0
  5  2  1  0  0  0  0
  6  1  1  0  0  0  0
  7  9  1  0  0  0  0
  7 24  1  6  0  0  0
  8 10  1  6  0  0  0
  8  7  1  0  0  0  0
  9  1  1  6  0  0  0
  9 13  1  0  0  0  0
 11  3  1  6  0  0  0
 11  8  1  0  0  0  0
 11  1  1  0  0  0  0
 12  3  2  0  0  0  0
 12 14  1  0  0  0  0
 13  2  1  0  0  0  0
 14 10  2  0  0  0  0
 15 18  1  0  0  0  0
 15 16  1  0  0  0  0
 16 17  1  0  0  0  0
 17 20  1  0  0  0  0
 18 17  1  0  0  0  0
 19 15  2  0  0  0  0
 20 21  2  0  0  0  0
 20 22  1  0  0  0  0
 23 22  1  0  0  0  0
 25 30  1  0  0  0  0
 25 31  1  0  0  0  0
 26 24  1  0  0  0  0
 26 25  1  0  0  0  0
 27 30  1  0  0  0  0
 28 26  1  0  0  0  0
 28 27  1  0  0  0  0
 29 28  1  0  0  0  0
 30 31  1  0  0  0  0
 31 40  1  0  0  0  0
 32 33  2  0  0  0  0
 33 27  1  0  0  0  0
 33 34  1  0  0  0  0
 34 35  1  0  0  0  0
 35 36  1  0  0  0  0
 36 37  1  0  0  0  0
 37 38  1  0  0  0  0
 39 37  1  0  0  0  0
 40 41  1  0  0  0  0
 41 43  1  0  0  0  0
 43 42  2  0  0  0  0
 43 45  1  0  0  0  0
 44 45  1  0  0  0  0
 46 44  1  0  0  0  0
 46 45  1  0  0  0  0
M  END
>  <MODEL>
1

>  <REMARK>
 VINA RESULT:      -7.3      0.000      0.000
  Name = 
  14 active torsions:
  status: ('A' for Active; 'I' for Inactive)
    1  A    between atoms: C_1  and  C_23
    2  A    between atoms: C_2  and  C_13
    3  A    between atoms: C_2  and  N_44
    4  A    between atoms: C_4  and  C_24
    5  A    between atoms: C_8  and  O_37
    6  A    between atoms: C_10  and  C_41
    7  A    between atoms: C_11  and  C_30
    8  A    between atoms: C_13  and  C_30
    9  A    between atoms: C_14  and  C_19
   10  A    between atoms: C_19  and  C_35
   11  A    between atoms: N_21  and  C_23
   12  A    between atoms: C_26  and  O_37
   13  A    between atoms: C_35  and  C_42
   14  A    between atoms: C_41  and  C_42
                            x       y       z     vdW  Elec       q    Type
                         _______ _______ _______ _____ _____    ______ ____

>  <TORSDO>
F 14

$$$$
=
 OpenBabel11062422513D

 46 53  0  0  1  0  0  0  0  0999 V2000
  191.7970  173.5650  141.1140 N   0  0  0  0  0  0  0  0  0  0  0  0
  193.5800  174.9500  142.9070 C   0  0  2  0  0  3  0  0  0  0  0  0
  190.7140  173.4640  138.9270 N   0  0  0  0  0  0  0  0  0  0  0  0
  193.6020  173.8110  139.6220 O   0  0  0  0  0  0  0  0  0  0  0  0
  193.3350  175.3760  141.4700 C   0  0  1  0  0  3  0  0  0  0  0  0
  192.9690  174.1920  140.6420 C   0  0  0  0  0  0  0  0  0  0  0  0
  189.9100  174.3620  142.0680 C   0  0  1  0  0  3  0  0  0  0  0  0
  189.5070  173.6510  141.0260 C   0  0  1  0  0  3  0  0  0  0  0  0
  191.3280  174.2970  142.1960 N   0  0  2  0  0  0  0  0  0  0  0  0
  188.2490  173.8410  140.3030 C   0  0  0  0  0  3  0  0  0  0  0  0
  190.6840  173.0360  140.3310 C   0  0  2  0  0  3  0  0  0  0  0  0
  189.6250  173.7840  138.2750 C   0  0  0  0  0  3  0  0  0  0  0  0
  192.1950  175.4360  142.5070 C   0  0  1  0  0  3  0  0  0  0  0  0
  188.3130  173.8730  138.9660 C   0  0  0  0  0  3  0  0  0  0  0  0
  195.7560  175.8580  143.3860 C   0  0  0  0  0  0  0  0  0  0  0  0
  195.8540  175.5120  144.7960 N   0  0  0  0  0  2  0  0  0  0  0  0
  194.4620  175.7550  145.0080 N   0  0  0  0  0  0  0  0  0  0  0  0
  194.3620  176.0480  143.6210 C   0  0  2  0  0  3  0  0  0  0  0  0
  196.5480  175.9410  142.4110 O   0  0  0  0  0  0  0  0  0  0  0  0
  193.6010  175.7840  146.1450 C   0  0  0  0  0  0  0  0  0  0  0  0
  193.6290  176.8130  146.9790 C   0  0  0  0  0  2  0  0  0  0  0  0
  192.7140  174.6230  146.4330 C   0  0  0  0  0  2  0  0  0  0  0  0
  191.2920  174.9480  146.0260 C   0  0  0  0  0  1  0  0  0  0  0  0
  189.0690  175.1640  142.8420 O   0  0  0  0  0  0  0  0  0  0  0  0
  188.9180  177.1740  144.2150 C   0  0  1  0  0  3  0  0  0  0  0  0
  189.1250  176.5840  142.8150 C   0  0  2  0  0  3  0  0  0  0  0  0
  186.9060  177.4520  142.9260 C   0  0  1  0  0  3  0  0  0  0  0  0
  188.0170  177.1250  141.9410 C   0  0  1  0  0  3  0  0  0  0  0  0
  188.4780  178.2750  141.2950 O   0  0  0  0  0  1  0  0  0  0  0  0
  187.5660  177.7410  144.2640 C   0  0  1  0  0  3  0  0  0  0  0  0
  187.8510  176.4690  144.9460 N   0  0  0  0  0  0  0  0  0  0  0  0
  185.9610  179.6270  143.0360 O   0  0  0  0  0  0  0  0  0  0  0  0
  185.9720  178.5400  142.4740 C   0  0  0  0  0  0  0  0  0  0  0  0
  185.0790  178.2970  141.2990 C   0  0  0  0  0  2  0  0  0  0  0  0
  183.6790  177.9040  141.7400 C   0  0  0  0  0  2  0  0  0  0  0  0
  182.6690  178.2800  140.6660 C   0  0  0  0  0  2  0  0  0  0  0  0
  181.3790  178.8270  141.2610 C   0  0  0  0  0  3  0  0  0  0  0  0
  180.6350  179.5070  140.2940 O   0  0  0  0  0  1  0  0  0  0  0  0
  180.6190  177.7950  141.8120 O   0  0  0  0  0  1  0  0  0  0  0  0
  188.0580  176.7690  146.3530 C   0  0  0  0  0  2  0  0  0  0  0  0
  186.7240  176.7870  147.0790 C   0  0  0  0  0  2  0  0  0  0  0  0
  186.8760  178.8170  148.2760 O   0  0  0  0  0  0  0  0  0  0  0  0
  186.3020  178.1870  147.3990 C   0  0  0  0  0  0  0  0  0  0  0  0
  184.5540  177.8730  145.8620 O   0  0  0  0  0  0  0  0  0  0  0  0
  185.1790  178.8200  146.6430 C   0  0  0  0  0  3  0  0  0  0  0  0
  183.9820  178.2460  147.0170 O   0  0  0  0  0  0  0  0  0  0  0  0
  2 18  1  1  0  0  0
  4  6  2  0  0  0  0
  5  6  1  6  0  0  0
  5 13  1  0  0  0  0
  5  2  1  0  0  0  0
  6  1  1  0  0  0  0
  7  9  1  0  0  0  0
  7 24  1  6  0  0  0
  8 10  1  6  0  0  0
  8  7  1  0  0  0  0
  9  1  1  6  0  0  0
  9 13  1  0  0  0  0
 11  3  1  6  0  0  0
 11  8  1  0  0  0  0
 11  1  1  0  0  0  0
 12  3  2  0  0  0  0
 12 14  1  0  0  0  0
 13  2  1  0  0  0  0
 14 10  2  0  0  0  0
 15 18  1  0  0  0  0
 15 16  1  0  0  0  0
 16 17  1  0  0  0  0
 17 20  1  0  0  0  0
 18 17  1  0  0  0  0
 19 15  2  0  0  0  0
 20 22  1  0  0  0  0
 20 21  2  0  0  0  0
 23 22  1  0  0  0  0
 25 30  1  0  0  0  0
 25 31  1  0  0  0  0
 26 24  1  0  0  0  0
 26 25  1  0  0  0  0
 27 30  1  0  0  0  0
 28 26  1  0  0  0  0
 28 27  1  0  0  0  0
 29 28  1  0  0  0  0
 30 31  1  0  0  0  0
 31 40  1  0  0  0  0
 33 27  1  0  0  0  0
 33 32  2  0  0  0  0
 34 35  1  0  0  0  0
 34 33  1  0  0  0  0
 36 37  1  0  0  0  0
 36 35  1  0  0  0  0
 37 39  1  0  0  0  0
 38 37  1  0  0  0  0
 40 41  1  0  0  0  0
 41 43  1  0  0  0  0
 43 42  2  0  0  0  0
 44 45  1  0  0  0  0
 44 46  1  0  0  0  0
 45 46  1  0  0  0  0
 45 43  1  0  0  0  0
M  END
>  <MODEL>
2

>  <REMARK>
 VINA RESULT:      -7.3      1.764      3.145
  Name = 
  14 active torsions:
  status: ('A' for Active; 'I' for Inactive)
    1  A    between atoms: C_1  and  C_23
    2  A    between atoms: C_2  and  C_13
    3  A    between atoms: C_2  and  N_44
    4  A    between atoms: C_4  and  C_24
    5  A    between atoms: C_8  and  O_37
    6  A    between atoms: C_10  and  C_41
    7  A    between atoms: C_11  and  C_30
    8  A    between atoms: C_13  and  C_30
    9  A    between atoms: C_14  and  C_19
   10  A    between atoms: C_19  and  C_35
   11  A    between atoms: N_21  and  C_23
   12  A    between atoms: C_26  and  O_37
   13  A    between atoms: C_35  and  C_42
   14  A    between atoms: C_41  and  C_42
                            x       y       z     vdW  Elec       q    Type
                         _______ _______ _______ _____ _____    ______ ____

>  <TORSDO>
F 14

$$$$
=
 OpenBabel11062422513D

 46 53  0  0  1  0  0  0  0  0999 V2000
  193.2420  172.3380  140.5020 N   0  0  0  0  0  0  0  0  0  0  0  0
  194.3480  174.4480  142.1260 C   0  0  2  0  0  3  0  0  0  0  0  0
  192.7650  171.4650  138.2710 N   0  0  0  0  0  0  0  0  0  0  0  0
  195.3270  172.4980  139.4190 O   0  0  0  0  0  0  0  0  0  0  0  0
  194.4290  174.4250  140.6100 C   0  0  1  0  0  3  0  0  0  0  0  0
  194.4180  173.0170  140.1200 C   0  0  0  0  0  0  0  0  0  0  0  0
  191.0990  173.0090  140.7530 C   0  0  1  0  0  3  0  0  0  0  0  0
  191.0530  171.9850  139.9140 C   0  0  1  0  0  3  0  0  0  0  0  0
  192.4360  173.2360  141.1900 N   0  0  2  0  0  0  0  0  0  0  0  0
  190.0060  171.7470  138.9210 C   0  0  0  0  0  3  0  0  0  0  0  0
  192.4280  171.4290  139.7010 C   0  0  2  0  0  3  0  0  0  0  0  0
  191.8470  171.3990  137.3410 C   0  0  0  0  0  3  0  0  0  0  0  0
  193.0640  174.5540  141.3170 C   0  0  1  0  0  3  0  0  0  0  0  0
  190.4010  171.4320  137.6810 C   0  0  0  0  0  3  0  0  0  0  0  0
  196.2050  175.7930  142.8580 C   0  0  0  0  0  0  0  0  0  0  0  0
  195.8780  175.9010  144.2720 N   0  0  0  0  0  2  0  0  0  0  0  0
  194.4770  175.9700  143.9980 N   0  0  0  0  0  0  0  0  0  0  0  0
  194.7980  175.8190  142.6230 C   0  0  2  0  0  3  0  0  0  0  0  0
  197.2550  175.7090  142.1700 O   0  0  0  0  0  0  0  0  0  0  0  0
  193.3040  176.1970  144.7770 C   0  0  0  0  0  0  0  0  0  0  0  0
  192.4730  177.1810  144.4650 C   0  0  0  0  0  2  0  0  0  0  0  0
  193.0430  175.3660  145.9860 C   0  0  0  0  0  2  0  0  0  0  0  0
  193.1450  173.8970  145.6320 C   0  0  0  0  0  1  0  0  0  0  0  0
  190.0060  173.8230  141.0560 O   0  0  0  0  0  0  0  0  0  0  0  0
  187.9360  174.5320  142.1330 C   0  0  1  0  0  3  0  0  0  0  0  0
  189.0680  173.5000  142.0740 C   0  0  2  0  0  3  0  0  0  0  0  0
  189.4540  174.9060  143.9620 C   0  0  1  0  0  3  0  0  0  0  0  0
  189.7490  173.5160  143.4230 C   0  0  1  0  0  3  0  0  0  0  0  0
  189.1730  172.5270  144.2260 O   0  0  0  0  0  1  0  0  0  0  0  0
  188.1570  175.3690  143.3180 C   0  0  1  0  0  3  0  0  0  0  0  0
  188.4490  175.9050  141.9790 N   0  0  0  0  0  0  0  0  0  0  0  0
  189.5570  174.0030  146.1550 O   0  0  0  0  0  0  0  0  0  0  0  0
  189.4430  175.0050  145.4620 C   0  0  0  0  0  0  0  0  0  0  0  0
  189.3320  176.3510  146.1060 C   0  0  0  0  0  2  0  0  0  0  0  0
  187.9770  176.5390  146.7660 C   0  0  0  0  0  2  0  0  0  0  0  0
  187.2530  177.7220  146.1420 C   0  0  0  0  0  2  0  0  0  0  0  0
  185.7750  177.7440  146.5070 C   0  0  0  0  0  3  0  0  0  0  0  0
  185.1540  176.5490  146.1360 O   0  0  0  0  0  1  0  0  0  0  0  0
  185.6110  177.9650  147.8750 O   0  0  0  0  0  1  0  0  0  0  0  0
  187.3120  176.7200  141.5830 C   0  0  0  0  0  2  0  0  0  0  0  0
  187.4190  178.0980  142.2110 C   0  0  0  0  0  2  0  0  0  0  0  0
  186.0050  179.6230  143.3300 O   0  0  0  0  0  0  0  0  0  0  0  0
  186.1150  178.5210  142.8120 C   0  0  0  0  0  0  0  0  0  0  0  0
  183.7920  178.2920  143.0800 O   0  0  0  0  0  0  0  0  0  0  0  0
  184.9410  177.5960  142.7760 C   0  0  0  0  0  3  0  0  0  0  0  0
  184.0570  178.0010  141.7970 O   0  0  0  0  0  0  0  0  0  0  0  0
  2 18  1  6  0  0  0
  4  6  2  0  0  0  0
  5  6  1  1  0  0  0
  5 13  1  0  0  0  0
  5  2  1  0  0  0  0
  6  1  1  0  0  0  0
  7 24  1  6  0  0  0
  7  9  1  0  0  0  0
  8 10  1  6  0  0  0
  8  7  1  0  0  0  0
  9  1  1  6  0  0  0
  9 13  1  0  0  0  0
 11  3  1  6  0  0  0
 11  8  1  0  0  0  0
 11  1  1  0  0  0  0
 12 14  1  0  0  0  0
 12  3  2  0  0  0  0
 13  2  1  0  0  0  0
 14 10  2  0  0  0  0
 15 16  1  0  0  0  0
 17 16  1  0  0  0  0
 17 20  1  0  0  0  0
 18 15  1  0  0  0  0
 18 17  1  0  0  0  0
 19 15  2  0  0  0  0
 20 22  1  0  0  0  0
 21 20  2  0  0  0  0
 23 22  1  0  0  0  0
 24 26  1  0  0  0  0
 25 30  1  0  0  0  0
 26 25  1  0  0  0  0
 26 28  1  0  0  0  0
 27 33  1  0  0  0  0
 28 27  1  0  0  0  0
 28 29  1  0  0  0  0
 30 27  1  0  0  0  0
 31 25  1  0  0  0  0
 31 30  1  0  0  0  0
 33 34  1  0  0  0  0
 33 32  2  0  0  0  0
 34 35  1  0  0  0  0
 36 37  1  0  0  0  0
 36 35  1  0  0  0  0
 37 39  1  0  0  0  0
 38 37  1  0  0  0  0
 40 31  1  0  0  0  0
 40 41  1  0  0  0  0
 41 43  1  0  0  0  0
 43 42  2  0  0  0  0
 45 43  1  0  0  0  0
 45 44  1  0  0  0  0
 46 45  1  0  0  0  0
 46 44  1  0  0  0  0
M  END
>  <MODEL>
3

>  <REMARK>
 VINA RESULT:      -6.7      1.629      3.752
  Name = 
  14 active torsions:
  status: ('A' for Active; 'I' for Inactive)
    1  A    between atoms: C_1  and  C_23
    2  A    between atoms: C_2  and  C_13
    3  A    between atoms: C_2  and  N_44
    4  A    between atoms: C_4  and  C_24
    5  A    between atoms: C_8  and  O_37
    6  A    between atoms: C_10  and  C_41
    7  A    between atoms: C_11  and  C_30
    8  A    between atoms: C_13  and  C_30
    9  A    between atoms: C_14  and  C_19
   10  A    between atoms: C_19  and  C_35
   11  A    between atoms: N_21  and  C_23
   12  A    between atoms: C_26  and  O_37
   13  A    between atoms: C_35  and  C_42
   14  A    between atoms: C_41  and  C_42
                            x       y       z     vdW  Elec       q    Type
                         _______ _______ _______ _____ _____    ______ ____

>  <TORSDO>
F 14

$$$$
=
 OpenBabel11062422513D

 46 53  0  0  1  0  0  0  0  0999 V2000
  190.9530  175.5100  146.6360 N   0  0  0  0  0  0  0  0  0  0  0  0
  188.3310  176.6940  146.4420 C   0  0  2  0  0  3  0  0  0  0  0  0
  193.3750  175.8220  146.7090 N   0  0  0  0  0  0  0  0  0  0  0  0
  191.2240  177.1310  148.3220 O   0  0  0  0  0  0  0  0  0  0  0  0
  189.6140  177.5020  146.5310 C   0  0  1  0  0  3  0  0  0  0  0  0
  190.6520  176.7320  147.2730 C   0  0  0  0  0  0  0  0  0  0  0  0
  191.0460  174.8960  144.4640 C   0  0  1  0  0  3  0  0  0  0  0  0
  192.2240  174.5700  144.9740 C   0  0  1  0  0  3  0  0  0  0  0  0
  190.1990  175.4380  145.4730 N   0  0  2  0  0  0  0  0  0  0  0  0
  193.4710  174.4400  144.2180 C   0  0  0  0  0  3  0  0  0  0  0  0
  192.2640  174.9000  146.4350 C   0  0  2  0  0  3  0  0  0  0  0  0
  194.4560  175.8430  145.9720 C   0  0  0  0  0  3  0  0  0  0  0  0
  189.3370  176.6100  145.3030 C   0  0  1  0  0  3  0  0  0  0  0  0
  194.5570  175.0370  144.7280 C   0  0  0  0  0  3  0  0  0  0  0  0
  186.1350  177.4670  147.0470 C   0  0  0  0  0  0  0  0  0  0  0  0
  185.3660  176.8690  145.9670 N   0  0  0  0  0  2  0  0  0  0  0  0
  186.4160  177.0900  145.0230 N   0  0  0  0  0  0  0  0  0  0  0  0
  187.1810  177.6320  146.0910 C   0  0  2  0  0  3  0  0  0  0  0  0
  185.9520  177.7160  148.2670 O   0  0  0  0  0  0  0  0  0  0  0  0
  186.5620  176.9230  143.6140 C   0  0  0  0  0  0  0  0  0  0  0  0
  186.6250  175.7090  143.0880 C   0  0  0  0  0  2  0  0  0  0  0  0
  186.7110  178.1170  142.7370 C   0  0  0  0  0  2  0  0  0  0  0  0
  185.7780  179.2160  143.2020 C   0  0  0  0  0  1  0  0  0  0  0  0
  190.7380  174.8350  143.1030 O   0  0  0  0  0  0  0  0  0  0  0  0
  191.5510  173.1150  141.5770 C   0  0  1  0  0  3  0  0  0  0  0  0
  190.3950  173.6200  142.4480 C   0  0  2  0  0  3  0  0  0  0  0  0
  189.8570  174.0870  140.1720 C   0  0  1  0  0  3  0  0  0  0  0  0
  189.2170  173.8460  141.5300 C   0  0  1  0  0  3  0  0  0  0  0  0
  188.4290  172.6920  141.5210 O   0  0  0  0  0  1  0  0  0  0  0  0
  191.1970  173.3690  140.1770 C   0  0  1  0  0  3  0  0  0  0  0  0
  192.1960  174.2170  140.8440 N   0  0  0  0  0  0  0  0  0  0  0  0
  188.0070  174.3950  138.7170 O   0  0  0  0  0  0  0  0  0  0  0  0
  188.9900  173.7240  138.9990 C   0  0  0  0  0  0  0  0  0  0  0  0
  189.3630  172.5500  138.1500 C   0  0  0  0  0  2  0  0  0  0  0  0
  189.5050  172.9460  136.6900 C   0  0  0  0  0  2  0  0  0  0  0  0
  190.7590  173.7860  136.4980 C   0  0  0  0  0  2  0  0  0  0  0  0
  191.9380  172.9510  136.0180 C   0  0  0  0  0  3  0  0  0  0  0  0
  192.7800  172.6210  137.0830 O   0  0  0  0  0  1  0  0  0  0  0  0
  191.4900  171.7920  135.3830 O   0  0  0  0  0  1  0  0  0  0  0  0
  193.5080  173.7290  140.4520 C   0  0  0  0  0  2  0  0  0  0  0  0
  194.2750  174.8270  139.7340 C   0  0  0  0  0  2  0  0  0  0  0  0
  194.6010  176.5750  141.2860 O   0  0  0  0  0  0  0  0  0  0  0  0
  195.0970  175.6280  140.6940 C   0  0  0  0  0  0  0  0  0  0  0  0
  197.0050  174.5330  139.8700 O   0  0  0  0  0  0  0  0  0  0  0  0
  196.5280  175.2690  140.9320 C   0  0  0  0  0  3  0  0  0  0  0  0
  197.3210  175.8340  139.9540 O   0  0  0  0  0  0  0  0  0  0  0  0
  1  6  1  0  0  0  0
  2 18  1  6  0  0  0
  2  5  1  0  0  0  0
  5  6  1  1  0  0  0
  6  4  2  0  0  0  0
  7 24  1  6  0  0  0
  7  8  1  0  0  0  0
  7  9  1  0  0  0  0
  8 10  1  6  0  0  0
  8 11  1  0  0  0  0
  9  1  1  1  0  0  0
 10 14  2  0  0  0  0
 11  1  1  0  0  0  0
 11  3  1  6  0  0  0
 12  3  2  0  0  0  0
 13  9  1  0  0  0  0
 13  2  1  0  0  0  0
 13  5  1  0  0  0  0
 14 12  1  0  0  0  0
 15 19  2  0  0  0  0
 16 15  1  0  0  0  0
 17 16  1  0  0  0  0
 17 18  1  0  0  0  0
 18 15  1  0  0  0  0
 20 17  1  0  0  0  0
 21 20  2  0  0  0  0
 22 23  1  0  0  0  0
 22 20  1  0  0  0  0
 25 26  1  0  0  0  0
 26 24  1  0  0  0  0
 27 30  1  0  0  0  0
 27 28  1  0  0  0  0
 28 26  1  0  0  0  0
 29 28  1  0  0  0  0
 30 31  1  0  0  0  0
 30 25  1  0  0  0  0
 31 25  1  0  0  0  0
 32 33  2  0  0  0  0
 33 27  1  0  0  0  0
 34 33  1  0  0  0  0
 35 34  1  0  0  0  0
 36 35  1  0  0  0  0
 37 36  1  0  0  0  0
 37 38  1  0  0  0  0
 39 37  1  0  0  0  0
 40 31  1  0  0  0  0
 41 40  1  0  0  0  0
 41 43  1  0  0  0  0
 43 45  1  0  0  0  0
 43 42  2  0  0  0  0
 44 46  1  0  0  0  0
 44 45  1  0  0  0  0
 46 45  1  0  0  0  0
M  END
>  <MODEL>
4

>  <REMARK>
 VINA RESULT:      -6.5      2.067      8.494
  Name = 
  14 active torsions:
  status: ('A' for Active; 'I' for Inactive)
    1  A    between atoms: C_1  and  C_23
    2  A    between atoms: C_2  and  C_13
    3  A    between atoms: C_2  and  N_44
    4  A    between atoms: C_4  and  C_24
    5  A    between atoms: C_8  and  O_37
    6  A    between atoms: C_10  and  C_41
    7  A    between atoms: C_11  and  C_30
    8  A    between atoms: C_13  and  C_30
    9  A    between atoms: C_14  and  C_19
   10  A    between atoms: C_19  and  C_35
   11  A    between atoms: N_21  and  C_23
   12  A    between atoms: C_26  and  O_37
   13  A    between atoms: C_35  and  C_42
   14  A    between atoms: C_41  and  C_42
                            x       y       z     vdW  Elec       q    Type
                         _______ _______ _______ _____ _____    ______ ____

>  <TORSDO>
F 14

$$$$
=
 OpenBabel11062422513D

 46 53  0  0  1  0  0  0  0  0999 V2000
  188.7760  175.7810  146.1510 N   0  0  0  0  0  0  0  0  0  0  0  0
  186.7830  176.2950  144.1320 C   0  0  2  0  0  3  0  0  0  0  0  0
  190.5740  176.6400  147.5630 N   0  0  0  0  0  0  0  0  0  0  0  0
  187.7930  177.6650  147.1640 O   0  0  0  0  0  0  0  0  0  0  0  0
  187.6530  177.3760  144.7490 C   0  0  1  0  0  3  0  0  0  0  0  0
  188.0450  176.9880  146.1330 C   0  0  0  0  0  0  0  0  0  0  0  0
  190.2670  174.8700  144.7180 C   0  0  1  0  0  3  0  0  0  0  0  0
  190.8790  174.9030  145.8930 C   0  0  1  0  0  3  0  0  0  0  0  0
  188.9330  175.3580  144.8380 N   0  0  2  0  0  0  0  0  0  0  0  0
  192.3280  174.9420  146.0940 C   0  0  0  0  0  3  0  0  0  0  0  0
  189.9620  175.4590  146.9390 C   0  0  2  0  0  3  0  0  0  0  0  0
  191.8720  176.7890  147.6410 C   0  0  0  0  0  3  0  0  0  0  0  0
  188.2840  176.2630  143.8870 C   0  0  1  0  0  3  0  0  0  0  0  0
  192.7980  175.8410  146.9690 C   0  0  0  0  0  3  0  0  0  0  0  0
  186.9930  177.3330  141.9710 C   0  0  0  0  0  0  0  0  0  0  0  0
  186.5610  178.6800  142.3110 N   0  0  0  0  0  2  0  0  0  0  0  0
  185.5860  178.1930  143.2350 N   0  0  0  0  0  0  0  0  0  0  0  0
  186.0420  176.8820  142.9340 C   0  0  2  0  0  3  0  0  0  0  0  0
  187.8310  176.8150  141.1880 O   0  0  0  0  0  0  0  0  0  0  0  0
  184.5520  178.7840  144.0210 C   0  0  0  0  0  0  0  0  0  0  0  0
  183.3380  178.9440  143.5170 C   0  0  0  0  0  2  0  0  0  0  0  0
  184.8560  179.2820  145.3910 C   0  0  0  0  0  2  0  0  0  0  0  0
  184.3550  178.2920  146.4220 C   0  0  0  0  0  1  0  0  0  0  0  0
  190.8930  174.5280  143.5180 O   0  0  0  0  0  0  0  0  0  0  0  0
  192.1330  172.9750  142.1050 C   0  0  1  0  0  3  0  0  0  0  0  0
  190.9270  173.1950  143.0240 C   0  0  2  0  0  3  0  0  0  0  0  0
  190.1400  173.1790  140.7730 C   0  0  1  0  0  3  0  0  0  0  0  0
  189.6900  172.9210  142.2010 C   0  0  1  0  0  3  0  0  0  0  0  0
  189.3180  171.5850  142.3830 O   0  0  0  0  0  1  0  0  0  0  0  0
  191.6380  172.9260  140.7250 C   0  0  1  0  0  3  0  0  0  0  0  0
  192.3440  174.1230  141.2070 N   0  0  0  0  0  0  0  0  0  0  0  0
  188.1950  172.6640  139.5120 O   0  0  0  0  0  0  0  0  0  0  0  0
  189.3730  172.4160  139.7280 C   0  0  0  0  0  0  0  0  0  0  0  0
  190.0780  171.3720  138.9210 C   0  0  0  0  0  2  0  0  0  0  0  0
  189.9030  171.6130  137.4310 C   0  0  0  0  0  2  0  0  0  0  0  0
  190.6910  172.8430  137.0070 C   0  0  0  0  0  2  0  0  0  0  0  0
  189.8310  173.8340  136.2330 C   0  0  0  0  0  3  0  0  0  0  0  0
  190.5660  174.9750  135.9020 O   0  0  0  0  0  1  0  0  0  0  0  0
  189.3190  173.2410  135.0790 O   0  0  0  0  0  1  0  0  0  0  0  0
  193.7200  174.0300  140.7460 C   0  0  0  0  0  2  0  0  0  0  0  0
  194.2580  175.4160  140.4380 C   0  0  0  0  0  2  0  0  0  0  0  0
  196.2800  176.4800  141.0310 O   0  0  0  0  0  0  0  0  0  0  0  0
  195.3320  175.8060  141.4050 C   0  0  0  0  0  0  0  0  0  0  0  0
  195.6950  176.3840  143.6530 O   0  0  0  0  0  0  0  0  0  0  0  0
  195.2450  175.3730  142.8320 C   0  0  0  0  0  3  0  0  0  0  0  0
  194.3730  176.1940  143.5170 O   0  0  0  0  0  0  0  0  0  0  0  0
  1 11  1  0  0  0  0
  2 18  1  6  0  0  0
  2  5  1  0  0  0  0
  3 12  2  0  0  0  0
  5  6  1  1  0  0  0
  6  1  1  0  0  0  0
  6  4  2  0  0  0  0
  7 24  1  6  0  0  0
  7  9  1  0  0  0  0
  7  8  1  0  0  0  0
  8 10  1  6  0  0  0
  8 11  1  0  0  0  0
  9  1  1  1  0  0  0
 10 14  2  0  0  0  0
 11  3  1  6  0  0  0
 13  2  1  0  0  0  0
 13  5  1  0  0  0  0
 13  9  1  0  0  0  0
 14 12  1  0  0  0  0
 15 16  1  0  0  0  0
 15 18  1  0  0  0  0
 16 17  1  0  0  0  0
 17 20  1  0  0  0  0
 18 17  1  0  0  0  0
 19 15  2  0  0  0  0
 20 22  1  0  0  0  0
 21 20  2  0  0  0  0
 22 23  1  0  0  0  0
 25 26  1  0  0  0  0
 26 24  1  0  0  0  0
 27 28  1  0  0  0  0
 28 29  1  0  0  0  0
 28 26  1  0  0  0  0
 30 27  1  0  0  0  0
 30 31  1  0  0  0  0
 30 25  1  0  0  0  0
 31 25  1  0  0  0  0
 32 33  2  0  0  0  0
 33 27  1  0  0  0  0
 34 33  1  0  0  0  0
 35 34  1  0  0  0  0
 36 35  1  0  0  0  0
 37 36  1  0  0  0  0
 38 37  1  0  0  0  0
 39 37  1  0  0  0  0
 40 31  1  0  0  0  0
 41 40  1  0  0  0  0
 41 43  1  0  0  0  0
 42 43  2  0  0  0  0
 43 45  1  0  0  0  0
 45 46  1  0  0  0  0
 45 44  1  0  0  0  0
 46 44  1  0  0  0  0
M  END
>  <MODEL>
5

>  <REMARK>
 VINA RESULT:      -6.4      2.210      8.455
  Name = 
  14 active torsions:
  status: ('A' for Active; 'I' for Inactive)
    1  A    between atoms: C_1  and  C_23
    2  A    between atoms: C_2  and  C_13
    3  A    between atoms: C_2  and  N_44
    4  A    between atoms: C_4  and  C_24
    5  A    between atoms: C_8  and  O_37
    6  A    between atoms: C_10  and  C_41
    7  A    between atoms: C_11  and  C_30
    8  A    between atoms: C_13  and  C_30
    9  A    between atoms: C_14  and  C_19
   10  A    between atoms: C_19  and  C_35
   11  A    between atoms: N_21  and  C_23
   12  A    between atoms: C_26  and  O_37
   13  A    between atoms: C_35  and  C_42
   14  A    between atoms: C_41  and  C_42
                            x       y       z     vdW  Elec       q    Type
                         _______ _______ _______ _____ _____    ______ ____

>  <TORSDO>
F 14

$$$$
=
 OpenBabel11062422513D

 46 53  0  0  1  0  0  0  0  0999 V2000
  193.9990  174.0330  142.8500 N   0  0  0  0  0  0  0  0  0  0  0  0
  192.1230  172.3420  141.4590 C   0  0  2  0  0  3  0  0  0  0  0  0
  195.3150  174.4620  144.8630 N   0  0  0  0  0  0  0  0  0  0  0  0
  195.1170  171.9880  143.1930 O   0  0  0  0  0  0  0  0  0  0  0  0
  192.7090  172.0060  142.8190 C   0  0  1  0  0  3  0  0  0  0  0  0
  194.0560  172.6270  142.9620 C   0  0  0  0  0  0  0  0  0  0  0  0
  192.4540  175.5590  143.4730 C   0  0  1  0  0  3  0  0  0  0  0  0
  193.5870  175.9540  144.0330 C   0  0  1  0  0  3  0  0  0  0  0  0
  192.6690  174.3940  142.6820 N   0  0  2  0  0  0  0  0  0  0  0  0
  193.6970  176.7770  145.2380 C   0  0  0  0  0  3  0  0  0  0  0  0
  194.7030  175.0280  143.6540 C   0  0  2  0  0  3  0  0  0  0  0  0
  195.3130  175.1000  146.0050 C   0  0  0  0  0  3  0  0  0  0  0  0
  191.7830  173.2280  142.6480 C   0  0  1  0  0  3  0  0  0  0  0  0
  194.5620  176.3710  146.1770 C   0  0  0  0  0  3  0  0  0  0  0  0
  191.5190  170.2220  140.4930 C   0  0  0  0  0  0  0  0  0  0  0  0
  190.8120  170.6930  139.3110 N   0  0  0  0  0  2  0  0  0  0  0  0
  190.2590  171.8050  140.0170 N   0  0  0  0  0  0  0  0  0  0  0  0
  190.9880  171.3680  141.1560 C   0  0  2  0  0  3  0  0  0  0  0  0
  192.2630  169.2500  140.7820 O   0  0  0  0  0  0  0  0  0  0  0  0
  189.3130  172.8290  139.7130 C   0  0  0  0  0  0  0  0  0  0  0  0
  188.1630  172.8910  140.3670 C   0  0  0  0  0  2  0  0  0  0  0  0
  189.5910  173.7920  138.6120 C   0  0  0  0  0  2  0  0  0  0  0  0
  188.5550  173.6360  137.5190 C   0  0  0  0  0  1  0  0  0  0  0  0
  191.2080  176.1340  143.7350 O   0  0  0  0  0  0  0  0  0  0  0  0
  188.8620  175.4720  143.7970 C   0  0  1  0  0  3  0  0  0  0  0  0
  190.2140  175.4850  144.5180 C   0  0  2  0  0  3  0  0  0  0  0  0
  188.8250  177.1360  145.5340 C   0  0  1  0  0  3  0  0  0  0  0  0
  190.0150  176.2330  145.8160 C   0  0  1  0  0  3  0  0  0  0  0  0
  189.7230  175.3090  146.8240 O   0  0  0  0  0  1  0  0  0  0  0  0
  187.9990  176.4620  144.4520 C   0  0  1  0  0  3  0  0  0  0  0  0
  188.5890  176.7610  143.1380 N   0  0  0  0  0  0  0  0  0  0  0  0
  188.5110  178.2050  147.6310 O   0  0  0  0  0  0  0  0  0  0  0  0
  188.0240  177.5100  146.7500 C   0  0  0  0  0  0  0  0  0  0  0  0
  186.6020  177.0560  146.8560 C   0  0  0  0  0  2  0  0  0  0  0  0
  185.6420  178.2340  146.8290 C   0  0  0  0  0  2  0  0  0  0  0  0
  184.5720  178.0090  145.7710 C   0  0  0  0  0  2  0  0  0  0  0  0
  185.0780  178.3300  144.3710 C   0  0  0  0  0  3  0  0  0  0  0  0
  184.0120  178.5780  143.5030 O   0  0  0  0  0  1  0  0  0  0  0  0
  185.9380  179.4280  144.4010 O   0  0  0  0  0  1  0  0  0  0  0  0
  187.5710  176.4960  142.1350 C   0  0  0  0  0  2  0  0  0  0  0  0
  187.3590  177.7290  141.2740 C   0  0  0  0  0  2  0  0  0  0  0  0
  185.3190  178.0800  140.1390 O   0  0  0  0  0  0  0  0  0  0  0  0
  186.3720  177.4620  140.1810 C   0  0  0  0  0  0  0  0  0  0  0  0
  185.8140  176.5920  138.0710 O   0  0  0  0  0  0  0  0  0  0  0  0
  186.6760  176.4390  139.1340 C   0  0  0  0  0  3  0  0  0  0  0  0
  187.0650  177.0650  137.9680 O   0  0  0  0  0  0  0  0  0  0  0  0
  1  6  1  0  0  0  0
  1 11  1  0  0  0  0
  2 18  1  1  0  0  0
  2 13  1  0  0  0  0
  2  5  1  0  0  0  0
  3 12  2  0  0  0  0
  5  6  1  6  0  0  0
  6  4  2  0  0  0  0
  7 24  1  1  0  0  0
  7  8  1  0  0  0  0
  8 10  1  1  0  0  0
  9  1  1  1  0  0  0
  9  7  1  0  0  0  0
 10 14  2  0  0  0  0
 11  8  1  0  0  0  0
 11  3  1  1  0  0  0
 12 14  1  0  0  0  0
 13  9  1  0  0  0  0
 13  5  1  0  0  0  0
 15 19  2  0  0  0  0
 15 18  1  0  0  0  0
 16 17  1  0  0  0  0
 16 15  1  0  0  0  0
 17 18  1  0  0  0  0
 20 17  1  0  0  0  0
 20 21  2  0  0  0  0
 22 20  1  0  0  0  0
 23 22  1  0  0  0  0
 24 26  1  0  0  0  0
 25 30  1  0  0  0  0
 25 26  1  0  0  0  0
 26 28  1  0  0  0  0
 27 28  1  0  0  0  0
 27 33  1  0  0  0  0
 28 29  1  0  0  0  0
 30 27  1  0  0  0  0
 31 25  1  0  0  0  0
 31 30  1  0  0  0  0
 33 34  1  0  0  0  0
 33 32  2  0  0  0  0
 35 34  1  0  0  0  0
 36 35  1  0  0  0  0
 37 39  1  0  0  0  0
 37 36  1  0  0  0  0
 38 37  1  0  0  0  0
 40 31  1  0  0  0  0
 41 40  1  0  0  0  0
 42 43  2  0  0  0  0
 43 41  1  0  0  0  0
 44 45  1  0  0  0  0
 45 43  1  0  0  0  0
 46 44  1  0  0  0  0
 46 45  1  0  0  0  0
M  END
>  <MODEL>
6

>  <REMARK>
 VINA RESULT:      -6.4      2.006      6.254
  Name = 
  14 active torsions:
  status: ('A' for Active; 'I' for Inactive)
    1  A    between atoms: C_1  and  C_23
    2  A    between atoms: C_2  and  C_13
    3  A    between atoms: C_2  and  N_44
    4  A    between atoms: C_4  and  C_24
    5  A    between atoms: C_8  and  O_37
    6  A    between atoms: C_10  and  C_41
    7  A    between atoms: C_11  and  C_30
    8  A    between atoms: C_13  and  C_30
    9  A    between atoms: C_14  and  C_19
   10  A    between atoms: C_19  and  C_35
   11  A    between atoms: N_21  and  C_23
   12  A    between atoms: C_26  and  O_37
   13  A    between atoms: C_35  and  C_42
   14  A    between atoms: C_41  and  C_42
                            x       y       z     vdW  Elec       q    Type
                         _______ _______ _______ _____ _____    ______ ____

>  <TORSDO>
F 14

$$$$
=
 OpenBabel11062422513D

 46 53  0  0  1  0  0  0  0  0999 V2000
  193.7510  174.4220  142.5260 N   0  0  0  0  0  0  0  0  0  0  0  0
  191.9440  172.6360  141.1630 C   0  0  2  0  0  3  0  0  0  0  0  0
  195.2530  174.8190  144.4100 N   0  0  0  0  0  0  0  0  0  0  0  0
  195.1600  172.5350  142.4820 O   0  0  0  0  0  0  0  0  0  0  0  0
  192.7410  172.2460  142.3950 C   0  0  1  0  0  3  0  0  0  0  0  0
  194.0040  173.0350  142.4570 C   0  0  0  0  0  0  0  0  0  0  0  0
  192.1170  175.6350  143.5060 C   0  0  1  0  0  3  0  0  0  0  0  0
  193.2530  176.1270  143.9760 C   0  0  1  0  0  3  0  0  0  0  0  0
  192.3750  174.6030  142.5580 N   0  0  2  0  0  0  0  0  0  0  0  0
  193.4130  176.8250  145.2520 C   0  0  0  0  0  3  0  0  0  0  0  0
  194.4190  175.4170  143.3590 C   0  0  2  0  0  3  0  0  0  0  0  0
  195.3190  175.3260  145.6150 C   0  0  0  0  0  3  0  0  0  0  0  0
  191.6500  173.3320  142.4830 C   0  0  1  0  0  3  0  0  0  0  0  0
  194.4390  176.4500  146.0280 C   0  0  0  0  0  3  0  0  0  0  0  0
  191.5790  170.4050  140.3380 C   0  0  0  0  0  0  0  0  0  0  0  0
  190.9120  170.7200  139.0840 N   0  0  0  0  0  2  0  0  0  0  0  0
  190.2260  171.8310  139.6660 N   0  0  0  0  0  0  0  0  0  0  0  0
  190.9150  171.5470  140.8760 C   0  0  2  0  0  3  0  0  0  0  0  0
  192.3810  169.5250  140.7480 O   0  0  0  0  0  0  0  0  0  0  0  0
  189.2200  172.7420  139.2270 C   0  0  0  0  0  0  0  0  0  0  0  0
  188.2060  173.0530  140.0220 C   0  0  0  0  0  2  0  0  0  0  0  0
  189.2730  173.2960  137.8460 C   0  0  0  0  0  2  0  0  0  0  0  0
  190.6640  173.8190  137.5530 C   0  0  0  0  0  1  0  0  0  0  0  0
  190.8530  175.9930  143.9790 O   0  0  0  0  0  0  0  0  0  0  0  0
  189.3190  177.7110  144.7810 C   0  0  1  0  0  3  0  0  0  0  0  0
  190.2330  177.2300  143.6490 C   0  0  2  0  0  3  0  0  0  0  0  0
  187.9760  176.8180  142.9960 C   0  0  1  0  0  3  0  0  0  0  0  0
  189.3640  177.0570  142.4250 C   0  0  1  0  0  3  0  0  0  0  0  0
  189.4090  178.2370  141.6750 O   0  0  0  0  0  1  0  0  0  0  0  0
  187.9320  177.4930  144.3580 C   0  0  1  0  0  3  0  0  0  0  0  0
  188.5410  176.6010  145.3570 N   0  0  0  0  0  0  0  0  0  0  0  0
  186.6630  176.6580  141.0250 O   0  0  0  0  0  0  0  0  0  0  0  0
  186.8490  177.2300  142.0900 C   0  0  0  0  0  0  0  0  0  0  0  0
  185.9250  178.3240  142.5230 C   0  0  0  0  0  2  0  0  0  0  0  0
  184.7320  178.4430  141.5900 C   0  0  0  0  0  2  0  0  0  0  0  0
  183.4370  178.3430  142.3830 C   0  0  0  0  0  2  0  0  0  0  0  0
  182.2610  177.9320  141.5070 C   0  0  0  0  0  3  0  0  0  0  0  0
  181.1690  178.7770  141.7170 O   0  0  0  0  0  1  0  0  0  0  0  0
  182.6260  177.9450  140.1600 O   0  0  0  0  0  1  0  0  0  0  0  0
  188.0990  177.0520  146.6660 C   0  0  0  0  0  2  0  0  0  0  0  0
  186.7470  176.4420  146.9940 C   0  0  0  0  0  2  0  0  0  0  0  0
  185.7770  178.2420  148.1760 O   0  0  0  0  0  0  0  0  0  0  0  0
  185.7120  177.5040  147.2030 C   0  0  0  0  0  0  0  0  0  0  0  0
  183.7490  178.6650  146.6400 O   0  0  0  0  0  0  0  0  0  0  0  0
  184.5980  177.6650  146.2200 C   0  0  0  0  0  3  0  0  0  0  0  0
  184.6390  178.9300  145.6710 O   0  0  0  0  0  0  0  0  0  0  0  0
  1 11  1  0  0  0  0
  2 18  1  1  0  0  0
  2  5  1  0  0  0  0
  2 13  1  0  0  0  0
  3 12  2  0  0  0  0
  5  6  1  6  0  0  0
  5 13  1  0  0  0  0
  6  4  2  0  0  0  0
  6  1  1  0  0  0  0
  7  8  1  0  0  0  0
  7 24  1  1  0  0  0
  8 10  1  1  0  0  0
  9  1  1  1  0  0  0
  9  7  1  0  0  0  0
 10 14  2  0  0  0  0
 11  8  1  0  0  0  0
 11  3  1  1  0  0  0
 12 14  1  0  0  0  0
 13  9  1  0  0  0  0
 15 19  2  0  0  0  0
 15 18  1  0  0  0  0
 16 17  1  0  0  0  0
 16 15  1  0  0  0  0
 17 18  1  0  0  0  0
 20 17  1  0  0  0  0
 20 21  2  0  0  0  0
 22 20  1  0  0  0  0
 23 22  1  0  0  0  0
 25 31  1  0  0  0  0
 26 24  1  0  0  0  0
 26 25  1  0  0  0  0
 27 30  1  0  0  0  0
 28 27  1  0  0  0  0
 28 26  1  0  0  0  0
 29 28  1  0  0  0  0
 30 25  1  0  0  0  0
 30 31  1  0  0  0  0
 31 40  1  0  0  0  0
 32 33  2  0  0  0  0
 33 34  1  0  0  0  0
 33 27  1  0  0  0  0
 35 36  1  0  0  0  0
 35 34  1  0  0  0  0
 37 38  1  0  0  0  0
 37 36  1  0  0  0  0
 39 37  1  0  0  0  0
 40 41  1  0  0  0  0
 41 43  1  0  0  0  0
 43 42  2  0  0  0  0
 45 44  1  0  0  0  0
 45 43  1  0  0  0  0
 46 45  1  0  0  0  0
 46 44  1  0  0  0  0
M  END
>  <MODEL>
7

>  <REMARK>
 VINA RESULT:      -6.4      1.908      5.636
  Name = 
  14 active torsions:
  status: ('A' for Active; 'I' for Inactive)
    1  A    between atoms: C_1  and  C_23
    2  A    between atoms: C_2  and  C_13
    3  A    between atoms: C_2  and  N_44
    4  A    between atoms: C_4  and  C_24
    5  A    between atoms: C_8  and  O_37
    6  A    between atoms: C_10  and  C_41
    7  A    between atoms: C_11  and  C_30
    8  A    between atoms: C_13  and  C_30
    9  A    between atoms: C_14  and  C_19
   10  A    between atoms: C_19  and  C_35
   11  A    between atoms: N_21  and  C_23
   12  A    between atoms: C_26  and  O_37
   13  A    between atoms: C_35  and  C_42
   14  A    between atoms: C_41  and  C_42
                            x       y       z     vdW  Elec       q    Type
                         _______ _______ _______ _____ _____    ______ ____

>  <TORSDO>
F 14

$$$$
=
 OpenBabel11062422513D

 46 53  0  0  1  0  0  0  0  0999 V2000
  190.2900  175.8280  146.6450 N   0  0  0  0  0  0  0  0  0  0  0  0
  187.7770  176.2920  145.3090 C   0  0  2  0  0  3  0  0  0  0  0  0
  192.5040  176.6590  147.2550 N   0  0  0  0  0  0  0  0  0  0  0  0
  189.8180  177.9270  147.6020 O   0  0  0  0  0  0  0  0  0  0  0  0
  188.8680  177.3400  145.4350 C   0  0  1  0  0  3  0  0  0  0  0  0
  189.6720  177.0960  146.6660 C   0  0  0  0  0  0  0  0  0  0  0  0
  191.1620  174.5770  144.9780 C   0  0  1  0  0  3  0  0  0  0  0  0
  192.1300  174.6950  145.8750 C   0  0  1  0  0  3  0  0  0  0  0  0
  189.9770  175.2210  145.4350 N   0  0  2  0  0  0  0  0  0  0  0  0
  193.5630  174.5980  145.5970 C   0  0  0  0  0  3  0  0  0  0  0  0
  191.6480  175.4820  147.0560 C   0  0  2  0  0  3  0  0  0  0  0  0
  193.7610  176.6710  146.8910 C   0  0  0  0  0  3  0  0  0  0  0  0
  189.1070  176.0610  144.6080 C   0  0  1  0  0  3  0  0  0  0  0  0
  194.3510  175.5460  146.1210 C   0  0  0  0  0  3  0  0  0  0  0  0
  187.3660  177.3160  143.1710 C   0  0  0  0  0  0  0  0  0  0  0  0
  186.9110  178.6240  143.6170 N   0  0  0  0  0  2  0  0  0  0  0  0
  186.2350  178.0650  144.7450 N   0  0  0  0  0  0  0  0  0  0  0  0
  186.7200  176.7950  144.3310 C   0  0  2  0  0  3  0  0  0  0  0  0
  188.0320  176.8650  142.2030 O   0  0  0  0  0  0  0  0  0  0  0  0
  185.3740  178.5710  145.7630 C   0  0  0  0  0  0  0  0  0  0  0  0
  184.0750  178.7030  145.5360 C   0  0  0  0  0  2  0  0  0  0  0  0
  185.9450  179.0160  147.0640 C   0  0  0  0  0  2  0  0  0  0  0  0
  185.9800  177.8550  148.0350 C   0  0  0  0  0  1  0  0  0  0  0  0
  191.3330  174.0120  143.7120 O   0  0  0  0  0  0  0  0  0  0  0  0
  191.6360  171.6230  143.3300 C   0  0  1  0  0  3  0  0  0  0  0  0
  190.6760  172.8170  143.3110 C   0  0  2  0  0  3  0  0  0  0  0  0
  191.2720  172.3200  141.0560 C   0  0  1  0  0  3  0  0  0  0  0  0
  190.1750  172.9570  141.8930 C   0  0  1  0  0  3  0  0  0  0  0  0
  188.9710  172.2560  141.7710 O   0  0  0  0  0  1  0  0  0  0  0  0
  191.9680  171.2970  141.9380 C   0  0  1  0  0  3  0  0  0  0  0  0
  192.9560  171.9830  142.7850 N   0  0  0  0  0  0  0  0  0  0  0  0
  190.4390  172.4950  138.8400 O   0  0  0  0  0  0  0  0  0  0  0  0
  190.8080  171.7560  139.7420 C   0  0  0  0  0  0  0  0  0  0  0  0
  190.8380  170.2750  139.5300 C   0  0  0  0  0  2  0  0  0  0  0  0
  189.9050  169.8580  138.4060 C   0  0  0  0  0  2  0  0  0  0  0  0
  190.7070  169.2800  137.2490 C   0  0  0  0  0  2  0  0  0  0  0  0
  190.7460  170.2230  136.0540 C   0  0  0  0  0  3  0  0  0  0  0  0
  189.5620  170.9590  135.9640 O   0  0  0  0  0  1  0  0  0  0  0  0
  191.8400  171.0840  136.1460 O   0  0  0  0  0  1  0  0  0  0  0  0
  193.8840  170.9750  143.2710 C   0  0  0  0  0  2  0  0  0  0  0  0
  195.1590  171.6400  143.7610 C   0  0  0  0  0  2  0  0  0  0  0  0
  194.4220  171.0560  145.9270 O   0  0  0  0  0  0  0  0  0  0  0  0
  195.3600  171.4080  145.2270 C   0  0  0  0  0  0  0  0  0  0  0  0
  197.4320  172.5060  145.0850 O   0  0  0  0  0  0  0  0  0  0  0  0
  196.7100  171.6040  145.8350 C   0  0  0  0  0  3  0  0  0  0  0  0
  196.8610  172.9190  146.2270 O   0  0  0  0  0  0  0  0  0  0  0  0
  1  6  1  0  0  0  0
  1 11  1  0  0  0  0
  2 18  1  6  0  0  0
  2  5  1  0  0  0  0
  5  6  1  1  0  0  0
  6  4  2  0  0  0  0
  7 24  1  6  0  0  0
  7  9  1  0  0  0  0
  7  8  1  0  0  0  0
  8 10  1  6  0  0  0
  8 11  1  0  0  0  0
  9  1  1  1  0  0  0
 10 14  2  0  0  0  0
 11  3  1  6  0  0  0
 12  3  2  0  0  0  0
 13  2  1  0  0  0  0
 13  5  1  0  0  0  0
 13  9  1  0  0  0  0
 14 12  1  0  0  0  0
 15 16  1  0  0  0  0
 15 18  1  0  0  0  0
 16 17  1  0  0  0  0
 17 20  1  0  0  0  0
 18 17  1  0  0  0  0
 19 15  2  0  0  0  0
 20 22  1  0  0  0  0
 21 20  2  0  0  0  0
 22 23  1  0  0  0  0
 26 25  1  0  0  0  0
 26 24  1  0  0  0  0
 27 28  1  0  0  0  0
 27 30  1  0  0  0  0
 28 26  1  0  0  0  0
 29 28  1  0  0  0  0
 30 31  1  0  0  0  0
 30 25  1  0  0  0  0
 31 40  1  0  0  0  0
 31 25  1  0  0  0  0
 32 33  2  0  0  0  0
 33 27  1  0  0  0  0
 34 33  1  0  0  0  0
 35 34  1  0  0  0  0
 36 35  1  0  0  0  0
 37 39  1  0  0  0  0
 37 36  1  0  0  0  0
 38 37  1  0  0  0  0
 40 41  1  0  0  0  0
 41 43  1  0  0  0  0
 43 45  1  0  0  0  0
 43 42  2  0  0  0  0
 44 45  1  0  0  0  0
 44 46  1  0  0  0  0
 45 46  1  0  0  0  0
M  END
>  <MODEL>
8

>  <REMARK>
 VINA RESULT:      -6.4      2.876      8.713
  Name = 
  14 active torsions:
  status: ('A' for Active; 'I' for Inactive)
    1  A    between atoms: C_1  and  C_23
    2  A    between atoms: C_2  and  C_13
    3  A    between atoms: C_2  and  N_44
    4  A    between atoms: C_4  and  C_24
    5  A    between atoms: C_8  and  O_37
    6  A    between atoms: C_10  and  C_41
    7  A    between atoms: C_11  and  C_30
    8  A    between atoms: C_13  and  C_30
    9  A    between atoms: C_14  and  C_19
   10  A    between atoms: C_19  and  C_35
   11  A    between atoms: N_21  and  C_23
   12  A    between atoms: C_26  and  O_37
   13  A    between atoms: C_35  and  C_42
   14  A    between atoms: C_41  and  C_42
                            x       y       z     vdW  Elec       q    Type
                         _______ _______ _______ _____ _____    ______ ____

>  <TORSDO>
F 14

$$$$
=
 OpenBabel11062422513D

 46 53  0  0  1  0  0  0  0  0999 V2000
  191.0600  175.5610  146.6480 N   0  0  0  0  0  0  0  0  0  0  0  0
  188.4170  176.6800  146.3690 C   0  0  2  0  0  3  0  0  0  0  0  0
  193.4690  175.9340  146.8010 N   0  0  0  0  0  0  0  0  0  0  0  0
  191.2340  177.1850  148.3440 O   0  0  0  0  0  0  0  0  0  0  0  0
  189.6760  177.5200  146.5010 C   0  0  1  0  0  3  0  0  0  0  0  0
  190.7070  176.7750  147.2760 C   0  0  0  0  0  0  0  0  0  0  0  0
  191.2400  174.9550  144.4790 C   0  0  1  0  0  3  0  0  0  0  0  0
  192.4080  174.6580  145.0270 C   0  0  1  0  0  3  0  0  0  0  0  0
  190.3470  175.4730  145.4600 N   0  0  2  0  0  0  0  0  0  0  0  0
  193.6820  174.5610  144.3130 C   0  0  0  0  0  3  0  0  0  0  0  0
  192.3920  174.9850  146.4890 C   0  0  2  0  0  3  0  0  0  0  0  0
  194.5740  175.9840  146.1000 C   0  0  0  0  0  3  0  0  0  0  0  0
  189.4610  176.6240  145.2630 C   0  0  1  0  0  3  0  0  0  0  0  0
  194.7350  175.1830  144.8590 C   0  0  0  0  0  3  0  0  0  0  0  0
  186.1800  177.3900  146.8970 C   0  0  0  0  0  0  0  0  0  0  0  0
  185.4680  176.7790  145.7840 N   0  0  0  0  0  2  0  0  0  0  0  0
  186.5460  177.0360  144.8820 N   0  0  0  0  0  0  0  0  0  0  0  0
  187.2550  177.5900  145.9820 C   0  0  2  0  0  3  0  0  0  0  0  0
  185.9450  177.6240  148.1100 O   0  0  0  0  0  0  0  0  0  0  0  0
  186.7490  176.8840  143.4790 C   0  0  0  0  0  0  0  0  0  0  0  0
  186.7010  175.6820  142.9220 C   0  0  0  0  0  2  0  0  0  0  0  0
  187.0810  178.0720  142.6440 C   0  0  0  0  0  2  0  0  0  0  0  0
  188.4160  177.8640  141.9600 C   0  0  0  0  0  1  0  0  0  0  0  0
  190.9780  174.8890  143.1080 O   0  0  0  0  0  0  0  0  0  0  0  0
  190.2310  172.5860  142.8260 C   0  0  1  0  0  3  0  0  0  0  0  0
  189.9530  174.0700  142.5620 C   0  0  2  0  0  3  0  0  0  0  0  0
  190.7350  173.0970  140.5300 C   0  0  1  0  0  3  0  0  0  0  0  0
  189.8980  174.2480  141.0630 C   0  0  1  0  0  3  0  0  0  0  0  0
  188.5670  174.1420  140.6490 O   0  0  0  0  0  1  0  0  0  0  0  0
  190.6730  171.9840  141.5630 C   0  0  1  0  0  3  0  0  0  0  0  0
  191.6530  172.2580  142.6260 N   0  0  0  0  0  0  0  0  0  0  0  0
  189.8600  171.5460  138.9590 O   0  0  0  0  0  0  0  0  0  0  0  0
  190.3660  172.6450  139.1440 C   0  0  0  0  0  0  0  0  0  0  0  0
  190.5850  173.5710  137.9900 C   0  0  0  0  0  2  0  0  0  0  0  0
  189.4970  173.4150  136.9410 C   0  0  0  0  0  2  0  0  0  0  0  0
  188.4790  174.5380  137.0760 C   0  0  0  0  0  2  0  0  0  0  0  0
  188.3060  175.3110  135.7750 C   0  0  0  0  0  3  0  0  0  0  0  0
  187.4630  176.4090  135.9590 O   0  0  0  0  0  1  0  0  0  0  0  0
  189.5440  175.7330  135.2880 O   0  0  0  0  0  1  0  0  0  0  0  0
  191.8840  171.0100  143.3340 C   0  0  0  0  0  2  0  0  0  0  0  0
  193.3760  170.7880  143.5170 C   0  0  0  0  0  2  0  0  0  0  0  0
  193.0760  168.7810  144.7240 O   0  0  0  0  0  0  0  0  0  0  0  0
  193.6480  169.8600  144.6600 C   0  0  0  0  0  0  0  0  0  0  0  0
  195.6990  170.8930  145.1530 O   0  0  0  0  0  0  0  0  0  0  0  0
  194.6220  170.2500  145.7230 C   0  0  0  0  0  3  0  0  0  0  0  0
  194.7500  171.6230  145.7590 O   0  0  0  0  0  0  0  0  0  0  0  0
  1  6  1  0  0  0  0
  2 18  1  6  0  0  0
  2  5  1  0  0  0  0
  5  6  1  1  0  0  0
  6  4  2  0  0  0  0
  7 24  1  6  0  0  0
  7  8  1  0  0  0  0
  7  9  1  0  0  0  0
  8 10  1  6  0  0  0
  8 11  1  0  0  0  0
  9  1  1  1  0  0  0
 10 14  2  0  0  0  0
 11  1  1  0  0  0  0
 11  3  1  6  0  0  0
 12  3  2  0  0  0  0
 13  9  1  0  0  0  0
 13  2  1  0  0  0  0
 13  5  1  0  0  0  0
 14 12  1  0  0  0  0
 15 19  2  0  0  0  0
 16 15  1  0  0  0  0
 17 16  1  0  0  0  0
 17 18  1  0  0  0  0
 18 15  1  0  0  0  0
 20 17  1  0  0  0  0
 21 20  2  0  0  0  0
 22 20  1  0  0  0  0
 23 22  1  0  0  0  0
 26 25  1  0  0  0  0
 26 24  1  0  0  0  0
 27 28  1  0  0  0  0
 27 30  1  0  0  0  0
 28 26  1  0  0  0  0
 29 28  1  0  0  0  0
 30 31  1  0  0  0  0
 30 25  1  0  0  0  0
 31 25  1  0  0  0  0
 31 40  1  0  0  0  0
 32 33  2  0  0  0  0
 33 27  1  0  0  0  0
 34 33  1  0  0  0  0
 35 36  1  0  0  0  0
 35 34  1  0  0  0  0
 37 38  1  0  0  0  0
 37 36  1  0  0  0  0
 39 37  1  0  0  0  0
 40 41  1  0  0  0  0
 41 43  1  0  0  0  0
 43 42  2  0  0  0  0
 43 45  1  0  0  0  0
 44 45  1  0  0  0  0
 44 46  1  0  0  0  0
 45 46  1  0  0  0  0
M  END
>  <MODEL>
9

>  <REMARK>
 VINA RESULT:      -6.4      2.837      8.073
  Name = 
  14 active torsions:
  status: ('A' for Active; 'I' for Inactive)
    1  A    between atoms: C_1  and  C_23
    2  A    between atoms: C_2  and  C_13
    3  A    between atoms: C_2  and  N_44
    4  A    between atoms: C_4  and  C_24
    5  A    between atoms: C_8  and  O_37
    6  A    between atoms: C_10  and  C_41
    7  A    between atoms: C_11  and  C_30
    8  A    between atoms: C_13  and  C_30
    9  A    between atoms: C_14  and  C_19
   10  A    between atoms: C_19  and  C_35
   11  A    between atoms: N_21  and  C_23
   12  A    between atoms: C_26  and  O_37
   13  A    between atoms: C_35  and  C_42
   14  A    between atoms: C_41  and  C_42
                            x       y       z     vdW  Elec       q    Type
                         _______ _______ _______ _____ _____    ______ ____

>  <TORSDO>
F 14

$$$$
