=
 OpenBabel11062418213D

 66 70  0  0  1  0  0  0  0  0999 V2000
  190.3480  175.3830  143.2470 C   0  0  2  0  0  3  0  0  0  0  0  0
  188.5080  173.5170  139.6770 C   0  0  0  0  0  2  0  0  0  0  0  0
  190.4400  172.6200  141.6610 C   0  0  2  0  0  3  0  0  0  0  0  0
  190.4530  172.9480  144.0470 C   0  0  1  0  0  3  0  0  0  0  0  0
  189.2440  173.4460  142.0400 C   0  0  2  0  0  3  0  0  0  0  0  0
  190.0540  171.6880  140.5240 C   0  0  0  0  0  2  0  0  0  0  0  0
  192.1600  171.6360  142.9850 O   0  0  0  0  0  1  0  0  0  0  0  0
  188.8650  174.3790  140.8950 C   0  0  0  0  0  2  0  0  0  0  0  0
  189.6440  172.5410  139.3180 C   0  0  0  0  0  2  0  0  0  0  0  0
  190.7950  171.9250  142.9560 C   0  0  2  0  0  3  0  0  0  0  0  0
  189.6010  174.0450  143.3920 C   0  0  2  0  0  3  0  0  0  0  0  0
  189.4190  171.0990  145.1810 O   0  0  0  0  0  0  0  0  0  0  0  0
  189.6980  172.3290  145.1820 C   0  0  0  0  0  0  0  0  0  0  0  0
  189.2320  173.1360  146.2140 O   0  0  0  0  0  1  0  0  0  0  0  0
  191.6800  175.3150  143.6900 O   0  0  0  0  0  0  0  0  0  0  0  0
  192.4360  175.9030  142.6700 C   0  0  2  0  0  3  0  0  0  0  0  0
  192.3430  175.0530  141.4180 C   0  0  0  0  0  1  0  0  0  0  0  0
  193.8840  176.0090  143.1120 C   0  0  0  0  0  2  0  0  0  0  0  0
  194.7480  176.5190  141.9730 C   0  0  0  0  0  2  0  0  0  0  0  0
  195.7900  175.4740  141.5990 C   0  0  1  0  0  3  0  0  0  0  0  0
  196.1580  175.5600  140.1100 C   0  0  1  0  0  3  0  0  0  0  0  0
  197.3590  174.6650  139.7430 C   0  0  1  0  0  3  0  0  0  0  0  0
  196.9800  173.1890  139.5980 C   0  0  2  0  0  3  0  0  0  0  0  0
  195.0220  175.4160  139.2600 O   0  0  0  0  0  0  0  0  0  0  0  0
  194.7960  174.0990  138.7630 C   0  0  2  0  0  3  0  0  0  0  0  0
  197.9380  175.1180  138.5580 O   0  0  0  0  0  1  0  0  0  0  0  0
  195.4680  172.9840  139.5760 C   0  0  0  0  0  2  0  0  0  0  0  0
  193.9850  174.4830  136.4190 C   0  0  0  0  0  0  0  0  0  0  0  0
  194.3110  172.3780  135.3100 C   0  0  1  0  0  3  0  0  0  0  0  0
  195.1190  174.0140  137.2600 C   0  0  2  0  0  3  0  0  0  0  0  0
  193.5220  173.5870  135.4320 N   0  0  0  0  0  2  0  0  0  0  0  0
  193.4620  175.6210  136.5570 O   0  0  0  0  0  0  0  0  0  0  0  0
  195.4190  172.2770  136.7670 S   0  0  0  0  0  0  0  0  0  0  0  0
  194.0310  170.0580  135.8390 O   0  0  0  0  0  1  0  0  0  0  0  0
  193.4050  171.1530  135.2380 C   0  0  1  0  0  3  0  0  0  0  0  0
  192.0860  171.4280  135.9470 C   0  0  0  0  0  2  0  0  0  0  0  0
  189.7710  170.6120  136.3980 C   0  0  0  0  0  1  0  0  0  0  0  0
  191.0820  170.3160  135.6930 C   0  0  0  0  0  2  0  0  0  0  0  0
  197.6370  172.3450  140.6830 C   0  0  0  0  0  3  0  0  0  0  0  0
  196.8210  172.2470  141.7940 F   0  0  0  0  0  0  0  0  0  0  0  0
  197.9300  171.0820  140.2020 F   0  0  0  0  0  0  0  0  0  0  0  0
  197.0010  177.2150  143.4040 O   0  0  0  0  0  1  0  0  0  0  0  0
  197.2520  175.7110  142.6490 S   0  0  0  0  0  3  0  0  0  0  0  0
  197.0760  174.7100  143.7850 O   0  0  0  0  0  1  0  0  0  0  0  0
  189.5850  176.4910  143.9780 C   0  0  1  0  0  3  0  0  0  0  0  0
  190.4860  177.2570  144.8340 N   0  0  0  0  0  2  0  0  0  0  0  0
  189.4910  178.2300  147.1040 O   0  0  0  0  0  0  0  0  0  0  0  0
  189.0310  175.8900  146.5560 O   0  0  0  0  0  0  0  0  0  0  0  0
  190.0640  176.9820  146.4950 S   0  0  0  0  0  0  0  0  0  0  0  0
  192.7730  176.5430  146.6270 C   0  0  0  0  0  2  0  0  0  0  0  0
  192.7700  175.0480  146.8130 C   0  0  0  0  0  2  0  0  0  0  0  0
  191.6120  177.1590  148.7660 C   0  0  0  0  0  1  0  0  0  0  0  0
  191.5010  176.4630  147.4210 C   0  0  1  0  0  0  0  0  0  0  0  0
  191.5690  175.0700  147.5440 O   0  0  0  0  0  0  0  0  0  0  0  0
  188.9270  177.4040  142.9520 C   0  0  0  0  0  2  0  0  0  0  0  0
  187.5680  177.1010  142.8300 O   0  0  0  0  0  0  0  0  0  0  0  0
  186.9660  178.3140  142.4760 C   0  0  2  0  0  3  0  0  0  0  0  0
  184.5260  178.5060  143.0680 C   0  0  0  0  0  0  0  0  0  0  0  0
  184.2000  178.0500  141.9020 N   0  0  0  0  0  2  0  0  0  0  0  0
  185.9100  178.6730  143.4250 N   0  0  0  0  0  0  0  0  0  0  0  0
  183.4970  178.9280  143.9580 N   0  0  0  0  0  1  0  0  0  0  0  0
  186.2680  179.1070  144.7730 C   0  0  0  0  0  2  0  0  0  0  0  0
  185.9810  178.2380  146.7810 C   0  0  0  0  0  1  0  0  0  0  0  0
  186.6000  177.9980  145.5520 O   0  0  0  0  0  0  0  0  0  0  0  0
  186.7750  177.0530  140.4400 O   0  0  0  0  0  1  0  0  0  0  0  0
  186.4290  178.2570  141.0520 C   0  0  0  0  0  2  0  0  0  0  0  0
  1 15  1  1  0  0  0
  1 45  1  0  0  0  0
  2  8  1  0  0  0  0
  3  6  1  6  0  0  0
  3  5  1  0  0  0  0
  3 10  1  0  0  0  0
  4 13  1  1  0  0  0
  5  8  1  6  0  0  0
  5 11  1  0  0  0  0
  9  2  1  0  0  0  0
  9  6  1  0  0  0  0
 10  7  1  6  0  0  0
 10  4  1  0  0  0  0
 11  1  1  6  0  0  0
 11  4  1  0  0  0  0
 12 13  2  0  0  0  0
 13 14  1  0  0  0  0
 16 17  1  6  0  0  0
 16 18  1  0  0  0  0
 16 15  1  0  0  0  0
 19 18  1  0  0  0  0
 20 19  1  1  0  0  0
 20 43  1  0  0  0  0
 21 20  1  1  0  0  0
 22 26  1  6  0  0  0
 22 21  1  0  0  0  0
 23 22  1  0  0  0  0
 23 39  1  1  0  0  0
 24 21  1  0  0  0  0
 25 24  1  0  0  0  0
 25 27  1  1  0  0  0
 27 23  1  0  0  0  0
 28 32  2  0  0  0  0
 29 35  1  1  0  0  0
 29 31  1  0  0  0  0
 29 33  1  0  0  0  0
 30 28  1  6  0  0  0
 30 25  1  0  0  0  0
 31 28  1  0  0  0  0
 33 30  1  0  0  0  0
 35 34  1  1  0  0  0
 35 36  1  0  0  0  0
 38 36  1  0  0  0  0
 38 37  1  0  0  0  0
 39 40  1  0  0  0  0
 41 39  1  0  0  0  0
 43 42  1  0  0  0  0
 43 44  1  0  0  0  0
 45 55  1  6  0  0  0
 45 46  1  0  0  0  0
 46 49  1  0  0  0  0
 49 48  2  0  0  0  0
 49 47  2  0  0  0  0
 49 53  1  0  0  0  0
 50 51  1  0  0  0  0
 50 53  1  0  0  0  0
 51 54  1  0  0  0  0
 53 54  1  0  0  0  0
 53 52  1  1  0  0  0
 56 55  1  0  0  0  0
 57 66  1  6  0  0  0
 57 56  1  0  0  0  0
 57 60  1  0  0  0  0
 58 60  1  0  0  0  0
 58 61  1  0  0  0  0
 59 58  2  0  0  0  0
 60 62  1  0  0  0  0
 62 64  1  0  0  0  0
 64 63  1  0  0  0  0
 65 66  1  0  0  0  0
M  END
>  <MODEL>
1

>  <REMARK>
 VINA RESULT:      -5.3      0.000      0.000
  Name = 
  25 active torsions:
  status: ('A' for Active; 'I' for Inactive)
    1  A    between atoms: C_2  and  C_35
    2  A    between atoms: C_3  and  O_19
    3  A    between atoms: C_3  and  N_38
    4  A    between atoms: C_4  and  C_21
    5  A    between atoms: C_9  and  C_61
    6  A    between atoms: C_13  and  C_51
    7  A    between atoms: C_13  and  C_60
    8  A    between atoms: C_13  and  O_63
    9  A    between atoms: C_15  and  C_46
   10  A    between atoms: C_15  and  O_63
   11  A    between atoms: C_17  and  C_25
   12  A    between atoms: C_23  and  C_51
   13  A    between atoms: C_23  and  O_55
   14  A    between atoms: C_26  and  C_41
   15  A    between atoms: S_27  and  C_35
   16  A    between atoms: C_29  and  C_32
   17  A    between atoms: C_32  and  C_61
   18  A    between atoms: C_35  and  C_47
   19  A    between atoms: N_38  and  C_56
   20  A    between atoms: C_46  and  C_47
   21  A    between atoms: C_49  and  S_57
   22  A    between atoms: C_51  and  N_53
   23  A    between atoms: N_53  and  S_57
   24  A    between atoms: O_55  and  C_56
   25  A    between atoms: C_56  and  C_58
                            x       y       z     vdW  Elec       q    Type
                         _______ _______ _______ _____ _____    ______ ____

>  <TORSDO>
F 25

$$$$
=
 OpenBabel11062418213D

 66 70  0  0  1  0  0  0  0  0999 V2000
  194.2760  172.3210  139.6900 C   0  0  2  0  0  3  0  0  0  0  0  0
  197.4720  174.9440  138.1040 C   0  0  0  0  0  2  0  0  0  0  0  0
  196.7580  174.0070  140.7660 C   0  0  2  0  0  3  0  0  0  0  0  0
  196.0440  171.8210  141.4820 C   0  0  1  0  0  3  0  0  0  0  0  0
  196.6830  173.1070  139.5650 C   0  0  2  0  0  3  0  0  0  0  0  0
  197.9380  174.9510  140.6000 C   0  0  0  0  0  2  0  0  0  0  0  0
  196.3550  173.5890  143.0770 O   0  0  0  0  0  1  0  0  0  0  0  0
  196.3490  173.9200  138.3190 C   0  0  0  0  0  2  0  0  0  0  0  0
  197.6970  175.8120  139.3550 C   0  0  0  0  0  2  0  0  0  0  0  0
  196.8850  173.0300  141.9120 C   0  0  2  0  0  3  0  0  0  0  0  0
  195.7490  171.9820  139.9840 C   0  0  2  0  0  3  0  0  0  0  0  0
  197.7820  170.4770  142.4540 O   0  0  0  0  0  1  0  0  0  0  0  0
  196.7550  170.5260  141.7230 C   0  0  0  0  0  0  0  0  0  0  0  0
  196.3210  169.3770  141.0730 O   0  0  0  0  0  0  0  0  0  0  0  0
  193.4580  172.2260  140.8310 O   0  0  0  0  0  0  0  0  0  0  0  0
  192.8080  173.4630  140.9170 C   0  0  2  0  0  3  0  0  0  0  0  0
  193.3050  174.3740  139.8130 C   0  0  0  0  0  1  0  0  0  0  0  0
  193.0960  174.0900  142.2690 C   0  0  0  0  0  2  0  0  0  0  0  0
  192.4170  173.2990  143.3730 C   0  0  0  0  0  2  0  0  0  0  0  0
  193.0940  173.5780  144.7070 C   0  0  1  0  0  3  0  0  0  0  0  0
  192.1160  174.2170  145.7070 C   0  0  1  0  0  3  0  0  0  0  0  0
  192.7430  175.3980  146.4750 C   0  0  1  0  0  3  0  0  0  0  0  0
  192.7930  176.6870  145.6490 C   0  0  2  0  0  3  0  0  0  0  0  0
  190.8440  174.4880  145.1240 O   0  0  0  0  0  0  0  0  0  0  0  0
  190.6650  175.8180  144.6420 C   0  0  2  0  0  3  0  0  0  0  0  0
  192.0300  175.6240  147.6520 O   0  0  0  0  0  1  0  0  0  0  0  0
  191.9690  176.5810  144.3690 C   0  0  0  0  0  2  0  0  0  0  0  0
  188.6980  175.7170  146.1980 C   0  0  0  0  0  0  0  0  0  0  0  0
  187.1280  177.2950  145.2970 C   0  0  1  0  0  3  0  0  0  0  0  0
  189.6960  176.6050  145.5440 C   0  0  2  0  0  3  0  0  0  0  0  0
  187.3400  176.0520  146.0100 N   0  0  0  0  0  2  0  0  0  0  0  0
  189.0290  174.7220  146.8970 O   0  0  0  0  0  0  0  0  0  0  0  0
  188.7250  177.7990  144.5520 S   0  0  0  0  0  0  0  0  0  0  0  0
  184.9220  177.8530  144.5460 O   0  0  0  0  0  1  0  0  0  0  0  0
  186.0640  177.1190  144.2180 C   0  0  1  0  0  3  0  0  0  0  0  0
  186.5950  177.5880  142.8710 C   0  0  0  0  0  2  0  0  0  0  0  0
  185.2960  178.1160  140.8060 C   0  0  0  0  0  1  0  0  0  0  0  0
  185.6370  178.5690  142.2140 C   0  0  0  0  0  2  0  0  0  0  0  0
  194.2320  177.0890  145.3500 C   0  0  0  0  0  3  0  0  0  0  0  0
  194.8760  177.5050  146.5000 F   0  0  0  0  0  0  0  0  0  0  0  0
  194.9200  176.0330  144.7810 F   0  0  0  0  0  0  0  0  0  0  0  0
  193.8990  171.0090  143.9920 O   0  0  0  0  0  1  0  0  0  0  0  0
  193.7640  172.0200  145.3550 S   0  0  0  0  0  3  0  0  0  0  0  0
  195.2140  172.3410  145.7010 O   0  0  0  0  0  1  0  0  0  0  0  0
  193.7480  171.4300  138.5630 C   0  0  1  0  0  3  0  0  0  0  0  0
  194.4140  170.1300  138.5800 N   0  0  0  0  0  2  0  0  0  0  0  0
  196.1890  170.9290  136.7630 O   0  0  0  0  0  0  0  0  0  0  0  0
  195.8610  168.5230  137.0720 O   0  0  0  0  0  0  0  0  0  0  0  0
  195.1710  169.8600  137.0420 S   0  0  0  0  0  0  0  0  0  0  0  0
  192.7290  169.0320  136.0920 C   0  0  0  0  0  2  0  0  0  0  0  0
  193.1910  168.1780  134.9410 C   0  0  0  0  0  2  0  0  0  0  0  0
  193.5910  171.2360  135.2540 C   0  0  0  0  0  1  0  0  0  0  0  0
  193.9440  169.8420  135.7440 C   0  0  1  0  0  0  0  0  0  0  0  0
  194.3090  168.9940  134.6910 O   0  0  0  0  0  0  0  0  0  0  0  0
  192.2440  171.2550  138.7290 C   0  0  0  0  0  2  0  0  0  0  0  0
  191.5560  172.0700  137.8280 O   0  0  0  0  0  0  0  0  0  0  0  0
  190.2720  171.5170  137.7590 C   0  0  2  0  0  3  0  0  0  0  0  0
  188.8230  173.5320  137.3350 C   0  0  0  0  0  0  0  0  0  0  0  0
  189.3230  173.6510  136.1480 N   0  0  0  0  0  2  0  0  0  0  0  0
  189.2620  172.4770  138.2090 N   0  0  0  0  0  0  0  0  0  0  0  0
  187.8990  174.5130  137.7970 N   0  0  0  0  0  1  0  0  0  0  0  0
  188.6290  172.3000  139.5140 C   0  0  0  0  0  2  0  0  0  0  0  0
  188.9510  173.6450  141.2340 C   0  0  0  0  0  1  0  0  0  0  0  0
  189.5430  172.5980  140.5250 O   0  0  0  0  0  0  0  0  0  0  0  0
  189.8120  169.1590  137.7430 O   0  0  0  0  0  1  0  0  0  0  0  0
  190.1960  170.2240  138.5580 C   0  0  0  0  0  2  0  0  0  0  0  0
  1 15  1  1  0  0  0
  2  8  1  0  0  0  0
  2  9  1  0  0  0  0
  3  6  1  6  0  0  0
  3 10  1  0  0  0  0
  4 13  1  6  0  0  0
  4 10  1  0  0  0  0
  5  8  1  6  0  0  0
  5 11  1  0  0  0  0
  5  3  1  0  0  0  0
  9  6  1  0  0  0  0
 10  7  1  1  0  0  0
 11  1  1  1  0  0  0
 11  4  1  0  0  0  0
 13 12  1  0  0  0  0
 14 13  2  0  0  0  0
 15 16  1  0  0  0  0
 16 17  1  6  0  0  0
 16 18  1  0  0  0  0
 18 19  1  0  0  0  0
 20 19  1  6  0  0  0
 20 43  1  0  0  0  0
 21 20  1  6  0  0  0
 21 22  1  0  0  0  0
 22 26  1  1  0  0  0
 23 39  1  6  0  0  0
 23 22  1  0  0  0  0
 24 21  1  0  0  0  0
 25 27  1  1  0  0  0
 25 24  1  0  0  0  0
 25 30  1  0  0  0  0
 27 23  1  0  0  0  0
 28 32  2  0  0  0  0
 29 35  1  6  0  0  0
 29 31  1  0  0  0  0
 30 33  1  6  0  0  0
 30 28  1  0  0  0  0
 31 28  1  0  0  0  0
 33 29  1  0  0  0  0
 35 34  1  1  0  0  0
 36 35  1  0  0  0  0
 37 38  1  0  0  0  0
 38 36  1  0  0  0  0
 39 40  1  0  0  0  0
 41 39  1  0  0  0  0
 42 43  1  0  0  0  0
 43 44  1  0  0  0  0
 45 46  1  0  0  0  0
 45 55  1  1  0  0  0
 45  1  1  0  0  0  0
 47 49  2  0  0  0  0
 49 48  2  0  0  0  0
 49 46  1  0  0  0  0
 51 50  1  0  0  0  0
 53 52  1  6  0  0  0
 53 50  1  0  0  0  0
 53 49  1  0  0  0  0
 54 51  1  0  0  0  0
 54 53  1  0  0  0  0
 56 55  1  0  0  0  0
 57 56  1  0  0  0  0
 57 60  1  0  0  0  0
 57 66  1  1  0  0  0
 58 61  1  0  0  0  0
 58 60  1  0  0  0  0
 59 58  2  0  0  0  0
 60 62  1  0  0  0  0
 62 64  1  0  0  0  0
 64 63  1  0  0  0  0
 65 66  1  0  0  0  0
M  END
>  <MODEL>
2

>  <REMARK>
 VINA RESULT:      -5.2      2.797      9.362
  Name = 
  25 active torsions:
  status: ('A' for Active; 'I' for Inactive)
    1  A    between atoms: C_2  and  C_35
    2  A    between atoms: C_3  and  O_19
    3  A    between atoms: C_3  and  N_38
    4  A    between atoms: C_4  and  C_21
    5  A    between atoms: C_9  and  C_61
    6  A    between atoms: C_13  and  C_51
    7  A    between atoms: C_13  and  C_60
    8  A    between atoms: C_13  and  O_63
    9  A    between atoms: C_15  and  C_46
   10  A    between atoms: C_15  and  O_63
   11  A    between atoms: C_17  and  C_25
   12  A    between atoms: C_23  and  C_51
   13  A    between atoms: C_23  and  O_55
   14  A    between atoms: C_26  and  C_41
   15  A    between atoms: S_27  and  C_35
   16  A    between atoms: C_29  and  C_32
   17  A    between atoms: C_32  and  C_61
   18  A    between atoms: C_35  and  C_47
   19  A    between atoms: N_38  and  C_56
   20  A    between atoms: C_46  and  C_47
   21  A    between atoms: C_49  and  S_57
   22  A    between atoms: C_51  and  N_53
   23  A    between atoms: N_53  and  S_57
   24  A    between atoms: O_55  and  C_56
   25  A    between atoms: C_56  and  C_58
                            x       y       z     vdW  Elec       q    Type
                         _______ _______ _______ _____ _____    ______ ____

>  <TORSDO>
F 25

$$$$
=
 OpenBabel11062418213D

 66 70  0  0  1  0  0  0  0  0999 V2000
  190.5380  173.9350  143.2160 C   0  0  2  0  0  3  0  0  0  0  0  0
  188.7440  175.6410  146.8880 C   0  0  0  0  0  2  0  0  0  0  0  0
  191.4210  174.7520  146.1670 C   0  0  2  0  0  3  0  0  0  0  0  0
  192.6480  175.0820  144.1210 C   0  0  1  0  0  3  0  0  0  0  0  0
  190.5530  175.5100  145.2020 C   0  0  2  0  0  3  0  0  0  0  0  0
  191.1610  175.2690  147.5730 C   0  0  0  0  0  2  0  0  0  0  0  0
  193.6580  173.9530  145.9830 O   0  0  0  0  0  1  0  0  0  0  0  0
  189.0840  175.1960  145.4590 C   0  0  0  0  0  2  0  0  0  0  0  0
  189.6920  175.0060  147.9220 C   0  0  0  0  0  2  0  0  0  0  0  0
  192.8150  175.0130  145.6450 C   0  0  2  0  0  3  0  0  0  0  0  0
  191.1440  175.2080  143.8340 C   0  0  2  0  0  3  0  0  0  0  0  0
  193.1300  176.6340  142.3520 O   0  0  0  0  0  0  0  0  0  0  0  0
  193.3780  176.2450  143.5260 C   0  0  0  0  0  0  0  0  0  0  0  0
  194.3950  176.8570  144.2500 O   0  0  0  0  0  1  0  0  0  0  0  0
  191.5060  172.9570  142.9250 O   0  0  0  0  0  0  0  0  0  0  0  0
  190.9570  171.7530  143.3820 C   0  0  2  0  0  3  0  0  0  0  0  0
  189.9680  172.0380  144.4950 C   0  0  0  0  0  1  0  0  0  0  0  0
  192.0680  170.8570  143.8990 C   0  0  0  0  0  2  0  0  0  0  0  0
  192.8350  170.2460  142.7400 C   0  0  0  0  0  2  0  0  0  0  0  0
  194.3180  170.1790  143.0730 C   0  0  1  0  0  3  0  0  0  0  0  0
  194.9540  171.5780  143.0740 C   0  0  1  0  0  3  0  0  0  0  0  0
  196.4840  171.5340  143.2580 C   0  0  1  0  0  3  0  0  0  0  0  0
  197.2290  171.1600  141.9730 C   0  0  2  0  0  3  0  0  0  0  0  0
  194.5050  172.3800  141.9840 O   0  0  0  0  0  0  0  0  0  0  0  0
  195.3540  172.3830  140.8390 C   0  0  2  0  0  3  0  0  0  0  0  0
  196.9380  172.7690  143.7200 O   0  0  0  0  0  1  0  0  0  0  0  0
  196.3160  171.1890  140.7520 C   0  0  0  0  0  2  0  0  0  0  0  0
  195.2860  174.7010  139.8780 C   0  0  0  0  0  0  0  0  0  0  0  0
  197.3440  174.9140  138.6570 C   0  0  1  0  0  3  0  0  0  0  0  0
  196.0750  173.7360  140.6910 C   0  0  2  0  0  3  0  0  0  0  0  0
  195.9430  175.2720  138.7670 N   0  0  0  0  0  2  0  0  0  0  0  0
  194.0990  175.0140  140.1590 O   0  0  0  0  0  0  0  0  0  0  0  0
  197.6630  173.5220  139.8060 S   0  0  0  0  0  0  0  0  0  0  0  0
  196.8440  173.4840  136.8020 O   0  0  0  0  0  1  0  0  0  0  0  0
  197.6830  174.5170  137.2240 C   0  0  1  0  0  3  0  0  0  0  0  0
  197.5220  175.7090  136.2920 C   0  0  0  0  0  2  0  0  0  0  0  0
  195.8580  176.6880  134.7100 C   0  0  0  0  0  1  0  0  0  0  0  0
  196.5250  175.4100  135.1840 C   0  0  0  0  0  2  0  0  0  0  0  0
  197.9220  169.8110  142.1150 C   0  0  0  0  0  3  0  0  0  0  0  0
  197.4810  169.1470  143.2440 F   0  0  0  0  0  0  0  0  0  0  0  0
  197.6980  169.0330  140.9940 F   0  0  0  0  0  0  0  0  0  0  0  0
  194.2790  170.6140  145.8230 O   0  0  0  0  0  1  0  0  0  0  0  0
  194.5170  169.3700  144.6860 S   0  0  0  0  0  3  0  0  0  0  0  0
  193.2690  168.5080  144.8390 O   0  0  0  0  0  1  0  0  0  0  0  0
  189.7300  174.2930  141.9660 C   0  0  1  0  0  3  0  0  0  0  0  0
  189.3650  175.7070  141.9760 N   0  0  0  0  0  2  0  0  0  0  0  0
  187.3830  175.8940  140.2080 O   0  0  0  0  0  0  0  0  0  0  0  0
  186.9620  174.6680  142.2840 O   0  0  0  0  0  0  0  0  0  0  0  0
  187.6610  175.8570  141.6850 S   0  0  0  0  0  0  0  0  0  0  0  0
  187.4490  177.4840  143.8890 C   0  0  0  0  0  2  0  0  0  0  0  0
  185.9700  177.3580  144.1440 C   0  0  0  0  0  2  0  0  0  0  0  0
  187.3190  178.5900  141.6390 C   0  0  0  0  0  1  0  0  0  0  0  0
  187.0310  177.3410  142.4540 C   0  0  1  0  0  0  0  0  0  0  0  0
  185.6730  177.2260  142.7760 O   0  0  0  0  0  0  0  0  0  0  0  0
  190.5570  173.9690  140.7280 C   0  0  0  0  0  2  0  0  0  0  0  0
  190.5360  172.5960  140.4730 O   0  0  0  0  0  0  0  0  0  0  0  0
  190.2260  172.4930  139.1120 C   0  0  2  0  0  3  0  0  0  0  0  0
  191.3340  170.2930  138.5930 C   0  0  0  0  0  0  0  0  0  0  0  0
  190.5310  169.6890  139.4080 N   0  0  0  0  0  1  0  0  0  0  0  0
  191.2410  171.7160  138.3990 N   0  0  0  0  0  0  0  0  0  0  0  0
  192.3700  169.5470  137.9630 N   0  0  0  0  0  2  0  0  0  0  0  0
  192.0950  172.3740  137.4140 C   0  0  0  0  0  2  0  0  0  0  0  0
  192.6100  171.8550  135.3310 C   0  0  0  0  0  1  0  0  0  0  0  0
  191.5380  172.2370  136.1410 O   0  0  0  0  0  0  0  0  0  0  0  0
  188.9300  173.9070  137.6640 O   0  0  0  0  0  1  0  0  0  0  0  0
  190.0530  173.8730  138.4900 C   0  0  0  0  0  2  0  0  0  0  0  0
  1 15  1  6  0  0  0
  2  9  1  0  0  0  0
  3  6  1  1  0  0  0
  4 13  1  1  0  0  0
  4 10  1  0  0  0  0
  5  8  1  6  0  0  0
  5  3  1  0  0  0  0
  6  9  1  0  0  0  0
  8  2  1  0  0  0  0
 10  7  1  6  0  0  0
 10  3  1  0  0  0  0
 11  1  1  1  0  0  0
 11  4  1  0  0  0  0
 11  5  1  0  0  0  0
 12 13  2  0  0  0  0
 13 14  1  0  0  0  0
 15 16  1  0  0  0  0
 16 18  1  0  0  0  0
 16 17  1  1  0  0  0
 19 18  1  0  0  0  0
 20 19  1  1  0  0  0
 20 43  1  0  0  0  0
 21 20  1  6  0  0  0
 21 22  1  0  0  0  0
 22 26  1  6  0  0  0
 23 39  1  1  0  0  0
 23 22  1  0  0  0  0
 24 21  1  0  0  0  0
 25 27  1  1  0  0  0
 25 24  1  0  0  0  0
 27 23  1  0  0  0  0
 28 32  2  0  0  0  0
 28 30  1  0  0  0  0
 29 35  1  6  0  0  0
 29 31  1  0  0  0  0
 29 33  1  0  0  0  0
 30 33  1  6  0  0  0
 30 25  1  0  0  0  0
 31 28  1  0  0  0  0
 35 34  1  6  0  0  0
 36 35  1  0  0  0  0
 37 38  1  0  0  0  0
 38 36  1  0  0  0  0
 39 40  1  0  0  0  0
 41 39  1  0  0  0  0
 43 44  1  0  0  0  0
 43 42  1  0  0  0  0
 45 55  1  6  0  0  0
 45 46  1  0  0  0  0
 45  1  1  0  0  0  0
 47 49  2  0  0  0  0
 49 46  1  0  0  0  0
 49 48  2  0  0  0  0
 49 53  1  0  0  0  0
 50 51  1  0  0  0  0
 53 52  1  6  0  0  0
 53 54  1  0  0  0  0
 53 50  1  0  0  0  0
 54 51  1  0  0  0  0
 56 55  1  0  0  0  0
 57 66  1  6  0  0  0
 57 56  1  0  0  0  0
 58 59  1  0  0  0  0
 60 58  1  0  0  0  0
 60 57  1  0  0  0  0
 61 58  2  0  0  0  0
 62 60  1  0  0  0  0
 63 64  1  0  0  0  0
 64 62  1  0  0  0  0
 65 66  1  0  0  0  0
M  END
>  <MODEL>
3

>  <REMARK>
 VINA RESULT:      -5.0      2.797      6.603
  Name = 
  25 active torsions:
  status: ('A' for Active; 'I' for Inactive)
    1  A    between atoms: C_2  and  C_35
    2  A    between atoms: C_3  and  O_19
    3  A    between atoms: C_3  and  N_38
    4  A    between atoms: C_4  and  C_21
    5  A    between atoms: C_9  and  C_61
    6  A    between atoms: C_13  and  C_51
    7  A    between atoms: C_13  and  C_60
    8  A    between atoms: C_13  and  O_63
    9  A    between atoms: C_15  and  C_46
   10  A    between atoms: C_15  and  O_63
   11  A    between atoms: C_17  and  C_25
   12  A    between atoms: C_23  and  C_51
   13  A    between atoms: C_23  and  O_55
   14  A    between atoms: C_26  and  C_41
   15  A    between atoms: S_27  and  C_35
   16  A    between atoms: C_29  and  C_32
   17  A    between atoms: C_32  and  C_61
   18  A    between atoms: C_35  and  C_47
   19  A    between atoms: N_38  and  C_56
   20  A    between atoms: C_46  and  C_47
   21  A    between atoms: C_49  and  S_57
   22  A    between atoms: C_51  and  N_53
   23  A    between atoms: N_53  and  S_57
   24  A    between atoms: O_55  and  C_56
   25  A    between atoms: C_56  and  C_58
                            x       y       z     vdW  Elec       q    Type
                         _______ _______ _______ _____ _____    ______ ____

>  <TORSDO>
F 25

$$$$
=
 OpenBabel11062418213D

 66 70  0  0  1  0  0  0  0  0999 V2000
  195.4790  172.5530  141.5400 C   0  0  2  0  0  3  0  0  0  0  0  0
  197.5630  176.1780  142.9970 C   0  0  0  0  0  2  0  0  0  0  0  0
  195.3410  174.5830  143.9930 C   0  0  2  0  0  3  0  0  0  0  0  0
  195.0740  172.1900  144.0470 C   0  0  1  0  0  3  0  0  0  0  0  0
  196.5500  173.9490  143.3640 C   0  0  2  0  0  3  0  0  0  0  0  0
  195.7780  175.8160  144.7680 C   0  0  0  0  0  2  0  0  0  0  0  0
  193.4000  173.6280  144.9910 O   0  0  0  0  0  1  0  0  0  0  0  0
  197.1390  174.8750  142.3070 C   0  0  0  0  0  2  0  0  0  0  0  0
  196.3990  176.8110  143.7810 C   0  0  0  0  0  2  0  0  0  0  0  0
  194.7780  173.4670  144.8440 C   0  0  2  0  0  3  0  0  0  0  0  0
  196.0870  172.5600  142.9540 C   0  0  2  0  0  3  0  0  0  0  0  0
  195.4490  169.8890  144.6280 O   0  0  0  0  0  0  0  0  0  0  0  0
  195.6340  171.1040  144.9120 C   0  0  0  0  0  0  0  0  0  0  0  0
  196.3010  171.4390  146.0850 O   0  0  0  0  0  1  0  0  0  0  0  0
  194.0890  172.3370  141.5450 O   0  0  0  0  0  0  0  0  0  0  0  0
  193.5910  173.1390  140.5110 C   0  0  2  0  0  3  0  0  0  0  0  0
  193.2050  174.4960  141.0640 C   0  0  0  0  0  1  0  0  0  0  0  0
  192.3750  172.4700  139.8970 C   0  0  0  0  0  2  0  0  0  0  0  0
  191.2370  173.4650  139.7620 C   0  0  0  0  0  2  0  0  0  0  0  0
  189.9370  172.7340  139.4600 C   0  0  1  0  0  3  0  0  0  0  0  0
  188.7660  173.3220  140.2640 C   0  0  1  0  0  3  0  0  0  0  0  0
  188.4150  172.4760  141.5050 C   0  0  1  0  0  3  0  0  0  0  0  0
  189.3760  172.7060  142.6750 C   0  0  2  0  0  3  0  0  0  0  0  0
  188.9250  174.7160  140.5150 O   0  0  0  0  0  0  0  0  0  0  0  0
  189.4950  175.0470  141.7790 C   0  0  2  0  0  3  0  0  0  0  0  0
  187.1100  172.7560  141.9100 O   0  0  0  0  0  1  0  0  0  0  0  0
  190.2850  173.9100  142.4430 C   0  0  0  0  0  2  0  0  0  0  0  0
  188.3860  177.1430  142.6020 C   0  0  0  0  0  0  0  0  0  0  0  0
  188.6040  177.0490  144.9920 C   0  0  1  0  0  3  0  0  0  0  0  0
  188.4390  175.6600  142.7160 C   0  0  2  0  0  3  0  0  0  0  0  0
  188.5380  177.8720  143.8010 N   0  0  0  0  0  2  0  0  0  0  0  0
  188.2030  177.7340  141.5040 O   0  0  0  0  0  0  0  0  0  0  0  0
  188.8530  175.3110  144.4650 S   0  0  0  0  0  0  0  0  0  0  0  0
  189.2440  177.9340  147.1250 O   0  0  0  0  0  1  0  0  0  0  0  0
  189.7470  177.5050  145.8950 C   0  0  1  0  0  3  0  0  0  0  0  0
  190.7280  176.3630  146.1240 C   0  0  0  0  0  2  0  0  0  0  0  0
  192.2710  176.9830  144.2630 C   0  0  0  0  0  1  0  0  0  0  0  0
  192.1450  176.7740  145.7610 C   0  0  0  0  0  2  0  0  0  0  0  0
  190.1860  171.4500  142.9720 C   0  0  0  0  0  3  0  0  0  0  0  0
  190.1130  170.5560  141.9210 F   0  0  0  0  0  0  0  0  0  0  0  0
  191.5070  171.7750  143.2220 F   0  0  0  0  0  0  0  0  0  0  0  0
  189.3400  171.2170  137.2030 O   0  0  0  0  0  1  0  0  0  0  0  0
  189.6160  172.8280  137.6760 S   0  0  0  0  0  3  0  0  0  0  0  0
  188.2380  173.4700  137.5670 O   0  0  0  0  0  1  0  0  0  0  0  0
  196.1890  171.5140  140.6690 C   0  0  1  0  0  3  0  0  0  0  0  0
  197.3030  172.1230  139.9470 N   0  0  0  0  0  2  0  0  0  0  0  0
  197.9260  171.5690  137.4180 O   0  0  0  0  0  0  0  0  0  0  0  0
  195.5600  171.5850  138.0430 O   0  0  0  0  0  0  0  0  0  0  0  0
  196.8900  172.2510  138.2660 S   0  0  0  0  0  0  0  0  0  0  0  0
  197.9370  174.7910  138.2200 C   0  0  0  0  0  2  0  0  0  0  0  0
  196.9100  175.4950  139.0670 C   0  0  0  0  0  2  0  0  0  0  0  0
  196.4310  174.1440  136.3180 C   0  0  0  0  0  1  0  0  0  0  0  0
  196.7570  173.9680  137.7910 C   0  0  1  0  0  0  0  0  0  0  0  0
  195.8660  174.6700  138.6130 O   0  0  0  0  0  0  0  0  0  0  0  0
  196.6900  170.3790  141.5530 C   0  0  0  0  0  2  0  0  0  0  0  0
  195.8220  169.2870  141.4820 O   0  0  0  0  0  0  0  0  0  0  0  0
  195.5510  169.1380  140.1170 C   0  0  2  0  0  3  0  0  0  0  0  0
  193.1920  168.8290  140.9390 C   0  0  0  0  0  0  0  0  0  0  0  0
  193.5120  169.3540  142.0770 N   0  0  0  0  0  1  0  0  0  0  0  0
  194.1770  168.6810  139.9010 N   0  0  0  0  0  0  0  0  0  0  0  0
  191.8750  168.3140  140.7610 N   0  0  0  0  0  2  0  0  0  0  0  0
  193.7850  168.1660  138.5920 C   0  0  0  0  0  2  0  0  0  0  0  0
  193.8270  168.9030  136.5120 C   0  0  0  0  0  1  0  0  0  0  0  0
  193.3460  169.2160  137.7840 O   0  0  0  0  0  0  0  0  0  0  0  0
  197.8570  168.6540  139.6470 O   0  0  0  0  0  1  0  0  0  0  0  0
  196.5530  168.1950  139.4660 C   0  0  0  0  0  2  0  0  0  0  0  0
  1 15  1  1  0  0  0
  2  9  1  0  0  0  0
  3  6  1  1  0  0  0
  3 10  1  0  0  0  0
  4 10  1  0  0  0  0
  4 13  1  1  0  0  0
  5  8  1  6  0  0  0
  5  3  1  0  0  0  0
  8  2  1  0  0  0  0
  9  6  1  0  0  0  0
 10  7  1  6  0  0  0
 11  1  1  6  0  0  0
 11  5  1  0  0  0  0
 11  4  1  0  0  0  0
 12 13  2  0  0  0  0
 13 14  1  0  0  0  0
 16 17  1  1  0  0  0
 16 15  1  0  0  0  0
 18 16  1  0  0  0  0
 19 18  1  0  0  0  0
 20 19  1  6  0  0  0
 21 20  1  1  0  0  0
 21 24  1  0  0  0  0
 21 22  1  0  0  0  0
 22 26  1  1  0  0  0
 22 23  1  0  0  0  0
 23 39  1  6  0  0  0
 24 25  1  0  0  0  0
 25 27  1  1  0  0  0
 25 30  1  0  0  0  0
 27 23  1  0  0  0  0
 28 31  1  0  0  0  0
 29 35  1  1  0  0  0
 30 28  1  1  0  0  0
 30 33  1  0  0  0  0
 31 29  1  0  0  0  0
 32 28  2  0  0  0  0
 33 29  1  0  0  0  0
 35 36  1  0  0  0  0
 35 34  1  1  0  0  0
 37 38  1  0  0  0  0
 38 36  1  0  0  0  0
 39 41  1  0  0  0  0
 40 39  1  0  0  0  0
 42 43  1  0  0  0  0
 43 20  1  0  0  0  0
 44 43  1  0  0  0  0
 45  1  1  0  0  0  0
 45 55  1  1  0  0  0
 46 45  1  0  0  0  0
 47 49  2  0  0  0  0
 48 49  2  0  0  0  0
 49 46  1  0  0  0  0
 50 51  1  0  0  0  0
 53 52  1  6  0  0  0
 53 50  1  0  0  0  0
 53 49  1  0  0  0  0
 53 54  1  0  0  0  0
 54 51  1  0  0  0  0
 56 55  1  0  0  0  0
 57 66  1  1  0  0  0
 57 56  1  0  0  0  0
 58 59  1  0  0  0  0
 60 57  1  0  0  0  0
 60 58  1  0  0  0  0
 61 58  2  0  0  0  0
 62 60  1  0  0  0  0
 63 64  1  0  0  0  0
 64 62  1  0  0  0  0
 66 65  1  0  0  0  0
M  END
>  <MODEL>
4

>  <REMARK>
 VINA RESULT:      -4.9      3.428      9.947
  Name = 
  25 active torsions:
  status: ('A' for Active; 'I' for Inactive)
    1  A    between atoms: C_2  and  C_35
    2  A    between atoms: C_3  and  O_19
    3  A    between atoms: C_3  and  N_38
    4  A    between atoms: C_4  and  C_21
    5  A    between atoms: C_9  and  C_61
    6  A    between atoms: C_13  and  C_51
    7  A    between atoms: C_13  and  C_60
    8  A    between atoms: C_13  and  O_63
    9  A    between atoms: C_15  and  C_46
   10  A    between atoms: C_15  and  O_63
   11  A    between atoms: C_17  and  C_25
   12  A    between atoms: C_23  and  C_51
   13  A    between atoms: C_23  and  O_55
   14  A    between atoms: C_26  and  C_41
   15  A    between atoms: S_27  and  C_35
   16  A    between atoms: C_29  and  C_32
   17  A    between atoms: C_32  and  C_61
   18  A    between atoms: C_35  and  C_47
   19  A    between atoms: N_38  and  C_56
   20  A    between atoms: C_46  and  C_47
   21  A    between atoms: C_49  and  S_57
   22  A    between atoms: C_51  and  N_53
   23  A    between atoms: N_53  and  S_57
   24  A    between atoms: O_55  and  C_56
   25  A    between atoms: C_56  and  C_58
                            x       y       z     vdW  Elec       q    Type
                         _______ _______ _______ _____ _____    ______ ____

>  <TORSDO>
F 25

$$$$
=
 OpenBabel11062418213D

 66 70  0  0  1  0  0  0  0  0999 V2000
  190.4280  175.2000  142.5920 C   0  0  2  0  0  3  0  0  0  0  0  0
  188.4790  173.1420  139.1890 C   0  0  0  0  0  2  0  0  0  0  0  0
  190.4420  172.3410  141.1840 C   0  0  2  0  0  3  0  0  0  0  0  0
  190.5150  172.8190  143.5440 C   0  0  1  0  0  3  0  0  0  0  0  0
  189.2680  173.2090  141.5360 C   0  0  2  0  0  3  0  0  0  0  0  0
  190.0170  171.3450  140.1170 C   0  0  0  0  0  2  0  0  0  0  0  0
  192.1770  171.4150  142.5300 O   0  0  0  0  0  1  0  0  0  0  0  0
  188.8770  174.0730  140.3420 C   0  0  0  0  0  2  0  0  0  0  0  0
  189.5920  172.1270  138.8690 C   0  0  0  0  0  2  0  0  0  0  0  0
  190.8160  171.7230  142.5130 C   0  0  2  0  0  3  0  0  0  0  0  0
  189.6650  173.8860  142.8380 C   0  0  2  0  0  3  0  0  0  0  0  0
  189.2230  171.1530  144.6960 O   0  0  0  0  0  0  0  0  0  0  0  0
  189.7760  172.2860  144.7320 C   0  0  0  0  0  0  0  0  0  0  0  0
  189.6350  173.0820  145.8620 O   0  0  0  0  0  1  0  0  0  0  0  0
  191.7160  175.1960  143.1560 O   0  0  0  0  0  0  0  0  0  0  0  0
  192.5640  175.6390  142.1350 C   0  0  2  0  0  3  0  0  0  0  0  0
  192.4450  174.7120  140.9410 C   0  0  0  0  0  1  0  0  0  0  0  0
  193.9960  175.6480  142.6370 C   0  0  0  0  0  2  0  0  0  0  0  0
  194.9110  176.2900  141.6100 C   0  0  0  0  0  2  0  0  0  0  0  0
  196.0320  175.3310  141.2380 C   0  0  1  0  0  3  0  0  0  0  0  0
  196.3290  175.3760  139.7300 C   0  0  1  0  0  3  0  0  0  0  0  0
  197.3660  174.3200  139.2980 C   0  0  1  0  0  3  0  0  0  0  0  0
  196.7700  172.9150  139.1720 C   0  0  2  0  0  3  0  0  0  0  0  0
  195.1400  175.4050  138.9440 O   0  0  0  0  0  0  0  0  0  0  0  0
  194.6990  174.1390  138.4580 C   0  0  2  0  0  3  0  0  0  0  0  0
  197.9410  174.6950  138.0840 O   0  0  0  0  0  1  0  0  0  0  0  0
  195.2460  172.9310  139.2320 C   0  0  0  0  0  2  0  0  0  0  0  0
  193.6640  174.2030  136.1730 C   0  0  0  0  0  0  0  0  0  0  0  0
  194.3270  172.1360  135.1460 C   0  0  1  0  0  3  0  0  0  0  0  0
  194.9260  174.0220  136.9400 C   0  0  2  0  0  3  0  0  0  0  0  0
  193.3220  173.1720  135.2730 N   0  0  0  0  0  2  0  0  0  0  0  0
  192.9340  175.2230  136.2970 O   0  0  0  0  0  0  0  0  0  0  0  0
  195.5330  172.3490  136.5100 S   0  0  0  0  0  0  0  0  0  0  0  0
  194.6150  169.8110  135.6490 O   0  0  0  0  0  1  0  0  0  0  0  0
  193.6830  170.7540  135.2100 C   0  0  1  0  0  3  0  0  0  0  0  0
  192.4950  170.7680  136.1620 C   0  0  0  0  0  2  0  0  0  0  0  0
  190.6150  169.3860  137.0470 C   0  0  0  0  0  1  0  0  0  0  0  0
  192.0170  169.3580  136.4670 C   0  0  0  0  0  2  0  0  0  0  0  0
  197.3560  171.9760  140.2190 C   0  0  0  0  0  3  0  0  0  0  0  0
  197.8790  172.6880  141.2820 F   0  0  0  0  0  0  0  0  0  0  0  0
  196.3910  171.0960  140.6720 F   0  0  0  0  0  0  0  0  0  0  0  0
  197.0690  177.1580  143.0660 O   0  0  0  0  0  1  0  0  0  0  0  0
  197.5080  175.7560  142.2070 S   0  0  0  0  0  3  0  0  0  0  0  0
  197.5780  174.6850  143.2890 O   0  0  0  0  0  1  0  0  0  0  0  0
  189.6090  176.3860  143.1080 C   0  0  1  0  0  3  0  0  0  0  0  0
  188.1950  176.2130  142.7870 N   0  0  0  0  0  2  0  0  0  0  0  0
  188.7870  178.5020  141.5630 O   0  0  0  0  0  0  0  0  0  0  0  0
  187.4000  176.8820  140.3640 O   0  0  0  0  0  0  0  0  0  0  0  0
  187.6960  177.4800  141.7120 S   0  0  0  0  0  0  0  0  0  0  0  0
  185.1850  177.2860  142.8120 C   0  0  0  0  0  2  0  0  0  0  0  0
  184.3750  177.8500  141.6740 C   0  0  0  0  0  2  0  0  0  0  0  0
  186.5090  179.3500  143.3500 C   0  0  0  0  0  1  0  0  0  0  0  0
  186.2140  178.2660  142.3280 C   0  0  1  0  0  0  0  0  0  0  0  0
  185.4000  178.7330  141.2890 O   0  0  0  0  0  0  0  0  0  0  0  0
  189.7990  176.5060  144.6140 C   0  0  0  0  0  2  0  0  0  0  0  0
  188.8130  177.3280  145.1660 O   0  0  0  0  0  0  0  0  0  0  0  0
  188.2470  176.5630  146.1920 C   0  0  2  0  0  3  0  0  0  0  0  0
  187.8740  178.4460  147.8210 C   0  0  0  0  0  0  0  0  0  0  0  0
  189.1420  178.6980  147.8300 N   0  0  0  0  0  2  0  0  0  0  0  0
  187.3500  177.3730  147.0180 N   0  0  0  0  0  0  0  0  0  0  0  0
  187.0150  179.1840  148.6850 N   0  0  0  0  0  1  0  0  0  0  0  0
  185.9080  177.1510  146.9480 C   0  0  0  0  0  2  0  0  0  0  0  0
  184.1340  178.4280  146.6410 C   0  0  0  0  0  1  0  0  0  0  0  0
  185.3370  178.0470  146.0430 O   0  0  0  0  0  0  0  0  0  0  0  0
  188.7990  174.8690  147.8050 O   0  0  0  0  0  1  0  0  0  0  0  0
  189.3300  175.9050  147.0370 C   0  0  0  0  0  2  0  0  0  0  0  0
  1 45  1  0  0  0  0
  1 15  1  1  0  0  0
  2  8  1  0  0  0  0
  3  6  1  6  0  0  0
  3  5  1  0  0  0  0
  3 10  1  0  0  0  0
  4 13  1  1  0  0  0
  5  8  1  6  0  0  0
  5 11  1  0  0  0  0
  9  2  1  0  0  0  0
  9  6  1  0  0  0  0
 10  7  1  6  0  0  0
 10  4  1  0  0  0  0
 11  1  1  6  0  0  0
 11  4  1  0  0  0  0
 12 13  2  0  0  0  0
 13 14  1  0  0  0  0
 16 17  1  6  0  0  0
 16 18  1  0  0  0  0
 16 15  1  0  0  0  0
 19 18  1  0  0  0  0
 20 19  1  6  0  0  0
 20 43  1  0  0  0  0
 21 20  1  1  0  0  0
 22 26  1  6  0  0  0
 22 21  1  0  0  0  0
 23 27  1  0  0  0  0
 23 22  1  0  0  0  0
 23 39  1  1  0  0  0
 24 21  1  0  0  0  0
 25 24  1  0  0  0  0
 25 27  1  1  0  0  0
 28 32  2  0  0  0  0
 29 35  1  1  0  0  0
 29 31  1  0  0  0  0
 29 33  1  0  0  0  0
 30 28  1  6  0  0  0
 30 25  1  0  0  0  0
 31 28  1  0  0  0  0
 33 30  1  0  0  0  0
 35 34  1  1  0  0  0
 35 36  1  0  0  0  0
 36 38  1  0  0  0  0
 38 37  1  0  0  0  0
 39 41  1  0  0  0  0
 39 40  1  0  0  0  0
 43 42  1  0  0  0  0
 43 44  1  0  0  0  0
 45 55  1  1  0  0  0
 46 45  1  0  0  0  0
 47 49  2  0  0  0  0
 48 49  2  0  0  0  0
 49 53  1  0  0  0  0
 49 46  1  0  0  0  0
 51 50  1  0  0  0  0
 53 50  1  0  0  0  0
 53 52  1  1  0  0  0
 54 51  1  0  0  0  0
 54 53  1  0  0  0  0
 55 56  1  0  0  0  0
 56 57  1  0  0  0  0
 57 60  1  0  0  0  0
 57 66  1  1  0  0  0
 58 59  2  0  0  0  0
 58 61  1  0  0  0  0
 60 58  1  0  0  0  0
 62 60  1  0  0  0  0
 64 63  1  0  0  0  0
 64 62  1  0  0  0  0
 66 65  1  0  0  0  0
M  END
>  <MODEL>
5

>  <REMARK>
 VINA RESULT:      -4.7      1.701      3.528
  Name = 
  25 active torsions:
  status: ('A' for Active; 'I' for Inactive)
    1  A    between atoms: C_2  and  C_35
    2  A    between atoms: C_3  and  O_19
    3  A    between atoms: C_3  and  N_38
    4  A    between atoms: C_4  and  C_21
    5  A    between atoms: C_9  and  C_61
    6  A    between atoms: C_13  and  C_51
    7  A    between atoms: C_13  and  C_60
    8  A    between atoms: C_13  and  O_63
    9  A    between atoms: C_15  and  C_46
   10  A    between atoms: C_15  and  O_63
   11  A    between atoms: C_17  and  C_25
   12  A    between atoms: C_23  and  C_51
   13  A    between atoms: C_23  and  O_55
   14  A    between atoms: C_26  and  C_41
   15  A    between atoms: S_27  and  C_35
   16  A    between atoms: C_29  and  C_32
   17  A    between atoms: C_32  and  C_61
   18  A    between atoms: C_35  and  C_47
   19  A    between atoms: N_38  and  C_56
   20  A    between atoms: C_46  and  C_47
   21  A    between atoms: C_49  and  S_57
   22  A    between atoms: C_51  and  N_53
   23  A    between atoms: N_53  and  S_57
   24  A    between atoms: O_55  and  C_56
   25  A    between atoms: C_56  and  C_58
                            x       y       z     vdW  Elec       q    Type
                         _______ _______ _______ _____ _____    ______ ____

>  <TORSDO>
F 25

$$$$
=
 OpenBabel11062418213D

 66 70  0  0  1  0  0  0  0  0999 V2000
  190.5620  174.6210  143.6000 C   0  0  2  0  0  3  0  0  0  0  0  0
  190.2120  177.1190  147.2400 C   0  0  0  0  0  2  0  0  0  0  0  0
  192.4250  175.7660  145.9180 C   0  0  2  0  0  3  0  0  0  0  0  0
  192.9360  175.5940  143.5710 C   0  0  1  0  0  3  0  0  0  0  0  0
  191.3520  176.4730  145.1390 C   0  0  2  0  0  3  0  0  0  0  0  0
  192.6820  176.5300  147.2070 C   0  0  0  0  0  2  0  0  0  0  0  0
  194.4070  174.6470  145.2140 O   0  0  0  0  0  1  0  0  0  0  0  0
  190.0280  176.4100  145.8910 C   0  0  0  0  0  2  0  0  0  0  0  0
  191.3920  176.5310  148.0350 C   0  0  0  0  0  2  0  0  0  0  0  0
  193.5870  175.7450  144.9520 C   0  0  2  0  0  3  0  0  0  0  0  0
  191.4370  175.8790  143.7410 C   0  0  2  0  0  3  0  0  0  0  0  0
  192.8520  177.5100  142.1240 O   0  0  0  0  0  1  0  0  0  0  0  0
  193.5210  176.5360  142.5660 C   0  0  0  0  0  0  0  0  0  0  0  0
  194.7910  176.2910  142.0570 O   0  0  0  0  0  0  0  0  0  0  0  0
  191.2660  173.5250  143.0680 O   0  0  0  0  0  0  0  0  0  0  0  0
  191.0370  172.4750  143.9640 C   0  0  2  0  0  3  0  0  0  0  0  0
  190.1410  172.9540  145.0880 C   0  0  0  0  0  1  0  0  0  0  0  0
  192.3630  172.0000  144.5320 C   0  0  0  0  0  2  0  0  0  0  0  0
  193.1180  171.1850  143.4980 C   0  0  0  0  0  2  0  0  0  0  0  0
  194.5600  170.9870  143.9400 C   0  0  1  0  0  3  0  0  0  0  0  0
  195.4990  171.9890  143.2510 C   0  0  1  0  0  3  0  0  0  0  0  0
  196.9870  171.6280  143.4310 C   0  0  1  0  0  3  0  0  0  0  0  0
  197.4460  170.5060  142.4960 C   0  0  2  0  0  3  0  0  0  0  0  0
  195.1070  172.2650  141.9080 O   0  0  0  0  0  0  0  0  0  0  0  0
  195.7730  171.4960  140.9080 C   0  0  2  0  0  3  0  0  0  0  0  0
  197.7740  172.7610  143.2220 O   0  0  0  0  0  1  0  0  0  0  0  0
  196.4100  170.1950  141.4200 C   0  0  0  0  0  2  0  0  0  0  0  0
  196.0640  173.3480  139.2400 C   0  0  0  0  0  0  0  0  0  0  0  0
  197.4850  172.4200  137.5410 C   0  0  1  0  0  3  0  0  0  0  0  0
  196.7630  172.3660  140.1120 C   0  0  2  0  0  3  0  0  0  0  0  0
  196.4050  173.3280  137.8710 N   0  0  0  0  0  2  0  0  0  0  0  0
  195.2200  174.1720  139.6850 O   0  0  0  0  0  0  0  0  0  0  0  0
  197.7670  171.3280  138.9870 S   0  0  0  0  0  0  0  0  0  0  0  0
  197.2070  170.2340  136.6030 O   0  0  0  0  0  1  0  0  0  0  0  0
  197.1340  171.5960  136.3070 C   0  0  1  0  0  3  0  0  0  0  0  0
  195.7270  171.9320  135.8290 C   0  0  0  0  0  2  0  0  0  0  0  0
  193.7650  170.5090  135.2330 C   0  0  0  0  0  1  0  0  0  0  0  0
  195.1980  170.8670  134.8830 C   0  0  0  0  0  2  0  0  0  0  0  0
  197.8180  169.2560  143.2830 C   0  0  0  0  0  3  0  0  0  0  0  0
  197.9410  169.5400  144.6300 F   0  0  0  0  0  0  0  0  0  0  0  0
  196.8690  168.2670  143.0960 F   0  0  0  0  0  0  0  0  0  0  0  0
  194.9790  169.5800  146.3070 O   0  0  0  0  0  1  0  0  0  0  0  0
  194.6420  171.1510  145.7460 S   0  0  0  0  0  3  0  0  0  0  0  0
  195.9420  171.9040  146.0040 O   0  0  0  0  0  1  0  0  0  0  0  0
  189.3230  174.9350  142.7570 C   0  0  1  0  0  3  0  0  0  0  0  0
  188.8610  176.2970  143.0100 N   0  0  0  0  0  2  0  0  0  0  0  0
  186.5570  174.9780  142.8090 O   0  0  0  0  0  0  0  0  0  0  0  0
  186.8930  176.4170  144.7600 O   0  0  0  0  0  0  0  0  0  0  0  0
  187.1480  176.2750  143.2840 S   0  0  0  0  0  0  0  0  0  0  0  0
  186.9370  178.9750  142.8180 C   0  0  0  0  0  2  0  0  0  0  0  0
  185.5500  179.2090  143.3570 C   0  0  0  0  0  2  0  0  0  0  0  0
  186.3200  177.4410  140.9300 C   0  0  0  0  0  1  0  0  0  0  0  0
  186.3690  177.6400  142.4350 C   0  0  1  0  0  0  0  0  0  0  0  0
  185.1060  177.9340  142.9650 O   0  0  0  0  0  0  0  0  0  0  0  0
  189.6640  174.7580  141.2830 C   0  0  0  0  0  2  0  0  0  0  0  0
  190.5750  173.7120  141.1160 O   0  0  0  0  0  0  0  0  0  0  0  0
  189.9950  172.8900  140.1420 C   0  0  2  0  0  3  0  0  0  0  0  0
  191.2240  170.6940  140.0470 C   0  0  0  0  0  0  0  0  0  0  0  0
  190.5540  170.2680  141.0680 N   0  0  0  0  0  1  0  0  0  0  0  0
  190.9970  172.0170  139.5270 N   0  0  0  0  0  0  0  0  0  0  0  0
  192.2510  169.8730  139.5010 N   0  0  0  0  0  2  0  0  0  0  0  0
  191.6950  172.4570  138.3230 C   0  0  0  0  0  2  0  0  0  0  0  0
  192.5260  174.1870  137.2340 C   0  0  0  0  0  1  0  0  0  0  0  0
  192.2080  173.7400  138.5170 O   0  0  0  0  0  0  0  0  0  0  0  0
  187.9670  173.2630  138.9090 O   0  0  0  0  0  1  0  0  0  0  0  0
  189.2710  173.7220  139.0930 C   0  0  0  0  0  2  0  0  0  0  0  0
  1 15  1  6  0  0  0
  2  9  1  0  0  0  0
  3  6  1  1  0  0  0
  4 13  1  6  0  0  0
  4 11  1  0  0  0  0
  4 10  1  0  0  0  0
  5  8  1  1  0  0  0
  5  3  1  0  0  0  0
  6  9  1  0  0  0  0
  8  2  1  0  0  0  0
 10  7  1  1  0  0  0
 10  3  1  0  0  0  0
 11  1  1  1  0  0  0
 11  5  1  0  0  0  0
 12 13  1  0  0  0  0
 14 13  2  0  0  0  0
 15 16  1  0  0  0  0
 16 18  1  0  0  0  0
 16 17  1  1  0  0  0
 19 18  1  0  0  0  0
 20 19  1  6  0  0  0
 20 43  1  0  0  0  0
 21 22  1  0  0  0  0
 21 20  1  6  0  0  0
 22 26  1  6  0  0  0
 23 39  1  1  0  0  0
 23 22  1  0  0  0  0
 24 21  1  0  0  0  0
 25 27  1  1  0  0  0
 25 24  1  0  0  0  0
 27 23  1  0  0  0  0
 28 32  2  0  0  0  0
 28 30  1  0  0  0  0
 29 35  1  6  0  0  0
 29 31  1  0  0  0  0
 29 33  1  0  0  0  0
 30 33  1  6  0  0  0
 30 25  1  0  0  0  0
 31 28  1  0  0  0  0
 35 34  1  1  0  0  0
 36 35  1  0  0  0  0
 38 37  1  0  0  0  0
 38 36  1  0  0  0  0
 39 40  1  0  0  0  0
 41 39  1  0  0  0  0
 43 44  1  0  0  0  0
 43 42  1  0  0  0  0
 45 55  1  6  0  0  0
 45 46  1  0  0  0  0
 45  1  1  0  0  0  0
 46 49  1  0  0  0  0
 47 49  2  0  0  0  0
 49 48  2  0  0  0  0
 50 51  1  0  0  0  0
 53 52  1  6  0  0  0
 53 50  1  0  0  0  0
 53 54  1  0  0  0  0
 53 49  1  0  0  0  0
 54 51  1  0  0  0  0
 56 55  1  0  0  0  0
 57 66  1  6  0  0  0
 57 56  1  0  0  0  0
 58 59  1  0  0  0  0
 60 58  1  0  0  0  0
 60 57  1  0  0  0  0
 61 58  2  0  0  0  0
 62 64  1  0  0  0  0
 62 60  1  0  0  0  0
 63 64  1  0  0  0  0
 65 66  1  0  0  0  0
M  END
>  <MODEL>
6

>  <REMARK>
 VINA RESULT:      -4.3      2.812      6.199
  Name = 
  25 active torsions:
  status: ('A' for Active; 'I' for Inactive)
    1  A    between atoms: C_2  and  C_35
    2  A    between atoms: C_3  and  O_19
    3  A    between atoms: C_3  and  N_38
    4  A    between atoms: C_4  and  C_21
    5  A    between atoms: C_9  and  C_61
    6  A    between atoms: C_13  and  C_51
    7  A    between atoms: C_13  and  C_60
    8  A    between atoms: C_13  and  O_63
    9  A    between atoms: C_15  and  C_46
   10  A    between atoms: C_15  and  O_63
   11  A    between atoms: C_17  and  C_25
   12  A    between atoms: C_23  and  C_51
   13  A    between atoms: C_23  and  O_55
   14  A    between atoms: C_26  and  C_41
   15  A    between atoms: S_27  and  C_35
   16  A    between atoms: C_29  and  C_32
   17  A    between atoms: C_32  and  C_61
   18  A    between atoms: C_35  and  C_47
   19  A    between atoms: N_38  and  C_56
   20  A    between atoms: C_46  and  C_47
   21  A    between atoms: C_49  and  S_57
   22  A    between atoms: C_51  and  N_53
   23  A    between atoms: N_53  and  S_57
   24  A    between atoms: O_55  and  C_56
   25  A    between atoms: C_56  and  C_58
                            x       y       z     vdW  Elec       q    Type
                         _______ _______ _______ _____ _____    ______ ____

>  <TORSDO>
F 25

$$$$
=
 OpenBabel11062418213D

 66 70  0  0  1  0  0  0  0  0999 V2000
  193.4860  172.9310  139.1730 C   0  0  2  0  0  3  0  0  0  0  0  0
  196.5440  169.9950  140.4540 C   0  0  0  0  0  2  0  0  0  0  0  0
  193.9250  170.7620  141.4670 C   0  0  2  0  0  3  0  0  0  0  0  0
  191.8940  171.2390  140.2630 C   0  0  1  0  0  3  0  0  0  0  0  0
  194.1990  170.6410  139.9940 C   0  0  2  0  0  3  0  0  0  0  0  0
  194.7280  169.7030  142.2050 C   0  0  0  0  0  2  0  0  0  0  0  0
  191.9270  171.2640  142.6630 O   0  0  0  0  0  1  0  0  0  0  0  0
  195.6530  170.9900  139.6990 C   0  0  0  0  0  2  0  0  0  0  0  0
  196.2180  169.9660  141.9580 C   0  0  0  0  0  2  0  0  0  0  0  0
  192.4260  170.5890  141.5480 C   0  0  2  0  0  3  0  0  0  0  0  0
  193.0960  171.4500  139.3300 C   0  0  2  0  0  3  0  0  0  0  0  0
  189.6780  170.7880  139.4520 O   0  0  0  0  0  1  0  0  0  0  0  0
  190.8670  170.3870  139.5840 C   0  0  0  0  0  0  0  0  0  0  0  0
  191.2110  169.1080  139.1630 O   0  0  0  0  0  0  0  0  0  0  0  0
  193.1610  173.7030  140.3030 O   0  0  0  0  0  0  0  0  0  0  0  0
  194.2370  174.5830  140.4660 C   0  0  2  0  0  3  0  0  0  0  0  0
  195.5230  173.8920  140.0590 C   0  0  0  0  0  1  0  0  0  0  0  0
  194.3220  175.0110  141.9200 C   0  0  0  0  0  2  0  0  0  0  0  0
  194.2770  173.7980  142.8310 C   0  0  0  0  0  2  0  0  0  0  0  0
  194.5090  174.2190  144.2740 C   0  0  1  0  0  3  0  0  0  0  0  0
  193.2170  174.1140  145.1020 C   0  0  1  0  0  3  0  0  0  0  0  0
  193.2470  175.0010  146.3620 C   0  0  1  0  0  3  0  0  0  0  0  0
  192.9700  176.4770  146.0590 C   0  0  2  0  0  3  0  0  0  0  0  0
  192.0460  174.2490  144.3000 O   0  0  0  0  0  0  0  0  0  0  0  0
  191.4870  175.5600  144.2530 C   0  0  2  0  0  3  0  0  0  0  0  0
  192.3160  174.5320  147.2890 O   0  0  0  0  0  1  0  0  0  0  0  0
  192.4610  176.6840  144.6360 C   0  0  0  0  0  2  0  0  0  0  0  0
  189.0330  175.0370  144.2810 C   0  0  0  0  0  0  0  0  0  0  0  0
  187.9720  177.1270  144.8070 C   0  0  1  0  0  3  0  0  0  0  0  0
  190.1680  175.6250  145.0440 C   0  0  2  0  0  3  0  0  0  0  0  0
  187.9000  175.8600  144.1060 N   0  0  0  0  0  2  0  0  0  0  0  0
  189.0580  173.8640  143.8220 O   0  0  0  0  0  0  0  0  0  0  0  0
  189.7000  177.3650  145.3680 S   0  0  0  0  0  0  0  0  0  0  0  0
  187.3990  177.8070  142.5820 O   0  0  0  0  0  1  0  0  0  0  0  0
  187.5420  178.2700  143.8920 C   0  0  1  0  0  3  0  0  0  0  0  0
  186.2200  178.8570  144.3650 C   0  0  0  0  0  2  0  0  0  0  0  0
  184.3560  178.0170  142.9340 C   0  0  0  0  0  1  0  0  0  0  0  0
  185.3060  179.1720  143.1920 C   0  0  0  0  0  2  0  0  0  0  0  0
  194.1990  177.3320  146.3380 C   0  0  0  0  0  3  0  0  0  0  0  0
  195.2900  176.5420  146.6470 F   0  0  0  0  0  0  0  0  0  0  0  0
  194.4910  178.1290  145.2450 F   0  0  0  0  0  0  0  0  0  0  0  0
  195.0200  171.7920  145.5400 O   0  0  0  0  0  1  0  0  0  0  0  0
  195.8230  173.1840  144.9790 S   0  0  0  0  0  3  0  0  0  0  0  0
  196.6030  172.6790  143.7710 O   0  0  0  0  0  1  0  0  0  0  0  0
  192.8430  173.5120  137.9110 C   0  0  1  0  0  3  0  0  0  0  0  0
  191.6220  174.2390  138.2450 N   0  0  0  0  0  2  0  0  0  0  0  0
  190.5680  172.2340  136.8460 O   0  0  0  0  0  0  0  0  0  0  0  0
  189.0430  173.7370  138.0300 O   0  0  0  0  0  0  0  0  0  0  0  0
  190.3250  173.6610  137.2480 S   0  0  0  0  0  0  0  0  0  0  0  0
  190.7340  174.0360  134.5560 C   0  0  0  0  0  2  0  0  0  0  0  0
  191.6950  175.1950  134.6140 C   0  0  0  0  0  2  0  0  0  0  0  0
  188.7480  175.1840  135.5790 C   0  0  0  0  0  1  0  0  0  0  0  0
  190.1660  174.6790  135.7880 C   0  0  1  0  0  0  0  0  0  0  0  0
  191.1000  175.7220  135.7740 O   0  0  0  0  0  0  0  0  0  0  0  0
  193.8390  174.4380  137.2250 C   0  0  0  0  0  2  0  0  0  0  0  0
  195.0120  173.7460  136.9110 O   0  0  0  0  0  0  0  0  0  0  0  0
  194.6970  173.0230  135.7550 C   0  0  2  0  0  3  0  0  0  0  0  0
  194.2890  170.5460  135.5690 C   0  0  0  0  0  0  0  0  0  0  0  0
  193.0590  170.7670  135.2370 N   0  0  0  0  0  2  0  0  0  0  0  0
  195.1760  171.6430  135.8520 N   0  0  0  0  0  0  0  0  0  0  0  0
  194.7300  169.2020  135.7390 N   0  0  0  0  0  1  0  0  0  0  0  0
  196.5850  171.3860  136.1410 C   0  0  0  0  0  2  0  0  0  0  0  0
  197.9210  172.4190  134.7210 C   0  0  0  0  0  1  0  0  0  0  0  0
  197.2840  171.1980  134.9480 O   0  0  0  0  0  0  0  0  0  0  0  0
  195.8540  174.9260  134.8520 O   0  0  0  0  0  1  0  0  0  0  0  0
  195.2550  173.7120  134.5170 C   0  0  0  0  0  2  0  0  0  0  0  0
  1 15  1  1  0  0  0
  2  9  1  0  0  0  0
  3 10  1  0  0  0  0
  3  6  1  1  0  0  0
  4 13  1  6  0  0  0
  4 10  1  0  0  0  0
  5  8  1  1  0  0  0
  5  3  1  0  0  0  0
  8  2  1  0  0  0  0
  9  6  1  0  0  0  0
 10  7  1  1  0  0  0
 11  1  1  1  0  0  0
 11  5  1  0  0  0  0
 11  4  1  0  0  0  0
 12 13  1  0  0  0  0
 14 13  2  0  0  0  0
 15 16  1  0  0  0  0
 16 17  1  1  0  0  0
 16 18  1  0  0  0  0
 18 19  1  0  0  0  0
 20 19  1  6  0  0  0
 20 43  1  0  0  0  0
 21 20  1  6  0  0  0
 21 22  1  0  0  0  0
 22 26  1  1  0  0  0
 23 39  1  6  0  0  0
 23 22  1  0  0  0  0
 24 21  1  0  0  0  0
 25 24  1  0  0  0  0
 25 27  1  1  0  0  0
 25 30  1  0  0  0  0
 27 23  1  0  0  0  0
 29 35  1  6  0  0  0
 29 33  1  0  0  0  0
 30 28  1  6  0  0  0
 30 33  1  0  0  0  0
 31 28  1  0  0  0  0
 31 29  1  0  0  0  0
 32 28  2  0  0  0  0
 35 34  1  6  0  0  0
 35 36  1  0  0  0  0
 37 38  1  0  0  0  0
 38 36  1  0  0  0  0
 39 40  1  0  0  0  0
 41 39  1  0  0  0  0
 43 42  1  0  0  0  0
 44 43  1  0  0  0  0
 45 55  1  1  0  0  0
 45 46  1  0  0  0  0
 45  1  1  0  0  0  0
 47 49  2  0  0  0  0
 49 48  2  0  0  0  0
 49 46  1  0  0  0  0
 50 51  1  0  0  0  0
 50 53  1  0  0  0  0
 51 54  1  0  0  0  0
 53 52  1  6  0  0  0
 53 49  1  0  0  0  0
 54 53  1  0  0  0  0
 56 55  1  0  0  0  0
 57 66  1  6  0  0  0
 57 60  1  0  0  0  0
 57 56  1  0  0  0  0
 58 61  1  0  0  0  0
 58 60  1  0  0  0  0
 59 58  2  0  0  0  0
 60 62  1  0  0  0  0
 63 64  1  0  0  0  0
 64 62  1  0  0  0  0
 66 65  1  0  0  0  0
M  END
>  <MODEL>
7

>  <REMARK>
 VINA RESULT:      -4.1      2.909      9.615
  Name = 
  25 active torsions:
  status: ('A' for Active; 'I' for Inactive)
    1  A    between atoms: C_2  and  C_35
    2  A    between atoms: C_3  and  O_19
    3  A    between atoms: C_3  and  N_38
    4  A    between atoms: C_4  and  C_21
    5  A    between atoms: C_9  and  C_61
    6  A    between atoms: C_13  and  C_51
    7  A    between atoms: C_13  and  C_60
    8  A    between atoms: C_13  and  O_63
    9  A    between atoms: C_15  and  C_46
   10  A    between atoms: C_15  and  O_63
   11  A    between atoms: C_17  and  C_25
   12  A    between atoms: C_23  and  C_51
   13  A    between atoms: C_23  and  O_55
   14  A    between atoms: C_26  and  C_41
   15  A    between atoms: S_27  and  C_35
   16  A    between atoms: C_29  and  C_32
   17  A    between atoms: C_32  and  C_61
   18  A    between atoms: C_35  and  C_47
   19  A    between atoms: N_38  and  C_56
   20  A    between atoms: C_46  and  C_47
   21  A    between atoms: C_49  and  S_57
   22  A    between atoms: C_51  and  N_53
   23  A    between atoms: N_53  and  S_57
   24  A    between atoms: O_55  and  C_56
   25  A    between atoms: C_56  and  C_58
                            x       y       z     vdW  Elec       q    Type
                         _______ _______ _______ _____ _____    ______ ____

>  <TORSDO>
F 25

$$$$
=
 OpenBabel11062418213D

 66 70  0  0  1  0  0  0  0  0999 V2000
  194.1870  172.2750  138.8190 C   0  0  2  0  0  3  0  0  0  0  0  0
  193.1230  169.3200  135.6970 C   0  0  0  0  0  2  0  0  0  0  0  0
  193.1860  172.2290  135.7930 C   0  0  2  0  0  3  0  0  0  0  0  0
  194.8220  173.6960  136.7790 C   0  0  1  0  0  3  0  0  0  0  0  0
  194.2520  171.3930  136.4430 C   0  0  2  0  0  3  0  0  0  0  0  0
  192.7250  171.5360  134.5210 C   0  0  0  0  0  2  0  0  0  0  0  0
  192.9440  174.5900  135.5800 O   0  0  0  0  0  1  0  0  0  0  0  0
  193.6650  170.0700  136.9210 C   0  0  0  0  0  2  0  0  0  0  0  0
  192.1230  170.1780  134.9010 C   0  0  0  0  0  2  0  0  0  0  0  0
  193.8800  173.5540  135.5760 C   0  0  2  0  0  3  0  0  0  0  0  0
  194.9040  172.3200  137.4580 C   0  0  2  0  0  3  0  0  0  0  0  0
  197.0850  173.3040  136.0720 O   0  0  0  0  0  0  0  0  0  0  0  0
  196.1910  174.1430  136.3720 C   0  0  0  0  0  0  0  0  0  0  0  0
  196.5050  175.4970  136.4000 O   0  0  0  0  0  1  0  0  0  0  0  0
  193.3690  173.3970  139.0420 O   0  0  0  0  0  0  0  0  0  0  0  0
  192.0760  172.8830  139.1930 C   0  0  2  0  0  3  0  0  0  0  0  0
  191.0940  173.7510  138.4320 C   0  0  0  0  0  1  0  0  0  0  0  0
  191.7100  172.8650  140.6660 C   0  0  0  0  0  2  0  0  0  0  0  0
  191.8610  174.2520  141.2640 C   0  0  0  0  0  2  0  0  0  0  0  0
  191.0940  174.3420  142.5750 C   0  0  1  0  0  3  0  0  0  0  0  0
  189.5820  174.1810  142.3500 C   0  0  1  0  0  3  0  0  0  0  0  0
  188.7770  174.2340  143.6640 C   0  0  1  0  0  3  0  0  0  0  0  0
  188.5810  175.6610  144.1850 C   0  0  2  0  0  3  0  0  0  0  0  0
  189.0940  175.0300  141.3140 O   0  0  0  0  0  0  0  0  0  0  0  0
  188.5370  176.2680  141.7510 C   0  0  2  0  0  3  0  0  0  0  0  0
  187.5350  173.6290  143.4790 O   0  0  0  0  0  1  0  0  0  0  0  0
  188.9820  176.7100  143.1530 C   0  0  0  0  0  2  0  0  0  0  0  0
  186.5380  177.4240  140.7690 C   0  0  0  0  0  0  0  0  0  0  0  0
  185.0640  177.7780  142.6320 C   0  0  1  0  0  3  0  0  0  0  0  0
  187.0070  176.2720  141.5860 C   0  0  2  0  0  3  0  0  0  0  0  0
  185.5560  178.2520  141.3540 N   0  0  0  0  0  2  0  0  0  0  0  0
  186.9720  177.6550  139.6090 O   0  0  0  0  0  0  0  0  0  0  0  0
  186.1880  176.4510  143.2140 S   0  0  0  0  0  0  0  0  0  0  0  0
  183.8010  178.8890  144.3380 O   0  0  0  0  0  1  0  0  0  0  0  0
  185.0120  178.9190  143.6420 C   0  0  1  0  0  3  0  0  0  0  0  0
  186.1630  178.8020  144.6320 C   0  0  0  0  0  2  0  0  0  0  0  0
  185.7770  179.0430  147.0860 C   0  0  0  0  0  1  0  0  0  0  0  0
  185.7260  178.0930  145.9030 C   0  0  0  0  0  2  0  0  0  0  0  0
  189.3200  175.8690  145.5020 C   0  0  0  0  0  3  0  0  0  0  0  0
  189.7730  177.1690  145.6120 F   0  0  0  0  0  0  0  0  0  0  0  0
  188.4960  175.5660  146.5700 F   0  0  0  0  0  0  0  0  0  0  0  0
  193.1620  173.7280  144.3360 O   0  0  0  0  0  1  0  0  0  0  0  0
  191.7240  173.0700  143.7070 S   0  0  0  0  0  3  0  0  0  0  0  0
  190.7700  173.1060  144.8950 O   0  0  0  0  0  1  0  0  0  0  0  0
  195.2100  172.1120  139.9460 C   0  0  1  0  0  3  0  0  0  0  0  0
  195.1370  173.2380  140.8730 N   0  0  0  0  0  2  0  0  0  0  0  0
  197.7050  173.0270  141.5470 O   0  0  0  0  0  0  0  0  0  0  0  0
  197.1330  174.3980  139.6010 O   0  0  0  0  0  0  0  0  0  0  0  0
  196.6980  173.9890  140.9810 S   0  0  0  0  0  0  0  0  0  0  0  0
  197.6150  175.4380  143.1280 C   0  0  0  0  0  2  0  0  0  0  0  0
  196.3830  175.4020  143.9930 C   0  0  0  0  0  2  0  0  0  0  0  0
  196.6510  176.7340  141.2060 C   0  0  0  0  0  1  0  0  0  0  0  0
  196.6130  175.4460  142.0110 C   0  0  1  0  0  0  0  0  0  0  0  0
  195.5190  175.4060  142.8840 O   0  0  0  0  0  0  0  0  0  0  0  0
  194.9420  170.8050  140.6790 C   0  0  0  0  0  2  0  0  0  0  0  0
  194.6350  171.0510  142.0190 O   0  0  0  0  0  0  0  0  0  0  0  0
  194.6400  169.7870  142.6210 C   0  0  2  0  0  3  0  0  0  0  0  0
  194.4880  169.0760  145.0310 C   0  0  0  0  0  0  0  0  0  0  0  0
  193.4940  168.2990  144.7460 N   0  0  0  0  0  2  0  0  0  0  0  0
  195.1130  169.8660  144.0040 N   0  0  0  0  0  0  0  0  0  0  0  0
  194.8940  169.2100  146.3900 N   0  0  0  0  0  1  0  0  0  0  0  0
  196.2880  170.6740  144.3200 C   0  0  0  0  0  2  0  0  0  0  0  0
  196.8060  172.2320  145.7950 C   0  0  0  0  0  1  0  0  0  0  0  0
  195.8870  171.9260  144.7900 O   0  0  0  0  0  0  0  0  0  0  0  0
  196.8190  168.8860  142.1610 O   0  0  0  0  0  1  0  0  0  0  0  0
  195.4720  168.8040  141.8100 C   0  0  0  0  0  2  0  0  0  0  0  0
  1 15  1  1  0  0  0
  1 45  1  0  0  0  0
  2  8  1  0  0  0  0
  3  6  1  6  0  0  0
  3  5  1  0  0  0  0
  4 13  1  6  0  0  0
  4 11  1  0  0  0  0
  5  8  1  1  0  0  0
  5 11  1  0  0  0  0
  6  9  1  0  0  0  0
  9  2  1  0  0  0  0
 10  7  1  1  0  0  0
 10  3  1  0  0  0  0
 10  4  1  0  0  0  0
 11  1  1  1  0  0  0
 12 13  2  0  0  0  0
 13 14  1  0  0  0  0
 15 16  1  0  0  0  0
 16 17  1  6  0  0  0
 16 18  1  0  0  0  0
 18 19  1  0  0  0  0
 20 19  1  6  0  0  0
 20 43  1  0  0  0  0
 21 20  1  1  0  0  0
 21 22  1  0  0  0  0
 22 26  1  6  0  0  0
 22 23  1  0  0  0  0
 23 39  1  1  0  0  0
 24 25  1  0  0  0  0
 24 21  1  0  0  0  0
 25 27  1  1  0  0  0
 27 23  1  0  0  0  0
 28 31  1  0  0  0  0
 29 33  1  0  0  0  0
 29 35  1  1  0  0  0
 30 28  1  6  0  0  0
 30 25  1  0  0  0  0
 30 33  1  0  0  0  0
 31 29  1  0  0  0  0
 32 28  2  0  0  0  0
 35 34  1  1  0  0  0
 35 36  1  0  0  0  0
 36 38  1  0  0  0  0
 38 37  1  0  0  0  0
 39 40  1  0  0  0  0
 39 41  1  0  0  0  0
 43 42  1  0  0  0  0
 43 44  1  0  0  0  0
 45 55  1  1  0  0  0
 45 46  1  0  0  0  0
 46 49  1  0  0  0  0
 48 49  2  0  0  0  0
 49 47  2  0  0  0  0
 49 53  1  0  0  0  0
 50 51  1  0  0  0  0
 53 52  1  6  0  0  0
 53 54  1  0  0  0  0
 53 50  1  0  0  0  0
 54 51  1  0  0  0  0
 55 56  1  0  0  0  0
 56 57  1  0  0  0  0
 57 66  1  6  0  0  0
 57 60  1  0  0  0  0
 58 61  1  0  0  0  0
 59 58  2  0  0  0  0
 60 62  1  0  0  0  0
 60 58  1  0  0  0  0
 62 64  1  0  0  0  0
 64 63  1  0  0  0  0
 66 65  1  0  0  0  0
M  END
>  <MODEL>
8

>  <REMARK>
 VINA RESULT:      -4.1      3.593      9.817
  Name = 
  25 active torsions:
  status: ('A' for Active; 'I' for Inactive)
    1  A    between atoms: C_2  and  C_35
    2  A    between atoms: C_3  and  O_19
    3  A    between atoms: C_3  and  N_38
    4  A    between atoms: C_4  and  C_21
    5  A    between atoms: C_9  and  C_61
    6  A    between atoms: C_13  and  C_51
    7  A    between atoms: C_13  and  C_60
    8  A    between atoms: C_13  and  O_63
    9  A    between atoms: C_15  and  C_46
   10  A    between atoms: C_15  and  O_63
   11  A    between atoms: C_17  and  C_25
   12  A    between atoms: C_23  and  C_51
   13  A    between atoms: C_23  and  O_55
   14  A    between atoms: C_26  and  C_41
   15  A    between atoms: S_27  and  C_35
   16  A    between atoms: C_29  and  C_32
   17  A    between atoms: C_32  and  C_61
   18  A    between atoms: C_35  and  C_47
   19  A    between atoms: N_38  and  C_56
   20  A    between atoms: C_46  and  C_47
   21  A    between atoms: C_49  and  S_57
   22  A    between atoms: C_51  and  N_53
   23  A    between atoms: N_53  and  S_57
   24  A    between atoms: O_55  and  C_56
   25  A    between atoms: C_56  and  C_58
                            x       y       z     vdW  Elec       q    Type
                         _______ _______ _______ _____ _____    ______ ____

>  <TORSDO>
F 25

$$$$
=
 OpenBabel11062418213D

 66 70  0  0  1  0  0  0  0  0999 V2000
  190.1450  174.6980  143.6840 C   0  0  2  0  0  3  0  0  0  0  0  0
  190.1880  176.3080  147.8090 C   0  0  0  0  0  2  0  0  0  0  0  0
  192.2600  175.5370  145.9160 C   0  0  2  0  0  3  0  0  0  0  0  0
  192.3920  175.9280  143.5430 C   0  0  1  0  0  3  0  0  0  0  0  0
  191.0190  176.2620  145.4780 C   0  0  2  0  0  3  0  0  0  0  0  0
  192.6600  176.0360  147.2950 C   0  0  0  0  0  2  0  0  0  0  0  0
  194.1870  174.8340  144.7030 O   0  0  0  0  0  1  0  0  0  0  0  0
  189.8450  175.8850  146.3740 C   0  0  0  0  0  2  0  0  0  0  0  0
  191.5270  175.7080  148.2750 C   0  0  0  0  0  2  0  0  0  0  0  0
  193.2460  175.8590  144.8160 C   0  0  2  0  0  3  0  0  0  0  0  0
  190.9220  175.9920  143.9840 C   0  0  2  0  0  3  0  0  0  0  0  0
  193.7160  177.1160  141.9280 O   0  0  0  0  0  0  0  0  0  0  0  0
  192.7240  177.1250  142.7070 C   0  0  0  0  0  0  0  0  0  0  0  0
  191.9740  178.2860  142.8480 O   0  0  0  0  0  1  0  0  0  0  0  0
  190.9020  173.7630  142.9560 O   0  0  0  0  0  0  0  0  0  0  0  0
  190.9210  172.6110  143.7490 C   0  0  2  0  0  3  0  0  0  0  0  0
  189.9950  172.7970  144.9340 C   0  0  0  0  0  1  0  0  0  0  0  0
  192.3360  172.3580  144.2380 C   0  0  0  0  0  2  0  0  0  0  0  0
  193.1190  171.5700  143.2040 C   0  0  0  0  0  2  0  0  0  0  0  0
  194.4650  171.1510  143.7760 C   0  0  1  0  0  3  0  0  0  0  0  0
  195.5660  172.1610  143.4110 C   0  0  1  0  0  3  0  0  0  0  0  0
  196.9710  171.5280  143.4000 C   0  0  1  0  0  3  0  0  0  0  0  0
  197.2500  170.7160  142.1320 C   0  0  2  0  0  3  0  0  0  0  0  0
  195.2410  172.9210  142.2500 O   0  0  0  0  0  0  0  0  0  0  0  0
  195.7840  172.4270  141.0270 C   0  0  2  0  0  3  0  0  0  0  0  0
  197.9370  172.5240  143.5390 O   0  0  0  0  0  1  0  0  0  0  0  0
  196.1900  170.9470  141.0590 C   0  0  0  0  0  2  0  0  0  0  0  0
  196.5150  174.7740  140.5210 C   0  0  0  0  0  0  0  0  0  0  0  0
  197.2760  174.6980  138.2450 C   0  0  1  0  0  3  0  0  0  0  0  0
  196.9130  173.3410  140.5160 C   0  0  2  0  0  3  0  0  0  0  0  0
  196.6500  175.4690  139.3000 N   0  0  0  0  0  2  0  0  0  0  0  0
  196.0920  175.3580  141.5550 O   0  0  0  0  0  0  0  0  0  0  0  0
  197.3210  172.9440  138.7760 S   0  0  0  0  0  0  0  0  0  0  0  0
  195.2100  175.3200  137.2030 O   0  0  0  0  0  1  0  0  0  0  0  0
  196.4970  174.8440  136.9420 C   0  0  1  0  0  3  0  0  0  0  0  0
  197.2090  175.8100  136.0040 C   0  0  0  0  0  2  0  0  0  0  0  0
  197.3340  173.6980  134.6800 C   0  0  0  0  0  1  0  0  0  0  0  0
  197.3650  175.2140  134.6150 C   0  0  0  0  0  2  0  0  0  0  0  0
  197.4000  169.2340  142.4520 C   0  0  0  0  0  3  0  0  0  0  0  0
  196.5840  168.8730  143.5070 F   0  0  0  0  0  0  0  0  0  0  0  0
  197.1000  168.4670  141.3410 F   0  0  0  0  0  0  0  0  0  0  0  0
  195.0370  169.4880  145.9350 O   0  0  0  0  0  1  0  0  0  0  0  0
  194.3050  170.9820  145.5760 S   0  0  0  0  0  3  0  0  0  0  0  0
  195.2850  172.0010  146.1460 O   0  0  0  0  0  1  0  0  0  0  0  0
  188.8380  175.0270  142.9580 C   0  0  1  0  0  3  0  0  0  0  0  0
  188.3520  176.3480  143.3480 N   0  0  0  0  0  2  0  0  0  0  0  0
  186.4370  177.0560  141.6380 O   0  0  0  0  0  0  0  0  0  0  0  0
  186.0680  175.0720  143.0230 O   0  0  0  0  0  0  0  0  0  0  0  0
  186.6550  176.4560  142.9990 S   0  0  0  0  0  0  0  0  0  0  0  0
  186.7660  178.3620  144.9760 C   0  0  0  0  0  2  0  0  0  0  0  0
  186.3710  177.5140  146.1550 C   0  0  0  0  0  2  0  0  0  0  0  0
  184.6200  178.1810  143.6850 C   0  0  0  0  0  1  0  0  0  0  0  0
  185.8320  177.4490  144.2350 C   0  0  1  0  0  0  0  0  0  0  0  0
  185.5200  176.7060  145.3800 O   0  0  0  0  0  0  0  0  0  0  0  0
  189.0760  174.9740  141.4540 C   0  0  0  0  0  2  0  0  0  0  0  0
  190.2430  174.2610  141.1700 O   0  0  0  0  0  0  0  0  0  0  0  0
  189.8540  173.3080  140.2220 C   0  0  2  0  0  3  0  0  0  0  0  0
  190.0280  173.7430  137.7480 C   0  0  0  0  0  0  0  0  0  0  0  0
  188.7490  173.9200  137.6830 N   0  0  0  0  0  1  0  0  0  0  0  0
  190.6570  173.4230  139.0020 N   0  0  0  0  0  0  0  0  0  0  0  0
  190.7940  173.7770  136.5470 N   0  0  0  0  0  2  0  0  0  0  0  0
  192.1100  173.3090  139.0810 C   0  0  0  0  0  2  0  0  0  0  0  0
  192.9360  171.2880  138.7600 C   0  0  0  0  0  1  0  0  0  0  0  0
  192.4550  172.1380  139.7580 O   0  0  0  0  0  0  0  0  0  0  0  0
  187.6290  172.5350  140.6940 O   0  0  0  0  0  1  0  0  0  0  0  0
  188.3680  173.4250  139.9150 C   0  0  0  0  0  2  0  0  0  0  0  0
  1 15  1  6  0  0  0
  2  9  1  0  0  0  0
  3  6  1  1  0  0  0
  4 13  1  1  0  0  0
  4 11  1  0  0  0  0
  4 10  1  0  0  0  0
  5  3  1  0  0  0  0
  5  8  1  1  0  0  0
  6  9  1  0  0  0  0
  8  2  1  0  0  0  0
 10  7  1  6  0  0  0
 10  3  1  0  0  0  0
 11  1  1  1  0  0  0
 11  5  1  0  0  0  0
 12 13  2  0  0  0  0
 13 14  1  0  0  0  0
 15 16  1  0  0  0  0
 16 18  1  0  0  0  0
 16 17  1  1  0  0  0
 19 18  1  0  0  0  0
 20 19  1  1  0  0  0
 20 43  1  0  0  0  0
 21 20  1  6  0  0  0
 22 21  1  0  0  0  0
 22 26  1  6  0  0  0
 23 39  1  1  0  0  0
 23 22  1  0  0  0  0
 24 21  1  0  0  0  0
 25 27  1  1  0  0  0
 25 24  1  0  0  0  0
 27 23  1  0  0  0  0
 28 32  2  0  0  0  0
 29 35  1  6  0  0  0
 29 33  1  0  0  0  0
 29 31  1  0  0  0  0
 30 33  1  6  0  0  0
 30 28  1  0  0  0  0
 30 25  1  0  0  0  0
 31 28  1  0  0  0  0
 35 34  1  1  0  0  0
 36 35  1  0  0  0  0
 38 37  1  0  0  0  0
 38 36  1  0  0  0  0
 39 40  1  0  0  0  0
 41 39  1  0  0  0  0
 43 42  1  0  0  0  0
 43 44  1  0  0  0  0
 45 55  1  6  0  0  0
 45 46  1  0  0  0  0
 45  1  1  0  0  0  0
 47 49  2  0  0  0  0
 49 48  2  0  0  0  0
 49 46  1  0  0  0  0
 49 53  1  0  0  0  0
 50 51  1  0  0  0  0
 53 52  1  6  0  0  0
 53 50  1  0  0  0  0
 53 54  1  0  0  0  0
 54 51  1  0  0  0  0
 56 55  1  0  0  0  0
 57 66  1  6  0  0  0
 57 56  1  0  0  0  0
 58 60  1  0  0  0  0
 59 58  1  0  0  0  0
 60 62  1  0  0  0  0
 60 57  1  0  0  0  0
 61 58  2  0  0  0  0
 62 64  1  0  0  0  0
 63 64  1  0  0  0  0
 66 65  1  0  0  0  0
M  END
>  <MODEL>
9

>  <REMARK>
 VINA RESULT:      -3.6      2.738      6.115
  Name = 
  25 active torsions:
  status: ('A' for Active; 'I' for Inactive)
    1  A    between atoms: C_2  and  C_35
    2  A    between atoms: C_3  and  O_19
    3  A    between atoms: C_3  and  N_38
    4  A    between atoms: C_4  and  C_21
    5  A    between atoms: C_9  and  C_61
    6  A    between atoms: C_13  and  C_51
    7  A    between atoms: C_13  and  C_60
    8  A    between atoms: C_13  and  O_63
    9  A    between atoms: C_15  and  C_46
   10  A    between atoms: C_15  and  O_63
   11  A    between atoms: C_17  and  C_25
   12  A    between atoms: C_23  and  C_51
   13  A    between atoms: C_23  and  O_55
   14  A    between atoms: C_26  and  C_41
   15  A    between atoms: S_27  and  C_35
   16  A    between atoms: C_29  and  C_32
   17  A    between atoms: C_32  and  C_61
   18  A    between atoms: C_35  and  C_47
   19  A    between atoms: N_38  and  C_56
   20  A    between atoms: C_46  and  C_47
   21  A    between atoms: C_49  and  S_57
   22  A    between atoms: C_51  and  N_53
   23  A    between atoms: N_53  and  S_57
   24  A    between atoms: O_55  and  C_56
   25  A    between atoms: C_56  and  C_58
                            x       y       z     vdW  Elec       q    Type
                         _______ _______ _______ _____ _____    ______ ____

>  <TORSDO>
F 25

$$$$
