=
 OpenBabel11072409183D

 64 70  0  0  1  0  0  0  0  0999 V2000
  195.6070  173.2980  143.8990 C   0  0  0  0  0  0  0  0  0  0  0  0
  194.3480  173.1110  144.3270 C   0  0  0  0  0  3  0  0  0  0  0  0
  196.0720  172.4660  142.7370 C   0  0  1  0  0  3  0  0  0  0  0  0
  196.1620  171.1180  143.0950 O   0  0  0  0  0  1  0  0  0  0  0  0
  195.2460  172.6470  141.4590 C   0  0  0  0  0  2  0  0  0  0  0  0
  196.9900  171.9570  139.7860 C   0  0  0  0  0  2  0  0  0  0  0  0
  196.4150  172.2430  138.5320 O   0  0  0  0  0  0  0  0  0  0  0  0
  195.1440  171.9990  138.9720 N   0  0  1  0  0  0  0  0  0  0  0  0
  195.6220  171.6920  140.3220 C   0  0  2  0  0  3  0  0  0  0  0  0
  194.2190  173.0910  138.5420 C   0  0  2  0  0  3  0  0  0  0  0  0
  192.7290  172.7740  138.2950 C   0  0  1  0  0  3  0  0  0  0  0  0
  193.6790  173.0110  137.1240 C   0  0  1  0  0  3  0  0  0  0  0  0
  193.5060  174.3850  136.5440 C   0  0  0  0  0  0  0  0  0  0  0  0
  193.8520  174.6720  135.1820 N   0  0  0  0  0  2  0  0  0  0  0  0
  193.0410  175.2950  137.2800 O   0  0  0  0  0  0  0  0  0  0  0  0
  193.7770  176.0100  134.6110 C   0  0  0  0  0  2  0  0  0  0  0  0
  195.1590  177.8960  134.9560 O   0  0  0  0  0  0  0  0  0  0  0  0
  195.1000  176.7030  134.7060 C   0  0  0  0  0  0  0  0  0  0  0  0
  196.3570  175.9080  134.5860 C   0  0  0  0  0  1  0  0  0  0  0  0
  192.2850  171.3200  138.3250 C   0  0  2  0  0  3  0  0  0  0  0  0
  191.4890  171.0550  137.2100 O   0  0  0  0  0  1  0  0  0  0  0  0
  191.4780  171.0690  139.5860 C   0  0  0  0  0  2  0  0  0  0  0  0
  192.3310  170.7100  140.6330 O   0  0  0  0  0  1  0  0  0  0  0  0
  196.5400  174.3280  144.5040 C   0  0  1  0  0  3  0  0  0  0  0  0
  197.5180  173.7960  145.5630 C   0  0  0  0  0  3  0  0  0  0  0  0
  197.0710  172.5980  146.0790 O   0  0  0  0  0  0  0  0  0  0  0  0
  196.9310  173.7130  146.8090 O   0  0  0  0  0  0  0  0  0  0  0  0
  197.1850  175.1150  143.5060 O   0  0  0  0  0  0  0  0  0  0  0  0
  196.3660  177.2400  143.7370 O   0  0  0  0  0  0  0  0  0  0  0  0
  196.6130  176.2710  142.9760 C   0  0  0  0  0  0  0  0  0  0  0  0
  196.2640  176.3800  141.5270 C   0  0  0  0  0  2  0  0  0  0  0  0
  194.9110  176.6820  141.3940 O   0  0  0  0  0  1  0  0  0  0  0  0
  193.7080  173.9460  145.3940 C   0  0  0  0  0  2  0  0  0  0  0  0
  193.2300  176.5160  146.9230 C   0  0  0  0  0  2  0  0  0  0  0  0
  193.4970  176.4780  145.4200 C   0  0  0  0  0  2  0  0  0  0  0  0
  191.8450  176.3170  147.2000 O   0  0  0  0  0  0  0  0  0  0  0  0
  189.8950  175.1550  146.8650 O   0  0  0  0  0  0  0  0  0  0  0  0
  192.9750  175.1640  144.8300 C   0  0  2  0  0  3  0  0  0  0  0  0
  191.0380  175.4680  146.4360 C   0  0  0  0  0  0  0  0  0  0  0  0
  191.4570  175.0430  145.0530 C   0  0  2  0  0  3  0  0  0  0  0  0
  191.0010  173.7240  144.7770 O   0  0  0  0  0  0  0  0  0  0  0  0
  190.2050  173.4400  143.6700 C   0  0  0  0  0  0  0  0  0  0  0  0
  190.4710  172.4280  142.9660 O   0  0  0  0  0  0  0  0  0  0  0  0
  189.1070  174.2580  143.3750 O   0  0  0  0  0  0  0  0  0  0  0  0
  187.4940  173.1070  142.1620 O   0  0  0  0  0  0  0  0  0  0  0  0
  188.2620  174.1040  142.2650 C   0  0  0  0  0  0  0  0  0  0  0  0
  188.2470  175.1470  141.1830 C   0  0  2  0  0  3  0  0  0  0  0  0
  187.1250  176.1550  141.2870 C   0  0  0  0  0  0  0  0  0  0  0  0
  186.9890  177.1170  140.2290 S   0  0  0  0  0  0  0  0  0  0  0  0
  187.0310  177.4130  143.4960 C   0  0  1  0  0  0  0  0  0  0  0  0
  184.3210  179.1920  145.3220 O   0  0  0  0  0  0  0  0  0  0  0  0
  184.9870  178.1320  145.9750 C   0  0  1  0  0  3  0  0  0  0  0  0
  184.6380  177.8240  143.4330 O   0  0  0  0  0  0  0  0  0  0  0  0
  186.9480  177.0410  144.9750 C   0  0  0  0  0  2  0  0  0  0  0  0
  188.2370  177.9550  143.0420 O   0  0  0  0  0  1  0  0  0  0  0  0
  186.3640  176.3930  142.5740 C   0  0  1  0  0  3  0  0  0  0  0  0
  186.4880  178.2120  145.8280 C   0  0  2  0  0  3  0  0  0  0  0  0
  185.8140  177.8190  142.6740 C   0  0  2  0  0  3  0  0  0  0  0  0
  184.7300  178.1850  147.3890 N   0  0  0  0  0  2  0  0  0  0  0  0
  184.5360  179.1370  143.9230 C   0  0  0  0  0  2  0  0  0  0  0  0
  186.0030  177.8220  147.9880 C   0  0  0  0  0  2  0  0  0  0  0  0
  187.0550  178.1240  147.1050 O   0  0  0  0  0  0  0  0  0  0  0  0
  189.6000  173.8550  139.6590 O   0  0  0  0  0  1  0  0  0  0  0  0
  188.4130  174.5800  139.7730 C   0  0  0  0  0  2  0  0  0  0  0  0
  1  2  2  0  0  0  0
  1 24  1  0  0  0  0
  2 33  1  0  0  0  0
  3  4  1  1  0  0  0
  3  1  1  0  0  0  0
  5  3  1  0  0  0  0
  6  9  1  0  0  0  0
  7  6  1  0  0  0  0
  8  7  1  6  0  0  0
  8  9  1  0  0  0  0
  9  5  1  1  0  0  0
 10  8  1  6  0  0  0
 11 20  1  6  0  0  0
 11 10  1  0  0  0  0
 12 13  1  1  0  0  0
 12 11  1  0  0  0  0
 12 10  1  0  0  0  0
 13 15  2  0  0  0  0
 14 13  1  0  0  0  0
 16 18  1  0  0  0  0
 16 14  1  0  0  0  0
 18 17  2  0  0  0  0
 19 18  1  0  0  0  0
 20 21  1  6  0  0  0
 20 22  1  0  0  0  0
 22 23  1  0  0  0  0
 24 28  1  6  0  0  0
 24 25  1  0  0  0  0
 25 26  1  0  0  0  0
 25 27  1  0  0  0  0
 26 27  1  0  0  0  0
 30 28  1  0  0  0  0
 30 29  2  0  0  0  0
 31 30  1  0  0  0  0
 32 31  1  0  0  0  0
 34 36  1  0  0  0  0
 35 34  1  0  0  0  0
 38 40  1  0  0  0  0
 38 33  1  1  0  0  0
 38 35  1  0  0  0  0
 39 37  2  0  0  0  0
 39 36  1  0  0  0  0
 40 41  1  1  0  0  0
 40 39  1  0  0  0  0
 42 41  1  0  0  0  0
 43 42  2  0  0  0  0
 44 42  1  0  0  0  0
 45 46  2  0  0  0  0
 46 44  1  0  0  0  0
 47 64  1  6  0  0  0
 47 48  1  0  0  0  0
 47 46  1  0  0  0  0
 49 48  2  0  0  0  0
 50 55  1  6  0  0  0
 50 54  1  0  0  0  0
 52 51  1  6  0  0  0
 52 59  1  0  0  0  0
 53 60  1  0  0  0  0
 56 48  1  6  0  0  0
 56 58  1  0  0  0  0
 56 50  1  0  0  0  0
 57 54  1  6  0  0  0
 57 52  1  0  0  0  0
 57 62  1  0  0  0  0
 58 53  1  1  0  0  0
 58 50  1  0  0  0  0
 59 61  1  0  0  0  0
 60 51  1  0  0  0  0
 62 61  1  0  0  0  0
 63 64  1  0  0  0  0
M  END
>  <MODEL>
1

>  <REMARK>
 VINA RESULT:      -6.3      0.000      0.000
  Name = 
  24 active torsions:
  status: ('A' for Active; 'I' for Inactive)
    1  A    between atoms: C_1  and  C_56
    2  A    between atoms: C_1  and  C_59
    3  A    between atoms: C_5  and  C_32
    4  A    between atoms: C_5  and  C_39
    5  A    between atoms: C_14  and  N_23
    6  A    between atoms: C_15  and  C_17
    7  A    between atoms: C_15  and  C_34
    8  A    between atoms: C_16  and  C_59
    9  A    between atoms: C_19  and  C_27
   10  A    between atoms: C_22  and  C_25
   11  A    between atoms: C_24  and  C_54
   12  A    between atoms: C_25  and  N_41
   13  A    between atoms: O_26  and  C_53
   14  A    between atoms: O_26  and  C_64
   15  A    between atoms: C_27  and  O_33
   16  A    between atoms: C_29  and  C_43
   17  A    between atoms: O_31  and  C_53
   18  A    between atoms: O_31  and  C_60
   19  A    between atoms: O_33  and  C_59
   20  A    between atoms: C_35  and  C_48
   21  A    between atoms: C_35  and  C_56
   22  A    between atoms: C_38  and  C_43
   23  A    between atoms: C_39  and  C_60
   24  A    between atoms: C_39  and  C_62
                            x       y       z     vdW  Elec       q    Type
                         _______ _______ _______ _____ _____    ______ ____

>  <TORSDO>
F 24

$$$$
=
 OpenBabel11072409183D

 64 70  0  0  1  0  0  0  0  0999 V2000
  191.9390  176.5590  144.4430 C   0  0  0  0  0  0  0  0  0  0  0  0
  192.3100  175.6900  143.4890 C   0  0  0  0  0  3  0  0  0  0  0  0
  190.9820  177.6490  144.0500 C   0  0  1  0  0  3  0  0  0  0  0  0
  191.6710  178.7680  143.5730 O   0  0  0  0  0  1  0  0  0  0  0  0
  189.8910  177.2100  143.0680 C   0  0  0  0  0  2  0  0  0  0  0  0
  188.9110  174.9540  142.5510 C   0  0  0  0  0  2  0  0  0  0  0  0
  187.5190  175.1680  142.5140 O   0  0  0  0  0  0  0  0  0  0  0  0
  187.5710  176.1660  143.4470 N   0  0  1  0  0  0  0  0  0  0  0  0
  189.0260  176.0460  143.5620 C   0  0  2  0  0  3  0  0  0  0  0  0
  186.7700  177.3470  143.0000 C   0  0  2  0  0  3  0  0  0  0  0  0
  185.9890  178.1760  144.0410 C   0  0  1  0  0  3  0  0  0  0  0  0
  185.2590  177.2240  143.0960 C   0  0  1  0  0  3  0  0  0  0  0  0
  184.5940  177.9660  141.9730 C   0  0  0  0  0  0  0  0  0  0  0  0
  183.1660  178.0740  141.8890 N   0  0  0  0  0  2  0  0  0  0  0  0
  185.3180  178.5040  141.0950 O   0  0  0  0  0  0  0  0  0  0  0  0
  182.4850  178.7120  140.7720 C   0  0  0  0  0  2  0  0  0  0  0  0
  180.3230  178.0280  140.1010 O   0  0  0  0  0  0  0  0  0  0  0  0
  180.9990  178.6160  140.9300 C   0  0  0  0  0  0  0  0  0  0  0  0
  180.3540  179.1630  142.1590 C   0  0  0  0  0  1  0  0  0  0  0  0
  185.9150  177.6580  145.4680 C   0  0  2  0  0  3  0  0  0  0  0  0
  184.5850  177.3890  145.7960 O   0  0  0  0  0  1  0  0  0  0  0  0
  186.4580  178.7140  146.4140 C   0  0  0  0  0  2  0  0  0  0  0  0
  186.3760  178.2600  147.7320 O   0  0  0  0  0  1  0  0  0  0  0  0
  192.4060  176.4540  145.8810 C   0  0  1  0  0  3  0  0  0  0  0  0
  193.7290  177.1660  146.2030 C   0  0  0  0  0  3  0  0  0  0  0  0
  194.6080  177.0570  145.1470 O   0  0  0  0  0  0  0  0  0  0  0  0
  194.7920  176.2870  146.2270 O   0  0  0  0  0  0  0  0  0  0  0  0
  191.3680  176.7790  146.8030 O   0  0  0  0  0  0  0  0  0  0  0  0
  191.1490  175.1540  148.4010 O   0  0  0  0  0  0  0  0  0  0  0  0
  190.6200  175.8060  147.4660 C   0  0  0  0  0  0  0  0  0  0  0  0
  189.2100  175.5010  147.0770 C   0  0  0  0  0  2  0  0  0  0  0  0
  188.9050  174.1860  147.4190 O   0  0  0  0  0  1  0  0  0  0  0  0
  193.1620  174.4860  143.7560 C   0  0  0  0  0  2  0  0  0  0  0  0
  193.1610  171.4930  144.2120 C   0  0  0  0  0  2  0  0  0  0  0  0
  192.3590  172.1660  143.1010 C   0  0  0  0  0  2  0  0  0  0  0  0
  194.5000  171.2360  143.7920 O   0  0  0  0  0  0  0  0  0  0  0  0
  196.4420  171.9420  142.7940 O   0  0  0  0  0  0  0  0  0  0  0  0
  193.0730  173.4420  142.6420 C   0  0  2  0  0  3  0  0  0  0  0  0
  195.2000  172.0970  142.9390 C   0  0  0  0  0  0  0  0  0  0  0  0
  194.4700  173.1060  142.0930 C   0  0  2  0  0  3  0  0  0  0  0  0
  195.2540  174.2820  141.9300 O   0  0  0  0  0  0  0  0  0  0  0  0
  195.5410  174.8040  140.6710 C   0  0  0  0  0  0  0  0  0  0  0  0
  195.1390  175.9640  140.3830 O   0  0  0  0  0  0  0  0  0  0  0  0
  196.2930  174.0510  139.7600 O   0  0  0  0  0  0  0  0  0  0  0  0
  197.6290  175.4970  138.5260 O   0  0  0  0  0  0  0  0  0  0  0  0
  196.8110  174.5350  138.5490 C   0  0  0  0  0  0  0  0  0  0  0  0
  196.4100  173.8920  137.2520 C   0  0  2  0  0  3  0  0  0  0  0  0
  195.1310  174.4250  136.6460 C   0  0  0  0  0  0  0  0  0  0  0  0
  195.2300  175.1780  135.4270 S   0  0  0  0  0  0  0  0  0  0  0  0
  192.7120  173.6460  136.7770 C   0  0  1  0  0  0  0  0  0  0  0  0
  190.5820  172.3460  139.5360 O   0  0  0  0  0  0  0  0  0  0  0  0
  190.1540  173.4990  138.8440 C   0  0  1  0  0  3  0  0  0  0  0  0
  192.7070  173.2920  139.1790 O   0  0  0  0  0  0  0  0  0  0  0  0
  191.3400  174.3140  136.8520 C   0  0  0  0  0  2  0  0  0  0  0  0
  193.0380  172.9930  135.5850 O   0  0  0  0  0  1  0  0  0  0  0  0
  193.8280  174.4740  137.4150 C   0  0  1  0  0  3  0  0  0  0  0  0
  190.2710  173.3530  137.3450 C   0  0  2  0  0  3  0  0  0  0  0  0
  193.4440  173.1130  138.0030 C   0  0  2  0  0  3  0  0  0  0  0  0
  188.7600  173.7410  139.1040 N   0  0  0  0  0  2  0  0  0  0  0  0
  191.9620  172.1090  139.3170 C   0  0  0  0  0  2  0  0  0  0  0  0
  188.2380  174.1860  137.8230 C   0  0  0  0  0  2  0  0  0  0  0  0
  189.0340  173.6840  136.7770 O   0  0  0  0  0  0  0  0  0  0  0  0
  197.7530  171.9160  137.5850 O   0  0  0  0  0  1  0  0  0  0  0  0
  196.4700  172.3640  137.2710 C   0  0  0  0  0  2  0  0  0  0  0  0
  2 33  1  0  0  0  0
  2  1  2  0  0  0  0
  3  4  1  6  0  0  0
  3  1  1  0  0  0  0
  5  3  1  0  0  0  0
  6  9  1  0  0  0  0
  7  6  1  0  0  0  0
  8  7  1  6  0  0  0
  8  9  1  0  0  0  0
  9  5  1  6  0  0  0
 10 12  1  0  0  0  0
 10  8  1  1  0  0  0
 10 11  1  0  0  0  0
 11 20  1  1  0  0  0
 12 13  1  6  0  0  0
 12 11  1  0  0  0  0
 14 13  1  0  0  0  0
 15 13  2  0  0  0  0
 16 18  1  0  0  0  0
 16 14  1  0  0  0  0
 17 18  2  0  0  0  0
 18 19  1  0  0  0  0
 20 21  1  1  0  0  0
 20 22  1  0  0  0  0
 22 23  1  0  0  0  0
 24  1  1  6  0  0  0
 24 25  1  0  0  0  0
 24 28  1  0  0  0  0
 25 27  1  0  0  0  0
 26 25  1  0  0  0  0
 26 27  1  0  0  0  0
 28 30  1  0  0  0  0
 30 29  2  0  0  0  0
 31 32  1  0  0  0  0
 31 30  1  0  0  0  0
 35 34  1  0  0  0  0
 36 34  1  0  0  0  0
 37 39  2  0  0  0  0
 38 35  1  0  0  0  0
 38 33  1  1  0  0  0
 39 36  1  0  0  0  0
 40 41  1  1  0  0  0
 40 38  1  0  0  0  0
 40 39  1  0  0  0  0
 42 41  1  0  0  0  0
 43 42  2  0  0  0  0
 44 42  1  0  0  0  0
 45 46  2  0  0  0  0
 46 44  1  0  0  0  0
 47 64  1  1  0  0  0
 47 46  1  0  0  0  0
 48 47  1  0  0  0  0
 49 48  2  0  0  0  0
 50 55  1  6  0  0  0
 50 54  1  0  0  0  0
 50 56  1  0  0  0  0
 50 58  1  0  0  0  0
 52 59  1  6  0  0  0
 52 51  1  0  0  0  0
 53 60  1  0  0  0  0
 56 48  1  6  0  0  0
 56 58  1  0  0  0  0
 57 54  1  6  0  0  0
 57 52  1  0  0  0  0
 58 53  1  1  0  0  0
 60 51  1  0  0  0  0
 61 59  1  0  0  0  0
 62 57  1  0  0  0  0
 62 61  1  0  0  0  0
 64 63  1  0  0  0  0
M  END
>  <MODEL>
2

>  <REMARK>
 VINA RESULT:      -5.9      2.815      9.410
  Name = 
  24 active torsions:
  status: ('A' for Active; 'I' for Inactive)
    1  A    between atoms: C_1  and  C_56
    2  A    between atoms: C_1  and  C_59
    3  A    between atoms: C_5  and  C_32
    4  A    between atoms: C_5  and  C_39
    5  A    between atoms: C_14  and  N_23
    6  A    between atoms: C_15  and  C_17
    7  A    between atoms: C_15  and  C_34
    8  A    between atoms: C_16  and  C_59
    9  A    between atoms: C_19  and  C_27
   10  A    between atoms: C_22  and  C_25
   11  A    between atoms: C_24  and  C_54
   12  A    between atoms: C_25  and  N_41
   13  A    between atoms: O_26  and  C_53
   14  A    between atoms: O_26  and  C_64
   15  A    between atoms: C_27  and  O_33
   16  A    between atoms: C_29  and  C_43
   17  A    between atoms: O_31  and  C_53
   18  A    between atoms: O_31  and  C_60
   19  A    between atoms: O_33  and  C_59
   20  A    between atoms: C_35  and  C_48
   21  A    between atoms: C_35  and  C_56
   22  A    between atoms: C_38  and  C_43
   23  A    between atoms: C_39  and  C_60
   24  A    between atoms: C_39  and  C_62
                            x       y       z     vdW  Elec       q    Type
                         _______ _______ _______ _____ _____    ______ ____

>  <TORSDO>
F 24

$$$$
=
 OpenBabel11072409183D

 64 70  0  0  1  0  0  0  0  0999 V2000
  194.2860  175.5050  142.9470 C   0  0  0  0  0  0  0  0  0  0  0  0
  193.2270  176.2610  143.2760 C   0  0  0  0  0  3  0  0  0  0  0  0
  194.9750  175.8090  141.6470 C   0  0  1  0  0  3  0  0  0  0  0  0
  196.3230  175.4420  141.7000 O   0  0  0  0  0  1  0  0  0  0  0  0
  194.2880  175.2180  140.4120 C   0  0  0  0  0  2  0  0  0  0  0  0
  195.7520  174.9740  138.3840 C   0  0  0  0  0  2  0  0  0  0  0  0
  195.0710  174.0560  137.5600 O   0  0  0  0  0  0  0  0  0  0  0  0
  194.5290  173.3870  138.6210 N   0  0  1  0  0  0  0  0  0  0  0  0
  195.1750  174.2890  139.5780 C   0  0  2  0  0  3  0  0  0  0  0  0
  193.0680  173.1550  138.4070 C   0  0  2  0  0  3  0  0  0  0  0  0
  192.4150  171.8630  138.9410 C   0  0  1  0  0  3  0  0  0  0  0  0
  192.6860  172.0400  137.4490 C   0  0  1  0  0  3  0  0  0  0  0  0
  191.4330  172.3890  136.6990 C   0  0  0  0  0  0  0  0  0  0  0  0
  190.9450  173.7360  136.6440 N   0  0  0  0  0  2  0  0  0  0  0  0
  190.8100  171.4690  136.1070 O   0  0  0  0  0  0  0  0  0  0  0  0
  189.6900  174.0970  135.9990 C   0  0  0  0  0  2  0  0  0  0  0  0
  188.7750  176.1670  135.3140 O   0  0  0  0  0  0  0  0  0  0  0  0
  189.7720  175.4700  135.4070 C   0  0  0  0  0  0  0  0  0  0  0  0
  191.1020  176.0220  135.0140 C   0  0  0  0  0  1  0  0  0  0  0  0
  193.3170  170.7820  139.5140 C   0  0  2  0  0  3  0  0  0  0  0  0
  193.8510  170.0220  138.4720 O   0  0  0  0  0  1  0  0  0  0  0  0
  192.5030  169.8800  140.4230 C   0  0  0  0  0  2  0  0  0  0  0  0
  191.1410  170.0360  140.1530 O   0  0  0  0  0  1  0  0  0  0  0  0
  194.8260  174.4080  143.8420 C   0  0  1  0  0  3  0  0  0  0  0  0
  195.4300  174.8760  145.1760 C   0  0  0  0  0  3  0  0  0  0  0  0
  196.7900  174.6520  145.1990 O   0  0  0  0  0  0  0  0  0  0  0  0
  195.9830  173.8300  145.8840 O   0  0  0  0  0  0  0  0  0  0  0  0
  193.8920  173.3440  144.0050 O   0  0  0  0  0  0  0  0  0  0  0  0
  194.7360  171.9480  142.3990 O   0  0  0  0  0  0  0  0  0  0  0  0
  194.1040  172.0700  143.4790 C   0  0  0  0  0  0  0  0  0  0  0  0
  193.5790  170.8440  144.1540 C   0  0  0  0  0  2  0  0  0  0  0  0
  194.0750  170.7800  145.4540 O   0  0  0  0  0  1  0  0  0  0  0  0
  192.5130  176.1540  144.5890 C   0  0  0  0  0  2  0  0  0  0  0  0
  190.7050  176.9180  146.8950 C   0  0  0  0  0  2  0  0  0  0  0  0
  190.5050  177.4350  145.4730 C   0  0  0  0  0  2  0  0  0  0  0  0
  190.0750  175.6500  147.0710 O   0  0  0  0  0  0  0  0  0  0  0  0
  189.6560  173.5170  146.3350 O   0  0  0  0  0  0  0  0  0  0  0  0
  191.0080  176.3980  144.4640 C   0  0  2  0  0  3  0  0  0  0  0  0
  190.0120  174.6930  146.0530 C   0  0  0  0  0  0  0  0  0  0  0  0
  190.2250  175.0820  144.6140 C   0  0  2  0  0  3  0  0  0  0  0  0
  190.8550  174.0250  143.8990 O   0  0  0  0  0  0  0  0  0  0  0  0
  190.1300  173.1490  143.0950 C   0  0  0  0  0  0  0  0  0  0  0  0
  190.7500  172.3010  142.3980 O   0  0  0  0  0  0  0  0  0  0  0  0
  188.7300  173.2010  143.0960 O   0  0  0  0  0  0  0  0  0  0  0  0
  186.9450  172.7910  141.6660 O   0  0  0  0  0  0  0  0  0  0  0  0
  187.9340  173.5110  141.9830 C   0  0  0  0  0  0  0  0  0  0  0  0
  188.2400  174.7270  141.1570 C   0  0  2  0  0  3  0  0  0  0  0  0
  187.2270  175.8450  141.2690 C   0  0  0  0  0  0  0  0  0  0  0  0
  187.2180  176.8470  140.2410 S   0  0  0  0  0  0  0  0  0  0  0  0
  187.0950  177.2110  143.4110 C   0  0  1  0  0  0  0  0  0  0  0  0
  184.3300  178.9830  145.1580 O   0  0  0  0  0  0  0  0  0  0  0  0
  185.0360  177.9840  145.8610 C   0  0  1  0  0  3  0  0  0  0  0  0
  184.6890  177.5320  143.3400 O   0  0  0  0  0  0  0  0  0  0  0  0
  187.0320  176.9130  144.9080 C   0  0  0  0  0  2  0  0  0  0  0  0
  188.2790  177.7710  142.9230 O   0  0  0  0  0  1  0  0  0  0  0  0
  186.4620  176.1210  142.5470 C   0  0  1  0  0  3  0  0  0  0  0  0
  186.5320  178.1090  145.7010 C   0  0  2  0  0  3  0  0  0  0  0  0
  185.8610  177.5290  142.5760 C   0  0  2  0  0  3  0  0  0  0  0  0
  184.7820  178.1010  147.2720 N   0  0  0  0  0  2  0  0  0  0  0  0
  184.5410  178.8640  143.7620 C   0  0  0  0  0  2  0  0  0  0  0  0
  186.0700  177.8150  147.8820 C   0  0  0  0  0  2  0  0  0  0  0  0
  187.1080  178.1090  146.9780 O   0  0  0  0  0  0  0  0  0  0  0  0
  189.3610  173.2310  139.6320 O   0  0  0  0  0  1  0  0  0  0  0  0
  188.6270  174.4150  139.7110 C   0  0  0  0  0  2  0  0  0  0  0  0
  1  2  2  0  0  0  0
  2 33  1  0  0  0  0
  3  4  1  1  0  0  0
  3  1  1  0  0  0  0
  5  3  1  0  0  0  0
  6  9  1  0  0  0  0
  7  6  1  0  0  0  0
  8  7  1  6  0  0  0
  8  9  1  0  0  0  0
  9  5  1  6  0  0  0
 10  8  1  1  0  0  0
 10 11  1  0  0  0  0
 11 20  1  1  0  0  0
 12 13  1  6  0  0  0
 12 10  1  0  0  0  0
 12 11  1  0  0  0  0
 14 13  1  0  0  0  0
 15 13  2  0  0  0  0
 16 14  1  0  0  0  0
 17 18  2  0  0  0  0
 18 16  1  0  0  0  0
 19 18  1  0  0  0  0
 20 21  1  6  0  0  0
 20 22  1  0  0  0  0
 23 22  1  0  0  0  0
 24  1  1  1  0  0  0
 24 28  1  0  0  0  0
 24 25  1  0  0  0  0
 25 26  1  0  0  0  0
 25 27  1  0  0  0  0
 26 27  1  0  0  0  0
 29 30  2  0  0  0  0
 30 28  1  0  0  0  0
 30 31  1  0  0  0  0
 31 32  1  0  0  0  0
 34 36  1  0  0  0  0
 35 34  1  0  0  0  0
 38 33  1  1  0  0  0
 38 40  1  0  0  0  0
 38 35  1  0  0  0  0
 39 37  2  0  0  0  0
 39 36  1  0  0  0  0
 40 41  1  6  0  0  0
 40 39  1  0  0  0  0
 42 44  1  0  0  0  0
 42 41  1  0  0  0  0
 43 42  2  0  0  0  0
 45 46  2  0  0  0  0
 46 44  1  0  0  0  0
 47 64  1  6  0  0  0
 47 48  1  0  0  0  0
 47 46  1  0  0  0  0
 49 48  2  0  0  0  0
 50 55  1  6  0  0  0
 50 54  1  0  0  0  0
 52 51  1  6  0  0  0
 52 59  1  0  0  0  0
 53 60  1  0  0  0  0
 56 48  1  6  0  0  0
 56 58  1  0  0  0  0
 56 50  1  0  0  0  0
 57 54  1  6  0  0  0
 57 52  1  0  0  0  0
 57 62  1  0  0  0  0
 58 53  1  1  0  0  0
 58 50  1  0  0  0  0
 59 61  1  0  0  0  0
 60 51  1  0  0  0  0
 62 61  1  0  0  0  0
 63 64  1  0  0  0  0
M  END
>  <MODEL>
3

>  <REMARK>
 VINA RESULT:      -5.8      1.760      2.811
  Name = 
  24 active torsions:
  status: ('A' for Active; 'I' for Inactive)
    1  A    between atoms: C_1  and  C_56
    2  A    between atoms: C_1  and  C_59
    3  A    between atoms: C_5  and  C_32
    4  A    between atoms: C_5  and  C_39
    5  A    between atoms: C_14  and  N_23
    6  A    between atoms: C_15  and  C_17
    7  A    between atoms: C_15  and  C_34
    8  A    between atoms: C_16  and  C_59
    9  A    between atoms: C_19  and  C_27
   10  A    between atoms: C_22  and  C_25
   11  A    between atoms: C_24  and  C_54
   12  A    between atoms: C_25  and  N_41
   13  A    between atoms: O_26  and  C_53
   14  A    between atoms: O_26  and  C_64
   15  A    between atoms: C_27  and  O_33
   16  A    between atoms: C_29  and  C_43
   17  A    between atoms: O_31  and  C_53
   18  A    between atoms: O_31  and  C_60
   19  A    between atoms: O_33  and  C_59
   20  A    between atoms: C_35  and  C_48
   21  A    between atoms: C_35  and  C_56
   22  A    between atoms: C_38  and  C_43
   23  A    between atoms: C_39  and  C_60
   24  A    between atoms: C_39  and  C_62
                            x       y       z     vdW  Elec       q    Type
                         _______ _______ _______ _____ _____    ______ ____

>  <TORSDO>
F 24

$$$$
=
 OpenBabel11072409183D

 64 70  0  0  1  0  0  0  0  0999 V2000
  194.4720  172.7370  144.3710 C   0  0  0  0  0  0  0  0  0  0  0  0
  193.3200  173.0920  144.9630 C   0  0  0  0  0  3  0  0  0  0  0  0
  194.5300  171.3790  143.7310 C   0  0  1  0  0  3  0  0  0  0  0  0
  193.8090  170.4440  144.4810 O   0  0  0  0  0  1  0  0  0  0  0  0
  194.1050  171.3540  142.2590 C   0  0  0  0  0  2  0  0  0  0  0  0
  195.5350  169.3560  141.7310 C   0  0  0  0  0  2  0  0  0  0  0  0
  195.6420  169.3530  140.3260 O   0  0  0  0  0  0  0  0  0  0  0  0
  194.4030  169.9060  140.1540 N   0  0  1  0  0  0  0  0  0  0  0  0
  194.1820  169.9730  141.6010 C   0  0  2  0  0  3  0  0  0  0  0  0
  194.4610  171.0310  139.1710 C   0  0  2  0  0  3  0  0  0  0  0  0
  193.3070  171.2220  138.1650 C   0  0  1  0  0  3  0  0  0  0  0  0
  194.6500  170.6540  137.7120 C   0  0  1  0  0  3  0  0  0  0  0  0
  195.4730  171.6880  136.9990 C   0  0  0  0  0  0  0  0  0  0  0  0
  194.9080  172.9400  136.5870 N   0  0  0  0  0  2  0  0  0  0  0  0
  196.6850  171.4390  136.7690 O   0  0  0  0  0  0  0  0  0  0  0  0
  195.6520  173.9300  135.8200 C   0  0  0  0  0  2  0  0  0  0  0  0
  195.8850  175.0300  137.9000 O   0  0  0  0  0  0  0  0  0  0  0  0
  196.1000  175.0570  136.6990 C   0  0  0  0  0  0  0  0  0  0  0  0
  196.8970  176.1740  136.1130 C   0  0  0  0  0  1  0  0  0  0  0  0
  192.2310  170.1510  138.0870 C   0  0  2  0  0  3  0  0  0  0  0  0
  192.6490  169.1340  137.2280 O   0  0  0  0  0  1  0  0  0  0  0  0
  190.9510  170.7650  137.5480 C   0  0  0  0  0  2  0  0  0  0  0  0
  190.1640  171.2300  138.6040 O   0  0  0  0  0  1  0  0  0  0  0  0
  195.6740  173.6560  144.2880 C   0  0  1  0  0  3  0  0  0  0  0  0
  196.9990  173.0640  144.7940 C   0  0  0  0  0  3  0  0  0  0  0  0
  196.9580  172.8820  146.1610 O   0  0  0  0  0  0  0  0  0  0  0  0
  197.6450  173.9190  145.6620 O   0  0  0  0  0  0  0  0  0  0  0  0
  195.7970  174.2580  143.0020 O   0  0  0  0  0  0  0  0  0  0  0  0
  195.9050  176.3890  143.8320 O   0  0  0  0  0  0  0  0  0  0  0  0
  195.9350  175.6350  142.8270 C   0  0  0  0  0  0  0  0  0  0  0  0
  196.0960  176.2410  141.4710 C   0  0  0  0  0  2  0  0  0  0  0  0
  194.9190  176.8910  141.1080 O   0  0  0  0  0  1  0  0  0  0  0  0
  193.0740  174.4530  145.5380 C   0  0  0  0  0  2  0  0  0  0  0  0
  191.7040  176.8910  146.7000 C   0  0  0  0  0  2  0  0  0  0  0  0
  191.8510  176.6550  145.1990 C   0  0  0  0  0  2  0  0  0  0  0  0
  190.5450  176.2330  147.2090 O   0  0  0  0  0  0  0  0  0  0  0  0
  189.2200  174.3650  147.3560 O   0  0  0  0  0  0  0  0  0  0  0  0
  191.8680  175.1510  144.9060 C   0  0  2  0  0  3  0  0  0  0  0  0
  190.1000  175.0020  146.7160 C   0  0  0  0  0  0  0  0  0  0  0  0
  190.5530  174.5010  145.3700 C   0  0  2  0  0  3  0  0  0  0  0  0
  190.6550  173.0810  145.3750 O   0  0  0  0  0  0  0  0  0  0  0  0
  189.6820  172.2740  144.7920 C   0  0  0  0  0  0  0  0  0  0  0  0
  189.1870  171.3280  145.4630 O   0  0  0  0  0  0  0  0  0  0  0  0
  189.2460  172.5410  143.4880 O   0  0  0  0  0  0  0  0  0  0  0  0
  190.5930  171.5790  141.8570 O   0  0  0  0  0  0  0  0  0  0  0  0
  190.0760  172.6170  142.3600 C   0  0  0  0  0  0  0  0  0  0  0  0
  190.3480  173.9460  141.7160 C   0  0  2  0  0  3  0  0  0  0  0  0
  189.1450  174.6000  141.0730 C   0  0  0  0  0  0  0  0  0  0  0  0
  188.7500  174.1410  139.7710 S   0  0  0  0  0  0  0  0  0  0  0  0
  187.2840  175.7030  142.4110 C   0  0  1  0  0  0  0  0  0  0  0  0
  187.2210  178.3820  144.9920 O   0  0  0  0  0  0  0  0  0  0  0  0
  186.4600  178.5630  143.8180 C   0  0  1  0  0  3  0  0  0  0  0  0
  188.7120  177.3390  143.4990 O   0  0  0  0  0  0  0  0  0  0  0  0
  186.2230  176.7710  142.1530 C   0  0  0  0  0  2  0  0  0  0  0  0
  186.8400  174.3850  142.5540 O   0  0  0  0  0  1  0  0  0  0  0  0
  188.5560  175.8970  141.5850 C   0  0  1  0  0  3  0  0  0  0  0  0
  185.6620  177.3340  143.4480 C   0  0  2  0  0  3  0  0  0  0  0  0
  188.6040  175.9970  143.1130 C   0  0  2  0  0  3  0  0  0  0  0  0
  185.4930  179.6100  144.0140 N   0  0  0  0  0  2  0  0  0  0  0  0
  188.2010  177.3750  144.8080 C   0  0  0  0  0  2  0  0  0  0  0  0
  184.3090  179.1260  143.3250 C   0  0  0  0  0  2  0  0  0  0  0  0
  184.3290  177.7210  143.2620 O   0  0  0  0  0  0  0  0  0  0  0  0
  192.6300  174.6680  141.4170 O   0  0  0  0  0  1  0  0  0  0  0  0
  191.5870  173.9610  140.8200 C   0  0  0  0  0  2  0  0  0  0  0  0
  1  2  2  0  0  0  0
  2 33  1  0  0  0  0
  3  1  1  0  0  0  0
  3  4  1  1  0  0  0
  5  3  1  0  0  0  0
  7  6  1  0  0  0  0
  8  7  1  1  0  0  0
  8  9  1  0  0  0  0
  9  6  1  0  0  0  0
  9  5  1  1  0  0  0
 10  8  1  1  0  0  0
 11 20  1  1  0  0  0
 11 10  1  0  0  0  0
 12 13  1  6  0  0  0
 12 11  1  0  0  0  0
 12 10  1  0  0  0  0
 14 13  1  0  0  0  0
 15 13  2  0  0  0  0
 16 14  1  0  0  0  0
 16 18  1  0  0  0  0
 18 17  2  0  0  0  0
 19 18  1  0  0  0  0
 20 21  1  6  0  0  0
 22 20  1  0  0  0  0
 22 23  1  0  0  0  0
 24 28  1  6  0  0  0
 24  1  1  0  0  0  0
 24 25  1  0  0  0  0
 25 27  1  0  0  0  0
 25 26  1  0  0  0  0
 27 26  1  0  0  0  0
 30 28  1  0  0  0  0
 30 29  2  0  0  0  0
 31 30  1  0  0  0  0
 32 31  1  0  0  0  0
 34 36  1  0  0  0  0
 35 34  1  0  0  0  0
 38 35  1  0  0  0  0
 38 40  1  0  0  0  0
 38 33  1  1  0  0  0
 39 36  1  0  0  0  0
 39 37  2  0  0  0  0
 40 41  1  1  0  0  0
 40 39  1  0  0  0  0
 42 41  1  0  0  0  0
 42 43  2  0  0  0  0
 44 42  1  0  0  0  0
 45 46  2  0  0  0  0
 46 44  1  0  0  0  0
 47 64  1  6  0  0  0
 47 46  1  0  0  0  0
 48 47  1  0  0  0  0
 49 48  2  0  0  0  0
 50 55  1  1  0  0  0
 50 58  1  0  0  0  0
 52 59  1  1  0  0  0
 52 51  1  0  0  0  0
 53 60  1  0  0  0  0
 54 50  1  0  0  0  0
 56 48  1  1  0  0  0
 56 50  1  0  0  0  0
 56 58  1  0  0  0  0
 57 54  1  6  0  0  0
 57 52  1  0  0  0  0
 58 53  1  6  0  0  0
 60 51  1  0  0  0  0
 61 59  1  0  0  0  0
 62 61  1  0  0  0  0
 62 57  1  0  0  0  0
 64 63  1  0  0  0  0
M  END
>  <MODEL>
4

>  <REMARK>
 VINA RESULT:      -5.6      1.905      2.635
  Name = 
  24 active torsions:
  status: ('A' for Active; 'I' for Inactive)
    1  A    between atoms: C_1  and  C_56
    2  A    between atoms: C_1  and  C_59
    3  A    between atoms: C_5  and  C_32
    4  A    between atoms: C_5  and  C_39
    5  A    between atoms: C_14  and  N_23
    6  A    between atoms: C_15  and  C_17
    7  A    between atoms: C_15  and  C_34
    8  A    between atoms: C_16  and  C_59
    9  A    between atoms: C_19  and  C_27
   10  A    between atoms: C_22  and  C_25
   11  A    between atoms: C_24  and  C_54
   12  A    between atoms: C_25  and  N_41
   13  A    between atoms: O_26  and  C_53
   14  A    between atoms: O_26  and  C_64
   15  A    between atoms: C_27  and  O_33
   16  A    between atoms: C_29  and  C_43
   17  A    between atoms: O_31  and  C_53
   18  A    between atoms: O_31  and  C_60
   19  A    between atoms: O_33  and  C_59
   20  A    between atoms: C_35  and  C_48
   21  A    between atoms: C_35  and  C_56
   22  A    between atoms: C_38  and  C_43
   23  A    between atoms: C_39  and  C_60
   24  A    between atoms: C_39  and  C_62
                            x       y       z     vdW  Elec       q    Type
                         _______ _______ _______ _____ _____    ______ ____

>  <TORSDO>
F 24

$$$$
=
 OpenBabel11072409183D

 64 70  0  0  1  0  0  0  0  0999 V2000
  195.5870  172.4000  143.4990 C   0  0  0  0  0  0  0  0  0  0  0  0
  194.3200  172.6050  143.8920 C   0  0  0  0  0  3  0  0  0  0  0  0
  195.8470  171.2350  142.5860 C   0  0  1  0  0  3  0  0  0  0  0  0
  195.3870  170.0440  143.1560 O   0  0  0  0  0  1  0  0  0  0  0  0
  195.3080  171.4140  141.1630 C   0  0  0  0  0  2  0  0  0  0  0  0
  195.8380  169.5430  139.5710 C   0  0  0  0  0  2  0  0  0  0  0  0
  194.9200  169.7030  138.5130 O   0  0  0  0  0  0  0  0  0  0  0  0
  193.9540  170.2240  139.3280 N   0  0  1  0  0  0  0  0  0  0  0  0
  194.8240  170.1200  140.5020 C   0  0  2  0  0  3  0  0  0  0  0  0
  193.3600  171.4540  138.7200 C   0  0  2  0  0  3  0  0  0  0  0  0
  191.9030  171.8400  139.0510 C   0  0  1  0  0  3  0  0  0  0  0  0
  192.2630  171.2460  137.6910 C   0  0  1  0  0  3  0  0  0  0  0  0
  192.3250  172.3040  136.6270 C   0  0  0  0  0  0  0  0  0  0  0  0
  191.2000  172.5830  135.7830 N   0  0  0  0  0  2  0  0  0  0  0  0
  193.3930  172.9550  136.4880 O   0  0  0  0  0  0  0  0  0  0  0  0
  191.2520  173.5410  134.6870 C   0  0  0  0  0  2  0  0  0  0  0  0
  189.8540  174.9910  135.9270 O   0  0  0  0  0  0  0  0  0  0  0  0
  190.7790  174.8890  135.1370 C   0  0  0  0  0  0  0  0  0  0  0  0
  191.5070  176.1110  134.6870 C   0  0  0  0  0  1  0  0  0  0  0  0
  191.0590  170.8570  139.8460 C   0  0  2  0  0  3  0  0  0  0  0  0
  189.7500  170.8720  139.3620 O   0  0  0  0  0  1  0  0  0  0  0  0
  191.0550  171.2680  141.3080 C   0  0  0  0  0  2  0  0  0  0  0  0
  191.7570  172.4660  141.4670 O   0  0  0  0  0  1  0  0  0  0  0  0
  196.7330  173.3090  143.8990 C   0  0  1  0  0  3  0  0  0  0  0  0
  197.5500  172.8500  145.1170 C   0  0  0  0  0  3  0  0  0  0  0  0
  196.8400  171.9300  145.8590 O   0  0  0  0  0  0  0  0  0  0  0  0
  196.9350  173.1900  146.3040 O   0  0  0  0  0  0  0  0  0  0  0  0
  197.5530  173.6540  142.7850 O   0  0  0  0  0  0  0  0  0  0  0  0
  196.7820  175.7790  142.4240 O   0  0  0  0  0  0  0  0  0  0  0  0
  197.2590  174.7230  141.9380 C   0  0  0  0  0  0  0  0  0  0  0  0
  197.4760  174.6370  140.4620 C   0  0  0  0  0  2  0  0  0  0  0  0
  196.8740  175.7270  139.8380 O   0  0  0  0  0  1  0  0  0  0  0  0
  193.8900  173.7890  144.7030 C   0  0  0  0  0  2  0  0  0  0  0  0
  193.7010  176.7620  145.2520 C   0  0  0  0  0  2  0  0  0  0  0  0
  193.6210  176.1670  143.8480 C   0  0  0  0  0  2  0  0  0  0  0  0
  192.4200  176.7570  145.8820 O   0  0  0  0  0  0  0  0  0  0  0  0
  190.4780  175.6670  146.4350 O   0  0  0  0  0  0  0  0  0  0  0  0
  193.0150  174.7610  143.9100 C   0  0  2  0  0  3  0  0  0  0  0  0
  191.4840  175.7370  145.6790 C   0  0  0  0  0  0  0  0  0  0  0  0
  191.5910  174.8170  144.4920 C   0  0  2  0  0  3  0  0  0  0  0  0
  191.1210  173.5160  144.8250 O   0  0  0  0  0  0  0  0  0  0  0  0
  189.8250  173.1050  144.5220 C   0  0  0  0  0  0  0  0  0  0  0  0
  189.4330  171.9730  144.9170 O   0  0  0  0  0  0  0  0  0  0  0  0
  188.9700  173.9610  143.8160 O   0  0  0  0  0  0  0  0  0  0  0  0
  187.9600  172.6490  142.1870 O   0  0  0  0  0  0  0  0  0  0  0  0
  188.5070  173.7410  142.5110 C   0  0  0  0  0  0  0  0  0  0  0  0
  188.6380  174.8210  141.4760 C   0  0  2  0  0  3  0  0  0  0  0  0
  187.4710  175.7800  141.4030 C   0  0  0  0  0  0  0  0  0  0  0  0
  187.3630  176.6180  140.2430 S   0  0  0  0  0  0  0  0  0  0  0  0
  187.2590  177.1380  143.5440 C   0  0  1  0  0  0  0  0  0  0  0  0
  184.5050  179.1290  145.0580 O   0  0  0  0  0  0  0  0  0  0  0  0
  185.0560  178.0680  145.8070 C   0  0  1  0  0  3  0  0  0  0  0  0
  184.9050  177.6630  143.2600 O   0  0  0  0  0  0  0  0  0  0  0  0
  187.0340  176.8370  145.0250 C   0  0  0  0  0  2  0  0  0  0  0  0
  188.5260  177.5990  143.1730 O   0  0  0  0  0  1  0  0  0  0  0  0
  186.6180  176.1120  142.6100 C   0  0  1  0  0  3  0  0  0  0  0  0
  186.5670  178.0670  145.7860 C   0  0  2  0  0  3  0  0  0  0  0  0
  186.1380  177.5660  142.6040 C   0  0  2  0  0  3  0  0  0  0  0  0
  184.6860  178.1970  147.1910 N   0  0  0  0  0  2  0  0  0  0  0  0
  184.8320  179.0010  143.6850 C   0  0  0  0  0  2  0  0  0  0  0  0
  185.8830  177.7990  147.9110 C   0  0  0  0  0  2  0  0  0  0  0  0
  187.0200  178.0090  147.1100 O   0  0  0  0  0  0  0  0  0  0  0  0
  188.0090  173.7670  139.3990 O   0  0  0  0  0  1  0  0  0  0  0  0
  189.0810  174.3150  140.1030 C   0  0  0  0  0  2  0  0  0  0  0  0
  1  2  2  0  0  0  0
  1 24  1  0  0  0  0
  2 33  1  0  0  0  0
  3  4  1  1  0  0  0
  3  1  1  0  0  0  0
  5  3  1  0  0  0  0
  6  9  1  0  0  0  0
  7  6  1  0  0  0  0
  8  7  1  6  0  0  0
  8  9  1  0  0  0  0
  9  5  1  6  0  0  0
 10 11  1  0  0  0  0
 10  8  1  1  0  0  0
 11 20  1  1  0  0  0
 12 13  1  6  0  0  0
 12 10  1  0  0  0  0
 12 11  1  0  0  0  0
 14 13  1  0  0  0  0
 15 13  2  0  0  0  0
 16 18  1  0  0  0  0
 16 14  1  0  0  0  0
 18 17  2  0  0  0  0
 19 18  1  0  0  0  0
 20 21  1  6  0  0  0
 20 22  1  0  0  0  0
 22 23  1  0  0  0  0
 24 28  1  6  0  0  0
 24 25  1  0  0  0  0
 25 26  1  0  0  0  0
 25 27  1  0  0  0  0
 26 27  1  0  0  0  0
 30 29  2  0  0  0  0
 30 28  1  0  0  0  0
 31 30  1  0  0  0  0
 32 31  1  0  0  0  0
 34 36  1  0  0  0  0
 35 38  1  0  0  0  0
 35 34  1  0  0  0  0
 38 40  1  0  0  0  0
 38 33  1  1  0  0  0
 39 36  1  0  0  0  0
 39 37  2  0  0  0  0
 40 41  1  1  0  0  0
 40 39  1  0  0  0  0
 42 41  1  0  0  0  0
 42 43  2  0  0  0  0
 44 42  1  0  0  0  0
 45 46  2  0  0  0  0
 46 44  1  0  0  0  0
 47 64  1  6  0  0  0
 47 46  1  0  0  0  0
 48 47  1  0  0  0  0
 49 48  2  0  0  0  0
 50 55  1  6  0  0  0
 50 54  1  0  0  0  0
 52 51  1  6  0  0  0
 52 59  1  0  0  0  0
 53 60  1  0  0  0  0
 56 48  1  6  0  0  0
 56 50  1  0  0  0  0
 57 54  1  6  0  0  0
 57 52  1  0  0  0  0
 57 62  1  0  0  0  0
 58 56  1  0  0  0  0
 58 53  1  1  0  0  0
 58 50  1  0  0  0  0
 59 61  1  0  0  0  0
 60 51  1  0  0  0  0
 62 61  1  0  0  0  0
 63 64  1  0  0  0  0
M  END
>  <MODEL>
5

>  <REMARK>
 VINA RESULT:      -5.6      1.696      1.899
  Name = 
  24 active torsions:
  status: ('A' for Active; 'I' for Inactive)
    1  A    between atoms: C_1  and  C_56
    2  A    between atoms: C_1  and  C_59
    3  A    between atoms: C_5  and  C_32
    4  A    between atoms: C_5  and  C_39
    5  A    between atoms: C_14  and  N_23
    6  A    between atoms: C_15  and  C_17
    7  A    between atoms: C_15  and  C_34
    8  A    between atoms: C_16  and  C_59
    9  A    between atoms: C_19  and  C_27
   10  A    between atoms: C_22  and  C_25
   11  A    between atoms: C_24  and  C_54
   12  A    between atoms: C_25  and  N_41
   13  A    between atoms: O_26  and  C_53
   14  A    between atoms: O_26  and  C_64
   15  A    between atoms: C_27  and  O_33
   16  A    between atoms: C_29  and  C_43
   17  A    between atoms: O_31  and  C_53
   18  A    between atoms: O_31  and  C_60
   19  A    between atoms: O_33  and  C_59
   20  A    between atoms: C_35  and  C_48
   21  A    between atoms: C_35  and  C_56
   22  A    between atoms: C_38  and  C_43
   23  A    between atoms: C_39  and  C_60
   24  A    between atoms: C_39  and  C_62
                            x       y       z     vdW  Elec       q    Type
                         _______ _______ _______ _____ _____    ______ ____

>  <TORSDO>
F 24

$$$$
=
 OpenBabel11072409183D

 64 70  0  0  1  0  0  0  0  0999 V2000
  192.6700  175.1640  144.9330 C   0  0  0  0  0  0  0  0  0  0  0  0
  193.8930  175.4970  144.4930 C   0  0  0  0  0  3  0  0  0  0  0  0
  192.2480  175.7000  146.2720 C   0  0  1  0  0  3  0  0  0  0  0  0
  193.2590  176.4840  146.8350 O   0  0  0  0  0  1  0  0  0  0  0  0
  190.9090  176.4460  146.2610 C   0  0  0  0  0  2  0  0  0  0  0  0
  189.5870  174.5570  147.2620 C   0  0  0  0  0  2  0  0  0  0  0  0
  188.2400  174.9160  147.0580 O   0  0  0  0  0  0  0  0  0  0  0  0
  188.5020  176.2540  147.1480 N   0  0  1  0  0  0  0  0  0  0  0  0
  189.9310  176.0070  147.3550 C   0  0  2  0  0  3  0  0  0  0  0  0
  187.8420  176.9970  146.0320 C   0  0  2  0  0  3  0  0  0  0  0  0
  186.7760  178.0650  146.3530 C   0  0  1  0  0  3  0  0  0  0  0  0
  186.3710  176.7040  145.7910 C   0  0  1  0  0  3  0  0  0  0  0  0
  186.0460  176.7870  144.3280 C   0  0  0  0  0  0  0  0  0  0  0  0
  186.9400  176.2740  143.3320 N   0  0  0  0  0  2  0  0  0  0  0  0
  184.9580  177.3190  143.9820 O   0  0  0  0  0  0  0  0  0  0  0  0
  186.6970  176.4130  141.9020 C   0  0  0  0  0  2  0  0  0  0  0  0
  187.4170  178.6650  141.9150 O   0  0  0  0  0  0  0  0  0  0  0  0
  186.5930  177.8560  141.5190 C   0  0  0  0  0  0  0  0  0  0  0  0
  185.5270  178.2900  140.5680 C   0  0  0  0  0  1  0  0  0  0  0  0
  186.3010  178.2020  147.7900 C   0  0  2  0  0  3  0  0  0  0  0  0
  184.9160  178.3770  147.8070 O   0  0  0  0  0  1  0  0  0  0  0  0
  186.9640  179.4110  148.4240 C   0  0  0  0  0  2  0  0  0  0  0  0
  186.3160  180.5790  148.0160 O   0  0  0  0  0  1  0  0  0  0  0  0
  191.7030  174.3210  144.1250 C   0  0  1  0  0  3  0  0  0  0  0  0
  191.4780  172.8910  144.6400 C   0  0  0  0  0  3  0  0  0  0  0  0
  192.6810  172.2870  144.9370 O   0  0  0  0  0  0  0  0  0  0  0  0
  192.0450  171.9500  143.8070 O   0  0  0  0  0  0  0  0  0  0  0  0
  190.4830  175.0110  143.8650 O   0  0  0  0  0  0  0  0  0  0  0  0
  190.1720  175.3450  141.6220 O   0  0  0  0  0  0  0  0  0  0  0  0
  190.3140  175.8500  142.7630 C   0  0  0  0  0  0  0  0  0  0  0  0
  190.3210  177.3380  142.9020 C   0  0  0  0  0  2  0  0  0  0  0  0
  191.6330  177.7890  143.0270 O   0  0  0  0  0  1  0  0  0  0  0  0
  194.4060  175.1370  143.1320 C   0  0  0  0  0  2  0  0  0  0  0  0
  196.8960  176.8190  143.5120 C   0  0  0  0  0  2  0  0  0  0  0  0
  196.7530  175.4050  144.0690 C   0  0  0  0  0  2  0  0  0  0  0  0
  197.3520  176.7920  142.1610 O   0  0  0  0  0  0  0  0  0  0  0  0
  197.2160  175.9480  140.0300 O   0  0  0  0  0  0  0  0  0  0  0  0
  195.8300  174.5790  143.1660 C   0  0  2  0  0  3  0  0  0  0  0  0
  196.9740  175.7920  141.2580 C   0  0  0  0  0  0  0  0  0  0  0  0
  196.4160  174.4810  141.7470 C   0  0  2  0  0  3  0  0  0  0  0  0
  195.4550  173.9740  140.8290 O   0  0  0  0  0  0  0  0  0  0  0  0
  195.8050  173.0780  139.8210 C   0  0  0  0  0  0  0  0  0  0  0  0
  196.8580  172.3960  139.9460 O   0  0  0  0  0  0  0  0  0  0  0  0
  194.9720  172.9250  138.7060 O   0  0  0  0  0  0  0  0  0  0  0  0
  196.0630  174.4280  137.3110 O   0  0  0  0  0  0  0  0  0  0  0  0
  195.1140  173.6150  137.4920 C   0  0  0  0  0  0  0  0  0  0  0  0
  194.1400  173.3750  136.3750 C   0  0  2  0  0  3  0  0  0  0  0  0
  192.7020  173.7150  136.6990 C   0  0  0  0  0  0  0  0  0  0  0  0
  191.9830  174.5400  135.7700 S   0  0  0  0  0  0  0  0  0  0  0  0
  190.7320  172.8350  138.0460 C   0  0  1  0  0  0  0  0  0  0  0  0
  190.4480  170.7410  141.1080 O   0  0  0  0  0  0  0  0  0  0  0  0
  189.8560  172.0220  141.1140 C   0  0  1  0  0  3  0  0  0  0  0  0
  192.0750  171.8330  139.8040 O   0  0  0  0  0  0  0  0  0  0  0  0
  189.7620  173.4000  139.0810 C   0  0  0  0  0  2  0  0  0  0  0  0
  190.2150  172.5480  136.7790 O   0  0  0  0  0  1  0  0  0  0  0  0
  192.1090  173.4990  138.0750 C   0  0  1  0  0  3  0  0  0  0  0  0
  189.0610  172.2990  139.8590 C   0  0  2  0  0  3  0  0  0  0  0  0
  191.9600  172.0140  138.4200 C   0  0  2  0  0  3  0  0  0  0  0  0
  188.9200  172.1270  142.2000 N   0  0  0  0  0  2  0  0  0  0  0  0
  191.3990  170.6290  140.0630 C   0  0  0  0  0  2  0  0  0  0  0  0
  187.8160  172.8870  141.6370 C   0  0  0  0  0  2  0  0  0  0  0  0
  187.7820  172.7240  140.2400 O   0  0  0  0  0  0  0  0  0  0  0  0
  193.0510  171.4760  135.3610 O   0  0  0  0  0  1  0  0  0  0  0  0
  194.2930  172.0120  135.6980 C   0  0  0  0  0  2  0  0  0  0  0  0
  1  3  1  0  0  0  0
  2  1  2  0  0  0  0
  3  4  1  6  0  0  0
  5  3  1  0  0  0  0
  6  9  1  0  0  0  0
  7  6  1  0  0  0  0
  8  7  1  6  0  0  0
  8  9  1  0  0  0  0
  9  5  1  6  0  0  0
 10 11  1  0  0  0  0
 10  8  1  1  0  0  0
 11 20  1  1  0  0  0
 12 13  1  6  0  0  0
 12 10  1  0  0  0  0
 12 11  1  0  0  0  0
 14 13  1  0  0  0  0
 15 13  2  0  0  0  0
 16 14  1  0  0  0  0
 18 16  1  0  0  0  0
 18 17  2  0  0  0  0
 19 18  1  0  0  0  0
 20 21  1  6  0  0  0
 20 22  1  0  0  0  0
 23 22  1  0  0  0  0
 24 28  1  1  0  0  0
 24 25  1  0  0  0  0
 24  1  1  0  0  0  0
 25 26  1  0  0  0  0
 27 25  1  0  0  0  0
 27 26  1  0  0  0  0
 29 30  2  0  0  0  0
 30 31  1  0  0  0  0
 30 28  1  0  0  0  0
 31 32  1  0  0  0  0
 33  2  1  0  0  0  0
 34 35  1  0  0  0  0
 36 34  1  0  0  0  0
 37 39  2  0  0  0  0
 38 33  1  6  0  0  0
 38 35  1  0  0  0  0
 39 40  1  0  0  0  0
 39 36  1  0  0  0  0
 40 41  1  6  0  0  0
 40 38  1  0  0  0  0
 42 43  2  0  0  0  0
 42 41  1  0  0  0  0
 44 42  1  0  0  0  0
 45 46  2  0  0  0  0
 46 44  1  0  0  0  0
 47 64  1  1  0  0  0
 47 48  1  0  0  0  0
 47 46  1  0  0  0  0
 49 48  2  0  0  0  0
 50 55  1  6  0  0  0
 50 56  1  0  0  0  0
 50 58  1  0  0  0  0
 50 54  1  0  0  0  0
 52 51  1  6  0  0  0
 52 59  1  0  0  0  0
 53 60  1  0  0  0  0
 56 48  1  6  0  0  0
 56 58  1  0  0  0  0
 57 54  1  1  0  0  0
 57 62  1  0  0  0  0
 57 52  1  0  0  0  0
 58 53  1  1  0  0  0
 60 51  1  0  0  0  0
 61 59  1  0  0  0  0
 62 61  1  0  0  0  0
 63 64  1  0  0  0  0
M  END
>  <MODEL>
6

>  <REMARK>
 VINA RESULT:      -5.4      2.669      8.801
  Name = 
  24 active torsions:
  status: ('A' for Active; 'I' for Inactive)
    1  A    between atoms: C_1  and  C_56
    2  A    between atoms: C_1  and  C_59
    3  A    between atoms: C_5  and  C_32
    4  A    between atoms: C_5  and  C_39
    5  A    between atoms: C_14  and  N_23
    6  A    between atoms: C_15  and  C_17
    7  A    between atoms: C_15  and  C_34
    8  A    between atoms: C_16  and  C_59
    9  A    between atoms: C_19  and  C_27
   10  A    between atoms: C_22  and  C_25
   11  A    between atoms: C_24  and  C_54
   12  A    between atoms: C_25  and  N_41
   13  A    between atoms: O_26  and  C_53
   14  A    between atoms: O_26  and  C_64
   15  A    between atoms: C_27  and  O_33
   16  A    between atoms: C_29  and  C_43
   17  A    between atoms: O_31  and  C_53
   18  A    between atoms: O_31  and  C_60
   19  A    between atoms: O_33  and  C_59
   20  A    between atoms: C_35  and  C_48
   21  A    between atoms: C_35  and  C_56
   22  A    between atoms: C_38  and  C_43
   23  A    between atoms: C_39  and  C_60
   24  A    between atoms: C_39  and  C_62
                            x       y       z     vdW  Elec       q    Type
                         _______ _______ _______ _____ _____    ______ ____

>  <TORSDO>
F 24

$$$$
=
 OpenBabel11072409183D

 64 70  0  0  1  0  0  0  0  0999 V2000
  193.2920  174.6320  144.9510 C   0  0  0  0  0  0  0  0  0  0  0  0
  193.9520  175.3390  144.0200 C   0  0  0  0  0  3  0  0  0  0  0  0
  192.8810  175.3530  146.2030 C   0  0  1  0  0  3  0  0  0  0  0  0
  193.9900  175.9230  146.8360 O   0  0  0  0  0  1  0  0  0  0  0  0
  191.7660  176.3840  146.0030 C   0  0  0  0  0  2  0  0  0  0  0  0
  190.0760  175.0750  147.3250 C   0  0  0  0  0  2  0  0  0  0  0  0
  188.8340  175.6480  146.9850 O   0  0  0  0  0  0  0  0  0  0  0  0
  189.3720  176.8900  146.7970 N   0  0  1  0  0  0  0  0  0  0  0  0
  190.7170  176.4080  147.1190 C   0  0  2  0  0  3  0  0  0  0  0  0
  188.8830  177.4870  145.5160 C   0  0  2  0  0  3  0  0  0  0  0  0
  187.4110  177.9340  145.3970 C   0  0  1  0  0  3  0  0  0  0  0  0
  187.8970  176.6600  144.7090 C   0  0  1  0  0  3  0  0  0  0  0  0
  188.1040  176.8730  143.2380 C   0  0  0  0  0  0  0  0  0  0  0  0
  187.1680  176.3780  142.2710 N   0  0  0  0  0  2  0  0  0  0  0  0
  189.1240  177.5070  142.8590 O   0  0  0  0  0  0  0  0  0  0  0  0
  187.3790  176.4930  140.8340 C   0  0  0  0  0  2  0  0  0  0  0  0
  185.8450  178.2920  140.8440 O   0  0  0  0  0  0  0  0  0  0  0  0
  186.3390  177.3720  140.2120 C   0  0  0  0  0  0  0  0  0  0  0  0
  185.9740  177.1780  138.7780 C   0  0  0  0  0  1  0  0  0  0  0  0
  186.4570  177.5880  146.5290 C   0  0  2  0  0  3  0  0  0  0  0  0
  185.6570  176.5090  146.1490 O   0  0  0  0  0  1  0  0  0  0  0  0
  185.5730  178.7860  146.8240 C   0  0  0  0  0  2  0  0  0  0  0  0
  185.1710  179.3860  145.6280 O   0  0  0  0  0  1  0  0  0  0  0  0
  192.9140  173.1760  144.7660 C   0  0  1  0  0  3  0  0  0  0  0  0
  193.8650  172.1560  145.4120 C   0  0  0  0  0  3  0  0  0  0  0  0
  194.7440  171.6520  144.4780 O   0  0  0  0  0  0  0  0  0  0  0  0
  193.7110  170.8970  144.8720 O   0  0  0  0  0  0  0  0  0  0  0  0
  191.5470  172.9350  145.0890 O   0  0  0  0  0  0  0  0  0  0  0  0
  189.5120  173.4730  144.1910 O   0  0  0  0  0  0  0  0  0  0  0  0
  190.5590  172.7830  144.1160 C   0  0  0  0  0  0  0  0  0  0  0  0
  190.7050  171.8050  142.9960 C   0  0  0  0  0  2  0  0  0  0  0  0
  190.3460  172.4130  141.7950 O   0  0  0  0  0  1  0  0  0  0  0  0
  194.3220  174.7900  142.6760 C   0  0  0  0  0  2  0  0  0  0  0  0
  196.4270  176.8110  141.8680 C   0  0  0  0  0  2  0  0  0  0  0  0
  196.6850  175.7000  142.8810 C   0  0  0  0  0  2  0  0  0  0  0  0
  196.6360  176.3450  140.5350 O   0  0  0  0  0  0  0  0  0  0  0  0
  196.3120  174.7610  138.9070 O   0  0  0  0  0  0  0  0  0  0  0  0
  195.8150  174.4820  142.5540 C   0  0  2  0  0  3  0  0  0  0  0  0
  196.3270  175.0410  140.1360 C   0  0  0  0  0  0  0  0  0  0  0  0
  196.1520  173.9440  141.1530 C   0  0  2  0  0  3  0  0  0  0  0  0
  195.1750  173.0070  140.7140 O   0  0  0  0  0  0  0  0  0  0  0  0
  195.4910  171.6690  140.4900 C   0  0  0  0  0  0  0  0  0  0  0  0
  195.7850  170.9360  141.4720 O   0  0  0  0  0  0  0  0  0  0  0  0
  195.4460  171.1520  139.1880 O   0  0  0  0  0  0  0  0  0  0  0  0
  197.5460  171.7410  138.3880 O   0  0  0  0  0  0  0  0  0  0  0  0
  196.3300  171.4960  138.1540 C   0  0  0  0  0  0  0  0  0  0  0  0
  195.8370  171.5560  136.7360 C   0  0  2  0  0  3  0  0  0  0  0  0
  194.8000  172.6230  136.4670 C   0  0  0  0  0  0  0  0  0  0  0  0
  195.1710  173.7190  135.6170 S   0  0  0  0  0  0  0  0  0  0  0  0
  192.2600  172.7650  136.4440 C   0  0  1  0  0  0  0  0  0  0  0  0
  189.5820  171.1420  138.4530 O   0  0  0  0  0  0  0  0  0  0  0  0
  189.6430  172.5520  138.4300 C   0  0  1  0  0  3  0  0  0  0  0  0
  191.9260  171.3440  138.3850 O   0  0  0  0  0  0  0  0  0  0  0  0
  191.2050  173.7440  136.9540 C   0  0  0  0  0  2  0  0  0  0  0  0
  192.4400  172.6860  135.0600 O   0  0  0  0  0  1  0  0  0  0  0  0
  193.5350  172.7490  137.2880 C   0  0  1  0  0  3  0  0  0  0  0  0
  189.8300  173.1010  137.0350 C   0  0  2  0  0  3  0  0  0  0  0  0
  192.6520  171.5000  137.1980 C   0  0  2  0  0  3  0  0  0  0  0  0
  188.4030  173.1060  138.9040 N   0  0  0  0  0  2  0  0  0  0  0  0
  190.8070  170.5770  138.0190 C   0  0  0  0  0  2  0  0  0  0  0  0
  188.1810  174.2530  138.0400 C   0  0  0  0  0  2  0  0  0  0  0  0
  188.8390  174.0660  136.8110 O   0  0  0  0  0  0  0  0  0  0  0  0
  196.5540  169.3300  136.1440 O   0  0  0  0  0  1  0  0  0  0  0  0
  195.4590  170.1940  136.1520 C   0  0  0  0  0  2  0  0  0  0  0  0
  1  3  1  0  0  0  0
  2  1  2  0  0  0  0
  3  4  1  6  0  0  0
  5  3  1  0  0  0  0
  7  6  1  0  0  0  0
  8  7  1  6  0  0  0
  8  9  1  0  0  0  0
  9  5  1  6  0  0  0
  9  6  1  0  0  0  0
 10  8  1  1  0  0  0
 11 10  1  0  0  0  0
 11 20  1  1  0  0  0
 12 13  1  6  0  0  0
 12 11  1  0  0  0  0
 12 10  1  0  0  0  0
 14 13  1  0  0  0  0
 15 13  2  0  0  0  0
 16 14  1  0  0  0  0
 18 16  1  0  0  0  0
 18 17  2  0  0  0  0
 19 18  1  0  0  0  0
 20 21  1  6  0  0  0
 20 22  1  0  0  0  0
 23 22  1  0  0  0  0
 24  1  1  1  0  0  0
 24 28  1  0  0  0  0
 24 25  1  0  0  0  0
 26 27  1  0  0  0  0
 26 25  1  0  0  0  0
 27 25  1  0  0  0  0
 30 29  2  0  0  0  0
 30 28  1  0  0  0  0
 31 30  1  0  0  0  0
 32 31  1  0  0  0  0
 33  2  1  0  0  0  0
 34 35  1  0  0  0  0
 36 34  1  0  0  0  0
 37 39  2  0  0  0  0
 38 33  1  6  0  0  0
 38 35  1  0  0  0  0
 39 36  1  0  0  0  0
 39 40  1  0  0  0  0
 40 41  1  6  0  0  0
 40 38  1  0  0  0  0
 42 41  1  0  0  0  0
 42 43  2  0  0  0  0
 44 42  1  0  0  0  0
 46 45  2  0  0  0  0
 46 44  1  0  0  0  0
 47 64  1  1  0  0  0
 47 46  1  0  0  0  0
 48 47  1  0  0  0  0
 49 48  2  0  0  0  0
 50 55  1  6  0  0  0
 50 54  1  0  0  0  0
 50 58  1  0  0  0  0
 50 56  1  0  0  0  0
 52 51  1  6  0  0  0
 52 59  1  0  0  0  0
 56 48  1  6  0  0  0
 57 54  1  1  0  0  0
 57 52  1  0  0  0  0
 58 56  1  0  0  0  0
 58 53  1  1  0  0  0
 60 53  1  0  0  0  0
 60 51  1  0  0  0  0
 61 59  1  0  0  0  0
 62 57  1  0  0  0  0
 62 61  1  0  0  0  0
 63 64  1  0  0  0  0
M  END
>  <MODEL>
7

>  <REMARK>
 VINA RESULT:      -5.4      2.803      8.959
  Name = 
  24 active torsions:
  status: ('A' for Active; 'I' for Inactive)
    1  A    between atoms: C_1  and  C_56
    2  A    between atoms: C_1  and  C_59
    3  A    between atoms: C_5  and  C_32
    4  A    between atoms: C_5  and  C_39
    5  A    between atoms: C_14  and  N_23
    6  A    between atoms: C_15  and  C_17
    7  A    between atoms: C_15  and  C_34
    8  A    between atoms: C_16  and  C_59
    9  A    between atoms: C_19  and  C_27
   10  A    between atoms: C_22  and  C_25
   11  A    between atoms: C_24  and  C_54
   12  A    between atoms: C_25  and  N_41
   13  A    between atoms: O_26  and  C_53
   14  A    between atoms: O_26  and  C_64
   15  A    between atoms: C_27  and  O_33
   16  A    between atoms: C_29  and  C_43
   17  A    between atoms: O_31  and  C_53
   18  A    between atoms: O_31  and  C_60
   19  A    between atoms: O_33  and  C_59
   20  A    between atoms: C_35  and  C_48
   21  A    between atoms: C_35  and  C_56
   22  A    between atoms: C_38  and  C_43
   23  A    between atoms: C_39  and  C_60
   24  A    between atoms: C_39  and  C_62
                            x       y       z     vdW  Elec       q    Type
                         _______ _______ _______ _____ _____    ______ ____

>  <TORSDO>
F 24

$$$$
=
 OpenBabel11072409183D

 64 70  0  0  1  0  0  0  0  0999 V2000
  193.5170  174.8650  145.3220 C   0  0  0  0  0  0  0  0  0  0  0  0
  194.1670  175.4640  144.3110 C   0  0  0  0  0  3  0  0  0  0  0  0
  193.0730  175.7310  146.4670 C   0  0  1  0  0  3  0  0  0  0  0  0
  194.1160  176.5530  146.9020 O   0  0  0  0  0  1  0  0  0  0  0  0
  191.8040  176.5440  146.1910 C   0  0  0  0  0  2  0  0  0  0  0  0
  190.2490  174.9210  147.3160 C   0  0  0  0  0  2  0  0  0  0  0  0
  188.9610  175.3170  146.9050 O   0  0  0  0  0  0  0  0  0  0  0  0
  189.3100  176.6350  146.8150 N   0  0  1  0  0  0  0  0  0  0  0  0
  190.6880  176.3450  147.2210 C   0  0  2  0  0  3  0  0  0  0  0  0
  188.8260  177.2210  145.5280 C   0  0  2  0  0  3  0  0  0  0  0  0
  187.3580  177.6800  145.4040 C   0  0  1  0  0  3  0  0  0  0  0  0
  187.8320  176.3940  144.7310 C   0  0  1  0  0  3  0  0  0  0  0  0
  188.0400  176.5890  143.2570 C   0  0  0  0  0  0  0  0  0  0  0  0
  187.5910  177.7750  142.5880 N   0  0  0  0  0  2  0  0  0  0  0  0
  188.6280  175.6840  142.6080 O   0  0  0  0  0  0  0  0  0  0  0  0
  187.7000  177.9600  141.1480 C   0  0  0  0  0  2  0  0  0  0  0  0
  185.3650  177.6000  141.0490 O   0  0  0  0  0  0  0  0  0  0  0  0
  186.4340  177.5490  140.4620 C   0  0  0  0  0  0  0  0  0  0  0  0
  186.4710  177.1650  139.0200 C   0  0  0  0  0  1  0  0  0  0  0  0
  186.4020  177.3560  146.5410 C   0  0  2  0  0  3  0  0  0  0  0  0
  185.3850  176.5240  146.0700 O   0  0  0  0  0  1  0  0  0  0  0  0
  185.7910  178.6430  147.0640 C   0  0  0  0  0  2  0  0  0  0  0  0
  184.4290  178.4560  147.3140 O   0  0  0  0  0  1  0  0  0  0  0  0
  193.1820  173.3870  145.3260 C   0  0  1  0  0  3  0  0  0  0  0  0
  192.2920  172.9040  144.1710 C   0  0  0  0  0  3  0  0  0  0  0  0
  191.1510  173.6740  144.0830 O   0  0  0  0  0  0  0  0  0  0  0  0
  191.0690  172.4490  144.6200 O   0  0  0  0  0  0  0  0  0  0  0  0
  194.3430  172.5780  145.5000 O   0  0  0  0  0  0  0  0  0  0  0  0
  194.9170  171.3010  143.6890 O   0  0  0  0  0  0  0  0  0  0  0  0
  194.4990  171.3420  144.8740 C   0  0  0  0  0  0  0  0  0  0  0  0
  194.1590  170.0620  145.5670 C   0  0  0  0  0  2  0  0  0  0  0  0
  195.1790  169.7270  146.4540 O   0  0  0  0  0  1  0  0  0  0  0  0
  194.5650  174.7560  143.0520 C   0  0  0  0  0  2  0  0  0  0  0  0
  196.8300  176.7270  143.4450 C   0  0  0  0  0  2  0  0  0  0  0  0
  196.8850  175.2850  143.9430 C   0  0  0  0  0  2  0  0  0  0  0  0
  197.2460  176.8120  142.0830 O   0  0  0  0  0  0  0  0  0  0  0  0
  197.1560  176.0440  139.9220 O   0  0  0  0  0  0  0  0  0  0  0  0
  196.0490  174.3840  143.0280 C   0  0  2  0  0  3  0  0  0  0  0  0
  196.9720  175.8090  141.1470 C   0  0  0  0  0  0  0  0  0  0  0  0
  196.6010  174.4190  141.5930 C   0  0  2  0  0  3  0  0  0  0  0  0
  195.6860  173.8290  140.6760 O   0  0  0  0  0  0  0  0  0  0  0  0
  196.1210  173.1050  139.5690 C   0  0  0  0  0  0  0  0  0  0  0  0
  197.2730  172.5940  139.5850 O   0  0  0  0  0  0  0  0  0  0  0  0
  195.2670  172.9290  138.4730 O   0  0  0  0  0  0  0  0  0  0  0  0
  195.8140  174.8890  137.3520 O   0  0  0  0  0  0  0  0  0  0  0  0
  195.1540  173.8130  137.3880 C   0  0  0  0  0  0  0  0  0  0  0  0
  194.2530  173.4740  136.2350 C   0  0  2  0  0  3  0  0  0  0  0  0
  192.7830  173.7280  136.4800 C   0  0  0  0  0  0  0  0  0  0  0  0
  192.0430  174.4150  135.4590 S   0  0  0  0  0  0  0  0  0  0  0  0
  190.8280  172.8170  137.8290 C   0  0  1  0  0  0  0  0  0  0  0  0
  190.5720  170.9680  141.0470 O   0  0  0  0  0  0  0  0  0  0  0  0
  189.8900  172.1970  140.9240 C   0  0  1  0  0  3  0  0  0  0  0  0
  192.1680  172.0670  139.7100 O   0  0  0  0  0  0  0  0  0  0  0  0
  189.7790  173.3920  138.7790 C   0  0  0  0  0  2  0  0  0  0  0  0
  190.3840  172.3900  136.5740 O   0  0  0  0  0  1  0  0  0  0  0  0
  192.1510  173.5820  137.8480 C   0  0  1  0  0  3  0  0  0  0  0  0
  189.1280  172.3090  139.6240 C   0  0  2  0  0  3  0  0  0  0  0  0
  192.0960  172.1240  138.3140 C   0  0  2  0  0  3  0  0  0  0  0  0
  188.9060  172.3210  141.9650 N   0  0  0  0  0  2  0  0  0  0  0  0
  191.5690  170.8410  140.0480 C   0  0  0  0  0  2  0  0  0  0  0  0
  187.7740  172.9470  141.3020 C   0  0  0  0  0  2  0  0  0  0  0  0
  187.8080  172.6680  139.9240 O   0  0  0  0  0  0  0  0  0  0  0  0
  193.3480  171.3750  135.4660 O   0  0  0  0  0  1  0  0  0  0  0  0
  194.5280  172.1040  135.6150 C   0  0  0  0  0  2  0  0  0  0  0  0
  1  3  1  0  0  0  0
  2  1  2  0  0  0  0
  3  4  1  6  0  0  0
  5  3  1  0  0  0  0
  7  6  1  0  0  0  0
  8  7  1  6  0  0  0
  8  9  1  0  0  0  0
  9  5  1  6  0  0  0
  9  6  1  0  0  0  0
 10  8  1  1  0  0  0
 11 10  1  0  0  0  0
 11 20  1  1  0  0  0
 12 13  1  6  0  0  0
 12 11  1  0  0  0  0
 12 10  1  0  0  0  0
 14 13  1  0  0  0  0
 15 13  2  0  0  0  0
 16 14  1  0  0  0  0
 18 17  2  0  0  0  0
 18 16  1  0  0  0  0
 19 18  1  0  0  0  0
 20 21  1  6  0  0  0
 20 22  1  0  0  0  0
 22 23  1  0  0  0  0
 24  1  1  6  0  0  0
 24 28  1  0  0  0  0
 25 27  1  0  0  0  0
 25 24  1  0  0  0  0
 26 25  1  0  0  0  0
 26 27  1  0  0  0  0
 29 30  2  0  0  0  0
 30 28  1  0  0  0  0
 30 31  1  0  0  0  0
 31 32  1  0  0  0  0
 33  2  1  0  0  0  0
 34 35  1  0  0  0  0
 36 34  1  0  0  0  0
 37 39  2  0  0  0  0
 38 33  1  6  0  0  0
 38 35  1  0  0  0  0
 39 40  1  0  0  0  0
 39 36  1  0  0  0  0
 40 41  1  6  0  0  0
 40 38  1  0  0  0  0
 42 43  2  0  0  0  0
 42 41  1  0  0  0  0
 44 42  1  0  0  0  0
 45 46  2  0  0  0  0
 46 44  1  0  0  0  0
 47 64  1  1  0  0  0
 47 48  1  0  0  0  0
 47 46  1  0  0  0  0
 49 48  2  0  0  0  0
 50 55  1  6  0  0  0
 50 56  1  0  0  0  0
 50 58  1  0  0  0  0
 50 54  1  0  0  0  0
 52 51  1  6  0  0  0
 52 59  1  0  0  0  0
 53 60  1  0  0  0  0
 56 48  1  6  0  0  0
 56 58  1  0  0  0  0
 57 54  1  6  0  0  0
 57 62  1  0  0  0  0
 57 52  1  0  0  0  0
 58 53  1  1  0  0  0
 60 51  1  0  0  0  0
 61 59  1  0  0  0  0
 62 61  1  0  0  0  0
 63 64  1  0  0  0  0
M  END
>  <MODEL>
8

>  <REMARK>
 VINA RESULT:      -5.3      2.618      8.499
  Name = 
  24 active torsions:
  status: ('A' for Active; 'I' for Inactive)
    1  A    between atoms: C_1  and  C_56
    2  A    between atoms: C_1  and  C_59
    3  A    between atoms: C_5  and  C_32
    4  A    between atoms: C_5  and  C_39
    5  A    between atoms: C_14  and  N_23
    6  A    between atoms: C_15  and  C_17
    7  A    between atoms: C_15  and  C_34
    8  A    between atoms: C_16  and  C_59
    9  A    between atoms: C_19  and  C_27
   10  A    between atoms: C_22  and  C_25
   11  A    between atoms: C_24  and  C_54
   12  A    between atoms: C_25  and  N_41
   13  A    between atoms: O_26  and  C_53
   14  A    between atoms: O_26  and  C_64
   15  A    between atoms: C_27  and  O_33
   16  A    between atoms: C_29  and  C_43
   17  A    between atoms: O_31  and  C_53
   18  A    between atoms: O_31  and  C_60
   19  A    between atoms: O_33  and  C_59
   20  A    between atoms: C_35  and  C_48
   21  A    between atoms: C_35  and  C_56
   22  A    between atoms: C_38  and  C_43
   23  A    between atoms: C_39  and  C_60
   24  A    between atoms: C_39  and  C_62
                            x       y       z     vdW  Elec       q    Type
                         _______ _______ _______ _____ _____    ______ ____

>  <TORSDO>
F 24

$$$$
=
 OpenBabel11072409183D

 64 70  0  0  1  0  0  0  0  0999 V2000
  185.1960  177.8450  144.0190 C   0  0  0  0  0  0  0  0  0  0  0  0
  185.5480  177.2290  142.8790 C   0  0  0  0  0  3  0  0  0  0  0  0
  184.1170  178.8870  143.9370 C   0  0  1  0  0  3  0  0  0  0  0  0
  184.5230  180.0740  144.5540 O   0  0  0  0  0  1  0  0  0  0  0  0
  183.5970  179.1490  142.5190 C   0  0  0  0  0  2  0  0  0  0  0  0
  183.3070  177.8830  140.3680 C   0  0  0  0  0  2  0  0  0  0  0  0
  181.9250  177.9480  140.0990 O   0  0  0  0  0  0  0  0  0  0  0  0
  181.5900  177.9720  141.4240 N   0  0  1  0  0  0  0  0  0  0  0  0
  182.9970  177.9220  141.8280 C   0  0  2  0  0  3  0  0  0  0  0  0
  180.5850  179.0460  141.6930 C   0  0  2  0  0  3  0  0  0  0  0  0
  179.1890  178.6660  142.2300 C   0  0  1  0  0  3  0  0  0  0  0  0
  179.3750  179.0960  140.7760 C   0  0  1  0  0  3  0  0  0  0  0  0
  178.9310  180.5130  140.5600 C   0  0  0  0  0  0  0  0  0  0  0  0
  179.5010  181.3270  139.5270 N   0  0  0  0  0  2  0  0  0  0  0  0
  178.0340  180.9840  141.3080 O   0  0  0  0  0  0  0  0  0  0  0  0
  179.1560  182.7300  139.3430 C   0  0  0  0  0  2  0  0  0  0  0  0
  179.9360  182.6060  137.1150 O   0  0  0  0  0  0  0  0  0  0  0  0
  179.8200  183.2860  138.1220 C   0  0  0  0  0  0  0  0  0  0  0  0
  180.2580  184.7130  138.1070 C   0  0  0  0  0  1  0  0  0  0  0  0
  178.8180  177.1930  142.2980 C   0  0  2  0  0  3  0  0  0  0  0  0
  178.0230  176.8630  141.2000 O   0  0  0  0  0  1  0  0  0  0  0  0
  178.0390  176.9320  143.5750 C   0  0  0  0  0  2  0  0  0  0  0  0
  178.3380  177.9130  144.5240 O   0  0  0  0  0  1  0  0  0  0  0  0
  185.8050  177.5010  145.3630 C   0  0  1  0  0  3  0  0  0  0  0  0
  184.8040  177.1430  146.4730 C   0  0  0  0  0  3  0  0  0  0  0  0
  183.9760  178.2120  146.7440 O   0  0  0  0  0  0  0  0  0  0  0  0
  184.9740  177.9310  147.5920 O   0  0  0  0  0  0  0  0  0  0  0  0
  186.8570  176.5470  145.2440 O   0  0  0  0  0  0  0  0  0  0  0  0
  188.1890  176.1540  147.0630 O   0  0  0  0  0  0  0  0  0  0  0  0
  188.0670  176.6730  145.9260 C   0  0  0  0  0  0  0  0  0  0  0  0
  189.2180  177.4320  145.3480 C   0  0  0  0  0  2  0  0  0  0  0  0
  190.3750  177.1450  146.0690 O   0  0  0  0  0  1  0  0  0  0  0  0
  186.5210  176.0910  142.8220 C   0  0  0  0  0  2  0  0  0  0  0  0
  187.0590  176.4900  139.8690 C   0  0  0  0  0  2  0  0  0  0  0  0
  187.7240  177.3290  140.9570 C   0  0  0  0  0  2  0  0  0  0  0  0
  187.7820  175.2810  139.6430 O   0  0  0  0  0  0  0  0  0  0  0  0
  188.8470  173.4170  140.4550 O   0  0  0  0  0  0  0  0  0  0  0  0
  187.8740  176.5000  142.2370 C   0  0  2  0  0  3  0  0  0  0  0  0
  188.4290  174.5860  140.6710 C   0  0  0  0  0  0  0  0  0  0  0  0
  188.7540  175.2650  141.9750 C   0  0  2  0  0  3  0  0  0  0  0  0
  188.6740  174.3400  143.0530 O   0  0  0  0  0  0  0  0  0  0  0  0
  189.8100  173.9080  143.7340 C   0  0  0  0  0  0  0  0  0  0  0  0
  189.6720  173.1980  144.7660 O   0  0  0  0  0  0  0  0  0  0  0  0
  191.0810  174.2400  143.2490 O   0  0  0  0  0  0  0  0  0  0  0  0
  192.6220  172.6770  144.0090 O   0  0  0  0  0  0  0  0  0  0  0  0
  192.2940  173.8870  143.8580 C   0  0  0  0  0  0  0  0  0  0  0  0
  193.2380  174.9580  144.3260 C   0  0  2  0  0  3  0  0  0  0  0  0
  194.6670  174.7970  143.8570 C   0  0  0  0  0  0  0  0  0  0  0  0
  195.7080  175.3440  144.6810 S   0  0  0  0  0  0  0  0  0  0  0  0
  194.5610  175.3870  141.3850 C   0  0  1  0  0  0  0  0  0  0  0  0
  197.0350  175.2640  138.6090 O   0  0  0  0  0  0  0  0  0  0  0  0
  195.8330  174.5380  138.4690 C   0  0  1  0  0  3  0  0  0  0  0  0
  196.8050  174.6200  140.8610 O   0  0  0  0  0  0  0  0  0  0  0  0
  194.0190  174.7310  140.1160 C   0  0  0  0  0  2  0  0  0  0  0  0
  193.8820  176.5130  141.8590 O   0  0  0  0  0  1  0  0  0  0  0  0
  195.0150  174.3810  142.4430 C   0  0  1  0  0  3  0  0  0  0  0  0
  194.6190  175.3460  138.8620 C   0  0  2  0  0  3  0  0  0  0  0  0
  196.0290  175.3240  141.7890 C   0  0  2  0  0  3  0  0  0  0  0  0
  195.6330  174.1780  137.0910 N   0  0  0  0  0  2  0  0  0  0  0  0
  197.2670  175.6000  139.9660 C   0  0  0  0  0  2  0  0  0  0  0  0
  194.2040  174.3480  136.8900 C   0  0  0  0  0  2  0  0  0  0  0  0
  193.6950  175.2830  137.8110 O   0  0  0  0  0  0  0  0  0  0  0  0
  192.1440  174.4950  146.4250 O   0  0  0  0  0  1  0  0  0  0  0  0
  193.1310  175.2710  145.8190 C   0  0  0  0  0  2  0  0  0  0  0  0
  2  1  2  0  0  0  0
  3  1  1  0  0  0  0
  3  4  1  6  0  0  0
  5  3  1  0  0  0  0
  6  9  1  0  0  0  0
  7  6  1  0  0  0  0
  8  7  1  6  0  0  0
  8  9  1  0  0  0  0
  9  5  1  6  0  0  0
 10  8  1  6  0  0  0
 10 11  1  0  0  0  0
 11 20  1  6  0  0  0
 12 13  1  1  0  0  0
 12 10  1  0  0  0  0
 12 11  1  0  0  0  0
 13 15  2  0  0  0  0
 14 13  1  0  0  0  0
 16 14  1  0  0  0  0
 17 18  2  0  0  0  0
 18 16  1  0  0  0  0
 19 18  1  0  0  0  0
 20 21  1  6  0  0  0
 20 22  1  0  0  0  0
 22 23  1  0  0  0  0
 24  1  1  6  0  0  0
 24 25  1  0  0  0  0
 25 26  1  0  0  0  0
 25 27  1  0  0  0  0
 26 27  1  0  0  0  0
 28 24  1  0  0  0  0
 28 30  1  0  0  0  0
 30 29  2  0  0  0  0
 31 30  1  0  0  0  0
 31 32  1  0  0  0  0
 33  2  1  0  0  0  0
 34 35  1  0  0  0  0
 35 38  1  0  0  0  0
 36 34  1  0  0  0  0
 36 39  1  0  0  0  0
 37 39  2  0  0  0  0
 38 33  1  6  0  0  0
 39 40  1  0  0  0  0
 40 38  1  0  0  0  0
 40 41  1  1  0  0  0
 41 42  1  0  0  0  0
 42 43  2  0  0  0  0
 44 42  1  0  0  0  0
 44 46  1  0  0  0  0
 46 45  2  0  0  0  0
 46 47  1  0  0  0  0
 47 64  1  1  0  0  0
 48 47  1  0  0  0  0
 48 49  2  0  0  0  0
 50 58  1  0  0  0  0
 50 55  1  1  0  0  0
 50 56  1  0  0  0  0
 51 60  1  0  0  0  0
 52 59  1  6  0  0  0
 52 51  1  0  0  0  0
 52 57  1  0  0  0  0
 54 50  1  0  0  0  0
 56 48  1  1  0  0  0
 57 54  1  1  0  0  0
 58 53  1  6  0  0  0
 58 56  1  0  0  0  0
 60 53  1  0  0  0  0
 61 59  1  0  0  0  0
 61 62  1  0  0  0  0
 62 57  1  0  0  0  0
 64 63  1  0  0  0  0
M  END
>  <MODEL>
9

>  <REMARK>
 VINA RESULT:      -5.3      4.109     11.887
  Name = 
  24 active torsions:
  status: ('A' for Active; 'I' for Inactive)
    1  A    between atoms: C_1  and  C_56
    2  A    between atoms: C_1  and  C_59
    3  A    between atoms: C_5  and  C_32
    4  A    between atoms: C_5  and  C_39
    5  A    between atoms: C_14  and  N_23
    6  A    between atoms: C_15  and  C_17
    7  A    between atoms: C_15  and  C_34
    8  A    between atoms: C_16  and  C_59
    9  A    between atoms: C_19  and  C_27
   10  A    between atoms: C_22  and  C_25
   11  A    between atoms: C_24  and  C_54
   12  A    between atoms: C_25  and  N_41
   13  A    between atoms: O_26  and  C_53
   14  A    between atoms: O_26  and  C_64
   15  A    between atoms: C_27  and  O_33
   16  A    between atoms: C_29  and  C_43
   17  A    between atoms: O_31  and  C_53
   18  A    between atoms: O_31  and  C_60
   19  A    between atoms: O_33  and  C_59
   20  A    between atoms: C_35  and  C_48
   21  A    between atoms: C_35  and  C_56
   22  A    between atoms: C_38  and  C_43
   23  A    between atoms: C_39  and  C_60
   24  A    between atoms: C_39  and  C_62
                            x       y       z     vdW  Elec       q    Type
                         _______ _______ _______ _____ _____    ______ ____

>  <TORSDO>
F 24

$$$$
