=
 OpenBabel11062422363D

 67 73  0  0  1  0  0  0  0  0999 V2000
  191.6180  172.6780  143.1770 C   0  0  0  0  0  0  0  0  0  0  0  0
  190.7750  171.5840  143.0420 C   0  0  0  0  0  3  0  0  0  0  0  0
  192.6290  171.1300  141.9940 N   0  0  0  0  0  0  0  0  0  0  0  0
  192.7560  172.3770  142.4770 C   0  0  0  0  0  3  0  0  0  0  0  0
  191.4320  170.6530  142.3170 N   0  0  0  0  0  0  0  0  0  0  0  0
  196.2960  173.3910  141.3530 C   0  0  0  0  0  2  0  0  0  0  0  0
  192.2300  171.4860  139.2610 O   0  0  0  0  0  0  0  0  0  0  0  0
  193.9040  172.9560  138.4380 C   0  0  1  0  0  0  0  0  0  0  0  0
  197.7210  171.6120  142.1080 O   0  0  0  0  0  1  0  0  0  0  0  0
  194.5880  171.8960  139.1530 C   0  0  2  0  0  3  0  0  0  0  0  0
  195.4580  175.3220  140.1030 C   0  0  0  0  0  1  0  0  0  0  0  0
  192.4640  172.4690  138.2750 C   0  0  1  0  0  3  0  0  0  0  0  0
  196.5000  171.8840  141.4780 C   0  0  1  0  0  3  0  0  0  0  0  0
  194.9700  170.2290  141.5920 C   0  0  1  0  0  3  0  0  0  0  0  0
  193.5520  170.4660  141.0440 C   0  0  2  0  0  3  0  0  0  0  0  0
  195.6220  173.8080  140.0440 C   0  0  2  0  0  3  0  0  0  0  0  0
  193.4800  170.9060  139.5470 C   0  0  1  0  0  3  0  0  0  0  0  0
  195.4480  171.3730  142.2540 O   0  0  0  0  0  0  0  0  0  0  0  0
  194.3100  173.1610  139.8660 N   0  0  1  0  0  0  0  0  0  0  0  0
  192.1020  171.8350  136.9230 C   0  0  1  0  0  3  0  0  0  0  0  0
  191.1790  168.3950  135.8890 F   0  0  0  0  0  0  0  0  0  0  0  0
  190.2880  171.9250  135.3300 C   0  0  0  0  0  0  0  0  0  0  0  0
  191.9750  170.3310  136.9100 C   0  0  0  0  0  3  0  0  0  0  0  0
  191.0330  172.5380  136.1950 N   0  0  0  0  0  0  0  0  0  0  0  0
  191.2060  169.7510  135.9950 C   0  0  0  0  0  0  0  0  0  0  0  0
  189.3400  172.6230  134.6460 F   0  0  0  0  0  0  0  0  0  0  0  0
  190.3770  170.5350  135.1650 O   0  0  0  0  0  0  0  0  0  0  0  0
  195.2350  173.3740  136.2570 C   0  0  0  0  0  1  0  0  0  0  0  0
  194.5550  173.9750  137.4820 C   0  0  0  0  0  3  0  0  0  0  0  0
  193.5430  175.0290  137.0510 C   0  0  0  0  0  1  0  0  0  0  0  0
  194.9180  169.0790  142.5780 C   0  0  0  0  0  2  0  0  0  0  0  0
  195.5340  169.4690  143.9070 C   0  0  0  0  0  2  0  0  0  0  0  0
  194.4140  169.7830  144.8980 C   0  0  1  0  0  3  0  0  0  0  0  0
  194.2380  168.6510  145.8960 C   0  0  0  0  0  1  0  0  0  0  0  0
  194.6220  171.1430  145.5830 C   0  0  0  0  0  2  0  0  0  0  0  0
  196.0760  171.4750  145.9100 C   0  0  0  0  0  2  0  0  0  0  0  0
  196.4930  172.7770  145.3020 C   0  0  0  0  0  3  0  0  0  0  0  0
  196.9110  173.7500  146.1180 C   0  0  0  0  0  2  0  0  0  0  0  0
  191.3540  174.0310  143.7930 C   0  0  0  0  0  2  0  0  0  0  0  0
  192.5550  174.8180  144.3340 C   0  0  1  0  0  3  0  0  0  0  0  0
  192.7490  176.1320  143.7260 N   0  0  0  0  0  2  0  0  0  0  0  0
  193.8650  176.0370  142.7950 C   0  0  0  0  0  1  0  0  0  0  0  0
  192.6480  174.8240  145.8090 N   0  0  0  0  0  2  0  0  0  0  0  0
  191.6060  175.6450  146.4170 C   0  0  2  0  0  3  0  0  0  0  0  0
  192.2280  176.5930  147.4230 C   0  0  0  0  0  1  0  0  0  0  0  0
  189.1890  175.1020  147.1600 C   0  0  0  0  0  0  0  0  0  0  0  0
  190.5930  174.8090  147.0590 N   0  0  0  0  0  2  0  0  0  0  0  0
  188.4710  174.3700  147.8850 O   0  0  0  0  0  0  0  0  0  0  0  0
  188.5650  176.2510  146.4060 C   0  0  0  0  0  2  0  0  0  0  0  0
  187.0930  176.4090  146.8060 C   0  0  0  0  0  2  0  0  0  0  0  0
  186.5220  177.7590  146.3440 C   0  0  0  0  0  2  0  0  0  0  0  0
  186.9360  178.2100  144.9480 C   0  0  0  0  0  2  0  0  0  0  0  0
  185.8710  179.0830  144.3020 C   0  0  0  0  0  2  0  0  0  0  0  0
  184.5910  178.2920  144.1350 C   0  0  0  0  0  2  0  0  0  0  0  0
  182.8560  178.5360  142.4410 C   0  0  0  0  0  2  0  0  0  0  0  0
  184.1600  178.3410  142.7160 C   0  0  0  0  0  0  0  0  0  0  0  0
  185.1390  178.5630  141.6200 C   0  0  0  0  0  2  0  0  0  0  0  0
  187.3410  177.4940  141.2750 C   0  0  1  0  0  3  0  0  0  0  0  0
  186.5850  177.4220  139.9530 C   0  0  0  0  0  2  0  0  0  0  0  0
  185.8360  177.2590  141.2580 C   0  0  2  0  0  3  0  0  0  0  0  0
  188.3500  175.3570  140.3660 C   0  0  0  0  0  2  0  0  0  0  0  0
  188.1340  176.2180  141.6380 C   0  0  0  0  0  0  0  0  0  0  0  0
  187.9270  173.2520  141.6310 C   0  0  0  0  0  2  0  0  0  0  0  0
  187.2490  175.4400  142.6250 C   0  0  0  0  0  2  0  0  0  0  0  0
  188.8890  173.9640  140.6840 C   0  0  0  0  0  2  0  0  0  0  0  0
  189.4950  176.5060  142.3020 C   0  0  0  0  0  1  0  0  0  0  0  0
  187.7910  174.0480  142.9290 C   0  0  0  0  0  2  0  0  0  0  0  0
  1 39  1  0  0  0  0
  2  1  1  0  0  0  0
  3  5  1  0  0  0  0
  3  4  1  0  0  0  0
  4  1  2  0  0  0  0
  5  2  2  0  0  0  0
  6 13  1  0  0  0  0
  7 17  1  0  0  0  0
  8 29  1  6  0  0  0
  8 10  1  0  0  0  0
  8 19  1  0  0  0  0
 10 17  1  0  0  0  0
 10 19  1  0  0  0  0
 12  8  1  0  0  0  0
 12  7  1  0  0  0  0
 13  9  1  0  0  0  0
 13 18  1  0  0  0  0
 14 18  1  0  0  0  0
 14 31  1  0  0  0  0
 15 14  1  0  0  0  0
 15  3  1  0  0  0  0
 16 11  1  0  0  0  0
 16  6  1  0  0  0  0
 17 15  1  0  0  0  0
 19 16  1  0  0  0  0
 20 12  1  0  0  0  0
 21 25  1  0  0  0  0
 22 24  2  0  0  0  0
 23 20  1  0  0  0  0
 24 20  1  0  0  0  0
 25 23  2  0  0  0  0
 26 22  1  0  0  0  0
 27 22  1  0  0  0  0
 27 25  1  0  0  0  0
 28 29  1  0  0  0  0
 30 29  1  0  0  0  0
 31 32  1  0  0  0  0
 32 33  1  0  0  0  0
 33 35  1  0  0  0  0
 33 34  1  0  0  0  0
 35 36  1  0  0  0  0
 37 36  1  0  0  0  0
 37 38  2  0  0  0  0
 39 40  1  0  0  0  0
 40 43  1  0  0  0  0
 41 40  1  0  0  0  0
 42 41  1  0  0  0  0
 43 44  1  0  0  0  0
 44 47  1  0  0  0  0
 44 45  1  0  0  0  0
 46 48  2  0  0  0  0
 47 46  1  0  0  0  0
 49 50  1  0  0  0  0
 49 46  1  0  0  0  0
 51 50  1  0  0  0  0
 52 51  1  0  0  0  0
 53 52  1  0  0  0  0
 54 53  1  0  0  0  0
 55 56  2  0  0  0  0
 56 54  1  0  0  0  0
 57 56  1  0  0  0  0
 58 62  1  0  0  0  0
 59 60  1  0  0  0  0
 59 58  1  0  0  0  0
 60 58  1  0  0  0  0
 60 57  1  0  0  0  0
 61 65  1  0  0  0  0
 61 62  1  0  0  0  0
 62 66  1  0  0  0  0
 62 64  1  0  0  0  0
 63 67  1  0  0  0  0
 64 67  1  0  0  0  0
 65 63  1  0  0  0  0
M  END
>  <MODEL>
1

>  <REMARK>
 VINA RESULT:      -5.8      0.000      0.000
  Name = 
  25 active torsions:
  status: ('A' for Active; 'I' for Inactive)
    1  A    between atoms: C_1  and  C_5
    2  A    between atoms: C_1  and  C_47
    3  A    between atoms: C_2  and  C_5
    4  A    between atoms: C_2  and  C_62
    5  A    between atoms: C_3  and  C_54
    6  A    between atoms: C_6  and  C_28
    7  A    between atoms: C_8  and  C_25
    8  A    between atoms: C_12  and  C_31
    9  A    between atoms: C_12  and  C_51
   10  A    between atoms: C_13  and  C_24
   11  A    between atoms: C_17  and  C_19
   12  A    between atoms: C_21  and  C_62
   13  A    between atoms: C_24  and  C_35
   14  A    between atoms: N_27  and  C_35
   15  A    between atoms: C_29  and  C_45
   16  A    between atoms: C_29  and  C_51
   17  A    between atoms: C_31  and  C_56
   18  A    between atoms: C_35  and  N_57
   19  A    between atoms: C_38  and  C_67
   20  A    between atoms: C_39  and  C_47
   21  A    between atoms: C_41  and  N_44
   22  A    between atoms: C_41  and  N_57
   23  A    between atoms: C_45  and  C_67
   24  A    between atoms: N_49  and  C_58
   25  A    between atoms: C_54  and  C_56
                            x       y       z     vdW  Elec       q    Type
                         _______ _______ _______ _____ _____    ______ ____

>  <TORSDO>
F 25

$$$$
=
 OpenBabel11062422363D

 67 73  0  0  1  0  0  0  0  0999 V2000
  195.4020  175.2390  142.4780 C   0  0  0  0  0  0  0  0  0  0  0  0
  196.3320  175.1850  141.4500 C   0  0  0  0  0  3  0  0  0  0  0  0
  194.8090  173.6810  141.0490 N   0  0  0  0  0  0  0  0  0  0  0  0
  194.4810  174.2580  142.2170 C   0  0  0  0  0  3  0  0  0  0  0  0
  195.9310  174.2240  140.5900 N   0  0  0  0  0  0  0  0  0  0  0  0
  197.5550  171.3820  138.5700 C   0  0  0  0  0  2  0  0  0  0  0  0
  193.3100  173.9290  138.7160 O   0  0  0  0  0  0  0  0  0  0  0  0
  194.5620  173.0250  136.9120 C   0  0  1  0  0  0  0  0  0  0  0  0
  197.3440  169.3900  139.8930 O   0  0  0  0  0  1  0  0  0  0  0  0
  194.5200  172.0100  137.9480 C   0  0  2  0  0  3  0  0  0  0  0  0
  197.8320  172.8740  136.6480 C   0  0  0  0  0  1  0  0  0  0  0  0
  193.5240  174.0680  137.3270 C   0  0  1  0  0  3  0  0  0  0  0  0
  196.6590  170.5350  139.4680 C   0  0  1  0  0  3  0  0  0  0  0  0
  194.9260  171.1590  140.7720 C   0  0  1  0  0  3  0  0  0  0  0  0
  194.1820  172.4700  140.4700 C   0  0  2  0  0  3  0  0  0  0  0  0
  196.8070  172.0410  137.4080 C   0  0  2  0  0  3  0  0  0  0  0  0
  193.5920  172.5860  139.0280 C   0  0  1  0  0  3  0  0  0  0  0  0
  196.3100  171.3140  140.5820 O   0  0  0  0  0  0  0  0  0  0  0  0
  195.7020  172.8960  137.8760 N   0  0  1  0  0  0  0  0  0  0  0  0
  192.1460  173.9720  136.6540 C   0  0  1  0  0  3  0  0  0  0  0  0
  188.7070  173.4730  137.9500 F   0  0  0  0  0  0  0  0  0  0  0  0
  190.6170  175.4320  135.4840 C   0  0  0  0  0  0  0  0  0  0  0  0
  191.0000  173.5670  137.5480 C   0  0  0  0  0  3  0  0  0  0  0  0
  191.8390  175.0900  135.7470 N   0  0  0  0  0  0  0  0  0  0  0  0
  189.7640  173.9340  137.2280 C   0  0  0  0  0  0  0  0  0  0  0  0
  190.3770  176.4430  134.6050 F   0  0  0  0  0  0  0  0  0  0  0  0
  189.5450  174.8420  136.1710 O   0  0  0  0  0  0  0  0  0  0  0  0
  194.1570  171.8090  134.6620 C   0  0  0  0  0  1  0  0  0  0  0  0
  194.9940  172.8120  135.4470 C   0  0  0  0  0  3  0  0  0  0  0  0
  195.0440  174.1410  134.7050 C   0  0  0  0  0  1  0  0  0  0  0  0
  194.6710  170.7830  142.2180 C   0  0  0  0  0  2  0  0  0  0  0  0
  194.6750  169.2790  142.4030 C   0  0  0  0  0  2  0  0  0  0  0  0
  193.3380  168.8510  143.0070 C   0  0  1  0  0  3  0  0  0  0  0  0
  192.8060  169.9110  143.9560 C   0  0  0  0  0  1  0  0  0  0  0  0
  192.3180  168.4690  141.9220 C   0  0  0  0  0  2  0  0  0  0  0  0
  191.4150  169.6130  141.4660 C   0  0  0  0  0  2  0  0  0  0  0  0
  191.3670  169.7150  139.9740 C   0  0  0  0  0  3  0  0  0  0  0  0
  190.4860  170.5580  139.4280 C   0  0  0  0  0  2  0  0  0  0  0  0
  195.4150  176.0490  143.7520 C   0  0  0  0  0  2  0  0  0  0  0  0
  195.1600  175.3110  145.0720 C   0  0  1  0  0  3  0  0  0  0  0  0
  196.2780  174.4950  145.5420 N   0  0  0  0  0  2  0  0  0  0  0  0
  195.8170  173.1170  145.6430 C   0  0  0  0  0  1  0  0  0  0  0  0
  194.5580  176.1580  146.1220 N   0  0  0  0  0  2  0  0  0  0  0  0
  193.1000  176.1270  146.0810 C   0  0  2  0  0  3  0  0  0  0  0  0
  192.6110  176.8280  144.8290 C   0  0  0  0  0  1  0  0  0  0  0  0
  191.1790  176.6130  147.7430 C   0  0  0  0  0  0  0  0  0  0  0  0
  192.5310  176.7520  147.2730 N   0  0  0  0  0  2  0  0  0  0  0  0
  190.7920  177.3420  148.6890 O   0  0  0  0  0  0  0  0  0  0  0  0
  190.2310  175.6080  147.1360 C   0  0  0  0  0  2  0  0  0  0  0  0
  188.9650  176.3120  146.6330 C   0  0  0  0  0  2  0  0  0  0  0  0
  187.7190  175.8630  147.4120 C   0  0  0  0  0  2  0  0  0  0  0  0
  186.5970  176.8900  147.5150 C   0  0  0  0  0  2  0  0  0  0  0  0
  186.5760  177.8200  146.3120 C   0  0  0  0  0  2  0  0  0  0  0  0
  185.4870  177.3920  145.3510 C   0  0  0  0  0  2  0  0  0  0  0  0
  185.1570  177.3710  142.9370 C   0  0  0  0  0  2  0  0  0  0  0  0
  186.0230  177.3770  143.9690 C   0  0  0  0  0  0  0  0  0  0  0  0
  187.4350  177.7490  143.6840 C   0  0  0  0  0  2  0  0  0  0  0  0
  189.3680  176.3190  143.1140 C   0  0  1  0  0  3  0  0  0  0  0  0
  189.2990  177.4310  142.0740 C   0  0  0  0  0  2  0  0  0  0  0  0
  188.0210  176.8320  142.6210 C   0  0  2  0  0  3  0  0  0  0  0  0
  188.4500  174.2980  141.8960 C   0  0  0  0  0  2  0  0  0  0  0  0
  189.7120  174.9230  142.5480 C   0  0  0  0  0  0  0  0  0  0  0  0
  188.9980  172.0480  142.8160 C   0  0  0  0  0  2  0  0  0  0  0  0
  190.1240  174.0690  143.7580 C   0  0  0  0  0  2  0  0  0  0  0  0
  188.6360  172.8220  141.5520 C   0  0  0  0  0  2  0  0  0  0  0  0
  190.8660  174.9380  141.5270 C   0  0  0  0  0  1  0  0  0  0  0  0
  190.2980  172.5960  143.4060 C   0  0  0  0  0  2  0  0  0  0  0  0
  1 39  1  0  0  0  0
  2  1  1  0  0  0  0
  3  4  1  0  0  0  0
  4  1  2  0  0  0  0
  5  3  1  0  0  0  0
  5  2  2  0  0  0  0
  6 13  1  0  0  0  0
  7 17  1  0  0  0  0
  8 29  1  6  0  0  0
  8 12  1  0  0  0  0
  8 19  1  0  0  0  0
  8 10  1  0  0  0  0
 10 17  1  0  0  0  0
 11 16  1  0  0  0  0
 12  7  1  0  0  0  0
 13  9  1  0  0  0  0
 13 18  1  0  0  0  0
 14 31  1  0  0  0  0
 15 14  1  0  0  0  0
 15  3  1  0  0  0  0
 16 19  1  0  0  0  0
 16  6  1  0  0  0  0
 17 15  1  0  0  0  0
 18 14  1  0  0  0  0
 19 10  1  0  0  0  0
 20 12  1  0  0  0  0
 20 23  1  0  0  0  0
 22 24  2  0  0  0  0
 22 27  1  0  0  0  0
 24 20  1  0  0  0  0
 25 23  2  0  0  0  0
 25 21  1  0  0  0  0
 26 22  1  0  0  0  0
 27 25  1  0  0  0  0
 28 29  1  0  0  0  0
 30 29  1  0  0  0  0
 31 32  1  0  0  0  0
 32 33  1  0  0  0  0
 33 34  1  0  0  0  0
 35 33  1  0  0  0  0
 36 35  1  0  0  0  0
 37 36  1  0  0  0  0
 38 37  2  0  0  0  0
 39 40  1  0  0  0  0
 40 41  1  0  0  0  0
 40 43  1  0  0  0  0
 41 42  1  0  0  0  0
 44 43  1  0  0  0  0
 44 47  1  0  0  0  0
 45 44  1  0  0  0  0
 46 48  2  0  0  0  0
 47 46  1  0  0  0  0
 49 46  1  0  0  0  0
 50 49  1  0  0  0  0
 50 51  1  0  0  0  0
 51 52  1  0  0  0  0
 53 52  1  0  0  0  0
 54 53  1  0  0  0  0
 55 56  2  0  0  0  0
 56 54  1  0  0  0  0
 57 56  1  0  0  0  0
 59 60  1  0  0  0  0
 59 58  1  0  0  0  0
 60 58  1  0  0  0  0
 60 57  1  0  0  0  0
 61 62  1  0  0  0  0
 62 58  1  0  0  0  0
 62 64  1  0  0  0  0
 63 67  1  0  0  0  0
 65 61  1  0  0  0  0
 65 63  1  0  0  0  0
 66 62  1  0  0  0  0
 67 64  1  0  0  0  0
M  END
>  <MODEL>
2

>  <REMARK>
 VINA RESULT:      -5.6      2.191      3.571
  Name = 
  25 active torsions:
  status: ('A' for Active; 'I' for Inactive)
    1  A    between atoms: C_1  and  C_5
    2  A    between atoms: C_1  and  C_47
    3  A    between atoms: C_2  and  C_5
    4  A    between atoms: C_2  and  C_62
    5  A    between atoms: C_3  and  C_54
    6  A    between atoms: C_6  and  C_28
    7  A    between atoms: C_8  and  C_25
    8  A    between atoms: C_12  and  C_31
    9  A    between atoms: C_12  and  C_51
   10  A    between atoms: C_13  and  C_24
   11  A    between atoms: C_17  and  C_19
   12  A    between atoms: C_21  and  C_62
   13  A    between atoms: C_24  and  C_35
   14  A    between atoms: N_27  and  C_35
   15  A    between atoms: C_29  and  C_45
   16  A    between atoms: C_29  and  C_51
   17  A    between atoms: C_31  and  C_56
   18  A    between atoms: C_35  and  N_57
   19  A    between atoms: C_38  and  C_67
   20  A    between atoms: C_39  and  C_47
   21  A    between atoms: C_41  and  N_44
   22  A    between atoms: C_41  and  N_57
   23  A    between atoms: C_45  and  C_67
   24  A    between atoms: N_49  and  C_58
   25  A    between atoms: C_54  and  C_56
                            x       y       z     vdW  Elec       q    Type
                         _______ _______ _______ _____ _____    ______ ____

>  <TORSDO>
F 25

$$$$
=
 OpenBabel11062422363D

 67 73  0  0  1  0  0  0  0  0999 V2000
  192.7410  177.2180  143.8710 C   0  0  0  0  0  0  0  0  0  0  0  0
  192.3470  178.5190  143.5920 C   0  0  0  0  0  3  0  0  0  0  0  0
  190.5910  177.4200  144.2630 N   0  0  0  0  0  0  0  0  0  0  0  0
  191.6100  176.5450  144.2520 C   0  0  0  0  0  3  0  0  0  0  0  0
  191.0240  178.6060  143.8510 N   0  0  0  0  0  0  0  0  0  0  0  0
  190.0040  173.4670  145.9950 C   0  0  0  0  0  2  0  0  0  0  0  0
  189.1420  176.4130  142.1090 O   0  0  0  0  0  0  0  0  0  0  0  0
  188.7850  174.0920  142.4550 C   0  0  1  0  0  0  0  0  0  0  0  0
  188.8260  174.3000  147.9140 O   0  0  0  0  0  1  0  0  0  0  0  0
  188.3300  174.7720  143.6530 C   0  0  2  0  0  3  0  0  0  0  0  0
  190.6970  172.0230  144.1430 C   0  0  0  0  0  1  0  0  0  0  0  0
  188.9820  175.1940  141.4150 C   0  0  1  0  0  3  0  0  0  0  0  0
  189.0820  174.5430  146.5590 C   0  0  1  0  0  3  0  0  0  0  0  0
  188.7880  176.6800  145.8930 C   0  0  1  0  0  3  0  0  0  0  0  0
  189.1600  177.0860  144.4570 C   0  0  2  0  0  3  0  0  0  0  0  0
  189.6640  173.0620  144.5590 C   0  0  2  0  0  3  0  0  0  0  0  0
  188.4540  176.2690  143.3280 C   0  0  1  0  0  3  0  0  0  0  0  0
  189.7310  175.7800  146.4180 O   0  0  0  0  0  0  0  0  0  0  0  0
  189.6980  174.2120  143.6380 N   0  0  1  0  0  0  0  0  0  0  0  0
  187.8390  175.4020  140.4090 C   0  0  1  0  0  3  0  0  0  0  0  0
  185.7270  178.3190  139.5220 F   0  0  0  0  0  0  0  0  0  0  0  0
  187.5580  175.5010  138.0110 C   0  0  0  0  0  0  0  0  0  0  0  0
  187.1090  176.7200  140.5020 C   0  0  0  0  0  3  0  0  0  0  0  0
  188.1630  174.9860  139.0350 N   0  0  0  0  0  0  0  0  0  0  0  0
  186.4950  177.2000  139.4250 C   0  0  0  0  0  0  0  0  0  0  0  0
  187.8550  175.0560  136.7610 F   0  0  0  0  0  0  0  0  0  0  0  0
  186.6770  176.5830  138.1700 O   0  0  0  0  0  0  0  0  0  0  0  0
  187.0180  172.2770  141.9190 C   0  0  0  0  0  1  0  0  0  0  0  0
  188.4930  172.6260  142.0750 C   0  0  0  0  0  3  0  0  0  0  0  0
  189.2560  172.2360  140.8160 C   0  0  0  0  0  1  0  0  0  0  0  0
  188.7690  177.9260  146.7550 C   0  0  0  0  0  2  0  0  0  0  0  0
  187.4460  178.0710  147.4800 C   0  0  0  0  0  2  0  0  0  0  0  0
  186.3330  177.5080  146.5970 C   0  0  1  0  0  3  0  0  0  0  0  0
  185.1530  177.0480  147.4360 C   0  0  0  0  0  1  0  0  0  0  0  0
  185.9210  178.4990  145.4970 C   0  0  0  0  0  2  0  0  0  0  0  0
  185.5960  177.8560  144.1510 C   0  0  0  0  0  2  0  0  0  0  0  0
  184.9610  178.8330  143.2130 C   0  0  0  0  0  3  0  0  0  0  0  0
  183.6270  178.9060  143.1850 C   0  0  0  0  0  2  0  0  0  0  0  0
  194.0760  176.5460  143.6550 C   0  0  0  0  0  2  0  0  0  0  0  0
  194.4550  175.3910  144.5920 C   0  0  1  0  0  3  0  0  0  0  0  0
  194.4730  175.7370  146.0120 N   0  0  0  0  0  2  0  0  0  0  0  0
  193.3070  175.1280  146.6370 C   0  0  0  0  0  1  0  0  0  0  0  0
  193.7500  174.1280  144.2960 N   0  0  0  0  0  2  0  0  0  0  0  0
  194.6770  173.0420  143.9960 C   0  0  2  0  0  3  0  0  0  0  0  0
  194.8800  172.1880  145.2310 C   0  0  0  0  0  1  0  0  0  0  0  0
  196.7920  172.9760  142.5080 C   0  0  0  0  0  0  0  0  0  0  0  0
  195.9550  173.5650  143.5190 N   0  0  0  0  0  2  0  0  0  0  0  0
  197.9400  173.4510  142.3240 O   0  0  0  0  0  0  0  0  0  0  0  0
  196.3150  171.8190  141.6640 C   0  0  0  0  0  2  0  0  0  0  0  0
  197.2450  171.6240  140.4600 C   0  0  0  0  0  2  0  0  0  0  0  0
  196.6230  172.1740  139.1680 C   0  0  0  0  0  2  0  0  0  0  0  0
  196.8070  173.6680  138.9280 C   0  0  0  0  0  2  0  0  0  0  0  0
  195.4720  174.3800  138.7780 C   0  0  0  0  0  2  0  0  0  0  0  0
  194.7950  174.4930  140.1280 C   0  0  0  0  0  2  0  0  0  0  0  0
  192.5120  174.4830  140.9790 C   0  0  0  0  0  2  0  0  0  0  0  0
  193.3630  174.1320  139.9950 C   0  0  0  0  0  0  0  0  0  0  0  0
  192.7810  173.7500  138.6810 C   0  0  0  0  0  2  0  0  0  0  0  0
  193.3110  171.3470  138.9050 C   0  0  1  0  0  3  0  0  0  0  0  0
  192.6270  171.5400  137.5580 C   0  0  0  0  0  2  0  0  0  0  0  0
  192.1790  172.3540  138.7520 C   0  0  2  0  0  3  0  0  0  0  0  0
  191.4060  169.7320  139.3230 C   0  0  0  0  0  2  0  0  0  0  0  0
  192.8760  170.0810  139.6780 C   0  0  0  0  0  0  0  0  0  0  0  0
  190.9030  169.1290  141.6880 C   0  0  0  0  0  2  0  0  0  0  0  0
  192.9580  170.4490  141.1680 C   0  0  0  0  0  2  0  0  0  0  0  0
  190.8210  168.6600  140.2380 C   0  0  0  0  0  2  0  0  0  0  0  0
  193.7740  168.8570  139.4120 C   0  0  0  0  0  1  0  0  0  0  0  0
  192.3620  169.3760  142.0720 C   0  0  0  0  0  2  0  0  0  0  0  0
  1  4  2  0  0  0  0
  2  5  2  0  0  0  0
  2  1  1  0  0  0  0
  3 15  1  0  0  0  0
  4  3  1  0  0  0  0
  5  3  1  0  0  0  0
  6 13  1  0  0  0  0
  7 17  1  0  0  0  0
  8 29  1  6  0  0  0
  8 19  1  0  0  0  0
  8 10  1  0  0  0  0
 11 16  1  0  0  0  0
 12  7  1  0  0  0  0
 12  8  1  0  0  0  0
 13  9  1  0  0  0  0
 14 18  1  0  0  0  0
 14 31  1  0  0  0  0
 15 14  1  0  0  0  0
 16  6  1  0  0  0  0
 17 10  1  0  0  0  0
 17 15  1  0  0  0  0
 18 13  1  0  0  0  0
 19 10  1  0  0  0  0
 19 16  1  0  0  0  0
 20 23  1  0  0  0  0
 20 12  1  0  0  0  0
 22 27  1  0  0  0  0
 22 24  2  0  0  0  0
 24 20  1  0  0  0  0
 25 21  1  0  0  0  0
 25 23  2  0  0  0  0
 26 22  1  0  0  0  0
 27 25  1  0  0  0  0
 28 29  1  0  0  0  0
 30 29  1  0  0  0  0
 31 32  1  0  0  0  0
 33 34  1  0  0  0  0
 33 32  1  0  0  0  0
 35 33  1  0  0  0  0
 36 35  1  0  0  0  0
 37 36  1  0  0  0  0
 38 37  2  0  0  0  0
 39  1  1  0  0  0  0
 39 40  1  0  0  0  0
 40 41  1  0  0  0  0
 41 42  1  0  0  0  0
 43 40  1  0  0  0  0
 44 43  1  0  0  0  0
 44 45  1  0  0  0  0
 46 47  1  0  0  0  0
 47 44  1  0  0  0  0
 48 46  2  0  0  0  0
 49 46  1  0  0  0  0
 50 49  1  0  0  0  0
 51 50  1  0  0  0  0
 52 51  1  0  0  0  0
 53 52  1  0  0  0  0
 53 54  1  0  0  0  0
 56 54  1  0  0  0  0
 56 55  2  0  0  0  0
 57 60  1  0  0  0  0
 57 56  1  0  0  0  0
 58 62  1  0  0  0  0
 59 60  1  0  0  0  0
 59 58  1  0  0  0  0
 60 58  1  0  0  0  0
 61 62  1  0  0  0  0
 61 65  1  0  0  0  0
 62 64  1  0  0  0  0
 63 67  1  0  0  0  0
 64 67  1  0  0  0  0
 65 63  1  0  0  0  0
 66 62  1  0  0  0  0
M  END
>  <MODEL>
3

>  <REMARK>
 VINA RESULT:      -5.2      2.535      8.769
  Name = 
  25 active torsions:
  status: ('A' for Active; 'I' for Inactive)
    1  A    between atoms: C_1  and  C_5
    2  A    between atoms: C_1  and  C_47
    3  A    between atoms: C_2  and  C_5
    4  A    between atoms: C_2  and  C_62
    5  A    between atoms: C_3  and  C_54
    6  A    between atoms: C_6  and  C_28
    7  A    between atoms: C_8  and  C_25
    8  A    between atoms: C_12  and  C_31
    9  A    between atoms: C_12  and  C_51
   10  A    between atoms: C_13  and  C_24
   11  A    between atoms: C_17  and  C_19
   12  A    between atoms: C_21  and  C_62
   13  A    between atoms: C_24  and  C_35
   14  A    between atoms: N_27  and  C_35
   15  A    between atoms: C_29  and  C_45
   16  A    between atoms: C_29  and  C_51
   17  A    between atoms: C_31  and  C_56
   18  A    between atoms: C_35  and  N_57
   19  A    between atoms: C_38  and  C_67
   20  A    between atoms: C_39  and  C_47
   21  A    between atoms: C_41  and  N_44
   22  A    between atoms: C_41  and  N_57
   23  A    between atoms: C_45  and  C_67
   24  A    between atoms: N_49  and  C_58
   25  A    between atoms: C_54  and  C_56
                            x       y       z     vdW  Elec       q    Type
                         _______ _______ _______ _____ _____    ______ ____

>  <TORSDO>
F 25

$$$$
=
 OpenBabel11062422363D

 67 73  0  0  1  0  0  0  0  0999 V2000
  193.5140  175.9470  142.5600 C   0  0  0  0  0  0  0  0  0  0  0  0
  194.7760  176.1690  142.0260 C   0  0  0  0  0  3  0  0  0  0  0  0
  193.9000  174.4710  140.9820 N   0  0  0  0  0  0  0  0  0  0  0  0
  193.0080  174.8520  141.9110 C   0  0  0  0  0  3  0  0  0  0  0  0
  194.9740  175.2490  141.0570 N   0  0  0  0  0  0  0  0  0  0  0  0
  197.5850  173.6950  138.7920 C   0  0  0  0  0  2  0  0  0  0  0  0
  192.7250  174.5910  138.4600 O   0  0  0  0  0  0  0  0  0  0  0  0
  194.4390  174.4850  136.8210 C   0  0  1  0  0  0  0  0  0  0  0  0
  197.9400  171.5540  139.8190 O   0  0  0  0  0  1  0  0  0  0  0  0
  194.6350  173.3550  137.7090 C   0  0  2  0  0  3  0  0  0  0  0  0
  197.5480  175.4970  137.1340 C   0  0  0  0  0  1  0  0  0  0  0  0
  193.0500  175.0280  137.1580 C   0  0  1  0  0  3  0  0  0  0  0  0
  196.9480  172.4540  139.4110 C   0  0  1  0  0  3  0  0  0  0  0  0
  194.9550  172.2230  140.4440 C   0  0  1  0  0  3  0  0  0  0  0  0
  193.8320  173.2360  140.1650 C   0  0  2  0  0  3  0  0  0  0  0  0
  196.8050  174.2490  137.5980 C   0  0  2  0  0  3  0  0  0  0  0  0
  193.4310  173.3900  138.6630 C   0  0  1  0  0  3  0  0  0  0  0  0
  196.2010  172.8670  140.5250 O   0  0  0  0  0  0  0  0  0  0  0  0
  195.4150  174.5870  137.9530 N   0  0  1  0  0  0  0  0  0  0  0  0
  191.8990  174.5880  136.2410 C   0  0  1  0  0  3  0  0  0  0  0  0
  188.9640  172.3740  136.7230 F   0  0  0  0  0  0  0  0  0  0  0  0
  189.9540  175.5800  135.2040 C   0  0  0  0  0  0  0  0  0  0  0  0
  190.9990  173.5050  136.7840 C   0  0  0  0  0  3  0  0  0  0  0  0
  191.1840  175.7020  135.5950 N   0  0  0  0  0  0  0  0  0  0  0  0
  189.7480  173.4170  136.3420 C   0  0  0  0  0  0  0  0  0  0  0  0
  189.3450  176.6180  134.5710 F   0  0  0  0  0  0  0  0  0  0  0  0
  189.2140  174.4290  135.5180 O   0  0  0  0  0  0  0  0  0  0  0  0
  195.1750  173.4370  134.5700 C   0  0  0  0  0  1  0  0  0  0  0  0
  195.1020  174.6850  135.4430 C   0  0  0  0  0  3  0  0  0  0  0  0
  194.4250  175.8150  134.6800 C   0  0  0  0  0  1  0  0  0  0  0  0
  194.6700  171.5420  141.7680 C   0  0  0  0  0  2  0  0  0  0  0  0
  195.9510  171.2620  142.5280 C   0  0  0  0  0  2  0  0  0  0  0  0
  195.6020  170.6010  143.8600 C   0  0  1  0  0  3  0  0  0  0  0  0
  196.6500  169.5710  144.2480 C   0  0  0  0  0  1  0  0  0  0  0  0
  195.3610  171.6390  144.9680 C   0  0  0  0  0  2  0  0  0  0  0  0
  196.5490  171.8600  145.9020 C   0  0  0  0  0  2  0  0  0  0  0  0
  197.5210  172.8430  145.3300 C   0  0  0  0  0  3  0  0  0  0  0  0
  197.1030  174.0950  145.1200 C   0  0  0  0  0  2  0  0  0  0  0  0
  192.8320  176.6050  143.7350 C   0  0  0  0  0  2  0  0  0  0  0  0
  191.9830  175.7220  144.6570 C   0  0  1  0  0  3  0  0  0  0  0  0
  192.5670  174.4170  144.9620 N   0  0  0  0  0  2  0  0  0  0  0  0
  193.7030  174.6300  145.8490 C   0  0  0  0  0  1  0  0  0  0  0  0
  191.4570  176.4300  145.8420 N   0  0  0  0  0  2  0  0  0  0  0  0
  190.0690  176.8400  145.6620 C   0  0  2  0  0  3  0  0  0  0  0  0
  189.9630  177.7750  144.4730 C   0  0  0  0  0  1  0  0  0  0  0  0
  188.1840  177.8350  147.1280 C   0  0  0  0  0  0  0  0  0  0  0  0
  189.5550  177.4850  146.8680 N   0  0  0  0  0  2  0  0  0  0  0  0
  187.9210  178.5340  148.1370 O   0  0  0  0  0  0  0  0  0  0  0  0
  187.0650  177.3690  146.2270 C   0  0  0  0  0  2  0  0  0  0  0  0
  186.2060  178.5620  145.7920 C   0  0  0  0  0  2  0  0  0  0  0  0
  184.7270  178.1710  145.6460 C   0  0  0  0  0  2  0  0  0  0  0  0
  183.9880  178.8050  144.4730 C   0  0  0  0  0  2  0  0  0  0  0  0
  184.8340  178.8010  143.2100 C   0  0  0  0  0  2  0  0  0  0  0  0
  184.9340  177.3930  142.6630 C   0  0  0  0  0  2  0  0  0  0  0  0
  185.7250  178.0600  140.4570 C   0  0  0  0  0  2  0  0  0  0  0  0
  185.9480  177.3520  141.5810 C   0  0  0  0  0  0  0  0  0  0  0  0
  187.3360  176.8870  141.8410 C   0  0  0  0  0  2  0  0  0  0  0  0
  188.8950  174.9700  141.8210 C   0  0  1  0  0  3  0  0  0  0  0  0
  188.3790  175.1540  140.3990 C   0  0  0  0  0  2  0  0  0  0  0  0
  187.4540  175.3930  141.5720 C   0  0  2  0  0  3  0  0  0  0  0  0
  189.4300  173.4540  143.7770 C   0  0  0  0  0  2  0  0  0  0  0  0
  189.0080  173.5000  142.2840 C   0  0  0  0  0  0  0  0  0  0  0  0
  190.9570  171.5280  143.3610 C   0  0  0  0  0  2  0  0  0  0  0  0
  190.1230  172.8740  141.4300 C   0  0  0  0  0  2  0  0  0  0  0  0
  189.8180  172.0500  144.2340 C   0  0  0  0  0  2  0  0  0  0  0  0
  187.7110  172.6900  142.0900 C   0  0  0  0  0  1  0  0  0  0  0  0
  190.5090  171.4760  141.9000 C   0  0  0  0  0  2  0  0  0  0  0  0
  1 39  1  0  0  0  0
  2  1  1  0  0  0  0
  3  5  1  0  0  0  0
  3  4  1  0  0  0  0
  4  1  2  0  0  0  0
  5  2  2  0  0  0  0
  6 13  1  0  0  0  0
  7 17  1  0  0  0  0
  8 29  1  6  0  0  0
  8 12  1  0  0  0  0
  8 10  1  0  0  0  0
  8 19  1  0  0  0  0
 10 19  1  0  0  0  0
 10 17  1  0  0  0  0
 11 16  1  0  0  0  0
 12  7  1  0  0  0  0
 13  9  1  0  0  0  0
 13 18  1  0  0  0  0
 14 18  1  0  0  0  0
 14 31  1  0  0  0  0
 15 14  1  0  0  0  0
 15  3  1  0  0  0  0
 16 19  1  0  0  0  0
 16  6  1  0  0  0  0
 17 15  1  0  0  0  0
 20 23  1  0  0  0  0
 20 12  1  0  0  0  0
 22 27  1  0  0  0  0
 22 24  2  0  0  0  0
 24 20  1  0  0  0  0
 25 21  1  0  0  0  0
 25 23  2  0  0  0  0
 26 22  1  0  0  0  0
 27 25  1  0  0  0  0
 28 29  1  0  0  0  0
 30 29  1  0  0  0  0
 31 32  1  0  0  0  0
 32 33  1  0  0  0  0
 33 34  1  0  0  0  0
 33 35  1  0  0  0  0
 35 36  1  0  0  0  0
 37 36  1  0  0  0  0
 38 37  2  0  0  0  0
 39 40  1  0  0  0  0
 40 41  1  0  0  0  0
 40 43  1  0  0  0  0
 41 42  1  0  0  0  0
 44 43  1  0  0  0  0
 44 47  1  0  0  0  0
 45 44  1  0  0  0  0
 46 48  2  0  0  0  0
 47 46  1  0  0  0  0
 49 46  1  0  0  0  0
 50 49  1  0  0  0  0
 51 50  1  0  0  0  0
 52 51  1  0  0  0  0
 53 52  1  0  0  0  0
 54 53  1  0  0  0  0
 55 56  2  0  0  0  0
 56 57  1  0  0  0  0
 56 54  1  0  0  0  0
 58 62  1  0  0  0  0
 59 60  1  0  0  0  0
 59 58  1  0  0  0  0
 60 58  1  0  0  0  0
 60 57  1  0  0  0  0
 61 65  1  0  0  0  0
 62 61  1  0  0  0  0
 63 65  1  0  0  0  0
 64 67  1  0  0  0  0
 64 62  1  0  0  0  0
 66 62  1  0  0  0  0
 67 63  1  0  0  0  0
M  END
>  <MODEL>
4

>  <REMARK>
 VINA RESULT:      -5.1      2.065      3.074
  Name = 
  25 active torsions:
  status: ('A' for Active; 'I' for Inactive)
    1  A    between atoms: C_1  and  C_5
    2  A    between atoms: C_1  and  C_47
    3  A    between atoms: C_2  and  C_5
    4  A    between atoms: C_2  and  C_62
    5  A    between atoms: C_3  and  C_54
    6  A    between atoms: C_6  and  C_28
    7  A    between atoms: C_8  and  C_25
    8  A    between atoms: C_12  and  C_31
    9  A    between atoms: C_12  and  C_51
   10  A    between atoms: C_13  and  C_24
   11  A    between atoms: C_17  and  C_19
   12  A    between atoms: C_21  and  C_62
   13  A    between atoms: C_24  and  C_35
   14  A    between atoms: N_27  and  C_35
   15  A    between atoms: C_29  and  C_45
   16  A    between atoms: C_29  and  C_51
   17  A    between atoms: C_31  and  C_56
   18  A    between atoms: C_35  and  N_57
   19  A    between atoms: C_38  and  C_67
   20  A    between atoms: C_39  and  C_47
   21  A    between atoms: C_41  and  N_44
   22  A    between atoms: C_41  and  N_57
   23  A    between atoms: C_45  and  C_67
   24  A    between atoms: N_49  and  C_58
   25  A    between atoms: C_54  and  C_56
                            x       y       z     vdW  Elec       q    Type
                         _______ _______ _______ _____ _____    ______ ____

>  <TORSDO>
F 25

$$$$
=
 OpenBabel11062422363D

 67 73  0  0  1  0  0  0  0  0999 V2000
  191.3760  174.1040  141.5490 C   0  0  0  0  0  0  0  0  0  0  0  0
  192.5160  174.8930  141.5000 C   0  0  0  0  0  3  0  0  0  0  0  0
  193.0090  172.9560  140.6370 N   0  0  0  0  0  0  0  0  0  0  0  0
  191.7280  172.8840  141.0370 C   0  0  0  0  0  3  0  0  0  0  0  0
  193.4940  174.1570  140.9280 N   0  0  0  0  0  0  0  0  0  0  0  0
  197.2330  173.9760  140.3330 C   0  0  0  0  0  2  0  0  0  0  0  0
  193.1940  172.4500  137.9050 O   0  0  0  0  0  0  0  0  0  0  0  0
  195.3390  173.1360  137.1520 C   0  0  1  0  0  0  0  0  0  0  0  0
  197.9240  172.2830  141.8880 O   0  0  0  0  0  1  0  0  0  0  0  0
  195.5510  172.2540  138.2840 C   0  0  2  0  0  3  0  0  0  0  0  0
  197.2210  175.5090  138.4230 C   0  0  0  0  0  1  0  0  0  0  0  0
  193.8680  172.9620  136.7750 C   0  0  1  0  0  3  0  0  0  0  0  0
  196.9600  172.5950  140.9220 C   0  0  1  0  0  3  0  0  0  0  0  0
  195.0140  171.4670  141.1050 C   0  0  1  0  0  3  0  0  0  0  0  0
  193.8410  171.8200  140.1750 C   0  0  2  0  0  3  0  0  0  0  0  0
  196.9390  174.0680  138.8340 C   0  0  2  0  0  3  0  0  0  0  0  0
  194.1520  171.7330  138.6460 C   0  0  1  0  0  3  0  0  0  0  0  0
  195.6900  172.6270  141.5190 O   0  0  0  0  0  0  0  0  0  0  0  0
  195.5440  173.7130  138.5200 N   0  0  1  0  0  0  0  0  0  0  0  0
  193.5650  172.0090  135.6080 C   0  0  1  0  0  3  0  0  0  0  0  0
  194.6730  168.5680  134.7790 F   0  0  0  0  0  0  0  0  0  0  0  0
  191.6910  170.7300  134.7770 C   0  0  0  0  0  0  0  0  0  0  0  0
  194.3890  170.7450  135.5570 C   0  0  0  0  0  3  0  0  0  0  0  0
  192.1300  171.8060  135.3520 N   0  0  0  0  0  0  0  0  0  0  0  0
  193.8970  169.6730  134.9460 C   0  0  0  0  0  0  0  0  0  0  0  0
  190.3620  170.6020  134.5190 F   0  0  0  0  0  0  0  0  0  0  0  0
  192.5550  169.6560  134.5140 O   0  0  0  0  0  0  0  0  0  0  0  0
  197.1510  172.4760  135.4250 C   0  0  0  0  0  1  0  0  0  0  0  0
  196.4110  173.5980  136.1450 C   0  0  0  0  0  3  0  0  0  0  0  0
  195.8130  174.5620  135.1290 C   0  0  0  0  0  1  0  0  0  0  0  0
  194.4620  170.7610  142.3270 C   0  0  0  0  0  2  0  0  0  0  0  0
  194.2870  171.7240  143.4850 C   0  0  0  0  0  2  0  0  0  0  0  0
  193.3850  171.0770  144.5350 C   0  0  1  0  0  3  0  0  0  0  0  0
  191.9240  171.3970  144.2680 C   0  0  0  0  0  1  0  0  0  0  0  0
  193.6430  169.5670  144.6560 C   0  0  0  0  0  2  0  0  0  0  0  0
  194.4880  169.1610  145.8610 C   0  0  0  0  0  2  0  0  0  0  0  0
  195.9440  169.4030  145.6180 C   0  0  0  0  0  3  0  0  0  0  0  0
  196.5920  170.2320  146.4430 C   0  0  0  0  0  2  0  0  0  0  0  0
  190.0350  174.3840  142.1830 C   0  0  0  0  0  2  0  0  0  0  0  0
  188.8590  174.7160  141.2540 C   0  0  1  0  0  3  0  0  0  0  0  0
  188.1560  173.5520  140.7190 N   0  0  0  0  0  2  0  0  0  0  0  0
  188.0450  172.5650  141.7840 C   0  0  0  0  0  1  0  0  0  0  0  0
  187.9610  175.7640  141.7810 N   0  0  0  0  0  2  0  0  0  0  0  0
  188.3290  177.0910  141.3000 C   0  0  2  0  0  3  0  0  0  0  0  0
  188.7070  177.9730  142.4730 C   0  0  0  0  0  1  0  0  0  0  0  0
  185.9120  177.9720  141.0300 C   0  0  0  0  0  0  0  0  0  0  0  0
  187.2340  177.6910  140.5400 N   0  0  0  0  0  2  0  0  0  0  0  0
  185.0300  178.3350  140.2140 O   0  0  0  0  0  0  0  0  0  0  0  0
  185.5710  177.8550  142.4970 C   0  0  0  0  0  2  0  0  0  0  0  0
  184.0570  177.9760  142.7000 C   0  0  0  0  0  2  0  0  0  0  0  0
  183.7030  179.1290  143.6520 C   0  0  0  0  0  2  0  0  0  0  0  0
  183.8480  178.8260  145.1390 C   0  0  0  0  0  2  0  0  0  0  0  0
  185.2230  178.2630  145.4650 C   0  0  0  0  0  2  0  0  0  0  0  0
  185.8620  179.0790  146.5690 C   0  0  0  0  0  2  0  0  0  0  0  0
  187.2760  178.5210  148.4740 C   0  0  0  0  0  2  0  0  0  0  0  0
  186.9680  178.3020  147.1810 C   0  0  0  0  0  0  0  0  0  0  0  0
  187.4760  177.0540  146.5510 C   0  0  0  0  0  2  0  0  0  0  0  0
  189.5350  175.8590  145.8890 C   0  0  1  0  0  3  0  0  0  0  0  0
  189.1900  175.4230  147.3080 C   0  0  0  0  0  2  0  0  0  0  0  0
  188.9490  176.8550  146.8800 C   0  0  2  0  0  3  0  0  0  0  0  0
  191.7020  174.7800  145.1460 C   0  0  0  0  0  2  0  0  0  0  0  0
  191.0400  176.0970  145.6320 C   0  0  0  0  0  0  0  0  0  0  0  0
  193.7350  175.2090  146.5210 C   0  0  0  0  0  2  0  0  0  0  0  0
  191.6420  176.4870  146.9920 C   0  0  0  0  0  2  0  0  0  0  0  0
  193.2260  174.8620  145.1250 C   0  0  0  0  0  2  0  0  0  0  0  0
  191.3220  177.2210  144.6160 C   0  0  0  0  0  1  0  0  0  0  0  0
  193.1650  176.5570  146.9610 C   0  0  0  0  0  2  0  0  0  0  0  0
  1 39  1  0  0  0  0
  2  1  1  0  0  0  0
  3  5  1  0  0  0  0
  3  4  1  0  0  0  0
  4  1  2  0  0  0  0
  5  2  2  0  0  0  0
  6 13  1  0  0  0  0
  7 17  1  0  0  0  0
  8 29  1  6  0  0  0
  8 10  1  0  0  0  0
  8 19  1  0  0  0  0
 10 19  1  0  0  0  0
 10 17  1  0  0  0  0
 11 16  1  0  0  0  0
 12  8  1  0  0  0  0
 12  7  1  0  0  0  0
 13 18  1  0  0  0  0
 13  9  1  0  0  0  0
 14 18  1  0  0  0  0
 14 31  1  0  0  0  0
 15  3  1  0  0  0  0
 15 14  1  0  0  0  0
 16  6  1  0  0  0  0
 17 15  1  0  0  0  0
 19 16  1  0  0  0  0
 20 12  1  0  0  0  0
 21 25  1  0  0  0  0
 22 24  2  0  0  0  0
 23 20  1  0  0  0  0
 24 20  1  0  0  0  0
 25 23  2  0  0  0  0
 26 22  1  0  0  0  0
 27 22  1  0  0  0  0
 27 25  1  0  0  0  0
 28 29  1  0  0  0  0
 30 29  1  0  0  0  0
 31 32  1  0  0  0  0
 32 33  1  0  0  0  0
 33 35  1  0  0  0  0
 34 33  1  0  0  0  0
 35 36  1  0  0  0  0
 37 36  1  0  0  0  0
 37 38  2  0  0  0  0
 40 43  1  0  0  0  0
 40 39  1  0  0  0  0
 41 40  1  0  0  0  0
 41 42  1  0  0  0  0
 44 43  1  0  0  0  0
 44 45  1  0  0  0  0
 46 49  1  0  0  0  0
 47 46  1  0  0  0  0
 47 44  1  0  0  0  0
 48 46  2  0  0  0  0
 49 50  1  0  0  0  0
 50 51  1  0  0  0  0
 51 52  1  0  0  0  0
 52 53  1  0  0  0  0
 53 54  1  0  0  0  0
 54 56  1  0  0  0  0
 56 55  2  0  0  0  0
 57 60  1  0  0  0  0
 57 56  1  0  0  0  0
 58 60  1  0  0  0  0
 58 59  1  0  0  0  0
 60 59  1  0  0  0  0
 61 62  1  0  0  0  0
 62 58  1  0  0  0  0
 62 64  1  0  0  0  0
 63 67  1  0  0  0  0
 65 61  1  0  0  0  0
 65 63  1  0  0  0  0
 66 62  1  0  0  0  0
 67 64  1  0  0  0  0
M  END
>  <MODEL>
5

>  <REMARK>
 VINA RESULT:      -5.0      2.275      4.336
  Name = 
  25 active torsions:
  status: ('A' for Active; 'I' for Inactive)
    1  A    between atoms: C_1  and  C_5
    2  A    between atoms: C_1  and  C_47
    3  A    between atoms: C_2  and  C_5
    4  A    between atoms: C_2  and  C_62
    5  A    between atoms: C_3  and  C_54
    6  A    between atoms: C_6  and  C_28
    7  A    between atoms: C_8  and  C_25
    8  A    between atoms: C_12  and  C_31
    9  A    between atoms: C_12  and  C_51
   10  A    between atoms: C_13  and  C_24
   11  A    between atoms: C_17  and  C_19
   12  A    between atoms: C_21  and  C_62
   13  A    between atoms: C_24  and  C_35
   14  A    between atoms: N_27  and  C_35
   15  A    between atoms: C_29  and  C_45
   16  A    between atoms: C_29  and  C_51
   17  A    between atoms: C_31  and  C_56
   18  A    between atoms: C_35  and  N_57
   19  A    between atoms: C_38  and  C_67
   20  A    between atoms: C_39  and  C_47
   21  A    between atoms: C_41  and  N_44
   22  A    between atoms: C_41  and  N_57
   23  A    between atoms: C_45  and  C_67
   24  A    between atoms: N_49  and  C_58
   25  A    between atoms: C_54  and  C_56
                            x       y       z     vdW  Elec       q    Type
                         _______ _______ _______ _____ _____    ______ ____

>  <TORSDO>
F 25

$$$$
=
 OpenBabel11062422363D

 67 73  0  0  1  0  0  0  0  0999 V2000
  192.6290  177.3390  143.7710 C   0  0  0  0  0  0  0  0  0  0  0  0
  192.1850  178.6160  143.4580 C   0  0  0  0  0  3  0  0  0  0  0  0
  190.4880  177.4910  144.2300 N   0  0  0  0  0  0  0  0  0  0  0  0
  191.5340  176.6480  144.2160 C   0  0  0  0  0  3  0  0  0  0  0  0
  190.8700  178.6730  143.7590 N   0  0  0  0  0  0  0  0  0  0  0  0
  190.0620  173.4500  145.7970 C   0  0  0  0  0  2  0  0  0  0  0  0
  188.9370  176.5620  142.1120 O   0  0  0  0  0  0  0  0  0  0  0  0
  188.6380  174.2200  142.3640 C   0  0  1  0  0  0  0  0  0  0  0  0
  188.9790  174.1680  147.8150 O   0  0  0  0  0  1  0  0  0  0  0  0
  188.2400  174.8340  143.6160 C   0  0  2  0  0  3  0  0  0  0  0  0
  190.6740  172.1090  143.8410 C   0  0  0  0  0  1  0  0  0  0  0  0
  188.7590  175.3750  141.3690 C   0  0  1  0  0  3  0  0  0  0  0  0
  189.1550  174.4800  146.4620 C   0  0  1  0  0  3  0  0  0  0  0  0
  188.7910  176.6410  145.9180 C   0  0  1  0  0  3  0  0  0  0  0  0
  189.0760  177.1220  144.4850 C   0  0  2  0  0  3  0  0  0  0  0  0
  189.6480  173.1080  144.3640 C   0  0  2  0  0  3  0  0  0  0  0  0
  188.3220  176.3470  143.3590 C   0  0  1  0  0  3  0  0  0  0  0  0
  189.7760  175.7340  146.3460 O   0  0  0  0  0  0  0  0  0  0  0  0
  189.6130  174.3000  143.4990 N   0  0  1  0  0  0  0  0  0  0  0  0
  187.5580  175.6090  140.4390 C   0  0  1  0  0  3  0  0  0  0  0  0
  185.3860  178.5410  139.7760 F   0  0  0  0  0  0  0  0  0  0  0  0
  187.1370  175.7880  138.0670 C   0  0  0  0  0  0  0  0  0  0  0  0
  186.8290  176.9180  140.6190 C   0  0  0  0  0  3  0  0  0  0  0  0
  187.8040  175.2420  139.0350 N   0  0  0  0  0  0  0  0  0  0  0  0
  186.1510  177.4310  139.5970 C   0  0  0  0  0  0  0  0  0  0  0  0
  187.3630  175.3870  136.7860 F   0  0  0  0  0  0  0  0  0  0  0  0
  186.2630  176.8570  138.3130 O   0  0  0  0  0  0  0  0  0  0  0  0
  186.8820  172.3560  141.9820 C   0  0  0  0  0  1  0  0  0  0  0  0
  188.3490  172.7700  141.9290 C   0  0  0  0  0  3  0  0  0  0  0  0
  188.9150  172.5020  140.5410 C   0  0  0  0  0  1  0  0  0  0  0  0
  188.8010  177.8440  146.8400 C   0  0  0  0  0  2  0  0  0  0  0  0
  187.3950  178.2190  147.2670 C   0  0  0  0  0  2  0  0  0  0  0  0
  186.4380  177.1040  146.8510 C   0  0  1  0  0  3  0  0  0  0  0  0
  186.0830  176.2210  148.0350 C   0  0  0  0  0  1  0  0  0  0  0  0
  185.1930  177.6550  146.1370 C   0  0  0  0  0  2  0  0  0  0  0  0
  185.3220  177.7520  144.6180 C   0  0  0  0  0  2  0  0  0  0  0  0
  184.1040  178.3640  144.0010 C   0  0  0  0  0  3  0  0  0  0  0  0
  184.1450  178.6790  142.7030 C   0  0  0  0  0  2  0  0  0  0  0  0
  193.9770  176.7000  143.5350 C   0  0  0  0  0  2  0  0  0  0  0  0
  194.6160  175.9280  144.6960 C   0  0  1  0  0  3  0  0  0  0  0  0
  194.9020  176.7330  145.8820 N   0  0  0  0  0  2  0  0  0  0  0  0
  193.8560  176.4770  146.8620 C   0  0  0  0  0  1  0  0  0  0  0  0
  193.9500  174.6430  144.9960 N   0  0  0  0  0  2  0  0  0  0  0  0
  194.7840  173.5000  144.6410 C   0  0  2  0  0  3  0  0  0  0  0  0
  195.8580  173.3070  145.6920 C   0  0  0  0  0  1  0  0  0  0  0  0
  195.1190  172.8950  142.1480 C   0  0  0  0  0  0  0  0  0  0  0  0
  195.3850  173.6830  143.3210 N   0  0  0  0  0  2  0  0  0  0  0  0
  195.8350  173.0660  141.1310 O   0  0  0  0  0  0  0  0  0  0  0  0
  193.9960  171.8860  142.1120 C   0  0  0  0  0  2  0  0  0  0  0  0
  193.6400  171.5410  140.6610 C   0  0  0  0  0  2  0  0  0  0  0  0
  192.8790  170.2100  140.5650 C   0  0  0  0  0  2  0  0  0  0  0  0
  192.3070  169.8730  139.1930 C   0  0  0  0  0  2  0  0  0  0  0  0
  190.8000  169.6750  139.2470 C   0  0  0  0  0  2  0  0  0  0  0  0
  190.3040  169.1440  137.9190 C   0  0  0  0  0  2  0  0  0  0  0  0
  191.1740  169.7840  135.7350 C   0  0  0  0  0  2  0  0  0  0  0  0
  190.5390  170.1580  136.8620 C   0  0  0  0  0  0  0  0  0  0  0  0
  189.7810  171.4370  136.8360 C   0  0  0  0  0  2  0  0  0  0  0  0
  191.5610  172.9940  137.5520 C   0  0  1  0  0  3  0  0  0  0  0  0
  190.3510  173.8330  137.1600 C   0  0  0  0  0  2  0  0  0  0  0  0
  190.6800  172.5780  136.3820 C   0  0  2  0  0  3  0  0  0  0  0  0
  193.8690  172.4040  136.6930 C   0  0  0  0  0  2  0  0  0  0  0  0
  192.9220  173.5660  137.0930 C   0  0  0  0  0  0  0  0  0  0  0  0
  195.8200  173.5300  137.7580 C   0  0  0  0  0  2  0  0  0  0  0  0
  193.5080  174.2910  138.3160 C   0  0  0  0  0  2  0  0  0  0  0  0
  195.3090  172.8650  136.4830 C   0  0  0  0  0  2  0  0  0  0  0  0
  192.8090  174.5640  135.9240 C   0  0  0  0  0  1  0  0  0  0  0  0
  194.9480  174.7390  138.0990 C   0  0  0  0  0  2  0  0  0  0  0  0
  1  4  2  0  0  0  0
  2  5  2  0  0  0  0
  2  1  1  0  0  0  0
  3 15  1  0  0  0  0
  4  3  1  0  0  0  0
  5  3  1  0  0  0  0
  6 13  1  0  0  0  0
  7 17  1  0  0  0  0
  8 29  1  6  0  0  0
  8 19  1  0  0  0  0
  8 10  1  0  0  0  0
 11 16  1  0  0  0  0
 12  7  1  0  0  0  0
 12  8  1  0  0  0  0
 13  9  1  0  0  0  0
 14 18  1  0  0  0  0
 14 31  1  0  0  0  0
 15 14  1  0  0  0  0
 16  6  1  0  0  0  0
 17 10  1  0  0  0  0
 17 15  1  0  0  0  0
 18 13  1  0  0  0  0
 19 10  1  0  0  0  0
 19 16  1  0  0  0  0
 20 23  1  0  0  0  0
 20 12  1  0  0  0  0
 22 27  1  0  0  0  0
 22 24  2  0  0  0  0
 24 20  1  0  0  0  0
 25 21  1  0  0  0  0
 25 23  2  0  0  0  0
 26 22  1  0  0  0  0
 27 25  1  0  0  0  0
 29 28  1  0  0  0  0
 30 29  1  0  0  0  0
 31 32  1  0  0  0  0
 33 32  1  0  0  0  0
 33 34  1  0  0  0  0
 35 33  1  0  0  0  0
 36 35  1  0  0  0  0
 37 36  1  0  0  0  0
 38 37  2  0  0  0  0
 39  1  1  0  0  0  0
 39 40  1  0  0  0  0
 40 43  1  0  0  0  0
 40 41  1  0  0  0  0
 41 42  1  0  0  0  0
 44 43  1  0  0  0  0
 44 45  1  0  0  0  0
 46 47  1  0  0  0  0
 47 44  1  0  0  0  0
 48 46  2  0  0  0  0
 49 46  1  0  0  0  0
 50 49  1  0  0  0  0
 51 50  1  0  0  0  0
 52 53  1  0  0  0  0
 52 51  1  0  0  0  0
 54 53  1  0  0  0  0
 55 56  2  0  0  0  0
 56 54  1  0  0  0  0
 57 56  1  0  0  0  0
 59 58  1  0  0  0  0
 60 57  1  0  0  0  0
 60 59  1  0  0  0  0
 60 58  1  0  0  0  0
 61 62  1  0  0  0  0
 62 58  1  0  0  0  0
 62 64  1  0  0  0  0
 63 67  1  0  0  0  0
 65 61  1  0  0  0  0
 65 63  1  0  0  0  0
 66 62  1  0  0  0  0
 67 64  1  0  0  0  0
M  END
>  <MODEL>
6

>  <REMARK>
 VINA RESULT:      -5.0      2.526      8.715
  Name = 
  25 active torsions:
  status: ('A' for Active; 'I' for Inactive)
    1  A    between atoms: C_1  and  C_5
    2  A    between atoms: C_1  and  C_47
    3  A    between atoms: C_2  and  C_5
    4  A    between atoms: C_2  and  C_62
    5  A    between atoms: C_3  and  C_54
    6  A    between atoms: C_6  and  C_28
    7  A    between atoms: C_8  and  C_25
    8  A    between atoms: C_12  and  C_31
    9  A    between atoms: C_12  and  C_51
   10  A    between atoms: C_13  and  C_24
   11  A    between atoms: C_17  and  C_19
   12  A    between atoms: C_21  and  C_62
   13  A    between atoms: C_24  and  C_35
   14  A    between atoms: N_27  and  C_35
   15  A    between atoms: C_29  and  C_45
   16  A    between atoms: C_29  and  C_51
   17  A    between atoms: C_31  and  C_56
   18  A    between atoms: C_35  and  N_57
   19  A    between atoms: C_38  and  C_67
   20  A    between atoms: C_39  and  C_47
   21  A    between atoms: C_41  and  N_44
   22  A    between atoms: C_41  and  N_57
   23  A    between atoms: C_45  and  C_67
   24  A    between atoms: N_49  and  C_58
   25  A    between atoms: C_54  and  C_56
                            x       y       z     vdW  Elec       q    Type
                         _______ _______ _______ _____ _____    ______ ____

>  <TORSDO>
F 25

$$$$
=
 OpenBabel11062422363D

 67 73  0  0  1  0  0  0  0  0999 V2000
  193.9950  175.0390  143.1740 C   0  0  0  0  0  0  0  0  0  0  0  0
  194.9480  175.3330  142.2090 C   0  0  0  0  0  3  0  0  0  0  0  0
  194.0150  173.4400  141.6710 N   0  0  0  0  0  0  0  0  0  0  0  0
  193.4560  173.8280  142.8290 C   0  0  0  0  0  3  0  0  0  0  0  0
  194.9260  174.3330  141.3000 N   0  0  0  0  0  0  0  0  0  0  0  0
  197.5840  172.1330  139.5440 C   0  0  0  0  0  2  0  0  0  0  0  0
  192.7890  173.3170  139.1740 O   0  0  0  0  0  0  0  0  0  0  0  0
  194.4520  172.8820  137.5360 C   0  0  1  0  0  0  0  0  0  0  0  0
  197.8190  170.1230  140.8350 O   0  0  0  0  0  1  0  0  0  0  0  0
  194.5920  171.8650  138.5600 C   0  0  2  0  0  3  0  0  0  0  0  0
  197.6280  173.7050  137.6670 C   0  0  0  0  0  1  0  0  0  0  0  0
  193.1120  173.5600  137.8210 C   0  0  1  0  0  3  0  0  0  0  0  0
  196.8810  171.0300  140.3290 C   0  0  1  0  0  3  0  0  0  0  0  0
  194.9020  171.0730  141.4140 C   0  0  1  0  0  3  0  0  0  0  0  0
  193.8440  172.1190  141.0230 C   0  0  2  0  0  3  0  0  0  0  0  0
  196.8150  172.5830  138.3000 C   0  0  2  0  0  3  0  0  0  0  0  0
  193.4170  172.1060  139.5200 C   0  0  1  0  0  3  0  0  0  0  0  0
  196.1910  171.6340  141.3910 O   0  0  0  0  0  0  0  0  0  0  0  0
  195.4600  173.0590  138.6300 N   0  0  1  0  0  0  0  0  0  0  0  0
  191.9110  173.0870  136.9870 C   0  0  1  0  0  3  0  0  0  0  0  0
  190.3610  169.7680  136.4090 F   0  0  0  0  0  0  0  0  0  0  0  0
  189.5040  173.2960  137.0310 C   0  0  0  0  0  0  0  0  0  0  0  0
  191.7310  171.5930  136.8740 C   0  0  0  0  0  3  0  0  0  0  0  0
  190.6660  173.8270  137.2500 N   0  0  0  0  0  0  0  0  0  0  0  0
  190.5200  171.0990  136.6390 C   0  0  0  0  0  0  0  0  0  0  0  0
  188.3790  174.0310  137.2450 F   0  0  0  0  0  0  0  0  0  0  0  0
  189.3910  171.9430  136.6770 O   0  0  0  0  0  0  0  0  0  0  0  0
  194.8690  171.5740  135.3400 C   0  0  0  0  0  1  0  0  0  0  0  0
  195.0930  172.8560  136.1340 C   0  0  0  0  0  3  0  0  0  0  0  0
  194.6440  174.0590  135.3160 C   0  0  0  0  0  1  0  0  0  0  0  0
  194.6040  170.5900  142.8200 C   0  0  0  0  0  2  0  0  0  0  0  0
  195.8500  170.6140  143.6830 C   0  0  0  0  0  2  0  0  0  0  0  0
  196.0490  169.2320  144.3030 C   0  0  1  0  0  3  0  0  0  0  0  0
  196.3480  168.1940  143.2340 C   0  0  0  0  0  1  0  0  0  0  0  0
  197.1090  169.2510  145.4150 C   0  0  0  0  0  2  0  0  0  0  0  0
  196.5730  168.9400  146.8110 C   0  0  0  0  0  2  0  0  0  0  0  0
  195.1410  169.3490  146.9530 C   0  0  0  0  0  3  0  0  0  0  0  0
  194.3370  168.5830  147.6970 C   0  0  0  0  0  2  0  0  0  0  0  0
  193.6780  175.7540  144.4660 C   0  0  0  0  0  2  0  0  0  0  0  0
  192.3390  176.4980  144.5620 C   0  0  1  0  0  3  0  0  0  0  0  0
  192.1630  177.5680  143.5820 N   0  0  0  0  0  2  0  0  0  0  0  0
  190.8680  178.1890  143.8240 C   0  0  0  0  0  1  0  0  0  0  0  0
  191.1690  175.6050  144.6860 N   0  0  0  0  0  2  0  0  0  0  0  0
  191.3070  174.6740  145.8010 C   0  0  2  0  0  3  0  0  0  0  0  0
  190.0860  173.7800  145.8730 C   0  0  0  0  0  1  0  0  0  0  0  0
  190.7930  176.5820  147.4700 C   0  0  0  0  0  0  0  0  0  0  0  0
  191.4900  175.3930  147.0600 N   0  0  0  0  0  2  0  0  0  0  0  0
  191.1760  177.1790  148.5060 O   0  0  0  0  0  0  0  0  0  0  0  0
  189.6110  177.1130  146.6940 C   0  0  0  0  0  2  0  0  0  0  0  0
  188.3020  176.6970  147.3750 C   0  0  0  0  0  2  0  0  0  0  0  0
  187.2220  176.3260  146.3470 C   0  0  0  0  0  2  0  0  0  0  0  0
  185.8200  176.8480  146.6420 C   0  0  0  0  0  2  0  0  0  0  0  0
  185.3710  177.8640  145.6040 C   0  0  0  0  0  2  0  0  0  0  0  0
  186.3780  177.9250  144.4750 C   0  0  0  0  0  2  0  0  0  0  0  0
  185.4130  180.0760  143.8590 C   0  0  0  0  0  2  0  0  0  0  0  0
  185.9170  178.8950  143.4520 C   0  0  0  0  0  0  0  0  0  0  0  0
  186.3360  178.7750  142.0310 C   0  0  0  0  0  2  0  0  0  0  0  0
  187.9030  176.9490  141.4670 C   0  0  1  0  0  3  0  0  0  0  0  0
  187.0320  177.1970  140.2430 C   0  0  0  0  0  2  0  0  0  0  0  0
  186.4330  177.3100  141.6270 C   0  0  2  0  0  3  0  0  0  0  0  0
  189.7140  175.2220  141.8530 C   0  0  0  0  0  2  0  0  0  0  0  0
  188.1830  175.4600  141.7730 C   0  0  0  0  0  0  0  0  0  0  0  0
  189.5130  173.0500  140.6490 C   0  0  0  0  0  2  0  0  0  0  0  0
  187.6160  174.6720  140.5810 C   0  0  0  0  0  2  0  0  0  0  0  0
  190.0770  173.7400  141.8880 C   0  0  0  0  0  2  0  0  0  0  0  0
  187.5160  174.9610  143.0700 C   0  0  0  0  0  1  0  0  0  0  0  0
  187.9910  173.1950  140.6210 C   0  0  0  0  0  2  0  0  0  0  0  0
  1 39  1  0  0  0  0
  2  1  1  0  0  0  0
  3  4  1  0  0  0  0
  4  1  2  0  0  0  0
  5  3  1  0  0  0  0
  5  2  2  0  0  0  0
  6 13  1  0  0  0  0
  7 17  1  0  0  0  0
  8 29  1  6  0  0  0
  8 12  1  0  0  0  0
  8 10  1  0  0  0  0
  8 19  1  0  0  0  0
 10 19  1  0  0  0  0
 10 17  1  0  0  0  0
 11 16  1  0  0  0  0
 12  7  1  0  0  0  0
 13  9  1  0  0  0  0
 13 18  1  0  0  0  0
 14 31  1  0  0  0  0
 15 14  1  0  0  0  0
 15  3  1  0  0  0  0
 16 19  1  0  0  0  0
 16  6  1  0  0  0  0
 17 15  1  0  0  0  0
 18 14  1  0  0  0  0
 20 24  1  0  0  0  0
 20 12  1  0  0  0  0
 21 25  1  0  0  0  0
 22 26  1  0  0  0  0
 22 24  2  0  0  0  0
 23 20  1  0  0  0  0
 25 27  1  0  0  0  0
 25 23  2  0  0  0  0
 27 22  1  0  0  0  0
 28 29  1  0  0  0  0
 30 29  1  0  0  0  0
 31 32  1  0  0  0  0
 32 33  1  0  0  0  0
 33 35  1  0  0  0  0
 34 33  1  0  0  0  0
 35 36  1  0  0  0  0
 36 37  1  0  0  0  0
 37 38  2  0  0  0  0
 39 40  1  0  0  0  0
 40 43  1  0  0  0  0
 41 42  1  0  0  0  0
 41 40  1  0  0  0  0
 43 44  1  0  0  0  0
 44 45  1  0  0  0  0
 44 47  1  0  0  0  0
 46 48  2  0  0  0  0
 47 46  1  0  0  0  0
 49 50  1  0  0  0  0
 49 46  1  0  0  0  0
 51 52  1  0  0  0  0
 51 50  1  0  0  0  0
 53 52  1  0  0  0  0
 54 53  1  0  0  0  0
 56 55  2  0  0  0  0
 56 54  1  0  0  0  0
 57 56  1  0  0  0  0
 58 60  1  0  0  0  0
 58 62  1  0  0  0  0
 59 58  1  0  0  0  0
 59 60  1  0  0  0  0
 60 57  1  0  0  0  0
 61 65  1  0  0  0  0
 62 61  1  0  0  0  0
 62 66  1  0  0  0  0
 63 65  1  0  0  0  0
 64 67  1  0  0  0  0
 64 62  1  0  0  0  0
 67 63  1  0  0  0  0
M  END
>  <MODEL>
7

>  <REMARK>
 VINA RESULT:      -4.7      1.808      2.438
  Name = 
  25 active torsions:
  status: ('A' for Active; 'I' for Inactive)
    1  A    between atoms: C_1  and  C_5
    2  A    between atoms: C_1  and  C_47
    3  A    between atoms: C_2  and  C_5
    4  A    between atoms: C_2  and  C_62
    5  A    between atoms: C_3  and  C_54
    6  A    between atoms: C_6  and  C_28
    7  A    between atoms: C_8  and  C_25
    8  A    between atoms: C_12  and  C_31
    9  A    between atoms: C_12  and  C_51
   10  A    between atoms: C_13  and  C_24
   11  A    between atoms: C_17  and  C_19
   12  A    between atoms: C_21  and  C_62
   13  A    between atoms: C_24  and  C_35
   14  A    between atoms: N_27  and  C_35
   15  A    between atoms: C_29  and  C_45
   16  A    between atoms: C_29  and  C_51
   17  A    between atoms: C_31  and  C_56
   18  A    between atoms: C_35  and  N_57
   19  A    between atoms: C_38  and  C_67
   20  A    between atoms: C_39  and  C_47
   21  A    between atoms: C_41  and  N_44
   22  A    between atoms: C_41  and  N_57
   23  A    between atoms: C_45  and  C_67
   24  A    between atoms: N_49  and  C_58
   25  A    between atoms: C_54  and  C_56
                            x       y       z     vdW  Elec       q    Type
                         _______ _______ _______ _____ _____    ______ ____

>  <TORSDO>
F 25

$$$$
=
 OpenBabel11062422363D

 67 73  0  0  1  0  0  0  0  0999 V2000
  190.5480  171.7820  142.2510 C   0  0  0  0  0  0  0  0  0  0  0  0
  190.2230  171.9310  143.5920 C   0  0  0  0  0  3  0  0  0  0  0  0
  190.5170  173.9180  142.7520 N   0  0  0  0  0  0  0  0  0  0  0  0
  190.7640  173.0430  141.7630 C   0  0  0  0  0  3  0  0  0  0  0  0
  190.2070  173.2550  143.8600 N   0  0  0  0  0  0  0  0  0  0  0  0
  190.5770  175.7330  146.7110 C   0  0  0  0  0  2  0  0  0  0  0  0
  188.3980  175.6570  142.2640 O   0  0  0  0  0  0  0  0  0  0  0  0
  187.8300  176.7470  144.2960 C   0  0  1  0  0  0  0  0  0  0  0  0
  192.8280  176.5380  146.4900 O   0  0  0  0  0  1  0  0  0  0  0  0
  189.2550  176.9320  144.1020 C   0  0  2  0  0  3  0  0  0  0  0  0
  188.2160  175.5860  147.3440 C   0  0  0  0  0  1  0  0  0  0  0  0
  187.3060  176.2200  142.9600 C   0  0  1  0  0  3  0  0  0  0  0  0
  191.6640  176.2420  145.7700 C   0  0  1  0  0  3  0  0  0  0  0  0
  191.9720  175.8330  143.5720 C   0  0  1  0  0  3  0  0  0  0  0  0
  190.7830  175.3750  142.7100 C   0  0  2  0  0  3  0  0  0  0  0  0
  189.1730  176.2150  146.3380 C   0  0  2  0  0  3  0  0  0  0  0  0
  189.5470  176.3310  142.7180 C   0  0  1  0  0  3  0  0  0  0  0  0
  191.9340  175.2270  144.8390 O   0  0  0  0  0  0  0  0  0  0  0  0
  188.8000  175.8230  144.9670 N   0  0  1  0  0  0  0  0  0  0  0  0
  186.6630  177.2510  142.0180 C   0  0  1  0  0  3  0  0  0  0  0  0
  186.5480  177.6050  138.3290 F   0  0  0  0  0  0  0  0  0  0  0  0
  184.4430  177.9140  141.3350 C   0  0  0  0  0  0  0  0  0  0  0  0
  187.0240  177.1280  140.5580 C   0  0  0  0  0  3  0  0  0  0  0  0
  185.2320  177.4860  142.2700 N   0  0  0  0  0  0  0  0  0  0  0  0
  186.1850  177.5930  139.6390 C   0  0  0  0  0  0  0  0  0  0  0  0
  183.1360  178.1610  141.6210 F   0  0  0  0  0  0  0  0  0  0  0  0
  184.8950  178.0270  140.0120 O   0  0  0  0  0  0  0  0  0  0  0  0
  186.7260  178.9860  144.9850 C   0  0  0  0  0  1  0  0  0  0  0  0
  186.9420  177.5100  145.2990 C   0  0  0  0  0  3  0  0  0  0  0  0
  185.5990  176.8110  145.4660 C   0  0  0  0  0  1  0  0  0  0  0  0
  193.2550  175.4270  142.8740 C   0  0  0  0  0  2  0  0  0  0  0  0
  194.4670  176.0100  143.5730 C   0  0  0  0  0  2  0  0  0  0  0  0
  195.6650  175.9380  142.6270 C   0  0  1  0  0  3  0  0  0  0  0  0
  196.9390  176.3770  143.3290 C   0  0  0  0  0  1  0  0  0  0  0  0
  195.8000  174.5500  141.9810 C   0  0  0  0  0  2  0  0  0  0  0  0
  197.2170  174.1860  141.5450 C   0  0  0  0  0  2  0  0  0  0  0  0
  197.5610  172.7770  141.9160 C   0  0  0  0  0  3  0  0  0  0  0  0
  197.0060  172.2610  143.0160 C   0  0  0  0  0  2  0  0  0  0  0  0
  190.8100  170.5260  141.4550 C   0  0  0  0  0  2  0  0  0  0  0  0
  192.2100  169.9040  141.5400 C   0  0  1  0  0  3  0  0  0  0  0  0
  192.5640  169.3720  142.8540 N   0  0  0  0  0  2  0  0  0  0  0  0
  193.8150  169.9910  143.2680 C   0  0  0  0  0  1  0  0  0  0  0  0
  192.5250  168.9900  140.4230 N   0  0  0  0  0  2  0  0  0  0  0  0
  191.8610  169.3890  139.1870 C   0  0  2  0  0  3  0  0  0  0  0  0
  190.8300  168.3470  138.8010 C   0  0  0  0  0  1  0  0  0  0  0  0
  192.5920  170.2290  136.8520 C   0  0  0  0  0  0  0  0  0  0  0  0
  192.8310  169.5730  138.1090 N   0  0  0  0  0  2  0  0  0  0  0  0
  193.4740  170.1630  135.9610 O   0  0  0  0  0  0  0  0  0  0  0  0
  191.3210  171.0000  136.5920 C   0  0  0  0  0  2  0  0  0  0  0  0
  191.2710  171.4610  135.1300 C   0  0  0  0  0  2  0  0  0  0  0  0
  191.8910  172.8560  134.9550 C   0  0  0  0  0  2  0  0  0  0  0  0
  191.2030  173.9860  135.7120 C   0  0  0  0  0  2  0  0  0  0  0  0
  191.6480  175.3500  135.2070 C   0  0  0  0  0  2  0  0  0  0  0  0
  192.9840  175.7140  135.8200 C   0  0  0  0  0  2  0  0  0  0  0  0
  192.7720  177.8590  134.6850 C   0  0  0  0  0  2  0  0  0  0  0  0
  193.5760  176.8520  135.0760 C   0  0  0  0  0  0  0  0  0  0  0  0
  195.0420  177.1000  135.0840 C   0  0  0  0  0  2  0  0  0  0  0  0
  195.9590  175.5230  136.7520 C   0  0  1  0  0  3  0  0  0  0  0  0
  197.1300  176.0570  135.9350 C   0  0  0  0  0  2  0  0  0  0  0  0
  195.8010  175.7930  135.2610 C   0  0  2  0  0  3  0  0  0  0  0  0
  195.1160  173.6970  138.2890 C   0  0  0  0  0  2  0  0  0  0  0  0
  196.0290  174.0140  137.0750 C   0  0  0  0  0  0  0  0  0  0  0  0
  196.7960  172.1160  139.2330 C   0  0  0  0  0  2  0  0  0  0  0  0
  197.4910  173.7340  137.4620 C   0  0  0  0  0  2  0  0  0  0  0  0
  195.3330  172.2880  138.8350 C   0  0  0  0  0  2  0  0  0  0  0  0
  195.6410  173.1100  135.8890 C   0  0  0  0  0  1  0  0  0  0  0  0
  197.6940  172.3270  138.0140 C   0  0  0  0  0  2  0  0  0  0  0  0
  1  2  1  0  0  0  0
  2  5  2  0  0  0  0
  3  5  1  0  0  0  0
  4  1  2  0  0  0  0
  4  3  1  0  0  0  0
  7 17  1  0  0  0  0
  7 12  1  0  0  0  0
  8 19  1  0  0  0  0
  8 29  1  1  0  0  0
 10  8  1  0  0  0  0
 10 19  1  0  0  0  0
 12  8  1  0  0  0  0
 13  9  1  0  0  0  0
 13  6  1  0  0  0  0
 14 18  1  0  0  0  0
 15 17  1  0  0  0  0
 15  3  1  0  0  0  0
 15 14  1  0  0  0  0
 16  6  1  0  0  0  0
 16 11  1  0  0  0  0
 17 10  1  0  0  0  0
 18 13  1  0  0  0  0
 19 16  1  0  0  0  0
 20 24  1  0  0  0  0
 20 12  1  0  0  0  0
 21 25  1  0  0  0  0
 22 26  1  0  0  0  0
 22 24  2  0  0  0  0
 23 20  1  0  0  0  0
 25 27  1  0  0  0  0
 25 23  2  0  0  0  0
 27 22  1  0  0  0  0
 28 29  1  0  0  0  0
 29 30  1  0  0  0  0
 31 14  1  0  0  0  0
 31 32  1  0  0  0  0
 33 34  1  0  0  0  0
 33 32  1  0  0  0  0
 35 33  1  0  0  0  0
 36 37  1  0  0  0  0
 36 35  1  0  0  0  0
 37 38  2  0  0  0  0
 39 40  1  0  0  0  0
 39  1  1  0  0  0  0
 40 41  1  0  0  0  0
 41 42  1  0  0  0  0
 43 40  1  0  0  0  0
 44 43  1  0  0  0  0
 45 44  1  0  0  0  0
 46 47  1  0  0  0  0
 47 44  1  0  0  0  0
 48 46  2  0  0  0  0
 49 46  1  0  0  0  0
 50 49  1  0  0  0  0
 51 50  1  0  0  0  0
 51 52  1  0  0  0  0
 53 52  1  0  0  0  0
 53 54  1  0  0  0  0
 55 56  2  0  0  0  0
 56 57  1  0  0  0  0
 56 54  1  0  0  0  0
 57 60  1  0  0  0  0
 58 62  1  0  0  0  0
 59 58  1  0  0  0  0
 60 59  1  0  0  0  0
 60 58  1  0  0  0  0
 61 65  1  0  0  0  0
 62 64  1  0  0  0  0
 62 61  1  0  0  0  0
 64 67  1  0  0  0  0
 65 63  1  0  0  0  0
 66 62  1  0  0  0  0
 67 63  1  0  0  0  0
M  END
>  <MODEL>
8

>  <REMARK>
 VINA RESULT:      -4.7      3.073      9.192
  Name = 
  25 active torsions:
  status: ('A' for Active; 'I' for Inactive)
    1  A    between atoms: C_1  and  C_5
    2  A    between atoms: C_1  and  C_47
    3  A    between atoms: C_2  and  C_5
    4  A    between atoms: C_2  and  C_62
    5  A    between atoms: C_3  and  C_54
    6  A    between atoms: C_6  and  C_28
    7  A    between atoms: C_8  and  C_25
    8  A    between atoms: C_12  and  C_31
    9  A    between atoms: C_12  and  C_51
   10  A    between atoms: C_13  and  C_24
   11  A    between atoms: C_17  and  C_19
   12  A    between atoms: C_21  and  C_62
   13  A    between atoms: C_24  and  C_35
   14  A    between atoms: N_27  and  C_35
   15  A    between atoms: C_29  and  C_45
   16  A    between atoms: C_29  and  C_51
   17  A    between atoms: C_31  and  C_56
   18  A    between atoms: C_35  and  N_57
   19  A    between atoms: C_38  and  C_67
   20  A    between atoms: C_39  and  C_47
   21  A    between atoms: C_41  and  N_44
   22  A    between atoms: C_41  and  N_57
   23  A    between atoms: C_45  and  C_67
   24  A    between atoms: N_49  and  C_58
   25  A    between atoms: C_54  and  C_56
                            x       y       z     vdW  Elec       q    Type
                         _______ _______ _______ _____ _____    ______ ____

>  <TORSDO>
F 25

$$$$
=
 OpenBabel11062422363D

 67 73  0  0  1  0  0  0  0  0999 V2000
  190.3290  174.5130  141.7360 C   0  0  0  0  0  0  0  0  0  0  0  0
  189.3240  175.2330  142.3660 C   0  0  0  0  0  3  0  0  0  0  0  0
  190.5730  174.3400  143.9100 N   0  0  0  0  0  0  0  0  0  0  0  0
  191.0720  173.9340  142.7310 C   0  0  0  0  0  3  0  0  0  0  0  0
  189.5110  175.1090  143.6980 N   0  0  0  0  0  0  0  0  0  0  0  0
  193.6850  176.7460  145.7800 C   0  0  0  0  0  2  0  0  0  0  0  0
  192.4320  172.2730  144.0610 O   0  0  0  0  0  0  0  0  0  0  0  0
  194.5010  173.1690  144.8050 C   0  0  1  0  0  0  0  0  0  0  0  0
  192.3550  177.2680  147.7090 O   0  0  0  0  0  1  0  0  0  0  0  0
  193.4920  173.5910  145.7570 C   0  0  2  0  0  3  0  0  0  0  0  0
  195.6120  176.2280  144.3600 C   0  0  0  0  0  1  0  0  0  0  0  0
  193.8280  172.0920  143.9530 C   0  0  1  0  0  3  0  0  0  0  0  0
  192.5850  176.2900  146.7340 C   0  0  1  0  0  3  0  0  0  0  0  0
  190.8720  174.8640  146.3780 C   0  0  1  0  0  3  0  0  0  0  0  0
  190.9680  173.8300  145.2440 C   0  0  2  0  0  3  0  0  0  0  0  0
  194.6100  175.6120  145.3300 C   0  0  2  0  0  3  0  0  0  0  0  0
  192.2050  172.8790  145.3110 C   0  0  1  0  0  3  0  0  0  0  0  0
  191.4180  176.0960  145.9790 O   0  0  0  0  0  0  0  0  0  0  0  0
  193.8690  174.5220  144.6730 N   0  0  1  0  0  0  0  0  0  0  0  0
  194.1180  170.6320  144.3360 C   0  0  1  0  0  3  0  0  0  0  0  0
  196.8420  168.2680  143.4760 F   0  0  0  0  0  0  0  0  0  0  0  0
  194.7660  169.3910  146.3050 C   0  0  0  0  0  0  0  0  0  0  0  0
  195.2570  169.9700  143.6010 C   0  0  0  0  0  3  0  0  0  0  0  0
  194.1030  170.3760  145.7860 N   0  0  0  0  0  0  0  0  0  0  0  0
  195.8990  168.9570  144.1730 C   0  0  0  0  0  0  0  0  0  0  0  0
  194.6890  169.1610  147.6430 F   0  0  0  0  0  0  0  0  0  0  0  0
  195.6420  168.6250  145.5200 O   0  0  0  0  0  0  0  0  0  0  0  0
  196.5570  172.5180  146.2380 C   0  0  0  0  0  1  0  0  0  0  0  0
  196.0280  173.2430  145.0060 C   0  0  0  0  0  3  0  0  0  0  0  0
  196.7570  172.7520  143.7620 C   0  0  0  0  0  1  0  0  0  0  0  0
  189.4100  175.0660  146.7220 C   0  0  0  0  0  2  0  0  0  0  0  0
  188.9260  176.4330  146.2790 C   0  0  0  0  0  2  0  0  0  0  0  0
  187.4010  176.4680  146.3620 C   0  0  1  0  0  3  0  0  0  0  0  0
  186.9360  177.4460  147.4270 C   0  0  0  0  0  1  0  0  0  0  0  0
  186.7610  176.7440  144.9920 C   0  0  0  0  0  2  0  0  0  0  0  0
  186.9140  178.1800  144.4950 C   0  0  0  0  0  2  0  0  0  0  0  0
  185.5910  178.8700  144.3910 C   0  0  0  0  0  3  0  0  0  0  0  0
  184.5020  178.2120  144.8010 C   0  0  0  0  0  2  0  0  0  0  0  0
  190.5350  174.2220  140.2690 C   0  0  0  0  0  2  0  0  0  0  0  0
  190.3500  172.7750  139.7930 C   0  0  1  0  0  3  0  0  0  0  0  0
  188.9810  172.4250  139.4200 N   0  0  0  0  0  2  0  0  0  0  0  0
  188.4290  173.5290  138.6480 C   0  0  0  0  0  1  0  0  0  0  0  0
  191.3650  172.3350  138.8140 N   0  0  0  0  0  2  0  0  0  0  0  0
  192.0420  171.1150  139.2400 C   0  0  2  0  0  3  0  0  0  0  0  0
  193.4050  171.0330  138.5840 C   0  0  0  0  0  1  0  0  0  0  0  0
  191.0320  169.3880  137.6010 C   0  0  0  0  0  0  0  0  0  0  0  0
  191.2440  169.9350  138.9140 N   0  0  0  0  0  2  0  0  0  0  0  0
  190.1880  168.4700  137.4590 O   0  0  0  0  0  0  0  0  0  0  0  0
  191.8080  169.8830  136.4040 C   0  0  0  0  0  2  0  0  0  0  0  0
  190.8900  169.9770  135.1800 C   0  0  0  0  0  2  0  0  0  0  0  0
  190.7590  171.4240  134.6790 C   0  0  0  0  0  2  0  0  0  0  0  0
  191.5520  172.4680  135.4560 C   0  0  0  0  0  2  0  0  0  0  0  0
  192.8120  172.8810  134.7120 C   0  0  0  0  0  2  0  0  0  0  0  0
  192.8480  174.3870  134.5590 C   0  0  0  0  0  2  0  0  0  0  0  0
  193.8270  175.8210  136.2680 C   0  0  0  0  0  2  0  0  0  0  0  0
  194.0260  174.9300  135.2780 C   0  0  0  0  0  0  0  0  0  0  0  0
  195.3500  174.2560  135.2100 C   0  0  0  0  0  2  0  0  0  0  0  0
  196.8110  174.1000  137.1970 C   0  0  1  0  0  3  0  0  0  0  0  0
  196.9690  172.8040  136.4110 C   0  0  0  0  0  2  0  0  0  0  0  0
  195.6150  173.4760  136.4900 C   0  0  2  0  0  3  0  0  0  0  0  0
  195.4070  174.4900  139.2670 C   0  0  0  0  0  2  0  0  0  0  0  0
  196.7490  173.9240  138.7310 C   0  0  0  0  0  0  0  0  0  0  0  0
  196.5360  175.4770  141.2580 C   0  0  0  0  0  2  0  0  0  0  0  0
  197.9070  174.7610  139.2980 C   0  0  0  0  0  2  0  0  0  0  0  0
  195.3820  174.5950  140.7900 C   0  0  0  0  0  2  0  0  0  0  0  0
  196.9130  172.4630  139.1910 C   0  0  0  0  0  1  0  0  0  0  0  0
  197.8670  174.8670  140.8180 C   0  0  0  0  0  2  0  0  0  0  0  0
  1  2  1  0  0  0  0
  1  4  2  0  0  0  0
  2  5  2  0  0  0  0
  3 15  1  0  0  0  0
  4  3  1  0  0  0  0
  5  3  1  0  0  0  0
  6 13  1  0  0  0  0
  7 17  1  0  0  0  0
  8 29  1  1  0  0  0
  8 10  1  0  0  0  0
 11 16  1  0  0  0  0
 12  7  1  0  0  0  0
 12 20  1  0  0  0  0
 12  8  1  0  0  0  0
 13  9  1  0  0  0  0
 14 31  1  0  0  0  0
 15 17  1  0  0  0  0
 15 14  1  0  0  0  0
 16  6  1  0  0  0  0
 17 10  1  0  0  0  0
 18 14  1  0  0  0  0
 18 13  1  0  0  0  0
 19  8  1  0  0  0  0
 19 16  1  0  0  0  0
 19 10  1  0  0  0  0
 20 24  1  0  0  0  0
 21 25  1  0  0  0  0
 22 26  1  0  0  0  0
 23 25  2  0  0  0  0
 23 20  1  0  0  0  0
 24 22  2  0  0  0  0
 25 27  1  0  0  0  0
 27 22  1  0  0  0  0
 29 28  1  0  0  0  0
 30 29  1  0  0  0  0
 32 33  1  0  0  0  0
 32 31  1  0  0  0  0
 33 34  1  0  0  0  0
 35 33  1  0  0  0  0
 36 35  1  0  0  0  0
 37 36  1  0  0  0  0
 37 38  2  0  0  0  0
 39  1  1  0  0  0  0
 40 39  1  0  0  0  0
 41 40  1  0  0  0  0
 42 41  1  0  0  0  0
 43 44  1  0  0  0  0
 43 40  1  0  0  0  0
 45 44  1  0  0  0  0
 46 47  1  0  0  0  0
 47 44  1  0  0  0  0
 48 46  2  0  0  0  0
 49 46  1  0  0  0  0
 50 49  1  0  0  0  0
 51 50  1  0  0  0  0
 51 52  1  0  0  0  0
 53 52  1  0  0  0  0
 54 53  1  0  0  0  0
 54 56  1  0  0  0  0
 56 55  2  0  0  0  0
 57 56  1  0  0  0  0
 57 60  1  0  0  0  0
 58 62  1  0  0  0  0
 59 60  1  0  0  0  0
 59 58  1  0  0  0  0
 60 58  1  0  0  0  0
 61 65  1  0  0  0  0
 62 66  1  0  0  0  0
 62 61  1  0  0  0  0
 62 64  1  0  0  0  0
 64 67  1  0  0  0  0
 65 63  1  0  0  0  0
 67 63  1  0  0  0  0
M  END
>  <MODEL>
9

>  <REMARK>
 VINA RESULT:      -4.3      2.861      9.464
  Name = 
  25 active torsions:
  status: ('A' for Active; 'I' for Inactive)
    1  A    between atoms: C_1  and  C_5
    2  A    between atoms: C_1  and  C_47
    3  A    between atoms: C_2  and  C_5
    4  A    between atoms: C_2  and  C_62
    5  A    between atoms: C_3  and  C_54
    6  A    between atoms: C_6  and  C_28
    7  A    between atoms: C_8  and  C_25
    8  A    between atoms: C_12  and  C_31
    9  A    between atoms: C_12  and  C_51
   10  A    between atoms: C_13  and  C_24
   11  A    between atoms: C_17  and  C_19
   12  A    between atoms: C_21  and  C_62
   13  A    between atoms: C_24  and  C_35
   14  A    between atoms: N_27  and  C_35
   15  A    between atoms: C_29  and  C_45
   16  A    between atoms: C_29  and  C_51
   17  A    between atoms: C_31  and  C_56
   18  A    between atoms: C_35  and  N_57
   19  A    between atoms: C_38  and  C_67
   20  A    between atoms: C_39  and  C_47
   21  A    between atoms: C_41  and  N_44
   22  A    between atoms: C_41  and  N_57
   23  A    between atoms: C_45  and  C_67
   24  A    between atoms: N_49  and  C_58
   25  A    between atoms: C_54  and  C_56
                            x       y       z     vdW  Elec       q    Type
                         _______ _______ _______ _____ _____    ______ ____

>  <TORSDO>
F 25

$$$$
