=
 OpenBabel11062420323D

 53 60  0  0  1  0  0  0  0  0999 V2000
  191.5200  172.6160  142.3510 N   0  0  0  0  0  2  0  0  0  0  0  0
  192.1650  171.0990  138.4690 C   0  0  0  0  0  2  0  0  0  0  0  0
  190.6960  171.3700  140.3090 C   0  0  0  0  0  2  0  0  0  0  0  0
  191.8240  171.9720  141.1070 C   0  0  0  0  0  0  0  0  0  0  0  0
  193.0600  172.0300  140.5920 C   0  0  0  0  0  3  0  0  0  0  0  0
  193.4310  171.3660  139.2860 C   0  0  2  0  0  3  0  0  0  0  0  0
  191.1830  170.4190  139.3090 N   0  0  0  0  0  2  0  0  0  0  0  0
  195.0890  173.0840  139.4650 C   0  0  2  0  0  3  0  0  0  0  0  0
  194.4160  172.1690  138.5350 N   0  0  2  0  0  0  0  0  0  0  0  0
  197.2300  173.9170  140.5510 C   0  0  0  0  0  2  0  0  0  0  0  0
  194.7770  174.4920  139.0230 C   0  0  1  0  0  0  0  0  0  0  0  0
  196.5950  172.8250  139.6670 C   0  0  1  0  0  3  0  0  0  0  0  0
  193.2820  175.2520  137.1210 C   0  0  0  0  0  2  0  0  0  0  0  0
  195.8860  175.1780  138.1750 C   0  0  0  0  0  2  0  0  0  0  0  0
  195.3130  175.4160  141.2920 C   0  0  0  0  0  0  0  0  0  0  0  0
  193.5320  174.2070  138.2140 C   0  0  1  0  0  3  0  0  0  0  0  0
  194.4370  175.3400  136.1120 C   0  0  0  0  0  2  0  0  0  0  0  0
  194.4820  175.3020  140.1600 O   0  0  0  0  0  0  0  0  0  0  0  0
  195.7770  174.8640  136.6860 C   0  0  1  0  0  3  0  0  0  0  0  0
  196.3180  174.3620  141.6980 C   0  0  0  0  0  2  0  0  0  0  0  0
  193.7120  172.9340  137.6360 O   0  0  0  0  0  0  0  0  0  0  0  0
  195.1400  176.3920  142.0660 O   0  0  0  0  0  0  0  0  0  0  0  0
  197.9410  174.6420  135.4760 O   0  0  0  0  0  0  0  0  0  0  0  0
  196.9790  176.7040  135.7350 O   0  0  0  0  0  1  0  0  0  0  0  0
  196.9210  175.4620  135.9370 C   0  0  0  0  0  0  0  0  0  0  0  0
  197.3110  170.5790  139.2760 O   0  0  0  0  0  1  0  0  0  0  0  0
  196.8670  171.4560  140.2670 C   0  0  0  0  0  2  0  0  0  0  0  0
  190.1790  173.0530  142.7230 C   0  0  0  0  0  2  0  0  0  0  0  0
  186.4840  176.3640  142.2450 C   0  0  0  0  0  2  0  0  0  0  0  0
  189.6620  177.5290  145.1130 C   0  0  1  0  0  3  0  0  0  0  0  0
  188.7470  178.1780  142.0540 O   0  0  0  0  0  0  0  0  0  0  0  0
  188.6760  175.4530  145.8090 N   0  0  0  0  0  2  0  0  0  0  0  0
  184.6420  178.6550  142.1150 O   0  0  0  0  0  1  0  0  0  0  0  0
  187.4630  173.7180  141.9590 O   0  0  0  0  0  0  0  0  0  0  0  0
  185.4840  178.5880  145.7500 C   0  0  1  0  0  3  0  0  0  0  0  0
  189.8000  174.3060  141.9440 C   0  0  2  0  0  3  0  0  0  0  0  0
  190.7530  175.3570  142.1510 O   0  0  0  0  0  0  0  0  0  0  0  0
  186.7550  177.9040  145.4150 N   0  0  2  0  0  0  0  0  0  0  0  0
  184.8580  179.1130  144.4510 C   0  0  0  0  0  2  0  0  0  0  0  0
  186.8410  176.6960  147.4670 O   0  0  0  0  0  1  0  0  0  0  0  0
  190.5880  178.3980  145.6620 F   0  0  0  0  0  0  0  0  0  0  0  0
  190.3770  176.4030  144.3820 C   0  0  1  0  0  3  0  0  0  0  0  0
  186.4970  176.8260  144.6200 O   0  0  0  0  0  0  0  0  0  0  0  0
  189.8070  175.1170  144.9590 C   0  0  0  0  0  2  0  0  0  0  0  0
  188.8880  176.8340  146.2170 C   0  0  2  0  0  3  0  0  0  0  0  0
  186.2530  177.3820  143.3560 C   0  0  2  0  0  3  0  0  0  0  0  0
  188.9400  176.9630  142.3280 C   0  0  0  0  0  0  0  0  0  0  0  0
  188.3210  174.6390  142.0550 C   0  0  0  0  0  0  0  0  0  0  0  0
  190.2620  176.5010  142.8420 C   0  0  2  0  0  3  0  0  0  0  0  0
  187.5600  177.5180  146.5920 C   0  0  1  0  0  3  0  0  0  0  0  0
  184.8780  178.0440  143.3470 C   0  0  2  0  0  3  0  0  0  0  0  0
  187.9020  175.9970  142.1940 N   0  0  0  0  0  0  0  0  0  0  0  0
  184.4740  177.6720  146.4390 C   0  0  0  0  0  1  0  0  0  0  0  0
  1 28  1  0  0  0  0
  2  7  1  0  0  0  0
  3  4  1  0  0  0  0
  4  1  1  0  0  0  0
  5  4  2  0  0  0  0
  6  2  1  6  0  0  0
  6  5  1  0  0  0  0
  7  3  1  0  0  0  0
  8 12  1  0  0  0  0
  9  6  1  0  0  0  0
  9  8  1  0  0  0  0
 10 20  1  0  0  0  0
 11  8  1  0  0  0  0
 11 18  1  0  0  0  0
 12 27  1  0  0  0  0
 12 10  1  0  0  0  0
 13 16  1  0  0  0  0
 14 11  1  0  0  0  0
 15 20  1  0  0  0  0
 15 22  2  0  0  0  0
 16 11  1  0  0  0  0
 17 19  1  0  0  0  0
 17 13  1  0  0  0  0
 18 15  1  0  0  0  0
 19 14  1  0  0  0  0
 21 16  1  0  0  0  0
 21  9  1  0  0  0  0
 23 25  2  0  0  0  0
 24 25  1  0  0  0  0
 25 19  1  0  0  0  0
 26 27  1  0  0  0  0
 29 46  1  0  0  0  0
 30 41  1  0  0  0  0
 30 45  1  0  0  0  0
 31 47  2  0  0  0  0
 32 45  1  0  0  0  0
 33 51  1  0  0  0  0
 34 48  2  0  0  0  0
 35 53  1  0  0  0  0
 36 48  1  0  0  0  0
 36 37  1  0  0  0  0
 36 28  1  0  0  0  0
 37 49  1  0  0  0  0
 38 35  1  0  0  0  0
 38 50  1  0  0  0  0
 39 35  1  0  0  0  0
 42 44  1  0  0  0  0
 42 30  1  0  0  0  0
 43 38  1  0  0  0  0
 44 32  1  0  0  0  0
 45 50  1  0  0  0  0
 46 43  1  0  0  0  0
 47 49  1  0  0  0  0
 48 52  1  0  0  0  0
 49 42  1  0  0  0  0
 50 40  1  0  0  0  0
 51 46  1  0  0  0  0
 51 39  1  0  0  0  0
 52 29  1  0  0  0  0
 52 47  1  0  0  0  0
M  END
>  <MODEL>
1

>  <REMARK>
 VINA RESULT:      -8.5      0.000      0.000
  Name = 
  6 active torsions:
  status: ('A' for Active; 'I' for Inactive)
    1  A    between atoms: N_9  and  C_46
    2  A    between atoms: C_11  and  C_38
    3  A    between atoms: N_19  and  C_33
    4  A    between atoms: N_19  and  C_38
    5  A    between atoms: C_21  and  C_22
    6  A    between atoms: C_45  and  C_47
                            x       y       z     vdW  Elec       q    Type
                         _______ _______ _______ _____ _____    ______ ____

>  <TORSDO>
F 6

$$$$
=
 OpenBabel11062420323D

 53 60  0  0  1  0  0  0  0  0999 V2000
  190.5920  171.7520  143.7210 N   0  0  0  0  0  2  0  0  0  0  0  0
  193.8570  169.9090  141.7920 C   0  0  0  0  0  2  0  0  0  0  0  0
  192.6180  170.2400  143.7850 C   0  0  0  0  0  2  0  0  0  0  0  0
  191.7810  171.2760  143.0800 C   0  0  0  0  0  0  0  0  0  0  0  0
  192.0690  171.6340  141.8210 C   0  0  0  0  0  3  0  0  0  0  0  0
  193.3110  171.1610  141.1020 C   0  0  2  0  0  3  0  0  0  0  0  0
  193.9680  170.1570  143.2260 N   0  0  0  0  0  2  0  0  0  0  0  0
  191.8980  171.7490  139.2620 C   0  0  2  0  0  3  0  0  0  0  0  0
  193.0490  170.9340  139.6670 N   0  0  2  0  0  0  0  0  0  0  0  0
  190.9160  173.5690  137.7850 C   0  0  0  0  0  2  0  0  0  0  0  0
  190.8130  170.8050  138.8030 C   0  0  1  0  0  0  0  0  0  0  0  0
  192.2080  172.8650  138.2450 C   0  0  1  0  0  3  0  0  0  0  0  0
  190.8240  168.2700  138.8070 C   0  0  0  0  0  2  0  0  0  0  0  0
  190.7120  170.6150  137.2630 C   0  0  0  0  0  2  0  0  0  0  0  0
  189.0360  172.5400  139.1560 C   0  0  0  0  0  0  0  0  0  0  0  0
  191.2870  169.5530  139.5050 C   0  0  1  0  0  3  0  0  0  0  0  0
  191.3300  168.1680  137.3610 C   0  0  0  0  0  2  0  0  0  0  0  0
  189.5510  171.2380  139.3090 O   0  0  0  0  0  0  0  0  0  0  0  0
  191.6470  169.5310  136.7340 C   0  0  1  0  0  3  0  0  0  0  0  0
  189.9020  173.7560  138.9180 C   0  0  0  0  0  2  0  0  0  0  0  0
  192.6950  169.6140  139.5250 O   0  0  0  0  0  0  0  0  0  0  0  0
  187.8040  172.7220  139.3300 O   0  0  0  0  0  0  0  0  0  0  0  0
  191.3950  170.6250  134.5130 O   0  0  0  0  0  0  0  0  0  0  0  0
  191.6830  168.3570  134.6480 O   0  0  0  0  0  1  0  0  0  0  0  0
  191.5850  169.4610  135.2450 C   0  0  0  0  0  0  0  0  0  0  0  0
  194.3730  173.8610  138.0710 O   0  0  0  0  0  1  0  0  0  0  0  0
  193.1830  173.8910  138.7990 C   0  0  0  0  0  2  0  0  0  0  0  0
  190.5580  172.9330  144.5770 C   0  0  0  0  0  2  0  0  0  0  0  0
  187.6930  176.5630  142.7190 C   0  0  0  0  0  2  0  0  0  0  0  0
  189.5580  177.4900  146.6370 C   0  0  1  0  0  3  0  0  0  0  0  0
  190.0060  178.1520  143.4780 O   0  0  0  0  0  0  0  0  0  0  0  0
  188.1830  175.5320  146.8460 N   0  0  0  0  0  2  0  0  0  0  0  0
  186.2820  179.0130  141.9020 O   0  0  0  0  0  1  0  0  0  0  0  0
  188.4490  173.8320  142.8040 O   0  0  0  0  0  0  0  0  0  0  0  0
  185.5940  178.9510  145.5700 C   0  0  1  0  0  3  0  0  0  0  0  0
  190.6410  174.1980  143.7330 C   0  0  2  0  0  3  0  0  0  0  0  0
  191.5280  175.1590  144.3210 O   0  0  0  0  0  0  0  0  0  0  0  0
  186.8220  178.1430  145.7590 N   0  0  2  0  0  0  0  0  0  0  0  0
  185.5910  179.5030  144.1380 C   0  0  0  0  0  2  0  0  0  0  0  0
  185.9670  176.9800  147.6540 O   0  0  0  0  0  1  0  0  0  0  0  0
  190.2660  178.2810  147.5240 F   0  0  0  0  0  0  0  0  0  0  0  0
  190.3940  176.2860  146.2330 C   0  0  1  0  0  3  0  0  0  0  0  0
  186.8010  177.0760  144.9090 O   0  0  0  0  0  0  0  0  0  0  0  0
  189.5220  175.0730  146.5130 C   0  0  0  0  0  2  0  0  0  0  0  0
  188.3450  176.8970  147.3280 C   0  0  2  0  0  3  0  0  0  0  0  0
  187.1360  177.6240  143.6620 C   0  0  2  0  0  3  0  0  0  0  0  0
  189.9560  176.9310  143.7860 C   0  0  0  0  0  0  0  0  0  0  0  0
  189.2800  174.6700  143.2500 C   0  0  0  0  0  0  0  0  0  0  0  0
  190.9130  176.3590  144.7770 C   0  0  2  0  0  3  0  0  0  0  0  0
  187.0490  177.7110  147.1520 C   0  0  1  0  0  3  0  0  0  0  0  0
  185.9480  178.4120  143.1160 C   0  0  2  0  0  3  0  0  0  0  0  0
  188.9710  176.0640  143.2330 N   0  0  0  0  0  0  0  0  0  0  0  0
  184.3110  178.1500  145.7830 C   0  0  0  0  0  1  0  0  0  0  0  0
  1 28  1  0  0  0  0
  2  7  1  0  0  0  0
  4  1  1  0  0  0  0
  4  3  1  0  0  0  0
  5  4  2  0  0  0  0
  6  2  1  1  0  0  0
  6  5  1  0  0  0  0
  7  3  1  0  0  0  0
  8  9  1  0  0  0  0
  9  6  1  0  0  0  0
 10 12  1  0  0  0  0
 10 20  1  0  0  0  0
 11  8  1  0  0  0  0
 11 18  1  0  0  0  0
 11 16  1  0  0  0  0
 12 27  1  0  0  0  0
 12  8  1  0  0  0  0
 13 16  1  0  0  0  0
 14 11  1  0  0  0  0
 15 18  1  0  0  0  0
 15 22  2  0  0  0  0
 16 21  1  0  0  0  0
 17 13  1  0  0  0  0
 19 14  1  0  0  0  0
 19 17  1  0  0  0  0
 20 15  1  0  0  0  0
 21  9  1  0  0  0  0
 23 25  2  0  0  0  0
 24 25  1  0  0  0  0
 25 19  1  0  0  0  0
 26 27  1  0  0  0  0
 29 52  1  0  0  0  0
 29 46  1  0  0  0  0
 30 45  1  0  0  0  0
 30 41  1  0  0  0  0
 31 47  2  0  0  0  0
 32 45  1  0  0  0  0
 33 51  1  0  0  0  0
 34 48  2  0  0  0  0
 35 38  1  0  0  0  0
 35 53  1  0  0  0  0
 36 37  1  0  0  0  0
 36 28  1  0  0  0  0
 37 49  1  0  0  0  0
 38 50  1  0  0  0  0
 39 35  1  0  0  0  0
 42 44  1  0  0  0  0
 42 30  1  0  0  0  0
 43 38  1  0  0  0  0
 44 32  1  0  0  0  0
 46 43  1  0  0  0  0
 47 49  1  0  0  0  0
 48 36  1  0  0  0  0
 49 42  1  0  0  0  0
 50 45  1  0  0  0  0
 50 40  1  0  0  0  0
 51 46  1  0  0  0  0
 51 39  1  0  0  0  0
 52 48  1  0  0  0  0
 52 47  1  0  0  0  0
M  END
>  <MODEL>
2

>  <REMARK>
 VINA RESULT:      -8.5      2.384      4.304
  Name = 
  6 active torsions:
  status: ('A' for Active; 'I' for Inactive)
    1  A    between atoms: N_9  and  C_46
    2  A    between atoms: C_11  and  C_38
    3  A    between atoms: N_19  and  C_33
    4  A    between atoms: N_19  and  C_38
    5  A    between atoms: C_21  and  C_22
    6  A    between atoms: C_45  and  C_47
                            x       y       z     vdW  Elec       q    Type
                         _______ _______ _______ _____ _____    ______ ____

>  <TORSDO>
F 6

$$$$
=
 OpenBabel11062420323D

 53 60  0  0  1  0  0  0  0  0999 V2000
  191.6150  172.4240  144.5440 N   0  0  0  0  0  2  0  0  0  0  0  0
  194.3610  169.8760  142.6090 C   0  0  0  0  0  2  0  0  0  0  0  0
  192.3170  170.1170  143.7830 C   0  0  0  0  0  2  0  0  0  0  0  0
  192.6410  171.5670  144.0300 C   0  0  0  0  0  0  0  0  0  0  0  0
  193.8200  172.0720  143.6380 C   0  0  0  0  0  3  0  0  0  0  0  0
  194.9350  171.2100  143.0920 C   0  0  2  0  0  3  0  0  0  0  0  0
  193.5260  169.3010  143.6580 N   0  0  0  0  0  2  0  0  0  0  0  0
  195.5750  173.3570  142.2470 C   0  0  2  0  0  3  0  0  0  0  0  0
  195.6830  171.9090  142.0290 N   0  0  2  0  0  0  0  0  0  0  0  0
  196.6990  175.5970  142.6650 C   0  0  0  0  0  2  0  0  0  0  0  0
  194.8700  173.9450  141.0500 C   0  0  1  0  0  0  0  0  0  0  0  0
  196.8980  174.0700  142.5900 C   0  0  1  0  0  3  0  0  0  0  0  0
  193.9010  172.7390  139.0410 C   0  0  0  0  0  2  0  0  0  0  0  0
  195.8040  174.5800  139.9810 C   0  0  0  0  0  2  0  0  0  0  0  0
  194.2080  175.9920  142.3390 C   0  0  0  0  0  0  0  0  0  0  0  0
  194.1920  172.6920  140.5450 C   0  0  1  0  0  3  0  0  0  0  0  0
  195.1740  172.9060  138.1980 C   0  0  0  0  0  2  0  0  0  0  0  0
  193.9150  174.9150  141.4800 O   0  0  0  0  0  0  0  0  0  0  0  0
  196.3250  173.5670  138.9660 C   0  0  1  0  0  3  0  0  0  0  0  0
  195.3680  175.9950  143.3080 C   0  0  0  0  0  2  0  0  0  0  0  0
  195.0590  171.6200  140.8380 O   0  0  0  0  0  0  0  0  0  0  0  0
  193.4060  176.9600  142.3800 O   0  0  0  0  0  0  0  0  0  0  0  0
  197.9410  175.3750  138.4080 O   0  0  0  0  0  1  0  0  0  0  0  0
  197.5120  173.7130  136.8920 O   0  0  0  0  0  0  0  0  0  0  0  0
  197.2930  174.2080  138.0290 C   0  0  0  0  0  0  0  0  0  0  0  0
  197.3780  174.5370  144.8840 O   0  0  0  0  0  1  0  0  0  0  0  0
  197.5020  173.5650  143.8900 C   0  0  0  0  0  2  0  0  0  0  0  0
  190.3150  172.5940  143.9050 C   0  0  0  0  0  2  0  0  0  0  0  0
  187.3170  176.2870  142.4140 C   0  0  0  0  0  2  0  0  0  0  0  0
  189.7350  177.1990  146.0210 C   0  0  1  0  0  3  0  0  0  0  0  0
  189.7550  177.8160  142.8210 O   0  0  0  0  0  0  0  0  0  0  0  0
  188.3510  175.2830  146.4470 N   0  0  0  0  0  2  0  0  0  0  0  0
  185.8730  178.7680  141.7680 O   0  0  0  0  0  1  0  0  0  0  0  0
  188.0040  173.5360  142.4300 O   0  0  0  0  0  0  0  0  0  0  0  0
  185.7020  178.7610  145.4960 C   0  0  1  0  0  3  0  0  0  0  0  0
  190.3140  173.8480  143.0400 C   0  0  2  0  0  3  0  0  0  0  0  0
  191.2990  174.7890  143.4860 O   0  0  0  0  0  0  0  0  0  0  0  0
  186.9220  177.9210  145.5230 N   0  0  2  0  0  0  0  0  0  0  0  0
  185.5140  179.2990  144.0710 C   0  0  0  0  0  2  0  0  0  0  0  0
  186.3090  176.8010  147.5350 O   0  0  0  0  0  1  0  0  0  0  0  0
  190.5810  177.9770  146.7900 F   0  0  0  0  0  0  0  0  0  0  0  0
  190.4740  175.9670  145.5210 C   0  0  1  0  0  3  0  0  0  0  0  0
  186.7540  176.8470  144.7000 O   0  0  0  0  0  0  0  0  0  0  0  0
  189.6180  174.7820  145.9370 C   0  0  0  0  0  2  0  0  0  0  0  0
  188.6150  176.6460  146.8820 C   0  0  2  0  0  3  0  0  0  0  0  0
  186.9260  177.3720  143.4100 C   0  0  2  0  0  3  0  0  0  0  0  0
  189.7170  176.6000  143.1500 C   0  0  0  0  0  0  0  0  0  0  0  0
  188.9110  174.3540  142.7440 C   0  0  0  0  0  0  0  0  0  0  0  0
  190.7870  176.0110  144.0060 C   0  0  2  0  0  3  0  0  0  0  0  0
  187.3300  177.4960  146.8780 C   0  0  1  0  0  3  0  0  0  0  0  0
  185.6950  178.1880  143.0250 C   0  0  2  0  0  3  0  0  0  0  0  0
  188.6410  175.7570  142.7510 N   0  0  0  0  0  0  0  0  0  0  0  0
  184.4400  177.9990  145.8970 C   0  0  0  0  0  1  0  0  0  0  0  0
  2  7  1  0  0  0  0
  3  4  1  0  0  0  0
  4  1  1  0  0  0  0
  5  4  2  0  0  0  0
  6  2  1  6  0  0  0
  6  5  1  0  0  0  0
  7  3  1  0  0  0  0
  8 12  1  0  0  0  0
  9  8  1  0  0  0  0
  9  6  1  0  0  0  0
 10 20  1  0  0  0  0
 11 18  1  0  0  0  0
 11  8  1  0  0  0  0
 12 10  1  0  0  0  0
 12 27  1  0  0  0  0
 13 16  1  0  0  0  0
 14 11  1  0  0  0  0
 15 22  2  0  0  0  0
 15 20  1  0  0  0  0
 16 21  1  0  0  0  0
 16 11  1  0  0  0  0
 17 19  1  0  0  0  0
 17 13  1  0  0  0  0
 18 15  1  0  0  0  0
 19 14  1  0  0  0  0
 21  9  1  0  0  0  0
 24 25  2  0  0  0  0
 25 23  1  0  0  0  0
 25 19  1  0  0  0  0
 27 26  1  0  0  0  0
 28  1  1  0  0  0  0
 29 52  1  0  0  0  0
 29 46  1  0  0  0  0
 30 41  1  0  0  0  0
 30 45  1  0  0  0  0
 31 47  2  0  0  0  0
 32 45  1  0  0  0  0
 33 51  1  0  0  0  0
 34 48  2  0  0  0  0
 35 38  1  0  0  0  0
 35 53  1  0  0  0  0
 36 37  1  0  0  0  0
 36 28  1  0  0  0  0
 37 49  1  0  0  0  0
 38 50  1  0  0  0  0
 39 35  1  0  0  0  0
 42 44  1  0  0  0  0
 42 30  1  0  0  0  0
 43 38  1  0  0  0  0
 44 32  1  0  0  0  0
 46 43  1  0  0  0  0
 47 49  1  0  0  0  0
 48 52  1  0  0  0  0
 48 36  1  0  0  0  0
 49 42  1  0  0  0  0
 50 45  1  0  0  0  0
 50 40  1  0  0  0  0
 51 46  1  0  0  0  0
 51 39  1  0  0  0  0
 52 47  1  0  0  0  0
M  END
>  <MODEL>
3

>  <REMARK>
 VINA RESULT:      -8.2      1.901      2.511
  Name = 
  6 active torsions:
  status: ('A' for Active; 'I' for Inactive)
    1  A    between atoms: N_9  and  C_46
    2  A    between atoms: C_11  and  C_38
    3  A    between atoms: N_19  and  C_33
    4  A    between atoms: N_19  and  C_38
    5  A    between atoms: C_21  and  C_22
    6  A    between atoms: C_45  and  C_47
                            x       y       z     vdW  Elec       q    Type
                         _______ _______ _______ _____ _____    ______ ____

>  <TORSDO>
F 6

$$$$
=
 OpenBabel11062420323D

 53 60  0  0  1  0  0  0  0  0999 V2000
  192.0230  171.0550  143.2360 N   0  0  0  0  0  2  0  0  0  0  0  0
  190.8750  169.1630  139.6470 C   0  0  0  0  0  2  0  0  0  0  0  0
  190.8140  169.1980  142.0150 C   0  0  0  0  0  2  0  0  0  0  0  0
  191.7900  170.3460  142.0130 C   0  0  0  0  0  0  0  0  0  0  0  0
  192.3160  170.7830  140.8600 C   0  0  0  0  0  3  0  0  0  0  0  0
  192.1030  170.0700  139.5450 C   0  0  2  0  0  3  0  0  0  0  0  0
  190.9830  168.3370  140.8450 N   0  0  0  0  0  2  0  0  0  0  0  0
  192.8780  172.1680  138.6910 C   0  0  2  0  0  3  0  0  0  0  0  0
  191.9950  171.0260  138.4260 N   0  0  2  0  0  0  0  0  0  0  0  0
  194.8380  173.6280  137.9950 C   0  0  0  0  0  2  0  0  0  0  0  0
  192.0110  173.3990  138.7940 C   0  0  1  0  0  0  0  0  0  0  0  0
  194.0560  172.3300  137.7110 C   0  0  1  0  0  3  0  0  0  0  0  0
  189.4840  173.5610  138.6710 C   0  0  0  0  0  2  0  0  0  0  0  0
  191.9410  174.2660  137.5050 C   0  0  0  0  0  2  0  0  0  0  0  0
  193.7760  174.6400  140.0730 C   0  0  0  0  0  0  0  0  0  0  0  0
  190.6940  172.7250  139.1030 C   0  0  1  0  0  3  0  0  0  0  0  0
  189.4730  173.8500  137.1630 C   0  0  0  0  0  2  0  0  0  0  0  0
  192.4480  174.2080  139.8850 O   0  0  0  0  0  0  0  0  0  0  0  0
  190.8680  173.7950  136.5280 C   0  0  1  0  0  3  0  0  0  0  0  0
  194.9750  173.9270  139.4910 C   0  0  0  0  0  2  0  0  0  0  0  0
  190.7020  171.4940  138.4170 O   0  0  0  0  0  0  0  0  0  0  0  0
  193.9870  175.6070  140.8490 O   0  0  0  0  0  0  0  0  0  0  0  0
  189.7800  175.2780  134.8510 O   0  0  0  0  0  1  0  0  0  0  0  0
  191.9630  174.6420  134.5740 O   0  0  0  0  0  0  0  0  0  0  0  0
  190.9130  174.5960  135.2690 C   0  0  0  0  0  0  0  0  0  0  0  0
  196.2190  171.4790  137.1560 O   0  0  0  0  0  1  0  0  0  0  0  0
  195.0020  171.1410  137.7490 C   0  0  0  0  0  2  0  0  0  0  0  0
  191.1080  172.0580  143.7690 C   0  0  0  0  0  2  0  0  0  0  0  0
  188.1810  175.7670  142.1800 C   0  0  0  0  0  2  0  0  0  0  0  0
  190.4760  176.6630  145.8710 C   0  0  1  0  0  3  0  0  0  0  0  0
  190.6100  177.2850  142.6750 O   0  0  0  0  0  0  0  0  0  0  0  0
  189.0690  174.7530  146.2450 N   0  0  0  0  0  2  0  0  0  0  0  0
  186.7720  178.2560  141.4880 O   0  0  0  0  0  1  0  0  0  0  0  0
  188.8540  173.0130  142.2160 O   0  0  0  0  0  0  0  0  0  0  0  0
  186.4700  178.2440  145.2080 C   0  0  1  0  0  3  0  0  0  0  0  0
  191.1430  173.3140  142.9060 C   0  0  2  0  0  3  0  0  0  0  0  0
  192.1160  174.2490  143.3880 O   0  0  0  0  0  0  0  0  0  0  0  0
  187.6850  177.3980  145.2760 N   0  0  2  0  0  0  0  0  0  0  0  0
  186.3350  178.7850  143.7780 C   0  0  0  0  0  2  0  0  0  0  0  0
  186.9960  176.2790  147.2640 O   0  0  0  0  0  1  0  0  0  0  0  0
  191.2980  177.4360  146.6700 F   0  0  0  0  0  0  0  0  0  0  0  0
  191.2260  175.4280  145.3960 C   0  0  1  0  0  3  0  0  0  0  0  0
  187.5410  176.3260  144.4460 O   0  0  0  0  0  0  0  0  0  0  0  0
  190.3500  174.2470  145.7790 C   0  0  0  0  0  2  0  0  0  0  0  0
  189.3230  176.1140  146.6920 C   0  0  2  0  0  3  0  0  0  0  0  0
  187.7600  176.8530  143.1640 C   0  0  2  0  0  3  0  0  0  0  0  0
  190.5550  176.0680  143.0000 C   0  0  0  0  0  0  0  0  0  0  0  0
  189.7540  173.8270  142.5630 C   0  0  0  0  0  0  0  0  0  0  0  0
  191.5920  175.4730  143.8920 C   0  0  2  0  0  3  0  0  0  0  0  0
  188.0430  176.9700  146.6440 C   0  0  1  0  0  3  0  0  0  0  0  0
  186.5470  177.6750  142.7370 C   0  0  2  0  0  3  0  0  0  0  0  0
  189.4900  175.2300  142.5630 N   0  0  0  0  0  0  0  0  0  0  0  0
  185.1920  177.4880  145.5630 C   0  0  0  0  0  1  0  0  0  0  0  0
  1 28  1  0  0  0  0
  2  7  1  0  0  0  0
  4  3  1  0  0  0  0
  4  1  1  0  0  0  0
  5  4  2  0  0  0  0
  6  2  1  1  0  0  0
  6  5  1  0  0  0  0
  7  3  1  0  0  0  0
  8 11  1  0  0  0  0
  9  8  1  0  0  0  0
  9  6  1  0  0  0  0
 10 20  1  0  0  0  0
 11 16  1  0  0  0  0
 11 18  1  0  0  0  0
 12 27  1  0  0  0  0
 12 10  1  0  0  0  0
 12  8  1  0  0  0  0
 13 16  1  0  0  0  0
 14 11  1  0  0  0  0
 15 22  2  0  0  0  0
 17 13  1  0  0  0  0
 18 15  1  0  0  0  0
 19 17  1  0  0  0  0
 19 14  1  0  0  0  0
 20 15  1  0  0  0  0
 21  9  1  0  0  0  0
 21 16  1  0  0  0  0
 23 25  1  0  0  0  0
 24 25  2  0  0  0  0
 25 19  1  0  0  0  0
 26 27  1  0  0  0  0
 29 52  1  0  0  0  0
 29 46  1  0  0  0  0
 30 41  1  0  0  0  0
 30 45  1  0  0  0  0
 31 47  2  0  0  0  0
 32 45  1  0  0  0  0
 33 51  1  0  0  0  0
 34 48  2  0  0  0  0
 35 38  1  0  0  0  0
 35 53  1  0  0  0  0
 36 37  1  0  0  0  0
 36 28  1  0  0  0  0
 37 49  1  0  0  0  0
 38 50  1  0  0  0  0
 39 35  1  0  0  0  0
 42 44  1  0  0  0  0
 42 30  1  0  0  0  0
 43 38  1  0  0  0  0
 44 32  1  0  0  0  0
 46 43  1  0  0  0  0
 47 49  1  0  0  0  0
 48 52  1  0  0  0  0
 48 36  1  0  0  0  0
 49 42  1  0  0  0  0
 50 45  1  0  0  0  0
 50 40  1  0  0  0  0
 51 46  1  0  0  0  0
 51 39  1  0  0  0  0
 52 47  1  0  0  0  0
M  END
>  <MODEL>
4

>  <REMARK>
 VINA RESULT:      -8.2      2.021      2.847
  Name = 
  6 active torsions:
  status: ('A' for Active; 'I' for Inactive)
    1  A    between atoms: N_9  and  C_46
    2  A    between atoms: C_11  and  C_38
    3  A    between atoms: N_19  and  C_33
    4  A    between atoms: N_19  and  C_38
    5  A    between atoms: C_21  and  C_22
    6  A    between atoms: C_45  and  C_47
                            x       y       z     vdW  Elec       q    Type
                         _______ _______ _______ _____ _____    ______ ____

>  <TORSDO>
F 6

$$$$
=
 OpenBabel11062420323D

 53 60  0  0  1  0  0  0  0  0999 V2000
  194.4330  174.2810  142.9850 N   0  0  0  0  0  2  0  0  0  0  0  0
  194.6850  172.7550  139.0630 C   0  0  0  0  0  2  0  0  0  0  0  0
  195.3030  172.5650  141.3430 C   0  0  0  0  0  2  0  0  0  0  0  0
  194.6340  173.8860  141.6230 C   0  0  0  0  0  0  0  0  0  0  0  0
  194.1090  174.6030  140.6200 C   0  0  0  0  0  3  0  0  0  0  0  0
  194.2930  174.2300  139.1670 C   0  0  2  0  0  3  0  0  0  0  0  0
  195.7980  172.4850  139.9680 N   0  0  0  0  0  2  0  0  0  0  0  0
  192.6370  173.3170  137.7000 C   0  0  2  0  0  3  0  0  0  0  0  0
  193.0880  174.5410  138.3740 N   0  0  2  0  0  0  0  0  0  0  0  0
  190.8270  171.5800  137.2980 C   0  0  0  0  0  2  0  0  0  0  0  0
  192.7190  173.5610  136.2130 C   0  0  1  0  0  0  0  0  0  0  0  0
  191.2660  172.7810  138.1580 C   0  0  1  0  0  3  0  0  0  0  0  0
  193.5760  175.6140  134.9980 C   0  0  0  0  0  2  0  0  0  0  0  0
  191.3760  173.9510  135.5340 C   0  0  0  0  0  2  0  0  0  0  0  0
  192.7690  171.1010  135.7260 C   0  0  0  0  0  0  0  0  0  0  0  0
  193.7090  174.7040  136.2240 C   0  0  1  0  0  3  0  0  0  0  0  0
  192.1850  176.2550  134.8850 C   0  0  0  0  0  2  0  0  0  0  0  0
  193.2600  172.4110  135.5640 O   0  0  0  0  0  0  0  0  0  0  0  0
  191.0900  175.4490  135.5950 C   0  0  1  0  0  3  0  0  0  0  0  0
  191.9880  170.6480  136.9380 C   0  0  0  0  0  2  0  0  0  0  0  0
  193.4630  175.4370  137.4020 O   0  0  0  0  0  0  0  0  0  0  0  0
  193.0810  170.2340  134.8700 O   0  0  0  0  0  0  0  0  0  0  0  0
  188.9250  174.7130  134.6140 O   0  0  0  0  0  0  0  0  0  0  0  0
  189.3600  176.9450  134.8880 O   0  0  0  0  0  1  0  0  0  0  0  0
  189.7470  175.7540  135.0220 C   0  0  0  0  0  0  0  0  0  0  0  0
  189.9780  172.0180  140.0200 O   0  0  0  0  0  1  0  0  0  0  0  0
  191.2630  172.3920  139.6260 C   0  0  0  0  0  2  0  0  0  0  0  0
  193.6940  175.4760  143.3750 C   0  0  0  0  0  2  0  0  0  0  0  0
  189.6890  177.0930  145.8640 C   0  0  0  0  0  2  0  0  0  0  0  0
  188.9210  173.6940  143.1170 C   0  0  1  0  0  3  0  0  0  0  0  0
  189.3720  174.2360  146.2990 O   0  0  0  0  0  0  0  0  0  0  0  0
  189.7860  175.5540  141.8690 N   0  0  0  0  0  2  0  0  0  0  0  0
  187.1470  177.5840  147.2630 O   0  0  0  0  0  1  0  0  0  0  0  0
  192.3080  177.5360  144.8710 O   0  0  0  0  0  0  0  0  0  0  0  0
  185.9560  176.8090  143.8120 C   0  0  1  0  0  3  0  0  0  0  0  0
  192.8970  175.2110  144.6460 C   0  0  2  0  0  3  0  0  0  0  0  0
  192.4130  173.8620  144.6860 O   0  0  0  0  0  0  0  0  0  0  0  0
  187.2020  176.0410  143.5840 N   0  0  2  0  0  0  0  0  0  0  0  0
  185.8470  177.1250  145.3100 C   0  0  0  0  0  2  0  0  0  0  0  0
  187.2650  176.5140  141.2490 O   0  0  0  0  0  1  0  0  0  0  0  0
  188.4140  172.4510  142.7850 F   0  0  0  0  0  0  0  0  0  0  0  0
  190.4400  173.6350  143.1800 C   0  0  1  0  0  3  0  0  0  0  0  0
  188.2780  176.8080  143.9190 O   0  0  0  0  0  0  0  0  0  0  0  0
  190.9280  174.7480  142.2680 C   0  0  0  0  0  2  0  0  0  0  0  0
  188.6250  174.6870  142.0090 C   0  0  2  0  0  3  0  0  0  0  0  0
  188.3000  176.7750  145.3210 C   0  0  2  0  0  3  0  0  0  0  0  0
  190.2800  174.6560  145.5320 C   0  0  0  0  0  0  0  0  0  0  0  0
  191.9310  176.3360  144.9780 C   0  0  0  0  0  0  0  0  0  0  0  0
  190.9980  173.7180  144.6210 C   0  0  2  0  0  3  0  0  0  0  0  0
  187.3350  175.5040  142.2140 C   0  0  1  0  0  3  0  0  0  0  0  0
  187.1780  177.6520  145.8690 C   0  0  2  0  0  3  0  0  0  0  0  0
  190.6280  176.0360  145.4770 N   0  0  0  0  0  0  0  0  0  0  0  0
  185.9110  178.1240  143.0350 C   0  0  0  0  0  1  0  0  0  0  0  0
  1 28  1  0  0  0  0
  2  7  1  0  0  0  0
  3  4  1  0  0  0  0
  4  1  1  0  0  0  0
  5  4  2  0  0  0  0
  6  2  1  1  0  0  0
  6  5  1  0  0  0  0
  7  3  1  0  0  0  0
  8 12  1  0  0  0  0
  8  9  1  0  0  0  0
  9  6  1  0  0  0  0
 10 12  1  0  0  0  0
 11 16  1  0  0  0  0
 11  8  1  0  0  0  0
 12 27  1  0  0  0  0
 13 16  1  0  0  0  0
 14 19  1  0  0  0  0
 14 11  1  0  0  0  0
 15 20  1  0  0  0  0
 16 21  1  0  0  0  0
 17 13  1  0  0  0  0
 17 19  1  0  0  0  0
 18 15  1  0  0  0  0
 18 11  1  0  0  0  0
 20 10  1  0  0  0  0
 21  9  1  0  0  0  0
 22 15  2  0  0  0  0
 23 25  2  0  0  0  0
 24 25  1  0  0  0  0
 25 19  1  0  0  0  0
 27 26  1  0  0  0  0
 28 36  1  0  0  0  0
 30 42  1  0  0  0  0
 32 45  1  0  0  0  0
 32 44  1  0  0  0  0
 34 48  2  0  0  0  0
 35 39  1  0  0  0  0
 36 37  1  0  0  0  0
 36 48  1  0  0  0  0
 38 35  1  0  0  0  0
 38 43  1  0  0  0  0
 39 51  1  0  0  0  0
 40 50  1  0  0  0  0
 41 30  1  0  0  0  0
 42 49  1  0  0  0  0
 43 46  1  0  0  0  0
 44 42  1  0  0  0  0
 45 50  1  0  0  0  0
 45 30  1  0  0  0  0
 46 29  1  0  0  0  0
 46 51  1  0  0  0  0
 47 31  2  0  0  0  0
 48 52  1  0  0  0  0
 49 37  1  0  0  0  0
 49 47  1  0  0  0  0
 50 38  1  0  0  0  0
 51 33  1  0  0  0  0
 52 47  1  0  0  0  0
 52 29  1  0  0  0  0
 53 35  1  0  0  0  0
M  END
>  <MODEL>
5

>  <REMARK>
 VINA RESULT:      -8.2      2.611      4.976
  Name = 
  6 active torsions:
  status: ('A' for Active; 'I' for Inactive)
    1  A    between atoms: N_9  and  C_46
    2  A    between atoms: C_11  and  C_38
    3  A    between atoms: N_19  and  C_33
    4  A    between atoms: N_19  and  C_38
    5  A    between atoms: C_21  and  C_22
    6  A    between atoms: C_45  and  C_47
                            x       y       z     vdW  Elec       q    Type
                         _______ _______ _______ _____ _____    ______ ____

>  <TORSDO>
F 6

$$$$
=
 OpenBabel11062420323D

 53 60  0  0  1  0  0  0  0  0999 V2000
  192.6690  175.8460  141.7950 N   0  0  0  0  0  2  0  0  0  0  0  0
  196.6870  174.5860  141.5720 C   0  0  0  0  0  2  0  0  0  0  0  0
  195.1140  176.3490  141.3870 C   0  0  0  0  0  2  0  0  0  0  0  0
  193.9950  175.3550  141.5650 C   0  0  0  0  0  0  0  0  0  0  0  0
  194.2630  174.0450  141.6500 C   0  0  0  0  0  3  0  0  0  0  0  0
  195.6440  173.4780  141.4140 C   0  0  2  0  0  3  0  0  0  0  0  0
  196.2920  175.7390  140.7690 N   0  0  0  0  0  2  0  0  0  0  0  0
  194.6380  171.7070  142.6720 C   0  0  2  0  0  3  0  0  0  0  0  0
  195.9150  172.3310  142.3030 N   0  0  2  0  0  0  0  0  0  0  0  0
  193.1300  169.6630  142.7010 C   0  0  0  0  0  2  0  0  0  0  0  0
  194.4910  171.8250  144.1690 C   0  0  1  0  0  0  0  0  0  0  0  0
  194.4330  170.2720  142.1480 C   0  0  1  0  0  3  0  0  0  0  0  0
  196.0340  172.9750  145.8190 C   0  0  0  0  0  2  0  0  0  0  0  0
  194.8860  170.5540  144.9730 C   0  0  0  0  0  2  0  0  0  0  0  0
  192.0050  171.5140  144.0340 C   0  0  0  0  0  0  0  0  0  0  0  0
  195.4480  172.9710  144.4030 C   0  0  1  0  0  3  0  0  0  0  0  0
  196.8170  171.6920  146.1380 C   0  0  0  0  0  2  0  0  0  0  0  0
  193.1510  172.1930  144.4940 O   0  0  0  0  0  0  0  0  0  0  0  0
  196.3770  170.4910  145.2930 C   0  0  1  0  0  3  0  0  0  0  0  0
  191.9830  170.6740  142.7780 C   0  0  0  0  0  2  0  0  0  0  0  0
  196.4780  172.8350  143.4510 O   0  0  0  0  0  0  0  0  0  0  0  0
  190.9180  171.6970  144.6380 O   0  0  0  0  0  0  0  0  0  0  0  0
  196.5090  169.0800  147.3390 O   0  0  0  0  0  1  0  0  0  0  0  0
  197.2060  168.2450  145.3230 O   0  0  0  0  0  0  0  0  0  0  0  0
  196.7160  169.2070  145.9730 C   0  0  0  0  0  0  0  0  0  0  0  0
  195.5570  169.5350  140.1720 O   0  0  0  0  0  1  0  0  0  0  0  0
  194.4250  170.2110  140.6300 C   0  0  0  0  0  2  0  0  0  0  0  0
  192.3610  176.9180  142.7350 C   0  0  0  0  0  2  0  0  0  0  0  0
  188.8360  177.8000  146.1480 C   0  0  0  0  0  2  0  0  0  0  0  0
  187.5870  175.1240  142.8360 C   0  0  1  0  0  3  0  0  0  0  0  0
  188.5560  174.9140  145.9400 O   0  0  0  0  0  0  0  0  0  0  0  0
  188.2610  177.2480  141.9400 N   0  0  0  0  0  2  0  0  0  0  0  0
  186.5620  177.8820  148.0140 O   0  0  0  0  0  1  0  0  0  0  0  0
  191.2640  178.5310  144.8790 O   0  0  0  0  0  0  0  0  0  0  0  0
  184.8150  177.9120  144.7160 C   0  0  1  0  0  3  0  0  0  0  0  0
  191.7790  176.3400  144.0190 C   0  0  2  0  0  3  0  0  0  0  0  0
  191.2890  175.0080  143.8160 O   0  0  0  0  0  0  0  0  0  0  0  0
  185.9980  177.2510  144.1150 N   0  0  2  0  0  0  0  0  0  0  0  0
  184.9560  177.8630  146.2430 C   0  0  0  0  0  2  0  0  0  0  0  0
  185.6860  178.2620  141.9800 O   0  0  0  0  0  1  0  0  0  0  0  0
  187.0160  173.9820  142.3050 F   0  0  0  0  0  0  0  0  0  0  0  0
  189.0940  175.0910  142.6370 C   0  0  1  0  0  3  0  0  0  0  0  0
  187.1240  177.9450  144.4440 O   0  0  0  0  0  0  0  0  0  0  0  0
  189.4430  176.4000  141.9480 C   0  0  0  0  0  2  0  0  0  0  0  0
  187.1280  176.3420  142.0570 C   0  0  2  0  0  3  0  0  0  0  0  0
  187.3730  177.5830  145.7760 C   0  0  2  0  0  3  0  0  0  0  0  0
  189.3320  175.5260  145.1580 C   0  0  0  0  0  0  0  0  0  0  0  0
  190.8940  177.3310  144.7580 C   0  0  0  0  0  0  0  0  0  0  0  0
  189.8810  174.8470  143.9480 C   0  0  2  0  0  3  0  0  0  0  0  0
  185.8990  177.0550  142.6540 C   0  0  1  0  0  3  0  0  0  0  0  0
  186.3670  178.2770  146.6890 C   0  0  2  0  0  3  0  0  0  0  0  0
  189.6850  176.8880  145.3760 N   0  0  0  0  0  0  0  0  0  0  0  0
  184.6620  179.3700  144.2900 C   0  0  0  0  0  1  0  0  0  0  0  0
  1 28  1  0  0  0  0
  3  4  1  0  0  0  0
  4  5  2  0  0  0  0
  4  1  1  0  0  0  0
  6  2  1  1  0  0  0
  6  5  1  0  0  0  0
  6  9  1  0  0  0  0
  7  3  1  0  0  0  0
  7  2  1  0  0  0  0
  8 11  1  0  0  0  0
  9  8  1  0  0  0  0
  9 21  1  0  0  0  0
 10 20  1  0  0  0  0
 11 16  1  0  0  0  0
 11 18  1  0  0  0  0
 11 14  1  0  0  0  0
 12  8  1  0  0  0  0
 12 10  1  0  0  0  0
 13 17  1  0  0  0  0
 14 19  1  0  0  0  0
 15 18  1  0  0  0  0
 15 22  2  0  0  0  0
 16 13  1  0  0  0  0
 19 25  1  0  0  0  0
 19 17  1  0  0  0  0
 20 15  1  0  0  0  0
 21 16  1  0  0  0  0
 24 25  2  0  0  0  0
 25 23  1  0  0  0  0
 26 27  1  0  0  0  0
 27 12  1  0  0  0  0
 28 36  1  0  0  0  0
 32 44  1  0  0  0  0
 32 45  1  0  0  0  0
 35 39  1  0  0  0  0
 36 48  1  0  0  0  0
 37 49  1  0  0  0  0
 37 36  1  0  0  0  0
 38 43  1  0  0  0  0
 38 35  1  0  0  0  0
 39 51  1  0  0  0  0
 40 50  1  0  0  0  0
 41 30  1  0  0  0  0
 42 30  1  0  0  0  0
 42 49  1  0  0  0  0
 43 46  1  0  0  0  0
 44 42  1  0  0  0  0
 45 50  1  0  0  0  0
 45 30  1  0  0  0  0
 46 29  1  0  0  0  0
 46 51  1  0  0  0  0
 47 52  1  0  0  0  0
 47 31  2  0  0  0  0
 48 34  2  0  0  0  0
 48 52  1  0  0  0  0
 49 47  1  0  0  0  0
 50 38  1  0  0  0  0
 51 33  1  0  0  0  0
 52 29  1  0  0  0  0
 53 35  1  0  0  0  0
M  END
>  <MODEL>
6

>  <REMARK>
 VINA RESULT:      -8.1      3.218      5.871
  Name = 
  6 active torsions:
  status: ('A' for Active; 'I' for Inactive)
    1  A    between atoms: N_9  and  C_46
    2  A    between atoms: C_11  and  C_38
    3  A    between atoms: N_19  and  C_33
    4  A    between atoms: N_19  and  C_38
    5  A    between atoms: C_21  and  C_22
    6  A    between atoms: C_45  and  C_47
                            x       y       z     vdW  Elec       q    Type
                         _______ _______ _______ _____ _____    ______ ____

>  <TORSDO>
F 6

$$$$
=
 OpenBabel11062420323D

 53 60  0  0  1  0  0  0  0  0999 V2000
  195.0190  175.3740  144.9320 N   0  0  0  0  0  2  0  0  0  0  0  0
  196.5500  175.5740  141.0080 C   0  0  0  0  0  2  0  0  0  0  0  0
  196.4970  176.4750  143.1990 C   0  0  0  0  0  2  0  0  0  0  0  0
  195.3910  175.5150  143.5560 C   0  0  0  0  0  0  0  0  0  0  0  0
  194.8690  174.7090  142.6210 C   0  0  0  0  0  3  0  0  0  0  0  0
  195.2270  174.8200  141.1570 C   0  0  2  0  0  3  0  0  0  0  0  0
  196.4880  176.8140  141.7760 N   0  0  0  0  0  2  0  0  0  0  0  0
  194.3900  172.5790  141.2500 C   0  0  2  0  0  3  0  0  0  0  0  0
  195.2700  173.4930  140.5110 N   0  0  2  0  0  0  0  0  0  0  0  0
  192.3850  171.0190  141.2810 C   0  0  0  0  0  2  0  0  0  0  0  0
  195.2500  171.4680  141.8010 C   0  0  1  0  0  0  0  0  0  0  0  0
  193.1630  172.0720  140.4670 C   0  0  1  0  0  3  0  0  0  0  0  0
  197.7660  171.1970  141.6460 C   0  0  0  0  0  2  0  0  0  0  0  0
  195.2470  170.1560  140.9660 C   0  0  0  0  0  2  0  0  0  0  0  0
  193.5400  170.8930  143.5430 C   0  0  0  0  0  0  0  0  0  0  0  0
  196.5880  172.1700  141.7570 C   0  0  1  0  0  3  0  0  0  0  0  0
  197.6980  170.3290  140.3810 C   0  0  0  0  0  2  0  0  0  0  0  0
  194.8610  171.1750  143.1420 O   0  0  0  0  0  0  0  0  0  0  0  0
  196.2740  170.1650  139.8370 C   0  0  1  0  0  3  0  0  0  0  0  0
  192.3210  171.3470  142.7750 C   0  0  0  0  0  2  0  0  0  0  0  0
  196.5560  173.0250  140.6360 O   0  0  0  0  0  0  0  0  0  0  0  0
  193.3590  170.3240  144.6500 O   0  0  0  0  0  0  0  0  0  0  0  0
  197.2670  168.4610  138.3190 O   0  0  0  0  0  0  0  0  0  0  0  0
  195.0600  168.3200  138.9120 O   0  0  0  0  0  1  0  0  0  0  0  0
  196.1580  168.9300  139.0080 C   0  0  0  0  0  0  0  0  0  0  0  0
  190.9850  172.6910  139.7030 O   0  0  0  0  0  1  0  0  0  0  0  0
  192.2320  173.2040  140.0660 C   0  0  0  0  0  2  0  0  0  0  0  0
  194.0380  176.2280  145.5910 C   0  0  0  0  0  2  0  0  0  0  0  0
  189.3470  176.4460  147.2630 C   0  0  0  0  0  2  0  0  0  0  0  0
  189.7790  174.8600  143.1410 C   0  0  1  0  0  3  0  0  0  0  0  0
  189.3160  173.7530  146.1710 O   0  0  0  0  0  0  0  0  0  0  0  0
  190.6770  177.0850  143.2420 N   0  0  0  0  0  2  0  0  0  0  0  0
  186.4880  176.2090  147.9180 O   0  0  0  0  0  1  0  0  0  0  0  0
  192.0490  177.2930  147.4110 O   0  0  0  0  0  0  0  0  0  0  0  0
  186.3430  177.2570  144.3390 C   0  0  1  0  0  3  0  0  0  0  0  0
  192.9840  175.3770  146.2890 C   0  0  2  0  0  3  0  0  0  0  0  0
  192.6920  174.1910  145.5380 O   0  0  0  0  0  0  0  0  0  0  0  0
  187.6980  176.6880  144.1460 N   0  0  2  0  0  0  0  0  0  0  0  0
  185.8100  176.7910  145.7010 C   0  0  0  0  0  2  0  0  0  0  0  0
  188.2960  178.2540  142.4520 O   0  0  0  0  0  1  0  0  0  0  0  0
  189.5470  173.9500  142.1260 F   0  0  0  0  0  0  0  0  0  0  0  0
  191.2240  174.7610  143.6070 C   0  0  1  0  0  3  0  0  0  0  0  0
  188.5380  177.1770  145.1020 O   0  0  0  0  0  0  0  0  0  0  0  0
  191.7760  176.1740  143.5220 C   0  0  0  0  0  2  0  0  0  0  0  0
  189.6480  176.2740  142.6080 C   0  0  2  0  0  3  0  0  0  0  0  0
  188.2010  176.4540  146.2570 C   0  0  2  0  0  3  0  0  0  0  0  0
  190.3260  174.4870  145.9980 C   0  0  0  0  0  0  0  0  0  0  0  0
  191.8230  176.2030  146.8190 C   0  0  0  0  0  0  0  0  0  0  0  0
  191.3750  174.1140  145.0050 C   0  0  2  0  0  3  0  0  0  0  0  0
  188.2510  176.8980  142.7920 C   0  0  1  0  0  3  0  0  0  0  0  0
  186.8680  176.9570  146.8020 C   0  0  2  0  0  3  0  0  0  0  0  0
  190.4870  175.7090  146.7110 N   0  0  0  0  0  0  0  0  0  0  0  0
  186.3240  178.7840  144.3070 C   0  0  0  0  0  1  0  0  0  0  0  0
  1 28  1  0  0  0  0
  2  7  1  0  0  0  0
  3  4  1  0  0  0  0
  4  1  1  0  0  0  0
  5  4  2  0  0  0  0
  6  2  1  1  0  0  0
  6  5  1  0  0  0  0
  7  3  1  0  0  0  0
  8 11  1  0  0  0  0
  9 21  1  0  0  0  0
  9  6  1  0  0  0  0
  9  8  1  0  0  0  0
 10 20  1  0  0  0  0
 11 18  1  0  0  0  0
 12  8  1  0  0  0  0
 12 10  1  0  0  0  0
 13 16  1  0  0  0  0
 14 11  1  0  0  0  0
 15 22  2  0  0  0  0
 16 11  1  0  0  0  0
 17 13  1  0  0  0  0
 18 15  1  0  0  0  0
 19 17  1  0  0  0  0
 19 14  1  0  0  0  0
 20 15  1  0  0  0  0
 21 16  1  0  0  0  0
 23 25  2  0  0  0  0
 24 25  1  0  0  0  0
 25 19  1  0  0  0  0
 26 27  1  0  0  0  0
 27 12  1  0  0  0  0
 28 36  1  0  0  0  0
 30 42  1  0  0  0  0
 32 44  1  0  0  0  0
 35 39  1  0  0  0  0
 36 48  1  0  0  0  0
 37 36  1  0  0  0  0
 38 35  1  0  0  0  0
 38 43  1  0  0  0  0
 39 51  1  0  0  0  0
 40 50  1  0  0  0  0
 41 30  1  0  0  0  0
 42 49  1  0  0  0  0
 43 46  1  0  0  0  0
 44 42  1  0  0  0  0
 45 50  1  0  0  0  0
 45 30  1  0  0  0  0
 45 32  1  0  0  0  0
 46 51  1  0  0  0  0
 46 29  1  0  0  0  0
 47 31  2  0  0  0  0
 47 52  1  0  0  0  0
 48 34  2  0  0  0  0
 49 37  1  0  0  0  0
 49 47  1  0  0  0  0
 50 38  1  0  0  0  0
 51 33  1  0  0  0  0
 52 48  1  0  0  0  0
 52 29  1  0  0  0  0
 53 35  1  0  0  0  0
M  END
>  <MODEL>
7

>  <REMARK>
 VINA RESULT:      -8.0      2.850      5.311
  Name = 
  6 active torsions:
  status: ('A' for Active; 'I' for Inactive)
    1  A    between atoms: N_9  and  C_46
    2  A    between atoms: C_11  and  C_38
    3  A    between atoms: N_19  and  C_33
    4  A    between atoms: N_19  and  C_38
    5  A    between atoms: C_21  and  C_22
    6  A    between atoms: C_45  and  C_47
                            x       y       z     vdW  Elec       q    Type
                         _______ _______ _______ _____ _____    ______ ____

>  <TORSDO>
F 6

$$$$
=
 OpenBabel11062420323D

 53 60  0  0  1  0  0  0  0  0999 V2000
  188.6180  173.9620  141.0080 N   0  0  0  0  0  2  0  0  0  0  0  0
  186.9150  177.8170  141.1530 C   0  0  0  0  0  2  0  0  0  0  0  0
  187.1010  175.7370  140.0330 C   0  0  0  0  0  2  0  0  0  0  0  0
  188.1880  175.3290  140.9940 C   0  0  0  0  0  0  0  0  0  0  0  0
  188.6370  176.1950  141.9140 C   0  0  0  0  0  3  0  0  0  0  0  0
  188.2160  177.6460  141.9410 C   0  0  2  0  0  3  0  0  0  0  0  0
  187.0570  177.1870  139.8440 N   0  0  0  0  0  2  0  0  0  0  0  0
  188.8620  177.2640  144.2140 C   0  0  2  0  0  3  0  0  0  0  0  0
  188.0960  178.1450  143.3240 N   0  0  2  0  0  0  0  0  0  0  0  0
  190.7310  176.9530  145.9070 C   0  0  0  0  0  2  0  0  0  0  0  0
  187.8890  176.6460  145.1880 C   0  0  1  0  0  0  0  0  0  0  0  0
  190.0800  177.9180  144.8960 C   0  0  1  0  0  3  0  0  0  0  0  0
  185.3700  176.9110  145.2830 C   0  0  0  0  0  2  0  0  0  0  0  0
  187.8260  177.3330  146.5820 C   0  0  0  0  0  2  0  0  0  0  0  0
  189.4630  174.7580  145.6920 C   0  0  0  0  0  0  0  0  0  0  0  0
  186.6170  176.8400  144.3960 C   0  0  1  0  0  3  0  0  0  0  0  0
  185.4270  178.0690  146.2910 C   0  0  0  0  0  2  0  0  0  0  0  0
  188.1900  175.2610  145.3570 O   0  0  0  0  0  0  0  0  0  0  0  0
  186.8570  178.5110  146.6220 C   0  0  1  0  0  3  0  0  0  0  0  0
  190.7500  175.5010  145.4200 C   0  0  0  0  0  2  0  0  0  0  0  0
  186.7710  178.0430  143.6770 O   0  0  0  0  0  0  0  0  0  0  0  0
  189.5440  173.5880  146.1450 O   0  0  0  0  0  0  0  0  0  0  0  0
  185.9420  180.1310  148.2750 O   0  0  0  0  0  0  0  0  0  0  0  0
  187.8390  178.9430  148.7620 O   0  0  0  0  0  1  0  0  0  0  0  0
  186.9120  179.1940  147.9470 C   0  0  0  0  0  0  0  0  0  0  0  0
  192.3810  177.9140  144.2520 O   0  0  0  0  0  1  0  0  0  0  0  0
  191.1180  178.3860  143.8910 C   0  0  0  0  0  2  0  0  0  0  0  0
  189.7690  173.4900  141.7680 C   0  0  0  0  0  2  0  0  0  0  0  0
  194.6530  174.4690  141.9670 C   0  0  0  0  0  2  0  0  0  0  0  0
  193.5810  170.2200  142.6620 C   0  0  1  0  0  3  0  0  0  0  0  0
  194.7310  172.1110  140.2700 O   0  0  0  0  0  0  0  0  0  0  0  0
  192.5080  171.5970  144.3110 N   0  0  0  0  0  2  0  0  0  0  0  0
  197.5940  174.5650  141.9640 O   0  0  0  0  0  1  0  0  0  0  0  0
  191.9630  175.3550  142.1010 O   0  0  0  0  0  0  0  0  0  0  0  0
  196.9350  172.1120  144.6990 C   0  0  1  0  0  3  0  0  0  0  0  0
  191.0170  173.4980  140.8930 C   0  0  2  0  0  3  0  0  0  0  0  0
  191.2700  172.2020  140.3350 O   0  0  0  0  0  0  0  0  0  0  0  0
  195.6310  171.8010  144.0690 N   0  0  2  0  0  0  0  0  0  0  0  0
  197.7670  172.9420  143.7120 C   0  0  0  0  0  2  0  0  0  0  0  0
  194.5640  171.2890  146.1380 O   0  0  0  0  0  1  0  0  0  0  0  0
  193.6970  168.8570  142.4600 F   0  0  0  0  0  0  0  0  0  0  0  0
  192.2710  170.7220  142.0730 C   0  0  1  0  0  3  0  0  0  0  0  0
  194.9500  172.9600  143.8350 O   0  0  0  0  0  0  0  0  0  0  0  0
  191.5780  171.4700  143.2000 C   0  0  0  0  0  2  0  0  0  0  0  0
  193.4680  170.5160  144.1460 C   0  0  2  0  0  3  0  0  0  0  0  0
  195.5740  173.5000  142.7010 C   0  0  2  0  0  3  0  0  0  0  0  0
  193.6410  172.4740  140.7870 C   0  0  0  0  0  0  0  0  0  0  0  0
  192.1730  174.2500  141.5300 C   0  0  0  0  0  0  0  0  0  0  0  0
  192.4590  171.5630  140.7870 C   0  0  2  0  0  3  0  0  0  0  0  0
  194.8060  170.8430  144.8340 C   0  0  1  0  0  3  0  0  0  0  0  0
  196.9330  174.0740  143.0910 C   0  0  2  0  0  3  0  0  0  0  0  0
  193.5040  173.7430  141.4190 N   0  0  0  0  0  0  0  0  0  0  0  0
  196.8000  172.9000  146.0010 C   0  0  0  0  0  1  0  0  0  0  0  0
  1 28  1  0  0  0  0
  3  4  1  0  0  0  0
  4  1  1  0  0  0  0
  4  5  2  0  0  0  0
  5  6  1  0  0  0  0
  6  2  1  1  0  0  0
  6  9  1  0  0  0  0
  7  3  1  0  0  0  0
  7  2  1  0  0  0  0
  8 12  1  0  0  0  0
  8 11  1  0  0  0  0
  9 21  1  0  0  0  0
  9  8  1  0  0  0  0
 11 18  1  0  0  0  0
 11 14  1  0  0  0  0
 12 10  1  0  0  0  0
 13 17  1  0  0  0  0
 14 19  1  0  0  0  0
 15 22  2  0  0  0  0
 16 11  1  0  0  0  0
 16 13  1  0  0  0  0
 17 19  1  0  0  0  0
 18 15  1  0  0  0  0
 19 25  1  0  0  0  0
 20 15  1  0  0  0  0
 20 10  1  0  0  0  0
 21 16  1  0  0  0  0
 25 23  2  0  0  0  0
 25 24  1  0  0  0  0
 27 26  1  0  0  0  0
 27 12  1  0  0  0  0
 29 46  1  0  0  0  0
 30 45  1  0  0  0  0
 31 47  2  0  0  0  0
 33 51  1  0  0  0  0
 35 53  1  0  0  0  0
 36 48  1  0  0  0  0
 36 28  1  0  0  0  0
 37 49  1  0  0  0  0
 37 36  1  0  0  0  0
 38 35  1  0  0  0  0
 38 50  1  0  0  0  0
 39 35  1  0  0  0  0
 41 30  1  0  0  0  0
 42 30  1  0  0  0  0
 42 44  1  0  0  0  0
 43 38  1  0  0  0  0
 44 32  1  0  0  0  0
 45 32  1  0  0  0  0
 45 50  1  0  0  0  0
 46 51  1  0  0  0  0
 46 43  1  0  0  0  0
 47 49  1  0  0  0  0
 47 52  1  0  0  0  0
 48 34  2  0  0  0  0
 49 42  1  0  0  0  0
 50 40  1  0  0  0  0
 51 39  1  0  0  0  0
 52 48  1  0  0  0  0
 52 29  1  0  0  0  0
M  END
>  <MODEL>
8

>  <REMARK>
 VINA RESULT:      -8.0      3.287      9.674
  Name = 
  6 active torsions:
  status: ('A' for Active; 'I' for Inactive)
    1  A    between atoms: N_9  and  C_46
    2  A    between atoms: C_11  and  C_38
    3  A    between atoms: N_19  and  C_33
    4  A    between atoms: N_19  and  C_38
    5  A    between atoms: C_21  and  C_22
    6  A    between atoms: C_45  and  C_47
                            x       y       z     vdW  Elec       q    Type
                         _______ _______ _______ _____ _____    ______ ____

>  <TORSDO>
F 6

$$$$
=
 OpenBabel11062420323D

 53 60  0  0  1  0  0  0  0  0999 V2000
  194.9780  175.0650  144.9870 N   0  0  0  0  0  2  0  0  0  0  0  0
  197.1280  174.6320  141.3850 C   0  0  0  0  0  2  0  0  0  0  0  0
  197.1210  175.2870  143.6630 C   0  0  0  0  0  2  0  0  0  0  0  0
  195.6330  175.0620  143.7130 C   0  0  0  0  0  0  0  0  0  0  0  0
  194.9630  174.7230  142.6020 C   0  0  0  0  0  3  0  0  0  0  0  0
  195.6060  174.7070  141.2350 C   0  0  2  0  0  3  0  0  0  0  0  0
  197.5720  175.6600  142.3210 N   0  0  0  0  0  2  0  0  0  0  0  0
  194.9760  174.0740  139.0140 C   0  0  2  0  0  3  0  0  0  0  0  0
  195.0770  173.6090  140.4030 N   0  0  2  0  0  0  0  0  0  0  0  0
  195.6260  173.8260  136.5710 C   0  0  0  0  0  2  0  0  0  0  0  0
  193.5200  174.0220  138.6220 C   0  0  1  0  0  0  0  0  0  0  0  0
  195.9060  173.3600  138.0140 C   0  0  1  0  0  3  0  0  0  0  0  0
  191.5250  173.3850  140.0510 C   0  0  0  0  0  2  0  0  0  0  0  0
  193.1010  172.7640  137.8100 C   0  0  0  0  0  2  0  0  0  0  0  0
  193.8750  175.6610  136.7570 C   0  0  0  0  0  0  0  0  0  0  0  0
  192.9100  174.0390  140.0050 C   0  0  1  0  0  3  0  0  0  0  0  0
  191.5520  171.9130  139.6140 C   0  0  0  0  0  2  0  0  0  0  0  0
  193.1750  175.1950  137.8880 O   0  0  0  0  0  0  0  0  0  0  0  0
  192.7330  171.5770  138.6960 C   0  0  1  0  0  3  0  0  0  0  0  0
  195.3200  175.3230  136.4750 C   0  0  0  0  0  2  0  0  0  0  0  0
  193.8030  173.3450  140.8460 O   0  0  0  0  0  0  0  0  0  0  0  0
  193.3040  176.4830  135.9960 O   0  0  0  0  0  0  0  0  0  0  0  0
  193.0200  169.1550  138.1980 O   0  0  0  0  0  1  0  0  0  0  0  0
  191.6860  170.4500  136.8610 O   0  0  0  0  0  0  0  0  0  0  0  0
  192.4390  170.3710  137.8670 C   0  0  0  0  0  0  0  0  0  0  0  0
  197.9380  172.3720  138.7890 O   0  0  0  0  0  1  0  0  0  0  0  0
  197.3740  173.5690  138.3450 C   0  0  0  0  0  2  0  0  0  0  0  0
  193.8670  175.9500  145.3180 C   0  0  0  0  0  2  0  0  0  0  0  0
  189.2710  176.4800  147.1740 C   0  0  0  0  0  2  0  0  0  0  0  0
  189.4490  174.5810  143.1670 C   0  0  1  0  0  3  0  0  0  0  0  0
  189.0880  173.7180  146.2890 O   0  0  0  0  0  0  0  0  0  0  0  0
  190.4340  176.7690  143.0620 N   0  0  0  0  0  2  0  0  0  0  0  0
  186.4390  176.4090  147.9700 O   0  0  0  0  0  1  0  0  0  0  0  0
  192.0070  177.2250  147.1390 O   0  0  0  0  0  0  0  0  0  0  0  0
  186.1650  177.1970  144.3330 C   0  0  1  0  0  3  0  0  0  0  0  0
  192.8160  175.1960  146.1230 C   0  0  2  0  0  3  0  0  0  0  0  0
  192.4450  173.9710  145.4770 O   0  0  0  0  0  0  0  0  0  0  0  0
  187.4870  176.5610  144.1230 N   0  0  2  0  0  0  0  0  0  0  0  0
  185.6800  176.8550  145.7480 C   0  0  0  0  0  2  0  0  0  0  0  0
  188.0640  177.9730  142.2930 O   0  0  0  0  0  1  0  0  0  0  0  0
  189.1360  173.6100  142.2340 F   0  0  0  0  0  0  0  0  0  0  0  0
  190.9090  174.4580  143.5750 C   0  0  1  0  0  3  0  0  0  0  0  0
  188.3890  177.0840  145.0020 O   0  0  0  0  0  0  0  0  0  0  0  0
  191.5100  175.8370  143.3600 C   0  0  0  0  0  2  0  0  0  0  0  0
  189.3460  175.9570  142.5360 C   0  0  2  0  0  3  0  0  0  0  0  0
  188.0800  176.4620  146.2210 C   0  0  2  0  0  3  0  0  0  0  0  0
  190.1150  174.3960  146.0170 C   0  0  0  0  0  0  0  0  0  0  0  0
  191.7120  176.1040  146.6410 C   0  0  0  0  0  0  0  0  0  0  0  0
  191.1020  173.9090  145.0090 C   0  0  2  0  0  3  0  0  0  0  0  0
  187.9840  176.6480  142.7350 C   0  0  1  0  0  3  0  0  0  0  0  0
  186.7940  177.0570  146.7860 C   0  0  2  0  0  3  0  0  0  0  0  0
  190.3550  175.6590  146.6290 N   0  0  0  0  0  0  0  0  0  0  0  0
  186.2020  178.7170  144.1880 C   0  0  0  0  0  1  0  0  0  0  0  0
  1 28  1  0  0  0  0
  2  7  1  0  0  0  0
  3  4  1  0  0  0  0
  4  1  1  0  0  0  0
  5  4  2  0  0  0  0
  6  2  1  1  0  0  0
  6  5  1  0  0  0  0
  7  3  1  0  0  0  0
  8  9  1  0  0  0  0
  9 21  1  0  0  0  0
  9  6  1  0  0  0  0
 10 12  1  0  0  0  0
 11  8  1  0  0  0  0
 11 16  1  0  0  0  0
 12 27  1  0  0  0  0
 12  8  1  0  0  0  0
 14 11  1  0  0  0  0
 14 19  1  0  0  0  0
 15 18  1  0  0  0  0
 16 13  1  0  0  0  0
 16 21  1  0  0  0  0
 17 13  1  0  0  0  0
 18 11  1  0  0  0  0
 19 17  1  0  0  0  0
 20 10  1  0  0  0  0
 20 15  1  0  0  0  0
 22 15  2  0  0  0  0
 24 25  2  0  0  0  0
 25 23  1  0  0  0  0
 25 19  1  0  0  0  0
 27 26  1  0  0  0  0
 28 36  1  0  0  0  0
 30 42  1  0  0  0  0
 32 44  1  0  0  0  0
 35 39  1  0  0  0  0
 36 48  1  0  0  0  0
 37 36  1  0  0  0  0
 38 35  1  0  0  0  0
 38 43  1  0  0  0  0
 39 51  1  0  0  0  0
 40 50  1  0  0  0  0
 41 30  1  0  0  0  0
 42 49  1  0  0  0  0
 43 46  1  0  0  0  0
 44 42  1  0  0  0  0
 45 50  1  0  0  0  0
 45 32  1  0  0  0  0
 45 30  1  0  0  0  0
 46 51  1  0  0  0  0
 46 29  1  0  0  0  0
 47 31  2  0  0  0  0
 47 52  1  0  0  0  0
 48 34  2  0  0  0  0
 49 37  1  0  0  0  0
 49 47  1  0  0  0  0
 50 38  1  0  0  0  0
 51 33  1  0  0  0  0
 52 48  1  0  0  0  0
 52 29  1  0  0  0  0
 53 35  1  0  0  0  0
M  END
>  <MODEL>
9

>  <REMARK>
 VINA RESULT:      -8.0      2.475      4.820
  Name = 
  6 active torsions:
  status: ('A' for Active; 'I' for Inactive)
    1  A    between atoms: N_9  and  C_46
    2  A    between atoms: C_11  and  C_38
    3  A    between atoms: N_19  and  C_33
    4  A    between atoms: N_19  and  C_38
    5  A    between atoms: C_21  and  C_22
    6  A    between atoms: C_45  and  C_47
                            x       y       z     vdW  Elec       q    Type
                         _______ _______ _______ _____ _____    ______ ____

>  <TORSDO>
F 6

$$$$
