=
 OpenBabel11062422423D

 29 31  0  0  1  0  0  0  0  0999 V2000
  187.7490  176.1490  146.3840 C   0  0  0  0  0  2  0  0  0  0  0  0
  186.7490  178.4250  142.9400 C   0  0  0  0  0  0  0  0  0  0  0  0
  188.9470  177.2730  143.0800 C   0  0  0  0  0  0  0  0  0  0  0  0
  187.1690  178.2540  144.2170 C   0  0  0  0  0  0  0  0  0  0  0  0
  185.4080  179.0030  142.7150 C   0  0  2  0  0  3  0  0  0  0  0  0
  187.8770  177.7910  141.8700 S   0  0  0  0  0  0  0  0  0  0  0  0
  185.7360  177.3680  146.0350 C   0  0  2  0  0  3  0  0  0  0  0  0
  184.4770  177.6170  146.7200 N   0  0  0  0  0  1  0  0  0  0  0  0
  186.7280  176.9650  147.0270 N   0  0  0  0  0  2  0  0  0  0  0  0
  184.8080  179.4500  144.3910 S   0  0  0  0  0  0  0  0  0  0  0  0
  188.4070  177.6080  144.3320 C   0  0  0  0  0  0  0  0  0  0  0  0
  186.2040  178.6280  145.2830 C   0  0  2  0  0  3  0  0  0  0  0  0
  189.1460  177.2150  145.9190 S   0  0  0  0  0  0  0  0  0  0  0  0
  191.1660  173.0000  141.6670 C   0  0  0  0  0  1  0  0  0  0  0  0
  191.3160  177.1820  142.9420 O   0  0  0  0  0  0  0  0  0  0  0  0
  192.5080  174.8880  142.1870 O   0  0  0  0  0  0  0  0  0  0  0  0
  191.3460  174.4120  142.0920 C   0  0  0  0  0  0  0  0  0  0  0  0
  190.2190  176.5780  142.8080 C   0  0  0  0  0  0  0  0  0  0  0  0
  190.1940  175.2080  142.3870 N   0  0  0  0  0  2  0  0  0  0  0  0
  184.4700  177.9660  142.1220 C   0  0  0  0  0  2  0  0  0  0  0  0
  183.0350  178.4610  142.1700 C   0  0  0  0  0  2  0  0  0  0  0  0
  180.9510  178.3340  140.7270 C   0  0  0  0  0  0  0  0  0  0  0  0
  180.3680  177.8180  139.7360 O   0  0  0  0  0  0  0  0  0  0  0  0
  182.2900  177.9360  141.0340 N   0  0  0  0  0  2  0  0  0  0  0  0
  179.3690  178.7430  142.5230 N   0  0  0  0  0  1  0  0  0  0  0  0
  180.2480  179.3720  141.5500 C   0  0  2  0  0  3  0  0  0  0  0  0
  178.0960  180.2660  140.6730 O   0  0  0  0  0  1  0  0  0  0  0  0
  179.4830  180.3190  140.6850 C   0  0  0  0  0  0  0  0  0  0  0  0
  180.0820  181.1810  139.9900 O   0  0  0  0  0  0  0  0  0  0  0  0
  1  9  1  0  0  0  0
  2  4  2  0  0  0  0
  3 11  2  0  0  0  0
  4 11  1  0  0  0  0
  5 20  1  1  0  0  0
  5  2  1  0  0  0  0
  5 10  1  0  0  0  0
  6  2  1  0  0  0  0
  6  3  1  0  0  0  0
  7  8  1  1  0  0  0
  7  9  1  0  0  0  0
 10 12  1  0  0  0  0
 11 13  1  0  0  0  0
 12  4  1  6  0  0  0
 12  7  1  0  0  0  0
 13  1  1  0  0  0  0
 14 17  1  0  0  0  0
 17 16  2  0  0  0  0
 17 19  1  0  0  0  0
 18 15  2  0  0  0  0
 18  3  1  0  0  0  0
 19 18  1  0  0  0  0
 20 21  1  0  0  0  0
 22 24  1  0  0  0  0
 22 26  1  0  0  0  0
 23 22  2  0  0  0  0
 24 21  1  0  0  0  0
 26 25  1  1  0  0  0
 27 28  1  0  0  0  0
 28 26  1  0  0  0  0
 29 28  2  0  0  0  0
M  END
>  <MODEL>
1

>  <REMARK>
 VINA RESULT:      -7.0      0.000      0.000
  Name = 
  6 active torsions:
  status: ('A' for Active; 'I' for Inactive)
    1  A    between atoms: C_4  and  C_24
    2  A    between atoms: CA_8  and  C_13
    3  A    between atoms: CA_8  and  C_21
    4  A    between atoms: C_9  and  C_12
    5  A    between atoms: C_12  and  C_17
    6  A    between atoms: C_17  and  N_26
                            x       y       z     vdW  Elec       q    Type
                         _______ _______ _______ _____ _____    ______ ____

>  <TORSDO>
F 6

$$$$
=
 OpenBabel11062422423D

 29 31  0  0  1  0  0  0  0  0999 V2000
  191.8970  175.0680  147.2780 C   0  0  0  0  0  2  0  0  0  0  0  0
  190.7540  176.8410  143.5920 C   0  0  0  0  0  0  0  0  0  0  0  0
  193.1320  176.2520  144.0090 C   0  0  0  0  0  0  0  0  0  0  0  0
  191.0710  176.8480  144.9100 C   0  0  0  0  0  0  0  0  0  0  0  0
  189.3460  177.0720  143.2090 C   0  0  2  0  0  3  0  0  0  0  0  0
  192.1000  176.4320  142.6750 S   0  0  0  0  0  0  0  0  0  0  0  0
  189.7030  175.7530  146.6640 C   0  0  2  0  0  3  0  0  0  0  0  0
  188.3580  175.7360  147.2170 N   0  0  0  0  0  1  0  0  0  0  0  0
  190.6550  175.6540  147.7660 N   0  0  0  0  0  2  0  0  0  0  0  0
  188.4920  177.4600  144.7870 S   0  0  0  0  0  0  0  0  0  0  0  0
  192.4050  176.5210  145.1800 C   0  0  0  0  0  0  0  0  0  0  0  0
  189.9420  177.0430  145.8560 C   0  0  2  0  0  3  0  0  0  0  0  0
  193.0500  176.4060  146.8500 S   0  0  0  0  0  0  0  0  0  0  0  0
  196.8870  173.5330  145.9310 C   0  0  0  0  0  1  0  0  0  0  0  0
  195.2710  176.3320  142.9800 O   0  0  0  0  0  0  0  0  0  0  0  0
  197.2880  174.8750  144.0140 O   0  0  0  0  0  0  0  0  0  0  0  0
  196.4560  174.4860  144.8750 C   0  0  0  0  0  0  0  0  0  0  0  0
  194.5500  175.8640  143.9020 C   0  0  0  0  0  0  0  0  0  0  0  0
  195.1010  174.9470  144.8560 N   0  0  0  0  0  2  0  0  0  0  0  0
  188.7360  175.8100  142.6230 C   0  0  0  0  0  2  0  0  0  0  0  0
  187.2350  175.9710  142.4650 C   0  0  0  0  0  2  0  0  0  0  0  0
  185.7830  177.7090  141.3170 C   0  0  0  0  0  0  0  0  0  0  0  0
  185.5950  178.4490  140.3150 O   0  0  0  0  0  0  0  0  0  0  0  0
  186.9440  176.8740  141.3600 N   0  0  0  0  0  2  0  0  0  0  0  0
  183.4570  177.9560  141.9680 N   0  0  0  0  0  1  0  0  0  0  0  0
  184.8090  177.7300  142.4560 C   0  0  2  0  0  3  0  0  0  0  0  0
  184.5050  178.8190  144.6760 O   0  0  0  0  0  1  0  0  0  0  0  0
  185.1830  178.7660  143.4660 C   0  0  0  0  0  0  0  0  0  0  0  0
  186.1250  179.5720  143.2400 O   0  0  0  0  0  0  0  0  0  0  0  0
  1  9  1  0  0  0  0
  2  4  2  0  0  0  0
  3 11  2  0  0  0  0
  4 11  1  0  0  0  0
  4 12  1  0  0  0  0
  5 20  1  1  0  0  0
  5  2  1  0  0  0  0
  5 10  1  0  0  0  0
  6  2  1  0  0  0  0
  6  3  1  0  0  0  0
  7  8  1  1  0  0  0
  7  9  1  0  0  0  0
 11 13  1  0  0  0  0
 12 10  1  6  0  0  0
 12  7  1  0  0  0  0
 13  1  1  0  0  0  0
 15 18  2  0  0  0  0
 16 17  2  0  0  0  0
 17 14  1  0  0  0  0
 18  3  1  0  0  0  0
 18 19  1  0  0  0  0
 19 17  1  0  0  0  0
 21 20  1  0  0  0  0
 22 24  1  0  0  0  0
 22 26  1  0  0  0  0
 23 22  2  0  0  0  0
 24 21  1  0  0  0  0
 26 25  1  6  0  0  0
 26 28  1  0  0  0  0
 28 27  1  0  0  0  0
 29 28  2  0  0  0  0
M  END
>  <MODEL>
2

>  <REMARK>
 VINA RESULT:      -6.7      3.754      5.029
  Name = 
  6 active torsions:
  status: ('A' for Active; 'I' for Inactive)
    1  A    between atoms: C_4  and  C_24
    2  A    between atoms: CA_8  and  C_13
    3  A    between atoms: CA_8  and  C_21
    4  A    between atoms: C_9  and  C_12
    5  A    between atoms: C_12  and  C_17
    6  A    between atoms: C_17  and  N_26
                            x       y       z     vdW  Elec       q    Type
                         _______ _______ _______ _____ _____    ______ ____

>  <TORSDO>
F 6

$$$$
=
 OpenBabel11062422423D

 29 31  0  0  1  0  0  0  0  0999 V2000
  186.2380  178.4570  146.9320 C   0  0  0  0  0  2  0  0  0  0  0  0
  187.6240  176.8020  143.2740 C   0  0  0  0  0  0  0  0  0  0  0  0
  185.3190  177.7180  143.4360 C   0  0  0  0  0  0  0  0  0  0  0  0
  187.1270  176.7480  144.5350 C   0  0  0  0  0  0  0  0  0  0  0  0
  189.0250  176.3860  143.0560 C   0  0  2  0  0  3  0  0  0  0  0  0
  186.4930  177.4790  142.2350 S   0  0  0  0  0  0  0  0  0  0  0  0
  188.3750  177.4900  146.5430 C   0  0  2  0  0  3  0  0  0  0  0  0
  189.6180  177.2590  147.2640 N   0  0  0  0  0  1  0  0  0  0  0  0
  187.3020  177.6540  147.5190 N   0  0  0  0  0  2  0  0  0  0  0  0
  189.5830  175.7580  144.6870 S   0  0  0  0  0  0  0  0  0  0  0  0
  185.8280  177.2560  144.6600 C   0  0  0  0  0  0  0  0  0  0  0  0
  188.0710  176.3140  145.5960 C   0  0  2  0  0  3  0  0  0  0  0  0
  184.9770  177.3470  146.2370 S   0  0  0  0  0  0  0  0  0  0  0  0
  181.3810  178.0490  140.3430 C   0  0  0  0  0  1  0  0  0  0  0  0
  183.5050  179.1390  144.0100 O   0  0  0  0  0  0  0  0  0  0  0  0
  181.3920  179.3200  142.3480 O   0  0  0  0  0  0  0  0  0  0  0  0
  182.0020  178.4950  141.6160 C   0  0  0  0  0  0  0  0  0  0  0  0
  184.0000  178.3260  143.1840 C   0  0  0  0  0  0  0  0  0  0  0  0
  183.2850  177.9820  141.9900 N   0  0  0  0  0  2  0  0  0  0  0  0
  189.8840  177.5790  142.6720 C   0  0  0  0  0  2  0  0  0  0  0  0
  191.1350  177.6280  143.5310 C   0  0  0  0  0  2  0  0  0  0  0  0
  193.3330  176.3580  143.5770 C   0  0  0  0  0  0  0  0  0  0  0  0
  194.2400  175.7700  142.9300 O   0  0  0  0  0  0  0  0  0  0  0  0
  192.2200  176.9130  142.8720 N   0  0  0  0  0  2  0  0  0  0  0  0
  194.3740  177.4640  145.4720 N   0  0  0  0  0  1  0  0  0  0  0  0
  193.4170  176.4440  145.0720 C   0  0  2  0  0  3  0  0  0  0  0  0
  192.8340  174.1040  145.6960 O   0  0  0  0  0  0  0  0  0  0  0  0
  193.7760  175.1230  145.6690 C   0  0  0  0  0  0  0  0  0  0  0  0
  194.9330  174.9160  146.1220 O   0  0  0  0  0  1  0  0  0  0  0  0
  1  9  1  0  0  0  0
  2  4  2  0  0  0  0
  3 11  2  0  0  0  0
  4 11  1  0  0  0  0
  5 20  1  1  0  0  0
  5  2  1  0  0  0  0
  5 10  1  0  0  0  0
  6  2  1  0  0  0  0
  6  3  1  0  0  0  0
  7  8  1  1  0  0  0
  7  9  1  0  0  0  0
 10 12  1  0  0  0  0
 11 13  1  0  0  0  0
 12  4  1  6  0  0  0
 12  7  1  0  0  0  0
 13  1  1  0  0  0  0
 14 17  1  0  0  0  0
 17 19  1  0  0  0  0
 17 16  2  0  0  0  0
 18  3  1  0  0  0  0
 18 15  2  0  0  0  0
 19 18  1  0  0  0  0
 20 21  1  0  0  0  0
 22 26  1  0  0  0  0
 23 22  2  0  0  0  0
 24 21  1  0  0  0  0
 24 22  1  0  0  0  0
 26 25  1  6  0  0  0
 26 28  1  0  0  0  0
 28 27  2  0  0  0  0
 28 29  1  0  0  0  0
M  END
>  <MODEL>
3

>  <REMARK>
 VINA RESULT:      -6.6      2.686      9.332
  Name = 
  6 active torsions:
  status: ('A' for Active; 'I' for Inactive)
    1  A    between atoms: C_4  and  C_24
    2  A    between atoms: CA_8  and  C_13
    3  A    between atoms: CA_8  and  C_21
    4  A    between atoms: C_9  and  C_12
    5  A    between atoms: C_12  and  C_17
    6  A    between atoms: C_17  and  N_26
                            x       y       z     vdW  Elec       q    Type
                         _______ _______ _______ _____ _____    ______ ____

>  <TORSDO>
F 6

$$$$
=
 OpenBabel11062422423D

 29 31  0  0  1  0  0  0  0  0999 V2000
  185.5740  179.0120  143.0560 C   0  0  0  0  0  2  0  0  0  0  0  0
  188.0340  176.1830  145.0520 C   0  0  0  0  0  0  0  0  0  0  0  0
  187.6710  176.0100  142.6000 C   0  0  0  0  0  0  0  0  0  0  0  0
  186.8530  176.7200  144.6590 C   0  0  0  0  0  0  0  0  0  0  0  0
  188.4240  176.3110  146.4720 C   0  0  2  0  0  3  0  0  0  0  0  0
  188.8610  175.5720  143.7260 S   0  0  0  0  0  0  0  0  0  0  0  0
  186.0390  178.9450  145.3880 C   0  0  2  0  0  3  0  0  0  0  0  0
  185.7330  179.7130  146.5850 N   0  0  0  0  0  1  0  0  0  0  0  0
  185.0180  179.2330  144.3840 N   0  0  0  0  0  2  0  0  0  0  0  0
  186.9750  177.0930  147.2830 S   0  0  0  0  0  0  0  0  0  0  0  0
  186.6160  176.6370  143.2820 C   0  0  0  0  0  0  0  0  0  0  0  0
  186.0770  177.4380  145.7040 C   0  0  2  0  0  3  0  0  0  0  0  0
  185.1500  177.3300  142.5130 S   0  0  0  0  0  0  0  0  0  0  0  0
  188.9070  172.7430  138.9970 C   0  0  0  0  0  1  0  0  0  0  0  0
  187.4630  176.6540  140.3240 O   0  0  0  0  0  0  0  0  0  0  0  0
  188.1290  174.9020  138.3890 O   0  0  0  0  0  0  0  0  0  0  0  0
  188.4070  174.1030  139.3230 C   0  0  0  0  0  0  0  0  0  0  0  0
  187.7800  175.7590  141.1510 C   0  0  0  0  0  0  0  0  0  0  0  0
  188.2480  174.4840  140.6930 N   0  0  0  0  0  2  0  0  0  0  0  0
  189.6210  177.2350  146.6160 C   0  0  0  0  0  2  0  0  0  0  0  0
  190.7010  176.5750  147.4560 C   0  0  0  0  0  2  0  0  0  0  0  0
  192.0640  175.1830  145.8290 C   0  0  0  0  0  0  0  0  0  0  0  0
  192.3240  174.0450  145.3550 O   0  0  0  0  0  0  0  0  0  0  0  0
  191.0830  175.3010  146.8630 N   0  0  0  0  0  2  0  0  0  0  0  0
  192.9270  176.3410  143.8770 N   0  0  0  0  0  1  0  0  0  0  0  0
  192.7990  176.3890  145.3250 C   0  0  2  0  0  3  0  0  0  0  0  0
  195.2180  175.8070  145.4430 O   0  0  0  0  0  0  0  0  0  0  0  0
  194.1420  176.5100  145.9670 C   0  0  0  0  0  0  0  0  0  0  0  0
  194.3120  177.2630  146.9620 O   0  0  0  0  0  1  0  0  0  0  0  0
  1  9  1  0  0  0  0
  2  5  1  0  0  0  0
  3 11  2  0  0  0  0
  3  6  1  0  0  0  0
  4  2  2  0  0  0  0
  5 20  1  6  0  0  0
  5 10  1  0  0  0  0
  6  2  1  0  0  0  0
  7 12  1  0  0  0  0
  7  8  1  1  0  0  0
  9  7  1  0  0  0  0
 11  4  1  0  0  0  0
 12  4  1  6  0  0  0
 12 10  1  0  0  0  0
 13  1  1  0  0  0  0
 13 11  1  0  0  0  0
 14 17  1  0  0  0  0
 15 18  2  0  0  0  0
 16 17  2  0  0  0  0
 17 19  1  0  0  0  0
 18  3  1  0  0  0  0
 19 18  1  0  0  0  0
 20 21  1  0  0  0  0
 22 24  1  0  0  0  0
 23 22  2  0  0  0  0
 24 21  1  0  0  0  0
 26 25  1  6  0  0  0
 26 22  1  0  0  0  0
 26 28  1  0  0  0  0
 27 28  2  0  0  0  0
 28 29  1  0  0  0  0
M  END
>  <MODEL>
4

>  <REMARK>
 VINA RESULT:      -6.6      4.214      8.499
  Name = 
  6 active torsions:
  status: ('A' for Active; 'I' for Inactive)
    1  A    between atoms: C_4  and  C_24
    2  A    between atoms: CA_8  and  C_13
    3  A    between atoms: CA_8  and  C_21
    4  A    between atoms: C_9  and  C_12
    5  A    between atoms: C_12  and  C_17
    6  A    between atoms: C_17  and  N_26
                            x       y       z     vdW  Elec       q    Type
                         _______ _______ _______ _____ _____    ______ ____

>  <TORSDO>
F 6

$$$$
=
 OpenBabel11062422423D

 29 31  0  0  1  0  0  0  0  0999 V2000
  188.2030  174.8970  142.4980 C   0  0  0  0  0  2  0  0  0  0  0  0
  190.8450  176.8270  145.2070 C   0  0  0  0  0  0  0  0  0  0  0  0
  188.3850  177.0300  145.5040 C   0  0  0  0  0  0  0  0  0  0  0  0
  190.1650  176.6940  144.0420 C   0  0  0  0  0  0  0  0  0  0  0  0
  192.3080  176.6240  145.1910 C   0  0  2  0  0  3  0  0  0  0  0  0
  189.7750  177.0900  146.4740 S   0  0  0  0  0  0  0  0  0  0  0  0
  190.5800  174.8830  142.4010 C   0  0  2  0  0  3  0  0  0  0  0  0
  191.6370  174.2970  141.5910 N   0  0  0  0  0  1  0  0  0  0  0  0
  189.3550  174.9130  141.6070 N   0  0  0  0  0  2  0  0  0  0  0  0
  192.7260  176.3860  143.4200 S   0  0  0  0  0  0  0  0  0  0  0  0
  188.7750  176.8050  144.1740 C   0  0  0  0  0  0  0  0  0  0  0  0
  190.9670  176.3040  142.8540 C   0  0  2  0  0  3  0  0  0  0  0  0
  187.6570  176.6070  142.7850 S   0  0  0  0  0  0  0  0  0  0  0  0
  183.8840  179.1570  144.8780 C   0  0  0  0  0  1  0  0  0  0  0  0
  186.6610  176.5880  147.0760 O   0  0  0  0  0  0  0  0  0  0  0  0
  184.2450  177.7320  146.7420 O   0  0  0  0  0  0  0  0  0  0  0  0
  184.7310  178.2630  145.7080 C   0  0  0  0  0  0  0  0  0  0  0  0
  187.0140  177.1850  146.0240 C   0  0  0  0  0  0  0  0  0  0  0  0
  186.0870  178.0200  145.3190 N   0  0  0  0  0  2  0  0  0  0  0  0
  192.6820  175.3640  145.9530 C   0  0  0  0  0  2  0  0  0  0  0  0
  193.5700  174.4740  145.1020 C   0  0  0  0  0  2  0  0  0  0  0  0
  196.1010  174.2840  145.0320 C   0  0  0  0  0  0  0  0  0  0  0  0
  197.1760  174.1050  145.6640 O   0  0  0  0  0  0  0  0  0  0  0  0
  194.8630  174.2960  145.7480 N   0  0  0  0  0  2  0  0  0  0  0  0
  196.8800  173.4490  142.8890 N   0  0  0  0  0  1  0  0  0  0  0  0
  196.1330  174.5080  143.5490 C   0  0  2  0  0  3  0  0  0  0  0  0
  197.6830  175.9450  142.2310 O   0  0  0  0  0  0  0  0  0  0  0  0
  196.7130  175.8450  143.2190 C   0  0  0  0  0  0  0  0  0  0  0  0
  196.3100  176.8830  143.8080 O   0  0  0  0  0  1  0  0  0  0  0  0
  1 13  1  0  0  0  0
  2  6  1  0  0  0  0
  3 18  1  0  0  0  0
  3  6  1  0  0  0  0
  4 11  1  0  0  0  0
  4  2  2  0  0  0  0
  5  2  1  0  0  0  0
  5 20  1  1  0  0  0
  7  8  1  6  0  0  0
  7 12  1  0  0  0  0
  9  7  1  0  0  0  0
  9  1  1  0  0  0  0
 10  5  1  0  0  0  0
 11  3  2  0  0  0  0
 12 10  1  1  0  0  0
 12  4  1  0  0  0  0
 13 11  1  0  0  0  0
 14 17  1  0  0  0  0
 17 16  2  0  0  0  0
 18 15  2  0  0  0  0
 19 17  1  0  0  0  0
 19 18  1  0  0  0  0
 21 24  1  0  0  0  0
 21 20  1  0  0  0  0
 22 23  2  0  0  0  0
 22 24  1  0  0  0  0
 26 25  1  6  0  0  0
 26 22  1  0  0  0  0
 27 28  2  0  0  0  0
 28 26  1  0  0  0  0
 28 29  1  0  0  0  0
M  END
>  <MODEL>
5

>  <REMARK>
 VINA RESULT:      -6.5      4.260     10.911
  Name = 
  6 active torsions:
  status: ('A' for Active; 'I' for Inactive)
    1  A    between atoms: C_4  and  C_24
    2  A    between atoms: CA_8  and  C_13
    3  A    between atoms: CA_8  and  C_21
    4  A    between atoms: C_9  and  C_12
    5  A    between atoms: C_12  and  C_17
    6  A    between atoms: C_17  and  N_26
                            x       y       z     vdW  Elec       q    Type
                         _______ _______ _______ _____ _____    ______ ____

>  <TORSDO>
F 6

$$$$
=
 OpenBabel11062422423D

 29 31  0  0  1  0  0  0  0  0999 V2000
  188.7600  175.7180  146.9540 C   0  0  0  0  0  2  0  0  0  0  0  0
  189.4010  177.5560  143.1790 C   0  0  0  0  0  0  0  0  0  0  0  0
  191.3360  176.8090  144.5470 C   0  0  0  0  0  0  0  0  0  0  0  0
  189.1290  177.5440  144.5070 C   0  0  0  0  0  0  0  0  0  0  0  0
  188.3050  177.8810  142.2420 C   0  0  2  0  0  3  0  0  0  0  0  0
  190.9800  177.0550  142.9070 S   0  0  0  0  0  0  0  0  0  0  0  0
  187.0820  176.5490  145.4870 C   0  0  2  0  0  3  0  0  0  0  0  0
  185.6300  176.6240  145.4190 N   0  0  0  0  0  1  0  0  0  0  0  0
  187.4690  176.3880  146.8860 N   0  0  0  0  0  2  0  0  0  0  0  0
  186.8890  178.3290  143.3210 S   0  0  0  0  0  0  0  0  0  0  0  0
  190.2000  177.1290  145.3070 C   0  0  0  0  0  0  0  0  0  0  0  0
  187.7200  177.8180  144.8920 C   0  0  2  0  0  3  0  0  0  0  0  0
  190.0670  176.9740  147.0900 S   0  0  0  0  0  0  0  0  0  0  0  0
  194.2190  172.8250  145.5480 C   0  0  0  0  0  1  0  0  0  0  0  0
  193.5230  177.1430  145.4100 O   0  0  0  0  0  0  0  0  0  0  0  0
  195.0700  175.0040  145.9500 O   0  0  0  0  0  0  0  0  0  0  0  0
  194.1020  174.3060  145.5480 C   0  0  0  0  0  0  0  0  0  0  0  0
  192.6390  176.3250  145.0400 C   0  0  0  0  0  0  0  0  0  0  0  0
  192.8900  174.9150  145.0920 N   0  0  0  0  0  2  0  0  0  0  0  0
  187.9250  176.6620  141.4200 C   0  0  0  0  0  2  0  0  0  0  0  0
  188.1280  175.3930  142.2290 C   0  0  0  0  0  2  0  0  0  0  0  0
  189.3750  173.3240  141.4510 C   0  0  0  0  0  0  0  0  0  0  0  0
  189.4600  172.3750  140.6260 O   0  0  0  0  0  0  0  0  0  0  0  0
  188.2960  174.2540  141.3360 N   0  0  0  0  0  2  0  0  0  0  0  0
  191.7330  173.4900  142.0070 N   0  0  0  0  0  1  0  0  0  0  0  0
  190.3850  173.4490  142.5530 C   0  0  2  0  0  3  0  0  0  0  0  0
  188.9870  171.8840  143.8940 O   0  0  0  0  0  0  0  0  0  0  0  0
  190.2500  172.3330  143.5370 C   0  0  0  0  0  0  0  0  0  0  0  0
  191.2720  171.7790  144.0230 O   0  0  0  0  0  1  0  0  0  0  0  0
  1 13  1  0  0  0  0
  2  4  2  0  0  0  0
  3 18  1  0  0  0  0
  3 11  2  0  0  0  0
  4 12  1  0  0  0  0
  4 11  1  0  0  0  0
  5 20  1  1  0  0  0
  5  2  1  0  0  0  0
  5 10  1  0  0  0  0
  6  2  1  0  0  0  0
  6  3  1  0  0  0  0
  7  8  1  1  0  0  0
  7  9  1  0  0  0  0
  9  1  1  0  0  0  0
 11 13  1  0  0  0  0
 12 10  1  6  0  0  0
 12  7  1  0  0  0  0
 17 14  1  0  0  0  0
 17 16  2  0  0  0  0
 18 19  1  0  0  0  0
 18 15  2  0  0  0  0
 19 17  1  0  0  0  0
 20 21  1  0  0  0  0
 22 26  1  0  0  0  0
 23 22  2  0  0  0  0
 24 22  1  0  0  0  0
 24 21  1  0  0  0  0
 26 25  1  6  0  0  0
 26 28  1  0  0  0  0
 28 27  2  0  0  0  0
 28 29  1  0  0  0  0
M  END
>  <MODEL>
6

>  <REMARK>
 VINA RESULT:      -6.4      5.495      6.982
  Name = 
  6 active torsions:
  status: ('A' for Active; 'I' for Inactive)
    1  A    between atoms: C_4  and  C_24
    2  A    between atoms: CA_8  and  C_13
    3  A    between atoms: CA_8  and  C_21
    4  A    between atoms: C_9  and  C_12
    5  A    between atoms: C_12  and  C_17
    6  A    between atoms: C_17  and  N_26
                            x       y       z     vdW  Elec       q    Type
                         _______ _______ _______ _____ _____    ______ ____

>  <TORSDO>
F 6

$$$$
=
 OpenBabel11062422423D

 29 31  0  0  1  0  0  0  0  0999 V2000
  188.9980  173.4300  143.1070 C   0  0  0  0  0  2  0  0  0  0  0  0
  192.1000  176.3280  142.9730 C   0  0  0  0  0  0  0  0  0  0  0  0
  189.7330  177.0170  142.6570 C   0  0  0  0  0  0  0  0  0  0  0  0
  191.3280  175.3330  142.4700 C   0  0  0  0  0  0  0  0  0  0  0  0
  193.5060  176.0210  143.3080 C   0  0  2  0  0  3  0  0  0  0  0  0
  191.1780  177.7100  143.2130 S   0  0  0  0  0  0  0  0  0  0  0  0
  191.3280  173.0120  143.3410 C   0  0  2  0  0  3  0  0  0  0  0  0
  192.2170  171.8890  143.5960 N   0  0  0  0  0  1  0  0  0  0  0  0
  190.0720  172.4930  142.8060 N   0  0  0  0  0  2  0  0  0  0  0  0
  193.7550  174.2950  142.7380 S   0  0  0  0  0  0  0  0  0  0  0  0
  189.9880  175.6900  142.2780 C   0  0  0  0  0  0  0  0  0  0  0  0
  191.9710  173.9990  142.3480 C   0  0  2  0  0  3  0  0  0  0  0  0
  188.7580  174.5280  141.6790 S   0  0  0  0  0  0  0  0  0  0  0  0
  185.7800  178.7000  145.2490 C   0  0  0  0  0  1  0  0  0  0  0  0
  188.0040  178.1800  141.5170 O   0  0  0  0  0  0  0  0  0  0  0  0
  185.8800  179.0810  142.9080 O   0  0  0  0  0  0  0  0  0  0  0  0
  186.4400  178.5870  143.9220 C   0  0  0  0  0  0  0  0  0  0  0  0
  188.4450  177.7330  142.6090 C   0  0  0  0  0  0  0  0  0  0  0  0
  187.7000  177.9170  143.8200 N   0  0  0  0  0  2  0  0  0  0  0  0
  193.7220  176.0740  144.8110 C   0  0  0  0  0  2  0  0  0  0  0  0
  192.8090  175.0830  145.5120 C   0  0  0  0  0  2  0  0  0  0  0  0
  191.4110  176.1060  147.3680 C   0  0  0  0  0  0  0  0  0  0  0  0
  191.3250  176.4400  148.5790 O   0  0  0  0  0  0  0  0  0  0  0  0
  192.6100  175.4830  146.8980 N   0  0  0  0  0  2  0  0  0  0  0  0
  189.7280  177.6840  146.6130 N   0  0  0  0  0  1  0  0  0  0  0  0
  190.2530  176.3390  146.4440 C   0  0  2  0  0  3  0  0  0  0  0  0
  187.8790  175.7450  146.9090 O   0  0  0  0  0  1  0  0  0  0  0  0
  189.1780  175.3240  146.6600 C   0  0  0  0  0  0  0  0  0  0  0  0
  189.4350  174.0920  146.5920 O   0  0  0  0  0  0  0  0  0  0  0  0
  2  6  1  0  0  0  0
  2  5  1  0  0  0  0
  3  6  1  0  0  0  0
  4  2  2  0  0  0  0
  5 20  1  1  0  0  0
  7  8  1  6  0  0  0
  9  1  1  0  0  0  0
  9  7  1  0  0  0  0
 10  5  1  0  0  0  0
 11  4  1  0  0  0  0
 11  3  2  0  0  0  0
 12  4  1  1  0  0  0
 12 10  1  0  0  0  0
 12  7  1  0  0  0  0
 13 11  1  0  0  0  0
 13  1  1  0  0  0  0
 15 18  2  0  0  0  0
 16 17  2  0  0  0  0
 17 14  1  0  0  0  0
 18  3  1  0  0  0  0
 18 19  1  0  0  0  0
 19 17  1  0  0  0  0
 20 21  1  0  0  0  0
 21 24  1  0  0  0  0
 22 23  2  0  0  0  0
 24 22  1  0  0  0  0
 26 25  1  1  0  0  0
 26 28  1  0  0  0  0
 26 22  1  0  0  0  0
 28 27  1  0  0  0  0
 29 28  2  0  0  0  0
M  END
>  <MODEL>
7

>  <REMARK>
 VINA RESULT:      -6.4      4.541      8.852
  Name = 
  6 active torsions:
  status: ('A' for Active; 'I' for Inactive)
    1  A    between atoms: C_4  and  C_24
    2  A    between atoms: CA_8  and  C_13
    3  A    between atoms: CA_8  and  C_21
    4  A    between atoms: C_9  and  C_12
    5  A    between atoms: C_12  and  C_17
    6  A    between atoms: C_17  and  N_26
                            x       y       z     vdW  Elec       q    Type
                         _______ _______ _______ _____ _____    ______ ____

>  <TORSDO>
F 6

$$$$
=
 OpenBabel11062422423D

 29 31  0  0  1  0  0  0  0  0999 V2000
  187.4790  176.3040  146.8450 C   0  0  0  0  0  2  0  0  0  0  0  0
  188.1660  177.7610  142.9150 C   0  0  0  0  0  0  0  0  0  0  0  0
  190.0120  176.6920  144.1900 C   0  0  0  0  0  0  0  0  0  0  0  0
  188.0110  177.8780  144.2570 C   0  0  0  0  0  0  0  0  0  0  0  0
  187.0860  178.2620  142.0390 C   0  0  2  0  0  3  0  0  0  0  0  0
  189.5770  176.9210  142.5660 S   0  0  0  0  0  0  0  0  0  0  0  0
  185.8920  177.3950  145.4480 C   0  0  2  0  0  3  0  0  0  0  0  0
  184.4870  177.7740  145.4780 N   0  0  0  0  0  1  0  0  0  0  0  0
  186.3540  177.2290  146.8230 N   0  0  0  0  0  2  0  0  0  0  0  0
  185.8910  179.0580  143.1820 S   0  0  0  0  0  0  0  0  0  0  0  0
  189.0360  177.2870  145.0050 C   0  0  0  0  0  0  0  0  0  0  0  0
  186.7280  178.4660  144.7220 C   0  0  2  0  0  3  0  0  0  0  0  0
  189.0250  177.2580  146.7990 S   0  0  0  0  0  0  0  0  0  0  0  0
  194.8340  177.0260  145.5370 C   0  0  0  0  0  1  0  0  0  0  0  0
  191.2010  174.7160  144.7570 O   0  0  0  0  0  0  0  0  0  0  0  0
  193.7910  174.8950  145.4770 O   0  0  0  0  0  0  0  0  0  0  0  0
  193.6680  176.1360  145.3040 C   0  0  0  0  0  0  0  0  0  0  0  0
  191.2220  175.9680  144.6200 C   0  0  0  0  0  0  0  0  0  0  0  0
  192.4230  176.7050  144.8840 N   0  0  0  0  0  2  0  0  0  0  0  0
  186.3920  177.1110  141.3330 C   0  0  0  0  0  2  0  0  0  0  0  0
  186.5590  177.2340  139.8280 C   0  0  0  0  0  2  0  0  0  0  0  0
  187.1890  175.6660  137.9340 C   0  0  0  0  0  0  0  0  0  0  0  0
  187.8020  174.6280  137.5670 O   0  0  0  0  0  0  0  0  0  0  0  0
  187.2510  176.0640  139.3070 N   0  0  0  0  0  2  0  0  0  0  0  0
  185.1610  175.8460  136.6120 N   0  0  0  0  0  1  0  0  0  0  0  0
  186.4300  176.4810  136.9310 C   0  0  2  0  0  3  0  0  0  0  0  0
  188.0670  177.8050  135.6000 O   0  0  0  0  0  1  0  0  0  0  0  0
  187.2350  176.6980  135.6920 C   0  0  0  0  0  0  0  0  0  0  0  0
  187.1880  175.8710  134.7420 O   0  0  0  0  0  0  0  0  0  0  0  0
  2  4  2  0  0  0  0
  3 18  1  0  0  0  0
  3 11  2  0  0  0  0
  4 12  1  0  0  0  0
  4 11  1  0  0  0  0
  5 20  1  1  0  0  0
  5  2  1  0  0  0  0
  5 10  1  0  0  0  0
  6  2  1  0  0  0  0
  6  3  1  0  0  0  0
  7  8  1  1  0  0  0
  7  9  1  0  0  0  0
  9  1  1  0  0  0  0
 11 13  1  0  0  0  0
 12 10  1  6  0  0  0
 12  7  1  0  0  0  0
 13  1  1  0  0  0  0
 17 16  2  0  0  0  0
 17 14  1  0  0  0  0
 18 15  2  0  0  0  0
 18 19  1  0  0  0  0
 19 17  1  0  0  0  0
 21 20  1  0  0  0  0
 22 24  1  0  0  0  0
 23 22  2  0  0  0  0
 24 21  1  0  0  0  0
 26 25  1  6  0  0  0
 26 22  1  0  0  0  0
 27 28  1  0  0  0  0
 28 26  1  0  0  0  0
 29 28  2  0  0  0  0
M  END
>  <MODEL>
8

>  <REMARK>
 VINA RESULT:      -6.4      4.490      5.202
  Name = 
  6 active torsions:
  status: ('A' for Active; 'I' for Inactive)
    1  A    between atoms: C_4  and  C_24
    2  A    between atoms: CA_8  and  C_13
    3  A    between atoms: CA_8  and  C_21
    4  A    between atoms: C_9  and  C_12
    5  A    between atoms: C_12  and  C_17
    6  A    between atoms: C_17  and  N_26
                            x       y       z     vdW  Elec       q    Type
                         _______ _______ _______ _____ _____    ______ ____

>  <TORSDO>
F 6

$$$$
=
 OpenBabel11062422423D

 29 31  0  0  1  0  0  0  0  0999 V2000
  191.6390  175.2660  147.3650 C   0  0  0  0  0  2  0  0  0  0  0  0
  191.1520  176.1710  143.2440 C   0  0  0  0  0  0  0  0  0  0  0  0
  193.1130  174.8490  144.0080 C   0  0  0  0  0  0  0  0  0  0  0  0
  191.4970  176.4420  144.5270 C   0  0  0  0  0  0  0  0  0  0  0  0
  189.9380  176.8110  142.6960 C   0  0  2  0  0  3  0  0  0  0  0  0
  192.1850  175.0170  142.5980 S   0  0  0  0  0  0  0  0  0  0  0  0
  189.8780  176.5410  146.4010 C   0  0  2  0  0  3  0  0  0  0  0  0
  188.6600  177.2170  146.8220 N   0  0  0  0  0  1  0  0  0  0  0  0
  190.7550  176.4070  147.5600 N   0  0  0  0  0  2  0  0  0  0  0  0
  189.3740  177.9490  144.0210 S   0  0  0  0  0  0  0  0  0  0  0  0
  192.6010  175.7140  144.9890 C   0  0  0  0  0  0  0  0  0  0  0  0
  190.5790  177.3340  145.2810 C   0  0  2  0  0  3  0  0  0  0  0  0
  193.2120  175.8530  146.6700 S   0  0  0  0  0  0  0  0  0  0  0  0
  194.7580  170.4450  145.7620 C   0  0  0  0  0  1  0  0  0  0  0  0
  195.3740  174.2210  143.6410 O   0  0  0  0  0  0  0  0  0  0  0  0
  196.2580  171.8580  144.5850 O   0  0  0  0  0  0  0  0  0  0  0  0
  195.0890  171.6900  145.0240 C   0  0  0  0  0  0  0  0  0  0  0  0
  194.2540  173.9230  144.1350 C   0  0  0  0  0  0  0  0  0  0  0  0
  194.0740  172.6790  144.8240 N   0  0  0  0  0  2  0  0  0  0  0  0
  188.8540  175.7770  142.4470 C   0  0  0  0  0  2  0  0  0  0  0  0
  187.7210  175.9460  143.4440 C   0  0  0  0  0  2  0  0  0  0  0  0
  185.5330  177.2300  143.3650 C   0  0  0  0  0  0  0  0  0  0  0  0
  184.5060  177.5500  142.7090 O   0  0  0  0  0  0  0  0  0  0  0  0
  186.5150  176.3860  142.7580 N   0  0  0  0  0  2  0  0  0  0  0  0
  185.3150  176.7670  145.7390 N   0  0  0  0  0  1  0  0  0  0  0  0
  185.7260  177.7570  144.7560 C   0  0  2  0  0  3  0  0  0  0  0  0
  183.8210  179.0410  145.7180 O   0  0  0  0  0  1  0  0  0  0  0  0
  184.9810  179.0360  144.9560 C   0  0  0  0  0  0  0  0  0  0  0  0
  185.4110  180.1140  144.4630 O   0  0  0  0  0  0  0  0  0  0  0  0
  1  9  1  0  0  0  0
  2  4  2  0  0  0  0
  3 18  1  0  0  0  0
  3 11  2  0  0  0  0
  4 11  1  0  0  0  0
  4 12  1  0  0  0  0
  5 20  1  1  0  0  0
  5  2  1  0  0  0  0
  5 10  1  0  0  0  0
  6  2  1  0  0  0  0
  6  3  1  0  0  0  0
  7  8  1  1  0  0  0
  7  9  1  0  0  0  0
 11 13  1  0  0  0  0
 12 10  1  6  0  0  0
 12  7  1  0  0  0  0
 13  1  1  0  0  0  0
 15 18  2  0  0  0  0
 16 17  2  0  0  0  0
 17 14  1  0  0  0  0
 18 19  1  0  0  0  0
 19 17  1  0  0  0  0
 20 21  1  0  0  0  0
 22 26  1  0  0  0  0
 23 22  2  0  0  0  0
 24 22  1  0  0  0  0
 24 21  1  0  0  0  0
 26 28  1  0  0  0  0
 26 25  1  1  0  0  0
 28 27  1  0  0  0  0
 29 28  2  0  0  0  0
M  END
>  <MODEL>
9

>  <REMARK>
 VINA RESULT:      -6.3      3.934      5.365
  Name = 
  6 active torsions:
  status: ('A' for Active; 'I' for Inactive)
    1  A    between atoms: C_4  and  C_24
    2  A    between atoms: CA_8  and  C_13
    3  A    between atoms: CA_8  and  C_21
    4  A    between atoms: C_9  and  C_12
    5  A    between atoms: C_12  and  C_17
    6  A    between atoms: C_17  and  N_26
                            x       y       z     vdW  Elec       q    Type
                         _______ _______ _______ _____ _____    ______ ____

>  <TORSDO>
F 6

$$$$
