=
 OpenBabel11062418243D

 64 75  0  0  1  0  0  0  0  0999 V2000
  195.4630  177.1250  145.0790 O   0  0  0  0  0  1  0  0  0  0  0  0
  194.0120  175.2850  145.6510 C   0  0  1  0  0  0  0  0  0  0  0  0
  191.1810  176.0240  145.4370 C   0  0  2  0  0  3  0  0  0  0  0  0
  195.4110  174.9920  146.1570 C   0  0  0  0  0  2  0  0  0  0  0  0
  193.0090  174.8530  146.5390 O   0  0  0  0  0  0  0  0  0  0  0  0
  194.8980  176.4250  146.1450 C   0  0  1  0  0  3  0  0  0  0  0  0
  192.7810  175.9890  143.4420 C   0  0  0  0  0  2  0  0  0  0  0  0
  193.7390  175.0190  144.1540 C   0  0  1  0  0  3  0  0  0  0  0  0
  192.0690  175.8920  146.6760 C   0  0  0  0  0  2  0  0  0  0  0  0
  191.9120  176.8500  144.3700 C   0  0  0  0  0  2  0  0  0  0  0  0
  195.2670  175.4460  142.1430 C   0  0  0  0  0  2  0  0  0  0  0  0
  194.3670  173.9480  137.4850 C   0  0  0  0  0  2  0  0  0  0  0  0
  194.6700  173.0920  142.8060 C   0  0  0  0  0  2  0  0  0  0  0  0
  197.2090  175.9240  140.5570 C   0  0  0  0  0  2  0  0  0  0  0  0
  196.0570  175.7680  134.7840 O   0  0  0  0  0  0  0  0  0  0  0  0
  196.7140  175.5430  136.9670 O   0  0  0  0  0  0  0  0  0  0  0  0
  195.3640  173.2590  139.7750 C   0  0  2  0  0  3  0  0  0  0  0  0
  195.8680  175.2120  135.9000 C   0  0  0  0  0  0  0  0  0  0  0  0
  195.5270  174.0300  138.4650 C   0  0  2  0  0  0  0  0  0  0  0  0
  194.8500  174.0950  136.0270 C   0  0  2  0  0  0  0  0  0  0  0  0
  196.3790  175.2950  138.3280 C   0  0  1  0  0  3  0  0  0  0  0  0
  196.5170  174.9020  141.4600 C   0  0  2  0  0  3  0  0  0  0  0  0
  196.3460  173.4610  140.9410 C   0  0  1  0  0  3  0  0  0  0  0  0
  196.2220  172.7040  138.6330 C   0  0  0  0  0  2  0  0  0  0  0  0
  197.6130  175.3660  139.2040 C   0  0  0  0  0  2  0  0  0  0  0  0
  193.6420  174.4270  135.1550 C   0  0  0  0  0  1  0  0  0  0  0  0
  195.9290  172.5580  142.1090 C   0  0  0  0  0  2  0  0  0  0  0  0
  194.9160  174.5160  143.3070 C   0  0  2  0  0  3  0  0  0  0  0  0
  195.4930  172.8570  135.5620 N   0  0  0  0  0  2  0  0  0  0  0  0
  194.6470  169.7270  134.5650 C   0  0  1  0  0  3  0  0  0  0  0  0
  193.8560  169.2880  135.6940 C   0  0  2  0  0  0  0  0  0  0  0  0
  194.6480  170.6190  135.8170 C   0  0  2  0  0  0  0  0  0  0  0  0
  194.5760  168.3690  134.9210 O   0  0  0  0  0  0  0  0  0  0  0  0
  193.6150  171.5750  136.0220 O   0  0  0  0  0  0  0  0  0  0  0  0
  194.5270  171.8940  135.0390 C   0  0  1  0  0  3  0  0  0  0  0  0
  192.3900  169.3420  135.2480 C   0  0  0  0  0  2  0  0  0  0  0  0
  192.1320  168.1670  137.3280 O   0  0  0  0  0  1  0  0  0  0  0  0
  191.4410  168.9070  136.3630 C   0  0  1  0  0  3  0  0  0  0  0  0
  190.7750  170.1170  136.9990 C   0  0  0  0  0  2  0  0  0  0  0  0
  189.8830  170.8210  135.9900 C   0  0  0  0  0  1  0  0  0  0  0  0
  189.8540  176.6760  145.8420 C   0  0  2  0  0  3  0  0  0  0  0  0
  188.0920  177.9420  145.2580 C   0  0  1  0  0  3  0  0  0  0  0  0
  187.7390  176.6130  147.0560 C   0  0  0  0  0  2  0  0  0  0  0  0
  188.9670  175.7700  146.7070 C   0  0  1  0  0  3  0  0  0  0  0  0
  187.1360  177.1200  145.8880 O   0  0  0  0  0  0  0  0  0  0  0  0
  189.1390  177.1600  144.7300 O   0  0  0  0  0  0  0  0  0  0  0  0
  188.5780  174.6460  145.9720 O   0  0  0  0  0  0  0  0  0  0  0  0
  189.4900  173.6400  146.2980 C   0  0  0  0  0  2  0  0  0  0  0  0
  189.6410  172.6710  145.1280 C   0  0  0  0  0  2  0  0  0  0  0  0
  189.6260  173.3960  143.7840 C   0  0  0  0  0  2  0  0  0  0  0  0
  188.3400  172.4460  141.4770 F   0  0  0  0  0  0  0  0  0  0  0  0
  190.0270  171.3560  142.5910 O   0  0  0  0  0  0  0  0  0  0  0  0
  190.4180  171.9880  140.4120 O   0  0  0  0  0  1  0  0  0  0  0  0
  189.7070  172.2720  141.5770 C   0  0  1  0  0  0  0  0  0  0  0  0
  190.4930  172.6820  142.7600 C   0  0  1  0  0  3  0  0  0  0  0  0
  187.4500  178.7820  144.1590 C   0  0  0  0  0  2  0  0  0  0  0  0
  185.9500  178.5280  144.0140 C   0  0  0  0  0  2  0  0  0  0  0  0
  185.5600  178.5630  142.6010 N   0  0  0  0  0  2  0  0  0  0  0  0
  186.1700  176.1740  142.9030 C   0  0  0  0  0  2  0  0  0  0  0  0
  186.4290  177.3190  139.5150 C   0  0  0  0  0  1  0  0  0  0  0  0
  187.8720  176.1740  141.1830 C   0  0  0  0  0  2  0  0  0  0  0  0
  187.1200  175.2700  142.1460 C   0  0  0  0  0  2  0  0  0  0  0  0
  185.8360  177.2880  141.9260 C   0  0  2  0  0  3  0  0  0  0  0  0
  186.9820  177.3810  140.9250 C   0  0  2  0  0  3  0  0  0  0  0  0
  2  6  1  0  0  0  0
  2  4  1  1  0  0  0
  2  5  1  0  0  0  0
  3 10  1  6  0  0  0
  3 41  1  0  0  0  0
  3  9  1  0  0  0  0
  5  9  1  0  0  0  0
  6  1  1  6  0  0  0
  6  4  1  0  0  0  0
  7 10  1  0  0  0  0
  8  7  1  6  0  0  0
  8  2  1  0  0  0  0
 13 28  1  0  0  0  0
 15 18  2  0  0  0  0
 16 21  1  0  0  0  0
 17 24  1  6  0  0  0
 17 23  1  0  0  0  0
 18 20  1  0  0  0  0
 18 16  1  0  0  0  0
 19 12  1  6  0  0  0
 19 24  1  0  0  0  0
 19 17  1  0  0  0  0
 20 26  1  6  0  0  0
 20 12  1  0  0  0  0
 21 19  1  0  0  0  0
 21 25  1  1  0  0  0
 22 14  1  6  0  0  0
 22 11  1  0  0  0  0
 23 22  1  0  0  0  0
 23 27  1  1  0  0  0
 25 14  1  0  0  0  0
 27 13  1  0  0  0  0
 28 11  1  6  0  0  0
 28  8  1  0  0  0  0
 29 20  1  0  0  0  0
 30 33  1  1  0  0  0
 30 31  1  0  0  0  0
 30 32  1  0  0  0  0
 31 36  1  6  0  0  0
 31 32  1  0  0  0  0
 32 34  1  6  0  0  0
 33 31  1  0  0  0  0
 35 29  1  1  0  0  0
 35 32  1  0  0  0  0
 35 34  1  0  0  0  0
 36 38  1  0  0  0  0
 38 39  1  0  0  0  0
 38 37  1  1  0  0  0
 40 39  1  0  0  0  0
 41 46  1  6  0  0  0
 41 44  1  0  0  0  0
 42 56  1  6  0  0  0
 42 45  1  0  0  0  0
 44 47  1  6  0  0  0
 44 43  1  0  0  0  0
 45 43  1  0  0  0  0
 46 42  1  0  0  0  0
 47 48  1  0  0  0  0
 49 48  1  0  0  0  0
 50 49  1  0  0  0  0
 51 54  1  0  0  0  0
 52 55  1  0  0  0  0
 54 53  1  6  0  0  0
 54 52  1  0  0  0  0
 54 55  1  0  0  0  0
 55 50  1  1  0  0  0
 57 56  1  0  0  0  0
 58 57  1  0  0  0  0
 61 62  1  0  0  0  0
 62 59  1  0  0  0  0
 63 58  1  1  0  0  0
 63 59  1  0  0  0  0
 64 60  1  6  0  0  0
 64 61  1  0  0  0  0
 64 63  1  0  0  0  0
M  END
>  <MODEL>
1

>  <REMARK>
 VINA RESULT:      -6.4      0.000      0.000
  Name = 
  16 active torsions:
  status: ('A' for Active; 'I' for Inactive)
    1  A    between atoms: C_2  and  C_24
    2  A    between atoms: N_5  and  C_40
    3  A    between atoms: N_5  and  C_51
    4  A    between atoms: N_13  and  C_29
    5  A    between atoms: N_13  and  C_45
    6  A    between atoms: C_17  and  C_56
    7  A    between atoms: O_20  and  C_26
    8  A    between atoms: O_20  and  C_48
    9  A    between atoms: C_22  and  C_26
   10  A    between atoms: C_22  and  C_31
   11  A    between atoms: C_23  and  C_61
   12  A    between atoms: C_29  and  C_61
   13  A    between atoms: C_31  and  C_54
   14  A    between atoms: C_44  and  C_64
   15  A    between atoms: C_50  and  C_63
   16  A    between atoms: C_56  and  C_64
                            x       y       z     vdW  Elec       q    Type
                         _______ _______ _______ _____ _____    ______ ____

>  <TORSDO>
F 16

$$$$
=
 OpenBabel11062418243D

 64 75  0  0  1  0  0  0  0  0999 V2000
  191.2130  176.6540  145.9010 O   0  0  0  0  0  1  0  0  0  0  0  0
  189.5690  175.3700  144.6930 C   0  0  1  0  0  0  0  0  0  0  0  0
  187.6940  177.0940  143.2380 C   0  0  2  0  0  3  0  0  0  0  0  0
  190.2360  174.4800  145.7240 C   0  0  0  0  0  2  0  0  0  0  0  0
  188.1910  175.1110  144.5610 O   0  0  0  0  0  0  0  0  0  0  0  0
  190.0140  175.9540  146.0310 C   0  0  1  0  0  3  0  0  0  0  0  0
  190.2000  177.0010  142.7360 C   0  0  0  0  0  2  0  0  0  0  0  0
  190.3340  175.6070  143.3730 C   0  0  1  0  0  3  0  0  0  0  0  0
  187.5130  176.3450  144.5600 C   0  0  0  0  0  2  0  0  0  0  0  0
  189.0300  177.8490  143.2570 C   0  0  0  0  0  2  0  0  0  0  0  0
  192.7180  175.8060  142.4580 C   0  0  0  0  0  2  0  0  0  0  0  0
  194.1980  174.3020  137.9520 C   0  0  0  0  0  2  0  0  0  0  0  0
  191.6080  173.5530  142.6290 C   0  0  0  0  0  2  0  0  0  0  0  0
  195.2400  176.0190  142.1210 C   0  0  0  0  0  2  0  0  0  0  0  0
  197.2300  175.8490  136.5820 O   0  0  0  0  0  0  0  0  0  0  0  0
  196.6330  175.6060  138.7800 O   0  0  0  0  0  0  0  0  0  0  0  0
  193.7840  173.5630  140.4000 C   0  0  2  0  0  3  0  0  0  0  0  0
  196.4310  175.3460  137.4180 C   0  0  0  0  0  0  0  0  0  0  0  0
  194.6840  174.2760  139.3920 C   0  0  2  0  0  0  0  0  0  0  0  0
  195.3770  174.3560  136.9590 C   0  0  2  0  0  0  0  0  0  0  0  0
  195.6180  175.4330  139.7620 C   0  0  1  0  0  3  0  0  0  0  0  0
  194.0720  175.1070  142.4980 C   0  0  2  0  0  3  0  0  0  0  0  0
  194.0360  173.6810  141.9120 C   0  0  1  0  0  3  0  0  0  0  0  0
  195.0410  172.8840  139.8460 C   0  0  0  0  0  2  0  0  0  0  0  0
  196.2200  175.3840  141.1520 C   0  0  0  0  0  2  0  0  0  0  0  0
  194.8400  174.8010  135.6020 C   0  0  0  0  0  1  0  0  0  0  0  0
  192.9780  172.8620  142.6620 C   0  0  0  0  0  2  0  0  0  0  0  0
  191.7160  174.9520  143.2370 C   0  0  2  0  0  3  0  0  0  0  0  0
  196.0270  173.0410  136.8480 N   0  0  0  0  0  2  0  0  0  0  0  0
  196.0530  170.3520  134.7800 C   0  0  1  0  0  3  0  0  0  0  0  0
  195.1430  169.4680  135.4760 C   0  0  2  0  0  0  0  0  0  0  0  0
  195.6100  170.7640  136.1930 C   0  0  2  0  0  0  0  0  0  0  0  0
  196.1790  168.9550  134.6850 O   0  0  0  0  0  0  0  0  0  0  0  0
  194.3880  171.4650  136.3900 O   0  0  0  0  0  0  0  0  0  0  0  0
  195.4060  172.2020  135.8260 C   0  0  1  0  0  3  0  0  0  0  0  0
  193.8250  169.4930  134.6920 C   0  0  0  0  0  2  0  0  0  0  0  0
  193.2100  168.1660  136.5990 O   0  0  0  0  0  1  0  0  0  0  0  0
  192.7410  168.6660  135.3780 C   0  0  1  0  0  3  0  0  0  0  0  0
  191.4880  169.5000  135.5940 C   0  0  0  0  0  2  0  0  0  0  0  0
  191.3790  170.5750  134.5260 C   0  0  0  0  0  1  0  0  0  0  0  0
  186.5110  178.0490  143.0410 C   0  0  2  0  0  3  0  0  0  0  0  0
  184.6770  178.6000  141.8660 C   0  0  1  0  0  3  0  0  0  0  0  0
  184.7470  179.4640  143.9570 C   0  0  0  0  0  2  0  0  0  0  0  0
  185.8450  178.4760  144.3570 C   0  0  1  0  0  3  0  0  0  0  0  0
  183.8890  178.8910  142.9980 O   0  0  0  0  0  0  0  0  0  0  0  0
  185.5560  177.5340  142.1440 O   0  0  0  0  0  0  0  0  0  0  0  0
  185.2770  177.3640  144.9840 O   0  0  0  0  0  0  0  0  0  0  0  0
  184.4440  177.8700  145.9840 C   0  0  0  0  0  2  0  0  0  0  0  0
  185.2790  178.5560  147.0630 C   0  0  0  0  0  2  0  0  0  0  0  0
  185.9880  177.5450  147.9610 C   0  0  0  0  0  2  0  0  0  0  0  0
  187.5200  179.6590  148.9900 F   0  0  0  0  0  0  0  0  0  0  0  0
  187.8520  178.6610  146.9490 O   0  0  0  0  0  0  0  0  0  0  0  0
  189.5550  178.5310  148.4920 O   0  0  0  0  0  1  0  0  0  0  0  0
  188.1770  178.6490  148.3140 C   0  0  1  0  0  0  0  0  0  0  0  0
  187.4820  177.5080  147.6830 C   0  0  1  0  0  3  0  0  0  0  0  0
  183.8010  178.2660  140.6630 C   0  0  0  0  0  2  0  0  0  0  0  0
  182.3720  177.8870  141.0530 C   0  0  0  0  0  2  0  0  0  0  0  0
  181.4120  178.4960  140.1270 N   0  0  0  0  0  2  0  0  0  0  0  0
  180.3550  179.0660  142.3020 C   0  0  0  0  0  2  0  0  0  0  0  0
  178.0040  178.4480  139.6660 C   0  0  0  0  0  1  0  0  0  0  0  0
  178.4270  177.6390  141.9770 C   0  0  0  0  0  2  0  0  0  0  0  0
  179.0200  178.6850  142.9080 C   0  0  0  0  0  2  0  0  0  0  0  0
  180.1670  178.8800  140.8060 C   0  0  2  0  0  3  0  0  0  0  0  0
  179.0440  177.8700  140.6050 C   0  0  2  0  0  3  0  0  0  0  0  0
  2  4  1  1  0  0  0
  2  6  1  0  0  0  0
  3 10  1  1  0  0  0
  3  9  1  0  0  0  0
  4  6  1  0  0  0  0
  5  2  1  0  0  0  0
  6  1  1  6  0  0  0
  7 10  1  0  0  0  0
  8  7  1  1  0  0  0
  8  2  1  0  0  0  0
  9  5  1  0  0  0  0
 11 22  1  0  0  0  0
 13 27  1  0  0  0  0
 13 28  1  0  0  0  0
 15 18  2  0  0  0  0
 16 21  1  0  0  0  0
 17 24  1  6  0  0  0
 17 23  1  0  0  0  0
 18 16  1  0  0  0  0
 19 12  1  6  0  0  0
 19 21  1  0  0  0  0
 19 24  1  0  0  0  0
 19 17  1  0  0  0  0
 20 26  1  6  0  0  0
 20 18  1  0  0  0  0
 20 12  1  0  0  0  0
 21 25  1  1  0  0  0
 22 14  1  6  0  0  0
 23 22  1  0  0  0  0
 23 27  1  1  0  0  0
 25 14  1  0  0  0  0
 28 11  1  6  0  0  0
 28  8  1  0  0  0  0
 29 20  1  0  0  0  0
 30 33  1  1  0  0  0
 30 31  1  0  0  0  0
 30 32  1  0  0  0  0
 31 36  1  6  0  0  0
 31 32  1  0  0  0  0
 32 34  1  6  0  0  0
 33 31  1  0  0  0  0
 35 32  1  0  0  0  0
 35 34  1  0  0  0  0
 35 29  1  1  0  0  0
 36 38  1  0  0  0  0
 38 39  1  0  0  0  0
 38 37  1  1  0  0  0
 40 39  1  0  0  0  0
 41 46  1  6  0  0  0
 41  3  1  0  0  0  0
 41 44  1  0  0  0  0
 42 56  1  6  0  0  0
 42 46  1  0  0  0  0
 42 45  1  0  0  0  0
 43 44  1  0  0  0  0
 44 47  1  6  0  0  0
 45 43  1  0  0  0  0
 47 48  1  0  0  0  0
 48 49  1  0  0  0  0
 49 50  1  0  0  0  0
 52 55  1  0  0  0  0
 52 54  1  0  0  0  0
 54 53  1  1  0  0  0
 54 51  1  0  0  0  0
 55 50  1  1  0  0  0
 55 54  1  0  0  0  0
 56 57  1  0  0  0  0
 58 57  1  0  0  0  0
 59 62  1  0  0  0  0
 61 62  1  0  0  0  0
 63 58  1  1  0  0  0
 63 59  1  0  0  0  0
 64 60  1  6  0  0  0
 64 63  1  0  0  0  0
 64 61  1  0  0  0  0
M  END
>  <MODEL>
2

>  <REMARK>
 VINA RESULT:      -5.5      3.111      4.847
  Name = 
  16 active torsions:
  status: ('A' for Active; 'I' for Inactive)
    1  A    between atoms: C_2  and  C_24
    2  A    between atoms: N_5  and  C_40
    3  A    between atoms: N_5  and  C_51
    4  A    between atoms: N_13  and  C_29
    5  A    between atoms: N_13  and  C_45
    6  A    between atoms: C_17  and  C_56
    7  A    between atoms: O_20  and  C_26
    8  A    between atoms: O_20  and  C_48
    9  A    between atoms: C_22  and  C_26
   10  A    between atoms: C_22  and  C_31
   11  A    between atoms: C_23  and  C_61
   12  A    between atoms: C_29  and  C_61
   13  A    between atoms: C_31  and  C_54
   14  A    between atoms: C_44  and  C_64
   15  A    between atoms: C_50  and  C_63
   16  A    between atoms: C_56  and  C_64
                            x       y       z     vdW  Elec       q    Type
                         _______ _______ _______ _____ _____    ______ ____

>  <TORSDO>
F 16

$$$$
=
 OpenBabel11062418243D

 64 75  0  0  1  0  0  0  0  0999 V2000
  194.9570  171.7100  142.4390 O   0  0  0  0  0  1  0  0  0  0  0  0
  196.7400  172.0720  140.8570 C   0  0  1  0  0  0  0  0  0  0  0  0
  196.1310  170.8950  138.2400 C   0  0  2  0  0  3  0  0  0  0  0  0
  197.2590  172.3280  142.2590 C   0  0  0  0  0  2  0  0  0  0  0  0
  197.6870  171.4320  140.0340 O   0  0  0  0  0  0  0  0  0  0  0  0
  196.2080  171.2510  142.0290 C   0  0  1  0  0  3  0  0  0  0  0  0
  194.7660  172.7900  139.2840 C   0  0  0  0  0  2  0  0  0  0  0  0
  195.9350  173.2100  140.1910 C   0  0  1  0  0  3  0  0  0  0  0  0
  197.0390  170.3810  139.3590 C   0  0  0  0  0  2  0  0  0  0  0  0
  194.7810  171.3220  138.8330 C   0  0  0  0  0  2  0  0  0  0  0  0
  195.5840  174.2130  142.5210 C   0  0  0  0  0  2  0  0  0  0  0  0
  191.1790  174.8170  144.7530 C   0  0  0  0  0  2  0  0  0  0  0  0
  194.4890  175.2590  140.5110 C   0  0  0  0  0  2  0  0  0  0  0  0
  195.7610  175.4660  144.7380 C   0  0  0  0  0  2  0  0  0  0  0  0
  191.1770  175.0750  148.4130 O   0  0  0  0  0  0  0  0  0  0  0  0
  192.8750  175.5750  146.9590 O   0  0  0  0  0  0  0  0  0  0  0  0
  192.8810  175.8700  143.1080 C   0  0  2  0  0  3  0  0  0  0  0  0
  191.5430  175.2240  147.2150 C   0  0  0  0  0  0  0  0  0  0  0  0
  192.4820  175.5740  144.5530 C   0  0  2  0  0  0  0  0  0  0  0  0
  190.5170  175.1790  146.0980 C   0  0  2  0  0  0  0  0  0  0  0  0
  193.4940  175.3970  145.6900 C   0  0  1  0  0  3  0  0  0  0  0  0
  195.4790  175.5540  143.2370 C   0  0  2  0  0  3  0  0  0  0  0  0
  194.2820  176.4020  142.7640 C   0  0  1  0  0  3  0  0  0  0  0  0
  192.2570  176.9540  143.9930 C   0  0  0  0  0  2  0  0  0  0  0  0
  194.7590  176.2240  145.5910 C   0  0  0  0  0  2  0  0  0  0  0  0
  189.4800  174.1090  146.4240 C   0  0  0  0  0  1  0  0  0  0  0  0
  194.3840  176.6020  141.2470 C   0  0  0  0  0  2  0  0  0  0  0  0
  195.7030  174.4810  141.0190 C   0  0  2  0  0  3  0  0  0  0  0  0
  189.8820  176.5040  146.0290 N   0  0  0  0  0  2  0  0  0  0  0  0
  186.6320  177.2360  146.6630 C   0  0  1  0  0  3  0  0  0  0  0  0
  186.3820  178.2490  145.6600 C   0  0  2  0  0  0  0  0  0  0  0  0
  187.8430  177.7730  145.8850 C   0  0  2  0  0  0  0  0  0  0  0  0
  185.6850  178.2540  146.8740 O   0  0  0  0  0  0  0  0  0  0  0  0
  188.1880  177.2240  144.6180 O   0  0  0  0  0  0  0  0  0  0  0  0
  188.4610  176.4200  145.7030 C   0  0  1  0  0  3  0  0  0  0  0  0
  185.5490  177.5780  144.5600 C   0  0  0  0  0  2  0  0  0  0  0  0
  184.8590  179.8630  144.2830 O   0  0  0  0  0  1  0  0  0  0  0  0
  184.5390  178.5440  143.9450 C   0  0  1  0  0  3  0  0  0  0  0  0
  184.4960  178.3810  142.4340 C   0  0  0  0  0  2  0  0  0  0  0  0
  185.5960  177.4410  141.9720 C   0  0  0  0  0  1  0  0  0  0  0  0
  195.9600  169.7910  137.1910 C   0  0  2  0  0  3  0  0  0  0  0  0
  194.5700  168.5260  135.9590 C   0  0  1  0  0  3  0  0  0  0  0  0
  196.6730  168.6820  135.1380 C   0  0  0  0  0  2  0  0  0  0  0  0
  196.9600  169.8910  136.0300 C   0  0  1  0  0  3  0  0  0  0  0  0
  195.3140  168.6490  134.7690 O   0  0  0  0  0  0  0  0  0  0  0  0
  194.6400  169.7190  136.7050 O   0  0  0  0  0  0  0  0  0  0  0  0
  196.7400  171.0720  135.3150 O   0  0  0  0  0  0  0  0  0  0  0  0
  197.9360  171.7920  135.3860 C   0  0  0  0  0  2  0  0  0  0  0  0
  197.8080  173.0960  134.6040 C   0  0  0  0  0  2  0  0  0  0  0  0
  196.3830  173.6450  134.6440 C   0  0  0  0  0  2  0  0  0  0  0  0
  194.9210  176.0390  134.7380 F   0  0  0  0  0  0  0  0  0  0  0  0
  196.6090  175.4670  136.1860 O   0  0  0  0  0  0  0  0  0  0  0  0
  194.5060  175.7870  137.0670 O   0  0  0  0  0  1  0  0  0  0  0  0
  195.2290  175.4190  135.9330 C   0  0  1  0  0  0  0  0  0  0  0  0
  196.0340  174.1830  136.0230 C   0  0  1  0  0  3  0  0  0  0  0  0
  193.1180  168.1710  135.6600 C   0  0  0  0  0  2  0  0  0  0  0  0
  192.3100  169.3570  135.1320 C   0  0  0  0  0  2  0  0  0  0  0  0
  191.0990  169.5490  135.9350 N   0  0  0  0  0  2  0  0  0  0  0  0
  189.9220  170.9840  137.5860 C   0  0  0  0  0  2  0  0  0  0  0  0
  192.7410  172.5690  136.0380 C   0  0  0  0  0  1  0  0  0  0  0  0
  190.3290  173.0500  136.3940 C   0  0  0  0  0  2  0  0  0  0  0  0
  189.7620  172.4860  137.6870 C   0  0  0  0  0  2  0  0  0  0  0  0
  191.1590  170.7840  136.7290 C   0  0  2  0  0  3  0  0  0  0  0  0
  191.3330  172.0330  135.8720 C   0  0  2  0  0  3  0  0  0  0  0  0
  2  6  1  0  0  0  0
  2  4  1  1  0  0  0
  3 10  1  1  0  0  0
  3  9  1  0  0  0  0
  5  2  1  0  0  0  0
  6  4  1  0  0  0  0
  6  1  1  1  0  0  0
  8  7  1  1  0  0  0
  8  2  1  0  0  0  0
  8 28  1  0  0  0  0
  9  5  1  0  0  0  0
 10  7  1  0  0  0  0
 12 20  1  0  0  0  0
 13 27  1  0  0  0  0
 14 25  1  0  0  0  0
 16 18  1  0  0  0  0
 17 24  1  1  0  0  0
 17 19  1  0  0  0  0
 18 15  2  0  0  0  0
 19 24  1  1  0  0  0
 19 12  1  0  0  0  0
 19 21  1  0  0  0  0
 20 26  1  1  0  0  0
 20 18  1  0  0  0  0
 21 25  1  6  0  0  0
 21 16  1  0  0  0  0
 22 11  1  1  0  0  0
 22 14  1  0  0  0  0
 23 27  1  6  0  0  0
 23 17  1  0  0  0  0
 23 22  1  0  0  0  0
 28 13  1  6  0  0  0
 28 11  1  0  0  0  0
 29 20  1  0  0  0  0
 30 33  1  1  0  0  0
 31 36  1  6  0  0  0
 31 32  1  0  0  0  0
 31 30  1  0  0  0  0
 31 33  1  0  0  0  0
 32 34  1  6  0  0  0
 32 30  1  0  0  0  0
 34 35  1  0  0  0  0
 35 32  1  0  0  0  0
 35 29  1  1  0  0  0
 38 37  1  6  0  0  0
 38 36  1  0  0  0  0
 39 38  1  0  0  0  0
 40 39  1  0  0  0  0
 41 46  1  6  0  0  0
 41  3  1  0  0  0  0
 42 56  1  6  0  0  0
 42 46  1  0  0  0  0
 43 44  1  0  0  0  0
 44 47  1  6  0  0  0
 44 41  1  0  0  0  0
 45 43  1  0  0  0  0
 45 42  1  0  0  0  0
 47 48  1  0  0  0  0
 49 50  1  0  0  0  0
 49 48  1  0  0  0  0
 54 51  1  6  0  0  0
 54 55  1  0  0  0  0
 54 52  1  0  0  0  0
 54 53  1  0  0  0  0
 55 50  1  6  0  0  0
 55 52  1  0  0  0  0
 57 56  1  0  0  0  0
 57 58  1  0  0  0  0
 59 62  1  0  0  0  0
 61 62  1  0  0  0  0
 63 58  1  6  0  0  0
 63 59  1  0  0  0  0
 64 60  1  1  0  0  0
 64 61  1  0  0  0  0
 64 63  1  0  0  0  0
M  END
>  <MODEL>
3

>  <REMARK>
 VINA RESULT:      -5.5      2.505     10.739
  Name = 
  16 active torsions:
  status: ('A' for Active; 'I' for Inactive)
    1  A    between atoms: C_2  and  C_24
    2  A    between atoms: N_5  and  C_40
    3  A    between atoms: N_5  and  C_51
    4  A    between atoms: N_13  and  C_29
    5  A    between atoms: N_13  and  C_45
    6  A    between atoms: C_17  and  C_56
    7  A    between atoms: O_20  and  C_26
    8  A    between atoms: O_20  and  C_48
    9  A    between atoms: C_22  and  C_26
   10  A    between atoms: C_22  and  C_31
   11  A    between atoms: C_23  and  C_61
   12  A    between atoms: C_29  and  C_61
   13  A    between atoms: C_31  and  C_54
   14  A    between atoms: C_44  and  C_64
   15  A    between atoms: C_50  and  C_63
   16  A    between atoms: C_56  and  C_64
                            x       y       z     vdW  Elec       q    Type
                         _______ _______ _______ _____ _____    ______ ____

>  <TORSDO>
F 16

$$$$
=
 OpenBabel11062418243D

 64 75  0  0  1  0  0  0  0  0999 V2000
  185.7960  180.1330  142.9850 O   0  0  0  0  0  1  0  0  0  0  0  0
  184.2870  178.3030  143.4160 C   0  0  1  0  0  0  0  0  0  0  0  0
  181.7270  178.6530  142.0260 C   0  0  2  0  0  3  0  0  0  0  0  0
  185.3980  178.2850  144.4470 C   0  0  0  0  0  2  0  0  0  0  0  0
  183.0340  177.9570  143.9590 O   0  0  0  0  0  0  0  0  0  0  0  0
  184.8900  179.6160  143.9100 C   0  0  1  0  0  3  0  0  0  0  0  0
  183.9620  178.3790  140.8130 C   0  0  0  0  0  2  0  0  0  0  0  0
  184.6060  177.6970  142.0320 C   0  0  1  0  0  3  0  0  0  0  0  0
  182.0850  178.8870  143.4950 C   0  0  0  0  0  2  0  0  0  0  0  0
  182.7850  179.3120  141.1310 C   0  0  0  0  0  2  0  0  0  0  0  0
  186.4640  176.1460  142.8690 C   0  0  0  0  0  2  0  0  0  0  0  0
  189.9990  177.4020  146.1360 C   0  0  0  0  0  2  0  0  0  0  0  0
  187.0400  178.3060  141.7130 C   0  0  0  0  0  2  0  0  0  0  0  0
  188.2080  174.3100  143.1960 C   0  0  0  0  0  2  0  0  0  0  0  0
  191.6230  174.6760  147.9790 O   0  0  0  0  0  0  0  0  0  0  0  0
  190.5970  174.5880  145.9330 O   0  0  0  0  0  0  0  0  0  0  0  0
  189.3250  177.4200  143.6350 C   0  0  2  0  0  3  0  0  0  0  0  0
  191.0900  175.3100  147.0280 C   0  0  0  0  0  0  0  0  0  0  0  0
  189.8570  176.6340  144.8330 C   0  0  2  0  0  0  0  0  0  0  0  0
  191.1330  176.8260  147.0100 C   0  0  2  0  0  0  0  0  0  0  0  0
  189.6560  175.1250  145.0100 C   0  0  1  0  0  3  0  0  0  0  0  0
  187.8330  175.6050  142.4740 C   0  0  2  0  0  3  0  0  0  0  0  0
  188.9040  176.7060  142.3400 C   0  0  1  0  0  3  0  0  0  0  0  0
  190.8200  177.1170  143.7800 C   0  0  0  0  0  2  0  0  0  0  0  0
  189.6260  174.3030  143.7370 C   0  0  0  0  0  2  0  0  0  0  0  0
  190.9490  177.3420  148.4340 C   0  0  0  0  0  1  0  0  0  0  0  0
  188.4180  177.7510  141.3270 C   0  0  0  0  0  2  0  0  0  0  0  0
  186.0280  177.1640  141.8130 C   0  0  2  0  0  3  0  0  0  0  0  0
  192.4500  177.2230  146.4860 N   0  0  0  0  0  2  0  0  0  0  0  0
  193.7630  174.8450  144.4570 C   0  0  1  0  0  3  0  0  0  0  0  0
  195.0920  175.3760  144.2420 C   0  0  2  0  0  0  0  0  0  0  0  0
  194.0420  176.2710  144.9540 C   0  0  2  0  0  0  0  0  0  0  0  0
  194.4700  174.5840  143.2690 O   0  0  0  0  0  0  0  0  0  0  0  0
  194.6350  176.4870  146.2300 O   0  0  0  0  0  0  0  0  0  0  0  0
  193.3210  176.0740  146.2530 C   0  0  1  0  0  3  0  0  0  0  0  0
  196.0440  174.5310  145.1000 C   0  0  0  0  0  2  0  0  0  0  0  0
  197.4470  173.0570  143.8220 O   0  0  0  0  0  1  0  0  0  0  0  0
  197.3920  174.3240  144.4140 C   0  0  1  0  0  3  0  0  0  0  0  0
  197.6340  175.4060  143.3730 C   0  0  0  0  0  2  0  0  0  0  0  0
  197.9410  174.7810  142.0230 C   0  0  0  0  0  1  0  0  0  0  0  0
  180.3290  179.2200  141.7570 C   0  0  2  0  0  3  0  0  0  0  0  0
  179.0590  180.7580  140.7230 C   0  0  1  0  0  3  0  0  0  0  0  0
  177.9440  178.8950  141.3600 C   0  0  0  0  0  2  0  0  0  0  0  0
  179.2610  178.1380  141.5450 C   0  0  1  0  0  3  0  0  0  0  0  0
  178.0590  179.8460  140.3280 O   0  0  0  0  0  0  0  0  0  0  0  0
  180.3250  180.1390  140.6910 O   0  0  0  0  0  0  0  0  0  0  0  0
  179.5520  177.4030  140.3930 O   0  0  0  0  0  0  0  0  0  0  0  0
  178.3530  176.7970  140.0100 C   0  0  0  0  0  2  0  0  0  0  0  0
  178.2820  176.6930  138.4890 C   0  0  0  0  0  2  0  0  0  0  0  0
  179.3360  175.7360  137.9350 C   0  0  0  0  0  2  0  0  0  0  0  0
  180.9020  173.4340  137.5820 F   0  0  0  0  0  0  0  0  0  0  0  0
  179.4500  174.2930  136.0240 O   0  0  0  0  0  0  0  0  0  0  0  0
  179.0280  172.1770  136.8280 O   0  0  0  0  0  1  0  0  0  0  0  0
  179.6050  173.4150  137.1090 C   0  0  1  0  0  0  0  0  0  0  0  0
  178.6950  174.5770  137.1880 C   0  0  1  0  0  3  0  0  0  0  0  0
  179.0500  181.9950  139.8320 C   0  0  0  0  0  2  0  0  0  0  0  0
  178.8070  181.6680  138.3580 C   0  0  0  0  0  2  0  0  0  0  0  0
  177.9570  182.6920  137.7420 N   0  0  0  0  0  2  0  0  0  0  0  0
  180.1760  183.5670  137.0450 C   0  0  0  0  0  2  0  0  0  0  0  0
  177.8470  186.1190  138.0030 C   0  0  0  0  0  1  0  0  0  0  0  0
  180.1610  185.4290  138.5910 C   0  0  0  0  0  2  0  0  0  0  0  0
  180.9410  184.8120  137.4410 C   0  0  0  0  0  2  0  0  0  0  0  0
  178.7260  183.8870  137.3660 C   0  0  2  0  0  3  0  0  0  0  0  0
  178.7200  184.9620  138.4460 C   0  0  2  0  0  3  0  0  0  0  0  0
  2  6  1  0  0  0  0
  2  5  1  0  0  0  0
  2  4  1  1  0  0  0
  3 10  1  6  0  0  0
  3  9  1  0  0  0  0
  6  1  1  6  0  0  0
  6  4  1  0  0  0  0
  7 10  1  0  0  0  0
  8  7  1  6  0  0  0
  8  2  1  0  0  0  0
  9  5  1  0  0  0  0
 12 20  1  0  0  0  0
 14 25  1  0  0  0  0
 16 18  1  0  0  0  0
 17 24  1  6  0  0  0
 17 19  1  0  0  0  0
 18 15  2  0  0  0  0
 19 24  1  6  0  0  0
 19 21  1  0  0  0  0
 19 12  1  0  0  0  0
 20 18  1  0  0  0  0
 20 26  1  1  0  0  0
 21 25  1  6  0  0  0
 21 16  1  0  0  0  0
 22 11  1  1  0  0  0
 22 14  1  0  0  0  0
 23 27  1  6  0  0  0
 23 22  1  0  0  0  0
 23 17  1  0  0  0  0
 27 13  1  0  0  0  0
 28 13  1  1  0  0  0
 28  8  1  0  0  0  0
 28 11  1  0  0  0  0
 29 20  1  0  0  0  0
 30 33  1  6  0  0  0
 30 32  1  0  0  0  0
 31 30  1  0  0  0  0
 31 32  1  0  0  0  0
 31 36  1  1  0  0  0
 32 34  1  1  0  0  0
 32 35  1  0  0  0  0
 33 31  1  0  0  0  0
 34 35  1  0  0  0  0
 35 29  1  6  0  0  0
 38 37  1  6  0  0  0
 38 36  1  0  0  0  0
 39 38  1  0  0  0  0
 40 39  1  0  0  0  0
 41 46  1  6  0  0  0
 41  3  1  0  0  0  0
 42 56  1  6  0  0  0
 43 44  1  0  0  0  0
 44 47  1  6  0  0  0
 44 41  1  0  0  0  0
 45 42  1  0  0  0  0
 45 43  1  0  0  0  0
 46 42  1  0  0  0  0
 48 47  1  0  0  0  0
 49 48  1  0  0  0  0
 50 49  1  0  0  0  0
 52 54  1  0  0  0  0
 52 55  1  0  0  0  0
 54 53  1  6  0  0  0
 54 55  1  0  0  0  0
 54 51  1  0  0  0  0
 55 50  1  1  0  0  0
 57 56  1  0  0  0  0
 58 57  1  0  0  0  0
 59 63  1  0  0  0  0
 59 62  1  0  0  0  0
 62 61  1  0  0  0  0
 63 58  1  1  0  0  0
 63 64  1  0  0  0  0
 64 60  1  6  0  0  0
 64 61  1  0  0  0  0
M  END
>  <MODEL>
4

>  <REMARK>
 VINA RESULT:      -5.0      6.058     10.862
  Name = 
  16 active torsions:
  status: ('A' for Active; 'I' for Inactive)
    1  A    between atoms: C_2  and  C_24
    2  A    between atoms: N_5  and  C_40
    3  A    between atoms: N_5  and  C_51
    4  A    between atoms: N_13  and  C_29
    5  A    between atoms: N_13  and  C_45
    6  A    between atoms: C_17  and  C_56
    7  A    between atoms: O_20  and  C_26
    8  A    between atoms: O_20  and  C_48
    9  A    between atoms: C_22  and  C_26
   10  A    between atoms: C_22  and  C_31
   11  A    between atoms: C_23  and  C_61
   12  A    between atoms: C_29  and  C_61
   13  A    between atoms: C_31  and  C_54
   14  A    between atoms: C_44  and  C_64
   15  A    between atoms: C_50  and  C_63
   16  A    between atoms: C_56  and  C_64
                            x       y       z     vdW  Elec       q    Type
                         _______ _______ _______ _____ _____    ______ ____

>  <TORSDO>
F 16

$$$$
=
 OpenBabel11062418243D

 64 75  0  0  1  0  0  0  0  0999 V2000
  193.9320  171.8820  145.7040 O   0  0  0  0  0  1  0  0  0  0  0  0
  195.1170  172.4600  143.6850 C   0  0  1  0  0  0  0  0  0  0  0  0
  194.1840  170.8920  141.3880 C   0  0  2  0  0  3  0  0  0  0  0  0
  195.8900  172.9800  144.8820 C   0  0  0  0  0  2  0  0  0  0  0  0
  195.9560  171.9630  142.6690 O   0  0  0  0  0  0  0  0  0  0  0  0
  195.1150  171.6740  144.9940 C   0  0  1  0  0  3  0  0  0  0  0  0
  192.6980  172.5340  142.6690 C   0  0  0  0  0  2  0  0  0  0  0  0
  193.9160  173.3050  143.2070 C   0  0  1  0  0  3  0  0  0  0  0  0
  195.4400  170.7240  142.2440 C   0  0  0  0  0  2  0  0  0  0  0  0
  192.9630  171.0670  142.3010 C   0  0  0  0  0  2  0  0  0  0  0  0
  192.5640  174.3450  145.1180 C   0  0  0  0  0  2  0  0  0  0  0  0
  188.0250  176.3310  144.6720 C   0  0  0  0  0  2  0  0  0  0  0  0
  193.1470  175.7100  143.0860 C   0  0  0  0  0  2  0  0  0  0  0  0
  191.7520  175.4500  147.2700 C   0  0  0  0  0  2  0  0  0  0  0  0
  185.9820  176.5400  147.7130 O   0  0  0  0  0  0  0  0  0  0  0  0
  188.2650  176.4740  147.5430 O   0  0  0  0  0  0  0  0  0  0  0  0
  190.5660  176.7870  144.4560 C   0  0  2  0  0  3  0  0  0  0  0  0
  186.9940  176.5730  146.9620 C   0  0  0  0  0  0  0  0  0  0  0  0
  189.3470  176.6230  145.3630 C   0  0  2  0  0  0  0  0  0  0  0  0
  186.8310  176.8760  145.4840 C   0  0  2  0  0  0  0  0  0  0  0  0
  189.4290  176.1150  146.8060 C   0  0  1  0  0  3  0  0  0  0  0  0
  192.4210  175.6400  145.9080 C   0  0  2  0  0  3  0  0  0  0  0  0
  191.9880  176.8370  145.0390 C   0  0  1  0  0  3  0  0  0  0  0  0
  189.8560  178.0070  145.0540 C   0  0  0  0  0  2  0  0  0  0  0  0
  190.6830  176.4850  147.5720 C   0  0  0  0  0  2  0  0  0  0  0  0
  185.5600  176.2000  144.9790 C   0  0  0  0  0  1  0  0  0  0  0  0
  192.9930  177.0080  143.8920 C   0  0  0  0  0  2  0  0  0  0  0  0
  193.5910  174.5740  144.0060 C   0  0  2  0  0  3  0  0  0  0  0  0
  186.7260  178.3370  145.3430 N   0  0  0  0  0  2  0  0  0  0  0  0
  186.7880  177.7160  142.0090 C   0  0  1  0  0  3  0  0  0  0  0  0
  185.3800  177.5080  141.7470 C   0  0  2  0  0  0  0  0  0  0  0  0
  185.8520  177.6090  143.2230 C   0  0  2  0  0  0  0  0  0  0  0  0
  186.3570  176.8700  140.9720 O   0  0  0  0  0  0  0  0  0  0  0  0
  185.1480  178.7520  143.6940 O   0  0  0  0  0  0  0  0  0  0  0  0
  186.5000  178.7430  143.9580 C   0  0  1  0  0  3  0  0  0  0  0  0
  184.8740  178.7750  141.0450 C   0  0  0  0  0  2  0  0  0  0  0  0
  183.3030  177.3370  139.9320 O   0  0  0  0  0  1  0  0  0  0  0  0
  183.4540  178.6010  140.5150 C   0  0  1  0  0  3  0  0  0  0  0  0
  182.4390  178.7940  141.6300 C   0  0  0  0  0  2  0  0  0  0  0  0
  181.1440  178.0720  141.2970 C   0  0  0  0  0  1  0  0  0  0  0  0
  194.0350  169.6690  140.4760 C   0  0  2  0  0  3  0  0  0  0  0  0
  192.7110  168.4190  139.1600 C   0  0  1  0  0  3  0  0  0  0  0  0
  194.9260  168.1670  138.7730 C   0  0  0  0  0  2  0  0  0  0  0  0
  195.2330  169.4540  139.5420 C   0  0  1  0  0  3  0  0  0  0  0  0
  193.6700  168.2540  138.1410 O   0  0  0  0  0  0  0  0  0  0  0  0
  192.8320  169.6960  139.7450 O   0  0  0  0  0  0  0  0  0  0  0  0
  195.3390  170.5250  138.6510 O   0  0  0  0  0  0  0  0  0  0  0  0
  196.4320  171.2800  139.0860 C   0  0  0  0  0  2  0  0  0  0  0  0
  196.0650  172.7610  139.1210 C   0  0  0  0  0  2  0  0  0  0  0  0
  195.2830  173.1820  137.8770 C   0  0  0  0  0  2  0  0  0  0  0  0
  194.0920  174.0760  135.4990 F   0  0  0  0  0  0  0  0  0  0  0  0
  195.8630  172.6200  135.6210 O   0  0  0  0  0  0  0  0  0  0  0  0
  196.2050  174.6330  134.5560 O   0  0  0  0  0  1  0  0  0  0  0  0
  195.4680  173.9640  135.5340 C   0  0  1  0  0  0  0  0  0  0  0  0
  196.2130  173.4590  136.7060 C   0  0  1  0  0  3  0  0  0  0  0  0
  191.3000  168.2150  138.6190 C   0  0  0  0  0  2  0  0  0  0  0  0
  190.8820  169.2950  137.6200 C   0  0  0  0  0  2  0  0  0  0  0  0
  189.6740  169.9820  138.0870 N   0  0  0  0  0  2  0  0  0  0  0  0
  190.6040  171.9400  136.8740 C   0  0  0  0  0  2  0  0  0  0  0  0
  189.5790  172.6690  140.2320 C   0  0  0  0  0  1  0  0  0  0  0  0
  191.6160  172.9380  138.8330 C   0  0  0  0  0  2  0  0  0  0  0  0
  191.3350  173.1750  137.3570 C   0  0  0  0  0  2  0  0  0  0  0  0
  189.8420  171.4420  138.0890 C   0  0  2  0  0  3  0  0  0  0  0  0
  190.5660  171.9550  139.3290 C   0  0  2  0  0  3  0  0  0  0  0  0
  2  4  1  1  0  0  0
  2  6  1  0  0  0  0
  3  9  1  1  0  0  0
  3 10  1  0  0  0  0
  4  6  1  0  0  0  0
  5  2  1  0  0  0  0
  6  1  1  1  0  0  0
  8  7  1  1  0  0  0
  8  2  1  0  0  0  0
  8 28  1  0  0  0  0
  9  5  1  0  0  0  0
 10  7  1  0  0  0  0
 12 20  1  0  0  0  0
 13 27  1  0  0  0  0
 14 25  1  0  0  0  0
 17 23  1  0  0  0  0
 17 24  1  1  0  0  0
 17 19  1  0  0  0  0
 18 16  1  0  0  0  0
 18 15  2  0  0  0  0
 19 12  1  6  0  0  0
 19 21  1  0  0  0  0
 20 26  1  6  0  0  0
 20 18  1  0  0  0  0
 21 16  1  0  0  0  0
 21 25  1  1  0  0  0
 22 11  1  6  0  0  0
 22 14  1  0  0  0  0
 23 27  1  6  0  0  0
 23 22  1  0  0  0  0
 24 19  1  0  0  0  0
 28 13  1  6  0  0  0
 28 11  1  0  0  0  0
 29 20  1  0  0  0  0
 30 33  1  1  0  0  0
 30 32  1  0  0  0  0
 31 36  1  6  0  0  0
 31 30  1  0  0  0  0
 31 32  1  0  0  0  0
 32 34  1  6  0  0  0
 32 35  1  0  0  0  0
 33 31  1  0  0  0  0
 34 35  1  0  0  0  0
 35 29  1  1  0  0  0
 38 37  1  1  0  0  0
 38 36  1  0  0  0  0
 38 39  1  0  0  0  0
 40 39  1  0  0  0  0
 41 46  1  6  0  0  0
 41  3  1  0  0  0  0
 42 56  1  6  0  0  0
 42 46  1  0  0  0  0
 43 44  1  0  0  0  0
 44 47  1  6  0  0  0
 44 41  1  0  0  0  0
 45 43  1  0  0  0  0
 45 42  1  0  0  0  0
 47 48  1  0  0  0  0
 48 49  1  0  0  0  0
 50 49  1  0  0  0  0
 51 54  1  0  0  0  0
 52 55  1  0  0  0  0
 54 53  1  6  0  0  0
 54 52  1  0  0  0  0
 54 55  1  0  0  0  0
 55 50  1  1  0  0  0
 57 58  1  0  0  0  0
 57 56  1  0  0  0  0
 59 62  1  0  0  0  0
 59 63  1  0  0  0  0
 61 64  1  0  0  0  0
 62 61  1  0  0  0  0
 63 58  1  1  0  0  0
 63 64  1  0  0  0  0
 64 60  1  1  0  0  0
M  END
>  <MODEL>
5

>  <REMARK>
 VINA RESULT:      -4.1      2.813     10.076
  Name = 
  16 active torsions:
  status: ('A' for Active; 'I' for Inactive)
    1  A    between atoms: C_2  and  C_24
    2  A    between atoms: N_5  and  C_40
    3  A    between atoms: N_5  and  C_51
    4  A    between atoms: N_13  and  C_29
    5  A    between atoms: N_13  and  C_45
    6  A    between atoms: C_17  and  C_56
    7  A    between atoms: O_20  and  C_26
    8  A    between atoms: O_20  and  C_48
    9  A    between atoms: C_22  and  C_26
   10  A    between atoms: C_22  and  C_31
   11  A    between atoms: C_23  and  C_61
   12  A    between atoms: C_29  and  C_61
   13  A    between atoms: C_31  and  C_54
   14  A    between atoms: C_44  and  C_64
   15  A    between atoms: C_50  and  C_63
   16  A    between atoms: C_56  and  C_64
                            x       y       z     vdW  Elec       q    Type
                         _______ _______ _______ _____ _____    ______ ____

>  <TORSDO>
F 16

$$$$
=
 OpenBabel11062418243D

 64 75  0  0  1  0  0  0  0  0999 V2000
  190.0830  172.9600  142.3420 O   0  0  0  0  0  1  0  0  0  0  0  0
  192.0850  171.8010  143.0220 C   0  0  1  0  0  0  0  0  0  0  0  0
  193.4650  170.5800  140.7390 C   0  0  2  0  0  3  0  0  0  0  0  0
  191.2190  172.0530  144.2410 C   0  0  0  0  0  2  0  0  0  0  0  0
  192.7240  170.5470  143.0580 O   0  0  0  0  0  0  0  0  0  0  0  0
  190.5640  171.7730  142.8950 C   0  0  1  0  0  3  0  0  0  0  0  0
  193.1400  173.1040  141.0020 C   0  0  0  0  0  2  0  0  0  0  0  0
  192.9510  172.9790  142.5240 C   0  0  1  0  0  3  0  0  0  0  0  0
  192.5660  169.9400  141.7980 C   0  0  0  0  0  2  0  0  0  0  0  0
  192.7890  171.8460  140.1940 C   0  0  0  0  0  2  0  0  0  0  0  0
  192.0110  174.1970  144.5710 C   0  0  0  0  0  2  0  0  0  0  0  0
  187.5560  176.3980  144.8080 C   0  0  0  0  0  2  0  0  0  0  0  0
  192.2770  175.4120  142.3830 C   0  0  0  0  0  2  0  0  0  0  0  0
  191.6490  175.4650  146.7570 C   0  0  0  0  0  2  0  0  0  0  0  0
  186.1060  176.8890  148.1430 O   0  0  0  0  0  0  0  0  0  0  0  0
  188.3160  176.6890  147.5760 O   0  0  0  0  0  0  0  0  0  0  0  0
  190.0340  176.7030  144.1160 C   0  0  2  0  0  3  0  0  0  0  0  0
  186.9670  176.8250  147.2230 C   0  0  0  0  0  0  0  0  0  0  0  0
  188.9920  176.6570  145.2340 C   0  0  2  0  0  0  0  0  0  0  0  0
  186.5530  177.0520  145.7810 C   0  0  2  0  0  0  0  0  0  0  0  0
  189.3110  176.2270  146.6690 C   0  0  1  0  0  3  0  0  0  0  0  0
  192.0690  175.5410  145.2890 C   0  0  2  0  0  3  0  0  0  0  0  0
  191.5380  176.7080  144.4330 C   0  0  1  0  0  3  0  0  0  0  0  0
  189.4970  177.9910  144.7490 C   0  0  0  0  0  2  0  0  0  0  0  0
  190.6970  176.5710  147.1750 C   0  0  0  0  0  2  0  0  0  0  0  0
  185.1840  176.4180  145.5550 C   0  0  0  0  0  1  0  0  0  0  0  0
  192.3270  176.7590  143.1180 C   0  0  0  0  0  2  0  0  0  0  0  0
  192.8300  174.3070  143.2830 C   0  0  2  0  0  3  0  0  0  0  0  0
  186.4880  178.5060  145.5660 N   0  0  0  0  0  2  0  0  0  0  0  0
  185.6040  179.1500  142.3560 C   0  0  1  0  0  3  0  0  0  0  0  0
  184.8950  177.9340  142.0210 C   0  0  2  0  0  0  0  0  0  0  0  0
  185.6820  177.9890  143.3590 C   0  0  2  0  0  0  0  0  0  0  0  0
  185.5690  178.6670  141.0360 O   0  0  0  0  0  0  0  0  0  0  0  0
  184.6570  177.8020  144.3270 O   0  0  0  0  0  0  0  0  0  0  0  0
  185.4960  178.8700  144.5570 C   0  0  1  0  0  3  0  0  0  0  0  0
  183.4010  178.2820  142.0280 C   0  0  0  0  0  2  0  0  0  0  0  0
  183.2790  177.3080  139.8350 O   0  0  0  0  0  1  0  0  0  0  0  0
  182.8350  178.3820  140.6140 C   0  0  1  0  0  3  0  0  0  0  0  0
  181.3150  178.4190  140.6480 C   0  0  0  0  0  2  0  0  0  0  0  0
  180.8330  179.1940  141.8620 C   0  0  0  0  0  1  0  0  0  0  0  0
  193.7290  169.5600  139.6260 C   0  0  2  0  0  3  0  0  0  0  0  0
  193.0050  168.5380  137.7610 C   0  0  1  0  0  3  0  0  0  0  0  0
  195.2480  168.4750  138.0550 C   0  0  0  0  0  2  0  0  0  0  0  0
  195.1690  169.5950  139.0950 C   0  0  1  0  0  3  0  0  0  0  0  0
  194.2380  168.6280  137.0840 O   0  0  0  0  0  0  0  0  0  0  0  0
  192.8060  169.6750  138.5690 O   0  0  0  0  0  0  0  0  0  0  0  0
  195.4210  170.8270  138.4870 O   0  0  0  0  0  0  0  0  0  0  0  0
  196.3920  171.4520  139.2730 C   0  0  0  0  0  2  0  0  0  0  0  0
  196.6290  172.8770  138.7790 C   0  0  0  0  0  2  0  0  0  0  0  0
  197.3540  173.7270  139.8200 C   0  0  0  0  0  2  0  0  0  0  0  0
  195.8890  174.6820  142.0140 F   0  0  0  0  0  0  0  0  0  0  0  0
  195.4880  175.2310  139.8210 O   0  0  0  0  0  0  0  0  0  0  0  0
  196.0730  176.9310  141.2600 O   0  0  0  0  0  1  0  0  0  0  0  0
  196.1820  175.5660  140.9950 C   0  0  1  0  0  0  0  0  0  0  0  0
  196.9020  175.1770  139.7640 C   0  0  1  0  0  3  0  0  0  0  0  0
  191.8520  168.3790  136.7750 C   0  0  0  0  0  2  0  0  0  0  0  0
  190.6960  169.3410  137.0500 C   0  0  0  0  0  2  0  0  0  0  0  0
  190.5860  170.3280  135.9720 N   0  0  0  0  0  2  0  0  0  0  0  0
  189.6890  172.5400  135.2820 C   0  0  0  0  0  2  0  0  0  0  0  0
  189.3370  171.8620  138.7850 C   0  0  0  0  0  1  0  0  0  0  0  0
  190.2770  173.6570  137.3470 C   0  0  0  0  0  2  0  0  0  0  0  0
  189.5460  173.8500  136.0270 C   0  0  0  0  0  2  0  0  0  0  0  0
  189.7690  171.4840  136.3700 C   0  0  2  0  0  3  0  0  0  0  0  0
  190.2780  172.1640  137.6360 C   0  0  2  0  0  3  0  0  0  0  0  0
  2  5  1  0  0  0  0
  2  4  1  1  0  0  0
  3 10  1  6  0  0  0
  3  9  1  0  0  0  0
  6  1  1  6  0  0  0
  6  2  1  0  0  0  0
  6  4  1  0  0  0  0
  8  7  1  6  0  0  0
  8  2  1  0  0  0  0
  8 28  1  0  0  0  0
  9  5  1  0  0  0  0
 10  7  1  0  0  0  0
 12 19  1  0  0  0  0
 12 20  1  0  0  0  0
 13 27  1  0  0  0  0
 14 25  1  0  0  0  0
 17 23  1  0  0  0  0
 17 24  1  1  0  0  0
 17 19  1  0  0  0  0
 18 16  1  0  0  0  0
 18 15  2  0  0  0  0
 19 24  1  1  0  0  0
 19 21  1  0  0  0  0
 20 26  1  6  0  0  0
 20 18  1  0  0  0  0
 21 25  1  1  0  0  0
 21 16  1  0  0  0  0
 22 11  1  6  0  0  0
 22 14  1  0  0  0  0
 23 27  1  6  0  0  0
 23 22  1  0  0  0  0
 28 13  1  6  0  0  0
 28 11  1  0  0  0  0
 29 20  1  0  0  0  0
 30 33  1  6  0  0  0
 30 32  1  0  0  0  0
 31 36  1  1  0  0  0
 31 30  1  0  0  0  0
 31 32  1  0  0  0  0
 32 34  1  1  0  0  0
 32 35  1  0  0  0  0
 33 31  1  0  0  0  0
 34 35  1  0  0  0  0
 35 29  1  1  0  0  0
 38 37  1  6  0  0  0
 38 39  1  0  0  0  0
 38 36  1  0  0  0  0
 39 40  1  0  0  0  0
 41 46  1  6  0  0  0
 41  3  1  0  0  0  0
 42 56  1  6  0  0  0
 42 46  1  0  0  0  0
 43 44  1  0  0  0  0
 44 47  1  6  0  0  0
 44 41  1  0  0  0  0
 45 42  1  0  0  0  0
 45 43  1  0  0  0  0
 47 48  1  0  0  0  0
 49 48  1  0  0  0  0
 49 50  1  0  0  0  0
 52 54  1  0  0  0  0
 54 53  1  1  0  0  0
 54 51  1  0  0  0  0
 55 50  1  1  0  0  0
 55 52  1  0  0  0  0
 55 54  1  0  0  0  0
 56 57  1  0  0  0  0
 58 57  1  0  0  0  0
 59 62  1  0  0  0  0
 59 63  1  0  0  0  0
 61 64  1  0  0  0  0
 62 61  1  0  0  0  0
 63 58  1  6  0  0  0
 63 64  1  0  0  0  0
 64 60  1  1  0  0  0
M  END
>  <MODEL>
6

>  <REMARK>
 VINA RESULT:      -3.7      2.792     10.444
  Name = 
  16 active torsions:
  status: ('A' for Active; 'I' for Inactive)
    1  A    between atoms: C_2  and  C_24
    2  A    between atoms: N_5  and  C_40
    3  A    between atoms: N_5  and  C_51
    4  A    between atoms: N_13  and  C_29
    5  A    between atoms: N_13  and  C_45
    6  A    between atoms: C_17  and  C_56
    7  A    between atoms: O_20  and  C_26
    8  A    between atoms: O_20  and  C_48
    9  A    between atoms: C_22  and  C_26
   10  A    between atoms: C_22  and  C_31
   11  A    between atoms: C_23  and  C_61
   12  A    between atoms: C_29  and  C_61
   13  A    between atoms: C_31  and  C_54
   14  A    between atoms: C_44  and  C_64
   15  A    between atoms: C_50  and  C_63
   16  A    between atoms: C_56  and  C_64
                            x       y       z     vdW  Elec       q    Type
                         _______ _______ _______ _____ _____    ______ ____

>  <TORSDO>
F 16

$$$$
=
 OpenBabel11062418243D

 64 75  0  0  1  0  0  0  0  0999 V2000
  192.3600  173.1930  141.8230 O   0  0  0  0  0  1  0  0  0  0  0  0
  190.3520  172.3410  142.8500 C   0  0  1  0  0  0  0  0  0  0  0  0
  188.9180  174.4270  144.3330 C   0  0  2  0  0  3  0  0  0  0  0  0
  191.2410  171.1780  142.4570 C   0  0  0  0  0  2  0  0  0  0  0  0
  189.6950  172.1340  144.0780 O   0  0  0  0  0  0  0  0  0  0  0  0
  191.8700  172.4850  142.9200 C   0  0  1  0  0  3  0  0  0  0  0  0
  189.2850  174.4980  141.8020 C   0  0  0  0  0  2  0  0  0  0  0  0
  189.4960  172.9760  141.7320 C   0  0  1  0  0  3  0  0  0  0  0  0
  189.8240  173.3070  144.8460 C   0  0  0  0  0  2  0  0  0  0  0  0
  189.6030  175.1420  143.1590 C   0  0  0  0  0  2  0  0  0  0  0  0
  190.5540  171.1640  140.2640 C   0  0  0  0  0  2  0  0  0  0  0  0
  194.9830  171.5090  138.0240 C   0  0  0  0  0  2  0  0  0  0  0  0
  190.1230  173.4620  139.3320 C   0  0  0  0  0  2  0  0  0  0  0  0
  191.0450  169.1820  138.7310 C   0  0  0  0  0  2  0  0  0  0  0  0
  196.6480  168.3680  137.1130 O   0  0  0  0  0  0  0  0  0  0  0  0
  194.4080  168.7530  137.3950 O   0  0  0  0  0  0  0  0  0  0  0  0
  192.4600  172.0610  137.8220 C   0  0  2  0  0  3  0  0  0  0  0  0
  195.7280  169.2110  137.2970 C   0  0  0  0  0  0  0  0  0  0  0  0
  193.5750  171.0210  137.7230 C   0  0  2  0  0  0  0  0  0  0  0  0
  196.0400  170.6950  137.2480 C   0  0  2  0  0  0  0  0  0  0  0  0
  193.3600  169.5250  137.9720 C   0  0  1  0  0  3  0  0  0  0  0  0
  190.5250  170.6170  138.8410 C   0  0  2  0  0  3  0  0  0  0  0  0
  190.9800  171.6450  137.7860 C   0  0  1  0  0  3  0  0  0  0  0  0
  193.0200  171.6310  136.4620 C   0  0  0  0  0  2  0  0  0  0  0  0
  192.0070  168.9710  137.5760 C   0  0  0  0  0  2  0  0  0  0  0  0
  197.3990  170.9350  137.8970 C   0  0  0  0  0  1  0  0  0  0  0  0
  190.1040  172.8980  137.9040 C   0  0  0  0  0  2  0  0  0  0  0  0
  189.6480  172.3970  140.3190 C   0  0  2  0  0  3  0  0  0  0  0  0
  196.0700  171.0930  135.8320 N   0  0  0  0  0  2  0  0  0  0  0  0
  196.2230  174.3620  136.7220 C   0  0  1  0  0  3  0  0  0  0  0  0
  197.0950  174.8830  135.6910 C   0  0  2  0  0  0  0  0  0  0  0  0
  196.9200  173.3440  135.8060 C   0  0  2  0  0  0  0  0  0  0  0  0
  197.0580  175.4680  136.9630 O   0  0  0  0  0  0  0  0  0  0  0  0
  196.3540  173.0030  134.5460 O   0  0  0  0  0  0  0  0  0  0  0  0
  195.6970  172.4930  135.6440 C   0  0  1  0  0  3  0  0  0  0  0  0
  196.2020  175.6560  134.7120 C   0  0  0  0  0  2  0  0  0  0  0  0
  196.4420  178.0400  134.8860 O   0  0  0  0  0  1  0  0  0  0  0  0
  195.6790  176.9530  135.3250 C   0  0  1  0  0  3  0  0  0  0  0  0
  194.2140  177.1570  134.9730 C   0  0  0  0  0  2  0  0  0  0  0  0
  193.3240  176.5180  136.0250 C   0  0  0  0  0  1  0  0  0  0  0  0
  188.6200  175.3950  145.4840 C   0  0  2  0  0  3  0  0  0  0  0  0
  189.4090  176.8050  147.0440 C   0  0  1  0  0  3  0  0  0  0  0  0
  187.2370  177.1300  146.4970 C   0  0  0  0  0  2  0  0  0  0  0  0
  187.4060  176.2980  145.2250 C   0  0  1  0  0  3  0  0  0  0  0  0
  188.4360  177.7990  146.8160 O   0  0  0  0  0  0  0  0  0  0  0  0
  189.7460  176.1630  145.8360 O   0  0  0  0  0  0  0  0  0  0  0  0
  187.6630  177.1380  144.1380 O   0  0  0  0  0  0  0  0  0  0  0  0
  186.6590  178.1090  144.1570 C   0  0  0  0  0  2  0  0  0  0  0  0
  186.5120  178.7370  142.7730 C   0  0  0  0  0  2  0  0  0  0  0  0
  187.7180  178.4420  141.8850 C   0  0  0  0  0  2  0  0  0  0  0  0
  185.5850  178.6950  140.0790 F   0  0  0  0  0  0  0  0  0  0  0  0
  186.1470  176.7690  141.1950 O   0  0  0  0  0  0  0  0  0  0  0  0
  186.2510  176.7410  138.8950 O   0  0  0  0  0  1  0  0  0  0  0  0
  186.3380  177.5380  140.0360 C   0  0  1  0  0  0  0  0  0  0  0  0
  187.4540  177.2610  140.9650 C   0  0  1  0  0  3  0  0  0  0  0  0
  190.6530  177.4010  147.6940 C   0  0  0  0  0  2  0  0  0  0  0  0
  191.8720  177.3890  146.7710 C   0  0  0  0  0  2  0  0  0  0  0  0
  193.0300  176.8140  147.4620 N   0  0  0  0  0  2  0  0  0  0  0  0
  194.7830  177.2590  145.7580 C   0  0  0  0  0  2  0  0  0  0  0  0
  193.6430  173.8590  145.8120 C   0  0  0  0  0  1  0  0  0  0  0  0
  193.9090  175.6820  144.1430 C   0  0  0  0  0  2  0  0  0  0  0  0
  195.0760  176.6170  144.4180 C   0  0  0  0  0  2  0  0  0  0  0  0
  193.9860  176.2140  146.5200 C   0  0  2  0  0  3  0  0  0  0  0  0
  193.3190  175.3060  145.4940 C   0  0  2  0  0  3  0  0  0  0  0  0
  2  4  1  6  0  0  0
  2  6  1  0  0  0  0
  2  5  1  0  0  0  0
  3 10  1  6  0  0  0
  3  9  1  0  0  0  0
  3 41  1  0  0  0  0
  4  6  1  0  0  0  0
  5  9  1  0  0  0  0
  6  1  1  6  0  0  0
  7 10  1  0  0  0  0
  8  7  1  6  0  0  0
  8  2  1  0  0  0  0
 11 28  1  0  0  0  0
 15 18  2  0  0  0  0
 16 21  1  0  0  0  0
 17 24  1  6  0  0  0
 18 16  1  0  0  0  0
 19 24  1  6  0  0  0
 19 17  1  0  0  0  0
 19 21  1  0  0  0  0
 19 12  1  0  0  0  0
 20 18  1  0  0  0  0
 20 26  1  1  0  0  0
 20 12  1  0  0  0  0
 21 25  1  6  0  0  0
 22 14  1  1  0  0  0
 22 11  1  0  0  0  0
 23 17  1  0  0  0  0
 23 27  1  1  0  0  0
 23 22  1  0  0  0  0
 25 14  1  0  0  0  0
 27 13  1  0  0  0  0
 28 13  1  6  0  0  0
 28  8  1  0  0  0  0
 29 20  1  0  0  0  0
 30 33  1  1  0  0  0
 31 36  1  6  0  0  0
 31 32  1  0  0  0  0
 31 30  1  0  0  0  0
 31 33  1  0  0  0  0
 32 34  1  6  0  0  0
 32 30  1  0  0  0  0
 34 35  1  0  0  0  0
 35 32  1  0  0  0  0
 35 29  1  6  0  0  0
 36 38  1  0  0  0  0
 38 37  1  6  0  0  0
 39 38  1  0  0  0  0
 39 40  1  0  0  0  0
 41 46  1  6  0  0  0
 42 56  1  6  0  0  0
 43 45  1  0  0  0  0
 44 47  1  6  0  0  0
 44 41  1  0  0  0  0
 44 43  1  0  0  0  0
 45 42  1  0  0  0  0
 46 42  1  0  0  0  0
 47 48  1  0  0  0  0
 49 48  1  0  0  0  0
 50 49  1  0  0  0  0
 54 53  1  6  0  0  0
 54 51  1  0  0  0  0
 54 55  1  0  0  0  0
 54 52  1  0  0  0  0
 55 52  1  0  0  0  0
 55 50  1  1  0  0  0
 57 58  1  0  0  0  0
 57 56  1  0  0  0  0
 59 63  1  0  0  0  0
 61 62  1  0  0  0  0
 61 64  1  0  0  0  0
 62 59  1  0  0  0  0
 63 58  1  6  0  0  0
 64 60  1  1  0  0  0
 64 63  1  0  0  0  0
M  END
>  <MODEL>
7

>  <REMARK>
 VINA RESULT:      -3.7      2.601      6.219
  Name = 
  16 active torsions:
  status: ('A' for Active; 'I' for Inactive)
    1  A    between atoms: C_2  and  C_24
    2  A    between atoms: N_5  and  C_40
    3  A    between atoms: N_5  and  C_51
    4  A    between atoms: N_13  and  C_29
    5  A    between atoms: N_13  and  C_45
    6  A    between atoms: C_17  and  C_56
    7  A    between atoms: O_20  and  C_26
    8  A    between atoms: O_20  and  C_48
    9  A    between atoms: C_22  and  C_26
   10  A    between atoms: C_22  and  C_31
   11  A    between atoms: C_23  and  C_61
   12  A    between atoms: C_29  and  C_61
   13  A    between atoms: C_31  and  C_54
   14  A    between atoms: C_44  and  C_64
   15  A    between atoms: C_50  and  C_63
   16  A    between atoms: C_56  and  C_64
                            x       y       z     vdW  Elec       q    Type
                         _______ _______ _______ _____ _____    ______ ____

>  <TORSDO>
F 16

$$$$
=
 OpenBabel11062418243D

 64 75  0  0  1  0  0  0  0  0999 V2000
  187.2890  172.9630  141.1000 O   0  0  0  0  0  1  0  0  0  0  0  0
  188.9480  174.6760  141.4550 C   0  0  1  0  0  0  0  0  0  0  0  0
  190.0520  174.5780  144.1710 C   0  0  2  0  0  3  0  0  0  0  0  0
  188.1390  175.0160  140.2180 C   0  0  0  0  0  2  0  0  0  0  0  0
  189.2740  175.8110  142.2220 O   0  0  0  0  0  0  0  0  0  0  0  0
  187.4660  174.3160  141.3910 C   0  0  1  0  0  3  0  0  0  0  0  0
  190.3220  172.6840  142.4720 C   0  0  0  0  0  2  0  0  0  0  0  0
  190.0770  173.6350  141.2880 C   0  0  1  0  0  3  0  0  0  0  0  0
  189.0050  175.5190  143.5720 C   0  0  0  0  0  2  0  0  0  0  0  0
  189.7040  173.1280  143.8060 C   0  0  0  0  0  2  0  0  0  0  0  0
  191.0250  171.6910  139.9170 C   0  0  0  0  0  2  0  0  0  0  0  0
  195.5960  171.5190  137.9610 C   0  0  0  0  0  2  0  0  0  0  0  0
  190.9010  174.0010  138.9250 C   0  0  0  0  0  2  0  0  0  0  0  0
  191.3970  169.6350  138.4490 C   0  0  0  0  0  2  0  0  0  0  0  0
  196.9710  168.2010  137.2060 O   0  0  0  0  0  0  0  0  0  0  0  0
  194.7710  168.8260  137.3380 O   0  0  0  0  0  0  0  0  0  0  0  0
  193.1640  172.3290  137.5900 C   0  0  2  0  0  3  0  0  0  0  0  0
  196.1360  169.1400  137.3170 C   0  0  0  0  0  0  0  0  0  0  0  0
  194.1660  171.1750  137.5770 C   0  0  2  0  0  0  0  0  0  0  0  0
  196.6070  170.5820  137.2660 C   0  0  2  0  0  0  0  0  0  0  0  0
  193.7780  169.7160  137.8350 C   0  0  1  0  0  3  0  0  0  0  0  0
  191.0270  171.1180  138.5040 C   0  0  2  0  0  3  0  0  0  0  0  0
  191.6530  172.0700  137.4650 C   0  0  1  0  0  3  0  0  0  0  0  0
  193.7580  171.8130  136.2750 C   0  0  0  0  0  2  0  0  0  0  0  0
  192.4000  169.2990  137.3610 C   0  0  0  0  0  2  0  0  0  0  0  0
  197.9410  170.6910  137.9980 C   0  0  0  0  0  1  0  0  0  0  0  0
  190.9100  173.4110  137.5080 C   0  0  0  0  0  2  0  0  0  0  0  0
  190.2540  173.0130  139.8960 C   0  0  2  0  0  3  0  0  0  0  0  0
  196.7670  170.9430  135.8490 N   0  0  0  0  0  2  0  0  0  0  0  0
  196.6620  174.2450  136.6170 C   0  0  1  0  0  3  0  0  0  0  0  0
  197.5850  174.7800  135.6390 C   0  0  2  0  0  0  0  0  0  0  0  0
  197.4880  173.2380  135.8010 C   0  0  2  0  0  0  0  0  0  0  0  0
  197.4110  175.4060  136.8790 O   0  0  0  0  0  0  0  0  0  0  0  0
  197.0480  172.8200  134.5150 O   0  0  0  0  0  0  0  0  0  0  0  0
  196.3320  172.3110  135.5760 C   0  0  1  0  0  3  0  0  0  0  0  0
  196.7330  175.4630  134.5620 C   0  0  0  0  0  2  0  0  0  0  0  0
  196.5820  177.8600  134.6410 O   0  0  0  0  0  1  0  0  0  0  0  0
  195.9940  176.6810  135.1120 C   0  0  1  0  0  3  0  0  0  0  0  0
  194.5240  176.6320  134.7280 C   0  0  0  0  0  2  0  0  0  0  0  0
  193.7640  177.7610  135.4030 C   0  0  0  0  0  1  0  0  0  0  0  0
  190.0940  174.7810  145.6900 C   0  0  2  0  0  3  0  0  0  0  0  0
  190.9730  175.8710  147.4470 C   0  0  1  0  0  3  0  0  0  0  0  0
  188.9640  174.9090  147.8480 C   0  0  0  0  0  2  0  0  0  0  0  0
  188.7070  174.7580  146.3470 C   0  0  1  0  0  3  0  0  0  0  0  0
  189.7410  176.0560  148.1060 O   0  0  0  0  0  0  0  0  0  0  0  0
  190.7970  175.9460  146.0510 O   0  0  0  0  0  0  0  0  0  0  0  0
  187.9450  175.8350  145.8850 O   0  0  0  0  0  0  0  0  0  0  0  0
  187.2140  176.2890  146.9860 C   0  0  0  0  0  2  0  0  0  0  0  0
  186.5550  177.6270  146.6610 C   0  0  0  0  0  2  0  0  0  0  0  0
  187.1060  178.2340  145.3720 C   0  0  0  0  0  2  0  0  0  0  0  0
  188.0580  178.4560  142.7420 F   0  0  0  0  0  0  0  0  0  0  0  0
  186.1360  179.4310  143.5360 O   0  0  0  0  0  0  0  0  0  0  0  0
  185.9300  177.8870  141.8390 O   0  0  0  0  0  1  0  0  0  0  0  0
  186.6990  178.2960  142.9290 C   0  0  1  0  0  0  0  0  0  0  0  0
  186.0670  178.2170  144.2630 C   0  0  1  0  0  3  0  0  0  0  0  0
  191.9980  176.9000  147.9090 C   0  0  0  0  0  2  0  0  0  0  0  0
  193.1470  177.0850  146.9170 C   0  0  0  0  0  2  0  0  0  0  0  0
  194.0530  175.9340  146.9640 N   0  0  0  0  0  2  0  0  0  0  0  0
  194.0940  176.5350  144.5540 C   0  0  0  0  0  2  0  0  0  0  0  0
  195.9610  173.5770  145.3420 C   0  0  0  0  0  1  0  0  0  0  0  0
  194.1570  174.2470  143.7690 C   0  0  0  0  0  2  0  0  0  0  0  0
  194.2370  175.6920  143.3040 C   0  0  0  0  0  2  0  0  0  0  0  0
  194.6890  175.6850  145.6630 C   0  0  2  0  0  3  0  0  0  0  0  0
  194.5970  174.2280  145.2260 C   0  0  2  0  0  3  0  0  0  0  0  0
  2  4  1  6  0  0  0
  2  5  1  0  0  0  0
  3  9  1  6  0  0  0
  3 41  1  0  0  0  0
  4  6  1  0  0  0  0
  5  9  1  0  0  0  0
  6  1  1  6  0  0  0
  6  2  1  0  0  0  0
  7 10  1  0  0  0  0
  8  2  1  0  0  0  0
  8  7  1  1  0  0  0
 10  3  1  0  0  0  0
 15 18  2  0  0  0  0
 16 21  1  0  0  0  0
 17 24  1  6  0  0  0
 18 16  1  0  0  0  0
 19 24  1  6  0  0  0
 19 17  1  0  0  0  0
 19 21  1  0  0  0  0
 19 12  1  0  0  0  0
 20 18  1  0  0  0  0
 20 12  1  0  0  0  0
 20 26  1  1  0  0  0
 21 25  1  6  0  0  0
 22 14  1  1  0  0  0
 22 11  1  0  0  0  0
 23 27  1  1  0  0  0
 23 17  1  0  0  0  0
 23 22  1  0  0  0  0
 25 14  1  0  0  0  0
 27 13  1  0  0  0  0
 28 13  1  6  0  0  0
 28 11  1  0  0  0  0
 28  8  1  0  0  0  0
 29 20  1  0  0  0  0
 30 33  1  1  0  0  0
 31 36  1  6  0  0  0
 31 32  1  0  0  0  0
 31 30  1  0  0  0  0
 31 33  1  0  0  0  0
 32 34  1  6  0  0  0
 32 30  1  0  0  0  0
 34 35  1  0  0  0  0
 35 32  1  0  0  0  0
 35 29  1  1  0  0  0
 36 38  1  0  0  0  0
 38 37  1  6  0  0  0
 39 38  1  0  0  0  0
 39 40  1  0  0  0  0
 41 46  1  6  0  0  0
 41 44  1  0  0  0  0
 42 56  1  1  0  0  0
 42 45  1  0  0  0  0
 43 45  1  0  0  0  0
 44 47  1  6  0  0  0
 44 43  1  0  0  0  0
 46 42  1  0  0  0  0
 47 48  1  0  0  0  0
 49 48  1  0  0  0  0
 50 49  1  0  0  0  0
 51 54  1  0  0  0  0
 52 55  1  0  0  0  0
 54 53  1  6  0  0  0
 54 52  1  0  0  0  0
 54 55  1  0  0  0  0
 55 50  1  1  0  0  0
 57 58  1  0  0  0  0
 57 56  1  0  0  0  0
 59 63  1  0  0  0  0
 61 64  1  0  0  0  0
 62 61  1  0  0  0  0
 62 59  1  0  0  0  0
 63 58  1  1  0  0  0
 64 60  1  6  0  0  0
 64 63  1  0  0  0  0
M  END
>  <MODEL>
8

>  <REMARK>
 VINA RESULT:      -3.7      2.551      6.563
  Name = 
  16 active torsions:
  status: ('A' for Active; 'I' for Inactive)
    1  A    between atoms: C_2  and  C_24
    2  A    between atoms: N_5  and  C_40
    3  A    between atoms: N_5  and  C_51
    4  A    between atoms: N_13  and  C_29
    5  A    between atoms: N_13  and  C_45
    6  A    between atoms: C_17  and  C_56
    7  A    between atoms: O_20  and  C_26
    8  A    between atoms: O_20  and  C_48
    9  A    between atoms: C_22  and  C_26
   10  A    between atoms: C_22  and  C_31
   11  A    between atoms: C_23  and  C_61
   12  A    between atoms: C_29  and  C_61
   13  A    between atoms: C_31  and  C_54
   14  A    between atoms: C_44  and  C_64
   15  A    between atoms: C_50  and  C_63
   16  A    between atoms: C_56  and  C_64
                            x       y       z     vdW  Elec       q    Type
                         _______ _______ _______ _____ _____    ______ ____

>  <TORSDO>
F 16

$$$$
