=
 OpenBabel11062421423D

 41 45  0  0  1  0  0  0  0  0999 V2000
  191.1310  175.2880  148.3890 N   0  0  0  0  0  2  0  0  0  0  0  0
  190.7680  175.7130  147.2350 C   0  0  0  0  0  0  0  0  0  0  0  0
  189.4810  175.2060  146.6260 C   0  0  1  0  0  0  0  0  0  0  0  0
  189.7050  174.0390  145.8900 O   0  0  0  0  0  1  0  0  0  0  0  0
  188.6020  174.9100  147.6540 F   0  0  0  0  0  0  0  0  0  0  0  0
  188.8430  176.2780  145.7330 C   0  0  2  0  0  3  0  0  0  0  0  0
  188.0440  177.1400  146.4670 F   0  0  0  0  0  0  0  0  0  0  0  0
  188.1170  175.7260  144.4990 C   0  0  0  0  0  2  0  0  0  0  0  0
  188.9710  177.5920  143.1680 C   0  0  0  0  0  2  0  0  0  0  0  0
  187.9900  176.7130  143.3710 C   0  0  0  0  0  0  0  0  0  0  0  0
  186.7080  177.8300  141.5060 C   0  0  0  0  0  0  0  0  0  0  0  0
  185.7270  177.9670  140.3310 C   0  0  0  0  0  2  0  0  0  0  0  0
  185.6580  177.3520  142.5270 C   0  0  1  0  0  3  0  0  0  0  0  0
  186.9470  177.1740  140.1370 C   0  0  0  0  0  2  0  0  0  0  0  0
  186.9060  176.5430  142.3310 C   0  0  2  0  0  3  0  0  0  0  0  0
  185.9280  179.4290  143.6690 O   0  0  0  0  0  0  0  0  0  0  0  0
  185.6090  178.2520  143.7520 C   0  0  0  0  0  0  0  0  0  0  0  0
  185.1210  177.7430  145.0790 C   0  0  0  0  0  2  0  0  0  0  0  0
  184.5250  178.3030  147.4110 C   0  0  0  0  0  2  0  0  0  0  0  0
  185.6950  179.1730  147.0110 C   0  0  0  0  0  2  0  0  0  0  0  0
  184.6170  178.8430  145.9990 C   0  0  0  0  0  3  0  0  0  0  0  0
  191.7080  176.5830  146.4520 C   0  0  0  0  0  2  0  0  0  0  0  0
  193.7240  175.1680  143.4660 C   0  0  1  0  0  3  0  0  0  0  0  0
  195.2050  175.2850  145.5250 C   0  0  0  0  0  2  0  0  0  0  0  0
  192.6370  175.9420  144.2340 C   0  0  0  0  0  2  0  0  0  0  0  0
  195.1310  175.4660  144.0100 C   0  0  0  0  0  2  0  0  0  0  0  0
  192.7620  175.7490  145.7450 C   0  0  1  0  0  3  0  0  0  0  0  0
  194.1570  176.1530  146.2100 C   0  0  0  0  0  2  0  0  0  0  0  0
  193.6900  173.3110  141.7590 C   0  0  0  0  0  1  0  0  0  0  0  0
  193.7260  171.7050  144.8430 C   0  0  0  0  0  2  0  0  0  0  0  0
  191.6780  172.0630  143.4850 C   0  0  2  0  0  3  0  0  0  0  0  0
  193.4340  173.6680  143.2250 C   0  0  2  0  0  0  0  0  0  0  0  0
  192.0720  173.4320  143.5740 O   0  0  0  0  0  0  0  0  0  0  0  0
  192.7410  171.0420  143.9090 C   0  0  0  0  0  2  0  0  0  0  0  0
  194.4020  172.8570  144.1130 C   0  0  0  0  0  2  0  0  0  0  0  0
  191.3270  170.8010  141.5310 O   0  0  0  0  0  0  0  0  0  0  0  0
  190.9650  171.7620  142.1900 C   0  0  0  0  0  0  0  0  0  0  0  0
  189.2120  172.2760  140.0020 O   0  0  0  0  0  0  0  0  0  0  0  0
  188.4280  172.6870  142.4620 O   0  0  0  0  0  1  0  0  0  0  0  0
  190.1350  174.4090  141.4890 O   0  0  0  0  0  1  0  0  0  0  0  0
  189.6330  172.7960  141.5550 P   0  0  0  0  0  0  0  0  0  0  0  0
  2  1  2  0  0  0  0
  3  4  1  6  0  0  0
  3  2  1  0  0  0  0
  3  5  1  0  0  0  0
  6  7  1  1  0  0  0
  6  3  1  0  0  0  0
  8  6  1  0  0  0  0
  9 10  2  0  0  0  0
 10  8  1  0  0  0  0
 11 15  1  0  0  0  0
 11 13  1  0  0  0  0
 12 11  1  0  0  0  0
 13 17  1  1  0  0  0
 14 12  1  0  0  0  0
 14 11  1  0  0  0  0
 15 13  1  0  0  0  0
 15 10  1  1  0  0  0
 16 17  2  0  0  0  0
 17 18  1  0  0  0  0
 18 21  1  0  0  0  0
 20 19  1  0  0  0  0
 21 20  1  0  0  0  0
 21 19  1  0  0  0  0
 22  2  1  0  0  0  0
 23 26  1  1  0  0  0
 23 25  1  0  0  0  0
 24 28  1  0  0  0  0
 25 27  1  0  0  0  0
 26 24  1  0  0  0  0
 27 28  1  0  0  0  0
 27 22  1  1  0  0  0
 31 37  1  6  0  0  0
 31 33  1  0  0  0  0
 31 34  1  0  0  0  0
 32 29  1  6  0  0  0
 32 23  1  0  0  0  0
 32 33  1  0  0  0  0
 32 35  1  0  0  0  0
 34 30  1  0  0  0  0
 35 30  1  0  0  0  0
 36 37  2  0  0  0  0
 38 41  2  0  0  0  0
 40 41  1  0  0  0  0
 41 37  1  0  0  0  0
 41 39  1  0  0  0  0
M  END
>  <MODEL>
1

>  <REMARK>
 VINA RESULT:      -7.3      0.000      0.000
  Name = 
  13 active torsions:
  status: ('A' for Active; 'I' for Inactive)
    1  A    between atoms: C_4  and  C_24
    2  A    between atoms: C_6  and  C_16
    3  A    between atoms: C_6  and  C_34
    4  A    between atoms: C_10  and  C_30
    5  A    between atoms: C_16  and  C_27
    6  A    between atoms: C_19  and  C_32
    7  A    between atoms: C_19  and  C_34
    8  A    between atoms: C_20  and  C_21
    9  A    between atoms: C_20  and  C_25
   10  A    between atoms: C_21  and  C_29
   11  A    between atoms: C_27  and  C_36
   12  A    between atoms: C_30  and  P_40
   13  A    between atoms: C_36  and  C_37
                            x       y       z     vdW  Elec       q    Type
                         _______ _______ _______ _____ _____    ______ ____

>  <TORSDO>
F 13

$$$$
=
 OpenBabel11062421423D

 41 45  0  0  1  0  0  0  0  0999 V2000
  188.8440  175.4020  146.5070 N   0  0  0  0  0  2  0  0  0  0  0  0
  189.9990  174.9370  146.1970 C   0  0  0  0  0  0  0  0  0  0  0  0
  191.2330  175.5060  146.8590 C   0  0  1  0  0  0  0  0  0  0  0  0
  190.9240  176.0300  148.1180 O   0  0  0  0  0  1  0  0  0  0  0  0
  192.1470  174.4800  147.0280 F   0  0  0  0  0  0  0  0  0  0  0  0
  191.8700  176.5890  145.9790 C   0  0  2  0  0  3  0  0  0  0  0  0
  190.9160  177.4540  145.4690 F   0  0  0  0  0  0  0  0  0  0  0  0
  192.8050  176.0500  144.8870 C   0  0  0  0  0  2  0  0  0  0  0  0
  194.8200  176.8650  146.0090 C   0  0  0  0  0  2  0  0  0  0  0  0
  194.2310  175.8780  145.3340 C   0  0  0  0  0  0  0  0  0  0  0  0
  196.4020  174.6460  144.9530 C   0  0  0  0  0  0  0  0  0  0  0  0
  197.3730  173.4590  144.8690 C   0  0  0  0  0  2  0  0  0  0  0  0
  195.4090  174.1080  143.9060 C   0  0  1  0  0  3  0  0  0  0  0  0
  196.8700  173.8620  146.1890 C   0  0  0  0  0  2  0  0  0  0  0  0
  194.8950  174.5220  145.2530 C   0  0  2  0  0  3  0  0  0  0  0  0
  196.0610  175.9180  142.4960 O   0  0  0  0  0  0  0  0  0  0  0  0
  195.2040  175.0890  142.7620 C   0  0  0  0  0  0  0  0  0  0  0  0
  193.9770  175.0370  141.8970 C   0  0  0  0  0  2  0  0  0  0  0  0
  192.3960  173.1390  141.9900 C   0  0  0  0  0  2  0  0  0  0  0  0
  192.3770  173.6890  140.5810 C   0  0  0  0  0  2  0  0  0  0  0  0
  193.6760  173.6470  141.3590 C   0  0  0  0  0  3  0  0  0  0  0  0
  190.1060  173.9490  145.0720 C   0  0  0  0  0  2  0  0  0  0  0  0
  189.0230  175.8110  141.8560 C   0  0  1  0  0  3  0  0  0  0  0  0
  187.9540  173.5090  141.9170 C   0  0  0  0  0  2  0  0  0  0  0  0
  189.8720  175.4230  143.0810 C   0  0  0  0  0  2  0  0  0  0  0  0
  188.6000  174.5790  141.0400 C   0  0  0  0  0  2  0  0  0  0  0  0
  189.1980  174.3360  143.9180 C   0  0  1  0  0  3  0  0  0  0  0  0
  188.8960  173.1190  143.0490 C   0  0  0  0  0  2  0  0  0  0  0  0
  188.3470  177.8800  143.1310 C   0  0  0  0  0  1  0  0  0  0  0  0
  186.0620  177.6380  140.5210 C   0  0  0  0  0  2  0  0  0  0  0  0
  185.6040  176.8890  142.8440 C   0  0  2  0  0  3  0  0  0  0  0  0
  187.8850  176.8250  142.1240 C   0  0  2  0  0  0  0  0  0  0  0  0
  186.7690  176.0950  142.6290 O   0  0  0  0  0  0  0  0  0  0  0  0
  185.3610  177.9970  141.8100 C   0  0  0  0  0  2  0  0  0  0  0  0
  187.5570  177.5210  140.7860 C   0  0  0  0  0  2  0  0  0  0  0  0
  185.8920  176.5630  145.1560 O   0  0  0  0  0  0  0  0  0  0  0  0
  185.4580  177.3020  144.2880 C   0  0  0  0  0  0  0  0  0  0  0  0
  185.6460  180.1380  144.5040 O   0  0  0  0  0  1  0  0  0  0  0  0
  183.3580  178.9910  143.9690 O   0  0  0  0  0  0  0  0  0  0  0  0
  184.2240  178.7550  146.4220 O   0  0  0  0  0  1  0  0  0  0  0  0
  184.6230  178.8200  144.7800 P   0  0  0  0  0  0  0  0  0  0  0  0
  2  1  2  0  0  0  0
  2  3  1  0  0  0  0
  3  5  1  1  0  0  0
  3  4  1  0  0  0  0
  6  7  1  6  0  0  0
  6  3  1  0  0  0  0
  8 10  1  0  0  0  0
  8  6  1  0  0  0  0
 10  9  2  0  0  0  0
 11 15  1  0  0  0  0
 11 14  1  0  0  0  0
 12 11  1  0  0  0  0
 12 14  1  0  0  0  0
 13 17  1  6  0  0  0
 13 11  1  0  0  0  0
 13 15  1  0  0  0  0
 15 10  1  6  0  0  0
 16 17  2  0  0  0  0
 18 17  1  0  0  0  0
 20 21  1  0  0  0  0
 20 19  1  0  0  0  0
 21 18  1  0  0  0  0
 21 19  1  0  0  0  0
 22  2  1  0  0  0  0
 23 26  1  1  0  0  0
 23 32  1  0  0  0  0
 23 25  1  0  0  0  0
 24 28  1  0  0  0  0
 25 27  1  0  0  0  0
 26 24  1  0  0  0  0
 27 22  1  1  0  0  0
 28 27  1  0  0  0  0
 30 35  1  0  0  0  0
 30 34  1  0  0  0  0
 31 37  1  1  0  0  0
 32 33  1  0  0  0  0
 32 29  1  1  0  0  0
 33 31  1  0  0  0  0
 34 31  1  0  0  0  0
 35 32  1  0  0  0  0
 37 41  1  0  0  0  0
 37 36  2  0  0  0  0
 38 41  1  0  0  0  0
 39 41  2  0  0  0  0
 41 40  1  0  0  0  0
M  END
>  <MODEL>
2

>  <REMARK>
 VINA RESULT:      -7.3      2.828      8.028
  Name = 
  13 active torsions:
  status: ('A' for Active; 'I' for Inactive)
    1  A    between atoms: C_4  and  C_24
    2  A    between atoms: C_6  and  C_16
    3  A    between atoms: C_6  and  C_34
    4  A    between atoms: C_10  and  C_30
    5  A    between atoms: C_16  and  C_27
    6  A    between atoms: C_19  and  C_32
    7  A    between atoms: C_19  and  C_34
    8  A    between atoms: C_20  and  C_21
    9  A    between atoms: C_20  and  C_25
   10  A    between atoms: C_21  and  C_29
   11  A    between atoms: C_27  and  C_36
   12  A    between atoms: C_30  and  P_40
   13  A    between atoms: C_36  and  C_37
                            x       y       z     vdW  Elec       q    Type
                         _______ _______ _______ _____ _____    ______ ____

>  <TORSDO>
F 13

$$$$
=
 OpenBabel11062421423D

 41 45  0  0  1  0  0  0  0  0999 V2000
  188.5760  172.9560  142.3930 N   0  0  0  0  0  2  0  0  0  0  0  0
  189.7070  173.2830  142.9030 C   0  0  0  0  0  0  0  0  0  0  0  0
  190.9750  173.0400  142.1180 C   0  0  1  0  0  0  0  0  0  0  0  0
  190.7480  172.1390  141.0740 O   0  0  0  0  0  1  0  0  0  0  0  0
  191.3850  174.2440  141.5710 F   0  0  0  0  0  0  0  0  0  0  0  0
  192.0890  172.5160  143.0340 C   0  0  2  0  0  3  0  0  0  0  0  0
  191.5720  171.7930  144.0970 F   0  0  0  0  0  0  0  0  0  0  0  0
  193.0880  173.5870  143.4940 C   0  0  0  0  0  2  0  0  0  0  0  0
  194.8970  172.1940  144.3720 C   0  0  0  0  0  2  0  0  0  0  0  0
  193.9900  173.1410  144.6120 C   0  0  0  0  0  0  0  0  0  0  0  0
  193.5860  175.3840  145.6970 C   0  0  0  0  0  0  0  0  0  0  0  0
  193.4700  176.4260  146.8200 C   0  0  0  0  0  2  0  0  0  0  0  0
  195.0610  175.0320  145.9650 C   0  0  1  0  0  3  0  0  0  0  0  0
  192.4770  175.3460  146.7590 C   0  0  0  0  0  2  0  0  0  0  0  0
  194.0480  173.9290  145.9010 C   0  0  2  0  0  3  0  0  0  0  0  0
  196.9540  174.5960  144.5810 O   0  0  0  0  0  0  0  0  0  0  0  0
  195.9280  175.2410  144.7340 C   0  0  0  0  0  0  0  0  0  0  0  0
  195.5280  176.2010  143.6480 C   0  0  0  0  0  2  0  0  0  0  0  0
  194.6690  176.1840  141.3310 C   0  0  0  0  0  2  0  0  0  0  0  0
  196.0470  176.8070  141.3090 C   0  0  0  0  0  2  0  0  0  0  0  0
  195.7530  175.6540  142.2470 C   0  0  0  0  0  3  0  0  0  0  0  0
  189.7530  173.7540  144.3270 C   0  0  0  0  0  2  0  0  0  0  0  0
  188.5580  177.0090  146.0490 C   0  0  1  0  0  3  0  0  0  0  0  0
  190.0700  177.5780  144.0900 C   0  0  0  0  0  2  0  0  0  0  0  0
  188.9230  175.5240  145.8680 C   0  0  0  0  0  2  0  0  0  0  0  0
  189.6610  177.9380  145.5170 C   0  0  0  0  0  2  0  0  0  0  0  0
  189.3440  175.2140  144.4320 C   0  0  1  0  0  3  0  0  0  0  0  0
  190.5010  176.1190  144.0190 C   0  0  0  0  0  2  0  0  0  0  0  0
  186.3420  176.1600  145.1930 C   0  0  0  0  0  1  0  0  0  0  0  0
  185.6600  179.3050  146.5100 C   0  0  0  0  0  2  0  0  0  0  0  0
  185.9910  178.8520  144.0910 C   0  0  2  0  0  3  0  0  0  0  0  0
  187.1250  177.4030  145.6210 C   0  0  2  0  0  0  0  0  0  0  0  0
  187.2390  178.3280  144.5410 O   0  0  0  0  0  0  0  0  0  0  0  0
  184.9520  179.1160  145.1890 C   0  0  0  0  0  2  0  0  0  0  0  0
  186.4300  178.0350  146.8450 C   0  0  0  0  0  2  0  0  0  0  0  0
  184.2860  177.8820  142.7920 O   0  0  0  0  0  0  0  0  0  0  0  0
  185.4780  178.1280  142.8700 C   0  0  0  0  0  0  0  0  0  0  0  0
  187.0130  175.9620  141.8330 O   0  0  0  0  0  1  0  0  0  0  0  0
  185.8470  177.6600  140.2230 O   0  0  0  0  0  0  0  0  0  0  0  0
  187.9540  178.5340  141.4960 O   0  0  0  0  0  1  0  0  0  0  0  0
  186.5670  177.5690  141.5490 P   0  0  0  0  0  0  0  0  0  0  0  0
  1  2  2  0  0  0  0
  2 22  1  0  0  0  0
  3  4  1  6  0  0  0
  3  2  1  0  0  0  0
  3  6  1  0  0  0  0
  5  3  1  0  0  0  0
  6  8  1  0  0  0  0
  6  7  1  1  0  0  0
  8 10  1  0  0  0  0
  9 10  2  0  0  0  0
 11 15  1  0  0  0  0
 11 13  1  0  0  0  0
 11 14  1  0  0  0  0
 11 12  1  0  0  0  0
 13 17  1  6  0  0  0
 14 12  1  0  0  0  0
 15 10  1  6  0  0  0
 15 13  1  0  0  0  0
 16 17  2  0  0  0  0
 18 17  1  0  0  0  0
 19 21  1  0  0  0  0
 20 19  1  0  0  0  0
 20 21  1  0  0  0  0
 21 18  1  0  0  0  0
 23 26  1  6  0  0  0
 24 26  1  0  0  0  0
 25 23  1  0  0  0  0
 27 22  1  1  0  0  0
 27 25  1  0  0  0  0
 28 24  1  0  0  0  0
 28 27  1  0  0  0  0
 30 35  1  0  0  0  0
 31 37  1  6  0  0  0
 31 33  1  0  0  0  0
 31 34  1  0  0  0  0
 32 29  1  6  0  0  0
 32 23  1  0  0  0  0
 32 35  1  0  0  0  0
 33 32  1  0  0  0  0
 34 30  1  0  0  0  0
 36 37  2  0  0  0  0
 39 41  2  0  0  0  0
 40 41  1  0  0  0  0
 41 38  1  0  0  0  0
 41 37  1  0  0  0  0
M  END
>  <MODEL>
3

>  <REMARK>
 VINA RESULT:      -7.2      2.699      8.131
  Name = 
  13 active torsions:
  status: ('A' for Active; 'I' for Inactive)
    1  A    between atoms: C_4  and  C_24
    2  A    between atoms: C_6  and  C_16
    3  A    between atoms: C_6  and  C_34
    4  A    between atoms: C_10  and  C_30
    5  A    between atoms: C_16  and  C_27
    6  A    between atoms: C_19  and  C_32
    7  A    between atoms: C_19  and  C_34
    8  A    between atoms: C_20  and  C_21
    9  A    between atoms: C_20  and  C_25
   10  A    between atoms: C_21  and  C_29
   11  A    between atoms: C_27  and  C_36
   12  A    between atoms: C_30  and  P_40
   13  A    between atoms: C_36  and  C_37
                            x       y       z     vdW  Elec       q    Type
                         _______ _______ _______ _____ _____    ______ ____

>  <TORSDO>
F 13

$$$$
=
 OpenBabel11062421423D

 41 45  0  0  1  0  0  0  0  0999 V2000
  190.9240  173.4380  140.1340 N   0  0  0  0  0  2  0  0  0  0  0  0
  190.2880  172.5880  140.8550 C   0  0  0  0  0  0  0  0  0  0  0  0
  188.8620  172.8770  141.2630 C   0  0  1  0  0  0  0  0  0  0  0  0
  188.0020  172.7830  140.1650 O   0  0  0  0  0  1  0  0  0  0  0  0
  188.4780  171.9320  142.1980 F   0  0  0  0  0  0  0  0  0  0  0  0
  188.7520  174.2680  141.9010 C   0  0  2  0  0  3  0  0  0  0  0  0
  189.7300  174.4630  142.8630 F   0  0  0  0  0  0  0  0  0  0  0  0
  187.3510  174.6180  142.4210 C   0  0  0  0  0  2  0  0  0  0  0  0
  187.4950  176.8020  141.3300 C   0  0  0  0  0  2  0  0  0  0  0  0
  187.0190  176.0830  142.3450 C   0  0  0  0  0  0  0  0  0  0  0  0
  186.2130  178.1640  143.5260 C   0  0  0  0  0  0  0  0  0  0  0  0
  185.2860  179.0650  144.3550 C   0  0  0  0  0  2  0  0  0  0  0  0
  186.4030  177.0930  144.6160 C   0  0  1  0  0  3  0  0  0  0  0  0
  184.8480  178.6510  143.0170 C   0  0  0  0  0  2  0  0  0  0  0  0
  185.9580  176.6690  143.2490 C   0  0  2  0  0  3  0  0  0  0  0  0
  188.2260  175.8970  145.5830 O   0  0  0  0  0  0  0  0  0  0  0  0
  187.8700  176.8840  144.9560 C   0  0  0  0  0  0  0  0  0  0  0  0
  188.9270  177.8450  144.4910 C   0  0  0  0  0  2  0  0  0  0  0  0
  190.7490  177.5570  142.8450 C   0  0  0  0  0  2  0  0  0  0  0  0
  191.3240  178.2610  144.0540 C   0  0  0  0  0  2  0  0  0  0  0  0
  190.2730  177.1850  144.2350 C   0  0  0  0  0  3  0  0  0  0  0  0
  191.0280  171.4030  141.4030 C   0  0  0  0  0  2  0  0  0  0  0  0
  192.5870  172.3060  144.8290 C   0  0  1  0  0  3  0  0  0  0  0  0
  194.3640  171.3130  143.3120 C   0  0  0  0  0  2  0  0  0  0  0  0
  191.5200  171.9300  143.7850 C   0  0  0  0  0  2  0  0  0  0  0  0
  193.8220  171.3960  144.7370 C   0  0  0  0  0  2  0  0  0  0  0  0
  192.1090  171.8380  142.3780 C   0  0  1  0  0  3  0  0  0  0  0  0
  193.2690  170.8480  142.3600 C   0  0  0  0  0  2  0  0  0  0  0  0
  192.8350  174.4750  143.5670 C   0  0  0  0  0  1  0  0  0  0  0  0
  192.4260  175.4050  146.8920 C   0  0  0  0  0  2  0  0  0  0  0  0
  194.6240  175.2790  145.7430 C   0  0  2  0  0  3  0  0  0  0  0  0
  192.9080  173.8140  144.9450 C   0  0  2  0  0  0  0  0  0  0  0  0
  194.2190  173.9340  145.4950 O   0  0  0  0  0  0  0  0  0  0  0  0
  193.5200  176.2200  146.2420 C   0  0  0  0  0  2  0  0  0  0  0  0
  191.8410  174.4500  145.8610 C   0  0  0  0  0  2  0  0  0  0  0  0
  195.2720  176.9470  144.2160 O   0  0  0  0  0  0  0  0  0  0  0  0
  195.4920  175.8220  144.6350 C   0  0  0  0  0  0  0  0  0  0  0  0
  196.1990  174.0680  142.5040 O   0  0  0  0  0  0  0  0  0  0  0  0
  197.9380  175.7700  143.4610 O   0  0  0  0  0  1  0  0  0  0  0  0
  197.3890  173.7070  144.9670 O   0  0  0  0  0  1  0  0  0  0  0  0
  196.8060  174.8550  143.8720 P   0  0  0  0  0  0  0  0  0  0  0  0
  1  2  2  0  0  0  0
  2  3  1  0  0  0  0
  2 22  1  0  0  0  0
  3  4  1  6  0  0  0
  3  6  1  0  0  0  0
  3  5  1  0  0  0  0
  6  8  1  0  0  0  0
  6  7  1  1  0  0  0
  9 10  2  0  0  0  0
 10  8  1  0  0  0  0
 11 12  1  0  0  0  0
 11 13  1  0  0  0  0
 13 17  1  6  0  0  0
 14 11  1  0  0  0  0
 14 12  1  0  0  0  0
 15 10  1  6  0  0  0
 15 11  1  0  0  0  0
 15 13  1  0  0  0  0
 17 16  2  0  0  0  0
 18 17  1  0  0  0  0
 19 20  1  0  0  0  0
 19 21  1  0  0  0  0
 20 21  1  0  0  0  0
 21 18  1  0  0  0  0
 23 25  1  6  0  0  0
 23 32  1  0  0  0  0
 24 26  1  0  0  0  0
 26 23  1  0  0  0  0
 27 22  1  6  0  0  0
 27 25  1  0  0  0  0
 28 27  1  0  0  0  0
 28 24  1  0  0  0  0
 31 37  1  6  0  0  0
 31 34  1  0  0  0  0
 32 29  1  6  0  0  0
 32 33  1  0  0  0  0
 32 35  1  0  0  0  0
 33 31  1  0  0  0  0
 34 30  1  0  0  0  0
 35 30  1  0  0  0  0
 36 37  2  0  0  0  0
 38 41  2  0  0  0  0
 39 41  1  0  0  0  0
 41 37  1  0  0  0  0
 41 40  1  0  0  0  0
M  END
>  <MODEL>
4

>  <REMARK>
 VINA RESULT:      -7.2      3.076      5.420
  Name = 
  13 active torsions:
  status: ('A' for Active; 'I' for Inactive)
    1  A    between atoms: C_4  and  C_24
    2  A    between atoms: C_6  and  C_16
    3  A    between atoms: C_6  and  C_34
    4  A    between atoms: C_10  and  C_30
    5  A    between atoms: C_16  and  C_27
    6  A    between atoms: C_19  and  C_32
    7  A    between atoms: C_19  and  C_34
    8  A    between atoms: C_20  and  C_21
    9  A    between atoms: C_20  and  C_25
   10  A    between atoms: C_21  and  C_29
   11  A    between atoms: C_27  and  C_36
   12  A    between atoms: C_30  and  P_40
   13  A    between atoms: C_36  and  C_37
                            x       y       z     vdW  Elec       q    Type
                         _______ _______ _______ _____ _____    ______ ____

>  <TORSDO>
F 13

$$$$
=
 OpenBabel11062421423D

 41 45  0  0  1  0  0  0  0  0999 V2000
  190.8700  174.0790  145.4760 N   0  0  0  0  0  2  0  0  0  0  0  0
  191.2110  175.1670  146.0620 C   0  0  0  0  0  0  0  0  0  0  0  0
  190.3010  175.7650  147.1100 C   0  0  1  0  0  0  0  0  0  0  0  0
  189.2060  174.9300  147.3510 O   0  0  0  0  0  1  0  0  0  0  0  0
  191.0180  175.8900  148.2880 F   0  0  0  0  0  0  0  0  0  0  0  0
  189.8190  177.1560  146.6810 C   0  0  2  0  0  3  0  0  0  0  0  0
  189.6680  177.9980  147.7720 F   0  0  0  0  0  0  0  0  0  0  0  0
  188.5760  177.1470  145.7800 C   0  0  0  0  0  2  0  0  0  0  0  0
  189.7340  177.9180  143.7690 C   0  0  0  0  0  2  0  0  0  0  0  0
  188.8860  177.0460  144.3130 C   0  0  0  0  0  0  0  0  0  0  0  0
  188.5050  176.0860  142.0090 C   0  0  0  0  0  0  0  0  0  0  0  0
  188.1890  175.0320  140.9360 C   0  0  0  0  0  2  0  0  0  0  0  0
  187.1700  175.9440  142.7630 C   0  0  1  0  0  3  0  0  0  0  0  0
  189.4470  174.9160  141.6840 C   0  0  0  0  0  2  0  0  0  0  0  0
  188.4550  175.8270  143.5270 C   0  0  2  0  0  3  0  0  0  0  0  0
  186.7260  178.1990  142.1270 O   0  0  0  0  0  0  0  0  0  0  0  0
  186.4310  177.2680  142.8620 C   0  0  0  0  0  0  0  0  0  0  0  0
  185.2890  177.4590  143.8200 C   0  0  0  0  0  2  0  0  0  0  0  0
  184.3610  179.0510  145.4670 C   0  0  0  0  0  2  0  0  0  0  0  0
  185.8080  179.4220  145.2280 C   0  0  0  0  0  2  0  0  0  0  0  0
  184.9560  178.9200  144.0800 C   0  0  0  0  0  3  0  0  0  0  0  0
  192.4290  175.9010  145.5810 C   0  0  0  0  0  2  0  0  0  0  0  0
  195.1400  173.8670  143.7120 C   0  0  1  0  0  3  0  0  0  0  0  0
  195.9980  174.5360  146.0060 C   0  0  0  0  0  2  0  0  0  0  0  0
  193.9120  174.7680  143.9350 C   0  0  0  0  0  2  0  0  0  0  0  0
  196.3510  174.3380  144.5330 C   0  0  0  0  0  2  0  0  0  0  0  0
  193.6070  174.9560  145.4200 C   0  0  1  0  0  3  0  0  0  0  0  0
  194.8330  175.5090  146.1400 C   0  0  0  0  0  2  0  0  0  0  0  0
  195.1670  171.7020  142.4170 C   0  0  0  0  0  1  0  0  0  0  0  0
  195.1560  170.7560  145.7630 C   0  0  0  0  0  2  0  0  0  0  0  0
  193.1340  170.7970  144.3220 C   0  0  2  0  0  3  0  0  0  0  0  0
  194.8750  172.3450  143.7750 C   0  0  2  0  0  0  0  0  0  0  0  0
  193.5080  172.1610  144.1390 O   0  0  0  0  0  0  0  0  0  0  0  0
  194.2000  169.9000  144.9650 C   0  0  0  0  0  2  0  0  0  0  0  0
  195.8330  171.7470  144.8270 C   0  0  0  0  0  2  0  0  0  0  0  0
  192.7880  169.1230  142.7060 O   0  0  0  0  0  0  0  0  0  0  0  0
  192.4530  170.2270  143.1020 C   0  0  0  0  0  0  0  0  0  0  0  0
  190.5010  170.1130  141.0290 O   0  0  0  0  0  0  0  0  0  0  0  0
  190.1310  171.6310  143.1250 O   0  0  0  0  0  1  0  0  0  0  0  0
  191.9070  172.4590  141.3970 O   0  0  0  0  0  1  0  0  0  0  0  0
  191.2010  171.1360  142.1790 P   0  0  0  0  0  0  0  0  0  0  0  0
  1  2  2  0  0  0  0
  2  3  1  0  0  0  0
  3  4  1  1  0  0  0
  3  5  1  0  0  0  0
  6  3  1  0  0  0  0
  6  7  1  1  0  0  0
  8  6  1  0  0  0  0
  9 10  2  0  0  0  0
 10  8  1  0  0  0  0
 11 13  1  0  0  0  0
 11 15  1  0  0  0  0
 12 14  1  0  0  0  0
 12 11  1  0  0  0  0
 13 17  1  1  0  0  0
 13 15  1  0  0  0  0
 14 11  1  0  0  0  0
 15 10  1  1  0  0  0
 16 17  2  0  0  0  0
 17 18  1  0  0  0  0
 18 21  1  0  0  0  0
 20 19  1  0  0  0  0
 21 20  1  0  0  0  0
 21 19  1  0  0  0  0
 22  2  1  0  0  0  0
 23 32  1  0  0  0  0
 23 25  1  1  0  0  0
 23 26  1  0  0  0  0
 24 28  1  0  0  0  0
 25 27  1  0  0  0  0
 26 24  1  0  0  0  0
 27 22  1  6  0  0  0
 27 28  1  0  0  0  0
 31 37  1  6  0  0  0
 31 34  1  0  0  0  0
 32 29  1  6  0  0  0
 32 33  1  0  0  0  0
 32 35  1  0  0  0  0
 33 31  1  0  0  0  0
 34 30  1  0  0  0  0
 35 30  1  0  0  0  0
 36 37  2  0  0  0  0
 38 41  2  0  0  0  0
 40 41  1  0  0  0  0
 41 37  1  0  0  0  0
 41 39  1  0  0  0  0
M  END
>  <MODEL>
5

>  <REMARK>
 VINA RESULT:      -7.0      1.711      2.115
  Name = 
  13 active torsions:
  status: ('A' for Active; 'I' for Inactive)
    1  A    between atoms: C_4  and  C_24
    2  A    between atoms: C_6  and  C_16
    3  A    between atoms: C_6  and  C_34
    4  A    between atoms: C_10  and  C_30
    5  A    between atoms: C_16  and  C_27
    6  A    between atoms: C_19  and  C_32
    7  A    between atoms: C_19  and  C_34
    8  A    between atoms: C_20  and  C_21
    9  A    between atoms: C_20  and  C_25
   10  A    between atoms: C_21  and  C_29
   11  A    between atoms: C_27  and  C_36
   12  A    between atoms: C_30  and  P_40
   13  A    between atoms: C_36  and  C_37
                            x       y       z     vdW  Elec       q    Type
                         _______ _______ _______ _____ _____    ______ ____

>  <TORSDO>
F 13

$$$$
=
 OpenBabel11062421423D

 41 45  0  0  1  0  0  0  0  0999 V2000
  189.1360  172.8990  142.7350 N   0  0  0  0  0  2  0  0  0  0  0  0
  190.0400  172.9590  143.6440 C   0  0  0  0  0  0  0  0  0  0  0  0
  191.3700  172.2790  143.4170 C   0  0  1  0  0  0  0  0  0  0  0  0
  191.9410  171.8880  144.6320 O   0  0  0  0  0  1  0  0  0  0  0  0
  191.1530  171.1440  142.6540 F   0  0  0  0  0  0  0  0  0  0  0  0
  192.3300  173.2030  142.6560 C   0  0  2  0  0  3  0  0  0  0  0  0
  192.3830  172.8790  141.3100 F   0  0  0  0  0  0  0  0  0  0  0  0
  193.7280  173.3170  143.2800 C   0  0  0  0  0  2  0  0  0  0  0  0
  193.8240  175.5980  142.4030 C   0  0  0  0  0  2  0  0  0  0  0  0
  194.4950  174.5330  142.8400 C   0  0  0  0  0  0  0  0  0  0  0  0
  196.3430  173.9520  144.4590 C   0  0  0  0  0  0  0  0  0  0  0  0
  197.7720  173.8330  145.0100 C   0  0  0  0  0  2  0  0  0  0  0  0
  196.3610  175.4850  144.3130 C   0  0  1  0  0  3  0  0  0  0  0  0
  197.3960  173.0100  143.8540 C   0  0  0  0  0  2  0  0  0  0  0  0
  195.9750  174.6450  143.1320 C   0  0  2  0  0  3  0  0  0  0  0  0
  194.8860  177.2860  144.8310 O   0  0  0  0  0  0  0  0  0  0  0  0
  195.2300  176.1420  145.0880 C   0  0  0  0  0  0  0  0  0  0  0  0
  194.4700  175.3950  146.1480 C   0  0  0  0  0  2  0  0  0  0  0  0
  192.3080  174.9140  147.2460 C   0  0  0  0  0  2  0  0  0  0  0  0
  192.4930  176.4150  147.2250 C   0  0  0  0  0  2  0  0  0  0  0  0
  192.9640  175.5790  146.0520 C   0  0  0  0  0  3  0  0  0  0  0  0
  189.6960  173.5710  144.9700 C   0  0  0  0  0  2  0  0  0  0  0  0
  188.6260  177.1210  146.0830 C   0  0  1  0  0  3  0  0  0  0  0  0
  189.8580  177.2500  143.8660 C   0  0  0  0  0  2  0  0  0  0  0  0
  189.0120  175.6340  146.1830 C   0  0  0  0  0  2  0  0  0  0  0  0
  189.6230  177.9140  145.2220 C   0  0  0  0  0  2  0  0  0  0  0  0
  189.2580  175.0170  144.8070 C   0  0  1  0  0  3  0  0  0  0  0  0
  190.3230  175.8120  144.0600 C   0  0  0  0  0  2  0  0  0  0  0  0
  186.4500  176.1340  145.2750 C   0  0  0  0  0  1  0  0  0  0  0  0
  185.5610  179.0740  146.9040 C   0  0  0  0  0  2  0  0  0  0  0  0
  185.7800  178.8610  144.4390 C   0  0  2  0  0  3  0  0  0  0  0  0
  187.1390  177.4070  145.7690 C   0  0  2  0  0  0  0  0  0  0  0  0
  187.0980  178.4260  144.7720 O   0  0  0  0  0  0  0  0  0  0  0  0
  184.7920  178.9280  145.6110 C   0  0  0  0  0  2  0  0  0  0  0  0
  186.4650  177.8620  147.0810 C   0  0  0  0  0  2  0  0  0  0  0  0
  184.0770  177.9150  143.1210 O   0  0  0  0  0  0  0  0  0  0  0  0
  185.2630  178.1950  143.1880 C   0  0  0  0  0  0  0  0  0  0  0  0
  185.4770  177.8880  140.3630 O   0  0  0  0  0  0  0  0  0  0  0  0
  187.5280  178.6820  141.7760 O   0  0  0  0  0  1  0  0  0  0  0  0
  186.8820  176.1610  141.9940 O   0  0  0  0  0  1  0  0  0  0  0  0
  186.3380  177.7510  141.8130 P   0  0  0  0  0  0  0  0  0  0  0  0
  1  2  2  0  0  0  0
  2 22  1  0  0  0  0
  3  5  1  6  0  0  0
  3  2  1  0  0  0  0
  3  4  1  0  0  0  0
  6  7  1  6  0  0  0
  6  8  1  0  0  0  0
  6  3  1  0  0  0  0
  9 10  2  0  0  0  0
 10  8  1  0  0  0  0
 11 12  1  0  0  0  0
 13 11  1  0  0  0  0
 13 17  1  1  0  0  0
 14 11  1  0  0  0  0
 14 12  1  0  0  0  0
 15 10  1  1  0  0  0
 15 13  1  0  0  0  0
 15 11  1  0  0  0  0
 16 17  2  0  0  0  0
 17 18  1  0  0  0  0
 20 19  1  0  0  0  0
 21 18  1  0  0  0  0
 21 20  1  0  0  0  0
 21 19  1  0  0  0  0
 23 26  1  6  0  0  0
 23 25  1  0  0  0  0
 24 28  1  0  0  0  0
 24 26  1  0  0  0  0
 27 22  1  1  0  0  0
 27 25  1  0  0  0  0
 28 27  1  0  0  0  0
 30 35  1  0  0  0  0
 31 37  1  6  0  0  0
 31 33  1  0  0  0  0
 31 34  1  0  0  0  0
 32 29  1  6  0  0  0
 32 23  1  0  0  0  0
 32 35  1  0  0  0  0
 33 32  1  0  0  0  0
 34 30  1  0  0  0  0
 36 37  2  0  0  0  0
 38 41  2  0  0  0  0
 39 41  1  0  0  0  0
 41 40  1  0  0  0  0
 41 37  1  0  0  0  0
M  END
>  <MODEL>
6

>  <REMARK>
 VINA RESULT:      -6.9      2.879      7.947
  Name = 
  13 active torsions:
  status: ('A' for Active; 'I' for Inactive)
    1  A    between atoms: C_4  and  C_24
    2  A    between atoms: C_6  and  C_16
    3  A    between atoms: C_6  and  C_34
    4  A    between atoms: C_10  and  C_30
    5  A    between atoms: C_16  and  C_27
    6  A    between atoms: C_19  and  C_32
    7  A    between atoms: C_19  and  C_34
    8  A    between atoms: C_20  and  C_21
    9  A    between atoms: C_20  and  C_25
   10  A    between atoms: C_21  and  C_29
   11  A    between atoms: C_27  and  C_36
   12  A    between atoms: C_30  and  P_40
   13  A    between atoms: C_36  and  C_37
                            x       y       z     vdW  Elec       q    Type
                         _______ _______ _______ _____ _____    ______ ____

>  <TORSDO>
F 13

$$$$
=
 OpenBabel11062421423D

 41 45  0  0  1  0  0  0  0  0999 V2000
  191.6870  177.0000  144.8550 N   0  0  0  0  0  2  0  0  0  0  0  0
  191.9850  176.5860  146.0320 C   0  0  0  0  0  0  0  0  0  0  0  0
  190.8780  176.2770  147.0140 C   0  0  1  0  0  0  0  0  0  0  0  0
  190.6330  174.9020  147.0700 O   0  0  0  0  0  1  0  0  0  0  0  0
  191.2820  176.6980  148.2690 F   0  0  0  0  0  0  0  0  0  0  0  0
  189.5930  177.0260  146.6380 C   0  0  2  0  0  3  0  0  0  0  0  0
  189.2840  178.0030  147.5710 F   0  0  0  0  0  0  0  0  0  0  0  0
  188.3950  176.1170  146.3340 C   0  0  0  0  0  2  0  0  0  0  0  0
  185.9990  176.5470  146.5770 C   0  0  0  0  0  2  0  0  0  0  0  0
  187.1410  176.8610  145.9650 C   0  0  0  0  0  0  0  0  0  0  0  0
  185.9830  178.2570  144.2090 C   0  0  0  0  0  0  0  0  0  0  0  0
  185.7280  179.4470  143.2720 C   0  0  0  0  0  2  0  0  0  0  0  0
  187.3690  177.9050  143.6370 C   0  0  1  0  0  3  0  0  0  0  0  0
  185.5830  179.6500  144.7190 C   0  0  0  0  0  2  0  0  0  0  0  0
  187.2200  178.1090  145.1160 C   0  0  2  0  0  3  0  0  0  0  0  0
  186.4090  175.8080  143.0270 O   0  0  0  0  0  0  0  0  0  0  0  0
  187.4310  176.4670  143.1460 C   0  0  0  0  0  0  0  0  0  0  0  0
  188.7320  175.8320  142.7450 C   0  0  0  0  0  2  0  0  0  0  0  0
  190.0150  173.7710  142.2790 C   0  0  0  0  0  2  0  0  0  0  0  0
  189.8410  173.8800  143.7780 C   0  0  0  0  0  2  0  0  0  0  0  0
  188.7230  174.3150  142.8530 C   0  0  0  0  0  3  0  0  0  0  0  0
  193.4250  176.5690  146.4540 C   0  0  0  0  0  2  0  0  0  0  0  0
  196.0900  176.0200  143.7010 C   0  0  1  0  0  3  0  0  0  0  0  0
  195.9570  173.9680  145.1900 C   0  0  0  0  0  2  0  0  0  0  0  0
  195.1580  176.7600  144.6790 C   0  0  0  0  0  2  0  0  0  0  0  0
  196.8750  174.8980  144.3980 C   0  0  0  0  0  2  0  0  0  0  0  0
  194.2740  175.7920  145.4630 C   0  0  1  0  0  3  0  0  0  0  0  0
  195.1390  174.7700  146.1940 C   0  0  0  0  0  2  0  0  0  0  0  0
  193.9570  175.9150  142.3600 C   0  0  0  0  0  1  0  0  0  0  0  0
  196.5130  175.6590  140.0170 C   0  0  0  0  0  2  0  0  0  0  0  0
  195.2430  173.7200  140.9060 C   0  0  2  0  0  3  0  0  0  0  0  0
  195.4570  175.6170  142.3490 C   0  0  2  0  0  0  0  0  0  0  0  0
  195.6960  174.2230  142.1610 O   0  0  0  0  0  0  0  0  0  0  0  0
  195.4120  174.6700  139.7130 C   0  0  0  0  0  2  0  0  0  0  0  0
  196.1270  176.4670  141.2480 C   0  0  0  0  0  2  0  0  0  0  0  0
  193.0290  173.3340  140.2070 O   0  0  0  0  0  0  0  0  0  0  0  0
  193.8950  173.0490  141.0180 C   0  0  0  0  0  0  0  0  0  0  0  0
  192.1830  170.9340  141.8640 O   0  0  0  0  0  0  0  0  0  0  0  0
  194.6930  170.9900  142.5950 O   0  0  0  0  0  1  0  0  0  0  0  0
  193.1120  172.7200  143.7500 O   0  0  0  0  0  1  0  0  0  0  0  0
  193.5010  171.8830  142.3330 P   0  0  0  0  0  0  0  0  0  0  0  0
  1  2  2  0  0  0  0
  2 22  1  0  0  0  0
  2  3  1  0  0  0  0
  3  4  1  1  0  0  0
  3  5  1  0  0  0  0
  6  3  1  0  0  0  0
  6  7  1  1  0  0  0
  8  6  1  0  0  0  0
 10  8  1  0  0  0  0
 10  9  2  0  0  0  0
 11 14  1  0  0  0  0
 11 15  1  0  0  0  0
 12 11  1  0  0  0  0
 12 14  1  0  0  0  0
 13 17  1  1  0  0  0
 13 11  1  0  0  0  0
 13 15  1  0  0  0  0
 15 10  1  1  0  0  0
 16 17  2  0  0  0  0
 18 21  1  0  0  0  0
 18 17  1  0  0  0  0
 19 21  1  0  0  0  0
 19 20  1  0  0  0  0
 21 20  1  0  0  0  0
 23 26  1  1  0  0  0
 23 25  1  0  0  0  0
 24 28  1  0  0  0  0
 25 27  1  0  0  0  0
 26 24  1  0  0  0  0
 27 28  1  0  0  0  0
 27 22  1  1  0  0  0
 30 35  1  0  0  0  0
 31 37  1  1  0  0  0
 31 33  1  0  0  0  0
 32 29  1  1  0  0  0
 32 23  1  0  0  0  0
 33 32  1  0  0  0  0
 34 30  1  0  0  0  0
 34 31  1  0  0  0  0
 35 32  1  0  0  0  0
 36 37  2  0  0  0  0
 37 41  1  0  0  0  0
 38 41  2  0  0  0  0
 41 39  1  0  0  0  0
 41 40  1  0  0  0  0
M  END
>  <MODEL>
7

>  <REMARK>
 VINA RESULT:      -6.9      2.303      4.019
  Name = 
  13 active torsions:
  status: ('A' for Active; 'I' for Inactive)
    1  A    between atoms: C_4  and  C_24
    2  A    between atoms: C_6  and  C_16
    3  A    between atoms: C_6  and  C_34
    4  A    between atoms: C_10  and  C_30
    5  A    between atoms: C_16  and  C_27
    6  A    between atoms: C_19  and  C_32
    7  A    between atoms: C_19  and  C_34
    8  A    between atoms: C_20  and  C_21
    9  A    between atoms: C_20  and  C_25
   10  A    between atoms: C_21  and  C_29
   11  A    between atoms: C_27  and  C_36
   12  A    between atoms: C_30  and  P_40
   13  A    between atoms: C_36  and  C_37
                            x       y       z     vdW  Elec       q    Type
                         _______ _______ _______ _____ _____    ______ ____

>  <TORSDO>
F 13

$$$$
=
 OpenBabel11062421423D

 41 45  0  0  1  0  0  0  0  0999 V2000
  191.1530  172.5760  140.1610 N   0  0  0  0  0  2  0  0  0  0  0  0
  190.1310  172.5430  140.9360 C   0  0  0  0  0  0  0  0  0  0  0  0
  189.0030  173.5260  140.7210 C   0  0  1  0  0  0  0  0  0  0  0  0
  188.9700  173.9620  139.3930 O   0  0  0  0  0  1  0  0  0  0  0  0
  187.8090  172.8820  140.9960 F   0  0  0  0  0  0  0  0  0  0  0  0
  189.1410  174.7260  141.6670 C   0  0  2  0  0  3  0  0  0  0  0  0
  190.3470  174.6990  142.3470 F   0  0  0  0  0  0  0  0  0  0  0  0
  187.9480  174.9290  142.6120 C   0  0  0  0  0  2  0  0  0  0  0  0
  187.2320  176.8510  141.2800 C   0  0  0  0  0  2  0  0  0  0  0  0
  187.2840  176.2720  142.4790 C   0  0  0  0  0  0  0  0  0  0  0  0
  186.5880  178.3650  143.7060 C   0  0  0  0  0  0  0  0  0  0  0  0
  185.8320  179.2430  144.7150 C   0  0  0  0  0  2  0  0  0  0  0  0
  187.2300  177.4400  144.7570 C   0  0  1  0  0  3  0  0  0  0  0  0
  185.0810  178.6470  143.6020 C   0  0  0  0  0  2  0  0  0  0  0  0
  186.4650  176.8310  143.6200 C   0  0  2  0  0  3  0  0  0  0  0  0
  189.3180  178.1560  143.8530 O   0  0  0  0  0  0  0  0  0  0  0  0
  188.7460  177.4260  144.6500 C   0  0  0  0  0  0  0  0  0  0  0  0
  189.5870  176.5620  145.5460 C   0  0  0  0  0  2  0  0  0  0  0  0
  189.5080  174.1540  146.0990 C   0  0  0  0  0  2  0  0  0  0  0  0
  189.6250  174.9230  147.3960 C   0  0  0  0  0  2  0  0  0  0  0  0
  188.7920  175.4790  146.2600 C   0  0  0  0  0  3  0  0  0  0  0  0
  190.1530  171.6350  142.1300 C   0  0  0  0  0  2  0  0  0  0  0  0
  193.2030  171.7950  144.5100 C   0  0  1  0  0  3  0  0  0  0  0  0
  193.2830  169.6500  143.1540 C   0  0  0  0  0  2  0  0  0  0  0  0
  191.7930  172.0660  143.9520 C   0  0  0  0  0  2  0  0  0  0  0  0
  193.5360  170.2950  144.5150 C   0  0  0  0  0  2  0  0  0  0  0  0
  191.5770  171.3870  142.6010 C   0  0  1  0  0  3  0  0  0  0  0  0
  191.8420  169.8900  142.7200 C   0  0  0  0  0  2  0  0  0  0  0  0
  195.4310  172.8690  145.0030 C   0  0  0  0  0  1  0  0  0  0  0  0
  195.1360  172.9460  141.5400 C   0  0  0  0  0  2  0  0  0  0  0  0
  194.6490  174.8790  143.0200 C   0  0  2  0  0  3  0  0  0  0  0  0
  194.3270  172.7010  143.9570 C   0  0  2  0  0  0  0  0  0  0  0  0
  193.7440  173.9600  143.6280 O   0  0  0  0  0  0  0  0  0  0  0  0
  195.6710  174.2610  142.0580 C   0  0  0  0  0  2  0  0  0  0  0  0
  194.9200  172.0020  142.7150 C   0  0  0  0  0  2  0  0  0  0  0  0
  196.4030  176.1060  143.9970 O   0  0  0  0  0  0  0  0  0  0  0  0
  195.2060  175.8670  144.0150 C   0  0  0  0  0  0  0  0  0  0  0  0
  194.9660  178.0580  145.8220 O   0  0  0  0  0  1  0  0  0  0  0  0
  192.8520  177.0560  144.6550 O   0  0  0  0  0  0  0  0  0  0  0  0
  193.9160  175.6140  146.5560 O   0  0  0  0  0  1  0  0  0  0  0  0
  194.1820  176.6680  145.2610 P   0  0  0  0  0  0  0  0  0  0  0  0
  1  2  2  0  0  0  0
  2 22  1  0  0  0  0
  3  4  1  6  0  0  0
  3  2  1  0  0  0  0
  3  5  1  0  0  0  0
  3  6  1  0  0  0  0
  6  7  1  1  0  0  0
  6  8  1  0  0  0  0
  9 10  2  0  0  0  0
 10  8  1  0  0  0  0
 11 12  1  0  0  0  0
 11 13  1  0  0  0  0
 13 17  1  6  0  0  0
 14 11  1  0  0  0  0
 14 12  1  0  0  0  0
 15 10  1  6  0  0  0
 15 11  1  0  0  0  0
 15 13  1  0  0  0  0
 16 17  2  0  0  0  0
 17 18  1  0  0  0  0
 18 21  1  0  0  0  0
 19 21  1  0  0  0  0
 19 20  1  0  0  0  0
 21 20  1  0  0  0  0
 23 25  1  6  0  0  0
 23 26  1  0  0  0  0
 24 26  1  0  0  0  0
 27 22  1  1  0  0  0
 27 28  1  0  0  0  0
 27 25  1  0  0  0  0
 28 24  1  0  0  0  0
 30 34  1  0  0  0  0
 30 35  1  0  0  0  0
 31 33  1  0  0  0  0
 31 37  1  1  0  0  0
 32 23  1  0  0  0  0
 32 29  1  1  0  0  0
 33 32  1  0  0  0  0
 34 31  1  0  0  0  0
 35 32  1  0  0  0  0
 36 37  2  0  0  0  0
 37 41  1  0  0  0  0
 39 41  2  0  0  0  0
 41 38  1  0  0  0  0
 41 40  1  0  0  0  0
M  END
>  <MODEL>
8

>  <REMARK>
 VINA RESULT:      -6.8      3.028      5.321
  Name = 
  13 active torsions:
  status: ('A' for Active; 'I' for Inactive)
    1  A    between atoms: C_4  and  C_24
    2  A    between atoms: C_6  and  C_16
    3  A    between atoms: C_6  and  C_34
    4  A    between atoms: C_10  and  C_30
    5  A    between atoms: C_16  and  C_27
    6  A    between atoms: C_19  and  C_32
    7  A    between atoms: C_19  and  C_34
    8  A    between atoms: C_20  and  C_21
    9  A    between atoms: C_20  and  C_25
   10  A    between atoms: C_21  and  C_29
   11  A    between atoms: C_27  and  C_36
   12  A    between atoms: C_30  and  P_40
   13  A    between atoms: C_36  and  C_37
                            x       y       z     vdW  Elec       q    Type
                         _______ _______ _______ _____ _____    ______ ____

>  <TORSDO>
F 13

$$$$
=
 OpenBabel11062421423D

 41 45  0  0  1  0  0  0  0  0999 V2000
  190.5800  176.9420  147.7500 N   0  0  0  0  0  2  0  0  0  0  0  0
  190.5400  175.7160  147.3720 C   0  0  0  0  0  0  0  0  0  0  0  0
  189.2100  175.0820  147.0400 C   0  0  1  0  0  0  0  0  0  0  0  0
  189.3230  174.2420  145.9290 O   0  0  0  0  0  1  0  0  0  0  0  0
  188.8100  174.3190  148.1230 F   0  0  0  0  0  0  0  0  0  0  0  0
  188.1460  176.1570  146.7810 C   0  0  2  0  0  3  0  0  0  0  0  0
  187.0630  176.0140  147.6350 F   0  0  0  0  0  0  0  0  0  0  0  0
  187.7120  176.2810  145.3140 C   0  0  0  0  0  2  0  0  0  0  0  0
  189.2680  177.9110  144.3640 C   0  0  0  0  0  2  0  0  0  0  0  0
  188.0120  177.6200  144.6990 C   0  0  0  0  0  0  0  0  0  0  0  0
  185.6610  177.6850  143.7820 C   0  0  0  0  0  0  0  0  0  0  0  0
  184.3290  178.2890  143.3100 C   0  0  0  0  0  2  0  0  0  0  0  0
  186.5410  178.4430  142.7710 C   0  0  1  0  0  3  0  0  0  0  0  0
  184.6630  178.3560  144.7380 C   0  0  0  0  0  2  0  0  0  0  0  0
  186.8830  178.5100  144.2300 C   0  0  2  0  0  3  0  0  0  0  0  0
  188.2970  177.9170  141.2450 O   0  0  0  0  0  0  0  0  0  0  0  0
  187.3660  177.4950  141.9150 C   0  0  0  0  0  0  0  0  0  0  0  0
  187.1020  176.0160  141.9070 C   0  0  0  0  0  2  0  0  0  0  0  0
  189.1000  174.6390  142.3750 C   0  0  0  0  0  2  0  0  0  0  0  0
  188.0790  173.7560  141.6920 C   0  0  0  0  0  2  0  0  0  0  0  0
  188.2240  175.2060  141.2770 C   0  0  0  0  0  3  0  0  0  0  0  0
  191.7990  174.9010  147.4210 C   0  0  0  0  0  2  0  0  0  0  0  0
  193.1260  176.3540  144.0880 C   0  0  1  0  0  3  0  0  0  0  0  0
  194.5710  177.1620  146.0130 C   0  0  0  0  0  2  0  0  0  0  0  0
  192.1410  175.7570  145.1100 C   0  0  0  0  0  2  0  0  0  0  0  0
  193.9220  177.5290  144.6800 C   0  0  0  0  0  2  0  0  0  0  0  0
  192.8280  175.4250  146.4340 C   0  0  1  0  0  3  0  0  0  0  0  0
  193.5140  176.6670  146.9930 C   0  0  0  0  0  2  0  0  0  0  0  0
  193.1690  174.7440  142.1470 C   0  0  0  0  0  1  0  0  0  0  0  0
  196.5100  175.3330  142.9100 C   0  0  0  0  0  2  0  0  0  0  0  0
  195.2450  173.3300  143.6560 C   0  0  2  0  0  3  0  0  0  0  0  0
  193.9800  175.3310  143.3040 C   0  0  2  0  0  0  0  0  0  0  0  0
  194.3730  174.3090  144.2180 O   0  0  0  0  0  0  0  0  0  0  0  0
  196.2740  173.8630  142.6500 C   0  0  0  0  0  2  0  0  0  0  0  0
  195.1980  176.0840  142.7280 C   0  0  0  0  0  2  0  0  0  0  0  0
  194.6910  171.6460  142.1090 O   0  0  0  0  0  0  0  0  0  0  0  0
  194.5030  172.0870  143.2310 C   0  0  0  0  0  0  0  0  0  0  0  0
  192.7910  169.8310  143.5560 O   0  0  0  0  0  0  0  0  0  0  0  0
  193.9640  170.9220  145.6230 O   0  0  0  0  0  1  0  0  0  0  0  0
  191.9830  172.2650  144.5740 O   0  0  0  0  0  1  0  0  0  0  0  0
  193.3130  171.2580  144.3000 P   0  0  0  0  0  0  0  0  0  0  0  0
  2 22  1  0  0  0  0
  2  1  2  0  0  0  0
  3  4  1  6  0  0  0
  3  2  1  0  0  0  0
  3  5  1  0  0  0  0
  6  3  1  0  0  0  0
  6  7  1  1  0  0  0
  8  6  1  0  0  0  0
  9 10  2  0  0  0  0
 10  8  1  0  0  0  0
 11 15  1  0  0  0  0
 11 14  1  0  0  0  0
 12 11  1  0  0  0  0
 12 14  1  0  0  0  0
 13 17  1  6  0  0  0
 13 11  1  0  0  0  0
 13 15  1  0  0  0  0
 15 10  1  6  0  0  0
 16 17  2  0  0  0  0
 18 17  1  0  0  0  0
 20 19  1  0  0  0  0
 21 20  1  0  0  0  0
 21 18  1  0  0  0  0
 21 19  1  0  0  0  0
 23 26  1  1  0  0  0
 23 25  1  0  0  0  0
 24 28  1  0  0  0  0
 25 27  1  0  0  0  0
 26 24  1  0  0  0  0
 27 28  1  0  0  0  0
 27 22  1  1  0  0  0
 31 37  1  6  0  0  0
 31 33  1  0  0  0  0
 32 29  1  6  0  0  0
 32 23  1  0  0  0  0
 32 33  1  0  0  0  0
 34 30  1  0  0  0  0
 34 31  1  0  0  0  0
 35 30  1  0  0  0  0
 35 32  1  0  0  0  0
 36 37  2  0  0  0  0
 37 41  1  0  0  0  0
 38 41  2  0  0  0  0
 41 40  1  0  0  0  0
 41 39  1  0  0  0  0
M  END
>  <MODEL>
9

>  <REMARK>
 VINA RESULT:      -6.8      2.180      3.583
  Name = 
  13 active torsions:
  status: ('A' for Active; 'I' for Inactive)
    1  A    between atoms: C_4  and  C_24
    2  A    between atoms: C_6  and  C_16
    3  A    between atoms: C_6  and  C_34
    4  A    between atoms: C_10  and  C_30
    5  A    between atoms: C_16  and  C_27
    6  A    between atoms: C_19  and  C_32
    7  A    between atoms: C_19  and  C_34
    8  A    between atoms: C_20  and  C_21
    9  A    between atoms: C_20  and  C_25
   10  A    between atoms: C_21  and  C_29
   11  A    between atoms: C_27  and  C_36
   12  A    between atoms: C_30  and  P_40
   13  A    between atoms: C_36  and  C_37
                            x       y       z     vdW  Elec       q    Type
                         _______ _______ _______ _____ _____    ______ ____

>  <TORSDO>
F 13

$$$$
