=
 OpenBabel11062422553D

 29 33  0  0  1  0  0  0  0  0999 V2000
  188.4320  173.7250  142.0100 N   0  0  0  0  0  0  0  0  0  0  0  0
  188.1660  175.1170  142.1340 C   0  0  0  0  0  0  0  0  0  0  0  0
  187.5020  177.3400  141.5040 C   0  0  0  0  0  3  0  0  0  0  0  0
  188.9630  177.1460  143.4900 C   0  0  0  0  0  0  0  0  0  0  0  0
  188.1310  177.8810  142.5180 N   0  0  0  0  0  0  0  0  0  0  0  0
  189.4850  174.6550  143.8380 C   0  0  0  0  0  0  0  0  0  0  0  0
  188.8270  175.6640  143.2900 C   0  0  0  0  0  0  0  0  0  0  0  0
  187.5440  175.8830  141.2480 C   0  0  0  0  0  3  0  0  0  0  0  0
  189.2130  173.4690  143.0150 C   0  0  2  0  0  3  0  0  0  0  0  0
  189.7510  172.1750  143.2600 N   0  0  0  0  0  1  0  0  0  0  0  0
  195.6560  176.8850  144.6950 N   0  0  0  0  0  1  0  0  0  0  0  0
  193.7080  176.0970  143.4340 C   0  0  0  0  0  3  0  0  0  0  0  0
  191.4350  175.1760  146.8960 C   0  0  2  0  0  3  0  0  0  0  0  0
  191.7910  175.2730  144.6150 C   0  0  0  0  0  0  0  0  0  0  0  0
  190.4970  174.7640  144.8410 N   0  0  0  0  0  0  0  0  0  0  0  0
  190.1940  174.7400  146.2170 N   0  0  0  0  0  2  0  0  0  0  0  0
  192.4100  175.5590  143.3970 C   0  0  0  0  0  3  0  0  0  0  0  0
  193.6750  176.0630  145.8750 C   0  0  0  0  0  3  0  0  0  0  0  0
  194.3410  176.3430  144.6690 C   0  0  0  0  0  0  0  0  0  0  0  0
  191.1380  176.3930  147.7520 C   0  0  0  0  0  1  0  0  0  0  0  0
  192.3880  175.5290  145.8040 C   0  0  0  0  0  0  0  0  0  0  0  0
  188.5660  177.5400  144.9030 C   0  0  0  0  0  2  0  0  0  0  0  0
  186.2260  177.4760  145.0540 C   0  0  0  0  0  2  0  0  0  0  0  0
  186.1200  176.8010  147.3770 C   0  0  0  0  0  2  0  0  0  0  0  0
  187.4430  176.7350  145.3550 N   0  0  0  0  0  0  0  0  0  0  0  0
  185.2670  177.2180  146.1980 C   0  0  1  0  0  3  0  0  0  0  0  0
  187.5240  176.6750  146.8110 C   0  0  0  0  0  2  0  0  0  0  0  0
  184.3890  178.2950  146.4690 O   0  0  0  0  0  0  0  0  0  0  0  0
  184.0900  178.9740  145.2750 C   0  0  0  0  0  1  0  0  0  0  0  0
  1  2  2  0  0  0  0
  1  9  1  0  0  0  0
  2  7  1  0  0  0  0
  3  5  1  0  0  0  0
  4 22  1  0  0  0  0
  5  4  2  0  0  0  0
  6 15  1  0  0  0  0
  7  4  1  0  0  0  0
  7  6  2  0  0  0  0
  8  3  2  0  0  0  0
  8  2  1  0  0  0  0
  9 10  1  6  0  0  0
  9  6  1  0  0  0  0
 12 19  1  0  0  0  0
 13 20  1  1  0  0  0
 14 15  1  0  0  0  0
 14 21  2  0  0  0  0
 15 16  1  0  0  0  0
 16 13  1  0  0  0  0
 17 12  2  0  0  0  0
 17 14  1  0  0  0  0
 19 11  1  0  0  0  0
 19 18  2  0  0  0  0
 21 18  1  0  0  0  0
 21 13  1  0  0  0  0
 22 25  1  0  0  0  0
 23 25  1  0  0  0  0
 23 26  1  0  0  0  0
 25 27  1  0  0  0  0
 26 28  1  1  0  0  0
 26 24  1  0  0  0  0
 27 24  1  0  0  0  0
 29 28  1  0  0  0  0
M  END
>  <MODEL>
1

>  <REMARK>
 VINA RESULT:      -7.5      0.000      0.000
  Name = 
  4 active torsions:
  status: ('A' for Active; 'I' for Inactive)
    1  A    between atoms: O_8  and  C_27
    2  A    between atoms: C_10  and  C_17
    3  A    between atoms: N_11  and  C_18
    4  A    between atoms: C_17  and  N_25
                            x       y       z     vdW  Elec       q    Type
                         _______ _______ _______ _____ _____    ______ ____

>  <TORSDO>
F 4

$$$$
=
 OpenBabel11062422553D

 29 33  0  0  1  0  0  0  0  0999 V2000
  193.1360  175.9260  144.6290 N   0  0  0  0  0  0  0  0  0  0  0  0
  192.3300  176.3110  145.7360 C   0  0  1  0  0  3  0  0  0  0  0  0
  191.7220  176.7790  148.0150 C   0  0  0  0  0  3  0  0  0  0  0  0
  189.8640  176.3230  146.4470 C   0  0  0  0  0  0  0  0  0  0  0  0
  190.4410  176.6930  147.7550 N   0  0  0  0  0  0  0  0  0  0  0  0
  190.8850  175.8430  144.1400 C   0  0  0  0  0  0  0  0  0  0  0  0
  190.9320  176.2600  145.3950 C   0  0  0  0  0  0  0  0  0  0  0  0
  192.7470  176.5320  146.9760 C   0  0  0  0  0  3  0  0  0  0  0  0
  192.2720  175.6490  143.7000 C   0  0  0  0  0  0  0  0  0  0  0  0
  192.6540  175.1880  142.4090 N   0  0  0  0  0  1  0  0  0  0  0  0
  186.2590  177.9160  139.8870 N   0  0  0  0  0  1  0  0  0  0  0  0
  188.0370  178.1440  141.5580 C   0  0  0  0  0  3  0  0  0  0  0  0
  188.3610  173.9720  142.2550 C   0  0  2  0  0  3  0  0  0  0  0  0
  188.9080  176.1860  142.6310 C   0  0  0  0  0  0  0  0  0  0  0  0
  189.7170  175.3810  143.4570 N   0  0  0  0  0  0  0  0  0  0  0  0
  189.4750  174.0120  143.2280 N   0  0  0  0  0  2  0  0  0  0  0  0
  188.9310  177.5730  142.4790 C   0  0  0  0  0  3  0  0  0  0  0  0
  187.1840  175.9310  140.9790 C   0  0  0  0  0  3  0  0  0  0  0  0
  187.1620  177.3260  140.8140 C   0  0  0  0  0  0  0  0  0  0  0  0
  188.7950  173.1970  141.0250 C   0  0  0  0  0  1  0  0  0  0  0  0
  188.0840  175.3940  141.9010 C   0  0  0  0  0  0  0  0  0  0  0  0
  188.7850  177.3240  146.0640 C   0  0  0  0  0  2  0  0  0  0  0  0
  186.5670  176.8950  145.4320 C   0  0  0  0  0  2  0  0  0  0  0  0
  185.5260  178.1110  147.2500 C   0  0  0  0  0  2  0  0  0  0  0  0
  187.4910  176.8840  146.5590 N   0  0  0  0  0  0  0  0  0  0  0  0
  185.2280  177.3510  145.9750 C   0  0  1  0  0  3  0  0  0  0  0  0
  187.0150  177.9150  147.4750 C   0  0  0  0  0  2  0  0  0  0  0  0
  184.4420  178.0690  145.0420 O   0  0  0  0  0  0  0  0  0  0  0  0
  184.9790  177.9160  143.7530 C   0  0  0  0  0  1  0  0  0  0  0  0
  1  2  1  0  0  0  0
  2  8  1  1  0  0  0
  4  5  2  0  0  0  0
  5  3  1  0  0  0  0
  6  7  2  0  0  0  0
  7  2  1  0  0  0  0
  7  4  1  0  0  0  0
  8  3  2  0  0  0  0
  9  6  1  0  0  0  0
  9  1  2  0  0  0  0
 10  9  1  0  0  0  0
 11 19  1  0  0  0  0
 12 17  1  0  0  0  0
 13 20  1  6  0  0  0
 13 16  1  0  0  0  0
 14 15  1  0  0  0  0
 15  6  1  0  0  0  0
 16 15  1  0  0  0  0
 17 14  2  0  0  0  0
 18 21  2  0  0  0  0
 19 18  1  0  0  0  0
 19 12  2  0  0  0  0
 21 13  1  0  0  0  0
 21 14  1  0  0  0  0
 22  4  1  0  0  0  0
 22 25  1  0  0  0  0
 23 26  1  0  0  0  0
 23 25  1  0  0  0  0
 24 27  1  0  0  0  0
 25 27  1  0  0  0  0
 26 28  1  6  0  0  0
 26 24  1  0  0  0  0
 29 28  1  0  0  0  0
M  END
>  <MODEL>
2

>  <REMARK>
 VINA RESULT:      -7.5      1.590      5.074
  Name = 
  4 active torsions:
  status: ('A' for Active; 'I' for Inactive)
    1  A    between atoms: O_8  and  C_27
    2  A    between atoms: C_10  and  C_17
    3  A    between atoms: N_11  and  C_18
    4  A    between atoms: C_17  and  N_25
                            x       y       z     vdW  Elec       q    Type
                         _______ _______ _______ _____ _____    ______ ____

>  <TORSDO>
F 4

$$$$
=
 OpenBabel11062422553D

 29 33  0  0  1  0  0  0  0  0999 V2000
  185.6730  178.4880  141.6690 N   0  0  0  0  0  0  0  0  0  0  0  0
  185.8490  178.6020  143.0760 C   0  0  1  0  0  3  0  0  0  0  0  0
  185.7950  179.5760  145.2740 C   0  0  0  0  0  3  0  0  0  0  0  0
  187.3790  177.7070  144.9330 C   0  0  0  0  0  0  0  0  0  0  0  0
  186.6820  178.7310  145.7370 N   0  0  0  0  0  0  0  0  0  0  0  0
  187.1820  176.9500  142.4860 C   0  0  0  0  0  0  0  0  0  0  0  0
  186.7870  177.6210  143.5560 C   0  0  0  0  0  0  0  0  0  0  0  0
  185.3710  179.5630  143.8560 C   0  0  0  0  0  3  0  0  0  0  0  0
  186.4670  177.5170  141.3360 C   0  0  0  0  0  0  0  0  0  0  0  0
  186.6260  177.0810  139.9910 N   0  0  0  0  0  1  0  0  0  0  0  0
  193.7060  176.8290  143.5860 N   0  0  0  0  0  1  0  0  0  0  0  0
  191.5220  177.8490  143.1470 C   0  0  0  0  0  3  0  0  0  0  0  0
  189.5220  174.1370  142.6810 C   0  0  2  0  0  3  0  0  0  0  0  0
  189.6340  176.4450  142.6900 C   0  0  0  0  0  0  0  0  0  0  0  0
  188.3030  176.0650  142.4230 N   0  0  0  0  0  0  0  0  0  0  0  0
  188.1560  174.6640  142.4670 N   0  0  0  0  0  2  0  0  0  0  0  0
  190.1530  177.7300  142.8490 C   0  0  0  0  0  3  0  0  0  0  0  0
  191.7560  175.4190  143.1430 C   0  0  0  0  0  3  0  0  0  0  0  0
  192.3220  176.6970  143.2880 C   0  0  0  0  0  0  0  0  0  0  0  0
  189.5420  173.2900  143.9400 C   0  0  0  0  0  1  0  0  0  0  0  0
  190.3940  175.3340  142.8480 C   0  0  0  0  0  0  0  0  0  0  0  0
  187.3040  176.3640  145.6400 C   0  0  0  0  0  2  0  0  0  0  0  0
  189.3380  177.1410  146.5130 C   0  0  0  0  0  2  0  0  0  0  0  0
  190.0490  175.0320  147.4660 C   0  0  0  0  0  2  0  0  0  0  0  0
  188.1420  176.3720  146.8280 N   0  0  0  0  0  0  0  0  0  0  0  0
  190.4910  176.4590  147.2210 C   0  0  1  0  0  3  0  0  0  0  0  0
  188.5930  175.0000  147.0370 C   0  0  0  0  0  2  0  0  0  0  0  0
  191.7310  176.5750  146.5490 O   0  0  0  0  0  0  0  0  0  0  0  0
  192.5190  175.4410  146.8100 C   0  0  0  0  0  1  0  0  0  0  0  0
  1  2  1  0  0  0  0
  2  7  1  0  0  0  0
  2  8  1  6  0  0  0
  3  5  1  0  0  0  0
  4 22  1  0  0  0  0
  4  5  2  0  0  0  0
  6  7  2  0  0  0  0
  7  4  1  0  0  0  0
  8  3  2  0  0  0  0
  9  1  2  0  0  0  0
  9  6  1  0  0  0  0
 10  9  1  0  0  0  0
 12 19  1  0  0  0  0
 13 21  1  0  0  0  0
 13 20  1  1  0  0  0
 14 21  2  0  0  0  0
 14 17  1  0  0  0  0
 15 16  1  0  0  0  0
 15  6  1  0  0  0  0
 15 14  1  0  0  0  0
 16 13  1  0  0  0  0
 17 12  2  0  0  0  0
 18 19  2  0  0  0  0
 19 11  1  0  0  0  0
 21 18  1  0  0  0  0
 22 25  1  0  0  0  0
 23 25  1  0  0  0  0
 23 26  1  0  0  0  0
 25 27  1  0  0  0  0
 26 28  1  6  0  0  0
 26 24  1  0  0  0  0
 27 24  1  0  0  0  0
 28 29  1  0  0  0  0
M  END
>  <MODEL>
3

>  <REMARK>
 VINA RESULT:      -7.4      2.225      4.400
  Name = 
  4 active torsions:
  status: ('A' for Active; 'I' for Inactive)
    1  A    between atoms: O_8  and  C_27
    2  A    between atoms: C_10  and  C_17
    3  A    between atoms: N_11  and  C_18
    4  A    between atoms: C_17  and  N_25
                            x       y       z     vdW  Elec       q    Type
                         _______ _______ _______ _____ _____    ______ ____

>  <TORSDO>
F 4

$$$$
=
 OpenBabel11062422553D

 29 33  0  0  1  0  0  0  0  0999 V2000
  192.9950  175.9750  144.9760 N   0  0  0  0  0  0  0  0  0  0  0  0
  191.8990  175.8810  145.8770 C   0  0  0  0  0  0  0  0  0  0  0  0
  190.6580  175.2900  147.8500 C   0  0  0  0  0  3  0  0  0  0  0  0
  189.3320  175.8250  145.8310 C   0  0  2  0  0  3  0  0  0  0  0  0
  189.5060  175.4760  147.2550 N   0  0  0  0  0  0  0  0  0  0  0  0
  190.9770  176.3730  143.9360 C   0  0  0  0  0  0  0  0  0  0  0  0
  190.6560  176.1470  145.2000 C   0  0  0  0  0  0  0  0  0  0  0  0
  191.9410  175.4500  147.1300 C   0  0  0  0  0  3  0  0  0  0  0  0
  192.4380  176.2590  143.8390 C   0  0  0  0  0  0  0  0  0  0  0  0
  193.1830  176.4180  142.6370 N   0  0  0  0  0  1  0  0  0  0  0  0
  188.1920  172.4210  139.4190 N   0  0  0  0  0  1  0  0  0  0  0  0
  189.8500  173.1020  141.0900 C   0  0  0  0  0  3  0  0  0  0  0  0
  188.1890  176.9670  141.6350 C   0  0  2  0  0  3  0  0  0  0  0  0
  189.7490  175.3070  142.0230 C   0  0  0  0  0  0  0  0  0  0  0  0
  190.0650  176.4140  142.8370 N   0  0  0  0  0  0  0  0  0  0  0  0
  189.1100  177.4400  142.6920 N   0  0  0  0  0  2  0  0  0  0  0  0
  190.3780  174.0630  141.9690 C   0  0  0  0  0  3  0  0  0  0  0  0
  188.0970  174.6580  140.4070 C   0  0  0  0  0  3  0  0  0  0  0  0
  188.7160  173.4000  140.3070 C   0  0  0  0  0  0  0  0  0  0  0  0
  186.7730  176.9340  142.1790 C   0  0  0  0  0  1  0  0  0  0  0  0
  188.6450  175.5900  141.2890 C   0  0  0  0  0  0  0  0  0  0  0  0
  188.3740  176.9980  145.7070 C   0  0  0  0  0  2  0  0  0  0  0  0
  186.0320  176.8510  145.7060 C   0  0  0  0  0  2  0  0  0  0  0  0
  185.6660  178.3460  147.5760 C   0  0  0  0  0  2  0  0  0  0  0  0
  187.2130  176.7940  146.5580 N   0  0  0  0  0  0  0  0  0  0  0  0
  184.9500  177.5410  146.5130 C   0  0  1  0  0  3  0  0  0  0  0  0
  187.1250  177.9530  147.4400 C   0  0  0  0  0  2  0  0  0  0  0  0
  184.0380  178.2900  145.7320 O   0  0  0  0  0  0  0  0  0  0  0  0
  184.7410  179.2200  144.9460 C   0  0  0  0  0  1  0  0  0  0  0  0
  1  2  1  0  0  0  0
  2  8  2  0  0  0  0
  4 22  1  1  0  0  0
  4  5  1  0  0  0  0
  5  3  2  0  0  0  0
  6  7  2  0  0  0  0
  7  4  1  0  0  0  0
  7  2  1  0  0  0  0
  8  3  1  0  0  0  0
  9  6  1  0  0  0  0
  9  1  2  0  0  0  0
 10  9  1  0  0  0  0
 11 19  1  0  0  0  0
 12 17  1  0  0  0  0
 13 20  1  1  0  0  0
 13 16  1  0  0  0  0
 14 15  1  0  0  0  0
 15  6  1  0  0  0  0
 16 15  1  0  0  0  0
 17 14  2  0  0  0  0
 18 21  2  0  0  0  0
 19 18  1  0  0  0  0
 19 12  2  0  0  0  0
 21 13  1  0  0  0  0
 21 14  1  0  0  0  0
 22 25  1  0  0  0  0
 23 26  1  0  0  0  0
 23 25  1  0  0  0  0
 25 27  1  0  0  0  0
 26 28  1  6  0  0  0
 26 24  1  0  0  0  0
 27 24  1  0  0  0  0
 29 28  1  0  0  0  0
M  END
>  <MODEL>
4

>  <REMARK>
 VINA RESULT:      -7.2      1.699      4.944
  Name = 
  4 active torsions:
  status: ('A' for Active; 'I' for Inactive)
    1  A    between atoms: O_8  and  C_27
    2  A    between atoms: C_10  and  C_17
    3  A    between atoms: N_11  and  C_18
    4  A    between atoms: C_17  and  N_25
                            x       y       z     vdW  Elec       q    Type
                         _______ _______ _______ _____ _____    ______ ____

>  <TORSDO>
F 4

$$$$
=
 OpenBabel11062422553D

 29 33  0  0  1  0  0  0  0  0999 V2000
  186.4020  178.8490  142.7300 N   0  0  0  0  0  0  0  0  0  0  0  0
  186.2890  178.6660  144.1350 C   0  0  1  0  0  3  0  0  0  0  0  0
  185.7000  179.1330  146.4200 C   0  0  0  0  0  3  0  0  0  0  0  0
  187.5290  177.5070  146.0610 C   0  0  0  0  0  0  0  0  0  0  0  0
  186.5750  178.2760  146.8840 N   0  0  0  0  0  0  0  0  0  0  0  0
  187.8970  177.2870  143.5290 C   0  0  0  0  0  0  0  0  0  0  0  0
  187.2270  177.6780  144.6010 C   0  0  0  0  0  0  0  0  0  0  0  0
  185.5610  179.3960  144.9700 C   0  0  0  0  0  3  0  0  0  0  0  0
  187.3540  178.0350  142.3880 C   0  0  0  0  0  0  0  0  0  0  0  0
  187.8180  177.9150  141.0480 N   0  0  0  0  0  1  0  0  0  0  0  0
  190.4440  171.6800  141.1060 N   0  0  0  0  0  1  0  0  0  0  0  0
  188.6740  173.2340  141.7840 C   0  0  0  0  0  3  0  0  0  0  0  0
  191.3560  176.0840  143.4200 C   0  0  2  0  0  3  0  0  0  0  0  0
  189.2550  175.2670  142.9130 C   0  0  0  0  0  0  0  0  0  0  0  0
  189.1050  176.5240  143.5310 N   0  0  0  0  0  0  0  0  0  0  0  0
  190.3590  177.1060  143.8090 N   0  0  0  0  0  2  0  0  0  0  0  0
  188.2650  174.4360  142.3860 C   0  0  0  0  0  3  0  0  0  0  0  0
  191.0110  173.7760  142.2370 C   0  0  0  0  0  3  0  0  0  0  0  0
  190.0420  172.9010  141.7150 C   0  0  0  0  0  0  0  0  0  0  0  0
  192.3010  176.6710  142.3880 C   0  0  0  0  0  1  0  0  0  0  0  0
  190.5730  174.9620  142.8280 C   0  0  0  0  0  0  0  0  0  0  0  0
  187.4790  176.0410  146.4570 C   0  0  0  0  0  2  0  0  0  0  0  0
  189.5300  176.8390  147.2700 C   0  0  0  0  0  2  0  0  0  0  0  0
  190.8100  174.8410  146.7860 C   0  0  0  0  0  2  0  0  0  0  0  0
  188.6140  175.7070  147.3020 N   0  0  0  0  0  0  0  0  0  0  0  0
  190.9310  176.2630  147.2920 C   0  0  1  0  0  3  0  0  0  0  0  0
  189.3170  174.6060  146.6520 C   0  0  0  0  0  2  0  0  0  0  0  0
  191.8880  177.0460  146.6010 O   0  0  0  0  0  0  0  0  0  0  0  0
  193.1430  176.4150  146.6550 C   0  0  0  0  0  1  0  0  0  0  0  0
  1  2  1  0  0  0  0
  2  7  1  0  0  0  0
  2  8  1  1  0  0  0
  3  5  1  0  0  0  0
  4 22  1  0  0  0  0
  4  5  2  0  0  0  0
  6 15  1  0  0  0  0
  6  7  2  0  0  0  0
  7  4  1  0  0  0  0
  8  3  2  0  0  0  0
  9  1  2  0  0  0  0
  9  6  1  0  0  0  0
 10  9  1  0  0  0  0
 11 19  1  0  0  0  0
 12 17  1  0  0  0  0
 13 20  1  6  0  0  0
 13 16  1  0  0  0  0
 14 15  1  0  0  0  0
 15 16  1  0  0  0  0
 17 14  2  0  0  0  0
 18 21  2  0  0  0  0
 19 12  2  0  0  0  0
 19 18  1  0  0  0  0
 21 14  1  0  0  0  0
 21 13  1  0  0  0  0
 22 25  1  0  0  0  0
 23 26  1  0  0  0  0
 23 25  1  0  0  0  0
 24 26  1  0  0  0  0
 26 28  1  6  0  0  0
 27 24  1  0  0  0  0
 27 25  1  0  0  0  0
 28 29  1  0  0  0  0
M  END
>  <MODEL>
5

>  <REMARK>
 VINA RESULT:      -7.1      2.350      5.056
  Name = 
  4 active torsions:
  status: ('A' for Active; 'I' for Inactive)
    1  A    between atoms: O_8  and  C_27
    2  A    between atoms: C_10  and  C_17
    3  A    between atoms: N_11  and  C_18
    4  A    between atoms: C_17  and  N_25
                            x       y       z     vdW  Elec       q    Type
                         _______ _______ _______ _____ _____    ______ ____

>  <TORSDO>
F 4

$$$$
=
 OpenBabel11062422553D

 29 33  0  0  1  0  0  0  0  0999 V2000
  195.3440  174.8790  146.1370 N   0  0  0  0  0  0  0  0  0  0  0  0
  195.0090  173.6940  145.4270 C   0  0  0  0  0  0  0  0  0  0  0  0
  195.3150  171.6260  144.2380 C   0  0  0  0  0  3  0  0  0  0  0  0
  193.1680  172.8000  143.8760 C   0  0  0  0  0  0  0  0  0  0  0  0
  194.1190  171.6830  143.7070 N   0  0  0  0  0  0  0  0  0  0  0  0
  193.2110  174.9590  145.2680 C   0  0  0  0  0  0  0  0  0  0  0  0
  193.6680  173.7710  144.9070 C   0  0  0  0  0  0  0  0  0  0  0  0
  195.8310  172.7020  145.1140 C   0  0  0  0  0  3  0  0  0  0  0  0
  194.2800  175.6150  146.0310 C   0  0  2  0  0  3  0  0  0  0  0  0
  194.1920  176.9230  146.5860 N   0  0  0  0  0  1  0  0  0  0  0  0
  186.9900  176.4160  146.9880 N   0  0  0  0  0  1  0  0  0  0  0  0
  189.1300  175.2270  147.0970 C   0  0  0  0  0  3  0  0  0  0  0  0
  190.7490  177.1660  143.6890 C   0  0  2  0  0  3  0  0  0  0  0  0
  190.8040  175.6540  145.4360 C   0  0  0  0  0  0  0  0  0  0  0  0
  192.0370  175.5930  144.7560 N   0  0  0  0  0  0  0  0  0  0  0  0
  192.0900  176.5400  143.7140 N   0  0  0  0  0  2  0  0  0  0  0  0
  190.4130  174.9660  146.5860 C   0  0  0  0  0  3  0  0  0  0  0  0
  188.7270  176.8520  145.3200 C   0  0  0  0  0  3  0  0  0  0  0  0
  188.2870  176.1620  146.4630 C   0  0  0  0  0  0  0  0  0  0  0  0
  190.8910  178.6660  143.8710 C   0  0  0  0  0  1  0  0  0  0  0  0
  190.0060  176.5720  144.8370 C   0  0  0  0  0  0  0  0  0  0  0  0
  191.8030  172.2550  144.2630 C   0  0  0  0  0  2  0  0  0  0  0  0
  191.0250  173.2970  142.3100 C   0  0  0  0  0  2  0  0  0  0  0  0
  188.7000  172.6740  142.5770 C   0  0  0  0  0  2  0  0  0  0  0  0
  190.9830  172.0600  143.0790 N   0  0  0  0  0  0  0  0  0  0  0  0
  189.6450  173.4840  141.7140 C   0  0  1  0  0  3  0  0  0  0  0  0
  189.6050  171.9200  143.5360 C   0  0  0  0  0  2  0  0  0  0  0  0
  189.2650  174.8370  141.5510 O   0  0  0  0  0  0  0  0  0  0  0  0
  187.9680  175.0300  142.0560 C   0  0  0  0  0  1  0  0  0  0  0  0
  2  1  2  0  0  0  0
  3  8  2  0  0  0  0
  4 22  1  0  0  0  0
  4  7  1  0  0  0  0
  5  4  2  0  0  0  0
  5  3  1  0  0  0  0
  6  9  1  0  0  0  0
  7  6  2  0  0  0  0
  7  2  1  0  0  0  0
  8  2  1  0  0  0  0
  9  1  1  0  0  0  0
  9 10  1  6  0  0  0
 13 16  1  0  0  0  0
 13 20  1  1  0  0  0
 13 21  1  0  0  0  0
 14 17  2  0  0  0  0
 15  6  1  0  0  0  0
 15 14  1  0  0  0  0
 16 15  1  0  0  0  0
 17 12  1  0  0  0  0
 18 19  1  0  0  0  0
 19 11  1  0  0  0  0
 19 12  2  0  0  0  0
 21 18  2  0  0  0  0
 21 14  1  0  0  0  0
 23 25  1  0  0  0  0
 24 27  1  0  0  0  0
 25 27  1  0  0  0  0
 25 22  1  0  0  0  0
 26 28  1  1  0  0  0
 26 23  1  0  0  0  0
 26 24  1  0  0  0  0
 28 29  1  0  0  0  0
M  END
>  <MODEL>
6

>  <REMARK>
 VINA RESULT:      -7.0      2.684      6.413
  Name = 
  4 active torsions:
  status: ('A' for Active; 'I' for Inactive)
    1  A    between atoms: O_8  and  C_27
    2  A    between atoms: C_10  and  C_17
    3  A    between atoms: N_11  and  C_18
    4  A    between atoms: C_17  and  N_25
                            x       y       z     vdW  Elec       q    Type
                         _______ _______ _______ _____ _____    ______ ____

>  <TORSDO>
F 4

$$$$
=
 OpenBabel11062422553D

 29 33  0  0  1  0  0  0  0  0999 V2000
  186.6790  176.4190  141.9500 N   0  0  0  0  0  0  0  0  0  0  0  0
  186.6170  176.8210  143.3130 C   0  0  1  0  0  3  0  0  0  0  0  0
  185.9040  178.0270  145.2680 C   0  0  0  0  0  3  0  0  0  0  0  0
  188.1300  176.9540  145.3820 C   0  0  0  0  0  0  0  0  0  0  0  0
  186.9880  177.7120  145.9320 N   0  0  0  0  0  0  0  0  0  0  0  0
  188.5600  175.7980  143.1290 C   0  0  0  0  0  0  0  0  0  0  0  0
  187.7990  176.4080  144.0240 C   0  0  0  0  0  0  0  0  0  0  0  0
  185.7030  177.6100  143.8620 C   0  0  0  0  0  3  0  0  0  0  0  0
  187.8280  175.8240  141.8560 C   0  0  0  0  0  0  0  0  0  0  0  0
  188.3150  175.2810  140.6340 N   0  0  0  0  0  1  0  0  0  0  0  0
  192.4680  170.5890  144.3060 N   0  0  0  0  0  1  0  0  0  0  0  0
  190.3750  171.8630  144.2700 C   0  0  0  0  0  3  0  0  0  0  0  0
  192.1990  175.4390  142.8960 C   0  0  2  0  0  3  0  0  0  0  0  0
  190.4080  174.1700  143.6200 C   0  0  0  0  0  0  0  0  0  0  0  0
  189.9380  175.4590  143.2970 N   0  0  0  0  0  0  0  0  0  0  0  0
  190.9750  176.2650  142.7870 N   0  0  0  0  0  2  0  0  0  0  0  0
  189.6740  173.0600  144.0400 C   0  0  0  0  0  3  0  0  0  0  0  0
  192.4680  172.9390  143.6220 C   0  0  0  0  0  3  0  0  0  0  0  0
  191.7690  171.8040  144.0680 C   0  0  0  0  0  0  0  0  0  0  0  0
  192.8310  175.2930  141.5250 C   0  0  0  0  0  1  0  0  0  0  0  0
  191.7440  174.1120  143.4020 C   0  0  0  0  0  0  0  0  0  0  0  0
  188.5070  175.8340  146.3390 C   0  0  0  0  0  2  0  0  0  0  0  0
  190.5590  176.9700  146.3620 C   0  0  0  0  0  2  0  0  0  0  0  0
  191.7850  175.2900  147.6030 C   0  0  0  0  0  2  0  0  0  0  0  0
  189.6050  176.2500  147.1950 N   0  0  0  0  0  0  0  0  0  0  0  0
  191.9390  176.6070  146.8720 C   0  0  1  0  0  3  0  0  0  0  0  0
  190.2890  175.0350  147.6270 C   0  0  0  0  0  2  0  0  0  0  0  0
  192.9410  176.6010  145.8710 O   0  0  0  0  0  0  0  0  0  0  0  0
  193.9020  175.6210  146.1690 C   0  0  0  0  0  1  0  0  0  0  0  0
  1  2  1  0  0  0  0
  2  8  1  6  0  0  0
  2  7  1  0  0  0  0
  3  5  1  0  0  0  0
  4  5  2  0  0  0  0
  4 22  1  0  0  0  0
  6 15  1  0  0  0  0
  6  7  2  0  0  0  0
  7  4  1  0  0  0  0
  8  3  2  0  0  0  0
  9  1  2  0  0  0  0
  9  6  1  0  0  0  0
 10  9  1  0  0  0  0
 13 20  1  6  0  0  0
 13 21  1  0  0  0  0
 14 17  1  0  0  0  0
 15 14  1  0  0  0  0
 16 13  1  0  0  0  0
 16 15  1  0  0  0  0
 17 12  2  0  0  0  0
 18 19  2  0  0  0  0
 19 12  1  0  0  0  0
 19 11  1  0  0  0  0
 21 14  2  0  0  0  0
 21 18  1  0  0  0  0
 22 25  1  0  0  0  0
 23 26  1  0  0  0  0
 23 25  1  0  0  0  0
 24 27  1  0  0  0  0
 25 27  1  0  0  0  0
 26 28  1  6  0  0  0
 26 24  1  0  0  0  0
 28 29  1  0  0  0  0
M  END
>  <MODEL>
7

>  <REMARK>
 VINA RESULT:      -6.8      2.406      4.675
  Name = 
  4 active torsions:
  status: ('A' for Active; 'I' for Inactive)
    1  A    between atoms: O_8  and  C_27
    2  A    between atoms: C_10  and  C_17
    3  A    between atoms: N_11  and  C_18
    4  A    between atoms: C_17  and  N_25
                            x       y       z     vdW  Elec       q    Type
                         _______ _______ _______ _____ _____    ______ ____

>  <TORSDO>
F 4

$$$$
=
 OpenBabel11062422553D

 29 33  0  0  1  0  0  0  0  0999 V2000
  193.2790  176.7030  144.9960 N   0  0  0  0  0  0  0  0  0  0  0  0
  192.2540  176.3410  145.9130 C   0  0  1  0  0  3  0  0  0  0  0  0
  191.1910  175.8480  148.0130 C   0  0  0  0  0  3  0  0  0  0  0  0
  190.1000  174.9460  145.9850 C   0  0  0  0  0  0  0  0  0  0  0  0
  190.2070  175.2070  147.4340 N   0  0  0  0  0  0  0  0  0  0  0  0
  191.5160  175.6410  143.9580 C   0  0  0  0  0  0  0  0  0  0  0  0
  191.1640  175.6910  145.2320 C   0  0  0  0  0  0  0  0  0  0  0  0
  192.3150  176.4160  147.2350 C   0  0  0  0  0  3  0  0  0  0  0  0
  192.8340  176.2810  143.8520 C   0  0  0  0  0  0  0  0  0  0  0  0
  193.5720  176.4160  142.6430 N   0  0  0  0  0  1  0  0  0  0  0  0
  190.8680  169.3520  142.0040 N   0  0  0  0  0  1  0  0  0  0  0  0
  191.8970  171.2460  143.1690 C   0  0  0  0  0  3  0  0  0  0  0  0
  189.2380  174.1150  141.5270 C   0  0  2  0  0  3  0  0  0  0  0  0
  191.0430  173.4570  142.8110 C   0  0  0  0  0  0  0  0  0  0  0  0
  190.8850  174.8510  142.9470 N   0  0  0  0  0  0  0  0  0  0  0  0
  189.7570  175.3070  142.2350 N   0  0  0  0  0  2  0  0  0  0  0  0
  191.9620  172.6220  143.4490 C   0  0  0  0  0  3  0  0  0  0  0  0
  190.0000  171.6170  141.6770 C   0  0  0  0  0  3  0  0  0  0  0  0
  190.9230  170.7450  142.2820 C   0  0  0  0  0  0  0  0  0  0  0  0
  187.7930  173.8830  141.9270 C   0  0  0  0  0  1  0  0  0  0  0  0
  190.0900  172.9770  141.9750 C   0  0  0  0  0  0  0  0  0  0  0  0
  188.7150  175.3380  145.4960 C   0  0  0  0  0  2  0  0  0  0  0  0
  187.2910  176.6940  146.7750 C   0  0  0  0  0  2  0  0  0  0  0  0
  186.7920  178.2910  145.0250 C   0  0  0  0  0  2  0  0  0  0  0  0
  188.4230  176.7150  145.8580 N   0  0  0  0  0  0  0  0  0  0  0  0
  186.4470  177.9090  146.4480 C   0  0  1  0  0  3  0  0  0  0  0  0
  187.9450  177.3780  144.6500 C   0  0  0  0  0  2  0  0  0  0  0  0
  185.0630  177.7290  146.6820 O   0  0  0  0  0  0  0  0  0  0  0  0
  184.3290  178.6580  145.9250 C   0  0  0  0  0  1  0  0  0  0  0  0
  1  2  1  0  0  0  0
  2  8  1  1  0  0  0
  4  5  2  0  0  0  0
  5  3  1  0  0  0  0
  6  7  2  0  0  0  0
  7  2  1  0  0  0  0
  7  4  1  0  0  0  0
  8  3  2  0  0  0  0
  9  6  1  0  0  0  0
  9  1  2  0  0  0  0
 10  9  1  0  0  0  0
 11 19  1  0  0  0  0
 12 17  1  0  0  0  0
 13 20  1  1  0  0  0
 13 21  1  0  0  0  0
 13 16  1  0  0  0  0
 14 15  1  0  0  0  0
 14 17  2  0  0  0  0
 15  6  1  0  0  0  0
 16 15  1  0  0  0  0
 18 21  2  0  0  0  0
 18 19  1  0  0  0  0
 19 12  2  0  0  0  0
 21 14  1  0  0  0  0
 22 25  1  0  0  0  0
 22  4  1  0  0  0  0
 24 26  1  0  0  0  0
 25 23  1  0  0  0  0
 26 28  1  6  0  0  0
 26 23  1  0  0  0  0
 27 24  1  0  0  0  0
 27 25  1  0  0  0  0
 29 28  1  0  0  0  0
M  END
>  <MODEL>
8

>  <REMARK>
 VINA RESULT:      -6.8      1.856      4.906
  Name = 
  4 active torsions:
  status: ('A' for Active; 'I' for Inactive)
    1  A    between atoms: O_8  and  C_27
    2  A    between atoms: C_10  and  C_17
    3  A    between atoms: N_11  and  C_18
    4  A    between atoms: C_17  and  N_25
                            x       y       z     vdW  Elec       q    Type
                         _______ _______ _______ _____ _____    ______ ____

>  <TORSDO>
F 4

$$$$
=
 OpenBabel11062422553D

 29 33  0  0  1  0  0  0  0  0999 V2000
  188.4290  175.0530  140.9960 N   0  0  0  0  0  0  0  0  0  0  0  0
  188.9660  174.0010  141.7880 C   0  0  1  0  0  3  0  0  0  0  0  0
  189.4330  171.7610  142.5280 C   0  0  0  0  0  3  0  0  0  0  0  0
  189.7050  173.5580  144.2060 C   0  0  0  0  0  0  0  0  0  0  0  0
  189.7760  172.1630  143.7260 N   0  0  0  0  0  0  0  0  0  0  0  0
  189.0970  175.7830  143.0780 C   0  0  0  0  0  0  0  0  0  0  0  0
  189.3840  174.4920  143.0760 C   0  0  0  0  0  0  0  0  0  0  0  0
  188.9530  172.7080  141.4960 C   0  0  0  0  0  3  0  0  0  0  0  0
  188.5080  176.0930  141.7690 C   0  0  0  0  0  0  0  0  0  0  0  0
  188.0460  177.3800  141.3750 N   0  0  0  0  0  1  0  0  0  0  0  0
  184.9820  178.0300  147.7480 N   0  0  0  0  0  1  0  0  0  0  0  0
  185.6110  177.0470  145.5920 C   0  0  0  0  0  3  0  0  0  0  0  0
  189.7760  177.5710  146.2030 C   0  0  2  0  0  3  0  0  0  0  0  0
  187.9240  176.9360  144.9750 C   0  0  0  0  0  0  0  0  0  0  0  0
  189.0790  176.6330  144.2270 N   0  0  0  0  0  0  0  0  0  0  0  0
  190.2490  176.9400  144.9510 N   0  0  0  0  0  2  0  0  0  0  0  0
  186.5910  176.6740  144.6570 C   0  0  0  0  0  3  0  0  0  0  0  0
  187.3390  177.8800  147.1030 C   0  0  0  0  0  3  0  0  0  0  0  0
  185.9830  177.6540  146.8100 C   0  0  0  0  0  0  0  0  0  0  0  0
  190.3050  176.7900  147.3910 C   0  0  0  0  0  1  0  0  0  0  0  0
  188.2880  177.4980  146.1540 C   0  0  0  0  0  0  0  0  0  0  0  0
  191.0200  173.9380  144.8670 C   0  0  0  0  0  2  0  0  0  0  0  0
  193.0340  172.7360  144.9000 C   0  0  0  0  0  2  0  0  0  0  0  0
  194.3650  174.4040  143.7550 C   0  0  0  0  0  2  0  0  0  0  0  0
  192.1400  173.5070  144.0470 N   0  0  0  0  0  0  0  0  0  0  0  0
  194.4460  173.0650  144.4580 C   0  0  1  0  0  3  0  0  0  0  0  0
  192.8800  174.7080  143.6750 C   0  0  0  0  0  2  0  0  0  0  0  0
  195.4030  173.0140  145.4990 O   0  0  0  0  0  0  0  0  0  0  0  0
  196.0450  174.2590  145.6150 C   0  0  0  0  0  1  0  0  0  0  0  0
  1  9  2  0  0  0  0
  1  2  1  0  0  0  0
  2  8  1  1  0  0  0
  2  7  1  0  0  0  0
  3  5  1  0  0  0  0
  4 22  1  0  0  0  0
  5  4  2  0  0  0  0
  6 15  1  0  0  0  0
  7  6  2  0  0  0  0
  7  4  1  0  0  0  0
  8  3  2  0  0  0  0
  9  6  1  0  0  0  0
 10  9  1  0  0  0  0
 12 19  1  0  0  0  0
 13 20  1  1  0  0  0
 14 21  2  0  0  0  0
 15 16  1  0  0  0  0
 15 14  1  0  0  0  0
 16 13  1  0  0  0  0
 17 14  1  0  0  0  0
 17 12  2  0  0  0  0
 19 18  2  0  0  0  0
 19 11  1  0  0  0  0
 21 13  1  0  0  0  0
 21 18  1  0  0  0  0
 24 26  1  0  0  0  0
 25 22  1  0  0  0  0
 25 23  1  0  0  0  0
 26 23  1  0  0  0  0
 26 28  1  1  0  0  0
 27 24  1  0  0  0  0
 27 25  1  0  0  0  0
 28 29  1  0  0  0  0
M  END
>  <MODEL>
9

>  <REMARK>
 VINA RESULT:      -6.7      2.891      6.527
  Name = 
  4 active torsions:
  status: ('A' for Active; 'I' for Inactive)
    1  A    between atoms: O_8  and  C_27
    2  A    between atoms: C_10  and  C_17
    3  A    between atoms: N_11  and  C_18
    4  A    between atoms: C_17  and  N_25
                            x       y       z     vdW  Elec       q    Type
                         _______ _______ _______ _____ _____    ______ ____

>  <TORSDO>
F 4

$$$$
