=
 OpenBabel11062422253D

 36 38  0  0  1  0  0  0  0  0999 V2000
  190.3380  172.2160  143.8700 O   0  0  0  0  0  0  0  0  0  0  0  0
  190.1900  174.9380  142.7450 O   0  0  0  0  0  0  0  0  0  0  0  0
  190.3490  174.7220  144.1200 C   0  0  1  0  0  3  0  0  0  0  0  0
  188.8590  173.0320  142.0940 C   0  0  2  0  0  3  0  0  0  0  0  0
  189.0040  172.2030  143.3660 C   0  0  0  0  0  2  0  0  0  0  0  0
  188.8840  174.5300  142.4360 C   0  0  2  0  0  3  0  0  0  0  0  0
  190.9560  173.3670  144.3670 C   0  0  0  0  0  0  0  0  0  0  0  0
  192.0390  173.2510  144.9940 O   0  0  0  0  0  0  0  0  0  0  0  0
  187.6480  172.6930  141.4880 O   0  0  0  0  0  1  0  0  0  0  0  0
  191.0310  175.9050  144.8500 C   0  0  1  0  0  0  0  0  0  0  0  0
  190.5740  176.5090  146.1480 C   0  0  2  0  0  3  0  0  0  0  0  0
  191.5480  175.4860  146.0950 O   0  0  0  0  0  0  0  0  0  0  0  0
  189.2380  176.0270  146.6650 C   0  0  0  0  0  0  0  0  0  0  0  0
  189.1090  174.8580  147.2820 C   0  0  0  0  0  2  0  0  0  0  0  0
  188.1140  176.8560  146.5910 O   0  0  0  0  0  0  0  0  0  0  0  0
  186.7970  176.4040  146.8930 C   0  0  0  0  0  2  0  0  0  0  0  0
  186.1980  177.2450  147.8670 O   0  0  0  0  0  0  0  0  0  0  0  0
  185.4910  178.3950  147.5140 C   0  0  0  0  0  0  0  0  0  0  0  0
  185.9900  179.5390  147.6900 O   0  0  0  0  0  1  0  0  0  0  0  0
  184.2250  178.2760  146.9590 O   0  0  0  0  0  0  0  0  0  0  0  0
  192.0790  176.6690  144.0240 C   0  0  1  0  0  3  0  0  0  0  0  0
  191.7650  178.0290  143.9950 O   0  0  0  0  0  1  0  0  0  0  0  0
  194.0620  177.3630  145.3780 O   0  0  0  0  0  1  0  0  0  0  0  0
  194.2000  175.5440  143.9920 O   0  0  0  0  0  0  0  0  0  0  0  0
  193.5000  176.4770  144.4700 C   0  0  0  0  0  0  0  0  0  0  0  0
  188.3350  175.3870  141.2950 C   0  0  0  0  0  2  0  0  0  0  0  0
  188.3480  176.7680  141.6430 O   0  0  0  0  0  0  0  0  0  0  0  0
  186.0510  177.4740  141.4780 C   0  0  0  0  0  3  0  0  0  0  0  0
  187.2440  177.4160  142.2040 C   0  0  0  0  0  0  0  0  0  0  0  0
  184.9280  178.1210  142.0070 C   0  0  0  0  0  0  0  0  0  0  0  0
  183.8960  179.3620  143.8230 O   0  0  0  0  0  1  0  0  0  0  0  0
  186.1880  178.6500  144.0110 C   0  0  0  0  0  3  0  0  0  0  0  0
  187.3060  178.0060  143.4770 C   0  0  0  0  0  3  0  0  0  0  0  0
  184.9980  178.7120  143.2790 C   0  0  0  0  0  0  0  0  0  0  0  0
  182.7440  178.2190  140.6070 N   0  0  0  0  0  0  0  0  0  0  0  0
  183.7180  178.1750  141.2310 C   0  0  0  0  0  0  0  0  0  0  0  0
  1  7  1  0  0  0  0
  3  2  1  6  0  0  0
  3  7  1  0  0  0  0
  3 10  1  0  0  0  0
  4  9  1  1  0  0  0
  4  6  1  0  0  0  0
  4  5  1  0  0  0  0
  5  1  1  0  0  0  0
  6 26  1  6  0  0  0
  6  2  1  0  0  0  0
  7  8  2  0  0  0  0
 10 21  1  6  0  0  0
 10 12  1  0  0  0  0
 10 11  1  0  0  0  0
 11 13  1  1  0  0  0
 12 11  1  0  0  0  0
 13 14  2  0  0  0  0
 15 13  1  0  0  0  0
 15 16  1  0  0  0  0
 16 17  1  0  0  0  0
 18 19  1  0  0  0  0
 18 17  1  0  0  0  0
 20 18  2  0  0  0  0
 21 22  1  1  0  0  0
 21 25  1  0  0  0  0
 24 25  2  0  0  0  0
 25 23  1  0  0  0  0
 26 27  1  0  0  0  0
 27 29  1  0  0  0  0
 28 30  2  0  0  0  0
 28 29  1  0  0  0  0
 29 33  2  0  0  0  0
 30 34  1  0  0  0  0
 33 32  1  0  0  0  0
 34 31  1  0  0  0  0
 34 32  2  0  0  0  0
 35 36  3  0  0  0  0
 36 30  1  0  0  0  0
M  END
>  <MODEL>
1

>  <REMARK>
 VINA RESULT:      -6.9      0.000      0.000
  Name = 
  12 active torsions:
  status: ('A' for Active; 'I' for Inactive)
    1  A    between atoms: C_3  and  C_9
    2  A    between atoms: C_3  and  C_13
    3  A    between atoms: C_4  and  O_35
    4  A    between atoms: C_7  and  O_30
    5  A    between atoms: C_10  and  O_12
    6  A    between atoms: C_10  and  C_24
    7  A    between atoms: C_11  and  C_28
    8  A    between atoms: O_12  and  C_36
    9  A    between atoms: C_13  and  C_25
   10  A    between atoms: C_20  and  C_23
   11  A    between atoms: C_23  and  O_30
   12  A    between atoms: O_35  and  C_36
                            x       y       z     vdW  Elec       q    Type
                         _______ _______ _______ _____ _____    ______ ____

>  <TORSDO>
F 12

$$$$
=
 OpenBabel11062422253D

 36 38  0  0  1  0  0  0  0  0999 V2000
  191.0970  172.2930  144.7310 O   0  0  0  0  0  0  0  0  0  0  0  0
  191.3640  174.2210  142.5140 O   0  0  0  0  0  0  0  0  0  0  0  0
  191.7310  174.5560  143.8240 C   0  0  1  0  0  3  0  0  0  0  0  0
  189.5320  172.6940  142.8880 C   0  0  2  0  0  3  0  0  0  0  0  0
  189.7250  172.4620  144.3840 C   0  0  0  0  0  2  0  0  0  0  0  0
  189.9650  174.1210  142.5170 C   0  0  2  0  0  3  0  0  0  0  0  0
  192.0470  173.3120  144.6100 C   0  0  0  0  0  0  0  0  0  0  0  0
  193.1750  173.1560  145.1440 O   0  0  0  0  0  0  0  0  0  0  0  0
  188.1820  172.5030  142.5890 O   0  0  0  0  0  1  0  0  0  0  0  0
  192.7930  175.6800  143.8930 C   0  0  1  0  0  0  0  0  0  0  0  0
  192.5220  177.1170  144.2380 C   0  0  2  0  0  3  0  0  0  0  0  0
  192.9110  176.1700  145.2120 O   0  0  0  0  0  0  0  0  0  0  0  0
  191.0650  177.5060  144.3410 C   0  0  0  0  0  0  0  0  0  0  0  0
  190.3260  177.7330  143.2610 C   0  0  0  0  0  2  0  0  0  0  0  0
  190.4300  177.5380  145.5880 O   0  0  0  0  0  0  0  0  0  0  0  0
  189.1340  176.9930  145.8100 C   0  0  0  0  0  2  0  0  0  0  0  0
  189.2080  175.5820  145.9450 O   0  0  0  0  0  0  0  0  0  0  0  0
  189.5790  174.9740  147.1450 C   0  0  0  0  0  0  0  0  0  0  0  0
  188.7550  174.2830  147.8000 O   0  0  0  0  0  1  0  0  0  0  0  0
  190.8740  175.1300  147.6180 O   0  0  0  0  0  0  0  0  0  0  0  0
  194.1630  175.3260  143.2920 C   0  0  1  0  0  3  0  0  0  0  0  0
  194.2640  175.8390  141.9970 O   0  0  0  0  0  1  0  0  0  0  0  0
  195.7830  174.9570  145.1580 O   0  0  0  0  0  1  0  0  0  0  0  0
  195.9170  176.8560  143.8830 O   0  0  0  0  0  0  0  0  0  0  0  0
  195.3460  175.7560  144.1110 C   0  0  0  0  0  0  0  0  0  0  0  0
  189.4180  174.5490  141.1550 C   0  0  0  0  0  2  0  0  0  0  0  0
  188.0100  174.7570  141.2130 O   0  0  0  0  0  0  0  0  0  0  0  0
  186.8650  175.9070  142.9940 C   0  0  0  0  0  3  0  0  0  0  0  0
  187.4400  175.9290  141.7210 C   0  0  0  0  0  0  0  0  0  0  0  0
  186.2790  177.0600  143.5300 C   0  0  0  0  0  0  0  0  0  0  0  0
  185.6960  179.4060  143.2950 O   0  0  0  0  0  1  0  0  0  0  0  0
  186.8540  178.2770  141.5120 C   0  0  0  0  0  3  0  0  0  0  0  0
  187.4340  177.1230  140.9820 C   0  0  0  0  0  3  0  0  0  0  0  0
  186.2740  178.2500  142.7840 C   0  0  0  0  0  0  0  0  0  0  0  0
  185.2050  176.9580  145.8900 N   0  0  0  0  0  0  0  0  0  0  0  0
  185.6850  177.0020  144.8380 C   0  0  0  0  0  0  0  0  0  0  0  0
  2  6  1  0  0  0  0
  3  2  1  6  0  0  0
  3 10  1  0  0  0  0
  3  7  1  0  0  0  0
  4  9  1  1  0  0  0
  4  5  1  0  0  0  0
  5  1  1  0  0  0  0
  6 26  1  6  0  0  0
  6  4  1  0  0  0  0
  7  1  1  0  0  0  0
  7  8  2  0  0  0  0
 10 21  1  6  0  0  0
 10 11  1  0  0  0  0
 10 12  1  0  0  0  0
 11 13  1  1  0  0  0
 11 12  1  0  0  0  0
 13 15  1  0  0  0  0
 14 13  2  0  0  0  0
 15 16  1  0  0  0  0
 16 17  1  0  0  0  0
 17 18  1  0  0  0  0
 18 20  2  0  0  0  0
 18 19  1  0  0  0  0
 21 22  1  6  0  0  0
 21 25  1  0  0  0  0
 24 25  2  0  0  0  0
 25 23  1  0  0  0  0
 26 27  1  0  0  0  0
 27 29  1  0  0  0  0
 28 30  1  0  0  0  0
 29 28  2  0  0  0  0
 30 36  1  0  0  0  0
 32 34  1  0  0  0  0
 33 32  2  0  0  0  0
 33 29  1  0  0  0  0
 34 31  1  0  0  0  0
 34 30  2  0  0  0  0
 36 35  3  0  0  0  0
M  END
>  <MODEL>
2

>  <REMARK>
 VINA RESULT:      -6.6      2.168      3.096
  Name = 
  12 active torsions:
  status: ('A' for Active; 'I' for Inactive)
    1  A    between atoms: C_3  and  C_9
    2  A    between atoms: C_3  and  C_13
    3  A    between atoms: C_4  and  O_35
    4  A    between atoms: C_7  and  O_30
    5  A    between atoms: C_10  and  O_12
    6  A    between atoms: C_10  and  C_24
    7  A    between atoms: C_11  and  C_28
    8  A    between atoms: O_12  and  C_36
    9  A    between atoms: C_13  and  C_25
   10  A    between atoms: C_20  and  C_23
   11  A    between atoms: C_23  and  O_30
   12  A    between atoms: O_35  and  C_36
                            x       y       z     vdW  Elec       q    Type
                         _______ _______ _______ _____ _____    ______ ____

>  <TORSDO>
F 12

$$$$
=
 OpenBabel11062422253D

 36 38  0  0  1  0  0  0  0  0999 V2000
  189.4730  173.8470  146.3590 O   0  0  0  0  0  0  0  0  0  0  0  0
  189.5780  175.4220  143.8670 O   0  0  0  0  0  0  0  0  0  0  0  0
  190.4730  174.3710  144.1080 C   0  0  1  0  0  3  0  0  0  0  0  0
  189.1960  176.2680  146.0950 C   0  0  2  0  0  3  0  0  0  0  0  0
  189.8220  175.1240  146.8880 C   0  0  0  0  0  2  0  0  0  0  0  0
  189.9320  176.4450  144.7580 C   0  0  2  0  0  3  0  0  0  0  0  0
  189.8850  173.4030  145.0990 C   0  0  0  0  0  0  0  0  0  0  0  0
  189.7280  172.1920  144.8020 O   0  0  0  0  0  0  0  0  0  0  0  0
  189.2930  177.4320  146.8600 O   0  0  0  0  0  1  0  0  0  0  0  0
  191.0390  173.7410  142.8120 C   0  0  1  0  0  0  0  0  0  0  0  0
  192.4450  173.9000  142.3070 C   0  0  2  0  0  3  0  0  0  0  0  0
  192.0560  172.8100  143.1170 O   0  0  0  0  0  0  0  0  0  0  0  0
  193.2990  174.9080  143.0420 C   0  0  0  0  0  0  0  0  0  0  0  0
  193.2960  176.1950  142.7150 C   0  0  0  0  0  2  0  0  0  0  0  0
  194.0450  174.5170  144.1600 O   0  0  0  0  0  0  0  0  0  0  0  0
  195.2170  175.2040  144.5860 C   0  0  0  0  0  2  0  0  0  0  0  0
  195.0760  175.6320  145.9320 O   0  0  0  0  0  0  0  0  0  0  0  0
  194.3800  176.7930  146.2690 C   0  0  0  0  0  0  0  0  0  0  0  0
  194.7860  177.9230  145.8860 O   0  0  0  0  0  0  0  0  0  0  0  0
  193.2240  176.7000  147.0300 O   0  0  0  0  0  1  0  0  0  0  0  0
  189.9890  173.1480  141.8580 C   0  0  1  0  0  3  0  0  0  0  0  0
  189.6910  174.0640  140.8460 O   0  0  0  0  0  1  0  0  0  0  0  0
  190.9060  171.7660  139.9880 O   0  0  0  0  0  0  0  0  0  0  0  0
  190.1250  170.7510  141.8870 O   0  0  0  0  0  1  0  0  0  0  0  0
  190.3540  171.8190  141.2600 C   0  0  0  0  0  0  0  0  0  0  0  0
  189.6410  177.8040  144.1200 C   0  0  0  0  0  2  0  0  0  0  0  0
  188.9790  177.6480  142.8680 O   0  0  0  0  0  0  0  0  0  0  0  0
  186.8250  178.1100  143.8430 C   0  0  0  0  0  3  0  0  0  0  0  0
  187.5990  177.8070  142.7180 C   0  0  0  0  0  0  0  0  0  0  0  0
  185.4390  178.2690  143.7290 C   0  0  0  0  0  0  0  0  0  0  0  0
  183.4460  178.2810  142.3420 O   0  0  0  0  0  1  0  0  0  0  0  0
  185.5920  177.8330  141.3490 C   0  0  0  0  0  3  0  0  0  0  0  0
  186.9740  177.6720  141.4680 C   0  0  0  0  0  3  0  0  0  0  0  0
  184.8210  178.1290  142.4760 C   0  0  0  0  0  0  0  0  0  0  0  0
  184.0490  178.8070  145.8550 N   0  0  0  0  0  0  0  0  0  0  0  0
  184.6690  178.5680  144.9060 C   0  0  0  0  0  0  0  0  0  0  0  0
  1  5  1  0  0  0  0
  2  6  1  0  0  0  0
  3  2  1  6  0  0  0
  3  7  1  0  0  0  0
  4  9  1  1  0  0  0
  4  5  1  0  0  0  0
  6 26  1  6  0  0  0
  6  4  1  0  0  0  0
  7  1  1  0  0  0  0
  8  7  2  0  0  0  0
 10 21  1  6  0  0  0
 10 12  1  0  0  0  0
 10  3  1  0  0  0  0
 11 10  1  0  0  0  0
 11 13  1  1  0  0  0
 11 12  1  0  0  0  0
 13 15  1  0  0  0  0
 14 13  2  0  0  0  0
 15 16  1  0  0  0  0
 16 17  1  0  0  0  0
 17 18  1  0  0  0  0
 18 20  1  0  0  0  0
 19 18  2  0  0  0  0
 21 22  1  6  0  0  0
 23 25  2  0  0  0  0
 25 21  1  0  0  0  0
 25 24  1  0  0  0  0
 27 26  1  0  0  0  0
 29 27  1  0  0  0  0
 29 28  2  0  0  0  0
 30 28  1  0  0  0  0
 30 36  1  0  0  0  0
 31 34  1  0  0  0  0
 32 33  2  0  0  0  0
 32 34  1  0  0  0  0
 33 29  1  0  0  0  0
 34 30  2  0  0  0  0
 36 35  3  0  0  0  0
M  END
>  <MODEL>
3

>  <REMARK>
 VINA RESULT:      -6.5      2.136      5.297
  Name = 
  12 active torsions:
  status: ('A' for Active; 'I' for Inactive)
    1  A    between atoms: C_3  and  C_9
    2  A    between atoms: C_3  and  C_13
    3  A    between atoms: C_4  and  O_35
    4  A    between atoms: C_7  and  O_30
    5  A    between atoms: C_10  and  O_12
    6  A    between atoms: C_10  and  C_24
    7  A    between atoms: C_11  and  C_28
    8  A    between atoms: O_12  and  C_36
    9  A    between atoms: C_13  and  C_25
   10  A    between atoms: C_20  and  C_23
   11  A    between atoms: C_23  and  O_30
   12  A    between atoms: O_35  and  C_36
                            x       y       z     vdW  Elec       q    Type
                         _______ _______ _______ _____ _____    ______ ____

>  <TORSDO>
F 12

$$$$
=
 OpenBabel11062422253D

 36 38  0  0  1  0  0  0  0  0999 V2000
  191.0610  172.4040  144.5950 O   0  0  0  0  0  0  0  0  0  0  0  0
  190.4290  174.9350  143.2200 O   0  0  0  0  0  0  0  0  0  0  0  0
  190.6750  174.8930  144.5980 C   0  0  1  0  0  3  0  0  0  0  0  0
  189.4010  172.7850  142.8330 C   0  0  2  0  0  3  0  0  0  0  0  0
  189.7280  172.1280  144.1710 C   0  0  0  0  0  2  0  0  0  0  0  0
  189.1960  174.2960  143.0250 C   0  0  2  0  0  3  0  0  0  0  0  0
  191.5030  173.6840  144.9420 C   0  0  0  0  0  0  0  0  0  0  0  0
  192.6150  173.8070  145.5170 O   0  0  0  0  0  0  0  0  0  0  0  0
  188.2390  172.1980  142.3320 O   0  0  0  0  0  1  0  0  0  0  0  0
  191.1840  176.2380  145.1700 C   0  0  1  0  0  0  0  0  0  0  0  0
  192.3790  177.0020  144.6730 C   0  0  2  0  0  3  0  0  0  0  0  0
  191.0720  177.2620  144.2040 O   0  0  0  0  0  0  0  0  0  0  0  0
  193.2410  176.2880  143.6570 C   0  0  0  0  0  0  0  0  0  0  0  0
  193.0120  176.3920  142.3530 C   0  0  0  0  0  2  0  0  0  0  0  0
  194.3720  175.5760  144.0700 O   0  0  0  0  0  0  0  0  0  0  0  0
  195.6880  176.1190  144.0230 C   0  0  0  0  0  2  0  0  0  0  0  0
  196.6460  175.0820  143.8780 O   0  0  0  0  0  0  0  0  0  0  0  0
  196.9630  174.2180  144.9260 C   0  0  0  0  0  0  0  0  0  0  0  0
  197.8730  173.3550  144.7990 O   0  0  0  0  0  0  0  0  0  0  0  0
  196.2710  174.3140  146.1250 O   0  0  0  0  0  1  0  0  0  0  0  0
  190.5680  176.6530  146.5170 C   0  0  1  0  0  3  0  0  0  0  0  0
  189.3630  177.3260  146.3040 O   0  0  0  0  0  1  0  0  0  0  0  0
  191.4100  175.1500  148.3260 O   0  0  0  0  0  1  0  0  0  0  0  0
  189.2730  174.9070  147.5370 O   0  0  0  0  0  0  0  0  0  0  0  0
  190.3670  175.5310  147.4950 C   0  0  0  0  0  0  0  0  0  0  0  0
  188.4710  174.9310  141.8390 C   0  0  0  0  0  2  0  0  0  0  0  0
  187.1160  175.2230  142.1660 O   0  0  0  0  0  0  0  0  0  0  0  0
  186.0180  176.5450  143.8540 C   0  0  0  0  0  3  0  0  0  0  0  0
  186.7060  176.4730  142.6400 C   0  0  0  0  0  0  0  0  0  0  0  0
  185.5870  177.7790  144.3550 C   0  0  0  0  0  0  0  0  0  0  0  0
  185.4320  180.1910  144.1120 O   0  0  0  0  0  1  0  0  0  0  0  0
  186.5460  178.8870  142.4230 C   0  0  0  0  0  3  0  0  0  0  0  0
  186.9720  177.6530  141.9270 C   0  0  0  0  0  3  0  0  0  0  0  0
  185.8520  178.9550  143.6340 C   0  0  0  0  0  0  0  0  0  0  0  0
  184.2940  177.8530  146.6040 N   0  0  0  0  0  0  0  0  0  0  0  0
  184.8700  177.8190  145.6010 C   0  0  0  0  0  0  0  0  0  0  0  0
  1  7  1  0  0  0  0
  3  2  1  6  0  0  0
  3  7  1  0  0  0  0
  3 10  1  0  0  0  0
  4  9  1  1  0  0  0
  4  6  1  0  0  0  0
  4  5  1  0  0  0  0
  5  1  1  0  0  0  0
  6 26  1  6  0  0  0
  6  2  1  0  0  0  0
  7  8  2  0  0  0  0
 10 21  1  1  0  0  0
 11 13  1  6  0  0  0
 11 10  1  0  0  0  0
 12 11  1  0  0  0  0
 12 10  1  0  0  0  0
 13 15  1  0  0  0  0
 14 13  2  0  0  0  0
 16 15  1  0  0  0  0
 17 16  1  0  0  0  0
 17 18  1  0  0  0  0
 18 20  1  0  0  0  0
 19 18  2  0  0  0  0
 21 22  1  6  0  0  0
 21 25  1  0  0  0  0
 25 24  2  0  0  0  0
 25 23  1  0  0  0  0
 26 27  1  0  0  0  0
 27 29  1  0  0  0  0
 28 30  1  0  0  0  0
 29 28  2  0  0  0  0
 30 36  1  0  0  0  0
 32 34  1  0  0  0  0
 33 32  2  0  0  0  0
 33 29  1  0  0  0  0
 34 31  1  0  0  0  0
 34 30  2  0  0  0  0
 36 35  3  0  0  0  0
M  END
>  <MODEL>
4

>  <REMARK>
 VINA RESULT:      -6.4      2.021      5.378
  Name = 
  12 active torsions:
  status: ('A' for Active; 'I' for Inactive)
    1  A    between atoms: C_3  and  C_9
    2  A    between atoms: C_3  and  C_13
    3  A    between atoms: C_4  and  O_35
    4  A    between atoms: C_7  and  O_30
    5  A    between atoms: C_10  and  O_12
    6  A    between atoms: C_10  and  C_24
    7  A    between atoms: C_11  and  C_28
    8  A    between atoms: O_12  and  C_36
    9  A    between atoms: C_13  and  C_25
   10  A    between atoms: C_20  and  C_23
   11  A    between atoms: C_23  and  O_30
   12  A    between atoms: O_35  and  C_36
                            x       y       z     vdW  Elec       q    Type
                         _______ _______ _______ _____ _____    ______ ____

>  <TORSDO>
F 12

$$$$
=
 OpenBabel11062422253D

 36 38  0  0  1  0  0  0  0  0999 V2000
  187.7780  176.0680  146.7250 O   0  0  0  0  0  0  0  0  0  0  0  0
  189.5450  177.1460  144.6240 O   0  0  0  0  0  0  0  0  0  0  0  0
  188.4430  176.3380  144.3110 C   0  0  1  0  0  3  0  0  0  0  0  0
  190.2210  176.2550  146.7630 C   0  0  2  0  0  3  0  0  0  0  0  0
  188.9930  175.3990  147.0570 C   0  0  0  0  0  2  0  0  0  0  0  0
  190.4770  176.3050  145.2490 C   0  0  2  0  0  3  0  0  0  0  0  0
  187.4220  176.4010  145.4140 C   0  0  0  0  0  0  0  0  0  0  0  0
  186.2460  176.7810  145.1830 O   0  0  0  0  0  0  0  0  0  0  0  0
  191.3140  175.6880  147.4210 O   0  0  0  0  0  1  0  0  0  0  0  0
  187.9000  176.5730  142.8810 C   0  0  1  0  0  0  0  0  0  0  0  0
  187.8510  175.5440  141.7860 C   0  0  2  0  0  3  0  0  0  0  0  0
  186.7560  175.7770  142.6490 O   0  0  0  0  0  0  0  0  0  0  0  0
  188.5630  174.2420  142.0730 C   0  0  0  0  0  0  0  0  0  0  0  0
  187.9300  173.0760  142.0240 C   0  0  0  0  0  2  0  0  0  0  0  0
  189.9440  174.2300  142.3020 O   0  0  0  0  0  0  0  0  0  0  0  0
  190.8010  173.2050  141.8080 C   0  0  0  0  0  2  0  0  0  0  0  0
  190.9600  172.1840  142.7810 O   0  0  0  0  0  0  0  0  0  0  0  0
  191.6590  172.3980  143.9690 C   0  0  0  0  0  0  0  0  0  0  0  0
  191.1110  172.9730  144.9470 O   0  0  0  0  0  1  0  0  0  0  0  0
  192.9750  171.9690  144.0740 O   0  0  0  0  0  0  0  0  0  0  0  0
  187.6580  178.0440  142.5040 C   0  0  1  0  0  3  0  0  0  0  0  0
  188.6400  178.4760  141.6100 O   0  0  0  0  0  1  0  0  0  0  0  0
  186.0570  178.2130  140.5920 O   0  0  0  0  0  0  0  0  0  0  0  0
  185.3710  178.7470  142.7120 O   0  0  0  0  0  1  0  0  0  0  0  0
  186.2920  178.3410  141.9540 C   0  0  0  0  0  0  0  0  0  0  0  0
  191.8940  176.7800  144.9230 C   0  0  0  0  0  2  0  0  0  0  0  0
  192.5760  175.8290  144.1110 O   0  0  0  0  0  0  0  0  0  0  0  0
  194.8400  175.5230  143.3450 C   0  0  0  0  0  3  0  0  0  0  0  0
  193.8890  175.4230  144.3650 C   0  0  0  0  0  0  0  0  0  0  0  0
  196.1620  175.1190  143.5630 C   0  0  0  0  0  0  0  0  0  0  0  0
  197.8450  174.2040  145.0560 O   0  0  0  0  0  1  0  0  0  0  0  0
  195.5920  174.5180  145.8430 C   0  0  0  0  0  3  0  0  0  0  0  0
  194.2740  174.9200  145.6190 C   0  0  0  0  0  3  0  0  0  0  0  0
  196.5380  174.6130  144.8180 C   0  0  0  0  0  0  0  0  0  0  0  0
  197.8800  175.3040  141.6260 N   0  0  0  0  0  0  0  0  0  0  0  0
  197.1130  175.2220  142.4900 C   0  0  0  0  0  0  0  0  0  0  0  0
  1  5  1  0  0  0  0
  2  6  1  0  0  0  0
  3  2  1  1  0  0  0
  3  7  1  0  0  0  0
  4  5  1  0  0  0  0
  4  9  1  1  0  0  0
  6 26  1  1  0  0  0
  6  4  1  0  0  0  0
  7  1  1  0  0  0  0
  8  7  2  0  0  0  0
 10 21  1  6  0  0  0
 10  3  1  0  0  0  0
 11 13  1  1  0  0  0
 11 12  1  0  0  0  0
 11 10  1  0  0  0  0
 12 10  1  0  0  0  0
 13 15  1  0  0  0  0
 14 13  2  0  0  0  0
 16 15  1  0  0  0  0
 16 17  1  0  0  0  0
 17 18  1  0  0  0  0
 18 20  2  0  0  0  0
 18 19  1  0  0  0  0
 21 22  1  6  0  0  0
 23 25  2  0  0  0  0
 25 21  1  0  0  0  0
 25 24  1  0  0  0  0
 27 29  1  0  0  0  0
 27 26  1  0  0  0  0
 28 30  2  0  0  0  0
 28 29  1  0  0  0  0
 29 33  2  0  0  0  0
 30 34  1  0  0  0  0
 33 32  1  0  0  0  0
 34 31  1  0  0  0  0
 34 32  2  0  0  0  0
 35 36  3  0  0  0  0
 36 30  1  0  0  0  0
M  END
>  <MODEL>
5

>  <REMARK>
 VINA RESULT:      -6.2      3.245      8.165
  Name = 
  12 active torsions:
  status: ('A' for Active; 'I' for Inactive)
    1  A    between atoms: C_3  and  C_9
    2  A    between atoms: C_3  and  C_13
    3  A    between atoms: C_4  and  O_35
    4  A    between atoms: C_7  and  O_30
    5  A    between atoms: C_10  and  O_12
    6  A    between atoms: C_10  and  C_24
    7  A    between atoms: C_11  and  C_28
    8  A    between atoms: O_12  and  C_36
    9  A    between atoms: C_13  and  C_25
   10  A    between atoms: C_20  and  C_23
   11  A    between atoms: C_23  and  O_30
   12  A    between atoms: O_35  and  C_36
                            x       y       z     vdW  Elec       q    Type
                         _______ _______ _______ _____ _____    ______ ____

>  <TORSDO>
F 12

$$$$
=
 OpenBabel11062422253D

 36 38  0  0  1  0  0  0  0  0999 V2000
  190.2680  173.0230  145.3310 O   0  0  0  0  0  0  0  0  0  0  0  0
  189.7410  175.3130  143.5480 O   0  0  0  0  0  0  0  0  0  0  0  0
  189.3380  175.3220  144.8900 C   0  0  1  0  0  3  0  0  0  0  0  0
  189.5490  172.9720  142.9890 C   0  0  2  0  0  3  0  0  0  0  0  0
  189.3820  172.4100  144.3980 C   0  0  0  0  0  2  0  0  0  0  0  0
  188.9230  174.3730  142.9040 C   0  0  2  0  0  3  0  0  0  0  0  0
  190.1840  174.3710  145.6930 C   0  0  0  0  0  0  0  0  0  0  0  0
  190.8490  174.7760  146.6810 O   0  0  0  0  0  0  0  0  0  0  0  0
  188.9180  172.1040  142.0960 O   0  0  0  0  0  1  0  0  0  0  0  0
  189.1930  176.7470  145.4760 C   0  0  1  0  0  0  0  0  0  0  0  0
  190.1120  177.9030  145.1970 C   0  0  2  0  0  3  0  0  0  0  0  0
  188.9350  177.6810  144.4480 O   0  0  0  0  0  0  0  0  0  0  0  0
  191.3720  177.5730  144.4290 C   0  0  0  0  0  0  0  0  0  0  0  0
  191.5240  177.9190  143.1560 C   0  0  0  0  0  2  0  0  0  0  0  0
  192.4570  176.9750  145.0800 O   0  0  0  0  0  0  0  0  0  0  0  0
  193.2790  175.9880  144.4660 C   0  0  0  0  0  2  0  0  0  0  0  0
  194.6310  176.4180  144.4390 O   0  0  0  0  0  0  0  0  0  0  0  0
  195.5050  176.0440  143.4170 C   0  0  0  0  0  0  0  0  0  0  0  0
  195.3020  176.4090  142.2280 O   0  0  0  0  0  0  0  0  0  0  0  0
  196.6120  175.2630  143.7160 O   0  0  0  0  0  1  0  0  0  0  0  0
  188.1920  176.8820  146.6350 C   0  0  1  0  0  3  0  0  0  0  0  0
  188.6770  177.7840  147.5840 O   0  0  0  0  0  1  0  0  0  0  0  0
  186.3300  178.5420  146.4880 O   0  0  0  0  0  1  0  0  0  0  0  0
  186.0350  176.4150  145.6900 O   0  0  0  0  0  0  0  0  0  0  0  0
  186.7970  177.2610  146.2270 C   0  0  0  0  0  0  0  0  0  0  0  0
  188.6850  174.8070  141.4580 C   0  0  0  0  0  2  0  0  0  0  0  0
  188.5320  176.2200  141.3680 O   0  0  0  0  0  0  0  0  0  0  0  0
  186.5530  177.2920  142.2300 C   0  0  0  0  0  3  0  0  0  0  0  0
  187.2960  176.8330  141.1380 C   0  0  0  0  0  0  0  0  0  0  0  0
  185.3100  177.9040  142.0360 C   0  0  0  0  0  0  0  0  0  0  0  0
  183.5720  178.6660  140.5200 O   0  0  0  0  0  1  0  0  0  0  0  0
  185.5490  177.6110  139.6400 C   0  0  0  0  0  3  0  0  0  0  0  0
  186.7880  176.9990  139.8390 C   0  0  0  0  0  3  0  0  0  0  0  0
  184.8060  178.0630  140.7350 C   0  0  0  0  0  0  0  0  0  0  0  0
  183.9610  178.7160  144.1000 N   0  0  0  0  0  0  0  0  0  0  0  0
  184.5630  178.3550  143.1800 C   0  0  0  0  0  0  0  0  0  0  0  0
  1  7  1  0  0  0  0
  3  2  1  6  0  0  0
  3 10  1  0  0  0  0
  3  7  1  0  0  0  0
  4  9  1  6  0  0  0
  4  5  1  0  0  0  0
  5  1  1  0  0  0  0
  6 26  1  6  0  0  0
  6  4  1  0  0  0  0
  6  2  1  0  0  0  0
  7  8  2  0  0  0  0
 10 21  1  1  0  0  0
 11 13  1  6  0  0  0
 11 10  1  0  0  0  0
 12 11  1  0  0  0  0
 12 10  1  0  0  0  0
 13 15  1  0  0  0  0
 14 13  2  0  0  0  0
 16 15  1  0  0  0  0
 17 16  1  0  0  0  0
 18 20  1  0  0  0  0
 18 17  1  0  0  0  0
 19 18  2  0  0  0  0
 21 22  1  1  0  0  0
 24 25  2  0  0  0  0
 25 23  1  0  0  0  0
 25 21  1  0  0  0  0
 27 26  1  0  0  0  0
 29 27  1  0  0  0  0
 29 28  2  0  0  0  0
 30 28  1  0  0  0  0
 30 36  1  0  0  0  0
 31 34  1  0  0  0  0
 32 33  2  0  0  0  0
 32 34  1  0  0  0  0
 33 29  1  0  0  0  0
 34 30  2  0  0  0  0
 36 35  3  0  0  0  0
M  END
>  <MODEL>
6

>  <REMARK>
 VINA RESULT:      -6.2      1.672      5.172
  Name = 
  12 active torsions:
  status: ('A' for Active; 'I' for Inactive)
    1  A    between atoms: C_3  and  C_9
    2  A    between atoms: C_3  and  C_13
    3  A    between atoms: C_4  and  O_35
    4  A    between atoms: C_7  and  O_30
    5  A    between atoms: C_10  and  O_12
    6  A    between atoms: C_10  and  C_24
    7  A    between atoms: C_11  and  C_28
    8  A    between atoms: O_12  and  C_36
    9  A    between atoms: C_13  and  C_25
   10  A    between atoms: C_20  and  C_23
   11  A    between atoms: C_23  and  O_30
   12  A    between atoms: O_35  and  C_36
                            x       y       z     vdW  Elec       q    Type
                         _______ _______ _______ _____ _____    ______ ____

>  <TORSDO>
F 12

$$$$
=
 OpenBabel11062422253D

 36 38  0  0  1  0  0  0  0  0999 V2000
  190.0100  172.5540  143.4540 O   0  0  0  0  0  0  0  0  0  0  0  0
  189.4410  175.3790  142.8260 O   0  0  0  0  0  0  0  0  0  0  0  0
  189.3090  174.8780  144.1270 C   0  0  1  0  0  3  0  0  0  0  0  0
  188.8520  173.4550  141.4910 C   0  0  2  0  0  3  0  0  0  0  0  0
  188.8900  172.3930  142.5860 C   0  0  0  0  0  2  0  0  0  0  0  0
  188.4030  174.8020  142.0800 C   0  0  2  0  0  3  0  0  0  0  0  0
  190.1670  173.6540  144.3030 C   0  0  0  0  0  0  0  0  0  0  0  0
  191.0550  173.6120  145.1920 O   0  0  0  0  0  0  0  0  0  0  0  0
  187.9570  173.0330  140.5070 O   0  0  0  0  0  1  0  0  0  0  0  0
  189.4590  175.9640  145.2200 C   0  0  1  0  0  0  0  0  0  0  0  0
  190.5020  177.0460  145.2370 C   0  0  2  0  0  3  0  0  0  0  0  0
  189.2190  177.2460  144.6790 O   0  0  0  0  0  0  0  0  0  0  0  0
  191.5890  176.9300  144.1920 C   0  0  0  0  0  0  0  0  0  0  0  0
  191.5850  177.6800  143.0960 C   0  0  0  0  0  2  0  0  0  0  0  0
  192.6870  176.0910  144.4090 O   0  0  0  0  0  0  0  0  0  0  0  0
  193.7680  175.9780  143.4880 C   0  0  0  0  0  2  0  0  0  0  0  0
  194.6830  174.9830  143.9210 O   0  0  0  0  0  0  0  0  0  0  0  0
  194.7430  174.5630  145.2500 C   0  0  0  0  0  0  0  0  0  0  0  0
  195.0430  175.3700  146.1690 O   0  0  0  0  0  1  0  0  0  0  0  0
  194.4640  173.2400  145.5610 O   0  0  0  0  0  0  0  0  0  0  0  0
  188.6450  175.7230  146.5020 C   0  0  1  0  0  3  0  0  0  0  0  0
  189.4960  175.6880  147.6090 O   0  0  0  0  0  1  0  0  0  0  0  0
  187.7950  177.9060  147.3710 O   0  0  0  0  0  1  0  0  0  0  0  0
  186.3480  176.4160  146.4040 O   0  0  0  0  0  0  0  0  0  0  0  0
  187.5290  176.7000  146.7380 C   0  0  0  0  0  0  0  0  0  0  0  0
  187.9470  175.7780  140.9950 C   0  0  0  0  0  2  0  0  0  0  0  0
  187.8980  177.1100  141.4960 O   0  0  0  0  0  0  0  0  0  0  0  0
  185.5540  177.6590  141.4000 C   0  0  0  0  0  3  0  0  0  0  0  0
  186.7600  177.6470  142.1060 C   0  0  0  0  0  0  0  0  0  0  0  0
  184.3970  178.1940  141.9780 C   0  0  0  0  0  0  0  0  0  0  0  0
  183.3110  179.2590  143.8720 O   0  0  0  0  0  1  0  0  0  0  0  0
  185.6500  178.7030  143.9910 C   0  0  0  0  0  3  0  0  0  0  0  0
  186.8020  178.1700  143.4080 C   0  0  0  0  0  3  0  0  0  0  0  0
  184.4470  178.7200  143.2790 C   0  0  0  0  0  0  0  0  0  0  0  0
  182.1900  178.2110  140.6120 N   0  0  0  0  0  0  0  0  0  0  0  0
  183.1740  178.2040  141.2220 C   0  0  0  0  0  0  0  0  0  0  0  0
  1  7  1  0  0  0  0
  3  2  1  6  0  0  0
  3  7  1  0  0  0  0
  3 10  1  0  0  0  0
  4  9  1  6  0  0  0
  4  6  1  0  0  0  0
  4  5  1  0  0  0  0
  5  1  1  0  0  0  0
  6 26  1  6  0  0  0
  6  2  1  0  0  0  0
  7  8  2  0  0  0  0
 10 11  1  0  0  0  0
 10 21  1  1  0  0  0
 11 13  1  6  0  0  0
 12 10  1  0  0  0  0
 12 11  1  0  0  0  0
 13 15  1  0  0  0  0
 14 13  2  0  0  0  0
 16 17  1  0  0  0  0
 16 15  1  0  0  0  0
 17 18  1  0  0  0  0
 18 20  2  0  0  0  0
 18 19  1  0  0  0  0
 21 25  1  0  0  0  0
 21 22  1  1  0  0  0
 24 25  2  0  0  0  0
 25 23  1  0  0  0  0
 26 27  1  0  0  0  0
 27 29  1  0  0  0  0
 28 30  2  0  0  0  0
 28 29  1  0  0  0  0
 29 33  2  0  0  0  0
 30 34  1  0  0  0  0
 33 32  1  0  0  0  0
 34 31  1  0  0  0  0
 34 32  2  0  0  0  0
 35 36  3  0  0  0  0
 36 30  1  0  0  0  0
M  END
>  <MODEL>
7

>  <REMARK>
 VINA RESULT:      -6.1      1.274      4.662
  Name = 
  12 active torsions:
  status: ('A' for Active; 'I' for Inactive)
    1  A    between atoms: C_3  and  C_9
    2  A    between atoms: C_3  and  C_13
    3  A    between atoms: C_4  and  O_35
    4  A    between atoms: C_7  and  O_30
    5  A    between atoms: C_10  and  O_12
    6  A    between atoms: C_10  and  C_24
    7  A    between atoms: C_11  and  C_28
    8  A    between atoms: O_12  and  C_36
    9  A    between atoms: C_13  and  C_25
   10  A    between atoms: C_20  and  C_23
   11  A    between atoms: C_23  and  O_30
   12  A    between atoms: O_35  and  C_36
                            x       y       z     vdW  Elec       q    Type
                         _______ _______ _______ _____ _____    ______ ____

>  <TORSDO>
F 12

$$$$
=
 OpenBabel11062422253D

 36 38  0  0  1  0  0  0  0  0999 V2000
  191.5860  174.6610  146.8070 O   0  0  0  0  0  0  0  0  0  0  0  0
  191.3500  176.1350  144.2630 O   0  0  0  0  0  0  0  0  0  0  0  0
  192.5990  175.8390  144.8260 C   0  0  1  0  0  3  0  0  0  0  0  0
  189.9760  176.4160  146.2290 C   0  0  2  0  0  3  0  0  0  0  0  0
  190.9370  175.8440  147.2670 C   0  0  0  0  0  2  0  0  0  0  0  0
  190.7660  177.0970  145.1000 C   0  0  2  0  0  3  0  0  0  0  0  0
  192.4900  174.6500  145.7410 C   0  0  0  0  0  0  0  0  0  0  0  0
  193.1840  173.6200  145.5440 O   0  0  0  0  0  0  0  0  0  0  0  0
  189.1460  177.3390  146.8660 O   0  0  0  0  0  1  0  0  0  0  0  0
  193.7410  175.7790  143.7820 C   0  0  1  0  0  0  0  0  0  0  0  0
  193.6900  175.0380  142.4750 C   0  0  2  0  0  3  0  0  0  0  0  0
  193.3460  176.4050  142.5790 O   0  0  0  0  0  0  0  0  0  0  0  0
  192.4920  174.1400  142.2730 C   0  0  0  0  0  0  0  0  0  0  0  0
  191.4180  174.5490  141.6070 C   0  0  0  0  0  2  0  0  0  0  0  0
  192.5290  172.8080  142.7020 O   0  0  0  0  0  0  0  0  0  0  0  0
  191.6330  171.8130  142.2160 C   0  0  0  0  0  2  0  0  0  0  0  0
  190.8470  171.2950  143.2780 O   0  0  0  0  0  0  0  0  0  0  0  0
  189.7460  171.9850  143.7860 C   0  0  0  0  0  0  0  0  0  0  0  0
  189.6910  172.3060  145.0030 O   0  0  0  0  0  1  0  0  0  0  0  0
  188.7020  172.3250  142.9380 O   0  0  0  0  0  0  0  0  0  0  0  0
  195.1050  176.2920  144.2710 C   0  0  1  0  0  3  0  0  0  0  0  0
  194.9290  177.1780  145.3360 O   0  0  0  0  0  1  0  0  0  0  0  0
  196.0660  174.6880  145.9290 O   0  0  0  0  0  1  0  0  0  0  0  0
  196.9580  174.8320  143.8240 O   0  0  0  0  0  0  0  0  0  0  0  0
  196.0880  175.2210  144.6480 C   0  0  0  0  0  0  0  0  0  0  0  0
  189.8870  178.0320  144.2690 C   0  0  0  0  0  2  0  0  0  0  0  0
  189.1030  177.2980  143.3330 O   0  0  0  0  0  0  0  0  0  0  0  0
  186.9240  177.8080  144.2250 C   0  0  0  0  0  3  0  0  0  0  0  0
  187.7440  177.5510  143.1230 C   0  0  0  0  0  0  0  0  0  0  0  0
  185.5580  178.0580  144.0510 C   0  0  0  0  0  0  0  0  0  0  0  0
  183.6530  178.3000  142.5640 O   0  0  0  0  0  1  0  0  0  0  0  0
  185.8260  177.8060  141.6540 C   0  0  0  0  0  3  0  0  0  0  0  0
  187.1880  177.5540  141.8340 C   0  0  0  0  0  3  0  0  0  0  0  0
  185.0070  178.0560  142.7590 C   0  0  0  0  0  0  0  0  0  0  0  0
  184.0780  178.5080  146.1360 N   0  0  0  0  0  0  0  0  0  0  0  0
  184.7370  178.3070  145.2060 C   0  0  0  0  0  0  0  0  0  0  0  0
  1  5  1  0  0  0  0
  2  6  1  0  0  0  0
  3  2  1  6  0  0  0
  3  7  1  0  0  0  0
  4  9  1  1  0  0  0
  4  5  1  0  0  0  0
  6 26  1  6  0  0  0
  6  4  1  0  0  0  0
  7  1  1  0  0  0  0
  8  7  2  0  0  0  0
 10 21  1  1  0  0  0
 10  3  1  0  0  0  0
 11 13  1  1  0  0  0
 11 12  1  0  0  0  0
 11 10  1  0  0  0  0
 12 10  1  0  0  0  0
 13 15  1  0  0  0  0
 14 13  2  0  0  0  0
 16 15  1  0  0  0  0
 16 17  1  0  0  0  0
 17 18  1  0  0  0  0
 18 19  1  0  0  0  0
 20 18  2  0  0  0  0
 21 25  1  0  0  0  0
 21 22  1  1  0  0  0
 24 25  2  0  0  0  0
 25 23  1  0  0  0  0
 27 26  1  0  0  0  0
 29 27  1  0  0  0  0
 29 28  2  0  0  0  0
 30 28  1  0  0  0  0
 30 36  1  0  0  0  0
 31 34  1  0  0  0  0
 32 33  2  0  0  0  0
 32 34  1  0  0  0  0
 33 29  1  0  0  0  0
 34 30  2  0  0  0  0
 36 35  3  0  0  0  0
M  END
>  <MODEL>
8

>  <REMARK>
 VINA RESULT:      -6.1      2.154      4.860
  Name = 
  12 active torsions:
  status: ('A' for Active; 'I' for Inactive)
    1  A    between atoms: C_3  and  C_9
    2  A    between atoms: C_3  and  C_13
    3  A    between atoms: C_4  and  O_35
    4  A    between atoms: C_7  and  O_30
    5  A    between atoms: C_10  and  O_12
    6  A    between atoms: C_10  and  C_24
    7  A    between atoms: C_11  and  C_28
    8  A    between atoms: O_12  and  C_36
    9  A    between atoms: C_13  and  C_25
   10  A    between atoms: C_20  and  C_23
   11  A    between atoms: C_23  and  O_30
   12  A    between atoms: O_35  and  C_36
                            x       y       z     vdW  Elec       q    Type
                         _______ _______ _______ _____ _____    ______ ____

>  <TORSDO>
F 12

$$$$
=
 OpenBabel11062422253D

 36 38  0  0  1  0  0  0  0  0999 V2000
  191.7540  177.1870  144.1740 O   0  0  0  0  0  0  0  0  0  0  0  0
  189.8840  175.1350  143.1770 O   0  0  0  0  0  0  0  0  0  0  0  0
  191.2720  174.9770  143.0670 C   0  0  1  0  0  3  0  0  0  0  0  0
  189.6420  177.5290  142.9800 C   0  0  2  0  0  3  0  0  0  0  0  0
  191.1070  177.9240  143.1400 C   0  0  0  0  0  2  0  0  0  0  0  0
  189.5390  176.1620  142.2860 C   0  0  2  0  0  3  0  0  0  0  0  0
  191.9750  175.8080  144.1060 C   0  0  0  0  0  0  0  0  0  0  0  0
  192.7450  175.2750  144.9450 O   0  0  0  0  0  0  0  0  0  0  0  0
  189.0080  178.5100  142.2150 O   0  0  0  0  0  1  0  0  0  0  0  0
  191.7130  173.4950  142.9830 C   0  0  1  0  0  0  0  0  0  0  0  0
  191.9550  172.7270  141.7140 C   0  0  2  0  0  3  0  0  0  0  0  0
  192.9960  173.3930  142.4010 O   0  0  0  0  0  0  0  0  0  0  0  0
  191.5510  173.4240  140.4350 C   0  0  0  0  0  0  0  0  0  0  0  0
  192.4490  173.8030  139.5340 C   0  0  0  0  0  2  0  0  0  0  0  0
  190.1970  173.5970  140.1250 O   0  0  0  0  0  0  0  0  0  0  0  0
  189.2290  172.5640  140.2830 C   0  0  0  0  0  2  0  0  0  0  0  0
  188.1410  172.7680  139.3950 O   0  0  0  0  0  0  0  0  0  0  0  0
  188.2710  173.5210  138.2290 C   0  0  0  0  0  0  0  0  0  0  0  0
  188.8990  173.0690  137.2350 O   0  0  0  0  0  0  0  0  0  0  0  0
  187.6970  174.7830  138.1630 O   0  0  0  0  0  1  0  0  0  0  0  0
  191.6190  172.7070  144.3000 C   0  0  1  0  0  3  0  0  0  0  0  0
  190.3920  172.0440  144.3740 O   0  0  0  0  0  1  0  0  0  0  0  0
  192.6200  170.4240  144.1260 O   0  0  0  0  0  0  0  0  0  0  0  0
  193.7790  172.1080  145.1600 O   0  0  0  0  0  1  0  0  0  0  0  0
  192.7440  171.7420  144.5430 C   0  0  0  0  0  0  0  0  0  0  0  0
  188.1380  175.9070  141.7280 C   0  0  0  0  0  2  0  0  0  0  0  0
  187.2380  175.5260  142.7640 O   0  0  0  0  0  0  0  0  0  0  0  0
  186.5030  176.6280  144.7770 C   0  0  0  0  0  3  0  0  0  0  0  0
  186.3870  176.4370  143.3970 C   0  0  0  0  0  0  0  0  0  0  0  0
  185.6630  177.5270  145.4430 C   0  0  0  0  0  0  0  0  0  0  0  0
  183.8520  179.1430  145.3620 O   0  0  0  0  0  1  0  0  0  0  0  0
  184.5840  178.0640  143.3390 C   0  0  0  0  0  3  0  0  0  0  0  0
  185.4230  177.1640  142.6790 C   0  0  0  0  0  3  0  0  0  0  0  0
  184.6980  178.2470  144.7200 C   0  0  0  0  0  0  0  0  0  0  0  0
  185.9080  177.8250  148.0100 N   0  0  0  0  0  0  0  0  0  0  0  0
  185.7980  177.6910  146.8660 C   0  0  0  0  0  0  0  0  0  0  0  0
  3  2  1  1  0  0  0
  3  7  1  0  0  0  0
  4  9  1  6  0  0  0
  4  5  1  0  0  0  0
  5  1  1  0  0  0  0
  6 26  1  1  0  0  0
  6  4  1  0  0  0  0
  6  2  1  0  0  0  0
  7  1  1  0  0  0  0
  7  8  2  0  0  0  0
 10  3  1  0  0  0  0
 10 21  1  1  0  0  0
 11 13  1  6  0  0  0
 11 12  1  0  0  0  0
 11 10  1  0  0  0  0
 12 10  1  0  0  0  0
 14 13  2  0  0  0  0
 15 16  1  0  0  0  0
 15 13  1  0  0  0  0
 17 16  1  0  0  0  0
 18 17  1  0  0  0  0
 19 18  2  0  0  0  0
 20 18  1  0  0  0  0
 21 22  1  6  0  0  0
 21 25  1  0  0  0  0
 23 25  2  0  0  0  0
 25 24  1  0  0  0  0
 26 27  1  0  0  0  0
 27 29  1  0  0  0  0
 28 30  1  0  0  0  0
 29 28  2  0  0  0  0
 30 36  1  0  0  0  0
 32 34  1  0  0  0  0
 33 32  2  0  0  0  0
 33 29  1  0  0  0  0
 34 31  1  0  0  0  0
 34 30  2  0  0  0  0
 36 35  3  0  0  0  0
M  END
>  <MODEL>
9

>  <REMARK>
 VINA RESULT:      -6.1      2.608      5.802
  Name = 
  12 active torsions:
  status: ('A' for Active; 'I' for Inactive)
    1  A    between atoms: C_3  and  C_9
    2  A    between atoms: C_3  and  C_13
    3  A    between atoms: C_4  and  O_35
    4  A    between atoms: C_7  and  O_30
    5  A    between atoms: C_10  and  O_12
    6  A    between atoms: C_10  and  C_24
    7  A    between atoms: C_11  and  C_28
    8  A    between atoms: O_12  and  C_36
    9  A    between atoms: C_13  and  C_25
   10  A    between atoms: C_20  and  C_23
   11  A    between atoms: C_23  and  O_30
   12  A    between atoms: O_35  and  C_36
                            x       y       z     vdW  Elec       q    Type
                         _______ _______ _______ _____ _____    ______ ____

>  <TORSDO>
F 12

$$$$
