=
 OpenBabel11062419583D

 28 29  0  0  1  0  0  0  0  0999 V2000
  184.4980  178.4270  143.7700 C   0  0  0  0  0  0  0  0  0  0  0  0
  185.8290  178.1410  143.7570 N   0  0  0  0  0  0  0  0  0  0  0  0
  183.8930  178.7670  144.9400 N   0  0  0  0  0  0  0  0  0  0  0  0
  186.5660  178.1870  144.8980 C   0  0  0  0  0  0  0  0  0  0  0  0
  184.5980  178.8290  146.1010 C   0  0  0  0  0  3  0  0  0  0  0  0
  185.9610  178.5400  146.1030 C   0  0  0  0  0  3  0  0  0  0  0  0
  183.1970  178.1500  140.4020 N   0  0  0  0  0  0  0  0  0  0  0  0
  182.1140  178.4250  141.1590 C   0  0  0  0  0  0  0  0  0  0  0  0
  184.2230  178.1120  141.2710 C   0  0  0  0  0  2  0  0  0  0  0  0
  182.3900  178.5710  142.4680 N   0  0  0  0  0  0  0  0  0  0  0  0
  183.7180  178.3700  142.5280 C   0  0  0  0  0  0  0  0  0  0  0  0
  180.7330  178.5790  140.6030 C   0  0  2  0  0  3  0  0  0  0  0  0
  180.3140  180.0400  140.5730 C   0  0  0  0  0  1  0  0  0  0  0  0
  179.7820  177.7850  141.3440 N   0  0  0  0  0  0  0  0  0  0  0  0
  179.1030  178.2700  142.1990 O   0  0  0  0  0  0  0  0  0  0  0  0
  188.0240  177.8920  144.8530 C   0  0  0  0  0  2  0  0  0  0  0  0
  188.2960  176.5390  145.4870 C   0  0  0  0  0  2  0  0  0  0  0  0
  189.4890  175.8700  144.8200 C   0  0  2  0  0  3  0  0  0  0  0  0
  190.5790  176.9040  147.2630 O   0  0  0  0  0  1  0  0  0  0  0  0
  190.9820  176.0810  145.8420 P   0  0  0  0  0  0  0  0  0  0  0  0
  191.5680  174.7320  146.1920 O   0  0  0  0  0  1  0  0  0  0  0  0
  192.1260  176.9810  144.9820 O   0  0  0  0  0  0  0  0  0  0  0  0
  189.7160  176.3940  143.4040 C   0  0  0  0  0  2  0  0  0  0  0  0
  189.6110  175.3640  142.4630 O   0  0  0  0  0  0  0  0  0  0  0  0
  186.9860  175.2380  142.4020 O   0  0  0  0  0  1  0  0  0  0  0  0
  188.2120  174.8680  140.1160 O   0  0  0  0  0  0  0  0  0  0  0  0
  188.0780  177.3460  141.3140 O   0  0  0  0  0  1  0  0  0  0  0  0
  188.1880  175.6830  141.6000 P   0  0  0  0  0  0  0  0  0  0  0  0
  1  3  1  0  0  0  0
  2  1  2  0  0  0  0
  2  4  1  0  0  0  0
  3  5  2  0  0  0  0
  4  6  2  0  0  0  0
  5  6  1  0  0  0  0
  7  8  2  0  0  0  0
  7  9  1  0  0  0  0
  8 10  1  0  0  0  0
  9 11  1  0  0  0  0
 10 11  2  0  0  0  0
 11  1  1  0  0  0  0
 12 13  1  1  0  0  0
 12  8  1  0  0  0  0
 12 14  1  0  0  0  0
 14 15  2  0  0  0  0
 16  4  1  0  0  0  0
 16 17  1  0  0  0  0
 18 23  1  6  0  0  0
 18 17  1  0  0  0  0
 18 20  1  0  0  0  0
 20 21  1  0  0  0  0
 20 19  1  0  0  0  0
 22 20  2  0  0  0  0
 24 23  1  0  0  0  0
 26 28  2  0  0  0  0
 27 28  1  0  0  0  0
 28 25  1  0  0  0  0
 28 24  1  0  0  0  0
M  END
>  <MODEL>
1

>  <REMARK>
 VINA RESULT:      -6.2      0.000      0.000
  Name = 
  10 active torsions:
  status: ('A' for Active; 'I' for Inactive)
    1  A    between atoms: O_1  and  C_5
    2  A    between atoms: O_1  and  P_23
    3  A    between atoms: N_2  and  C_6
    4  A    between atoms: C_3  and  C_17
    5  A    between atoms: C_5  and  C_19
    6  A    between atoms: C_6  and  C_10
    7  A    between atoms: P_16  and  C_19
    8  A    between atoms: C_18  and  C_19
    9  A    between atoms: C_18  and  C_22
   10  A    between atoms: C_20  and  C_22
                            x       y       z     vdW  Elec       q    Type
                         _______ _______ _______ _____ _____    ______ ____

>  <TORSDO>
F 10

$$$$
=
 OpenBabel11062419583D

 28 29  0  0  1  0  0  0  0  0999 V2000
  192.0620  175.8970  146.0990 C   0  0  0  0  0  0  0  0  0  0  0  0
  191.1400  176.5960  145.3820 N   0  0  0  0  0  0  0  0  0  0  0  0
  191.6880  175.2640  147.2430 N   0  0  0  0  0  0  0  0  0  0  0  0
  189.8470  176.6760  145.7930 C   0  0  0  0  0  0  0  0  0  0  0  0
  190.4030  175.3160  147.6840 C   0  0  0  0  0  3  0  0  0  0  0  0
  189.4470  176.0280  146.9610 C   0  0  0  0  0  3  0  0  0  0  0  0
  195.4220  176.4100  144.8490 N   0  0  0  0  0  0  0  0  0  0  0  0
  195.3670  175.0910  145.1330 C   0  0  0  0  0  0  0  0  0  0  0  0
  194.2050  176.8830  145.1730 C   0  0  0  0  0  2  0  0  0  0  0  0
  194.1760  174.6900  145.6150 N   0  0  0  0  0  0  0  0  0  0  0  0
  193.4540  175.8240  145.6400 C   0  0  0  0  0  0  0  0  0  0  0  0
  196.5070  174.1490  144.9100 C   0  0  2  0  0  3  0  0  0  0  0  0
  197.0190  173.5880  146.2270 C   0  0  0  0  0  1  0  0  0  0  0  0
  197.5730  174.7860  144.1720 N   0  0  0  0  0  0  0  0  0  0  0  0
  197.6710  174.6530  142.9890 O   0  0  0  0  0  0  0  0  0  0  0  0
  188.8540  177.4280  144.9800 C   0  0  0  0  0  2  0  0  0  0  0  0
  187.4590  176.8800  145.2340 C   0  0  0  0  0  2  0  0  0  0  0  0
  186.4070  177.8200  144.6630 C   0  0  2  0  0  3  0  0  0  0  0  0
  183.7930  178.8890  145.1620 O   0  0  0  0  0  0  0  0  0  0  0  0
  185.1210  178.1550  145.9080 P   0  0  0  0  0  0  0  0  0  0  0  0
  184.6800  176.8650  146.5610 O   0  0  0  0  0  1  0  0  0  0  0  0
  185.7410  179.1950  147.0890 O   0  0  0  0  0  1  0  0  0  0  0  0
  185.7950  177.2730  143.3760 C   0  0  0  0  0  2  0  0  0  0  0  0
  185.9830  178.1610  142.3110 O   0  0  0  0  0  0  0  0  0  0  0  0
  188.4860  178.1830  141.5090 O   0  0  0  0  0  1  0  0  0  0  0  0
  186.7040  177.5090  139.7100 O   0  0  0  0  0  0  0  0  0  0  0  0
  187.3740  175.8370  141.7960 O   0  0  0  0  0  1  0  0  0  0  0  0
  187.1740  177.4520  141.3350 P   0  0  0  0  0  0  0  0  0  0  0  0
  1  3  1  0  0  0  0
  2  4  1  0  0  0  0
  2  1  2  0  0  0  0
  3  5  2  0  0  0  0
  4  6  2  0  0  0  0
  6  5  1  0  0  0  0
  7  8  2  0  0  0  0
  7  9  1  0  0  0  0
  8 10  1  0  0  0  0
  9 11  1  0  0  0  0
 10 11  2  0  0  0  0
 11  1  1  0  0  0  0
 12  8  1  0  0  0  0
 12 13  1  1  0  0  0
 14 12  1  0  0  0  0
 15 14  2  0  0  0  0
 16 17  1  0  0  0  0
 16  4  1  0  0  0  0
 18 23  1  6  0  0  0
 18 17  1  0  0  0  0
 18 20  1  0  0  0  0
 19 20  2  0  0  0  0
 20 21  1  0  0  0  0
 20 22  1  0  0  0  0
 24 23  1  0  0  0  0
 26 28  2  0  0  0  0
 28 25  1  0  0  0  0
 28 27  1  0  0  0  0
 28 24  1  0  0  0  0
M  END
>  <MODEL>
2

>  <REMARK>
 VINA RESULT:      -6.0      5.391      9.702
  Name = 
  10 active torsions:
  status: ('A' for Active; 'I' for Inactive)
    1  A    between atoms: O_1  and  C_5
    2  A    between atoms: O_1  and  P_23
    3  A    between atoms: N_2  and  C_6
    4  A    between atoms: C_3  and  C_17
    5  A    between atoms: C_5  and  C_19
    6  A    between atoms: C_6  and  C_10
    7  A    between atoms: P_16  and  C_19
    8  A    between atoms: C_18  and  C_19
    9  A    between atoms: C_18  and  C_22
   10  A    between atoms: C_20  and  C_22
                            x       y       z     vdW  Elec       q    Type
                         _______ _______ _______ _____ _____    ______ ____

>  <TORSDO>
F 10

$$$$
=
 OpenBabel11062419583D

 28 29  0  0  1  0  0  0  0  0999 V2000
  192.0880  175.9150  145.8850 C   0  0  0  0  0  0  0  0  0  0  0  0
  191.1440  176.6590  145.2440 N   0  0  0  0  0  0  0  0  0  0  0  0
  191.7600  175.2440  147.0210 N   0  0  0  0  0  0  0  0  0  0  0  0
  189.8760  176.7440  145.7250 C   0  0  0  0  0  0  0  0  0  0  0  0
  190.5010  175.3010  147.5300 C   0  0  0  0  0  3  0  0  0  0  0  0
  189.5240  176.0570  146.8860 C   0  0  0  0  0  3  0  0  0  0  0  0
  195.6400  175.6140  145.2450 N   0  0  0  0  0  0  0  0  0  0  0  0
  195.0970  175.8330  144.0280 C   0  0  0  0  0  0  0  0  0  0  0  0
  194.5950  175.6120  146.0920 C   0  0  0  0  0  3  0  0  0  0  0  0
  193.7590  175.9800  144.0500 N   0  0  0  0  0  2  0  0  0  0  0  0
  193.4530  175.8360  145.3520 C   0  0  0  0  0  0  0  0  0  0  0  0
  195.8990  175.9330  142.7690 C   0  0  2  0  0  3  0  0  0  0  0  0
  197.2190  176.6440  143.0150 C   0  0  0  0  0  1  0  0  0  0  0  0
  195.1470  176.5880  141.7240 N   0  0  0  0  0  0  0  0  0  0  0  0
  194.8030  175.9950  140.7460 O   0  0  0  0  0  0  0  0  0  0  0  0
  188.8570  177.5450  144.9940 C   0  0  0  0  0  2  0  0  0  0  0  0
  187.4800  176.9360  145.1970 C   0  0  0  0  0  2  0  0  0  0  0  0
  186.4130  177.8080  144.5510 C   0  0  2  0  0  3  0  0  0  0  0  0
  185.7650  179.3490  146.8810 O   0  0  0  0  0  1  0  0  0  0  0  0
  185.1320  178.2420  145.7700 P   0  0  0  0  0  0  0  0  0  0  0  0
  183.9380  178.8560  145.0750 O   0  0  0  0  0  0  0  0  0  0  0  0
  184.6440  176.8470  146.5910 O   0  0  0  0  0  1  0  0  0  0  0  0
  185.7970  177.1370  143.3250 C   0  0  0  0  0  2  0  0  0  0  0  0
  185.8850  177.9650  142.2000 O   0  0  0  0  0  0  0  0  0  0  0  0
  186.7930  177.3890  139.8020 O   0  0  0  0  0  0  0  0  0  0  0  0
  187.4540  175.7260  141.7150 O   0  0  0  0  0  1  0  0  0  0  0  0
  188.5460  178.2490  141.5370 O   0  0  0  0  0  1  0  0  0  0  0  0
  187.1520  177.3300  141.2690 P   0  0  0  0  0  0  0  0  0  0  0  0
  1  3  1  0  0  0  0
  2  4  1  0  0  0  0
  2  1  2  0  0  0  0
  3  5  2  0  0  0  0
  4  6  2  0  0  0  0
  6  5  1  0  0  0  0
  7  9  1  0  0  0  0
  8 10  1  0  0  0  0
  8  7  2  0  0  0  0
 10 11  1  0  0  0  0
 11  1  1  0  0  0  0
 11  9  2  0  0  0  0
 12 13  1  1  0  0  0
 12  8  1  0  0  0  0
 14 12  1  0  0  0  0
 15 14  2  0  0  0  0
 16 17  1  0  0  0  0
 16  4  1  0  0  0  0
 18 23  1  6  0  0  0
 18 17  1  0  0  0  0
 18 20  1  0  0  0  0
 20 22  1  0  0  0  0
 20 19  1  0  0  0  0
 21 20  2  0  0  0  0
 24 23  1  0  0  0  0
 25 28  2  0  0  0  0
 28 27  1  0  0  0  0
 28 26  1  0  0  0  0
 28 24  1  0  0  0  0
M  END
>  <MODEL>
3

>  <REMARK>
 VINA RESULT:      -6.0      5.095      9.116
  Name = 
  10 active torsions:
  status: ('A' for Active; 'I' for Inactive)
    1  A    between atoms: O_1  and  C_5
    2  A    between atoms: O_1  and  P_23
    3  A    between atoms: N_2  and  C_6
    4  A    between atoms: C_3  and  C_17
    5  A    between atoms: C_5  and  C_19
    6  A    between atoms: C_6  and  C_10
    7  A    between atoms: P_16  and  C_19
    8  A    between atoms: C_18  and  C_19
    9  A    between atoms: C_18  and  C_22
   10  A    between atoms: C_20  and  C_22
                            x       y       z     vdW  Elec       q    Type
                         _______ _______ _______ _____ _____    ______ ____

>  <TORSDO>
F 10

$$$$
=
 OpenBabel11062419583D

 28 29  0  0  1  0  0  0  0  0999 V2000
  188.0510  175.3250  142.0180 C   0  0  0  0  0  0  0  0  0  0  0  0
  188.7310  174.8360  143.0910 N   0  0  0  0  0  0  0  0  0  0  0  0
  188.3230  174.8480  140.7740 N   0  0  0  0  0  0  0  0  0  0  0  0
  189.6810  173.8760  142.9400 C   0  0  0  0  0  0  0  0  0  0  0  0
  189.2620  173.8850  140.5830 C   0  0  0  0  0  3  0  0  0  0  0  0
  189.9660  173.3730  141.6720 C   0  0  0  0  0  3  0  0  0  0  0  0
  185.6080  177.9870  141.7730 N   0  0  0  0  0  0  0  0  0  0  0  0
  185.6060  177.6490  143.0800 C   0  0  0  0  0  0  0  0  0  0  0  0
  186.5130  177.1680  141.2070 C   0  0  0  0  0  2  0  0  0  0  0  0
  186.4670  176.6600  143.3850 N   0  0  0  0  0  0  0  0  0  0  0  0
  187.0290  176.3630  142.2010 C   0  0  0  0  0  0  0  0  0  0  0  0
  184.7520  178.3210  144.1080 C   0  0  2  0  0  3  0  0  0  0  0  0
  185.1000  179.7950  144.2320 C   0  0  0  0  0  1  0  0  0  0  0  0
  184.8560  177.6560  145.3860 N   0  0  0  0  0  0  0  0  0  0  0  0
  184.3000  178.0840  146.3530 O   0  0  0  0  0  0  0  0  0  0  0  0
  190.3930  173.3410  144.1320 C   0  0  0  0  0  2  0  0  0  0  0  0
  189.6860  173.7910  145.4000 C   0  0  0  0  0  2  0  0  0  0  0  0
  190.6110  174.6530  146.2470 C   0  0  2  0  0  3  0  0  0  0  0  0
  190.2380  177.2070  144.9970 O   0  0  0  0  0  0  0  0  0  0  0  0
  189.9290  176.3330  146.4120 P   0  0  0  0  0  0  0  0  0  0  0  0
  188.4370  176.2690  146.6470 O   0  0  0  0  0  1  0  0  0  0  0  0
  190.6680  177.1110  147.7190 O   0  0  0  0  0  1  0  0  0  0  0  0
  192.0290  174.6900  145.6810 C   0  0  0  0  0  2  0  0  0  0  0  0
  192.9690  174.9130  146.6930 O   0  0  0  0  0  0  0  0  0  0  0  0
  194.2240  177.2110  146.9310 O   0  0  0  0  0  1  0  0  0  0  0  0
  193.5970  176.4860  144.4920 O   0  0  0  0  0  0  0  0  0  0  0  0
  195.5950  175.2320  145.9160 O   0  0  0  0  0  1  0  0  0  0  0  0
  194.0920  175.9990  146.0360 P   0  0  0  0  0  0  0  0  0  0  0  0
  1 11  1  0  0  0  0
  1  2  2  0  0  0  0
  3  1  1  0  0  0  0
  4  2  1  0  0  0  0
  4 16  1  0  0  0  0
  5  3  2  0  0  0  0
  5  6  1  0  0  0  0
  6  4  2  0  0  0  0
  7  8  2  0  0  0  0
  8 10  1  0  0  0  0
  8 12  1  0  0  0  0
  9  7  1  0  0  0  0
  9 11  1  0  0  0  0
 11 10  2  0  0  0  0
 12 13  1  1  0  0  0
 12 14  1  0  0  0  0
 14 15  2  0  0  0  0
 16 17  1  0  0  0  0
 18 17  1  6  0  0  0
 18 20  1  0  0  0  0
 19 20  2  0  0  0  0
 20 21  1  0  0  0  0
 20 22  1  0  0  0  0
 23 18  1  0  0  0  0
 23 24  1  0  0  0  0
 26 28  2  0  0  0  0
 27 28  1  0  0  0  0
 28 24  1  0  0  0  0
 28 25  1  0  0  0  0
M  END
>  <MODEL>
4

>  <REMARK>
 VINA RESULT:      -5.9      3.535      5.554
  Name = 
  10 active torsions:
  status: ('A' for Active; 'I' for Inactive)
    1  A    between atoms: O_1  and  C_5
    2  A    between atoms: O_1  and  P_23
    3  A    between atoms: N_2  and  C_6
    4  A    between atoms: C_3  and  C_17
    5  A    between atoms: C_5  and  C_19
    6  A    between atoms: C_6  and  C_10
    7  A    between atoms: P_16  and  C_19
    8  A    between atoms: C_18  and  C_19
    9  A    between atoms: C_18  and  C_22
   10  A    between atoms: C_20  and  C_22
                            x       y       z     vdW  Elec       q    Type
                         _______ _______ _______ _____ _____    ______ ____

>  <TORSDO>
F 10

$$$$
=
 OpenBabel11062419583D

 28 29  0  0  1  0  0  0  0  0999 V2000
  184.7830  178.2320  143.4250 C   0  0  0  0  0  0  0  0  0  0  0  0
  186.1060  177.9710  143.2370 N   0  0  0  0  0  0  0  0  0  0  0  0
  184.3160  178.4770  144.6780 N   0  0  0  0  0  0  0  0  0  0  0  0
  186.9710  177.9470  144.2850 C   0  0  0  0  0  0  0  0  0  0  0  0
  185.1510  178.4670  145.7510 C   0  0  0  0  0  3  0  0  0  0  0  0
  186.5080  178.2020  145.5750 C   0  0  0  0  0  3  0  0  0  0  0  0
  183.1020  178.1860  140.2170 N   0  0  0  0  0  0  0  0  0  0  0  0
  182.1100  178.3700  141.1140 C   0  0  0  0  0  0  0  0  0  0  0  0
  184.2230  178.1080  140.9570 C   0  0  0  0  0  2  0  0  0  0  0  0
  182.5350  178.4200  142.3910 N   0  0  0  0  0  0  0  0  0  0  0  0
  183.8640  178.2520  142.2810 C   0  0  0  0  0  0  0  0  0  0  0  0
  180.6710  178.5300  140.7360 C   0  0  2  0  0  3  0  0  0  0  0  0
  180.3190  179.9930  140.5260 C   0  0  0  0  0  1  0  0  0  0  0  0
  179.8040  177.9260  141.7200 N   0  0  0  0  0  0  0  0  0  0  0  0
  178.8160  177.3390  141.3970 O   0  0  0  0  0  0  0  0  0  0  0  0
  188.4160  177.6810  144.0500 C   0  0  0  0  0  2  0  0  0  0  0  0
  189.1400  177.5540  145.3800 C   0  0  0  0  0  2  0  0  0  0  0  0
  190.0890  176.3650  145.3560 C   0  0  2  0  0  3  0  0  0  0  0  0
  188.1130  175.5450  147.2660 O   0  0  0  0  0  1  0  0  0  0  0  0
  189.6580  175.1880  146.6770 P   0  0  0  0  0  0  0  0  0  0  0  0
  189.6770  173.7750  146.1410 O   0  0  0  0  0  0  0  0  0  0  0  0
  190.7790  175.3230  147.9360 O   0  0  0  0  0  1  0  0  0  0  0  0
  191.5490  176.8020  145.4660 C   0  0  0  0  0  2  0  0  0  0  0  0
  192.1850  176.7520  144.2210 O   0  0  0  0  0  0  0  0  0  0  0  0
  193.9740  175.6780  145.8200 O   0  0  0  0  0  1  0  0  0  0  0  0
  194.7020  175.9960  143.3230 O   0  0  0  0  0  0  0  0  0  0  0  0
  192.8650  174.0840  144.0730 O   0  0  0  0  0  1  0  0  0  0  0  0
  193.4490  175.6370  144.4030 P   0  0  0  0  0  0  0  0  0  0  0  0
  1  3  1  0  0  0  0
  2  1  2  0  0  0  0
  2  4  1  0  0  0  0
  3  5  2  0  0  0  0
  4  6  2  0  0  0  0
  6  5  1  0  0  0  0
  7  9  1  0  0  0  0
  7  8  2  0  0  0  0
  8 10  1  0  0  0  0
  9 11  1  0  0  0  0
 11 10  2  0  0  0  0
 11  1  1  0  0  0  0
 12 13  1  1  0  0  0
 12  8  1  0  0  0  0
 12 14  1  0  0  0  0
 15 14  2  0  0  0  0
 16  4  1  0  0  0  0
 16 17  1  0  0  0  0
 18 17  1  1  0  0  0
 18 23  1  0  0  0  0
 18 20  1  0  0  0  0
 20 19  1  0  0  0  0
 20 22  1  0  0  0  0
 21 20  2  0  0  0  0
 24 28  1  0  0  0  0
 24 23  1  0  0  0  0
 26 28  2  0  0  0  0
 27 28  1  0  0  0  0
 28 25  1  0  0  0  0
M  END
>  <MODEL>
5

>  <REMARK>
 VINA RESULT:      -5.9      2.299      2.975
  Name = 
  10 active torsions:
  status: ('A' for Active; 'I' for Inactive)
    1  A    between atoms: O_1  and  C_5
    2  A    between atoms: O_1  and  P_23
    3  A    between atoms: N_2  and  C_6
    4  A    between atoms: C_3  and  C_17
    5  A    between atoms: C_5  and  C_19
    6  A    between atoms: C_6  and  C_10
    7  A    between atoms: P_16  and  C_19
    8  A    between atoms: C_18  and  C_19
    9  A    between atoms: C_18  and  C_22
   10  A    between atoms: C_20  and  C_22
                            x       y       z     vdW  Elec       q    Type
                         _______ _______ _______ _____ _____    ______ ____

>  <TORSDO>
F 10

$$$$
=
 OpenBabel11062419583D

 28 29  0  0  1  0  0  0  0  0999 V2000
  190.4700  175.8950  142.9220 C   0  0  0  0  0  0  0  0  0  0  0  0
  189.5050  175.8750  143.8820 N   0  0  0  0  0  0  0  0  0  0  0  0
  191.3000  176.9680  142.8230 N   0  0  0  0  0  0  0  0  0  0  0  0
  189.3530  176.9140  144.7440 C   0  0  0  0  0  0  0  0  0  0  0  0
  191.1830  178.0250  143.6710 C   0  0  0  0  0  3  0  0  0  0  0  0
  190.2000  178.0190  144.6590 C   0  0  0  0  0  3  0  0  0  0  0  0
  191.5260  173.2370  140.7000 N   0  0  0  0  0  0  0  0  0  0  0  0
  190.1790  173.1450  140.7180 C   0  0  0  0  0  0  0  0  0  0  0  0
  191.8110  174.2670  141.5180 C   0  0  0  0  0  2  0  0  0  0  0  0
  189.5830  174.0660  141.4980 N   0  0  0  0  0  0  0  0  0  0  0  0
  190.6170  174.7640  141.9980 C   0  0  0  0  0  0  0  0  0  0  0  0
  189.4080  172.1360  139.9280 C   0  0  2  0  0  3  0  0  0  0  0  0
  190.2550  171.5510  138.8100 C   0  0  0  0  0  1  0  0  0  0  0  0
  188.1880  172.7050  139.4060 N   0  0  0  0  0  0  0  0  0  0  0  0
  188.1960  173.4030  138.4360 O   0  0  0  0  0  0  0  0  0  0  0  0
  188.3050  176.8580  145.7990 C   0  0  0  0  0  2  0  0  0  0  0  0
  186.9590  176.5380  145.1720 C   0  0  0  0  0  2  0  0  0  0  0  0
  186.2170  177.8200  144.8210 C   0  0  2  0  0  3  0  0  0  0  0  0
  183.6840  179.0420  145.3850 O   0  0  0  0  0  0  0  0  0  0  0  0
  184.9630  178.1880  146.0890 P   0  0  0  0  0  0  0  0  0  0  0  0
  184.4390  176.9050  146.6910 O   0  0  0  0  0  1  0  0  0  0  0  0
  185.6590  179.1330  147.3070 O   0  0  0  0  0  1  0  0  0  0  0  0
  185.5880  177.7500  143.4320 C   0  0  0  0  0  2  0  0  0  0  0  0
  186.1140  176.6850  142.6930 O   0  0  0  0  0  0  0  0  0  0  0  0
  187.4400  176.3190  140.4530 O   0  0  0  0  0  0  0  0  0  0  0  0
  188.1010  178.4330  141.8530 O   0  0  0  0  0  1  0  0  0  0  0  0
  185.7170  178.2810  140.4810 O   0  0  0  0  0  1  0  0  0  0  0  0
  186.8650  177.3930  141.3490 P   0  0  0  0  0  0  0  0  0  0  0  0
  1  2  2  0  0  0  0
  2  4  1  0  0  0  0
  3  1  1  0  0  0  0
  3  5  2  0  0  0  0
  4 16  1  0  0  0  0
  5  6  1  0  0  0  0
  6  4  2  0  0  0  0
  7  8  2  0  0  0  0
  7  9  1  0  0  0  0
  8 10  1  0  0  0  0
  9 11  1  0  0  0  0
 10 11  2  0  0  0  0
 11  1  1  0  0  0  0
 12 13  1  6  0  0  0
 12  8  1  0  0  0  0
 14 12  1  0  0  0  0
 15 14  2  0  0  0  0
 17 16  1  0  0  0  0
 18 23  1  6  0  0  0
 18 17  1  0  0  0  0
 18 20  1  0  0  0  0
 19 20  2  0  0  0  0
 20 21  1  0  0  0  0
 20 22  1  0  0  0  0
 24 23  1  0  0  0  0
 25 28  2  0  0  0  0
 27 28  1  0  0  0  0
 28 26  1  0  0  0  0
 28 24  1  0  0  0  0
M  END
>  <MODEL>
6

>  <REMARK>
 VINA RESULT:      -5.9      4.574      7.063
  Name = 
  10 active torsions:
  status: ('A' for Active; 'I' for Inactive)
    1  A    between atoms: O_1  and  C_5
    2  A    between atoms: O_1  and  P_23
    3  A    between atoms: N_2  and  C_6
    4  A    between atoms: C_3  and  C_17
    5  A    between atoms: C_5  and  C_19
    6  A    between atoms: C_6  and  C_10
    7  A    between atoms: P_16  and  C_19
    8  A    between atoms: C_18  and  C_19
    9  A    between atoms: C_18  and  C_22
   10  A    between atoms: C_20  and  C_22
                            x       y       z     vdW  Elec       q    Type
                         _______ _______ _______ _____ _____    ______ ____

>  <TORSDO>
F 10

$$$$
=
 OpenBabel11062419583D

 28 29  0  0  1  0  0  0  0  0999 V2000
  188.5560  176.6070  146.4350 C   0  0  0  0  0  0  0  0  0  0  0  0
  189.8420  176.9860  146.1950 N   0  0  0  0  0  0  0  0  0  0  0  0
  188.3040  175.3890  146.9840 N   0  0  0  0  0  0  0  0  0  0  0  0
  190.8810  176.1630  146.4930 C   0  0  0  0  0  0  0  0  0  0  0  0
  189.3170  174.5400  147.3000 C   0  0  0  0  0  3  0  0  0  0  0  0
  190.6390  174.9130  147.0620 C   0  0  0  0  0  3  0  0  0  0  0  0
  185.6960  178.8260  146.3180 N   0  0  0  0  0  0  0  0  0  0  0  0
  186.0840  178.7080  145.0300 C   0  0  0  0  0  0  0  0  0  0  0  0
  186.5640  178.0640  147.0080 C   0  0  0  0  0  2  0  0  0  0  0  0
  187.1510  177.9070  144.8550 N   0  0  0  0  0  0  0  0  0  0  0  0
  187.4470  177.5090  146.1050 C   0  0  0  0  0  0  0  0  0  0  0  0
  185.3840  179.3810  143.8900 C   0  0  2  0  0  3  0  0  0  0  0  0
  183.9030  179.0420  143.8790 C   0  0  0  0  0  1  0  0  0  0  0  0
  186.0010  179.0420  142.6290 N   0  0  0  0  0  0  0  0  0  0  0  0
  185.3540  178.6220  141.7170 O   0  0  0  0  0  0  0  0  0  0  0  0
  192.2780  176.6100  146.2430 C   0  0  0  0  0  2  0  0  0  0  0  0
  192.5050  176.7830  144.7500 C   0  0  0  0  0  2  0  0  0  0  0  0
  192.9910  175.4790  144.1320 C   0  0  2  0  0  3  0  0  0  0  0  0
  194.6560  176.4060  141.9880 O   0  0  0  0  0  0  0  0  0  0  0  0
  194.6920  175.6730  143.5120 P   0  0  0  0  0  0  0  0  0  0  0  0
  195.4980  176.5290  144.4620 O   0  0  0  0  0  1  0  0  0  0  0  0
  195.4170  174.1510  143.3800 O   0  0  0  0  0  1  0  0  0  0  0  0
  192.0570  174.9920  143.0270 C   0  0  0  0  0  2  0  0  0  0  0  0
  191.1750  176.0030  142.6310 O   0  0  0  0  0  0  0  0  0  0  0  0
  189.7710  174.3000  141.2030 O   0  0  0  0  0  0  0  0  0  0  0  0
  188.4730  176.3850  142.1140 O   0  0  0  0  0  1  0  0  0  0  0  0
  189.2930  174.3420  143.7700 O   0  0  0  0  0  1  0  0  0  0  0  0
  189.6840  175.2340  142.3880 P   0  0  0  0  0  0  0  0  0  0  0  0
  1  3  1  0  0  0  0
  2  1  2  0  0  0  0
  2  4  1  0  0  0  0
  3  5  2  0  0  0  0
  4  6  2  0  0  0  0
  6  5  1  0  0  0  0
  7  9  1  0  0  0  0
  8  7  2  0  0  0  0
 10  8  1  0  0  0  0
 10 11  2  0  0  0  0
 11  1  1  0  0  0  0
 11  9  1  0  0  0  0
 12 13  1  6  0  0  0
 12  8  1  0  0  0  0
 14 12  1  0  0  0  0
 15 14  2  0  0  0  0
 16  4  1  0  0  0  0
 17 16  1  0  0  0  0
 18 23  1  6  0  0  0
 18 17  1  0  0  0  0
 19 20  2  0  0  0  0
 20 18  1  0  0  0  0
 20 21  1  0  0  0  0
 22 20  1  0  0  0  0
 24 23  1  0  0  0  0
 25 28  2  0  0  0  0
 26 28  1  0  0  0  0
 28 24  1  0  0  0  0
 28 27  1  0  0  0  0
M  END
>  <MODEL>
7

>  <REMARK>
 VINA RESULT:      -5.8      3.111      5.005
  Name = 
  10 active torsions:
  status: ('A' for Active; 'I' for Inactive)
    1  A    between atoms: O_1  and  C_5
    2  A    between atoms: O_1  and  P_23
    3  A    between atoms: N_2  and  C_6
    4  A    between atoms: C_3  and  C_17
    5  A    between atoms: C_5  and  C_19
    6  A    between atoms: C_6  and  C_10
    7  A    between atoms: P_16  and  C_19
    8  A    between atoms: C_18  and  C_19
    9  A    between atoms: C_18  and  C_22
   10  A    between atoms: C_20  and  C_22
                            x       y       z     vdW  Elec       q    Type
                         _______ _______ _______ _____ _____    ______ ____

>  <TORSDO>
F 10

$$$$
=
 OpenBabel11062419583D

 28 29  0  0  1  0  0  0  0  0999 V2000
  189.3310  176.5080  145.3850 C   0  0  0  0  0  0  0  0  0  0  0  0
  190.6760  176.6890  145.4880 N   0  0  0  0  0  0  0  0  0  0  0  0
  188.6880  175.7120  146.2800 N   0  0  0  0  0  0  0  0  0  0  0  0
  191.3910  176.0830  146.4730 C   0  0  0  0  0  0  0  0  0  0  0  0
  189.3660  175.0930  147.2820 C   0  0  0  0  0  3  0  0  0  0  0  0
  190.7440  175.2690  147.4010 C   0  0  0  0  0  3  0  0  0  0  0  0
  188.0080  177.9340  142.3300 N   0  0  0  0  0  0  0  0  0  0  0  0
  187.0870  178.2380  143.2690 C   0  0  0  0  0  0  0  0  0  0  0  0
  188.9600  177.2500  142.9910 C   0  0  0  0  0  2  0  0  0  0  0  0
  187.3990  177.7910  144.5000 N   0  0  0  0  0  0  0  0  0  0  0  0
  188.5770  177.1690  144.3130 C   0  0  0  0  0  0  0  0  0  0  0  0
  185.8430  179.0200  142.9860 C   0  0  2  0  0  3  0  0  0  0  0  0
  185.3830  179.7830  144.2180 C   0  0  0  0  0  1  0  0  0  0  0  0
  184.7920  178.1640  142.4880 N   0  0  0  0  0  0  0  0  0  0  0  0
  184.5760  178.0670  141.3170 O   0  0  0  0  0  0  0  0  0  0  0  0
  192.8560  176.3160  146.5780 C   0  0  0  0  0  2  0  0  0  0  0  0
  193.4820  176.3000  145.1930 C   0  0  0  0  0  2  0  0  0  0  0  0
  194.1270  174.9490  144.9170 C   0  0  2  0  0  3  0  0  0  0  0  0
  195.7550  174.4500  142.6100 O   0  0  0  0  0  0  0  0  0  0  0  0
  195.7560  175.1770  144.1360 P   0  0  0  0  0  0  0  0  0  0  0  0
  196.0610  176.6500  143.9910 O   0  0  0  0  0  1  0  0  0  0  0  0
  196.9440  174.4530  145.0980 O   0  0  0  0  0  1  0  0  0  0  0  0
  193.2300  174.0550  144.0630 C   0  0  0  0  0  2  0  0  0  0  0  0
  192.4740  173.1900  144.8610 O   0  0  0  0  0  0  0  0  0  0  0  0
  190.6870  174.1140  143.1700 O   0  0  0  0  0  1  0  0  0  0  0  0
  189.7840  172.5280  145.0490 O   0  0  0  0  0  1  0  0  0  0  0  0
  191.3010  171.5850  142.9520 O   0  0  0  0  0  0  0  0  0  0  0  0
  191.0510  172.8970  143.9890 P   0  0  0  0  0  0  0  0  0  0  0  0
  1  2  2  0  0  0  0
  1  3  1  0  0  0  0
  2  4  1  0  0  0  0
  3  5  2  0  0  0  0
  4 16  1  0  0  0  0
  4  6  2  0  0  0  0
  5  6  1  0  0  0  0
  7  9  1  0  0  0  0
  7  8  2  0  0  0  0
  8 10  1  0  0  0  0
  9 11  1  0  0  0  0
 11 10  2  0  0  0  0
 11  1  1  0  0  0  0
 12  8  1  0  0  0  0
 12 13  1  1  0  0  0
 14 12  1  0  0  0  0
 15 14  2  0  0  0  0
 17 16  1  0  0  0  0
 18 23  1  6  0  0  0
 18 17  1  0  0  0  0
 19 20  2  0  0  0  0
 20 18  1  0  0  0  0
 20 22  1  0  0  0  0
 21 20  1  0  0  0  0
 23 24  1  0  0  0  0
 25 28  1  0  0  0  0
 27 28  2  0  0  0  0
 28 24  1  0  0  0  0
 28 26  1  0  0  0  0
M  END
>  <MODEL>
8

>  <REMARK>
 VINA RESULT:      -5.8      3.409      5.460
  Name = 
  10 active torsions:
  status: ('A' for Active; 'I' for Inactive)
    1  A    between atoms: O_1  and  C_5
    2  A    between atoms: O_1  and  P_23
    3  A    between atoms: N_2  and  C_6
    4  A    between atoms: C_3  and  C_17
    5  A    between atoms: C_5  and  C_19
    6  A    between atoms: C_6  and  C_10
    7  A    between atoms: P_16  and  C_19
    8  A    between atoms: C_18  and  C_19
    9  A    between atoms: C_18  and  C_22
   10  A    between atoms: C_20  and  C_22
                            x       y       z     vdW  Elec       q    Type
                         _______ _______ _______ _____ _____    ______ ____

>  <TORSDO>
F 10

$$$$
=
 OpenBabel11062419583D

 28 29  0  0  1  0  0  0  0  0999 V2000
  191.9870  175.2260  144.6520 C   0  0  0  0  0  0  0  0  0  0  0  0
  191.2290  176.3070  144.9860 N   0  0  0  0  0  0  0  0  0  0  0  0
  191.3910  174.1190  144.1350 N   0  0  0  0  0  0  0  0  0  0  0  0
  189.8810  176.2970  144.8130 C   0  0  0  0  0  0  0  0  0  0  0  0
  190.0460  174.0730  143.9420 C   0  0  0  0  0  3  0  0  0  0  0  0
  189.2570  175.1710  144.2780 C   0  0  0  0  0  3  0  0  0  0  0  0
  195.5120  175.9860  144.9820 N   0  0  0  0  0  0  0  0  0  0  0  0
  195.4280  174.6640  145.2400 C   0  0  0  0  0  0  0  0  0  0  0  0
  194.2470  176.3690  144.7330 C   0  0  0  0  0  2  0  0  0  0  0  0
  194.1760  174.1750  145.1640 N   0  0  0  0  0  0  0  0  0  0  0  0
  193.4410  175.2550  144.8470 C   0  0  0  0  0  0  0  0  0  0  0  0
  196.6120  173.8050  145.5580 C   0  0  2  0  0  3  0  0  0  0  0  0
  197.8000  174.1630  144.6800 C   0  0  0  0  0  1  0  0  0  0  0  0
  196.2850  172.4040  145.4380 N   0  0  0  0  0  0  0  0  0  0  0  0
  196.7930  171.5870  146.1450 O   0  0  0  0  0  0  0  0  0  0  0  0
  189.0780  177.4990  145.1650 C   0  0  0  0  0  2  0  0  0  0  0  0
  187.6110  177.1220  145.2880 C   0  0  0  0  0  2  0  0  0  0  0  0
  186.7260  178.3100  144.9400 C   0  0  2  0  0  3  0  0  0  0  0  0
  184.8770  176.7840  146.5150 O   0  0  0  0  0  1  0  0  0  0  0  0
  185.2760  178.3580  146.0410 P   0  0  0  0  0  0  0  0  0  0  0  0
  185.5810  179.1890  147.2660 O   0  0  0  0  0  1  0  0  0  0  0  0
  183.9680  179.0390  145.2140 O   0  0  0  0  0  0  0  0  0  0  0  0
  186.3000  178.2910  143.4740 C   0  0  0  0  0  2  0  0  0  0  0  0
  186.4140  177.0060  142.9330 O   0  0  0  0  0  0  0  0  0  0  0  0
  188.4300  178.1470  141.6900 O   0  0  0  0  0  1  0  0  0  0  0  0
  186.2470  177.8090  140.2800 O   0  0  0  0  0  0  0  0  0  0  0  0
  187.8660  175.6940  140.9900 O   0  0  0  0  0  1  0  0  0  0  0  0
  187.2700  177.1990  141.4830 P   0  0  0  0  0  0  0  0  0  0  0  0
  1 11  1  0  0  0  0
  1  2  2  0  0  0  0
  3  1  1  0  0  0  0
  4  2  1  0  0  0  0
  4 16  1  0  0  0  0
  5  3  2  0  0  0  0
  5  6  1  0  0  0  0
  6  4  2  0  0  0  0
  7  8  2  0  0  0  0
  8 12  1  0  0  0  0
  9 11  1  0  0  0  0
  9  7  1  0  0  0  0
 10  8  1  0  0  0  0
 11 10  2  0  0  0  0
 12 13  1  6  0  0  0
 14 12  1  0  0  0  0
 14 15  2  0  0  0  0
 16 17  1  0  0  0  0
 18 23  1  6  0  0  0
 18 17  1  0  0  0  0
 18 20  1  0  0  0  0
 20 19  1  0  0  0  0
 20 21  1  0  0  0  0
 22 20  2  0  0  0  0
 24 23  1  0  0  0  0
 26 28  2  0  0  0  0
 27 28  1  0  0  0  0
 28 25  1  0  0  0  0
 28 24  1  0  0  0  0
M  END
>  <MODEL>
9

>  <REMARK>
 VINA RESULT:      -5.7      5.361      9.771
  Name = 
  10 active torsions:
  status: ('A' for Active; 'I' for Inactive)
    1  A    between atoms: O_1  and  C_5
    2  A    between atoms: O_1  and  P_23
    3  A    between atoms: N_2  and  C_6
    4  A    between atoms: C_3  and  C_17
    5  A    between atoms: C_5  and  C_19
    6  A    between atoms: C_6  and  C_10
    7  A    between atoms: P_16  and  C_19
    8  A    between atoms: C_18  and  C_19
    9  A    between atoms: C_18  and  C_22
   10  A    between atoms: C_20  and  C_22
                            x       y       z     vdW  Elec       q    Type
                         _______ _______ _______ _____ _____    ______ ____

>  <TORSDO>
F 10

$$$$
