=
 OpenBabel11062418493D

 37 41  0  0  1  0  0  0  0  0999 V2000
  190.7280  176.2980  145.9850 C   0  0  0  0  0  2  0  0  0  0  0  0
  190.6540  175.9780  143.4050 C   0  0  0  0  0  2  0  0  0  0  0  0
  193.2290  176.1250  146.7070 C   0  0  0  0  0  2  0  0  0  0  0  0
  192.2040  176.5370  145.6560 C   0  0  1  0  0  3  0  0  0  0  0  0
  189.9400  175.7500  144.7610 C   0  0  2  0  0  3  0  0  0  0  0  0
  192.6730  175.4060  144.7850 C   0  0  1  0  0  0  0  0  0  0  0  0
  193.7280  174.9970  145.8010 C   0  0  2  0  0  0  0  0  0  0  0  0
  192.6630  174.0100  145.4120 C   0  0  0  0  0  2  0  0  0  0  0  0
  192.0940  175.3980  143.3530 C   0  0  1  0  0  3  0  0  0  0  0  0
  196.0860  174.5520  145.9310 O   0  0  0  0  0  0  0  0  0  0  0  0
  195.1060  175.0600  145.1440 C   0  0  2  0  0  0  0  0  0  0  0  0
  195.5820  176.2280  144.2970 C   0  0  0  0  0  1  0  0  0  0  0  0
  195.7070  173.7920  144.8310 N   0  0  0  0  0  2  0  0  0  0  0  0
  192.1570  174.0530  142.5930 C   0  0  1  0  0  3  0  0  0  0  0  0
  191.0780  173.4800  140.3510 C   0  0  0  0  0  2  0  0  0  0  0  0
  188.9270  172.4680  139.9740 O   0  0  0  0  0  0  0  0  0  0  0  0
  190.1400  172.5340  142.4930 C   0  0  0  0  0  2  0  0  0  0  0  0
  188.1240  173.0220  140.9750 C   0  0  0  0  0  2  0  0  0  0  0  0
  189.7670  173.5140  139.5720 C   0  0  0  0  0  2  0  0  0  0  0  0
  188.6160  172.6110  142.3650 C   0  0  0  0  0  2  0  0  0  0  0  0
  190.8510  173.7240  141.8470 C   0  0  1  0  0  3  0  0  0  0  0  0
  193.3620  173.9610  141.7000 C   0  0  0  0  0  0  0  0  0  0  0  0
  193.8020  175.0900  141.0240 O   0  0  0  0  0  0  0  0  0  0  0  0
  193.9980  172.8790  141.5850 O   0  0  0  0  0  1  0  0  0  0  0  0
  188.5450  176.3490  144.7190 C   0  0  0  0  0  2  0  0  0  0  0  0
  188.1530  176.7400  143.3010 C   0  0  0  0  0  2  0  0  0  0  0  0
  186.4530  176.2180  142.9030 S   0  0  0  0  0  0  0  0  0  0  0  0
  186.1810  177.5610  141.7020 C   0  0  0  0  0  2  0  0  0  0  0  0
  184.8430  178.2510  141.9390 C   0  0  0  0  0  2  0  0  0  0  0  0
  184.7760  179.1870  144.2950 C   0  0  0  0  0  0  0  0  0  0  0  0
  184.4610  178.1680  143.3410 N   0  0  0  0  0  2  0  0  0  0  0  0
  185.4660  180.1810  143.9480 O   0  0  0  0  0  0  0  0  0  0  0  0
  184.3450  179.0960  145.6250 O   0  0  0  0  0  0  0  0  0  0  0  0
  185.5850  179.1970  147.5880 O   0  0  0  0  0  0  0  0  0  0  0  0
  185.0710  178.5070  146.6680 C   0  0  0  0  0  0  0  0  0  0  0  0
  186.3190  176.6850  147.4850 O   0  0  0  0  0  1  0  0  0  0  0  0
  185.2190  177.0280  146.7010 C   0  0  0  0  0  2  0  0  0  0  0  0
  2  5  1  0  0  0  0
  4  1  1  1  0  0  0
  4  3  1  0  0  0  0
  5 25  1  6  0  0  0
  5  1  1  0  0  0  0
  6  8  1  1  0  0  0
  6  4  1  0  0  0  0
  6  7  1  0  0  0  0
  7  8  1  1  0  0  0
  7  3  1  0  0  0  0
  9 14  1  1  0  0  0
  9  2  1  0  0  0  0
  9  6  1  0  0  0  0
 11 12  1  6  0  0  0
 11  7  1  0  0  0  0
 11 10  1  0  0  0  0
 13 11  1  0  0  0  0
 13 10  1  0  0  0  0
 14 22  1  6  0  0  0
 15 21  1  0  0  0  0
 16 18  1  0  0  0  0
 18 20  1  0  0  0  0
 19 16  1  0  0  0  0
 19 15  1  0  0  0  0
 20 17  1  0  0  0  0
 21 17  1  0  0  0  0
 21 14  1  1  0  0  0
 23 22  2  0  0  0  0
 24 22  1  0  0  0  0
 26 25  1  0  0  0  0
 27 26  1  0  0  0  0
 28 29  1  0  0  0  0
 28 27  1  0  0  0  0
 29 31  1  0  0  0  0
 30 33  1  0  0  0  0
 31 30  1  0  0  0  0
 32 30  2  0  0  0  0
 33 35  1  0  0  0  0
 35 37  1  0  0  0  0
 35 34  2  0  0  0  0
 37 36  1  0  0  0  0
M  END
>  <MODEL>
1

>  <REMARK>
 VINA RESULT:      -6.4      0.000      0.000
  Name = 
  13 active torsions:
  status: ('A' for Active; 'I' for Inactive)
    1  A    between atoms: C_4  and  C_23
    2  A    between atoms: C_4  and  S_27
    3  A    between atoms: C_8  and  N_17
    4  A    between atoms: C_8  and  C_25
    5  A    between atoms: O_9  and  C_11
    6  A    between atoms: O_9  and  C_20
    7  A    between atoms: C_10  and  C_12
    8  A    between atoms: C_10  and  C_34
    9  A    between atoms: C_10  and  C_36
   10  A    between atoms: C_13  and  C_33
   11  A    between atoms: C_20  and  C_24
   12  A    between atoms: C_23  and  C_26
   13  A    between atoms: C_25  and  S_27
                            x       y       z     vdW  Elec       q    Type
                         _______ _______ _______ _____ _____    ______ ____

>  <TORSDO>
F 13

$$$$
=
 OpenBabel11062418493D

 37 41  0  0  1  0  0  0  0  0999 V2000
  191.3240  176.3900  146.1060 C   0  0  0  0  0  2  0  0  0  0  0  0
  190.9950  176.0020  143.5560 C   0  0  0  0  0  2  0  0  0  0  0  0
  193.8780  176.1670  146.5910 C   0  0  0  0  0  2  0  0  0  0  0  0
  192.7670  176.5790  145.6310 C   0  0  1  0  0  3  0  0  0  0  0  0
  190.4090  175.8310  144.9800 C   0  0  2  0  0  3  0  0  0  0  0  0
  193.1220  175.4120  144.7530 C   0  0  1  0  0  0  0  0  0  0  0  0
  194.2600  175.0020  145.6760 C   0  0  2  0  0  0  0  0  0  0  0  0
  193.1370  174.0350  145.4190 C   0  0  0  0  0  2  0  0  0  0  0  0
  192.4080  175.3810  143.3830 C   0  0  1  0  0  3  0  0  0  0  0  0
  196.6040  174.4840  145.5900 O   0  0  0  0  0  0  0  0  0  0  0  0
  195.5690  175.0090  144.8890 C   0  0  2  0  0  0  0  0  0  0  0  0
  195.9970  176.1450  143.9760 C   0  0  0  0  0  1  0  0  0  0  0  0
  196.0990  173.7160  144.5470 N   0  0  0  0  0  2  0  0  0  0  0  0
  192.3650  174.0150  142.6610 C   0  0  1  0  0  3  0  0  0  0  0  0
  190.9480  173.6330  140.5720 C   0  0  0  0  0  2  0  0  0  0  0  0
  188.8260  172.5060  140.4240 O   0  0  0  0  0  0  0  0  0  0  0  0
  190.4520  172.3630  142.6950 C   0  0  0  0  0  2  0  0  0  0  0  0
  188.1780  172.8700  141.6090 C   0  0  0  0  0  2  0  0  0  0  0  0
  189.5210  173.6570  140.0320 C   0  0  0  0  0  2  0  0  0  0  0  0
  188.9270  172.3340  142.8320 C   0  0  0  0  0  2  0  0  0  0  0  0
  190.9700  173.6750  142.1050 C   0  0  1  0  0  3  0  0  0  0  0  0
  193.4410  173.8870  141.6200 C   0  0  0  0  0  0  0  0  0  0  0  0
  193.8470  175.0100  140.9140 O   0  0  0  0  0  0  0  0  0  0  0  0
  194.0030  172.7800  141.4070 O   0  0  0  0  0  1  0  0  0  0  0  0
  189.0320  176.4670  145.0530 C   0  0  0  0  0  2  0  0  0  0  0  0
  188.3620  176.1830  146.3910 C   0  0  0  0  0  2  0  0  0  0  0  0
  187.2820  177.5570  146.9080 S   0  0  0  0  0  0  0  0  0  0  0  0
  185.7600  176.7650  146.2960 C   0  0  0  0  0  2  0  0  0  0  0  0
  184.8280  177.7840  145.6530 C   0  0  0  0  0  2  0  0  0  0  0  0
  185.4580  179.0660  143.5560 C   0  0  0  0  0  0  0  0  0  0  0  0
  185.0590  177.8610  144.2180 N   0  0  0  0  0  2  0  0  0  0  0  0
  185.5600  180.1370  144.2100 O   0  0  0  0  0  0  0  0  0  0  0  0
  185.7220  179.0870  142.1810 O   0  0  0  0  0  0  0  0  0  0  0  0
  185.8780  177.4090  140.5800 O   0  0  0  0  0  0  0  0  0  0  0  0
  186.4260  178.0980  141.4810 C   0  0  0  0  0  0  0  0  0  0  0  0
  188.1770  176.5290  141.6000 O   0  0  0  0  0  1  0  0  0  0  0  0
  187.8610  177.8720  141.7960 C   0  0  0  0  0  2  0  0  0  0  0  0
  2  5  1  0  0  0  0
  4  1  1  1  0  0  0
  4  3  1  0  0  0  0
  5 25  1  6  0  0  0
  5  1  1  0  0  0  0
  6  8  1  1  0  0  0
  6  4  1  0  0  0  0
  6  7  1  0  0  0  0
  7  8  1  1  0  0  0
  7  3  1  0  0  0  0
  9 14  1  1  0  0  0
  9  2  1  0  0  0  0
  9  6  1  0  0  0  0
 11 12  1  6  0  0  0
 11 10  1  0  0  0  0
 11  7  1  0  0  0  0
 13 11  1  0  0  0  0
 13 10  1  0  0  0  0
 14 22  1  6  0  0  0
 15 21  1  0  0  0  0
 16 18  1  0  0  0  0
 17 20  1  0  0  0  0
 18 20  1  0  0  0  0
 19 16  1  0  0  0  0
 19 15  1  0  0  0  0
 21 14  1  6  0  0  0
 21 17  1  0  0  0  0
 23 22  2  0  0  0  0
 24 22  1  0  0  0  0
 25 26  1  0  0  0  0
 26 27  1  0  0  0  0
 28 27  1  0  0  0  0
 29 28  1  0  0  0  0
 30 32  2  0  0  0  0
 30 31  1  0  0  0  0
 31 29  1  0  0  0  0
 33 30  1  0  0  0  0
 34 35  2  0  0  0  0
 35 37  1  0  0  0  0
 35 33  1  0  0  0  0
 36 37  1  0  0  0  0
M  END
>  <MODEL>
2

>  <REMARK>
 VINA RESULT:      -6.4      1.454      2.533
  Name = 
  13 active torsions:
  status: ('A' for Active; 'I' for Inactive)
    1  A    between atoms: C_4  and  C_23
    2  A    between atoms: C_4  and  S_27
    3  A    between atoms: C_8  and  N_17
    4  A    between atoms: C_8  and  C_25
    5  A    between atoms: O_9  and  C_11
    6  A    between atoms: O_9  and  C_20
    7  A    between atoms: C_10  and  C_12
    8  A    between atoms: C_10  and  C_34
    9  A    between atoms: C_10  and  C_36
   10  A    between atoms: C_13  and  C_33
   11  A    between atoms: C_20  and  C_24
   12  A    between atoms: C_23  and  C_26
   13  A    between atoms: C_25  and  S_27
                            x       y       z     vdW  Elec       q    Type
                         _______ _______ _______ _____ _____    ______ ____

>  <TORSDO>
F 13

$$$$
=
 OpenBabel11062418493D

 37 41  0  0  1  0  0  0  0  0999 V2000
  192.8770  173.5760  141.2430 C   0  0  0  0  0  2  0  0  0  0  0  0
  192.2350  174.0650  143.7150 C   0  0  0  0  0  2  0  0  0  0  0  0
  195.4500  173.9540  141.0310 C   0  0  0  0  0  2  0  0  0  0  0  0
  194.2650  173.5120  141.8850 C   0  0  1  0  0  3  0  0  0  0  0  0
  191.8050  174.1240  142.2280 C   0  0  2  0  0  3  0  0  0  0  0  0
  194.4420  174.7430  142.7290 C   0  0  1  0  0  0  0  0  0  0  0  0
  195.6480  175.1870  141.9150 C   0  0  2  0  0  0  0  0  0  0  0  0
  194.4440  176.0840  141.9910 C   0  0  0  0  0  2  0  0  0  0  0  0
  193.5760  174.7920  144.0070 C   0  0  1  0  0  3  0  0  0  0  0  0
  197.9390  175.8450  142.2210 O   0  0  0  0  0  0  0  0  0  0  0  0
  196.8580  175.3110  142.8400 C   0  0  2  0  0  0  0  0  0  0  0  0
  197.2330  174.2680  143.8790 C   0  0  0  0  0  1  0  0  0  0  0  0
  197.2790  176.6530  143.1400 N   0  0  0  0  0  2  0  0  0  0  0  0
  193.3630  176.1860  144.6410 C   0  0  1  0  0  3  0  0  0  0  0  0
  191.9600  176.4760  146.7540 C   0  0  0  0  0  2  0  0  0  0  0  0
  189.7150  177.3280  146.9200 O   0  0  0  0  0  0  0  0  0  0  0  0
  191.2530  177.5770  144.5970 C   0  0  0  0  0  2  0  0  0  0  0  0
  189.0900  176.8320  145.7710 C   0  0  0  0  0  2  0  0  0  0  0  0
  190.5630  176.2940  147.3380 C   0  0  0  0  0  2  0  0  0  0  0  0
  189.7340  177.4050  144.5050 C   0  0  0  0  0  2  0  0  0  0  0  0
  191.9510  176.3690  145.2250 C   0  0  1  0  0  3  0  0  0  0  0  0
  194.4390  176.5310  145.6310 C   0  0  0  0  0  0  0  0  0  0  0  0
  195.0550  175.5190  146.3530 O   0  0  0  0  0  1  0  0  0  0  0  0
  194.8120  177.7240  145.7880 O   0  0  0  0  0  0  0  0  0  0  0  0
  190.4890  173.3900  142.0400 C   0  0  0  0  0  2  0  0  0  0  0  0
  189.4010  173.9650  142.9380 C   0  0  0  0  0  2  0  0  0  0  0  0
  187.8100  174.1070  142.0620 S   0  0  0  0  0  0  0  0  0  0  0  0
  188.0760  175.8460  141.5880 C   0  0  0  0  0  2  0  0  0  0  0  0
  186.8340  176.6870  141.8550 C   0  0  0  0  0  2  0  0  0  0  0  0
  185.9020  177.1870  144.1610 C   0  0  0  0  0  0  0  0  0  0  0  0
  186.1900  176.2770  143.0950 N   0  0  0  0  0  2  0  0  0  0  0  0
  186.2660  178.3890  144.0770 O   0  0  0  0  0  0  0  0  0  0  0  0
  185.2340  176.7630  145.3170 O   0  0  0  0  0  0  0  0  0  0  0  0
  184.1280  178.3340  146.6250 O   0  0  0  0  0  0  0  0  0  0  0  0
  185.0820  177.5230  146.4830 C   0  0  0  0  0  0  0  0  0  0  0  0
  186.5240  178.6000  148.0010 O   0  0  0  0  0  1  0  0  0  0  0  0
  186.0590  177.3520  147.5910 C   0  0  0  0  0  2  0  0  0  0  0  0
  1  4  1  0  0  0  0
  1  5  1  0  0  0  0
  2  9  1  0  0  0  0
  4  3  1  6  0  0  0
  4  6  1  0  0  0  0
  5 25  1  1  0  0  0
  5  2  1  0  0  0  0
  6  8  1  6  0  0  0
  6  9  1  0  0  0  0
  7  3  1  6  0  0  0
  7  8  1  0  0  0  0
  7  6  1  0  0  0  0
  7 11  1  0  0  0  0
  9 14  1  6  0  0  0
 10 11  1  0  0  0  0
 10 13  1  0  0  0  0
 11 13  1  0  0  0  0
 11 12  1  1  0  0  0
 14 22  1  1  0  0  0
 15 19  1  0  0  0  0
 16 19  1  0  0  0  0
 17 21  1  0  0  0  0
 18 16  1  0  0  0  0
 20 17  1  0  0  0  0
 20 18  1  0  0  0  0
 21 14  1  6  0  0  0
 21 15  1  0  0  0  0
 22 24  2  0  0  0  0
 22 23  1  0  0  0  0
 25 26  1  0  0  0  0
 27 26  1  0  0  0  0
 28 29  1  0  0  0  0
 28 27  1  0  0  0  0
 29 31  1  0  0  0  0
 30 33  1  0  0  0  0
 31 30  1  0  0  0  0
 32 30  2  0  0  0  0
 33 35  1  0  0  0  0
 35 34  2  0  0  0  0
 35 37  1  0  0  0  0
 37 36  1  0  0  0  0
M  END
>  <MODEL>
3

>  <REMARK>
 VINA RESULT:      -6.4      2.380      4.399
  Name = 
  13 active torsions:
  status: ('A' for Active; 'I' for Inactive)
    1  A    between atoms: C_4  and  C_23
    2  A    between atoms: C_4  and  S_27
    3  A    between atoms: C_8  and  N_17
    4  A    between atoms: C_8  and  C_25
    5  A    between atoms: O_9  and  C_11
    6  A    between atoms: O_9  and  C_20
    7  A    between atoms: C_10  and  C_12
    8  A    between atoms: C_10  and  C_34
    9  A    between atoms: C_10  and  C_36
   10  A    between atoms: C_13  and  C_33
   11  A    between atoms: C_20  and  C_24
   12  A    between atoms: C_23  and  C_26
   13  A    between atoms: C_25  and  S_27
                            x       y       z     vdW  Elec       q    Type
                         _______ _______ _______ _____ _____    ______ ____

>  <TORSDO>
F 13

$$$$
=
 OpenBabel11062418493D

 37 41  0  0  1  0  0  0  0  0999 V2000
  187.9730  177.6290  144.5390 C   0  0  0  0  0  2  0  0  0  0  0  0
  189.7320  176.8300  142.7980 C   0  0  0  0  0  2  0  0  0  0  0  0
  189.1060  177.5010  146.8850 C   0  0  0  0  0  2  0  0  0  0  0  0
  189.2430  177.7460  145.3860 C   0  0  1  0  0  3  0  0  0  0  0  0
  188.2360  176.8890  143.1960 C   0  0  2  0  0  3  0  0  0  0  0  0
  190.0010  176.4540  145.2650 C   0  0  1  0  0  0  0  0  0  0  0  0
  189.9100  176.2040  146.7630 C   0  0  2  0  0  0  0  0  0  0  0  0
  189.3120  175.2030  145.8150 C   0  0  0  0  0  2  0  0  0  0  0  0
  190.6430  176.1970  143.8840 C   0  0  1  0  0  3  0  0  0  0  0  0
  191.3950  176.4900  148.6310 O   0  0  0  0  0  0  0  0  0  0  0  0
  191.3210  176.0910  147.3380 C   0  0  2  0  0  0  0  0  0  0  0  0
  192.5790  176.4190  146.5510 C   0  0  0  0  0  1  0  0  0  0  0  0
  191.4910  175.1250  148.3900 N   0  0  0  0  0  2  0  0  0  0  0  0
  191.0130  174.7310  143.5600 C   0  0  1  0  0  3  0  0  0  0  0  0
  191.2260  173.5940  141.2830 C   0  0  0  0  0  2  0  0  0  0  0  0
  189.5080  172.4460  140.0500 O   0  0  0  0  0  0  0  0  0  0  0  0
  189.2100  173.1630  142.7370 C   0  0  0  0  0  2  0  0  0  0  0  0
  188.3570  173.1970  140.3120 C   0  0  0  0  0  2  0  0  0  0  0  0
  190.5340  173.3920  139.9390 C   0  0  0  0  0  2  0  0  0  0  0  0
  187.9980  173.1530  141.8000 C   0  0  0  0  0  2  0  0  0  0  0  0
  190.2700  174.1850  142.3260 C   0  0  1  0  0  3  0  0  0  0  0  0
  192.4990  174.5260  143.4670 C   0  0  0  0  0  0  0  0  0  0  0  0
  193.2900  175.5060  142.8840 O   0  0  0  0  0  0  0  0  0  0  0  0
  193.0380  173.4920  143.9450 O   0  0  0  0  0  1  0  0  0  0  0  0
  187.4260  177.5210  142.0770 C   0  0  0  0  0  2  0  0  0  0  0  0
  186.0210  176.9380  142.0140 C   0  0  0  0  0  2  0  0  0  0  0  0
  184.7520  178.2050  142.3410 S   0  0  0  0  0  0  0  0  0  0  0  0
  184.3550  178.4500  140.5800 C   0  0  0  0  0  2  0  0  0  0  0  0
  182.9300  178.0090  140.2690 C   0  0  0  0  0  2  0  0  0  0  0  0
  180.9350  179.0200  141.4660 C   0  0  0  0  0  0  0  0  0  0  0  0
  182.0770  178.1580  141.4400 N   0  0  0  0  0  2  0  0  0  0  0  0
  180.6690  179.7410  140.4690 O   0  0  0  0  0  0  0  0  0  0  0  0
  180.1090  179.0960  142.5950 O   0  0  0  0  0  0  0  0  0  0  0  0
  177.8610  179.3330  143.1390 O   0  0  0  0  0  0  0  0  0  0  0  0
  178.7900  178.6290  142.6600 C   0  0  0  0  0  0  0  0  0  0  0  0
  178.1260  176.4310  143.1820 O   0  0  0  0  0  1  0  0  0  0  0  0
  178.4750  177.2760  142.1300 C   0  0  0  0  0  2  0  0  0  0  0  0
  2  5  1  0  0  0  0
  2  9  1  0  0  0  0
  4  1  1  6  0  0  0
  4  3  1  0  0  0  0
  5 25  1  6  0  0  0
  5  1  1  0  0  0  0
  6  4  1  0  0  0  0
  6  8  1  6  0  0  0
  6  7  1  0  0  0  0
  7  8  1  1  0  0  0
  7  3  1  0  0  0  0
  7 11  1  0  0  0  0
  9 14  1  6  0  0  0
  9  6  1  0  0  0  0
 11 12  1  6  0  0  0
 11 13  1  0  0  0  0
 11 10  1  0  0  0  0
 13 10  1  0  0  0  0
 14 22  1  6  0  0  0
 15 21  1  0  0  0  0
 16 18  1  0  0  0  0
 18 20  1  0  0  0  0
 19 16  1  0  0  0  0
 19 15  1  0  0  0  0
 20 17  1  0  0  0  0
 21 17  1  0  0  0  0
 21 14  1  1  0  0  0
 22 24  1  0  0  0  0
 23 22  2  0  0  0  0
 26 25  1  0  0  0  0
 26 27  1  0  0  0  0
 28 27  1  0  0  0  0
 29 28  1  0  0  0  0
 29 31  1  0  0  0  0
 30 33  1  0  0  0  0
 31 30  1  0  0  0  0
 32 30  2  0  0  0  0
 33 35  1  0  0  0  0
 35 34  2  0  0  0  0
 37 35  1  0  0  0  0
 37 36  1  0  0  0  0
M  END
>  <MODEL>
4

>  <REMARK>
 VINA RESULT:      -6.3      3.205      4.126
  Name = 
  13 active torsions:
  status: ('A' for Active; 'I' for Inactive)
    1  A    between atoms: C_4  and  C_23
    2  A    between atoms: C_4  and  S_27
    3  A    between atoms: C_8  and  N_17
    4  A    between atoms: C_8  and  C_25
    5  A    between atoms: O_9  and  C_11
    6  A    between atoms: O_9  and  C_20
    7  A    between atoms: C_10  and  C_12
    8  A    between atoms: C_10  and  C_34
    9  A    between atoms: C_10  and  C_36
   10  A    between atoms: C_13  and  C_33
   11  A    between atoms: C_20  and  C_24
   12  A    between atoms: C_23  and  C_26
   13  A    between atoms: C_25  and  S_27
                            x       y       z     vdW  Elec       q    Type
                         _______ _______ _______ _____ _____    ______ ____

>  <TORSDO>
F 13

$$$$
=
 OpenBabel11062418493D

 37 41  0  0  1  0  0  0  0  0999 V2000
  190.3960  175.2810  141.9740 C   0  0  0  0  0  2  0  0  0  0  0  0
  189.0130  175.0440  144.1630 C   0  0  0  0  0  2  0  0  0  0  0  0
  192.9100  175.3920  142.6650 C   0  0  0  0  0  2  0  0  0  0  0  0
  191.5090  174.8520  142.9340 C   0  0  1  0  0  3  0  0  0  0  0  0
  189.0770  175.6180  142.7260 C   0  0  2  0  0  3  0  0  0  0  0  0
  191.4290  175.7250  144.1540 C   0  0  1  0  0  0  0  0  0  0  0  0
  192.8390  176.2510  143.9280 C   0  0  2  0  0  0  0  0  0  0  0  0
  191.6880  177.2180  143.9450 C   0  0  0  0  0  2  0  0  0  0  0  0
  190.2040  175.4740  145.0610 C   0  0  1  0  0  3  0  0  0  0  0  0
  194.9790  176.3410  145.0160 O   0  0  0  0  0  0  0  0  0  0  0  0
  193.6950  175.9310  145.1530 C   0  0  2  0  0  0  0  0  0  0  0  0
  193.5720  174.6450  145.9520 C   0  0  0  0  0  1  0  0  0  0  0  0
  194.1790  177.0670  145.8900 N   0  0  0  0  0  2  0  0  0  0  0  0
  189.8250  176.6140  146.0340 C   0  0  1  0  0  3  0  0  0  0  0  0
  187.7350  176.8140  147.4880 C   0  0  0  0  0  2  0  0  0  0  0  0
  185.6610  177.9020  146.9330 O   0  0  0  0  0  0  0  0  0  0  0  0
  187.9910  178.2430  145.4240 C   0  0  0  0  0  2  0  0  0  0  0  0
  185.4990  177.6270  145.5710 C   0  0  0  0  0  2  0  0  0  0  0  0
  186.2120  176.7320  147.4700 C   0  0  0  0  0  2  0  0  0  0  0  0
  186.6190  178.2660  144.7440 C   0  0  0  0  0  2  0  0  0  0  0  0
  188.3110  176.8930  146.0690 C   0  0  1  0  0  3  0  0  0  0  0  0
  190.3970  176.4040  147.4080 C   0  0  0  0  0  0  0  0  0  0  0  0
  190.5570  175.1130  147.8920 O   0  0  0  0  0  0  0  0  0  0  0  0
  190.7660  177.3830  148.1100 O   0  0  0  0  0  1  0  0  0  0  0  0
  187.8760  175.1460  141.9250 C   0  0  0  0  0  2  0  0  0  0  0  0
  186.7770  176.2000  141.9030 C   0  0  0  0  0  2  0  0  0  0  0  0
  187.0990  177.4830  140.6480 S   0  0  0  0  0  0  0  0  0  0  0  0
  185.5460  178.3780  140.9740 C   0  0  0  0  0  2  0  0  0  0  0  0
  184.6370  177.5850  141.9060 C   0  0  0  0  0  2  0  0  0  0  0  0
  182.2500  178.3770  141.5790 C   0  0  0  0  0  0  0  0  0  0  0  0
  183.4840  178.3810  142.3020 N   0  0  0  0  0  2  0  0  0  0  0  0
  182.1480  177.7130  140.5130 O   0  0  0  0  0  0  0  0  0  0  0  0
  181.1460  179.1160  142.0220 O   0  0  0  0  0  0  0  0  0  0  0  0
  179.0790  178.1280  142.4190 O   0  0  0  0  0  0  0  0  0  0  0  0
  179.8120  178.8490  141.6890 C   0  0  0  0  0  0  0  0  0  0  0  0
  178.9720  178.4430  139.5270 O   0  0  0  0  0  1  0  0  0  0  0  0
  179.2400  179.4480  140.4550 C   0  0  0  0  0  2  0  0  0  0  0  0
  1  5  1  0  0  0  0
  2  9  1  0  0  0  0
  3  4  1  0  0  0  0
  4  1  1  6  0  0  0
  4  6  1  0  0  0  0
  5 25  1  6  0  0  0
  5  2  1  0  0  0  0
  6  8  1  6  0  0  0
  6  9  1  0  0  0  0
  7  3  1  6  0  0  0
  7  8  1  0  0  0  0
  7  6  1  0  0  0  0
  7 11  1  0  0  0  0
  9 14  1  6  0  0  0
 10 11  1  0  0  0  0
 10 13  1  0  0  0  0
 11 13  1  0  0  0  0
 11 12  1  1  0  0  0
 14 22  1  1  0  0  0
 16 19  1  0  0  0  0
 17 21  1  0  0  0  0
 18 16  1  0  0  0  0
 19 15  1  0  0  0  0
 20 17  1  0  0  0  0
 20 18  1  0  0  0  0
 21 14  1  1  0  0  0
 21 15  1  0  0  0  0
 22 23  2  0  0  0  0
 22 24  1  0  0  0  0
 26 25  1  0  0  0  0
 27 28  1  0  0  0  0
 27 26  1  0  0  0  0
 28 29  1  0  0  0  0
 29 31  1  0  0  0  0
 30 33  1  0  0  0  0
 30 31  1  0  0  0  0
 32 30  2  0  0  0  0
 35 33  1  0  0  0  0
 35 34  2  0  0  0  0
 36 37  1  0  0  0  0
 37 35  1  0  0  0  0
M  END
>  <MODEL>
5

>  <REMARK>
 VINA RESULT:      -6.0      3.052      5.573
  Name = 
  13 active torsions:
  status: ('A' for Active; 'I' for Inactive)
    1  A    between atoms: C_4  and  C_23
    2  A    between atoms: C_4  and  S_27
    3  A    between atoms: C_8  and  N_17
    4  A    between atoms: C_8  and  C_25
    5  A    between atoms: O_9  and  C_11
    6  A    between atoms: O_9  and  C_20
    7  A    between atoms: C_10  and  C_12
    8  A    between atoms: C_10  and  C_34
    9  A    between atoms: C_10  and  C_36
   10  A    between atoms: C_13  and  C_33
   11  A    between atoms: C_20  and  C_24
   12  A    between atoms: C_23  and  C_26
   13  A    between atoms: C_25  and  S_27
                            x       y       z     vdW  Elec       q    Type
                         _______ _______ _______ _____ _____    ______ ____

>  <TORSDO>
F 13

$$$$
=
 OpenBabel11062418493D

 37 41  0  0  1  0  0  0  0  0999 V2000
  188.6320  176.9300  143.8770 C   0  0  0  0  0  2  0  0  0  0  0  0
  190.5490  175.6350  142.6880 C   0  0  0  0  0  2  0  0  0  0  0  0
  189.4480  177.4500  146.3000 C   0  0  0  0  0  2  0  0  0  0  0  0
  189.7890  177.2560  144.8260 C   0  0  1  0  0  3  0  0  0  0  0  0
  189.0200  175.8350  142.8430 C   0  0  2  0  0  3  0  0  0  0  0  0
  190.4780  175.9680  145.1750 C   0  0  1  0  0  0  0  0  0  0  0  0
  190.1830  176.1560  146.6560 C   0  0  2  0  0  0  0  0  0  0  0  0
  189.6530  174.9390  145.9500 C   0  0  0  0  0  2  0  0  0  0  0  0
  191.2750  175.3170  144.0230 C   0  0  1  0  0  3  0  0  0  0  0  0
  191.3650  176.6840  148.6800 O   0  0  0  0  0  0  0  0  0  0  0  0
  191.5010  176.1800  147.4290 C   0  0  2  0  0  0  0  0  0  0  0  0
  192.8390  176.5280  146.8010 C   0  0  0  0  0  1  0  0  0  0  0  0
  191.5690  175.3130  148.5740 N   0  0  0  0  0  2  0  0  0  0  0  0
  191.5960  173.8120  144.1740 C   0  0  1  0  0  3  0  0  0  0  0  0
  192.5840  172.3860  142.3000 C   0  0  0  0  0  2  0  0  0  0  0  0
  191.4150  170.8770  140.8340 O   0  0  0  0  0  0  0  0  0  0  0  0
  190.2480  171.9410  143.1420 C   0  0  0  0  0  2  0  0  0  0  0  0
  190.1940  171.5190  140.6060 C   0  0  0  0  0  2  0  0  0  0  0  0
  192.3600  171.9100  140.8680 C   0  0  0  0  0  2  0  0  0  0  0  0
  189.3930  171.6520  141.9040 C   0  0  0  0  0  2  0  0  0  0  0  0
  191.3130  173.0080  142.8910 C   0  0  1  0  0  3  0  0  0  0  0  0
  192.9840  173.5770  144.7000 C   0  0  0  0  0  0  0  0  0  0  0  0
  193.9760  174.5170  144.4600 O   0  0  0  0  0  0  0  0  0  0  0  0
  193.2480  172.5530  145.3850 O   0  0  0  0  0  1  0  0  0  0  0  0
  188.3980  176.1400  141.4910 C   0  0  0  0  0  2  0  0  0  0  0  0
  187.8260  177.5510  141.4510 C   0  0  0  0  0  2  0  0  0  0  0  0
  186.1810  177.5880  140.6670 S   0  0  0  0  0  0  0  0  0  0  0  0
  185.2810  177.5080  142.2500 C   0  0  0  0  0  2  0  0  0  0  0  0
  184.8880  178.8990  142.7330 C   0  0  0  0  0  2  0  0  0  0  0  0
  184.8780  179.2230  145.2490 C   0  0  0  0  0  0  0  0  0  0  0  0
  185.5550  179.2160  143.9880 N   0  0  0  0  0  2  0  0  0  0  0  0
  183.6380  179.0110  145.2970 O   0  0  0  0  0  0  0  0  0  0  0  0
  185.5660  179.4820  146.4410 O   0  0  0  0  0  0  0  0  0  0  0  0
  186.7670  178.8100  148.3140 O   0  0  0  0  0  0  0  0  0  0  0  0
  186.0880  178.5040  147.2980 C   0  0  0  0  0  0  0  0  0  0  0  0
  186.6000  176.2710  147.8390 O   0  0  0  0  0  1  0  0  0  0  0  0
  185.8150  177.0710  147.0110 C   0  0  0  0  0  2  0  0  0  0  0  0
  2  5  1  0  0  0  0
  2  9  1  0  0  0  0
  3  7  1  0  0  0  0
  4  1  1  6  0  0  0
  4  6  1  0  0  0  0
  4  3  1  0  0  0  0
  5 25  1  6  0  0  0
  5  1  1  0  0  0  0
  6  8  1  6  0  0  0
  6  7  1  0  0  0  0
  7  8  1  1  0  0  0
  7 11  1  0  0  0  0
  9 14  1  1  0  0  0
  9  6  1  0  0  0  0
 11 12  1  6  0  0  0
 11 13  1  0  0  0  0
 11 10  1  0  0  0  0
 13 10  1  0  0  0  0
 14 22  1  6  0  0  0
 15 21  1  0  0  0  0
 16 19  1  0  0  0  0
 18 16  1  0  0  0  0
 18 20  1  0  0  0  0
 19 15  1  0  0  0  0
 20 17  1  0  0  0  0
 21 17  1  0  0  0  0
 21 14  1  1  0  0  0
 22 24  1  0  0  0  0
 23 22  2  0  0  0  0
 26 25  1  0  0  0  0
 27 26  1  0  0  0  0
 27 28  1  0  0  0  0
 28 29  1  0  0  0  0
 29 31  1  0  0  0  0
 30 32  2  0  0  0  0
 30 33  1  0  0  0  0
 31 30  1  0  0  0  0
 33 35  1  0  0  0  0
 35 34  2  0  0  0  0
 37 35  1  0  0  0  0
 37 36  1  0  0  0  0
M  END
>  <MODEL>
6

>  <REMARK>
 VINA RESULT:      -6.0      2.042      2.794
  Name = 
  13 active torsions:
  status: ('A' for Active; 'I' for Inactive)
    1  A    between atoms: C_4  and  C_23
    2  A    between atoms: C_4  and  S_27
    3  A    between atoms: C_8  and  N_17
    4  A    between atoms: C_8  and  C_25
    5  A    between atoms: O_9  and  C_11
    6  A    between atoms: O_9  and  C_20
    7  A    between atoms: C_10  and  C_12
    8  A    between atoms: C_10  and  C_34
    9  A    between atoms: C_10  and  C_36
   10  A    between atoms: C_13  and  C_33
   11  A    between atoms: C_20  and  C_24
   12  A    between atoms: C_23  and  C_26
   13  A    between atoms: C_25  and  S_27
                            x       y       z     vdW  Elec       q    Type
                         _______ _______ _______ _____ _____    ______ ____

>  <TORSDO>
F 13

$$$$
=
 OpenBabel11062418493D

 37 41  0  0  1  0  0  0  0  0999 V2000
  189.8670  174.9440  142.3050 C   0  0  0  0  0  2  0  0  0  0  0  0
  187.3040  175.3330  142.5080 C   0  0  0  0  0  2  0  0  0  0  0  0
  190.8850  175.2920  144.6830 C   0  0  0  0  0  2  0  0  0  0  0  0
  189.7110  174.8310  143.8250 C   0  0  1  0  0  3  0  0  0  0  0  0
  188.5690  175.4640  141.6250 C   0  0  2  0  0  3  0  0  0  0  0  0
  188.9240  176.0210  144.2980 C   0  0  1  0  0  0  0  0  0  0  0  0
  190.0670  176.4820  145.1910 C   0  0  2  0  0  0  0  0  0  0  0  0
  189.5730  177.3930  144.1020 C   0  0  0  0  0  2  0  0  0  0  0  0
  187.4340  176.0250  143.8920 C   0  0  1  0  0  3  0  0  0  0  0  0
  190.5460  176.9380  147.5010 O   0  0  0  0  0  0  0  0  0  0  0  0
  189.5770  176.5460  146.6370 C   0  0  2  0  0  0  0  0  0  0  0  0
  188.6210  175.5360  147.2480 C   0  0  0  0  0  1  0  0  0  0  0  0
  189.5410  177.8580  147.2250 N   0  0  0  0  0  2  0  0  0  0  0  0
  186.7140  177.3930  143.9350 C   0  0  1  0  0  3  0  0  0  0  0  0
  184.4770  178.3420  143.1520 C   0  0  0  0  0  2  0  0  0  0  0  0
  183.8110  178.8600  140.8970 O   0  0  0  0  0  0  0  0  0  0  0  0
  186.4650  178.3250  141.5990 C   0  0  0  0  0  2  0  0  0  0  0  0
  184.4040  177.8450  140.1390 C   0  0  0  0  0  2  0  0  0  0  0  0
  183.4000  178.2270  142.0770 C   0  0  0  0  0  2  0  0  0  0  0  0
  185.9310  177.9180  140.2220 C   0  0  0  0  0  2  0  0  0  0  0  0
  185.7580  177.6030  142.7470 C   0  0  1  0  0  3  0  0  0  0  0  0
  186.0440  177.6420  145.2560 C   0  0  0  0  0  0  0  0  0  0  0  0
  185.3590  176.6110  145.8830 O   0  0  0  0  0  1  0  0  0  0  0  0
  186.1280  178.7670  145.8190 O   0  0  0  0  0  0  0  0  0  0  0  0
  188.3500  174.7590  140.2970 C   0  0  0  0  0  2  0  0  0  0  0  0
  189.1350  173.4560  140.2260 C   0  0  0  0  0  2  0  0  0  0  0  0
  190.1660  173.3730  138.7250 S   0  0  0  0  0  0  0  0  0  0  0  0
  191.0090  171.8390  139.2310 C   0  0  0  0  0  2  0  0  0  0  0  0
  190.4430  171.3050  140.5410 C   0  0  0  0  0  2  0  0  0  0  0  0
  191.3610  171.1110  142.8980 C   0  0  0  0  0  0  0  0  0  0  0  0
  191.5140  171.0010  141.4790 N   0  0  0  0  0  2  0  0  0  0  0  0
  190.2830  171.5460  143.3820 O   0  0  0  0  0  0  0  0  0  0  0  0
  192.3990  170.7590  143.7700 O   0  0  0  0  0  0  0  0  0  0  0  0
  193.2850  172.8870  144.0700 O   0  0  0  0  0  0  0  0  0  0  0  0
  193.3180  171.6540  144.3320 C   0  0  0  0  0  0  0  0  0  0  0  0
  195.6020  171.1980  144.6790 O   0  0  0  0  0  1  0  0  0  0  0  0
  194.3440  171.1400  145.2770 C   0  0  0  0  0  2  0  0  0  0  0  0
  2  9  1  0  0  0  0
  3  7  1  0  0  0  0
  4  1  1  6  0  0  0
  4  6  1  0  0  0  0
  4  3  1  0  0  0  0
  5 25  1  6  0  0  0
  5  1  1  0  0  0  0
  5  2  1  0  0  0  0
  6  8  1  6  0  0  0
  6  7  1  0  0  0  0
  7  8  1  6  0  0  0
  7 11  1  0  0  0  0
  9 14  1  6  0  0  0
  9  6  1  0  0  0  0
 11 13  1  0  0  0  0
 11 12  1  1  0  0  0
 11 10  1  0  0  0  0
 13 10  1  0  0  0  0
 14 22  1  1  0  0  0
 16 19  1  0  0  0  0
 17 21  1  0  0  0  0
 18 20  1  0  0  0  0
 18 16  1  0  0  0  0
 19 15  1  0  0  0  0
 20 17  1  0  0  0  0
 21 15  1  0  0  0  0
 21 14  1  1  0  0  0
 22 24  2  0  0  0  0
 22 23  1  0  0  0  0
 26 25  1  0  0  0  0
 27 28  1  0  0  0  0
 27 26  1  0  0  0  0
 28 29  1  0  0  0  0
 29 31  1  0  0  0  0
 30 32  2  0  0  0  0
 30 33  1  0  0  0  0
 31 30  1  0  0  0  0
 33 35  1  0  0  0  0
 34 35  2  0  0  0  0
 35 37  1  0  0  0  0
 36 37  1  0  0  0  0
M  END
>  <MODEL>
7

>  <REMARK>
 VINA RESULT:      -5.9      2.893      7.707
  Name = 
  13 active torsions:
  status: ('A' for Active; 'I' for Inactive)
    1  A    between atoms: C_4  and  C_23
    2  A    between atoms: C_4  and  S_27
    3  A    between atoms: C_8  and  N_17
    4  A    between atoms: C_8  and  C_25
    5  A    between atoms: O_9  and  C_11
    6  A    between atoms: O_9  and  C_20
    7  A    between atoms: C_10  and  C_12
    8  A    between atoms: C_10  and  C_34
    9  A    between atoms: C_10  and  C_36
   10  A    between atoms: C_13  and  C_33
   11  A    between atoms: C_20  and  C_24
   12  A    between atoms: C_23  and  C_26
   13  A    between atoms: C_25  and  S_27
                            x       y       z     vdW  Elec       q    Type
                         _______ _______ _______ _____ _____    ______ ____

>  <TORSDO>
F 13

$$$$
=
 OpenBabel11062418493D

 37 41  0  0  1  0  0  0  0  0999 V2000
  192.4100  176.9110  144.8690 C   0  0  0  0  0  2  0  0  0  0  0  0
  192.5140  175.7930  142.5230 C   0  0  0  0  0  2  0  0  0  0  0  0
  194.5650  176.1950  146.1550 C   0  0  0  0  0  2  0  0  0  0  0  0
  193.8950  176.5400  144.8280 C   0  0  1  0  0  3  0  0  0  0  0  0
  191.6190  176.2710  143.6930 C   0  0  2  0  0  3  0  0  0  0  0  0
  194.0010  175.0970  144.4230 C   0  0  1  0  0  0  0  0  0  0  0  0
  194.7030  174.7330  145.7230 C   0  0  2  0  0  0  0  0  0  0  0  0
  193.3970  174.0710  145.3850 C   0  0  0  0  0  2  0  0  0  0  0  0
  193.6270  174.7990  142.9540 C   0  0  1  0  0  3  0  0  0  0  0  0
  196.7680  173.7920  146.5130 O   0  0  0  0  0  0  0  0  0  0  0  0
  196.0690  174.1280  145.4010 C   0  0  2  0  0  0  0  0  0  0  0  0
  196.9620  174.6180  144.2740 C   0  0  0  0  0  1  0  0  0  0  0  0
  196.2410  172.7470  145.7630 N   0  0  0  0  0  2  0  0  0  0  0  0
  193.2670  173.3330  142.6200 C   0  0  1  0  0  3  0  0  0  0  0  0
  191.7990  172.8430  140.5890 C   0  0  0  0  0  2  0  0  0  0  0  0
  189.4930  172.1530  140.5780 O   0  0  0  0  0  0  0  0  0  0  0  0
  191.0600  172.1320  142.8940 C   0  0  0  0  0  2  0  0  0  0  0  0
  188.9330  172.8600  141.6470 C   0  0  0  0  0  2  0  0  0  0  0  0
  190.4060  173.0450  140.0010 C   0  0  0  0  0  2  0  0  0  0  0  0
  189.5600  172.4320  142.9770 C   0  0  0  0  0  2  0  0  0  0  0  0
  191.8320  173.1760  142.0860 C   0  0  1  0  0  3  0  0  0  0  0  0
  194.2840  172.6880  141.7210 C   0  0  0  0  0  0  0  0  0  0  0  0
  194.3890  171.3050  141.6890 O   0  0  0  0  0  1  0  0  0  0  0  0
  195.0160  173.3860  140.9710 O   0  0  0  0  0  0  0  0  0  0  0  0
  190.5640  177.2350  143.1780 C   0  0  0  0  0  2  0  0  0  0  0  0
  189.3450  176.4910  142.6500 C   0  0  0  0  0  2  0  0  0  0  0  0
  188.0200  177.6390  142.1500 S   0  0  0  0  0  0  0  0  0  0  0  0
  186.7130  176.7190  143.0230 C   0  0  0  0  0  2  0  0  0  0  0  0
  186.4840  177.2800  144.4220 C   0  0  0  0  0  2  0  0  0  0  0  0
  188.2270  176.7720  146.1930 C   0  0  0  0  0  0  0  0  0  0  0  0
  187.0730  176.4090  145.4290 N   0  0  0  0  0  2  0  0  0  0  0  0
  188.8180  177.8590  145.9620 O   0  0  0  0  0  0  0  0  0  0  0  0
  188.7330  175.9280  147.1910 O   0  0  0  0  0  0  0  0  0  0  0  0
  189.9120  174.2080  146.1630 O   0  0  0  0  0  0  0  0  0  0  0  0
  189.8530  175.0990  147.0530 C   0  0  0  0  0  0  0  0  0  0  0  0
  191.2430  176.6520  148.1480 O   0  0  0  0  0  1  0  0  0  0  0  0
  191.0110  175.2900  147.9660 C   0  0  0  0  0  2  0  0  0  0  0  0
  2  9  1  0  0  0  0
  2  5  1  0  0  0  0
  4  1  1  1  0  0  0
  4  3  1  0  0  0  0
  5 25  1  6  0  0  0
  5  1  1  0  0  0  0
  6  4  1  0  0  0  0
  6  8  1  1  0  0  0
  6  7  1  0  0  0  0
  7  8  1  1  0  0  0
  7  3  1  0  0  0  0
  9 14  1  1  0  0  0
  9  6  1  0  0  0  0
 11 12  1  6  0  0  0
 11  7  1  0  0  0  0
 11 13  1  0  0  0  0
 11 10  1  0  0  0  0
 13 10  1  0  0  0  0
 14 22  1  6  0  0  0
 15 21  1  0  0  0  0
 16 18  1  0  0  0  0
 17 20  1  0  0  0  0
 18 20  1  0  0  0  0
 19 16  1  0  0  0  0
 19 15  1  0  0  0  0
 21 14  1  1  0  0  0
 21 17  1  0  0  0  0
 23 22  1  0  0  0  0
 24 22  2  0  0  0  0
 26 25  1  0  0  0  0
 27 26  1  0  0  0  0
 27 28  1  0  0  0  0
 28 29  1  0  0  0  0
 29 31  1  0  0  0  0
 30 33  1  0  0  0  0
 31 30  1  0  0  0  0
 32 30  2  0  0  0  0
 34 35  2  0  0  0  0
 35 33  1  0  0  0  0
 35 37  1  0  0  0  0
 37 36  1  0  0  0  0
M  END
>  <MODEL>
8

>  <REMARK>
 VINA RESULT:      -5.9      2.061      2.947
  Name = 
  13 active torsions:
  status: ('A' for Active; 'I' for Inactive)
    1  A    between atoms: C_4  and  C_23
    2  A    between atoms: C_4  and  S_27
    3  A    between atoms: C_8  and  N_17
    4  A    between atoms: C_8  and  C_25
    5  A    between atoms: O_9  and  C_11
    6  A    between atoms: O_9  and  C_20
    7  A    between atoms: C_10  and  C_12
    8  A    between atoms: C_10  and  C_34
    9  A    between atoms: C_10  and  C_36
   10  A    between atoms: C_13  and  C_33
   11  A    between atoms: C_20  and  C_24
   12  A    between atoms: C_23  and  C_26
   13  A    between atoms: C_25  and  S_27
                            x       y       z     vdW  Elec       q    Type
                         _______ _______ _______ _____ _____    ______ ____

>  <TORSDO>
F 13

$$$$
=
 OpenBabel11062418493D

 37 41  0  0  1  0  0  0  0  0999 V2000
  191.0650  174.8620  141.6580 C   0  0  0  0  0  2  0  0  0  0  0  0
  189.2600  174.7220  143.5260 C   0  0  0  0  0  2  0  0  0  0  0  0
  193.3860  174.9820  142.8440 C   0  0  0  0  0  2  0  0  0  0  0  0
  191.9520  174.4630  142.8420 C   0  0  1  0  0  3  0  0  0  0  0  0
  189.6260  175.2380  142.1110 C   0  0  2  0  0  3  0  0  0  0  0  0
  191.6380  175.3850  143.9860 C   0  0  1  0  0  0  0  0  0  0  0  0
  193.0710  175.8930  144.0330 C   0  0  2  0  0  0  0  0  0  0  0  0
  191.9560  176.8670  143.7780 C   0  0  0  0  0  2  0  0  0  0  0  0
  190.2500  175.1800  144.6320 C   0  0  1  0  0  3  0  0  0  0  0  0
  194.9070  176.1120  145.5690 O   0  0  0  0  0  0  0  0  0  0  0  0
  193.6540  175.6160  145.4180 C   0  0  2  0  0  0  0  0  0  0  0  0
  193.4450  174.3150  146.1750 C   0  0  0  0  0  1  0  0  0  0  0  0
  193.8850  176.7730  146.2410 N   0  0  0  0  0  2  0  0  0  0  0  0
  189.6970  176.3600  145.4630 C   0  0  1  0  0  3  0  0  0  0  0  0
  187.3930  176.8400  146.4550 C   0  0  0  0  0  2  0  0  0  0  0  0
  185.4970  177.8270  145.3490 O   0  0  0  0  0  0  0  0  0  0  0  0
  188.0690  177.8660  144.2510 C   0  0  0  0  0  2  0  0  0  0  0  0
  185.5670  177.3100  144.0520 C   0  0  0  0  0  2  0  0  0  0  0  0
  185.8950  176.7690  146.1760 C   0  0  0  0  0  2  0  0  0  0  0  0
  186.8400  177.7780  143.3410 C   0  0  0  0  0  2  0  0  0  0  0  0
  188.2140  176.6540  145.1730 C   0  0  1  0  0  3  0  0  0  0  0  0
  189.9690  176.1980  146.9320 C   0  0  0  0  0  0  0  0  0  0  0  0
  189.6960  174.9860  147.5500 O   0  0  0  0  0  0  0  0  0  0  0  0
  190.4750  177.1390  147.6010 O   0  0  0  0  0  1  0  0  0  0  0  0
  188.6060  174.7430  141.1000 C   0  0  0  0  0  2  0  0  0  0  0  0
  189.2840  174.0470  139.9270 C   0  0  0  0  0  2  0  0  0  0  0  0
  188.7090  172.3270  139.7410 S   0  0  0  0  0  0  0  0  0  0  0  0
  190.3400  171.6040  140.1110 C   0  0  0  0  0  2  0  0  0  0  0  0
  190.4190  171.1340  141.5590 C   0  0  0  0  0  2  0  0  0  0  0  0
  192.2930  170.8280  143.2410 C   0  0  0  0  0  0  0  0  0  0  0  0
  191.7830  170.7620  141.9050 N   0  0  0  0  0  2  0  0  0  0  0  0
  191.5720  171.2830  144.1670 O   0  0  0  0  0  0  0  0  0  0  0  0
  193.5950  170.4100  143.5430 O   0  0  0  0  0  0  0  0  0  0  0  0
  195.1250  172.0910  144.0330 O   0  0  0  0  0  0  0  0  0  0  0  0
  194.4750  171.0770  144.4050 C   0  0  0  0  0  0  0  0  0  0  0  0
  194.5780  169.1950  145.8170 O   0  0  0  0  0  1  0  0  0  0  0  0
  194.6280  170.5880  145.8010 C   0  0  0  0  0  2  0  0  0  0  0  0
  1  5  1  0  0  0  0
  2  9  1  0  0  0  0
  4  1  1  6  0  0  0
  4  3  1  0  0  0  0
  4  6  1  0  0  0  0
  5 25  1  6  0  0  0
  5  2  1  0  0  0  0
  6  8  1  6  0  0  0
  6  7  1  0  0  0  0
  6  9  1  0  0  0  0
  7  3  1  6  0  0  0
  7 11  1  0  0  0  0
  8  7  1  0  0  0  0
  9 14  1  6  0  0  0
 10 13  1  0  0  0  0
 11 10  1  0  0  0  0
 11 12  1  1  0  0  0
 11 13  1  0  0  0  0
 14 22  1  1  0  0  0
 16 19  1  0  0  0  0
 17 21  1  0  0  0  0
 18 16  1  0  0  0  0
 19 15  1  0  0  0  0
 20 18  1  0  0  0  0
 20 17  1  0  0  0  0
 21 14  1  1  0  0  0
 21 15  1  0  0  0  0
 22 23  2  0  0  0  0
 22 24  1  0  0  0  0
 26 25  1  0  0  0  0
 27 26  1  0  0  0  0
 27 28  1  0  0  0  0
 28 29  1  0  0  0  0
 29 31  1  0  0  0  0
 30 33  1  0  0  0  0
 30 32  2  0  0  0  0
 31 30  1  0  0  0  0
 33 35  1  0  0  0  0
 34 35  2  0  0  0  0
 35 37  1  0  0  0  0
 37 36  1  0  0  0  0
M  END
>  <MODEL>
9

>  <REMARK>
 VINA RESULT:      -5.9      2.780      7.198
  Name = 
  13 active torsions:
  status: ('A' for Active; 'I' for Inactive)
    1  A    between atoms: C_4  and  C_23
    2  A    between atoms: C_4  and  S_27
    3  A    between atoms: C_8  and  N_17
    4  A    between atoms: C_8  and  C_25
    5  A    between atoms: O_9  and  C_11
    6  A    between atoms: O_9  and  C_20
    7  A    between atoms: C_10  and  C_12
    8  A    between atoms: C_10  and  C_34
    9  A    between atoms: C_10  and  C_36
   10  A    between atoms: C_13  and  C_33
   11  A    between atoms: C_20  and  C_24
   12  A    between atoms: C_23  and  C_26
   13  A    between atoms: C_25  and  S_27
                            x       y       z     vdW  Elec       q    Type
                         _______ _______ _______ _____ _____    ______ ____

>  <TORSDO>
F 13

$$$$
