=
 OpenBabel11072409263D

 39 43  0  0  1  0  0  0  0  0999 V2000
  192.2730  176.6840  145.5910 C   0  0  0  0  0  2  0  0  0  0  0  0
  189.9290  176.1560  145.1660 N   0  0  0  0  0  0  0  0  0  0  0  0
  191.1560  177.4550  143.4820 C   0  0  0  0  0  1  0  0  0  0  0  0
  189.3930  173.8880  145.4110 O   0  0  0  0  0  0  0  0  0  0  0  0
  192.7560  175.3680  144.9640 C   0  0  2  0  0  3  0  0  0  0  0  0
  190.2640  174.7600  145.1330 C   0  0  0  0  0  0  0  0  0  0  0  0
  190.9720  177.1570  144.9590 C   0  0  2  0  0  3  0  0  0  0  0  0
  191.6520  174.3030  144.7590 C   0  0  1  0  0  3  0  0  0  0  0  0
  195.7360  175.6240  143.9310 C   0  0  0  0  0  0  0  0  0  0  0  0
  193.9900  174.8490  145.7300 C   0  0  1  0  0  3  0  0  0  0  0  0
  196.3490  174.6740  144.9530 C   0  0  2  0  0  3  0  0  0  0  0  0
  194.3750  173.4310  145.4870 C   0  0  0  0  0  0  0  0  0  0  0  0
  196.4900  172.4530  145.8040 O   0  0  0  0  0  1  0  0  0  0  0  0
  195.7440  173.2690  144.9570 C   0  0  2  0  0  3  0  0  0  0  0  0
  196.6660  176.7540  143.5480 C   0  0  0  0  0  1  0  0  0  0  0  0
  194.8910  175.0010  142.8140 C   0  0  0  0  0  1  0  0  0  0  0  0
  193.6570  172.4830  145.7630 O   0  0  0  0  0  0  0  0  0  0  0  0
  195.2510  175.6630  145.3840 C   0  0  1  0  0  3  0  0  0  0  0  0
  186.6200  177.9510  144.6600 C   0  0  0  0  0  0  0  0  0  0  0  0
  186.3780  178.3260  145.9850 O   0  0  0  0  0  0  0  0  0  0  0  0
  185.8360  178.3560  143.7580 O   0  0  0  0  0  0  0  0  0  0  0  0
  188.5640  176.5670  145.4990 C   0  0  1  0  0  3  0  0  0  0  0  0
  188.5470  177.4930  146.7110 C   0  0  0  0  0  2  0  0  0  0  0  0
  187.1100  177.8180  147.1010 C   0  0  2  0  0  0  0  0  0  0  0  0
  186.4190  176.5720  147.6340 C   0  0  0  0  0  1  0  0  0  0  0  0
  187.8660  177.1850  144.2820 C   0  0  1  0  0  3  0  0  0  0  0  0
  187.1270  178.8200  148.1500 N   0  0  0  0  0  1  0  0  0  0  0  0
  187.5430  176.0720  143.2840 C   0  0  0  0  0  2  0  0  0  0  0  0
  188.2350  176.3020  141.9510 C   0  0  2  0  0  3  0  0  0  0  0  0
  186.9420  177.7880  140.3810 C   0  0  0  0  0  2  0  0  0  0  0  0
  187.1910  176.3930  140.8230 C   0  0  2  0  0  3  0  0  0  0  0  0
  186.0570  177.1170  141.2430 O   0  0  0  0  0  0  0  0  0  0  0  0
  189.2470  175.2760  141.7160 N   0  0  0  0  0  2  0  0  0  0  0  0
  188.7520  174.4290  140.6410 C   0  0  0  0  0  2  0  0  0  0  0  0
  187.9080  172.6340  142.1280 O   0  0  0  0  0  1  0  0  0  0  0  0
  188.7300  173.0160  141.0820 C   0  0  0  0  0  0  0  0  0  0  0  0
  189.4500  172.1660  140.5040 O   0  0  0  0  0  0  0  0  0  0  0  0
  191.4840  172.5190  143.4290 C   0  0  0  0  0  1  0  0  0  0  0  0
  191.6720  173.9030  143.4170 O   0  0  0  0  0  0  0  0  0  0  0  0
  5  1  1  1  0  0  0
  5 10  1  0  0  0  0
  6  2  1  0  0  0  0
  6  4  2  0  0  0  0
  7  3  1  6  0  0  0
  7  2  1  0  0  0  0
  7  1  1  0  0  0  0
  8 39  1  6  0  0  0
  8  5  1  0  0  0  0
  8  6  1  0  0  0  0
 10 12  1  6  0  0  0
 11  9  1  6  0  0  0
 11 14  1  0  0  0  0
 11 18  1  0  0  0  0
 12 17  2  0  0  0  0
 14 12  1  0  0  0  0
 14 13  1  1  0  0  0
 15  9  1  0  0  0  0
 16  9  1  0  0  0  0
 18  9  1  6  0  0  0
 18 10  1  0  0  0  0
 19 20  1  0  0  0  0
 20 24  1  0  0  0  0
 21 19  2  0  0  0  0
 22  2  1  6  0  0  0
 22 23  1  0  0  0  0
 23 24  1  0  0  0  0
 24 25  1  1  0  0  0
 24 27  1  0  0  0  0
 26 28  1  6  0  0  0
 26 19  1  0  0  0  0
 26 22  1  0  0  0  0
 29 28  1  1  0  0  0
 30 31  1  0  0  0  0
 30 32  1  0  0  0  0
 31 32  1  0  0  0  0
 31 29  1  1  0  0  0
 33 29  1  0  0  0  0
 34 36  1  0  0  0  0
 34 33  1  0  0  0  0
 36 35  1  0  0  0  0
 37 36  2  0  0  0  0
 39 38  1  0  0  0  0
M  END
>  <MODEL>
1

>  <REMARK>
 VINA RESULT:      -7.2      0.000      0.000
  Name = 
  9 active torsions:
  status: ('A' for Active; 'I' for Inactive)
    1  A    between atoms: C_3  and  C_24
    2  A    between atoms: N_6  and  C_20
    3  A    between atoms: N_6  and  C_38
    4  A    between atoms: C_11  and  C_20
    5  A    between atoms: C_13  and  C_20
    6  A    between atoms: C_13  and  C_35
    7  A    between atoms: C_15  and  C_38
    8  A    between atoms: N_16  and  C_22
    9  A    between atoms: O_27  and  C_32
                            x       y       z     vdW  Elec       q    Type
                         _______ _______ _______ _____ _____    ______ ____

>  <TORSDO>
F 9

$$$$
=
 OpenBabel11072409263D

 39 43  0  0  1  0  0  0  0  0999 V2000
  187.5620  176.2310  143.3730 C   0  0  0  0  0  2  0  0  0  0  0  0
  189.6420  174.9830  143.1070 N   0  0  0  0  0  0  0  0  0  0  0  0
  189.5810  177.3220  142.3600 C   0  0  0  0  0  1  0  0  0  0  0  0
  190.3760  173.9080  145.0550 O   0  0  0  0  0  0  0  0  0  0  0  0
  187.9260  176.6700  144.7980 C   0  0  2  0  0  3  0  0  0  0  0  0
  189.7380  174.8660  144.5340 C   0  0  0  0  0  0  0  0  0  0  0  0
  188.8050  176.0270  142.5190 C   0  0  2  0  0  3  0  0  0  0  0  0
  189.0920  175.8830  145.4420 C   0  0  1  0  0  3  0  0  0  0  0  0
  185.2680  178.1800  143.9830 C   0  0  0  0  0  0  0  0  0  0  0  0
  186.6530  176.7210  145.6680 C   0  0  1  0  0  3  0  0  0  0  0  0
  184.6020  178.0980  145.3520 C   0  0  2  0  0  3  0  0  0  0  0  0
  186.5780  177.8180  146.6730 C   0  0  0  0  0  0  0  0  0  0  0  0
  184.6410  178.7280  147.6490 O   0  0  0  0  0  1  0  0  0  0  0  0
  185.4160  178.7120  146.4920 C   0  0  2  0  0  3  0  0  0  0  0  0
  184.2760  178.1080  142.8430 C   0  0  0  0  0  1  0  0  0  0  0  0
  186.4400  179.1550  143.8320 C   0  0  0  0  0  1  0  0  0  0  0  0
  187.3610  177.9320  147.6030 O   0  0  0  0  0  0  0  0  0  0  0  0
  185.3890  176.8930  144.8050 C   0  0  1  0  0  3  0  0  0  0  0  0
  192.0980  173.7620  140.4800 C   0  0  0  0  0  0  0  0  0  0  0  0
  191.2840  172.8130  139.8540 O   0  0  0  0  0  0  0  0  0  0  0  0
  193.2370  174.0040  139.9920 O   0  0  0  0  0  0  0  0  0  0  0  0
  190.3090  174.0000  142.2510 C   0  0  1  0  0  3  0  0  0  0  0  0
  189.3550  173.4530  141.1950 C   0  0  0  0  0  2  0  0  0  0  0  0
  190.0410  172.3540  140.3890 C   0  0  2  0  0  0  0  0  0  0  0  0
  190.2860  171.1380  141.2670 C   0  0  0  0  0  1  0  0  0  0  0  0
  191.5870  174.5850  141.6390 C   0  0  1  0  0  3  0  0  0  0  0  0
  189.1710  171.9660  139.2950 N   0  0  0  0  0  1  0  0  0  0  0  0
  192.6460  174.7030  142.7350 C   0  0  0  0  0  2  0  0  0  0  0  0
  193.2140  176.1100  142.8090 C   0  0  2  0  0  3  0  0  0  0  0  0
  195.2490  176.5180  141.3800 C   0  0  0  0  0  2  0  0  0  0  0  0
  194.7500  176.0670  142.7040 C   0  0  2  0  0  3  0  0  0  0  0  0
  195.1610  175.1540  141.7100 O   0  0  0  0  0  0  0  0  0  0  0  0
  192.7400  176.7910  144.0100 N   0  0  0  0  0  2  0  0  0  0  0  0
  193.9030  177.0220  144.8550 C   0  0  0  0  0  2  0  0  0  0  0  0
  193.3610  175.0210  146.2150 O   0  0  0  0  0  0  0  0  0  0  0  0
  193.7130  176.3590  146.1650 C   0  0  0  0  0  0  0  0  0  0  0  0
  193.8800  177.0070  147.2270 O   0  0  0  0  0  1  0  0  0  0  0  0
  190.2890  176.4980  147.2230 C   0  0  0  0  0  1  0  0  0  0  0  0
  190.0540  176.8030  145.8800 O   0  0  0  0  0  0  0  0  0  0  0  0
  2  6  1  0  0  0  0
  5  1  1  6  0  0  0
  5  8  1  0  0  0  0
  5 10  1  0  0  0  0
  6  4  2  0  0  0  0
  6  8  1  0  0  0  0
  7  3  1  1  0  0  0
  7  2  1  0  0  0  0
  7  1  1  0  0  0  0
  8 39  1  6  0  0  0
 10 12  1  1  0  0  0
 11  9  1  6  0  0  0
 11 14  1  0  0  0  0
 12 17  2  0  0  0  0
 14 12  1  0  0  0  0
 14 13  1  1  0  0  0
 15  9  1  0  0  0  0
 16  9  1  0  0  0  0
 18  9  1  6  0  0  0
 18 11  1  0  0  0  0
 18 10  1  0  0  0  0
 19 26  1  0  0  0  0
 20 24  1  0  0  0  0
 20 19  1  0  0  0  0
 21 19  2  0  0  0  0
 22 23  1  6  0  0  0
 22  2  1  0  0  0  0
 24 23  1  0  0  0  0
 24 25  1  1  0  0  0
 26 22  1  0  0  0  0
 26 28  1  1  0  0  0
 27 24  1  0  0  0  0
 29 28  1  1  0  0  0
 29 33  1  0  0  0  0
 30 32  1  0  0  0  0
 30 31  1  0  0  0  0
 31 29  1  6  0  0  0
 32 31  1  0  0  0  0
 33 34  1  0  0  0  0
 34 36  1  0  0  0  0
 36 35  2  0  0  0  0
 36 37  1  0  0  0  0
 39 38  1  0  0  0  0
M  END
>  <MODEL>
2

>  <REMARK>
 VINA RESULT:      -7.2      2.602      7.946
  Name = 
  9 active torsions:
  status: ('A' for Active; 'I' for Inactive)
    1  A    between atoms: C_3  and  C_24
    2  A    between atoms: N_6  and  C_20
    3  A    between atoms: N_6  and  C_38
    4  A    between atoms: C_11  and  C_20
    5  A    between atoms: C_13  and  C_20
    6  A    between atoms: C_13  and  C_35
    7  A    between atoms: C_15  and  C_38
    8  A    between atoms: N_16  and  C_22
    9  A    between atoms: O_27  and  C_32
                            x       y       z     vdW  Elec       q    Type
                         _______ _______ _______ _____ _____    ______ ____

>  <TORSDO>
F 9

$$$$
=
 OpenBabel11072409263D

 39 43  0  0  1  0  0  0  0  0999 V2000
  187.8900  176.1630  143.7610 C   0  0  0  0  0  2  0  0  0  0  0  0
  190.1530  175.2510  143.8310 N   0  0  0  0  0  0  0  0  0  0  0  0
  189.8040  177.4250  142.7430 C   0  0  0  0  0  1  0  0  0  0  0  0
  190.8560  174.5850  145.9650 O   0  0  0  0  0  0  0  0  0  0  0  0
  188.0470  176.8450  145.1270 C   0  0  2  0  0  3  0  0  0  0  0  0
  190.1310  175.3460  145.2640 C   0  0  0  0  0  0  0  0  0  0  0  0
  189.2250  176.0530  143.0370 C   0  0  2  0  0  3  0  0  0  0  0  0
  189.2540  176.3560  145.9620 C   0  0  1  0  0  3  0  0  0  0  0  0
  185.3480  178.0980  144.0530 C   0  0  0  0  0  0  0  0  0  0  0  0
  186.7050  176.8020  145.8870 C   0  0  1  0  0  3  0  0  0  0  0  0
  184.5780  177.9870  145.3640 C   0  0  2  0  0  3  0  0  0  0  0  0
  186.4520  177.9090  146.8510 C   0  0  0  0  0  0  0  0  0  0  0  0
  184.3680  178.6660  147.6380 O   0  0  0  0  0  1  0  0  0  0  0  0
  185.2370  178.6930  146.5500 C   0  0  2  0  0  3  0  0  0  0  0  0
  184.4660  177.9160  142.8380 C   0  0  0  0  0  1  0  0  0  0  0  0
  186.4410  179.1690  143.9720 C   0  0  0  0  0  1  0  0  0  0  0  0
  187.1400  178.1100  147.8390 O   0  0  0  0  0  0  0  0  0  0  0  0
  185.5090  176.8440  144.9180 C   0  0  1  0  0  3  0  0  0  0  0  0
  192.3750  173.8860  141.0700 C   0  0  0  0  0  0  0  0  0  0  0  0
  192.0110  172.5380  141.1530 O   0  0  0  0  0  0  0  0  0  0  0  0
  193.1530  174.2510  140.1460 O   0  0  0  0  0  0  0  0  0  0  0  0
  191.0390  174.2850  143.1810 C   0  0  1  0  0  3  0  0  0  0  0  0
  190.2870  173.0130  142.8060 C   0  0  0  0  0  2  0  0  0  0  0  0
  191.2540  171.9840  142.2300 C   0  0  2  0  0  0  0  0  0  0  0  0
  192.2010  171.4930  143.3140 C   0  0  0  0  0  1  0  0  0  0  0  0
  191.7520  174.9180  141.9800 C   0  0  1  0  0  3  0  0  0  0  0  0
  190.4920  170.8520  141.7380 N   0  0  0  0  0  1  0  0  0  0  0  0
  192.8060  175.8980  142.4970 C   0  0  0  0  0  2  0  0  0  0  0  0
  193.6110  175.2990  143.6380 C   0  0  2  0  0  3  0  0  0  0  0  0
  193.7070  176.2530  145.9670 C   0  0  0  0  0  2  0  0  0  0  0  0
  194.1390  176.4160  144.5570 C   0  0  2  0  0  3  0  0  0  0  0  0
  193.0760  177.1640  145.1020 O   0  0  0  0  0  0  0  0  0  0  0  0
  194.6670  174.4340  143.1200 N   0  0  0  0  0  2  0  0  0  0  0  0
  195.8900  175.2240  143.0950 C   0  0  0  0  0  2  0  0  0  0  0  0
  196.6000  174.6110  140.8000 O   0  0  0  0  0  0  0  0  0  0  0  0
  196.2220  175.5920  141.7000 C   0  0  0  0  0  0  0  0  0  0  0  0
  196.1540  176.7900  141.3330 O   0  0  0  0  0  1  0  0  0  0  0  0
  190.4370  177.2370  147.6380 C   0  0  0  0  0  1  0  0  0  0  0  0
  190.0180  177.4720  146.3260 O   0  0  0  0  0  0  0  0  0  0  0  0
  2  6  1  0  0  0  0
  5  1  1  6  0  0  0
  5 10  1  0  0  0  0
  5  8  1  0  0  0  0
  6  8  1  0  0  0  0
  6  4  2  0  0  0  0
  7  3  1  1  0  0  0
  7  1  1  0  0  0  0
  7  2  1  0  0  0  0
  8 39  1  6  0  0  0
 10 12  1  1  0  0  0
 11  9  1  6  0  0  0
 11 14  1  0  0  0  0
 12 17  2  0  0  0  0
 14 12  1  0  0  0  0
 14 13  1  1  0  0  0
 15  9  1  0  0  0  0
 16  9  1  0  0  0  0
 18  9  1  6  0  0  0
 18 11  1  0  0  0  0
 18 10  1  0  0  0  0
 19 20  1  0  0  0  0
 19 26  1  0  0  0  0
 20 24  1  0  0  0  0
 21 19  2  0  0  0  0
 22 23  1  6  0  0  0
 22  2  1  0  0  0  0
 24 23  1  0  0  0  0
 24 25  1  1  0  0  0
 26 28  1  1  0  0  0
 26 22  1  0  0  0  0
 27 24  1  0  0  0  0
 29 28  1  6  0  0  0
 31 29  1  6  0  0  0
 31 32  1  0  0  0  0
 31 30  1  0  0  0  0
 32 30  1  0  0  0  0
 33 29  1  0  0  0  0
 34 33  1  0  0  0  0
 35 36  2  0  0  0  0
 36 34  1  0  0  0  0
 37 36  1  0  0  0  0
 39 38  1  0  0  0  0
M  END
>  <MODEL>
3

>  <REMARK>
 VINA RESULT:      -7.1      2.678      7.916
  Name = 
  9 active torsions:
  status: ('A' for Active; 'I' for Inactive)
    1  A    between atoms: C_3  and  C_24
    2  A    between atoms: N_6  and  C_20
    3  A    between atoms: N_6  and  C_38
    4  A    between atoms: C_11  and  C_20
    5  A    between atoms: C_13  and  C_20
    6  A    between atoms: C_13  and  C_35
    7  A    between atoms: C_15  and  C_38
    8  A    between atoms: N_16  and  C_22
    9  A    between atoms: O_27  and  C_32
                            x       y       z     vdW  Elec       q    Type
                         _______ _______ _______ _____ _____    ______ ____

>  <TORSDO>
F 9

$$$$
=
 OpenBabel11072409263D

 39 43  0  0  1  0  0  0  0  0999 V2000
  188.6250  177.2660  145.7050 C   0  0  0  0  0  2  0  0  0  0  0  0
  190.5340  176.1380  144.6870 N   0  0  0  0  0  0  0  0  0  0  0  0
  188.9800  174.8060  146.0450 C   0  0  0  0  0  1  0  0  0  0  0  0
  190.7730  176.5320  142.3900 O   0  0  0  0  0  0  0  0  0  0  0  0
  187.7510  177.0610  144.4600 C   0  0  2  0  0  3  0  0  0  0  0  0
  190.0040  176.4420  143.3880 C   0  0  0  0  0  0  0  0  0  0  0  0
  189.6530  176.1530  145.8520 C   0  0  2  0  0  3  0  0  0  0  0  0
  188.5240  176.6540  143.1840 C   0  0  1  0  0  3  0  0  0  0  0  0
  185.6080  178.0310  146.5770 C   0  0  0  0  0  0  0  0  0  0  0  0
  186.8270  178.2820  144.2670 C   0  0  1  0  0  3  0  0  0  0  0  0
  184.8900  179.0060  145.6530 C   0  0  2  0  0  3  0  0  0  0  0  0
  185.5380  178.0350  143.5640 C   0  0  0  0  0  0  0  0  0  0  0  0
  183.5740  179.3230  143.6920 O   0  0  0  0  0  1  0  0  0  0  0  0
  184.3470  178.3820  144.3660 C   0  0  2  0  0  3  0  0  0  0  0  0
  185.6260  178.4920  148.0170 C   0  0  0  0  0  1  0  0  0  0  0  0
  185.3900  176.5350  146.3220 C   0  0  0  0  0  1  0  0  0  0  0  0
  185.4660  177.6490  142.4080 O   0  0  0  0  0  0  0  0  0  0  0  0
  186.4250  178.9020  145.6180 C   0  0  1  0  0  3  0  0  0  0  0  0
  193.6520  174.1760  145.6140 C   0  0  0  0  0  0  0  0  0  0  0  0
  194.4060  175.2220  146.1550 O   0  0  0  0  0  0  0  0  0  0  0  0
  194.1070  173.0010  145.6770 O   0  0  0  0  0  0  0  0  0  0  0  0
  191.9700  175.9040  144.8480 C   0  0  1  0  0  3  0  0  0  0  0  0
  192.5520  176.7860  145.9470 C   0  0  0  0  0  2  0  0  0  0  0  0
  194.0640  176.6020  146.0200 C   0  0  2  0  0  0  0  0  0  0  0  0
  194.7200  177.1660  144.7690 C   0  0  0  0  0  1  0  0  0  0  0  0
  192.2600  174.4160  145.0780 C   0  0  1  0  0  3  0  0  0  0  0  0
  194.5670  177.3280  147.1710 N   0  0  0  0  0  1  0  0  0  0  0  0
  192.0420  173.6650  143.7640 C   0  0  0  0  0  2  0  0  0  0  0  0
  191.1070  172.4820  143.9490 C   0  0  2  0  0  3  0  0  0  0  0  0
  192.5330  170.4290  144.2640 C   0  0  0  0  0  2  0  0  0  0  0  0
  191.7170  171.2210  143.3090 C   0  0  2  0  0  3  0  0  0  0  0  0
  193.1260  171.2830  143.3180 O   0  0  0  0  0  0  0  0  0  0  0  0
  189.7760  172.7970  143.4380 N   0  0  0  0  0  2  0  0  0  0  0  0
  189.5350  171.9160  142.3050 C   0  0  0  0  0  2  0  0  0  0  0  0
  188.2510  172.6160  140.3020 O   0  0  0  0  0  0  0  0  0  0  0  0
  189.4010  172.7150  141.0660 C   0  0  0  0  0  0  0  0  0  0  0  0
  190.3260  173.4870  140.7140 O   0  0  0  0  0  1  0  0  0  0  0  0
  187.6870  175.7410  141.3260 C   0  0  0  0  0  1  0  0  0  0  0  0
  187.9460  175.4840  142.6750 O   0  0  0  0  0  0  0  0  0  0  0  0
  1  7  1  0  0  0  0
  2  7  1  0  0  0  0
  4  6  2  0  0  0  0
  5  1  1  1  0  0  0
  6  2  1  0  0  0  0
  7  3  1  6  0  0  0
  8 39  1  1  0  0  0
  8  6  1  0  0  0  0
  8  5  1  0  0  0  0
  9 15  1  0  0  0  0
 10 12  1  1  0  0  0
 10  5  1  0  0  0  0
 10 18  1  0  0  0  0
 11  9  1  1  0  0  0
 12 14  1  0  0  0  0
 14 13  1  6  0  0  0
 14 11  1  0  0  0  0
 16  9  1  0  0  0  0
 17 12  2  0  0  0  0
 18 11  1  0  0  0  0
 18  9  1  1  0  0  0
 19 21  2  0  0  0  0
 19 20  1  0  0  0  0
 22  2  1  1  0  0  0
 22 26  1  0  0  0  0
 22 23  1  0  0  0  0
 23 24  1  0  0  0  0
 24 25  1  6  0  0  0
 24 20  1  0  0  0  0
 24 27  1  0  0  0  0
 26 28  1  6  0  0  0
 26 19  1  0  0  0  0
 29 28  1  6  0  0  0
 31 32  1  0  0  0  0
 31 29  1  1  0  0  0
 31 30  1  0  0  0  0
 32 30  1  0  0  0  0
 33 29  1  0  0  0  0
 34 33  1  0  0  0  0
 35 36  2  0  0  0  0
 36 34  1  0  0  0  0
 37 36  1  0  0  0  0
 38 39  1  0  0  0  0
M  END
>  <MODEL>
4

>  <REMARK>
 VINA RESULT:      -7.0      2.009      7.526
  Name = 
  9 active torsions:
  status: ('A' for Active; 'I' for Inactive)
    1  A    between atoms: C_3  and  C_24
    2  A    between atoms: N_6  and  C_20
    3  A    between atoms: N_6  and  C_38
    4  A    between atoms: C_11  and  C_20
    5  A    between atoms: C_13  and  C_20
    6  A    between atoms: C_13  and  C_35
    7  A    between atoms: C_15  and  C_38
    8  A    between atoms: N_16  and  C_22
    9  A    between atoms: O_27  and  C_32
                            x       y       z     vdW  Elec       q    Type
                         _______ _______ _______ _____ _____    ______ ____

>  <TORSDO>
F 9

$$$$
=
 OpenBabel11072409263D

 39 43  0  0  1  0  0  0  0  0999 V2000
  190.2580  177.7160  143.3890 C   0  0  0  0  0  2  0  0  0  0  0  0
  191.7100  175.7610  143.2380 N   0  0  0  0  0  0  0  0  0  0  0  0
  190.6190  176.2410  145.3850 C   0  0  0  0  0  1  0  0  0  0  0  0
  191.2250  174.3390  141.4400 O   0  0  0  0  0  0  0  0  0  0  0  0
  189.0300  176.9280  142.9130 C   0  0  2  0  0  3  0  0  0  0  0  0
  190.8080  175.1820  142.2820 C   0  0  0  0  0  0  0  0  0  0  0  0
  191.2420  176.8200  144.1280 C   0  0  2  0  0  3  0  0  0  0  0  0
  189.3470  175.5590  142.2660 C   0  0  1  0  0  3  0  0  0  0  0  0
  186.3030  178.2030  143.8870 C   0  0  0  0  0  0  0  0  0  0  0  0
  188.1340  177.8360  142.0450 C   0  0  1  0  0  3  0  0  0  0  0  0
  185.8330  178.6650  142.5130 C   0  0  2  0  0  3  0  0  0  0  0  0
  187.1280  177.1520  141.1860 C   0  0  0  0  0  0  0  0  0  0  0  0
  185.1420  178.0610  140.3150 O   0  0  0  0  0  1  0  0  0  0  0  0
  185.7340  177.5530  141.4680 C   0  0  2  0  0  3  0  0  0  0  0  0
  185.8660  179.1310  144.9990 C   0  0  0  0  0  1  0  0  0  0  0  0
  186.2590  176.6980  144.1720 C   0  0  0  0  0  1  0  0  0  0  0  0
  187.4240  176.3830  140.2860 O   0  0  0  0  0  0  0  0  0  0  0  0
  187.3140  178.8100  142.9110 C   0  0  1  0  0  3  0  0  0  0  0  0
  195.1200  175.0920  144.7710 C   0  0  0  0  0  0  0  0  0  0  0  0
  195.9180  175.5360  143.7130 O   0  0  0  0  0  0  0  0  0  0  0  0
  195.6750  174.7440  145.8500 O   0  0  0  0  0  0  0  0  0  0  0  0
  193.1150  175.3490  143.2510 C   0  0  1  0  0  3  0  0  0  0  0  0
  193.9830  176.3280  142.4670 C   0  0  0  0  0  2  0  0  0  0  0  0
  195.4190  175.8200  142.4050 C   0  0  2  0  0  0  0  0  0  0  0  0
  195.4930  174.5650  141.5510 C   0  0  0  0  0  1  0  0  0  0  0  0
  193.6120  175.1480  144.6870 C   0  0  1  0  0  3  0  0  0  0  0  0
  196.2490  176.8420  141.7950 N   0  0  0  0  0  1  0  0  0  0  0  0
  192.9850  173.8710  145.2480 C   0  0  0  0  0  2  0  0  0  0  0  0
  193.0480  172.7330  144.2430 C   0  0  2  0  0  3  0  0  0  0  0  0
  191.0210  171.5910  143.2760 C   0  0  0  0  0  2  0  0  0  0  0  0
  191.8790  171.7580  144.4760 C   0  0  2  0  0  3  0  0  0  0  0  0
  190.6400  172.4170  144.3480 O   0  0  0  0  0  0  0  0  0  0  0  0
  194.3550  172.0840  144.2860 N   0  0  0  0  0  2  0  0  0  0  0  0
  194.4570  171.4180  145.5770 C   0  0  0  0  0  2  0  0  0  0  0  0
  196.0780  169.5450  145.4600 O   0  0  0  0  0  0  0  0  0  0  0  0
  195.8220  170.8730  145.7550 C   0  0  0  0  0  0  0  0  0  0  0  0
  196.7470  171.6160  146.1640 O   0  0  0  0  0  1  0  0  0  0  0  0
  188.1620  173.6970  141.9350 C   0  0  0  0  0  1  0  0  0  0  0  0
  188.5990  174.5770  142.9280 O   0  0  0  0  0  0  0  0  0  0  0  0
  1  7  1  0  0  0  0
  2 22  1  0  0  0  0
  2  7  1  0  0  0  0
  4  6  2  0  0  0  0
  5  1  1  6  0  0  0
  6  2  1  0  0  0  0
  7  3  1  1  0  0  0
  8  6  1  0  0  0  0
  8  5  1  0  0  0  0
  8 39  1  1  0  0  0
  9 16  1  0  0  0  0
  9 15  1  0  0  0  0
 10 12  1  1  0  0  0
 10 18  1  0  0  0  0
 10  5  1  0  0  0  0
 11 18  1  0  0  0  0
 11  9  1  1  0  0  0
 12 14  1  0  0  0  0
 14 13  1  6  0  0  0
 14 11  1  0  0  0  0
 17 12  2  0  0  0  0
 18  9  1  1  0  0  0
 19 21  2  0  0  0  0
 20 19  1  0  0  0  0
 22 23  1  1  0  0  0
 22 26  1  0  0  0  0
 24 25  1  6  0  0  0
 24 23  1  0  0  0  0
 24 20  1  0  0  0  0
 26 19  1  0  0  0  0
 26 28  1  6  0  0  0
 27 24  1  0  0  0  0
 29 33  1  0  0  0  0
 29 28  1  1  0  0  0
 30 32  1  0  0  0  0
 30 31  1  0  0  0  0
 31 29  1  6  0  0  0
 32 31  1  0  0  0  0
 33 34  1  0  0  0  0
 34 36  1  0  0  0  0
 35 36  2  0  0  0  0
 36 37  1  0  0  0  0
 38 39  1  0  0  0  0
M  END
>  <MODEL>
5

>  <REMARK>
 VINA RESULT:      -6.9      2.371      8.064
  Name = 
  9 active torsions:
  status: ('A' for Active; 'I' for Inactive)
    1  A    between atoms: C_3  and  C_24
    2  A    between atoms: N_6  and  C_20
    3  A    between atoms: N_6  and  C_38
    4  A    between atoms: C_11  and  C_20
    5  A    between atoms: C_13  and  C_20
    6  A    between atoms: C_13  and  C_35
    7  A    between atoms: C_15  and  C_38
    8  A    between atoms: N_16  and  C_22
    9  A    between atoms: O_27  and  C_32
                            x       y       z     vdW  Elec       q    Type
                         _______ _______ _______ _____ _____    ______ ____

>  <TORSDO>
F 9

$$$$
=
 OpenBabel11072409263D

 39 43  0  0  1  0  0  0  0  0999 V2000
  190.7150  176.6130  144.9350 C   0  0  0  0  0  2  0  0  0  0  0  0
  192.3560  174.9470  144.2380 N   0  0  0  0  0  0  0  0  0  0  0  0
  191.3550  174.7360  146.4700 C   0  0  0  0  0  1  0  0  0  0  0  0
  191.9160  173.9770  142.1510 O   0  0  0  0  0  0  0  0  0  0  0  0
  189.5510  175.8300  144.3120 C   0  0  2  0  0  3  0  0  0  0  0  0
  191.4640  174.5250  143.1950 C   0  0  0  0  0  0  0  0  0  0  0  0
  191.8330  175.6840  145.3850 C   0  0  2  0  0  3  0  0  0  0  0  0
  189.9730  174.7160  143.3240 C   0  0  1  0  0  3  0  0  0  0  0  0
  187.4710  177.4530  146.0580 C   0  0  0  0  0  0  0  0  0  0  0  0
  188.5110  176.8140  143.7360 C   0  0  1  0  0  3  0  0  0  0  0  0
  186.6100  177.9280  144.8950 C   0  0  2  0  0  3  0  0  0  0  0  0
  187.2070  176.2310  143.3160 C   0  0  0  0  0  0  0  0  0  0  0  0
  185.1480  177.3480  143.1050 O   0  0  0  0  0  1  0  0  0  0  0  0
  186.0440  176.8060  144.0230 C   0  0  2  0  0  3  0  0  0  0  0  0
  187.5410  178.4590  147.1860 C   0  0  0  0  0  1  0  0  0  0  0  0
  187.3720  175.9730  146.4440 C   0  0  0  0  0  1  0  0  0  0  0  0
  187.0950  175.4060  142.4240 O   0  0  0  0  0  0  0  0  0  0  0  0
  188.1430  177.9050  144.7580 C   0  0  1  0  0  3  0  0  0  0  0  0
  195.9000  174.2880  145.4340 C   0  0  0  0  0  0  0  0  0  0  0  0
  196.5850  175.0970  144.5230 O   0  0  0  0  0  0  0  0  0  0  0  0
  196.5500  173.7250  146.3570 O   0  0  0  0  0  0  0  0  0  0  0  0
  193.7950  174.7170  144.0990 C   0  0  1  0  0  3  0  0  0  0  0  0
  194.5080  175.9690  143.5990 C   0  0  0  0  0  2  0  0  0  0  0  0
  195.9840  175.6710  143.3600 C   0  0  2  0  0  0  0  0  0  0  0  0
  196.1410  174.7170  142.1870 C   0  0  0  0  0  1  0  0  0  0  0  0
  194.3930  174.1870  145.4080 C   0  0  1  0  0  3  0  0  0  0  0  0
  196.6640  176.9110  143.0400 N   0  0  0  0  0  1  0  0  0  0  0  0
  193.9380  172.7400  145.6040 C   0  0  0  0  0  2  0  0  0  0  0  0
  194.0180  171.9520  144.3080 C   0  0  2  0  0  3  0  0  0  0  0  0
  192.1820  170.7540  143.0670 C   0  0  0  0  0  2  0  0  0  0  0  0
  192.9810  170.8130  144.3170 C   0  0  2  0  0  3  0  0  0  0  0  0
  191.6700  171.3260  144.2440 O   0  0  0  0  0  0  0  0  0  0  0  0
  195.3820  171.4840  144.0780 N   0  0  0  0  0  2  0  0  0  0  0  0
  195.5280  170.2270  144.7970 C   0  0  0  0  0  2  0  0  0  0  0  0
  197.9360  170.7750  145.0160 O   0  0  0  0  0  0  0  0  0  0  0  0
  196.7900  170.2330  145.5710 C   0  0  0  0  0  0  0  0  0  0  0  0
  196.8180  169.7550  146.7310 O   0  0  0  0  0  1  0  0  0  0  0  0
  188.9870  172.8640  142.5620 C   0  0  0  0  0  1  0  0  0  0  0  0
  189.3770  173.5170  143.7340 O   0  0  0  0  0  0  0  0  0  0  0  0
  1  7  1  0  0  0  0
  2  7  1  0  0  0  0
  4  6  2  0  0  0  0
  5  1  1  6  0  0  0
  6  8  1  0  0  0  0
  6  2  1  0  0  0  0
  7  3  1  1  0  0  0
  8 39  1  1  0  0  0
  8  5  1  0  0  0  0
  9 16  1  0  0  0  0
  9 15  1  0  0  0  0
 10 12  1  1  0  0  0
 10  5  1  0  0  0  0
 10 18  1  0  0  0  0
 11  9  1  1  0  0  0
 12 14  1  0  0  0  0
 14 13  1  6  0  0  0
 14 11  1  0  0  0  0
 17 12  2  0  0  0  0
 18 11  1  0  0  0  0
 18  9  1  1  0  0  0
 19 21  2  0  0  0  0
 20 19  1  0  0  0  0
 22 23  1  1  0  0  0
 22  2  1  0  0  0  0
 22 26  1  0  0  0  0
 24 25  1  6  0  0  0
 24 23  1  0  0  0  0
 24 20  1  0  0  0  0
 26 19  1  0  0  0  0
 26 28  1  6  0  0  0
 27 24  1  0  0  0  0
 29 28  1  1  0  0  0
 30 32  1  0  0  0  0
 30 31  1  0  0  0  0
 31 29  1  6  0  0  0
 32 31  1  0  0  0  0
 33 29  1  0  0  0  0
 33 34  1  0  0  0  0
 34 36  1  0  0  0  0
 35 36  2  0  0  0  0
 36 37  1  0  0  0  0
 38 39  1  0  0  0  0
M  END
>  <MODEL>
6

>  <REMARK>
 VINA RESULT:      -6.6      2.376      8.090
  Name = 
  9 active torsions:
  status: ('A' for Active; 'I' for Inactive)
    1  A    between atoms: C_3  and  C_24
    2  A    between atoms: N_6  and  C_20
    3  A    between atoms: N_6  and  C_38
    4  A    between atoms: C_11  and  C_20
    5  A    between atoms: C_13  and  C_20
    6  A    between atoms: C_13  and  C_35
    7  A    between atoms: C_15  and  C_38
    8  A    between atoms: N_16  and  C_22
    9  A    between atoms: O_27  and  C_32
                            x       y       z     vdW  Elec       q    Type
                         _______ _______ _______ _____ _____    ______ ____

>  <TORSDO>
F 9

$$$$
=
 OpenBabel11072409263D

 39 43  0  0  1  0  0  0  0  0999 V2000
  190.0990  174.0750  144.7040 C   0  0  0  0  0  2  0  0  0  0  0  0
  189.1260  176.1730  145.4820 N   0  0  0  0  0  0  0  0  0  0  0  0
  189.8700  174.5410  147.1580 C   0  0  0  0  0  1  0  0  0  0  0  0
  190.0810  178.0890  144.5280 O   0  0  0  0  0  0  0  0  0  0  0  0
  191.5090  174.6760  144.6270 C   0  0  2  0  0  3  0  0  0  0  0  0
  190.2210  176.8860  144.8860 C   0  0  0  0  0  0  0  0  0  0  0  0
  189.2630  174.7500  145.7830 C   0  0  2  0  0  3  0  0  0  0  0  0
  191.5600  176.2210  144.6820 C   0  0  1  0  0  3  0  0  0  0  0  0
  193.9520  172.6830  144.8880 C   0  0  0  0  0  0  0  0  0  0  0  0
  192.2680  174.0680  143.4290 C   0  0  1  0  0  3  0  0  0  0  0  0
  194.3820  172.7530  143.4270 C   0  0  2  0  0  3  0  0  0  0  0  0
  193.4010  174.8680  142.8870 C   0  0  0  0  0  0  0  0  0  0  0  0
  195.2350  174.0800  141.6420 O   0  0  0  0  0  1  0  0  0  0  0  0
  194.6990  174.1620  142.9240 C   0  0  2  0  0  3  0  0  0  0  0  0
  194.1920  171.3230  145.5050 C   0  0  0  0  0  1  0  0  0  0  0  0
  194.2370  173.9090  145.7610 C   0  0  0  0  0  1  0  0  0  0  0  0
  193.2670  175.9750  142.3920 O   0  0  0  0  0  0  0  0  0  0  0  0
  192.8860  172.7040  143.7880 C   0  0  1  0  0  3  0  0  0  0  0  0
  186.3110  178.6040  144.7100 C   0  0  0  0  0  0  0  0  0  0  0  0
  186.0320  179.0250  146.0140 O   0  0  0  0  0  0  0  0  0  0  0  0
  185.7100  179.1590  143.7490 O   0  0  0  0  0  0  0  0  0  0  0  0
  187.8490  176.8550  145.6980 C   0  0  1  0  0  3  0  0  0  0  0  0
  187.9120  177.7690  146.9170 C   0  0  0  0  0  2  0  0  0  0  0  0
  186.5410  178.3820  147.1830 C   0  0  2  0  0  0  0  0  0  0  0  0
  185.5660  177.3060  147.6340 C   0  0  0  0  0  1  0  0  0  0  0  0
  187.4040  177.5990  144.4330 C   0  0  1  0  0  3  0  0  0  0  0  0
  186.6670  179.3630  148.2440 N   0  0  0  0  0  1  0  0  0  0  0  0
  186.9520  176.5720  143.3940 C   0  0  0  0  0  2  0  0  0  0  0  0
  187.6820  176.7580  142.0740 C   0  0  2  0  0  3  0  0  0  0  0  0
  186.5780  177.9150  140.1280 C   0  0  0  0  0  2  0  0  0  0  0  0
  186.6900  176.6530  140.9020 C   0  0  2  0  0  3  0  0  0  0  0  0
  185.6090  177.5430  141.0750 O   0  0  0  0  0  0  0  0  0  0  0  0
  188.7960  175.8200  141.9690 N   0  0  0  0  0  2  0  0  0  0  0  0
  188.4680  174.8880  140.9000 C   0  0  0  0  0  2  0  0  0  0  0  0
  189.7610  172.7900  141.1720 O   0  0  0  0  0  0  0  0  0  0  0  0
  188.5910  173.4960  141.3910 C   0  0  0  0  0  0  0  0  0  0  0  0
  187.6390  172.9620  142.0110 O   0  0  0  0  0  1  0  0  0  0  0  0
  193.4140  177.3890  145.1100 C   0  0  0  0  0  1  0  0  0  0  0  0
  192.4340  176.5950  145.7110 O   0  0  0  0  0  0  0  0  0  0  0  0
  1  7  1  0  0  0  0
  2  7  1  0  0  0  0
  4  6  2  0  0  0  0
  5  8  1  0  0  0  0
  5  1  1  6  0  0  0
  6  2  1  0  0  0  0
  7  3  1  1  0  0  0
  8  6  1  0  0  0  0
  8 39  1  1  0  0  0
  9 15  1  0  0  0  0
  9 16  1  0  0  0  0
 10 12  1  1  0  0  0
 10 18  1  0  0  0  0
 10  5  1  0  0  0  0
 11 18  1  0  0  0  0
 11  9  1  1  0  0  0
 12 14  1  0  0  0  0
 14 13  1  6  0  0  0
 14 11  1  0  0  0  0
 17 12  2  0  0  0  0
 18  9  1  1  0  0  0
 19 20  1  0  0  0  0
 20 24  1  0  0  0  0
 21 19  2  0  0  0  0
 22  2  1  6  0  0  0
 22 23  1  0  0  0  0
 23 24  1  0  0  0  0
 24 25  1  1  0  0  0
 24 27  1  0  0  0  0
 26 28  1  6  0  0  0
 26 19  1  0  0  0  0
 26 22  1  0  0  0  0
 29 28  1  1  0  0  0
 30 31  1  0  0  0  0
 30 32  1  0  0  0  0
 31 32  1  0  0  0  0
 31 29  1  1  0  0  0
 33 29  1  0  0  0  0
 34 36  1  0  0  0  0
 34 33  1  0  0  0  0
 35 36  2  0  0  0  0
 36 37  1  0  0  0  0
 38 39  1  0  0  0  0
M  END
>  <MODEL>
7

>  <REMARK>
 VINA RESULT:      -6.5      1.719      2.763
  Name = 
  9 active torsions:
  status: ('A' for Active; 'I' for Inactive)
    1  A    between atoms: C_3  and  C_24
    2  A    between atoms: N_6  and  C_20
    3  A    between atoms: N_6  and  C_38
    4  A    between atoms: C_11  and  C_20
    5  A    between atoms: C_13  and  C_20
    6  A    between atoms: C_13  and  C_35
    7  A    between atoms: C_15  and  C_38
    8  A    between atoms: N_16  and  C_22
    9  A    between atoms: O_27  and  C_32
                            x       y       z     vdW  Elec       q    Type
                         _______ _______ _______ _____ _____    ______ ____

>  <TORSDO>
F 9

$$$$
=
 OpenBabel11072409263D

 39 43  0  0  1  0  0  0  0  0999 V2000
  188.8230  177.2590  145.4050 C   0  0  0  0  0  2  0  0  0  0  0  0
  190.5840  175.8440  144.4820 N   0  0  0  0  0  0  0  0  0  0  0  0
  189.1410  174.9140  146.2380 C   0  0  0  0  0  1  0  0  0  0  0  0
  190.5960  175.7250  142.1420 O   0  0  0  0  0  0  0  0  0  0  0  0
  187.8200  176.8370  144.3230 C   0  0  2  0  0  3  0  0  0  0  0  0
  189.9320  175.8910  143.2040 C   0  0  0  0  0  0  0  0  0  0  0  0
  189.8280  176.1530  145.6940 C   0  0  2  0  0  3  0  0  0  0  0  0
  188.4460  176.1270  143.0990 C   0  0  1  0  0  3  0  0  0  0  0  0
  185.7120  178.1480  146.2840 C   0  0  0  0  0  0  0  0  0  0  0  0
  186.9160  178.0330  143.9560 C   0  0  1  0  0  3  0  0  0  0  0  0
  185.0030  178.9900  145.2300 C   0  0  2  0  0  3  0  0  0  0  0  0
  185.6170  177.7090  143.3040 C   0  0  0  0  0  0  0  0  0  0  0  0
  183.6780  179.0390  143.2510 O   0  0  0  0  0  1  0  0  0  0  0  0
  184.4390  178.1930  144.0530 C   0  0  2  0  0  3  0  0  0  0  0  0
  185.7500  178.8170  147.6410 C   0  0  0  0  0  1  0  0  0  0  0  0
  185.4650  176.6360  146.2540 C   0  0  0  0  0  1  0  0  0  0  0  0
  185.5290  177.1580  142.2190 O   0  0  0  0  0  0  0  0  0  0  0  0
  186.5360  178.8530  145.2030 C   0  0  1  0  0  3  0  0  0  0  0  0
  193.7410  174.1200  145.7010 C   0  0  0  0  0  0  0  0  0  0  0  0
  194.5890  175.2320  145.7360 O   0  0  0  0  0  0  0  0  0  0  0  0
  194.1670  173.0150  146.1350 O   0  0  0  0  0  0  0  0  0  0  0  0
  192.0220  175.5790  144.5540 C   0  0  1  0  0  3  0  0  0  0  0  0
  192.7680  176.7500  145.1840 C   0  0  0  0  0  2  0  0  0  0  0  0
  194.2710  176.4940  145.1480 C   0  0  2  0  0  0  0  0  0  0  0  0
  194.7710  176.5230  143.7120 C   0  0  0  0  0  1  0  0  0  0  0  0
  192.2980  174.2540  145.2760 C   0  0  1  0  0  3  0  0  0  0  0  0
  194.9400  177.5440  145.8910 N   0  0  0  0  0  1  0  0  0  0  0  0
  191.8880  173.1010  144.3580 C   0  0  0  0  0  2  0  0  0  0  0  0
  192.9650  172.8000  143.3300 C   0  0  2  0  0  3  0  0  0  0  0  0
  193.4230  172.7520  140.8530 C   0  0  0  0  0  2  0  0  0  0  0  0
  192.4280  173.0610  141.9100 C   0  0  2  0  0  3  0  0  0  0  0  0
  193.1720  174.0720  141.2680 O   0  0  0  0  0  0  0  0  0  0  0  0
  193.4790  171.4450  143.5090 N   0  0  0  0  0  2  0  0  0  0  0  0
  192.3530  170.6110  143.9020 C   0  0  0  0  0  2  0  0  0  0  0  0
  192.2320  169.2250  141.8500 O   0  0  0  0  0  0  0  0  0  0  0  0
  192.4340  169.3010  143.2170 C   0  0  0  0  0  0  0  0  0  0  0  0
  192.6920  168.2640  143.8740 O   0  0  0  0  0  1  0  0  0  0  0  0
  187.8180  174.6590  141.5390 C   0  0  0  0  0  1  0  0  0  0  0  0
  187.7850  174.9060  142.9140 O   0  0  0  0  0  0  0  0  0  0  0  0
  1  7  1  0  0  0  0
  2  7  1  0  0  0  0
  4  6  2  0  0  0  0
  5  1  1  1  0  0  0
  6  2  1  0  0  0  0
  7  3  1  6  0  0  0
  8 39  1  1  0  0  0
  8  6  1  0  0  0  0
  8  5  1  0  0  0  0
  9 15  1  0  0  0  0
 10 12  1  1  0  0  0
 10  5  1  0  0  0  0
 10 18  1  0  0  0  0
 11  9  1  1  0  0  0
 12 14  1  0  0  0  0
 14 13  1  6  0  0  0
 14 11  1  0  0  0  0
 16  9  1  0  0  0  0
 17 12  2  0  0  0  0
 18 11  1  0  0  0  0
 18  9  1  1  0  0  0
 19 20  1  0  0  0  0
 19 21  2  0  0  0  0
 22  2  1  1  0  0  0
 22 23  1  0  0  0  0
 22 26  1  0  0  0  0
 24 25  1  6  0  0  0
 24 23  1  0  0  0  0
 24 20  1  0  0  0  0
 24 27  1  0  0  0  0
 26 28  1  6  0  0  0
 26 19  1  0  0  0  0
 29 33  1  0  0  0  0
 29 28  1  1  0  0  0
 30 32  1  0  0  0  0
 30 31  1  0  0  0  0
 31 29  1  1  0  0  0
 32 31  1  0  0  0  0
 33 34  1  0  0  0  0
 35 36  2  0  0  0  0
 36 37  1  0  0  0  0
 36 34  1  0  0  0  0
 38 39  1  0  0  0  0
M  END
>  <MODEL>
8

>  <REMARK>
 VINA RESULT:      -6.5      2.337      7.651
  Name = 
  9 active torsions:
  status: ('A' for Active; 'I' for Inactive)
    1  A    between atoms: C_3  and  C_24
    2  A    between atoms: N_6  and  C_20
    3  A    between atoms: N_6  and  C_38
    4  A    between atoms: C_11  and  C_20
    5  A    between atoms: C_13  and  C_20
    6  A    between atoms: C_13  and  C_35
    7  A    between atoms: C_15  and  C_38
    8  A    between atoms: N_16  and  C_22
    9  A    between atoms: O_27  and  C_32
                            x       y       z     vdW  Elec       q    Type
                         _______ _______ _______ _____ _____    ______ ____

>  <TORSDO>
F 9

$$$$
=
 OpenBabel11072409263D

 39 43  0  0  1  0  0  0  0  0999 V2000
  188.1550  176.2150  143.5120 C   0  0  0  0  0  2  0  0  0  0  0  0
  190.4130  175.4490  144.0280 N   0  0  0  0  0  0  0  0  0  0  0  0
  190.1500  177.5380  142.7630 C   0  0  0  0  0  1  0  0  0  0  0  0
  190.7650  174.9400  146.2880 O   0  0  0  0  0  0  0  0  0  0  0  0
  188.0340  176.9760  144.8400 C   0  0  2  0  0  3  0  0  0  0  0  0
  190.1360  175.6170  145.4260 C   0  0  0  0  0  0  0  0  0  0  0  0
  189.5990  176.1500  143.0370 C   0  0  2  0  0  3  0  0  0  0  0  0
  189.0990  176.6060  145.8990 C   0  0  1  0  0  3  0  0  0  0  0  0
  185.5360  178.2420  143.3670 C   0  0  0  0  0  0  0  0  0  0  0  0
  186.5830  176.8900  145.3580 C   0  0  1  0  0  3  0  0  0  0  0  0
  184.5570  178.0720  144.5230 C   0  0  2  0  0  3  0  0  0  0  0  0
  186.1520  177.9560  146.3040 C   0  0  0  0  0  0  0  0  0  0  0  0
  183.9520  178.6610  146.7510 O   0  0  0  0  0  1  0  0  0  0  0  0
  184.9920  178.7400  145.8290 C   0  0  2  0  0  3  0  0  0  0  0  0
  184.8760  178.0970  142.0140 C   0  0  0  0  0  1  0  0  0  0  0  0
  186.6090  179.3260  143.5120 C   0  0  0  0  0  1  0  0  0  0  0  0
  186.6580  178.1270  147.4010 O   0  0  0  0  0  0  0  0  0  0  0  0
  185.5680  176.9570  144.2010 C   0  0  1  0  0  3  0  0  0  0  0  0
  192.3340  172.1720  144.0100 C   0  0  0  0  0  0  0  0  0  0  0  0
  193.6240  172.6840  143.8410 O   0  0  0  0  0  0  0  0  0  0  0  0
  192.1900  170.9330  144.2010 O   0  0  0  0  0  0  0  0  0  0  0  0
  191.4490  174.5060  143.6010 C   0  0  1  0  0  3  0  0  0  0  0  0
  192.8340  174.9790  144.0300 C   0  0  0  0  0  2  0  0  0  0  0  0
  193.9010  174.0390  143.4810 C   0  0  2  0  0  0  0  0  0  0  0  0
  193.9720  174.1550  141.9660 C   0  0  0  0  0  1  0  0  0  0  0  0
  191.1370  173.0890  144.0970 C   0  0  1  0  0  3  0  0  0  0  0  0
  195.1870  174.4200  144.0330 N   0  0  0  0  0  1  0  0  0  0  0  0
  189.9630  172.5350  143.2880 C   0  0  0  0  0  2  0  0  0  0  0  0
  190.1880  172.7050  141.7950 C   0  0  2  0  0  3  0  0  0  0  0  0
  188.4630  173.9820  140.4750 C   0  0  0  0  0  2  0  0  0  0  0  0
  188.8410  172.6660  141.0500 C   0  0  2  0  0  3  0  0  0  0  0  0
  187.8970  173.5090  141.6720 O   0  0  0  0  0  0  0  0  0  0  0  0
  191.1430  171.7160  141.3050 N   0  0  0  0  0  2  0  0  0  0  0  0
  191.6060  172.1780  140.0050 C   0  0  0  0  0  2  0  0  0  0  0  0
  191.5130  171.4280  137.6440 O   0  0  0  0  0  0  0  0  0  0  0  0
  191.3840  171.1260  138.9880 C   0  0  0  0  0  0  0  0  0  0  0  0
  191.0870  169.9590  139.3460 O   0  0  0  0  0  1  0  0  0  0  0  0
  190.0320  177.5950  147.6690 C   0  0  0  0  0  1  0  0  0  0  0  0
  189.7290  177.7850  146.3190 O   0  0  0  0  0  0  0  0  0  0  0  0
  2  6  1  0  0  0  0
  5  1  1  6  0  0  0
  5 10  1  0  0  0  0
  5  8  1  0  0  0  0
  6  8  1  0  0  0  0
  6  4  2  0  0  0  0
  7  3  1  1  0  0  0
  7  1  1  0  0  0  0
  7  2  1  0  0  0  0
  8 39  1  6  0  0  0
  9 16  1  0  0  0  0
 10 12  1  1  0  0  0
 11  9  1  6  0  0  0
 11 14  1  0  0  0  0
 12 17  2  0  0  0  0
 14 12  1  0  0  0  0
 14 13  1  1  0  0  0
 15  9  1  0  0  0  0
 18  9  1  6  0  0  0
 18 11  1  0  0  0  0
 18 10  1  0  0  0  0
 19 26  1  0  0  0  0
 19 21  2  0  0  0  0
 20 19  1  0  0  0  0
 22  2  1  1  0  0  0
 22 23  1  0  0  0  0
 22 26  1  0  0  0  0
 24 25  1  6  0  0  0
 24 20  1  0  0  0  0
 24 23  1  0  0  0  0
 24 27  1  0  0  0  0
 26 28  1  6  0  0  0
 29 28  1  1  0  0  0
 30 31  1  0  0  0  0
 30 32  1  0  0  0  0
 31 32  1  0  0  0  0
 31 29  1  1  0  0  0
 33 29  1  0  0  0  0
 34 33  1  0  0  0  0
 35 36  2  0  0  0  0
 36 37  1  0  0  0  0
 36 34  1  0  0  0  0
 39 38  1  0  0  0  0
M  END
>  <MODEL>
9

>  <REMARK>
 VINA RESULT:      -6.1      2.310      7.306
  Name = 
  9 active torsions:
  status: ('A' for Active; 'I' for Inactive)
    1  A    between atoms: C_3  and  C_24
    2  A    between atoms: N_6  and  C_20
    3  A    between atoms: N_6  and  C_38
    4  A    between atoms: C_11  and  C_20
    5  A    between atoms: C_13  and  C_20
    6  A    between atoms: C_13  and  C_35
    7  A    between atoms: C_15  and  C_38
    8  A    between atoms: N_16  and  C_22
    9  A    between atoms: O_27  and  C_32
                            x       y       z     vdW  Elec       q    Type
                         _______ _______ _______ _____ _____    ______ ____

>  <TORSDO>
F 9

$$$$
