=
 OpenBabel11062420333D

 32 35  0  0  1  0  0  0  0  0999 V2000
  193.3040  174.0040  144.5760 N   0  0  0  0  0  0  0  0  0  0  0  0
  192.6830  176.4060  146.5950 C   0  0  2  0  0  3  0  0  0  0  0  0
  193.1310  174.2660  143.1520 C   0  0  0  0  0  2  0  0  0  0  0  0
  192.3260  174.9250  146.6860 C   0  0  1  0  0  3  0  0  0  0  0  0
  191.3330  176.5900  147.2380 C   0  0  0  0  0  2  0  0  0  0  0  0
  191.6930  176.7300  144.3420 C   0  0  1  0  0  3  0  0  0  0  0  0
  193.4690  175.7140  142.8300 C   0  0  2  0  0  3  0  0  0  0  0  0
  191.0840  175.2030  147.2840 O   0  0  0  0  0  0  0  0  0  0  0  0
  192.2360  176.6120  142.9210 C   0  0  0  0  0  2  0  0  0  0  0  0
  192.7900  177.0310  145.2620 N   0  0  0  0  0  2  0  0  0  0  0  0
  192.1090  174.0940  145.4120 C   0  0  0  0  0  2  0  0  0  0  0  0
  195.6260  174.2490  145.3960 C   0  0  0  0  0  3  0  0  0  0  0  0
  194.6480  172.0810  145.2020 N   0  0  0  0  0  0  0  0  0  0  0  0
  195.7830  171.4980  145.6710 C   0  0  0  0  0  3  0  0  0  0  0  0
  194.5390  173.4310  145.0500 C   0  0  0  0  0  0  0  0  0  0  0  0
  196.8830  172.2830  146.0180 C   0  0  0  0  0  3  0  0  0  0  0  0
  196.8000  173.6680  145.8770 C   0  0  0  0  0  3  0  0  0  0  0  0
  193.7250  174.9080  140.4700 O   0  0  0  0  0  0  0  0  0  0  0  0
  194.0630  175.8190  141.4670 C   0  0  0  0  0  0  0  0  0  0  0  0
  194.8480  176.7660  141.2040 O   0  0  0  0  0  1  0  0  0  0  0  0
  190.6580  177.8430  144.3730 C   0  0  0  0  0  2  0  0  0  0  0  0
  189.2670  177.3360  143.9900 C   0  0  0  0  0  2  0  0  0  0  0  0
  187.9370  176.3730  145.9180 C   0  0  0  0  0  2  0  0  0  0  0  0
  185.8840  178.3760  145.4480 N   0  0  0  0  0  0  0  0  0  0  0  0
  186.8110  176.6410  146.9120 C   0  0  0  0  0  2  0  0  0  0  0  0
  185.5720  177.1350  146.1670 C   0  0  0  0  0  2  0  0  0  0  0  0
  186.8640  178.0730  144.4010 C   0  0  0  0  0  2  0  0  0  0  0  0
  188.1760  177.5970  145.0340 C   0  0  2  0  0  3  0  0  0  0  0  0
  184.6590  178.8930  144.8250 C   0  0  0  0  0  0  0  0  0  0  0  0
  184.8800  180.1360  144.2470 F   0  0  0  0  0  0  0  0  0  0  0  0
  183.6600  179.0140  145.7770 F   0  0  0  0  0  0  0  0  0  0  0  0
  184.2220  178.0120  143.8520 F   0  0  0  0  0  0  0  0  0  0  0  0
  1 15  1  0  0  0  0
  1 11  1  0  0  0  0
  2  4  1  0  0  0  0
  2  5  1  1  0  0  0
  3  1  1  0  0  0  0
  4 11  1  6  0  0  0
  4  8  1  0  0  0  0
  5  8  1  0  0  0  0
  6 21  1  6  0  0  0
  6 10  1  0  0  0  0
  7 19  1  6  0  0  0
  7  9  1  0  0  0  0
  7  3  1  0  0  0  0
  9  6  1  0  0  0  0
 10  2  1  0  0  0  0
 12 17  1  0  0  0  0
 13 14  2  0  0  0  0
 14 16  1  0  0  0  0
 15 13  1  0  0  0  0
 15 12  2  0  0  0  0
 17 16  2  0  0  0  0
 18 19  2  0  0  0  0
 20 19  1  0  0  0  0
 22 21  1  0  0  0  0
 23 25  1  0  0  0  0
 24 26  1  0  0  0  0
 26 25  1  0  0  0  0
 27 28  1  0  0  0  0
 27 24  1  0  0  0  0
 28 22  1  6  0  0  0
 28 23  1  0  0  0  0
 29 24  1  0  0  0  0
 29 31  1  0  0  0  0
 30 29  1  0  0  0  0
 32 29  1  0  0  0  0
M  END
>  <MODEL>
1

>  <REMARK>
 VINA RESULT:      -8.1      0.000      0.000
  Name = 
  6 active torsions:
  status: ('A' for Active; 'I' for Inactive)
    1  A    between atoms: N_4  and  C_17
    2  A    between atoms: N_9  and  C_12
    3  A    between atoms: C_14  and  C_28
    4  A    between atoms: C_18  and  C_29
    5  A    between atoms: C_21  and  C_28
    6  A    between atoms: C_21  and  C_32
                            x       y       z     vdW  Elec       q    Type
                         _______ _______ _______ _____ _____    ______ ____

>  <TORSDO>
F 6

$$$$
=
 OpenBabel11062420333D

 32 35  0  0  1  0  0  0  0  0999 V2000
  185.8000  178.3860  143.1410 N   0  0  0  0  0  0  0  0  0  0  0  0
  184.8620  177.4590  146.0550 C   0  0  2  0  0  3  0  0  0  0  0  0
  187.0170  177.7850  142.6070 C   0  0  0  0  0  2  0  0  0  0  0  0
  184.9000  178.8500  145.4270 C   0  0  1  0  0  3  0  0  0  0  0  0
  185.2560  178.2040  147.3040 C   0  0  0  0  0  2  0  0  0  0  0  0
  187.2410  176.9390  145.5720 C   0  0  1  0  0  3  0  0  0  0  0  0
  187.1650  176.3520  143.0980 C   0  0  2  0  0  3  0  0  0  0  0  0
  185.2660  179.4500  146.6450 O   0  0  0  0  0  0  0  0  0  0  0  0
  187.9630  176.2840  144.3990 C   0  0  0  0  0  2  0  0  0  0  0  0
  185.8600  176.4590  145.6270 N   0  0  0  0  0  2  0  0  0  0  0  0
  185.9400  179.1930  144.3500 C   0  0  0  0  0  2  0  0  0  0  0  0
  184.6480  178.1380  140.9650 C   0  0  0  0  0  3  0  0  0  0  0  0
  183.3880  178.5840  142.9420 N   0  0  0  0  0  0  0  0  0  0  0  0
  182.2250  178.5640  142.2370 C   0  0  0  0  0  3  0  0  0  0  0  0
  184.5980  178.3840  142.3460 C   0  0  0  0  0  0  0  0  0  0  0  0
  182.2420  178.3290  140.8620 C   0  0  0  0  0  3  0  0  0  0  0  0
  183.4650  178.1150  140.2250 C   0  0  0  0  0  3  0  0  0  0  0  0
  188.3260  174.2520  142.3760 O   0  0  0  0  0  1  0  0  0  0  0  0
  187.8290  175.5130  142.0600 C   0  0  0  0  0  0  0  0  0  0  0  0
  187.9030  175.9320  140.8770 O   0  0  0  0  0  0  0  0  0  0  0  0
  187.9750  176.5790  146.8540 C   0  0  0  0  0  2  0  0  0  0  0  0
  188.7790  175.2860  146.7030 C   0  0  0  0  0  2  0  0  0  0  0  0
  190.6330  176.8180  147.4980 C   0  0  0  0  0  2  0  0  0  0  0  0
  192.5800  174.8460  146.6240 N   0  0  0  0  0  0  0  0  0  0  0  0
  192.1060  176.8940  147.8850 C   0  0  0  0  0  2  0  0  0  0  0  0
  192.9610  176.2530  146.7930 C   0  0  0  0  0  2  0  0  0  0  0  0
  191.2080  174.7940  146.1140 C   0  0  0  0  0  2  0  0  0  0  0  0
  190.2420  175.3820  147.1490 C   0  0  2  0  0  3  0  0  0  0  0  0
  193.4800  174.2180  145.6470 C   0  0  0  0  0  0  0  0  0  0  0  0
  193.3630  172.8340  145.6790 F   0  0  0  0  0  0  0  0  0  0  0  0
  194.7920  174.5620  145.9250 F   0  0  0  0  0  0  0  0  0  0  0  0
  193.1760  174.6690  144.3750 F   0  0  0  0  0  0  0  0  0  0  0  0
  1 11  1  0  0  0  0
  2  5  1  1  0  0  0
  3  7  1  0  0  0  0
  3  1  1  0  0  0  0
  4 11  1  6  0  0  0
  4  2  1  0  0  0  0
  4  8  1  0  0  0  0
  6 10  1  0  0  0  0
  6 21  1  1  0  0  0
  7 19  1  6  0  0  0
  7  9  1  0  0  0  0
  8  5  1  0  0  0  0
  9  6  1  0  0  0  0
 10  2  1  0  0  0  0
 12 15  1  0  0  0  0
 14 13  1  0  0  0  0
 15 13  2  0  0  0  0
 15  1  1  0  0  0  0
 16 14  2  0  0  0  0
 17 16  1  0  0  0  0
 17 12  2  0  0  0  0
 19 18  1  0  0  0  0
 20 19  2  0  0  0  0
 22 21  1  0  0  0  0
 23 25  1  0  0  0  0
 24 26  1  0  0  0  0
 26 25  1  0  0  0  0
 27 24  1  0  0  0  0
 27 28  1  0  0  0  0
 28 22  1  6  0  0  0
 28 23  1  0  0  0  0
 29 30  1  0  0  0  0
 29 31  1  0  0  0  0
 29 24  1  0  0  0  0
 32 29  1  0  0  0  0
M  END
>  <MODEL>
2

>  <REMARK>
 VINA RESULT:      -7.9      4.320      8.968
  Name = 
  6 active torsions:
  status: ('A' for Active; 'I' for Inactive)
    1  A    between atoms: N_4  and  C_17
    2  A    between atoms: N_9  and  C_12
    3  A    between atoms: C_14  and  C_28
    4  A    between atoms: C_18  and  C_29
    5  A    between atoms: C_21  and  C_28
    6  A    between atoms: C_21  and  C_32
                            x       y       z     vdW  Elec       q    Type
                         _______ _______ _______ _____ _____    ______ ____

>  <TORSDO>
F 6

$$$$
=
 OpenBabel11062420333D

 32 35  0  0  1  0  0  0  0  0999 V2000
  188.2540  177.4660  144.7710 N   0  0  0  0  0  0  0  0  0  0  0  0
  189.3850  175.2220  146.7500 C   0  0  2  0  0  3  0  0  0  0  0  0
  188.5170  177.2960  143.3460 C   0  0  0  0  0  2  0  0  0  0  0  0
  189.3740  176.7430  146.8860 C   0  0  1  0  0  3  0  0  0  0  0  0
  190.7240  175.3470  147.4280 C   0  0  0  0  0  2  0  0  0  0  0  0
  190.4760  175.2120  144.5200 C   0  0  1  0  0  3  0  0  0  0  0  0
  188.5440  175.8200  142.9800 C   0  0  2  0  0  3  0  0  0  0  0  0
  190.6320  176.7510  147.5140 O   0  0  0  0  0  0  0  0  0  0  0  0
  189.9530  175.2400  143.0880 C   0  0  0  0  0  2  0  0  0  0  0  0
  189.4620  174.6300  145.4000 N   0  0  0  0  0  2  0  0  0  0  0  0
  189.4160  177.6390  145.6390 C   0  0  0  0  0  2  0  0  0  0  0  0
  186.2080  176.7490  145.9640 C   0  0  0  0  0  3  0  0  0  0  0  0
  186.3100  178.9100  144.9570 N   0  0  0  0  0  0  0  0  0  0  0  0
  185.0520  179.1990  145.3850 C   0  0  0  0  0  3  0  0  0  0  0  0
  186.9070  177.7130  145.2210 C   0  0  0  0  0  0  0  0  0  0  0  0
  184.3290  178.2590  146.1200 C   0  0  0  0  0  3  0  0  0  0  0  0
  184.9140  177.0260  146.4090 C   0  0  0  0  0  3  0  0  0  0  0  0
  187.1830  176.5560  141.0090 O   0  0  0  0  0  1  0  0  0  0  0  0
  188.0240  175.6160  141.5980 C   0  0  0  0  0  0  0  0  0  0  0  0
  188.3820  174.6040  140.9430 O   0  0  0  0  0  0  0  0  0  0  0  0
  191.7460  174.3780  144.5560 C   0  0  0  0  0  2  0  0  0  0  0  0
  192.7510  174.8280  143.4930 C   0  0  0  0  0  2  0  0  0  0  0  0
  194.9590  175.9550  142.9800 C   0  0  0  0  0  2  0  0  0  0  0  0
  196.1660  174.5050  145.1900 N   0  0  0  0  0  0  0  0  0  0  0  0
  196.3400  176.3000  143.5300 C   0  0  0  0  0  2  0  0  0  0  0  0
  196.9940  175.0460  144.1050 C   0  0  0  0  0  2  0  0  0  0  0  0
  194.8960  174.0460  144.6200 C   0  0  0  0  0  2  0  0  0  0  0  0
  194.1240  175.2340  144.0370 C   0  0  2  0  0  3  0  0  0  0  0  0
  196.8590  173.3640  145.8010 C   0  0  0  0  0  0  0  0  0  0  0  0
  197.3180  173.6810  147.0740 F   0  0  0  0  0  0  0  0  0  0  0  0
  197.9390  172.9920  145.0180 F   0  0  0  0  0  0  0  0  0  0  0  0
  195.9970  172.2850  145.8870 F   0  0  0  0  0  0  0  0  0  0  0  0
  1 15  1  0  0  0  0
  1 11  1  0  0  0  0
  2  4  1  0  0  0  0
  2  5  1  1  0  0  0
  3  1  1  0  0  0  0
  4 11  1  6  0  0  0
  4  8  1  0  0  0  0
  5  8  1  0  0  0  0
  6 21  1  6  0  0  0
  6 10  1  0  0  0  0
  7 19  1  6  0  0  0
  7  9  1  0  0  0  0
  7  3  1  0  0  0  0
  9  6  1  0  0  0  0
 10  2  1  0  0  0  0
 12 17  1  0  0  0  0
 13 15  1  0  0  0  0
 13 14  2  0  0  0  0
 14 16  1  0  0  0  0
 15 12  2  0  0  0  0
 16 17  2  0  0  0  0
 18 19  1  0  0  0  0
 20 19  2  0  0  0  0
 22 21  1  0  0  0  0
 23 25  1  0  0  0  0
 23 28  1  0  0  0  0
 24 29  1  0  0  0  0
 25 26  1  0  0  0  0
 26 24  1  0  0  0  0
 27 24  1  0  0  0  0
 28 22  1  6  0  0  0
 28 27  1  0  0  0  0
 29 32  1  0  0  0  0
 29 30  1  0  0  0  0
 31 29  1  0  0  0  0
M  END
>  <MODEL>
3

>  <REMARK>
 VINA RESULT:      -7.8      4.871      8.808
  Name = 
  6 active torsions:
  status: ('A' for Active; 'I' for Inactive)
    1  A    between atoms: N_4  and  C_17
    2  A    between atoms: N_9  and  C_12
    3  A    between atoms: C_14  and  C_28
    4  A    between atoms: C_18  and  C_29
    5  A    between atoms: C_21  and  C_28
    6  A    between atoms: C_21  and  C_32
                            x       y       z     vdW  Elec       q    Type
                         _______ _______ _______ _____ _____    ______ ____

>  <TORSDO>
F 6

$$$$
=
 OpenBabel11062420333D

 32 35  0  0  1  0  0  0  0  0999 V2000
  188.3510  177.2300  144.6690 N   0  0  0  0  0  0  0  0  0  0  0  0
  189.4220  175.4110  147.0710 C   0  0  2  0  0  3  0  0  0  0  0  0
  188.5960  176.7590  143.3110 C   0  0  0  0  0  2  0  0  0  0  0  0
  189.4640  176.9250  146.8880 C   0  0  1  0  0  3  0  0  0  0  0  0
  190.7710  175.6270  147.7070 C   0  0  0  0  0  2  0  0  0  0  0  0
  190.4940  174.8990  144.8910 C   0  0  1  0  0  3  0  0  0  0  0  0
  188.5710  175.2380  143.2610 C   0  0  2  0  0  3  0  0  0  0  0  0
  190.7270  177.0210  147.4990 O   0  0  0  0  0  0  0  0  0  0  0  0
  189.9600  174.6450  143.4850 C   0  0  0  0  0  2  0  0  0  0  0  0
  189.4680  174.5480  145.8740 N   0  0  0  0  0  2  0  0  0  0  0  0
  189.5250  177.5410  145.4810 C   0  0  0  0  0  2  0  0  0  0  0  0
  186.2500  176.7910  145.9000 C   0  0  0  0  0  3  0  0  0  0  0  0
  186.5000  178.8020  144.6410 N   0  0  0  0  0  0  0  0  0  0  0  0
  185.2570  179.2170  145.0060 C   0  0  0  0  0  3  0  0  0  0  0  0
  187.0170  177.6120  145.0590 C   0  0  0  0  0  0  0  0  0  0  0  0
  184.4670  178.4200  145.8350 C   0  0  0  0  0  3  0  0  0  0  0  0
  184.9710  177.1980  146.2830 C   0  0  0  0  0  3  0  0  0  0  0  0
  187.8160  175.6660  140.9090 O   0  0  0  0  0  0  0  0  0  0  0  0
  188.0320  174.7700  141.9520 C   0  0  0  0  0  0  0  0  0  0  0  0
  187.8100  173.5440  141.7760 O   0  0  0  0  0  1  0  0  0  0  0  0
  191.7360  174.0460  145.0990 C   0  0  0  0  0  2  0  0  0  0  0  0
  192.4980  173.8270  143.7910 C   0  0  0  0  0  2  0  0  0  0  0  0
  194.4730  173.9440  145.3710 C   0  0  0  0  0  2  0  0  0  0  0  0
  196.0630  175.1040  143.2330 N   0  0  0  0  0  0  0  0  0  0  0  0
  195.9890  174.0890  145.4630 C   0  0  0  0  0  2  0  0  0  0  0  0
  196.4430  175.2910  144.6380 C   0  0  0  0  0  2  0  0  0  0  0  0
  194.6000  175.1100  143.1430 C   0  0  0  0  0  2  0  0  0  0  0  0
  194.0230  173.9170  143.9110 C   0  0  2  0  0  3  0  0  0  0  0  0
  196.5990  176.2150  142.4360 C   0  0  0  0  0  0  0  0  0  0  0  0
  197.5680  175.7700  141.5460 F   0  0  0  0  0  0  0  0  0  0  0  0
  197.1620  177.1650  143.2710 F   0  0  0  0  0  0  0  0  0  0  0  0
  195.5750  176.8170  141.7260 F   0  0  0  0  0  0  0  0  0  0  0  0
  1 15  1  0  0  0  0
  1 11  1  0  0  0  0
  2  5  1  1  0  0  0
  3  1  1  0  0  0  0
  4 11  1  6  0  0  0
  4  2  1  0  0  0  0
  4  8  1  0  0  0  0
  6 21  1  1  0  0  0
  6 10  1  0  0  0  0
  7 19  1  6  0  0  0
  7  3  1  0  0  0  0
  7  9  1  0  0  0  0
  8  5  1  0  0  0  0
  9  6  1  0  0  0  0
 10  2  1  0  0  0  0
 12 17  1  0  0  0  0
 13 14  2  0  0  0  0
 13 15  1  0  0  0  0
 14 16  1  0  0  0  0
 15 12  2  0  0  0  0
 16 17  2  0  0  0  0
 18 19  2  0  0  0  0
 20 19  1  0  0  0  0
 22 21  1  0  0  0  0
 23 25  1  0  0  0  0
 24 26  1  0  0  0  0
 26 25  1  0  0  0  0
 27 24  1  0  0  0  0
 27 28  1  0  0  0  0
 28 22  1  1  0  0  0
 28 23  1  0  0  0  0
 29 24  1  0  0  0  0
 29 31  1  0  0  0  0
 30 29  1  0  0  0  0
 32 29  1  0  0  0  0
M  END
>  <MODEL>
4

>  <REMARK>
 VINA RESULT:      -7.7      4.522      8.492
  Name = 
  6 active torsions:
  status: ('A' for Active; 'I' for Inactive)
    1  A    between atoms: N_4  and  C_17
    2  A    between atoms: N_9  and  C_12
    3  A    between atoms: C_14  and  C_28
    4  A    between atoms: C_18  and  C_29
    5  A    between atoms: C_21  and  C_28
    6  A    between atoms: C_21  and  C_32
                            x       y       z     vdW  Elec       q    Type
                         _______ _______ _______ _____ _____    ______ ____

>  <TORSDO>
F 6

$$$$
=
 OpenBabel11062420333D

 32 35  0  0  1  0  0  0  0  0999 V2000
  193.0700  174.2880  143.9580 N   0  0  0  0  0  0  0  0  0  0  0  0
  190.1810  172.9260  144.1360 C   0  0  2  0  0  3  0  0  0  0  0  0
  193.2390  175.5860  144.6020 C   0  0  0  0  0  2  0  0  0  0  0  0
  191.1510  173.0330  142.9610 C   0  0  1  0  0  3  0  0  0  0  0  0
  189.1380  173.1050  143.0640 C   0  0  0  0  0  2  0  0  0  0  0  0
  190.1560  175.3610  144.6170 C   0  0  1  0  0  3  0  0  0  0  0  0
  192.3620  175.6850  145.8420 C   0  0  2  0  0  3  0  0  0  0  0  0
  190.1020  173.1930  142.0380 O   0  0  0  0  0  0  0  0  0  0  0  0
  190.9900  176.2700  145.5140 C   0  0  0  0  0  2  0  0  0  0  0  0
  190.1730  173.9990  145.1500 N   0  0  0  0  0  2  0  0  0  0  0  0
  192.1180  174.2220  142.8520 C   0  0  0  0  0  2  0  0  0  0  0  0
  193.8580  172.4360  145.3960 C   0  0  0  0  0  3  0  0  0  0  0  0
  195.0110  172.9510  143.3720 N   0  0  0  0  0  0  0  0  0  0  0  0
  195.8960  171.9420  143.5860 C   0  0  0  0  0  3  0  0  0  0  0  0
  194.0000  173.2250  144.2450 C   0  0  0  0  0  0  0  0  0  0  0  0
  195.7850  171.1430  144.7250 C   0  0  0  0  0  3  0  0  0  0  0  0
  194.7580  171.3960  145.6350 C   0  0  0  0  0  3  0  0  0  0  0  0
  194.3630  176.8830  146.7590 O   0  0  0  0  0  0  0  0  0  0  0  0
  193.0260  176.5190  146.8830 C   0  0  0  0  0  0  0  0  0  0  0  0
  192.3570  176.9330  147.8650 O   0  0  0  0  0  1  0  0  0  0  0  0
  188.7320  175.8940  144.5790 C   0  0  0  0  0  2  0  0  0  0  0  0
  188.1280  176.0010  145.9800 C   0  0  0  0  0  2  0  0  0  0  0  0
  186.1750  177.0000  147.2450 C   0  0  0  0  0  2  0  0  0  0  0  0
  185.9660  179.0630  145.2090 N   0  0  0  0  0  0  0  0  0  0  0  0
  185.3150  178.2470  147.4270 C   0  0  0  0  0  2  0  0  0  0  0  0
  184.8210  178.7360  146.0670 C   0  0  0  0  0  2  0  0  0  0  0  0
  186.7020  177.8280  144.9260 C   0  0  0  0  0  2  0  0  0  0  0  0
  187.2820  177.2550  146.2230 C   0  0  2  0  0  3  0  0  0  0  0  0
  185.4740  179.6300  143.9460 C   0  0  0  0  0  0  0  0  0  0  0  0
  184.1910  179.1800  143.6620 F   0  0  0  0  0  0  0  0  0  0  0  0
  186.3150  179.2670  142.9070 F   0  0  0  0  0  0  0  0  0  0  0  0
  185.4610  181.0110  144.0280 F   0  0  0  0  0  0  0  0  0  0  0  0
  1 15  1  0  0  0  0
  1  3  1  0  0  0  0
  2  5  1  6  0  0  0
  2 10  1  0  0  0  0
  3  7  1  0  0  0  0
  4 11  1  1  0  0  0
  4  2  1  0  0  0  0
  6 21  1  1  0  0  0
  6 10  1  0  0  0  0
  6  9  1  0  0  0  0
  7 19  1  1  0  0  0
  8  4  1  0  0  0  0
  8  5  1  0  0  0  0
  9  7  1  0  0  0  0
 11  1  1  0  0  0  0
 12 17  1  0  0  0  0
 13 14  2  0  0  0  0
 13 15  1  0  0  0  0
 14 16  1  0  0  0  0
 15 12  2  0  0  0  0
 16 17  2  0  0  0  0
 18 19  2  0  0  0  0
 19 20  1  0  0  0  0
 21 22  1  0  0  0  0
 23 25  1  0  0  0  0
 24 26  1  0  0  0  0
 26 25  1  0  0  0  0
 27 24  1  0  0  0  0
 27 28  1  0  0  0  0
 28 22  1  6  0  0  0
 28 23  1  0  0  0  0
 29 32  1  0  0  0  0
 29 24  1  0  0  0  0
 30 29  1  0  0  0  0
 31 29  1  0  0  0  0
M  END
>  <MODEL>
5

>  <REMARK>
 VINA RESULT:      -7.6      2.065      3.429
  Name = 
  6 active torsions:
  status: ('A' for Active; 'I' for Inactive)
    1  A    between atoms: N_4  and  C_17
    2  A    between atoms: N_9  and  C_12
    3  A    between atoms: C_14  and  C_28
    4  A    between atoms: C_18  and  C_29
    5  A    between atoms: C_21  and  C_28
    6  A    between atoms: C_21  and  C_32
                            x       y       z     vdW  Elec       q    Type
                         _______ _______ _______ _____ _____    ______ ____

>  <TORSDO>
F 6

$$$$
=
 OpenBabel11062420333D

 32 35  0  0  1  0  0  0  0  0999 V2000
  186.6880  176.5510  143.5880 N   0  0  0  0  0  0  0  0  0  0  0  0
  189.6980  177.5490  143.1720 C   0  0  2  0  0  3  0  0  0  0  0  0
  186.1490  176.5980  144.9430 C   0  0  0  0  0  2  0  0  0  0  0  0
  188.9710  176.3410  142.5880 C   0  0  1  0  0  3  0  0  0  0  0  0
  190.8720  176.6050  143.2040 C   0  0  0  0  0  2  0  0  0  0  0  0
  189.1550  177.0090  145.5330 C   0  0  1  0  0  3  0  0  0  0  0  0
  186.7350  177.7730  145.7100 C   0  0  2  0  0  3  0  0  0  0  0  0
  190.1250  175.5410  142.6590 O   0  0  0  0  0  0  0  0  0  0  0  0
  188.0030  177.3760  146.4630 C   0  0  0  0  0  2  0  0  0  0  0  0
  189.3030  178.0410  144.5070 N   0  0  0  0  0  2  0  0  0  0  0  0
  187.8290  175.6660  143.3640 C   0  0  0  0  0  2  0  0  0  0  0  0
  184.6870  177.7260  142.7290 C   0  0  0  0  0  3  0  0  0  0  0  0
  186.4840  177.1890  141.2540 N   0  0  0  0  0  0  0  0  0  0  0  0
  185.8340  177.7650  140.2080 C   0  0  0  0  0  3  0  0  0  0  0  0
  185.9460  177.1480  142.5060 C   0  0  0  0  0  0  0  0  0  0  0  0
  184.5780  178.3430  140.3960 C   0  0  0  0  0  3  0  0  0  0  0  0
  184.0040  178.3200  141.6670 C   0  0  0  0  0  3  0  0  0  0  0  0
  184.3850  178.0020  146.5490 O   0  0  0  0  0  0  0  0  0  0  0  0
  185.7340  178.3190  146.6710 C   0  0  0  0  0  0  0  0  0  0  0  0
  186.1200  179.0420  147.6250 O   0  0  0  0  0  1  0  0  0  0  0  0
  190.4280  176.9010  146.3590 C   0  0  0  0  0  2  0  0  0  0  0  0
  190.7780  175.4460  146.6730 C   0  0  0  0  0  2  0  0  0  0  0  0
  193.1160  176.3760  146.3930 C   0  0  0  0  0  2  0  0  0  0  0  0
  194.0650  173.6970  145.7860 N   0  0  0  0  0  0  0  0  0  0  0  0
  194.6000  176.0240  146.3420 C   0  0  0  0  0  2  0  0  0  0  0  0
  194.8250  174.8780  145.3580 C   0  0  0  0  0  2  0  0  0  0  0  0
  192.6350  174.0060  145.6920 C   0  0  0  0  0  2  0  0  0  0  0  0
  192.2780  175.1290  146.6710 C   0  0  2  0  0  3  0  0  0  0  0  0
  194.3740  172.5750  144.8900 C   0  0  0  0  0  0  0  0  0  0  0  0
  193.4620  171.5400  145.0530 F   0  0  0  0  0  0  0  0  0  0  0  0
  195.6460  172.0950  145.1560 F   0  0  0  0  0  0  0  0  0  0  0  0
  194.3410  173.0040  143.5750 F   0  0  0  0  0  0  0  0  0  0  0  0
  1  3  1  0  0  0  0
  2  5  1  1  0  0  0
  2 10  1  0  0  0  0
  3  7  1  0  0  0  0
  4  8  1  0  0  0  0
  4  2  1  0  0  0  0
  4 11  1  1  0  0  0
  6 21  1  1  0  0  0
  6  9  1  0  0  0  0
  7  9  1  0  0  0  0
  7 19  1  1  0  0  0
  8  5  1  0  0  0  0
 10  6  1  0  0  0  0
 11  1  1  0  0  0  0
 13 15  2  0  0  0  0
 14 16  2  0  0  0  0
 14 13  1  0  0  0  0
 15 12  1  0  0  0  0
 15  1  1  0  0  0  0
 16 17  1  0  0  0  0
 17 12  2  0  0  0  0
 18 19  2  0  0  0  0
 19 20  1  0  0  0  0
 21 22  1  0  0  0  0
 23 28  1  0  0  0  0
 25 23  1  0  0  0  0
 26 24  1  0  0  0  0
 26 25  1  0  0  0  0
 27 24  1  0  0  0  0
 27 28  1  0  0  0  0
 28 22  1  6  0  0  0
 29 30  1  0  0  0  0
 29 31  1  0  0  0  0
 29 24  1  0  0  0  0
 32 29  1  0  0  0  0
M  END
>  <MODEL>
6

>  <REMARK>
 VINA RESULT:      -7.6      4.562      9.000
  Name = 
  6 active torsions:
  status: ('A' for Active; 'I' for Inactive)
    1  A    between atoms: N_4  and  C_17
    2  A    between atoms: N_9  and  C_12
    3  A    between atoms: C_14  and  C_28
    4  A    between atoms: C_18  and  C_29
    5  A    between atoms: C_21  and  C_28
    6  A    between atoms: C_21  and  C_32
                            x       y       z     vdW  Elec       q    Type
                         _______ _______ _______ _____ _____    ______ ____

>  <TORSDO>
F 6

$$$$
=
 OpenBabel11062420333D

 32 35  0  0  1  0  0  0  0  0999 V2000
  192.5290  174.7430  144.4040 N   0  0  0  0  0  0  0  0  0  0  0  0
  190.8950  172.9220  142.3440 C   0  0  2  0  0  3  0  0  0  0  0  0
  191.7590  175.5090  145.3770 C   0  0  0  0  0  2  0  0  0  0  0  0
  192.1010  173.8290  142.1160 C   0  0  1  0  0  3  0  0  0  0  0  0
  190.4880  173.4140  140.9800 C   0  0  0  0  0  2  0  0  0  0  0  0
  189.5090  174.6720  143.4290 C   0  0  1  0  0  3  0  0  0  0  0  0
  190.4970  174.7570  145.7720 C   0  0  2  0  0  3  0  0  0  0  0  0
  191.6330  174.2260  140.8510 O   0  0  0  0  0  0  0  0  0  0  0  0
  189.3180  175.1260  144.8730 C   0  0  0  0  0  2  0  0  0  0  0  0
  189.9330  173.2720  143.4070 N   0  0  0  0  0  2  0  0  0  0  0  0
  192.3230  175.0700  142.9950 C   0  0  0  0  0  2  0  0  0  0  0  0
  194.8510  174.4690  145.2140 C   0  0  0  0  0  3  0  0  0  0  0  0
  193.4360  172.5630  144.9740 N   0  0  0  0  0  0  0  0  0  0  0  0
  194.4220  171.7410  145.4210 C   0  0  0  0  0  3  0  0  0  0  0  0
  193.6160  173.9090  144.8550 C   0  0  0  0  0  0  0  0  0  0  0  0
  195.6640  172.2660  145.7790 C   0  0  0  0  0  3  0  0  0  0  0  0
  195.8770  173.6410  145.6730 C   0  0  0  0  0  3  0  0  0  0  0  0
  191.0650  175.6460  148.0450 O   0  0  0  0  0  1  0  0  0  0  0  0
  190.1480  175.0370  147.1940 C   0  0  0  0  0  0  0  0  0  0  0  0
  188.9970  174.7560  147.6160 O   0  0  0  0  0  0  0  0  0  0  0  0
  188.1880  174.8340  142.6920 C   0  0  0  0  0  2  0  0  0  0  0  0
  187.8370  176.3070  142.4750 C   0  0  0  0  0  2  0  0  0  0  0  0
  185.7380  177.5560  141.8080 C   0  0  0  0  0  2  0  0  0  0  0  0
  184.9650  177.6670  144.6080 N   0  0  0  0  0  0  0  0  0  0  0  0
  184.3410  177.9730  142.2570 C   0  0  0  0  0  2  0  0  0  0  0  0
  184.4140  178.6210  143.6380 C   0  0  0  0  0  2  0  0  0  0  0  0
  186.3560  177.3860  144.2430 C   0  0  0  0  0  2  0  0  0  0  0  0
  186.4100  176.6950  142.8770 C   0  0  2  0  0  3  0  0  0  0  0  0
  184.9310  178.2680  145.9480 C   0  0  0  0  0  0  0  0  0  0  0  0
  185.0740  177.2990  146.9330 F   0  0  0  0  0  0  0  0  0  0  0  0
  183.7280  178.9250  146.1390 F   0  0  0  0  0  0  0  0  0  0  0  0
  185.9530  179.1920  146.0710 F   0  0  0  0  0  0  0  0  0  0  0  0
  1 15  1  0  0  0  0
  1  3  1  0  0  0  0
  2  5  1  6  0  0  0
  2 10  1  0  0  0  0
  3  7  1  0  0  0  0
  4  2  1  0  0  0  0
  4 11  1  1  0  0  0
  6 21  1  6  0  0  0
  6  9  1  0  0  0  0
  7 19  1  1  0  0  0
  8  5  1  0  0  0  0
  8  4  1  0  0  0  0
  9  7  1  0  0  0  0
 10  6  1  0  0  0  0
 11  1  1  0  0  0  0
 12 17  1  0  0  0  0
 13 14  2  0  0  0  0
 14 16  1  0  0  0  0
 15 13  1  0  0  0  0
 15 12  2  0  0  0  0
 17 16  2  0  0  0  0
 19 20  2  0  0  0  0
 19 18  1  0  0  0  0
 22 21  1  0  0  0  0
 23 25  1  0  0  0  0
 23 28  1  0  0  0  0
 24 29  1  0  0  0  0
 25 26  1  0  0  0  0
 26 24  1  0  0  0  0
 27 24  1  0  0  0  0
 28 22  1  6  0  0  0
 28 27  1  0  0  0  0
 29 32  1  0  0  0  0
 29 31  1  0  0  0  0
 29 30  1  0  0  0  0
M  END
>  <MODEL>
7

>  <REMARK>
 VINA RESULT:      -7.6      2.006      4.176
  Name = 
  6 active torsions:
  status: ('A' for Active; 'I' for Inactive)
    1  A    between atoms: N_4  and  C_17
    2  A    between atoms: N_9  and  C_12
    3  A    between atoms: C_14  and  C_28
    4  A    between atoms: C_18  and  C_29
    5  A    between atoms: C_21  and  C_28
    6  A    between atoms: C_21  and  C_32
                            x       y       z     vdW  Elec       q    Type
                         _______ _______ _______ _____ _____    ______ ____

>  <TORSDO>
F 6

$$$$
=
 OpenBabel11062420333D

 32 35  0  0  1  0  0  0  0  0999 V2000
  191.8510  173.8290  143.4530 N   0  0  0  0  0  0  0  0  0  0  0  0
  192.5390  176.4390  145.1690 C   0  0  2  0  0  3  0  0  0  0  0  0
  190.4470  173.5780  143.1510 C   0  0  0  0  0  2  0  0  0  0  0  0
  193.0960  175.0210  145.2650 C   0  0  1  0  0  3  0  0  0  0  0  0
  192.6740  176.4050  146.6690 C   0  0  0  0  0  2  0  0  0  0  0  0
  190.1600  175.7490  145.3330 C   0  0  1  0  0  3  0  0  0  0  0  0
  189.6930  174.8890  142.9840 C   0  0  2  0  0  3  0  0  0  0  0  0
  193.1840  175.0910  146.6670 O   0  0  0  0  0  0  0  0  0  0  0  0
  189.0980  175.3660  144.3080 C   0  0  0  0  0  2  0  0  0  0  0  0
  191.1490  176.6270  144.7080 N   0  0  0  0  0  2  0  0  0  0  0  0
  192.2350  173.8140  144.8630 C   0  0  0  0  0  2  0  0  0  0  0  0
  193.5800  172.6720  142.1130 C   0  0  0  0  0  3  0  0  0  0  0  0
  192.9830  174.9250  141.6050 N   0  0  0  0  0  0  0  0  0  0  0  0
  193.8660  174.9550  140.5710 C   0  0  0  0  0  3  0  0  0  0  0  0
  192.8210  173.8200  142.3870 C   0  0  0  0  0  0  0  0  0  0  0  0
  194.6390  173.8310  140.2770 C   0  0  0  0  0  3  0  0  0  0  0  0
  194.4920  172.6830  141.0570 C   0  0  0  0  0  3  0  0  0  0  0  0
  187.2860  175.0190  142.3020 O   0  0  0  0  0  1  0  0  0  0  0  0
  188.6090  174.7410  141.9720 C   0  0  0  0  0  0  0  0  0  0  0  0
  188.9000  174.4010  140.7970 O   0  0  0  0  0  0  0  0  0  0  0  0
  189.4800  176.4610  146.4910 C   0  0  0  0  0  2  0  0  0  0  0  0
  187.9770  176.1790  146.5270 C   0  0  0  0  0  2  0  0  0  0  0  0
  185.8890  177.2070  147.5240 C   0  0  0  0  0  2  0  0  0  0  0  0
  185.8530  179.1380  145.3530 N   0  0  0  0  0  0  0  0  0  0  0  0
  184.9940  178.4420  147.5410 C   0  0  0  0  0  2  0  0  0  0  0  0
  184.6330  178.8380  146.1100 C   0  0  0  0  0  2  0  0  0  0  0  0
  186.6350  177.9060  145.2230 C   0  0  0  0  0  2  0  0  0  0  0  0
  187.0900  177.4260  146.6050 C   0  0  2  0  0  3  0  0  0  0  0  0
  185.4840  179.6180  144.0150 C   0  0  0  0  0  0  0  0  0  0  0  0
  184.2040  179.2010  143.6710 F   0  0  0  0  0  0  0  0  0  0  0  0
  186.3780  179.1320  143.0760 F   0  0  0  0  0  0  0  0  0  0  0  0
  185.5340  181.0000  143.9830 F   0  0  0  0  0  0  0  0  0  0  0  0
  1 11  1  0  0  0  0
  2  4  1  0  0  0  0
  2  5  1  1  0  0  0
  3  1  1  0  0  0  0
  4 11  1  1  0  0  0
  4  8  1  0  0  0  0
  6 21  1  1  0  0  0
  7 19  1  6  0  0  0
  7  3  1  0  0  0  0
  7  9  1  0  0  0  0
  8  5  1  0  0  0  0
  9  6  1  0  0  0  0
 10  2  1  0  0  0  0
 10  6  1  0  0  0  0
 12 15  1  0  0  0  0
 13 15  2  0  0  0  0
 14 13  1  0  0  0  0
 15  1  1  0  0  0  0
 16 14  2  0  0  0  0
 16 17  1  0  0  0  0
 17 12  2  0  0  0  0
 19 18  1  0  0  0  0
 20 19  2  0  0  0  0
 21 22  1  0  0  0  0
 23 25  1  0  0  0  0
 24 26  1  0  0  0  0
 26 25  1  0  0  0  0
 27 24  1  0  0  0  0
 27 28  1  0  0  0  0
 28 22  1  6  0  0  0
 28 23  1  0  0  0  0
 29 24  1  0  0  0  0
 30 29  1  0  0  0  0
 31 29  1  0  0  0  0
 32 29  1  0  0  0  0
M  END
>  <MODEL>
8

>  <REMARK>
 VINA RESULT:      -7.5      2.480      3.572
  Name = 
  6 active torsions:
  status: ('A' for Active; 'I' for Inactive)
    1  A    between atoms: N_4  and  C_17
    2  A    between atoms: N_9  and  C_12
    3  A    between atoms: C_14  and  C_28
    4  A    between atoms: C_18  and  C_29
    5  A    between atoms: C_21  and  C_28
    6  A    between atoms: C_21  and  C_32
                            x       y       z     vdW  Elec       q    Type
                         _______ _______ _______ _____ _____    ______ ____

>  <TORSDO>
F 6

$$$$
=
 OpenBabel11062420333D

 32 35  0  0  1  0  0  0  0  0999 V2000
  188.5010  177.0780  144.8150 N   0  0  0  0  0  0  0  0  0  0  0  0
  189.6600  175.2590  147.1770 C   0  0  2  0  0  3  0  0  0  0  0  0
  188.7310  176.6250  143.4480 C   0  0  0  0  0  2  0  0  0  0  0  0
  189.6630  176.7760  147.0090 C   0  0  1  0  0  3  0  0  0  0  0  0
  191.0150  175.5000  147.7900 C   0  0  0  0  0  2  0  0  0  0  0  0
  190.7010  174.7940  144.9720 C   0  0  1  0  0  3  0  0  0  0  0  0
  188.7390  175.1060  143.3820 C   0  0  2  0  0  3  0  0  0  0  0  0
  190.9350  176.8940  147.5970 O   0  0  0  0  0  0  0  0  0  0  0  0
  190.1460  174.5430  143.5740 C   0  0  0  0  0  2  0  0  0  0  0  0
  189.7030  174.4100  145.9710 N   0  0  0  0  0  2  0  0  0  0  0  0
  189.6830  177.4070  145.6080 C   0  0  0  0  0  2  0  0  0  0  0  0
  186.5550  178.6060  144.7880 C   0  0  0  0  0  3  0  0  0  0  0  0
  186.4670  176.5800  146.0450 N   0  0  0  0  0  0  0  0  0  0  0  0
  185.1960  176.8510  146.4440 C   0  0  0  0  0  3  0  0  0  0  0  0
  187.1660  177.4240  145.2350 C   0  0  0  0  0  0  0  0  0  0  0  0
  184.5630  178.0210  146.0230 C   0  0  0  0  0  3  0  0  0  0  0  0
  185.2520  178.9030  145.1890 C   0  0  0  0  0  3  0  0  0  0  0  0
  187.9500  173.2860  141.8500 O   0  0  0  0  0  1  0  0  0  0  0  0
  188.1870  174.6380  142.0790 C   0  0  0  0  0  0  0  0  0  0  0  0
  187.8930  175.4800  141.1920 O   0  0  0  0  0  0  0  0  0  0  0  0
  191.9660  173.9690  145.1470 C   0  0  0  0  0  2  0  0  0  0  0  0
  193.2260  174.8070  144.9240 C   0  0  0  0  0  2  0  0  0  0  0  0
  195.7550  174.7960  144.8140 C   0  0  0  0  0  2  0  0  0  0  0  0
  195.7520  172.1180  145.9410 N   0  0  0  0  0  0  0  0  0  0  0  0
  197.0220  174.1250  145.3340 C   0  0  0  0  0  2  0  0  0  0  0  0
  196.9050  172.6100  145.1780 C   0  0  0  0  0  2  0  0  0  0  0  0
  194.5310  172.6600  145.3400 C   0  0  0  0  0  2  0  0  0  0  0  0
  194.5170  174.1870  145.4690 C   0  0  2  0  0  3  0  0  0  0  0  0
  195.7150  170.6520  145.8670 C   0  0  0  0  0  0  0  0  0  0  0  0
  196.0090  170.2090  144.5840 F   0  0  0  0  0  0  0  0  0  0  0  0
  194.4570  170.1930  146.2210 F   0  0  0  0  0  0  0  0  0  0  0  0
  196.6340  170.1160  146.7520 F   0  0  0  0  0  0  0  0  0  0  0  0
  1 15  1  0  0  0  0
  1 11  1  0  0  0  0
  2  5  1  1  0  0  0
  3  1  1  0  0  0  0
  4 11  1  6  0  0  0
  4  2  1  0  0  0  0
  4  8  1  0  0  0  0
  6 21  1  1  0  0  0
  6 10  1  0  0  0  0
  7 19  1  6  0  0  0
  7  3  1  0  0  0  0
  7  9  1  0  0  0  0
  8  5  1  0  0  0  0
  9  6  1  0  0  0  0
 10  2  1  0  0  0  0
 12 17  2  0  0  0  0
 12 15  1  0  0  0  0
 13 14  1  0  0  0  0
 15 13  2  0  0  0  0
 16 14  2  0  0  0  0
 17 16  1  0  0  0  0
 18 19  1  0  0  0  0
 20 19  2  0  0  0  0
 22 21  1  0  0  0  0
 23 25  1  0  0  0  0
 23 28  1  0  0  0  0
 26 25  1  0  0  0  0
 26 24  1  0  0  0  0
 27 28  1  0  0  0  0
 27 24  1  0  0  0  0
 28 22  1  6  0  0  0
 29 24  1  0  0  0  0
 29 31  1  0  0  0  0
 29 32  1  0  0  0  0
 30 29  1  0  0  0  0
M  END
>  <MODEL>
9

>  <REMARK>
 VINA RESULT:      -7.5      4.851      8.848
  Name = 
  6 active torsions:
  status: ('A' for Active; 'I' for Inactive)
    1  A    between atoms: N_4  and  C_17
    2  A    between atoms: N_9  and  C_12
    3  A    between atoms: C_14  and  C_28
    4  A    between atoms: C_18  and  C_29
    5  A    between atoms: C_21  and  C_28
    6  A    between atoms: C_21  and  C_32
                            x       y       z     vdW  Elec       q    Type
                         _______ _______ _______ _____ _____    ______ ____

>  <TORSDO>
F 6

$$$$
