=
 OpenBabel11062418433D

 43 46  0  0  1  0  0  0  0  0999 V2000
  192.8670  173.8270  145.5710 C   0  0  0  0  0  0  0  0  0  0  0  0
  191.7900  173.4330  144.7550 C   0  0  0  0  0  0  0  0  0  0  0  0
  191.7140  175.8950  146.0910 C   0  0  0  0  0  3  0  0  0  0  0  0
  190.6400  175.5120  145.2810 C   0  0  0  0  0  0  0  0  0  0  0  0
  194.0080  172.9900  145.7270 N   0  0  0  0  0  1  0  0  0  0  0  0
  192.8220  175.0570  146.2350 C   0  0  0  0  0  3  0  0  0  0  0  0
  190.6800  174.2760  144.6150 C   0  0  0  0  0  3  0  0  0  0  0  0
  189.4610  176.4290  145.1570 C   0  0  2  0  0  3  0  0  0  0  0  0
  190.5960  177.6430  142.9460 S   0  0  0  0  0  1  0  0  0  0  0  0
  189.8840  177.7940  144.6110 C   0  0  0  0  0  2  0  0  0  0  0  0
  188.6590  176.4960  146.4490 C   0  0  0  0  0  0  0  0  0  0  0  0
  188.3740  175.3790  147.1210 C   0  0  0  0  0  2  0  0  0  0  0  0
  186.6030  178.0500  146.1710 C   0  0  2  0  0  3  0  0  0  0  0  0
  187.9380  177.7590  146.8810 C   0  0  1  0  0  3  0  0  0  0  0  0
  186.6180  177.4830  147.5820 C   0  0  0  0  0  2  0  0  0  0  0  0
  185.2590  176.1140  145.6960 F   0  0  0  0  0  0  0  0  0  0  0  0
  186.1720  176.9980  145.1420 C   0  0  1  0  0  3  0  0  0  0  0  0
  184.8760  178.9490  144.1610 C   0  0  0  0  0  1  0  0  0  0  0  0
  185.5670  177.6230  143.8760 C   0  0  1  0  0  3  0  0  0  0  0  0
  187.4300  176.6360  140.9980 C   0  0  0  0  0  2  0  0  0  0  0  0
  186.5340  177.7530  142.6940 C   0  0  1  0  0  3  0  0  0  0  0  0
  187.1370  176.5340  142.3690 O   0  0  0  0  0  0  0  0  0  0  0  0
  186.5330  177.5940  140.3560 N   0  0  0  0  0  2  0  0  0  0  0  0
  185.8580  178.2570  141.4520 C   0  0  0  0  0  2  0  0  0  0  0  0
  191.7930  172.1170  144.0530 C   0  0  0  0  0  2  0  0  0  0  0  0
  191.4360  172.3060  142.5880 C   0  0  0  0  0  2  0  0  0  0  0  0
  192.6100  172.5590  141.8280 O   0  0  0  0  0  0  0  0  0  0  0  0
  193.4890  174.4580  140.7660 N   0  0  0  0  0  0  0  0  0  0  0  0
  192.6760  173.4410  140.7340 C   0  0  0  0  0  0  0  0  0  0  0  0
  194.3580  174.8260  141.8460 C   0  0  0  0  0  0  0  0  0  0  0  0
  194.0970  175.8730  142.6230 C   0  0  0  0  0  3  0  0  0  0  0  0
  197.3720  174.7100  144.0340 C   0  0  0  0  0  1  0  0  0  0  0  0
  196.0710  174.8510  143.4060 N   0  0  0  0  0  0  0  0  0  0  0  0
  195.1660  175.9190  143.5990 C   0  0  0  0  0  0  0  0  0  0  0  0
  195.6190  174.0990  142.2490 C   0  0  0  0  0  2  0  0  0  0  0  0
  195.2890  176.7920  144.4970 O   0  0  0  0  0  0  0  0  0  0  0  0
  190.5060  173.7100  139.4600 N   0  0  0  0  0  2  0  0  0  0  0  0
  191.8590  173.2470  139.5140 C   0  0  0  0  0  0  0  0  0  0  0  0
  192.3510  172.6310  138.5310 O   0  0  0  0  0  0  0  0  0  0  0  0
  189.3250  171.8930  137.6680 O   0  0  0  0  0  1  0  0  0  0  0  0
  187.9830  174.2160  138.3170 O   0  0  0  0  0  1  0  0  0  0  0  0
  190.1620  174.2370  136.8630 O   0  0  0  0  0  0  0  0  0  0  0  0
  189.5050  173.5340  138.0310 P   0  0  0  0  0  0  0  0  0  0  0  0
  1  5  1  0  0  0  0
  1  6  1  0  0  0  0
  2  1  2  0  0  0  0
  3  6  2  0  0  0  0
  4  3  1  0  0  0  0
  7  2  1  0  0  0  0
  7  4  2  0  0  0  0
  8 10  1  1  0  0  0
  8  4  1  0  0  0  0
  8 11  1  0  0  0  0
  9 10  1  0  0  0  0
 11 12  2  0  0  0  0
 13 17  1  6  0  0  0
 13 14  1  0  0  0  0
 13 15  1  0  0  0  0
 14 11  1  6  0  0  0
 14 15  1  0  0  0  0
 17 16  1  1  0  0  0
 19 18  1  1  0  0  0
 19 17  1  0  0  0  0
 20 22  1  0  0  0  0
 21 19  1  1  0  0  0
 22 21  1  0  0  0  0
 23 20  1  0  0  0  0
 23 24  1  0  0  0  0
 24 21  1  0  0  0  0
 25  2  1  0  0  0  0
 26 25  1  0  0  0  0
 27 26  1  0  0  0  0
 28 30  1  0  0  0  0
 29 28  2  0  0  0  0
 29 27  1  0  0  0  0
 30 35  1  0  0  0  0
 30 31  2  0  0  0  0
 31 34  1  0  0  0  0
 33 34  1  0  0  0  0
 33 32  1  0  0  0  0
 34 36  2  0  0  0  0
 35 33  1  0  0  0  0
 37 38  1  0  0  0  0
 38 29  1  0  0  0  0
 39 38  2  0  0  0  0
 40 43  1  0  0  0  0
 42 43  2  0  0  0  0
 43 41  1  0  0  0  0
 43 37  1  0  0  0  0
M  END
>  <MODEL>
1

>  <REMARK>
 VINA RESULT:      -6.8      0.000      0.000
  Name = 
  14 active torsions:
  status: ('A' for Active; 'I' for Inactive)
    1  A    between atoms: O_1  and  C_24
    2  A    between atoms: O_1  and  C_35
    3  A    between atoms: C_2  and  N_14
    4  A    between atoms: C_4  and  C_43
    5  A    between atoms: C_6  and  C_29
    6  A    between atoms: C_9  and  C_29
    7  A    between atoms: C_13  and  C_30
    8  A    between atoms: C_17  and  C_22
    9  A    between atoms: C_19  and  C_25
   10  A    between atoms: C_22  and  C_30
   11  A    between atoms: C_24  and  C_36
   12  A    between atoms: C_25  and  C_29
   13  A    between atoms: N_33  and  P_38
   14  A    between atoms: C_35  and  C_43
                            x       y       z     vdW  Elec       q    Type
                         _______ _______ _______ _____ _____    ______ ____

>  <TORSDO>
F 14

$$$$
=
 OpenBabel11062418433D

 43 46  0  0  1  0  0  0  0  0999 V2000
  192.6620  171.6840  143.4840 C   0  0  0  0  0  0  0  0  0  0  0  0
  191.6640  172.6640  143.3270 C   0  0  0  0  0  0  0  0  0  0  0  0
  194.3680  173.3980  143.3270 C   0  0  0  0  0  3  0  0  0  0  0  0
  193.3840  174.3790  143.1690 C   0  0  0  0  0  0  0  0  0  0  0  0
  192.3170  170.3110  143.6380 N   0  0  0  0  0  1  0  0  0  0  0  0
  194.0090  172.0570  143.4830 C   0  0  0  0  0  3  0  0  0  0  0  0
  192.0300  174.0080  143.1730 C   0  0  0  0  0  3  0  0  0  0  0  0
  193.8030  175.8090  143.0170 C   0  0  2  0  0  3  0  0  0  0  0  0
  195.7790  176.4220  141.1810 S   0  0  0  0  0  1  0  0  0  0  0  0
  195.3210  175.9210  142.8650 C   0  0  0  0  0  2  0  0  0  0  0  0
  193.2190  176.6890  144.1130 C   0  0  0  0  0  0  0  0  0  0  0  0
  192.1150  177.4030  143.8830 C   0  0  0  0  0  2  0  0  0  0  0  0
  193.5170  176.2550  146.6510 C   0  0  2  0  0  3  0  0  0  0  0  0
  193.9840  176.9990  145.3850 C   0  0  1  0  0  3  0  0  0  0  0  0
  194.7710  175.8110  145.9140 C   0  0  0  0  0  2  0  0  0  0  0  0
  192.7680  173.9710  146.6570 F   0  0  0  0  0  0  0  0  0  0  0  0
  192.3560  175.2760  146.4370 C   0  0  1  0  0  3  0  0  0  0  0  0
  191.4500  176.6860  148.3450 C   0  0  0  0  0  1  0  0  0  0  0  0
  191.1510  175.5840  147.3380 C   0  0  1  0  0  3  0  0  0  0  0  0
  187.6500  176.0870  146.8650 C   0  0  0  0  0  2  0  0  0  0  0  0
  189.8420  175.8660  146.5910 C   0  0  1  0  0  3  0  0  0  0  0  0
  188.7400  175.2710  147.2150 O   0  0  0  0  0  0  0  0  0  0  0  0
  188.1060  177.4390  146.5560 N   0  0  0  0  0  2  0  0  0  0  0  0
  189.5470  177.3340  146.4820 C   0  0  0  0  0  2  0  0  0  0  0  0
  190.2170  172.3040  143.3490 C   0  0  0  0  0  2  0  0  0  0  0  0
  189.3690  173.5620  143.4490 C   0  0  0  0  0  2  0  0  0  0  0  0
  188.3930  173.5760  142.4160 O   0  0  0  0  0  0  0  0  0  0  0  0
  188.6970  174.4980  140.2790 N   0  0  0  0  0  0  0  0  0  0  0  0
  188.2290  174.6210  141.4890 C   0  0  0  0  0  0  0  0  0  0  0  0
  189.4180  173.3760  139.7500 C   0  0  0  0  0  0  0  0  0  0  0  0
  190.7460  173.3200  139.7920 C   0  0  0  0  0  3  0  0  0  0  0  0
  189.9350  170.1390  137.9780 C   0  0  0  0  0  1  0  0  0  0  0  0
  189.9580  171.3290  138.8100 N   0  0  0  0  0  0  0  0  0  0  0  0
  191.1090  172.0530  139.1940 C   0  0  0  0  0  0  0  0  0  0  0  0
  188.8010  172.1490  139.1210 C   0  0  0  0  0  2  0  0  0  0  0  0
  192.2870  171.6430  139.0240 O   0  0  0  0  0  0  0  0  0  0  0  0
  186.6190  175.9230  142.9430 N   0  0  0  0  0  2  0  0  0  0  0  0
  187.5160  175.8730  141.8300 C   0  0  0  0  0  0  0  0  0  0  0  0
  187.6740  176.8920  141.1040 O   0  0  0  0  0  0  0  0  0  0  0  0
  186.8760  178.6630  143.5180 O   0  0  0  0  0  1  0  0  0  0  0  0
  184.5990  177.7580  142.2470 O   0  0  0  0  0  0  0  0  0  0  0  0
  185.1080  177.1810  144.7520 O   0  0  0  0  0  1  0  0  0  0  0  0
  185.7730  177.3880  143.4090 P   0  0  0  0  0  0  0  0  0  0  0  0
  1  5  1  0  0  0  0
  2 25  1  0  0  0  0
  2  1  2  0  0  0  0
  3  6  2  0  0  0  0
  4  7  2  0  0  0  0
  4  3  1  0  0  0  0
  6  1  1  0  0  0  0
  7  2  1  0  0  0  0
  8 10  1  1  0  0  0
  8  4  1  0  0  0  0
  8 11  1  0  0  0  0
  9 10  1  0  0  0  0
 12 11  2  0  0  0  0
 13 17  1  6  0  0  0
 14 11  1  6  0  0  0
 14 15  1  0  0  0  0
 14 13  1  0  0  0  0
 15 13  1  0  0  0  0
 17 16  1  1  0  0  0
 17 19  1  0  0  0  0
 19 18  1  6  0  0  0
 20 22  1  0  0  0  0
 21 22  1  0  0  0  0
 21 19  1  1  0  0  0
 23 20  1  0  0  0  0
 24 23  1  0  0  0  0
 24 21  1  0  0  0  0
 25 26  1  0  0  0  0
 27 26  1  0  0  0  0
 28 29  2  0  0  0  0
 29 38  1  0  0  0  0
 29 27  1  0  0  0  0
 30 31  2  0  0  0  0
 30 28  1  0  0  0  0
 32 33  1  0  0  0  0
 33 35  1  0  0  0  0
 33 34  1  0  0  0  0
 34 31  1  0  0  0  0
 35 30  1  0  0  0  0
 36 34  2  0  0  0  0
 37 43  1  0  0  0  0
 38 37  1  0  0  0  0
 39 38  2  0  0  0  0
 41 43  2  0  0  0  0
 43 40  1  0  0  0  0
 43 42  1  0  0  0  0
M  END
>  <MODEL>
2

>  <REMARK>
 VINA RESULT:      -6.7      3.245      6.217
  Name = 
  14 active torsions:
  status: ('A' for Active; 'I' for Inactive)
    1  A    between atoms: O_1  and  C_24
    2  A    between atoms: O_1  and  C_35
    3  A    between atoms: C_2  and  N_14
    4  A    between atoms: C_4  and  C_43
    5  A    between atoms: C_6  and  C_29
    6  A    between atoms: C_9  and  C_29
    7  A    between atoms: C_13  and  C_30
    8  A    between atoms: C_17  and  C_22
    9  A    between atoms: C_19  and  C_25
   10  A    between atoms: C_22  and  C_30
   11  A    between atoms: C_24  and  C_36
   12  A    between atoms: C_25  and  C_29
   13  A    between atoms: N_33  and  P_38
   14  A    between atoms: C_35  and  C_43
                            x       y       z     vdW  Elec       q    Type
                         _______ _______ _______ _____ _____    ______ ____

>  <TORSDO>
F 14

$$$$
=
 OpenBabel11062418433D

 43 46  0  0  1  0  0  0  0  0999 V2000
  194.6010  172.8850  145.3830 C   0  0  0  0  0  0  0  0  0  0  0  0
  193.3520  172.6070  144.7980 C   0  0  0  0  0  0  0  0  0  0  0  0
  193.8330  175.1090  145.9650 C   0  0  0  0  0  3  0  0  0  0  0  0
  192.5890  174.8430  145.3840 C   0  0  0  0  0  0  0  0  0  0  0  0
  195.6370  171.9080  145.3870 N   0  0  0  0  0  1  0  0  0  0  0  0
  194.8350  174.1350  145.9640 C   0  0  0  0  0  3  0  0  0  0  0  0
  192.3500  173.5870  144.8030 C   0  0  0  0  0  3  0  0  0  0  0  0
  191.5320  175.9050  145.4140 C   0  0  2  0  0  3  0  0  0  0  0  0
  190.7260  178.0160  143.8190 S   0  0  0  0  0  1  0  0  0  0  0  0
  192.0380  177.1970  144.7710 C   0  0  0  0  0  2  0  0  0  0  0  0
  190.9520  176.0880  146.8090 C   0  0  0  0  0  0  0  0  0  0  0  0
  191.3940  177.0710  147.5950 C   0  0  0  0  0  2  0  0  0  0  0  0
  188.5680  175.1190  147.1180 C   0  0  2  0  0  3  0  0  0  0  0  0
  190.0690  175.0370  147.4550 C   0  0  1  0  0  3  0  0  0  0  0  0
  189.4520  174.0770  146.4510 C   0  0  0  0  0  2  0  0  0  0  0  0
  188.2070  175.7850  144.8370 F   0  0  0  0  0  0  0  0  0  0  0  0
  188.1800  176.2400  146.1460 C   0  0  1  0  0  3  0  0  0  0  0  0
  186.8510  177.9170  147.5130 C   0  0  0  0  0  1  0  0  0  0  0  0
  186.7950  176.8300  146.4490 C   0  0  1  0  0  3  0  0  0  0  0  0
  184.3540  178.6320  144.5720 C   0  0  0  0  0  2  0  0  0  0  0  0
  186.0130  177.3080  145.2200 C   0  0  1  0  0  3  0  0  0  0  0  0
  184.7010  177.6720  145.5380 O   0  0  0  0  0  0  0  0  0  0  0  0
  185.5520  179.2860  144.0510 N   0  0  0  0  0  2  0  0  0  0  0  0
  186.6530  178.4940  144.5580 C   0  0  0  0  0  2  0  0  0  0  0  0
  193.0600  171.2760  144.1930 C   0  0  0  0  0  2  0  0  0  0  0  0
  193.7740  171.1420  142.8580 C   0  0  0  0  0  2  0  0  0  0  0  0
  193.1440  171.9630  141.8830 O   0  0  0  0  0  0  0  0  0  0  0  0
  192.6740  174.1390  141.1390 N   0  0  0  0  0  0  0  0  0  0  0  0
  193.5500  173.2700  141.5590 C   0  0  0  0  0  0  0  0  0  0  0  0
  191.2730  173.9100  140.9320 C   0  0  0  0  0  0  0  0  0  0  0  0
  190.3720  174.2300  141.8560 C   0  0  0  0  0  3  0  0  0  0  0  0
  188.2000  172.6920  139.2130 C   0  0  0  0  0  1  0  0  0  0  0  0
  189.2310  173.3590  139.9880 N   0  0  0  0  0  0  0  0  0  0  0  0
  189.0850  173.8790  141.2930 C   0  0  0  0  0  0  0  0  0  0  0  0
  190.6500  173.3230  139.6870 C   0  0  0  0  0  2  0  0  0  0  0  0
  187.9800  174.0050  141.8810 O   0  0  0  0  0  0  0  0  0  0  0  0
  195.2760  174.9120  142.4140 N   0  0  0  0  0  2  0  0  0  0  0  0
  194.9550  173.7170  141.6970 C   0  0  0  0  0  0  0  0  0  0  0  0
  195.8720  173.0540  141.1390 O   0  0  0  0  0  0  0  0  0  0  0  0
  197.6680  175.6300  141.1240 O   0  0  0  0  0  0  0  0  0  0  0  0
  196.9170  176.9670  143.4200 O   0  0  0  0  0  1  0  0  0  0  0  0
  197.6910  174.4640  143.4660 O   0  0  0  0  0  1  0  0  0  0  0  0
  196.9240  175.4680  142.6330 P   0  0  0  0  0  0  0  0  0  0  0  0
  1  5  1  0  0  0  0
  1  6  1  0  0  0  0
  2  7  1  0  0  0  0
  2  1  2  0  0  0  0
  4  8  1  0  0  0  0
  4  3  1  0  0  0  0
  6  3  2  0  0  0  0
  7  4  2  0  0  0  0
  8 10  1  1  0  0  0
  8 11  1  0  0  0  0
  9 10  1  0  0  0  0
 11 12  2  0  0  0  0
 13 17  1  6  0  0  0
 13 14  1  0  0  0  0
 14 11  1  6  0  0  0
 15 13  1  0  0  0  0
 15 14  1  0  0  0  0
 17 16  1  6  0  0  0
 17 19  1  0  0  0  0
 19 18  1  1  0  0  0
 20 22  1  0  0  0  0
 21 22  1  0  0  0  0
 21 19  1  1  0  0  0
 23 24  1  0  0  0  0
 23 20  1  0  0  0  0
 24 21  1  0  0  0  0
 25  2  1  0  0  0  0
 26 25  1  0  0  0  0
 27 26  1  0  0  0  0
 28 29  2  0  0  0  0
 29 38  1  0  0  0  0
 29 27  1  0  0  0  0
 30 28  1  0  0  0  0
 30 31  2  0  0  0  0
 32 33  1  0  0  0  0
 33 34  1  0  0  0  0
 34 31  1  0  0  0  0
 34 36  2  0  0  0  0
 35 33  1  0  0  0  0
 35 30  1  0  0  0  0
 37 43  1  0  0  0  0
 38 37  1  0  0  0  0
 39 38  2  0  0  0  0
 40 43  2  0  0  0  0
 43 41  1  0  0  0  0
 43 42  1  0  0  0  0
M  END
>  <MODEL>
3

>  <REMARK>
 VINA RESULT:      -6.6      2.603      4.911
  Name = 
  14 active torsions:
  status: ('A' for Active; 'I' for Inactive)
    1  A    between atoms: O_1  and  C_24
    2  A    between atoms: O_1  and  C_35
    3  A    between atoms: C_2  and  N_14
    4  A    between atoms: C_4  and  C_43
    5  A    between atoms: C_6  and  C_29
    6  A    between atoms: C_9  and  C_29
    7  A    between atoms: C_13  and  C_30
    8  A    between atoms: C_17  and  C_22
    9  A    between atoms: C_19  and  C_25
   10  A    between atoms: C_22  and  C_30
   11  A    between atoms: C_24  and  C_36
   12  A    between atoms: C_25  and  C_29
   13  A    between atoms: N_33  and  P_38
   14  A    between atoms: C_35  and  C_43
                            x       y       z     vdW  Elec       q    Type
                         _______ _______ _______ _____ _____    ______ ____

>  <TORSDO>
F 14

$$$$
=
 OpenBabel11062418433D

 43 46  0  0  1  0  0  0  0  0999 V2000
  190.2780  175.9580  146.9340 C   0  0  0  0  0  0  0  0  0  0  0  0
  189.5120  175.1410  146.0810 C   0  0  0  0  0  0  0  0  0  0  0  0
  188.7430  177.7930  146.5530 C   0  0  0  0  0  3  0  0  0  0  0  0
  187.9760  176.9900  145.7020 C   0  0  0  0  0  0  0  0  0  0  0  0
  191.4520  175.4550  147.5630 N   0  0  0  0  0  1  0  0  0  0  0  0
  189.8890  177.2800  147.1650 C   0  0  0  0  0  3  0  0  0  0  0  0
  188.3630  175.6610  145.4710 C   0  0  0  0  0  3  0  0  0  0  0  0
  186.7460  177.5690  145.0710 C   0  0  2  0  0  3  0  0  0  0  0  0
  184.3070  178.5470  145.9350 S   0  0  0  0  0  1  0  0  0  0  0  0
  185.4930  177.1740  145.8550 C   0  0  0  0  0  2  0  0  0  0  0  0
  186.6750  177.2590  143.5830 C   0  0  0  0  0  0  0  0  0  0  0  0
  186.4720  176.0070  143.1670 C   0  0  0  0  0  2  0  0  0  0  0  0
  188.5210  178.1430  141.9920 C   0  0  2  0  0  3  0  0  0  0  0  0
  187.0840  178.2740  142.5320 C   0  0  1  0  0  3  0  0  0  0  0  0
  187.3400  177.6510  141.1690 C   0  0  0  0  0  2  0  0  0  0  0  0
  189.2700  175.8730  141.7400 F   0  0  0  0  0  0  0  0  0  0  0  0
  189.3300  176.9780  142.5750 C   0  0  1  0  0  3  0  0  0  0  0  0
  190.9520  178.4630  143.8440 C   0  0  0  0  0  1  0  0  0  0  0  0
  190.8000  177.3460  142.8210 C   0  0  1  0  0  3  0  0  0  0  0  0
  193.5910  175.1370  142.5700 C   0  0  0  0  0  2  0  0  0  0  0  0
  191.7150  176.1640  143.1630 C   0  0  1  0  0  3  0  0  0  0  0  0
  192.4130  175.6970  142.0450 O   0  0  0  0  0  0  0  0  0  0  0  0
  193.9120  175.7440  143.8590 N   0  0  0  0  0  2  0  0  0  0  0  0
  192.7350  176.5090  144.2090 C   0  0  0  0  0  2  0  0  0  0  0  0
  189.8840  173.7180  145.8330 C   0  0  0  0  0  2  0  0  0  0  0  0
  190.1730  173.5050  144.3560 C   0  0  0  0  0  2  0  0  0  0  0  0
  191.3410  172.7120  144.1970 O   0  0  0  0  0  0  0  0  0  0  0  0
  192.7680  171.3040  142.9760 N   0  0  0  0  0  0  0  0  0  0  0  0
  191.6550  171.9790  143.0380 C   0  0  0  0  0  0  0  0  0  0  0  0
  193.7800  171.2260  143.9890 C   0  0  0  0  0  0  0  0  0  0  0  0
  193.7970  170.2410  144.8830 C   0  0  0  0  0  3  0  0  0  0  0  0
  196.7200  172.3040  146.0090 C   0  0  0  0  0  1  0  0  0  0  0  0
  195.6580  171.6290  145.2850 N   0  0  0  0  0  0  0  0  0  0  0  0
  194.9560  170.4820  145.7160 C   0  0  0  0  0  0  0  0  0  0  0  0
  194.9280  172.1930  144.1640 C   0  0  0  0  0  2  0  0  0  0  0  0
  195.2980  169.7770  146.7010 O   0  0  0  0  0  0  0  0  0  0  0  0
  190.9300  172.8150  140.7620 N   0  0  0  0  0  2  0  0  0  0  0  0
  190.7480  171.9260  141.8680 C   0  0  0  0  0  0  0  0  0  0  0  0
  189.7840  171.1140  141.8700 O   0  0  0  0  0  0  0  0  0  0  0  0
  189.9250  171.2200  138.6760 O   0  0  0  0  0  1  0  0  0  0  0  0
  188.3190  173.1780  139.7730 O   0  0  0  0  0  1  0  0  0  0  0  0
  190.4170  173.7640  138.3180 O   0  0  0  0  0  0  0  0  0  0  0  0
  189.9040  172.7740  139.3400 P   0  0  0  0  0  0  0  0  0  0  0  0
  1  6  1  0  0  0  0
  1  5  1  0  0  0  0
  2  1  2  0  0  0  0
  3  6  2  0  0  0  0
  4  3  1  0  0  0  0
  7  4  2  0  0  0  0
  7  2  1  0  0  0  0
  8  4  1  0  0  0  0
  8 10  1  1  0  0  0
 10  9  1  0  0  0  0
 11  8  1  0  0  0  0
 12 11  2  0  0  0  0
 13 14  1  0  0  0  0
 13 17  1  1  0  0  0
 14 11  1  1  0  0  0
 15 13  1  0  0  0  0
 15 14  1  0  0  0  0
 17 16  1  6  0  0  0
 17 19  1  0  0  0  0
 19 18  1  1  0  0  0
 20 23  1  0  0  0  0
 21 19  1  6  0  0  0
 21 24  1  0  0  0  0
 22 20  1  0  0  0  0
 22 21  1  0  0  0  0
 23 24  1  0  0  0  0
 25  2  1  0  0  0  0
 26 25  1  0  0  0  0
 27 26  1  0  0  0  0
 28 29  2  0  0  0  0
 28 30  1  0  0  0  0
 29 27  1  0  0  0  0
 30 35  1  0  0  0  0
 30 31  2  0  0  0  0
 31 34  1  0  0  0  0
 33 34  1  0  0  0  0
 33 32  1  0  0  0  0
 34 36  2  0  0  0  0
 35 33  1  0  0  0  0
 37 38  1  0  0  0  0
 38 39  2  0  0  0  0
 38 29  1  0  0  0  0
 40 43  1  0  0  0  0
 42 43  2  0  0  0  0
 43 41  1  0  0  0  0
 43 37  1  0  0  0  0
M  END
>  <MODEL>
4

>  <REMARK>
 VINA RESULT:      -6.6      2.622      4.533
  Name = 
  14 active torsions:
  status: ('A' for Active; 'I' for Inactive)
    1  A    between atoms: O_1  and  C_24
    2  A    between atoms: O_1  and  C_35
    3  A    between atoms: C_2  and  N_14
    4  A    between atoms: C_4  and  C_43
    5  A    between atoms: C_6  and  C_29
    6  A    between atoms: C_9  and  C_29
    7  A    between atoms: C_13  and  C_30
    8  A    between atoms: C_17  and  C_22
    9  A    between atoms: C_19  and  C_25
   10  A    between atoms: C_22  and  C_30
   11  A    between atoms: C_24  and  C_36
   12  A    between atoms: C_25  and  C_29
   13  A    between atoms: N_33  and  P_38
   14  A    between atoms: C_35  and  C_43
                            x       y       z     vdW  Elec       q    Type
                         _______ _______ _______ _____ _____    ______ ____

>  <TORSDO>
F 14

$$$$
=
 OpenBabel11062418433D

 43 46  0  0  1  0  0  0  0  0999 V2000
  195.4820  176.4900  143.6920 C   0  0  0  0  0  0  0  0  0  0  0  0
  194.6310  176.2420  142.5980 C   0  0  0  0  0  0  0  0  0  0  0  0
  193.5790  176.3970  145.1900 C   0  0  0  0  0  3  0  0  0  0  0  0
  192.7260  176.1520  144.1100 C   0  0  0  0  0  0  0  0  0  0  0  0
  196.8810  176.6700  143.5010 N   0  0  0  0  0  1  0  0  0  0  0  0
  194.9510  176.5660  144.9830 C   0  0  0  0  0  3  0  0  0  0  0  0
  193.2570  176.0720  142.8130 C   0  0  0  0  0  3  0  0  0  0  0  0
  191.2620  175.9630  144.3690 C   0  0  2  0  0  3  0  0  0  0  0  0
  190.3200  173.3970  143.9460 S   0  0  0  0  0  1  0  0  0  0  0  0
  190.6300  175.0670  143.3030 C   0  0  0  0  0  2  0  0  0  0  0  0
  190.5480  177.2910  144.5720 C   0  0  0  0  0  0  0  0  0  0  0  0
  190.8310  178.3320  143.7860 C   0  0  0  0  0  2  0  0  0  0  0  0
  188.1790  177.4890  145.6070 C   0  0  2  0  0  3  0  0  0  0  0  0
  189.7050  177.5700  145.8020 C   0  0  1  0  0  3  0  0  0  0  0  0
  188.9310  176.3530  146.2840 C   0  0  0  0  0  2  0  0  0  0  0  0
  187.5360  175.7360  144.0940 F   0  0  0  0  0  0  0  0  0  0  0  0
  187.7250  177.1050  144.1930 C   0  0  1  0  0  3  0  0  0  0  0  0
  186.0700  178.9570  144.7230 C   0  0  0  0  0  1  0  0  0  0  0  0
  186.4360  177.8260  143.7720 C   0  0  1  0  0  3  0  0  0  0  0  0
  186.5470  177.6120  140.2120 C   0  0  0  0  0  2  0  0  0  0  0  0
  186.4100  178.3060  142.3160 C   0  0  1  0  0  3  0  0  0  0  0  0
  187.1520  177.4730  141.4730 O   0  0  0  0  0  0  0  0  0  0  0  0
  185.1520  178.0200  140.3600 N   0  0  0  0  0  2  0  0  0  0  0  0
  185.0190  178.3730  141.7580 C   0  0  0  0  0  2  0  0  0  0  0  0
  195.1680  176.1280  141.2120 C   0  0  0  0  0  2  0  0  0  0  0  0
  194.2580  175.2480  140.3710 C   0  0  0  0  0  2  0  0  0  0  0  0
  194.4950  173.8780  140.6660 O   0  0  0  0  0  0  0  0  0  0  0  0
  193.5390  172.1620  141.9500 N   0  0  0  0  0  0  0  0  0  0  0  0
  193.4850  172.9260  140.8950 C   0  0  0  0  0  0  0  0  0  0  0  0
  194.5670  172.1530  142.9500 C   0  0  0  0  0  0  0  0  0  0  0  0
  194.4710  172.8900  144.0530 C   0  0  0  0  0  3  0  0  0  0  0  0
  197.8450  171.3180  144.5120 C   0  0  0  0  0  1  0  0  0  0  0  0
  196.4780  171.6620  144.1630 N   0  0  0  0  0  0  0  0  0  0  0  0
  195.6650  172.6110  144.8220 C   0  0  0  0  0  0  0  0  0  0  0  0
  195.8330  171.3300  142.9060 C   0  0  0  0  0  2  0  0  0  0  0  0
  195.9570  173.1420  145.9240 O   0  0  0  0  0  0  0  0  0  0  0  0
  191.1080  173.4680  140.2180 N   0  0  0  0  0  2  0  0  0  0  0  0
  192.3310  172.7640  139.9820 C   0  0  0  0  0  0  0  0  0  0  0  0
  192.4180  171.9660  139.0100 O   0  0  0  0  0  0  0  0  0  0  0  0
  188.4980  174.3700  139.6900 O   0  0  0  0  0  1  0  0  0  0  0  0
  190.1740  173.7710  137.5800 O   0  0  0  0  0  0  0  0  0  0  0  0
  189.2140  171.9110  139.1570 O   0  0  0  0  0  1  0  0  0  0  0  0
  189.7220  173.3370  139.1520 P   0  0  0  0  0  0  0  0  0  0  0  0
  1  6  1  0  0  0  0
  2  7  1  0  0  0  0
  2  1  2  0  0  0  0
  4  8  1  0  0  0  0
  4  3  1  0  0  0  0
  5  1  1  0  0  0  0
  6  3  2  0  0  0  0
  7  4  2  0  0  0  0
  8 10  1  6  0  0  0
  8 11  1  0  0  0  0
 10  9  1  0  0  0  0
 12 11  2  0  0  0  0
 13 17  1  6  0  0  0
 13 14  1  0  0  0  0
 13 15  1  0  0  0  0
 14 11  1  6  0  0  0
 14 15  1  0  0  0  0
 17 16  1  1  0  0  0
 19 17  1  0  0  0  0
 19 18  1  1  0  0  0
 20 23  1  0  0  0  0
 20 22  1  0  0  0  0
 21 19  1  1  0  0  0
 22 21  1  0  0  0  0
 23 24  1  0  0  0  0
 24 21  1  0  0  0  0
 25  2  1  0  0  0  0
 26 27  1  0  0  0  0
 26 25  1  0  0  0  0
 27 29  1  0  0  0  0
 28 30  1  0  0  0  0
 29 28  2  0  0  0  0
 30 31  2  0  0  0  0
 31 34  1  0  0  0  0
 33 32  1  0  0  0  0
 33 34  1  0  0  0  0
 34 36  2  0  0  0  0
 35 30  1  0  0  0  0
 35 33  1  0  0  0  0
 38 37  1  0  0  0  0
 38 29  1  0  0  0  0
 39 38  2  0  0  0  0
 41 43  2  0  0  0  0
 43 42  1  0  0  0  0
 43 40  1  0  0  0  0
 43 37  1  0  0  0  0
M  END
>  <MODEL>
5

>  <REMARK>
 VINA RESULT:      -6.5      1.937      2.982
  Name = 
  14 active torsions:
  status: ('A' for Active; 'I' for Inactive)
    1  A    between atoms: O_1  and  C_24
    2  A    between atoms: O_1  and  C_35
    3  A    between atoms: C_2  and  N_14
    4  A    between atoms: C_4  and  C_43
    5  A    between atoms: C_6  and  C_29
    6  A    between atoms: C_9  and  C_29
    7  A    between atoms: C_13  and  C_30
    8  A    between atoms: C_17  and  C_22
    9  A    between atoms: C_19  and  C_25
   10  A    between atoms: C_22  and  C_30
   11  A    between atoms: C_24  and  C_36
   12  A    between atoms: C_25  and  C_29
   13  A    between atoms: N_33  and  P_38
   14  A    between atoms: C_35  and  C_43
                            x       y       z     vdW  Elec       q    Type
                         _______ _______ _______ _____ _____    ______ ____

>  <TORSDO>
F 14

$$$$
=
 OpenBabel11062418433D

 43 46  0  0  1  0  0  0  0  0999 V2000
  192.9520  173.3990  145.5490 C   0  0  0  0  0  0  0  0  0  0  0  0
  191.8730  173.1220  144.6890 C   0  0  0  0  0  0  0  0  0  0  0  0
  191.9580  175.5380  146.1070 C   0  0  0  0  0  3  0  0  0  0  0  0
  190.8820  175.2720  145.2530 C   0  0  0  0  0  0  0  0  0  0  0  0
  194.0150  172.4650  145.7080 N   0  0  0  0  0  1  0  0  0  0  0  0
  192.9880  174.6060  146.2540 C   0  0  0  0  0  3  0  0  0  0  0  0
  190.8410  174.0600  144.5470 C   0  0  0  0  0  3  0  0  0  0  0  0
  189.7870  176.2880  145.1280 C   0  0  2  0  0  3  0  0  0  0  0  0
  191.0830  177.5260  143.0210 S   0  0  0  0  0  1  0  0  0  0  0  0
  190.3440  177.6400  144.6770 C   0  0  0  0  0  2  0  0  0  0  0  0
  188.9320  176.3550  146.3850 C   0  0  0  0  0  0  0  0  0  0  0  0
  188.5440  175.2320  146.9940 C   0  0  0  0  0  2  0  0  0  0  0  0
  186.9330  177.9920  146.1670 C   0  0  2  0  0  3  0  0  0  0  0  0
  188.2740  177.6440  146.8400 C   0  0  1  0  0  3  0  0  0  0  0  0
  186.9630  177.4190  147.5750 C   0  0  0  0  0  2  0  0  0  0  0  0
  185.5930  176.0400  145.7510 F   0  0  0  0  0  0  0  0  0  0  0  0
  186.4320  176.9620  145.1460 C   0  0  1  0  0  3  0  0  0  0  0  0
  185.9340  179.1140  143.8950 C   0  0  0  0  0  1  0  0  0  0  0  0
  185.7020  177.6110  143.9620 C   0  0  1  0  0  3  0  0  0  0  0  0
  186.7620  177.3410  140.5660 C   0  0  0  0  0  2  0  0  0  0  0  0
  185.9650  176.9560  142.6010 C   0  0  1  0  0  3  0  0  0  0  0  0
  185.9180  177.8800  141.5530 O   0  0  0  0  0  0  0  0  0  0  0  0
  187.7530  176.4570  141.1730 N   0  0  0  0  0  2  0  0  0  0  0  0
  187.3050  176.2830  142.5380 C   0  0  0  0  0  2  0  0  0  0  0  0
  191.7890  171.8340  143.9430 C   0  0  0  0  0  2  0  0  0  0  0  0
  193.0990  171.5640  143.2210 C   0  0  0  0  0  2  0  0  0  0  0  0
  193.0770  172.1630  141.9310 O   0  0  0  0  0  0  0  0  0  0  0  0
  192.5900  174.2250  140.9230 N   0  0  0  0  0  0  0  0  0  0  0  0
  193.3810  173.5120  141.6740 C   0  0  0  0  0  0  0  0  0  0  0  0
  191.3930  173.7770  140.2720 C   0  0  0  0  0  0  0  0  0  0  0  0
  190.2160  173.7940  140.8910 C   0  0  0  0  0  3  0  0  0  0  0  0
  189.2880  172.2740  137.5900 C   0  0  0  0  0  1  0  0  0  0  0  0
  189.8810  173.0020  138.6970 N   0  0  0  0  0  0  0  0  0  0  0  0
  189.2550  173.2970  139.9290 C   0  0  0  0  0  0  0  0  0  0  0  0
  191.2990  173.2680  138.8530 C   0  0  0  0  0  2  0  0  0  0  0  0
  188.0260  173.1360  140.1500 O   0  0  0  0  0  0  0  0  0  0  0  0
  194.4370  175.2710  143.1540 N   0  0  0  0  0  2  0  0  0  0  0  0
  194.5750  174.1750  142.2460 C   0  0  0  0  0  0  0  0  0  0  0  0
  195.7230  173.7910  141.8940 O   0  0  0  0  0  0  0  0  0  0  0  0
  195.2770  177.1970  145.0230 O   0  0  0  0  0  1  0  0  0  0  0  0
  196.7980  174.9240  144.6490 O   0  0  0  0  0  1  0  0  0  0  0  0
  196.6130  176.7830  142.8120 O   0  0  0  0  0  0  0  0  0  0  0  0
  195.8170  176.0710  143.8840 P   0  0  0  0  0  0  0  0  0  0  0  0
  1  5  1  0  0  0  0
  1  6  1  0  0  0  0
  2  1  2  0  0  0  0
  3  6  2  0  0  0  0
  4  3  1  0  0  0  0
  7  2  1  0  0  0  0
  7  4  2  0  0  0  0
  8 10  1  1  0  0  0
  8  4  1  0  0  0  0
  8 11  1  0  0  0  0
  9 10  1  0  0  0  0
 11 12  2  0  0  0  0
 13 17  1  6  0  0  0
 13 14  1  0  0  0  0
 13 15  1  0  0  0  0
 14 11  1  6  0  0  0
 14 15  1  0  0  0  0
 17 16  1  1  0  0  0
 19 18  1  6  0  0  0
 19 17  1  0  0  0  0
 20 23  1  0  0  0  0
 20 22  1  0  0  0  0
 21 19  1  1  0  0  0
 22 21  1  0  0  0  0
 23 24  1  0  0  0  0
 24 21  1  0  0  0  0
 25  2  1  0  0  0  0
 26 25  1  0  0  0  0
 27 26  1  0  0  0  0
 28 29  2  0  0  0  0
 29 27  1  0  0  0  0
 29 38  1  0  0  0  0
 30 31  2  0  0  0  0
 30 28  1  0  0  0  0
 32 33  1  0  0  0  0
 33 35  1  0  0  0  0
 33 34  1  0  0  0  0
 34 36  2  0  0  0  0
 34 31  1  0  0  0  0
 35 30  1  0  0  0  0
 37 43  1  0  0  0  0
 38 37  1  0  0  0  0
 39 38  2  0  0  0  0
 42 43  2  0  0  0  0
 43 41  1  0  0  0  0
 43 40  1  0  0  0  0
M  END
>  <MODEL>
6

>  <REMARK>
 VINA RESULT:      -6.4      1.995      4.526
  Name = 
  14 active torsions:
  status: ('A' for Active; 'I' for Inactive)
    1  A    between atoms: O_1  and  C_24
    2  A    between atoms: O_1  and  C_35
    3  A    between atoms: C_2  and  N_14
    4  A    between atoms: C_4  and  C_43
    5  A    between atoms: C_6  and  C_29
    6  A    between atoms: C_9  and  C_29
    7  A    between atoms: C_13  and  C_30
    8  A    between atoms: C_17  and  C_22
    9  A    between atoms: C_19  and  C_25
   10  A    between atoms: C_22  and  C_30
   11  A    between atoms: C_24  and  C_36
   12  A    between atoms: C_25  and  C_29
   13  A    between atoms: N_33  and  P_38
   14  A    between atoms: C_35  and  C_43
                            x       y       z     vdW  Elec       q    Type
                         _______ _______ _______ _____ _____    ______ ____

>  <TORSDO>
F 14

$$$$
=
 OpenBabel11062418433D

 43 46  0  0  1  0  0  0  0  0999 V2000
  190.2690  176.7060  146.3210 C   0  0  0  0  0  0  0  0  0  0  0  0
  190.8120  176.9250  145.0410 C   0  0  0  0  0  0  0  0  0  0  0  0
  191.7620  174.8220  146.6300 C   0  0  0  0  0  3  0  0  0  0  0  0
  192.3070  175.0310  145.3600 C   0  0  0  0  0  0  0  0  0  0  0  0
  189.2310  177.5400  146.8240 N   0  0  0  0  0  1  0  0  0  0  0  0
  190.7480  175.6550  147.1090 C   0  0  0  0  0  3  0  0  0  0  0  0
  191.8310  176.0880  144.5670 C   0  0  0  0  0  3  0  0  0  0  0  0
  193.4030  174.1270  144.8820 C   0  0  2  0  0  3  0  0  0  0  0  0
  193.1730  171.9830  143.1500 S   0  0  0  0  0  1  0  0  0  0  0  0
  192.9220  172.6770  144.8090 C   0  0  0  0  0  2  0  0  0  0  0  0
  194.6840  174.3210  145.6800 C   0  0  0  0  0  0  0  0  0  0  0  0
  195.0140  175.5310  146.1360 C   0  0  0  0  0  2  0  0  0  0  0  0
  196.7810  173.2220  144.6240 C   0  0  2  0  0  3  0  0  0  0  0  0
  195.7470  173.2410  145.7650 C   0  0  1  0  0  3  0  0  0  0  0  0
  197.1450  173.7960  145.9840 C   0  0  0  0  0  2  0  0  0  0  0  0
  197.4710  175.3800  143.8200 F   0  0  0  0  0  0  0  0  0  0  0  0
  196.6080  174.3250  143.5710 C   0  0  1  0  0  3  0  0  0  0  0  0
  196.8560  172.2940  142.0670 C   0  0  0  0  0  1  0  0  0  0  0  0
  196.8310  173.8140  142.1400 C   0  0  1  0  0  3  0  0  0  0  0  0
  194.0530  173.9540  139.9060 C   0  0  0  0  0  2  0  0  0  0  0  0
  195.8760  174.3960  141.0910 C   0  0  1  0  0  3  0  0  0  0  0  0
  195.2790  173.4000  140.3110 O   0  0  0  0  0  0  0  0  0  0  0  0
  193.6200  174.9790  140.8520 N   0  0  0  0  0  2  0  0  0  0  0  0
  194.7680  175.2010  141.7050 C   0  0  0  0  0  2  0  0  0  0  0  0
  190.3440  178.0530  144.1850 C   0  0  0  0  0  2  0  0  0  0  0  0
  189.8130  177.5190  142.8650 C   0  0  0  0  0  2  0  0  0  0  0  0
  188.8160  176.5340  143.1020 O   0  0  0  0  0  0  0  0  0  0  0  0
  186.6590  176.5240  142.1760 N   0  0  0  0  0  0  0  0  0  0  0  0
  187.8880  176.0910  142.1420 C   0  0  0  0  0  0  0  0  0  0  0  0
  186.0960  177.4270  143.1370 C   0  0  0  0  0  0  0  0  0  0  0  0
  186.0540  178.7380  142.9190 C   0  0  0  0  0  3  0  0  0  0  0  0
  184.5870  178.5210  146.3640 C   0  0  0  0  0  1  0  0  0  0  0  0
  185.0370  178.3080  145.0000 N   0  0  0  0  0  0  0  0  0  0  0  0
  185.4090  179.3140  144.0800 C   0  0  0  0  0  0  0  0  0  0  0  0
  185.4810  177.0360  144.4610 C   0  0  0  0  0  2  0  0  0  0  0  0
  185.2080  180.5430  144.2620 O   0  0  0  0  0  0  0  0  0  0  0  0
  189.1290  174.0450  141.3190 N   0  0  0  0  0  2  0  0  0  0  0  0
  188.2600  175.1510  141.0600 C   0  0  0  0  0  0  0  0  0  0  0  0
  187.8370  175.3560  139.8900 O   0  0  0  0  0  0  0  0  0  0  0  0
  188.1830  172.3220  139.3090 O   0  0  0  0  0  1  0  0  0  0  0  0
  190.5870  173.6280  138.9470 O   0  0  0  0  0  0  0  0  0  0  0  0
  190.3020  171.7200  140.7200 O   0  0  0  0  0  1  0  0  0  0  0  0
  189.5760  172.8850  140.0820 P   0  0  0  0  0  0  0  0  0  0  0  0
  1  5  1  0  0  0  0
  1  6  1  0  0  0  0
  2  1  2  0  0  0  0
  3  6  2  0  0  0  0
  4  3  1  0  0  0  0
  7  2  1  0  0  0  0
  7  4  2  0  0  0  0
  8 10  1  1  0  0  0
  8  4  1  0  0  0  0
  8 11  1  0  0  0  0
  9 10  1  0  0  0  0
 11 12  2  0  0  0  0
 13 17  1  6  0  0  0
 13 14  1  0  0  0  0
 13 15  1  0  0  0  0
 14 11  1  6  0  0  0
 14 15  1  0  0  0  0
 17 16  1  1  0  0  0
 19 18  1  1  0  0  0
 19 17  1  0  0  0  0
 20 22  1  0  0  0  0
 20 23  1  0  0  0  0
 21 24  1  0  0  0  0
 21 19  1  1  0  0  0
 22 21  1  0  0  0  0
 23 24  1  0  0  0  0
 25  2  1  0  0  0  0
 26 27  1  0  0  0  0
 26 25  1  0  0  0  0
 28 30  1  0  0  0  0
 29 28  2  0  0  0  0
 29 27  1  0  0  0  0
 30 35  1  0  0  0  0
 31 30  2  0  0  0  0
 31 34  1  0  0  0  0
 33 32  1  0  0  0  0
 34 36  2  0  0  0  0
 34 33  1  0  0  0  0
 35 33  1  0  0  0  0
 38 37  1  0  0  0  0
 38 29  1  0  0  0  0
 39 38  2  0  0  0  0
 40 43  1  0  0  0  0
 41 43  2  0  0  0  0
 43 42  1  0  0  0  0
 43 37  1  0  0  0  0
M  END
>  <MODEL>
7

>  <REMARK>
 VINA RESULT:      -6.4      3.038      7.896
  Name = 
  14 active torsions:
  status: ('A' for Active; 'I' for Inactive)
    1  A    between atoms: O_1  and  C_24
    2  A    between atoms: O_1  and  C_35
    3  A    between atoms: C_2  and  N_14
    4  A    between atoms: C_4  and  C_43
    5  A    between atoms: C_6  and  C_29
    6  A    between atoms: C_9  and  C_29
    7  A    between atoms: C_13  and  C_30
    8  A    between atoms: C_17  and  C_22
    9  A    between atoms: C_19  and  C_25
   10  A    between atoms: C_22  and  C_30
   11  A    between atoms: C_24  and  C_36
   12  A    between atoms: C_25  and  C_29
   13  A    between atoms: N_33  and  P_38
   14  A    between atoms: C_35  and  C_43
                            x       y       z     vdW  Elec       q    Type
                         _______ _______ _______ _____ _____    ______ ____

>  <TORSDO>
F 14

$$$$
=
 OpenBabel11062418433D

 43 46  0  0  1  0  0  0  0  0999 V2000
  192.2100  176.2820  146.4050 C   0  0  0  0  0  0  0  0  0  0  0  0
  192.1030  175.6280  145.1630 C   0  0  0  0  0  0  0  0  0  0  0  0
  194.5720  176.6480  146.0090 C   0  0  0  0  0  3  0  0  0  0  0  0
  194.4770  175.9990  144.7730 C   0  0  0  0  0  0  0  0  0  0  0  0
  191.0730  176.4290  147.2500 N   0  0  0  0  0  1  0  0  0  0  0  0
  193.4440  176.7880  146.8210 C   0  0  0  0  0  3  0  0  0  0  0  0
  193.2370  175.4920  144.3510 C   0  0  0  0  0  3  0  0  0  0  0  0
  195.7030  175.8770  143.9210 C   0  0  2  0  0  3  0  0  0  0  0  0
  196.0320  176.7900  141.3310 S   0  0  0  0  0  1  0  0  0  0  0  0
  195.3320  175.5620  142.4710 C   0  0  0  0  0  2  0  0  0  0  0  0
  196.7200  174.9200  144.5260 C   0  0  0  0  0  0  0  0  0  0  0  0
  197.8300  174.6080  143.8550 C   0  0  0  0  0  2  0  0  0  0  0  0
  195.6990  172.7490  145.5080 C   0  0  2  0  0  3  0  0  0  0  0  0
  196.4080  174.0930  145.7590 C   0  0  1  0  0  3  0  0  0  0  0  0
  197.1880  172.7890  145.8160 C   0  0  0  0  0  2  0  0  0  0  0  0
  196.3980  171.5540  143.5430 F   0  0  0  0  0  0  0  0  0  0  0  0
  195.4340  172.4200  144.0330 C   0  0  1  0  0  3  0  0  0  0  0  0
  193.1290  171.9930  145.0090 C   0  0  0  0  0  1  0  0  0  0  0  0
  194.0430  171.8110  143.8060 C   0  0  1  0  0  3  0  0  0  0  0  0
  193.0990  171.7670  140.3650 C   0  0  0  0  0  2  0  0  0  0  0  0
  193.3450  172.2570  142.5160 C   0  0  1  0  0  3  0  0  0  0  0  0
  194.0690  171.9010  141.3730 O   0  0  0  0  0  0  0  0  0  0  0  0
  191.7980  171.4560  140.9500 N   0  0  0  0  0  2  0  0  0  0  0  0
  191.9730  171.6660  142.3710 C   0  0  0  0  0  2  0  0  0  0  0  0
  190.7960  175.0990  144.6770 C   0  0  0  0  0  2  0  0  0  0  0  0
  190.1760  176.0740  143.6890 C   0  0  0  0  0  2  0  0  0  0  0  0
  188.7580  176.0040  143.7610 O   0  0  0  0  0  0  0  0  0  0  0  0
  186.7720  176.2660  142.5370 N   0  0  0  0  0  0  0  0  0  0  0  0
  187.9210  175.6670  142.6820 C   0  0  0  0  0  0  0  0  0  0  0  0
  186.2130  177.2650  143.4000 C   0  0  0  0  0  0  0  0  0  0  0  0
  186.2670  178.5580  143.0950 C   0  0  0  0  0  3  0  0  0  0  0  0
  184.5900  178.6660  146.4480 C   0  0  0  0  0  1  0  0  0  0  0  0
  185.1050  178.3330  145.1320 N   0  0  0  0  0  0  0  0  0  0  0  0
  185.5920  179.2490  144.1730 C   0  0  0  0  0  0  0  0  0  0  0  0
  185.4980  177.0030  144.7050 C   0  0  0  0  0  2  0  0  0  0  0  0
  185.4610  180.4980  144.2630 O   0  0  0  0  0  0  0  0  0  0  0  0
  188.1940  174.9380  140.2740 N   0  0  0  0  0  2  0  0  0  0  0  0
  188.3050  174.6550  141.6720 C   0  0  0  0  0  0  0  0  0  0  0  0
  188.6950  173.5180  142.0530 O   0  0  0  0  0  0  0  0  0  0  0  0
  187.9260  172.2980  139.3450 O   0  0  0  0  0  1  0  0  0  0  0  0
  188.1740  174.3540  137.5200 O   0  0  0  0  0  0  0  0  0  0  0  0
  190.1670  173.6150  139.0520 O   0  0  0  0  0  1  0  0  0  0  0  0
  188.6640  173.7870  139.0370 P   0  0  0  0  0  0  0  0  0  0  0  0
  1  6  1  0  0  0  0
  1  5  1  0  0  0  0
  2  1  2  0  0  0  0
  3  6  2  0  0  0  0
  4  3  1  0  0  0  0
  7  4  2  0  0  0  0
  7  2  1  0  0  0  0
  8 10  1  6  0  0  0
  8 11  1  0  0  0  0
  8  4  1  0  0  0  0
  9 10  1  0  0  0  0
 12 11  2  0  0  0  0
 13 17  1  6  0  0  0
 13 14  1  0  0  0  0
 13 15  1  0  0  0  0
 14 11  1  6  0  0  0
 14 15  1  0  0  0  0
 17 16  1  1  0  0  0
 19 17  1  0  0  0  0
 19 18  1  1  0  0  0
 20 23  1  0  0  0  0
 20 22  1  0  0  0  0
 21 19  1  1  0  0  0
 22 21  1  0  0  0  0
 23 24  1  0  0  0  0
 24 21  1  0  0  0  0
 25  2  1  0  0  0  0
 26 27  1  0  0  0  0
 26 25  1  0  0  0  0
 28 29  2  0  0  0  0
 28 30  1  0  0  0  0
 29 27  1  0  0  0  0
 30 35  1  0  0  0  0
 31 30  2  0  0  0  0
 31 34  1  0  0  0  0
 33 32  1  0  0  0  0
 34 36  2  0  0  0  0
 34 33  1  0  0  0  0
 35 33  1  0  0  0  0
 37 38  1  0  0  0  0
 38 39  2  0  0  0  0
 38 29  1  0  0  0  0
 41 43  2  0  0  0  0
 43 42  1  0  0  0  0
 43 40  1  0  0  0  0
 43 37  1  0  0  0  0
M  END
>  <MODEL>
8

>  <REMARK>
 VINA RESULT:      -6.3      3.114      7.658
  Name = 
  14 active torsions:
  status: ('A' for Active; 'I' for Inactive)
    1  A    between atoms: O_1  and  C_24
    2  A    between atoms: O_1  and  C_35
    3  A    between atoms: C_2  and  N_14
    4  A    between atoms: C_4  and  C_43
    5  A    between atoms: C_6  and  C_29
    6  A    between atoms: C_9  and  C_29
    7  A    between atoms: C_13  and  C_30
    8  A    between atoms: C_17  and  C_22
    9  A    between atoms: C_19  and  C_25
   10  A    between atoms: C_22  and  C_30
   11  A    between atoms: C_24  and  C_36
   12  A    between atoms: C_25  and  C_29
   13  A    between atoms: N_33  and  P_38
   14  A    between atoms: C_35  and  C_43
                            x       y       z     vdW  Elec       q    Type
                         _______ _______ _______ _____ _____    ______ ____

>  <TORSDO>
F 14

$$$$
=
 OpenBabel11062418433D

 43 46  0  0  1  0  0  0  0  0999 V2000
  190.7570  176.8140  146.4760 C   0  0  0  0  0  0  0  0  0  0  0  0
  190.9500  176.9760  145.0910 C   0  0  0  0  0  0  0  0  0  0  0  0
  192.8270  175.5620  146.6160 C   0  0  0  0  0  3  0  0  0  0  0  0
  193.0270  175.7170  145.2410 C   0  0  0  0  0  0  0  0  0  0  0  0
  189.6090  177.3570  147.1200 N   0  0  0  0  0  1  0  0  0  0  0  0
  191.6970  176.1070  147.2310 C   0  0  0  0  0  3  0  0  0  0  0  0
  192.0850  176.4290  144.4800 C   0  0  0  0  0  3  0  0  0  0  0  0
  194.2550  175.1300  144.6150 C   0  0  2  0  0  3  0  0  0  0  0  0
  196.0560  176.4180  142.9570 S   0  0  0  0  0  1  0  0  0  0  0  0
  194.4330  175.6340  143.1820 C   0  0  0  0  0  2  0  0  0  0  0  0
  194.2910  173.6150  144.7520 C   0  0  0  0  0  0  0  0  0  0  0  0
  193.3580  172.8650  144.1610 C   0  0  0  0  0  2  0  0  0  0  0  0
  196.5710  172.4700  145.2170 C   0  0  2  0  0  3  0  0  0  0  0  0
  195.1980  172.9210  145.7510 C   0  0  1  0  0  3  0  0  0  0  0  0
  196.4500  173.7190  146.0770 C   0  0  0  0  0  2  0  0  0  0  0  0
  197.9410  173.6540  143.6360 F   0  0  0  0  0  0  0  0  0  0  0  0
  196.8420  172.8180  143.7470 C   0  0  1  0  0  3  0  0  0  0  0  0
  197.0040  170.2840  143.6880 C   0  0  0  0  0  1  0  0  0  0  0  0
  197.0630  171.5720  142.8780 C   0  0  1  0  0  3  0  0  0  0  0  0
  194.0580  171.2380  140.9840 C   0  0  0  0  0  2  0  0  0  0  0  0
  196.1650  171.4800  141.6390 C   0  0  1  0  0  3  0  0  0  0  0  0
  195.0130  170.7230  141.8770 O   0  0  0  0  0  0  0  0  0  0  0  0
  194.3810  172.6190  140.6340 N   0  0  0  0  0  2  0  0  0  0  0  0
  195.7160  172.8270  141.1540 C   0  0  0  0  0  2  0  0  0  0  0  0
  189.9800  177.7470  144.2610 C   0  0  0  0  0  2  0  0  0  0  0  0
  190.2180  177.4650  142.7860 C   0  0  0  0  0  2  0  0  0  0  0  0
  188.9810  177.4470  142.0870 O   0  0  0  0  0  0  0  0  0  0  0  0
  187.5280  175.6650  142.5570 N   0  0  0  0  0  0  0  0  0  0  0  0
  187.7770  176.9430  142.6110 C   0  0  0  0  0  0  0  0  0  0  0  0
  188.3630  174.6530  141.9770 C   0  0  0  0  0  0  0  0  0  0  0  0
  189.0220  173.7790  142.7320 C   0  0  0  0  0  3  0  0  0  0  0  0
  190.1670  172.7940  139.2990 C   0  0  0  0  0  1  0  0  0  0  0  0
  189.4610  173.2760  140.4730 N   0  0  0  0  0  0  0  0  0  0  0  0
  189.7300  172.9150  141.8110 C   0  0  0  0  0  0  0  0  0  0  0  0
  188.5860  174.4340  140.4990 C   0  0  0  0  0  2  0  0  0  0  0  0
  190.4940  171.9720  142.1460 O   0  0  0  0  0  0  0  0  0  0  0  0
  186.0470  177.3780  144.4060 N   0  0  0  0  0  2  0  0  0  0  0  0
  186.7680  177.8170  143.2520 C   0  0  0  0  0  0  0  0  0  0  0  0
  186.5170  178.9450  142.7460 O   0  0  0  0  0  0  0  0  0  0  0  0
  184.1960  177.5310  146.5160 O   0  0  0  0  0  1  0  0  0  0  0  0
  185.6180  179.7850  145.8020 O   0  0  0  0  0  1  0  0  0  0  0  0
  183.7700  178.7650  144.2500 O   0  0  0  0  0  0  0  0  0  0  0  0
  184.8660  178.3850  145.2210 P   0  0  0  0  0  0  0  0  0  0  0  0
  1  5  1  0  0  0  0
  1  6  1  0  0  0  0
  2  1  2  0  0  0  0
  3  6  2  0  0  0  0
  4  3  1  0  0  0  0
  7  2  1  0  0  0  0
  7  4  2  0  0  0  0
  8 10  1  6  0  0  0
  8 11  1  0  0  0  0
  8  4  1  0  0  0  0
  9 10  1  0  0  0  0
 12 11  2  0  0  0  0
 13 17  1  6  0  0  0
 13 14  1  0  0  0  0
 13 15  1  0  0  0  0
 14 11  1  6  0  0  0
 14 15  1  0  0  0  0
 17 16  1  1  0  0  0
 19 18  1  1  0  0  0
 19 17  1  0  0  0  0
 20 22  1  0  0  0  0
 21 22  1  0  0  0  0
 21 19  1  1  0  0  0
 23 20  1  0  0  0  0
 23 24  1  0  0  0  0
 24 21  1  0  0  0  0
 25  2  1  0  0  0  0
 26 25  1  0  0  0  0
 27 29  1  0  0  0  0
 27 26  1  0  0  0  0
 28 29  2  0  0  0  0
 29 38  1  0  0  0  0
 30 28  1  0  0  0  0
 30 31  2  0  0  0  0
 32 33  1  0  0  0  0
 33 35  1  0  0  0  0
 33 34  1  0  0  0  0
 34 36  2  0  0  0  0
 34 31  1  0  0  0  0
 35 30  1  0  0  0  0
 37 43  1  0  0  0  0
 38 37  1  0  0  0  0
 39 38  2  0  0  0  0
 42 43  2  0  0  0  0
 43 41  1  0  0  0  0
 43 40  1  0  0  0  0
M  END
>  <MODEL>
9

>  <REMARK>
 VINA RESULT:      -6.3      3.804      8.301
  Name = 
  14 active torsions:
  status: ('A' for Active; 'I' for Inactive)
    1  A    between atoms: O_1  and  C_24
    2  A    between atoms: O_1  and  C_35
    3  A    between atoms: C_2  and  N_14
    4  A    between atoms: C_4  and  C_43
    5  A    between atoms: C_6  and  C_29
    6  A    between atoms: C_9  and  C_29
    7  A    between atoms: C_13  and  C_30
    8  A    between atoms: C_17  and  C_22
    9  A    between atoms: C_19  and  C_25
   10  A    between atoms: C_22  and  C_30
   11  A    between atoms: C_24  and  C_36
   12  A    between atoms: C_25  and  C_29
   13  A    between atoms: N_33  and  P_38
   14  A    between atoms: C_35  and  C_43
                            x       y       z     vdW  Elec       q    Type
                         _______ _______ _______ _____ _____    ______ ____

>  <TORSDO>
F 14

$$$$
