=
 OpenBabel11062421393D

 52 57  0  0  1  0  0  0  0  0999 V2000
  189.7000  173.6370  144.7280 O   0  0  0  0  0  0  0  0  0  0  0  0
  188.6810  174.3870  142.3810 C   0  0  2  0  0  0  0  0  0  0  0  0
  189.7610  173.4890  142.0480 C   0  0  2  0  0  3  0  0  0  0  0  0
  189.4680  173.7770  143.5390 C   0  0  0  0  0  0  0  0  0  0  0  0
  187.4120  173.8200  142.2660 O   0  0  0  0  0  1  0  0  0  0  0  0
  194.1500  174.6710  139.3980 O   0  0  0  0  0  1  0  0  0  0  0  0
  194.5840  172.4140  139.9890 C   0  0  0  0  0  2  0  0  0  0  0  0
  194.5240  171.5980  141.1290 O   0  0  0  0  0  0  0  0  0  0  0  0
  191.0490  174.1770  141.6020 C   0  0  2  0  0  3  0  0  0  0  0  0
  192.2720  173.2160  139.5780 C   0  0  0  0  0  2  0  0  0  0  0  0
  195.7780  174.5860  142.3480 O   0  0  0  0  0  1  0  0  0  0  0  0
  193.6420  173.6110  140.1490 C   0  0  2  0  0  0  0  0  0  0  0  0
  191.1640  174.1490  140.0690 C   0  0  0  0  0  2  0  0  0  0  0  0
  193.5510  174.0550  141.6400 C   0  0  1  0  0  3  0  0  0  0  0  0
  195.3030  172.2350  142.1140 C   0  0  1  0  0  3  0  0  0  0  0  0
  192.2660  173.5790  142.3100 C   0  0  0  0  0  2  0  0  0  0  0  0
  194.7600  173.6380  142.4820 C   0  0  1  0  0  3  0  0  0  0  0  0
  194.7250  171.6750  145.6920 C   0  0  0  0  0  2  0  0  0  0  0  0
  197.8600  171.5880  143.7960 C   0  0  0  0  0  2  0  0  0  0  0  0
  196.9170  171.2330  146.5060 F   0  0  0  0  0  0  0  0  0  0  0  0
  196.4120  173.3620  145.8630 O   0  0  0  0  0  1  0  0  0  0  0  0
  195.4320  171.3210  143.3440 C   0  0  1  0  0  3  0  0  0  0  0  0
  196.5920  171.6890  144.2020 C   0  0  0  0  0  0  0  0  0  0  0  0
  194.2200  171.4600  144.2620 C   0  0  1  0  0  3  0  0  0  0  0  0
  196.2090  172.0060  145.6030 C   0  0  2  0  0  0  0  0  0  0  0  0
  191.9600  170.6660  144.2540 O   0  0  0  0  0  1  0  0  0  0  0  0
  193.2900  170.2560  144.1450 C   0  0  0  0  0  3  0  0  0  0  0  0
  193.5720  169.3070  145.1310 O   0  0  0  0  0  1  0  0  0  0  0  0
  188.7550  175.9240  142.2650 C   0  0  1  0  0  3  0  0  0  0  0  0
  188.5740  176.3600  140.9470 O   0  0  0  0  0  1  0  0  0  0  0  0
  187.7430  176.5900  143.2170 C   0  0  2  0  0  3  0  0  0  0  0  0
  189.7670  177.0070  144.7470 C   0  0  0  0  0  2  0  0  0  0  0  0
  188.2410  176.9100  144.6380 C   0  0  2  0  0  3  0  0  0  0  0  0
  190.2210  177.1900  146.2060 C   0  0  1  0  0  3  0  0  0  0  0  0
  187.7350  175.9780  145.5660 O   0  0  0  0  0  0  0  0  0  0  0  0
  189.0370  177.4810  147.1370 C   0  0  0  0  0  2  0  0  0  0  0  0
  187.8760  176.4890  146.8880 C   0  0  1  0  0  3  0  0  0  0  0  0
  191.0360  175.9850  146.6830 C   0  0  2  0  0  3  0  0  0  0  0  0
  190.8080  175.7650  148.0420 O   0  0  0  0  0  1  0  0  0  0  0  0
  192.5230  176.2320  146.4630 C   0  0  1  0  0  3  0  0  0  0  0  0
  193.2370  174.9310  146.1360 C   0  0  0  0  0  2  0  0  0  0  0  0
  192.8740  175.8920  145.0250 C   0  0  2  0  0  3  0  0  0  0  0  0
  194.5860  177.5180  145.7830 C   0  0  0  0  0  1  0  0  0  0  0  0
  194.1010  176.6770  144.6160 C   0  0  0  0  0  2  0  0  0  0  0  0
  186.6980  178.2900  147.6400 C   0  0  0  0  0  1  0  0  0  0  0  0
  186.6500  176.9020  147.4440 O   0  0  0  0  0  0  0  0  0  0  0  0
  186.4410  176.0430  143.1510 O   0  0  0  0  0  0  0  0  0  0  0  0
  185.5140  177.0780  142.9460 C   0  0  1  0  0  3  0  0  0  0  0  0
  184.9720  177.5430  144.2890 C   0  0  0  0  0  1  0  0  0  0  0  0
  185.6710  178.2910  140.8760 O   0  0  0  0  0  1  0  0  0  0  0  0
  185.9440  179.4470  142.8290 O   0  0  0  0  0  1  0  0  0  0  0  0
  186.1650  178.2290  142.1810 C   0  0  0  0  0  3  0  0  0  0  0  0
  2  5  1  6  0  0  0
  2  4  1  0  0  0  0
  3  2  1  0  0  0  0
  3  4  1  1  0  0  0
  4  1  2  0  0  0  0
  7 12  1  0  0  0  0
  7  8  1  0  0  0  0
  9 13  1  6  0  0  0
  9  3  1  0  0  0  0
  9 16  1  0  0  0  0
 10 13  1  0  0  0  0
 10 12  1  0  0  0  0
 12  6  1  6  0  0  0
 12 14  1  0  0  0  0
 14 16  1  1  0  0  0
 14 17  1  0  0  0  0
 15  8  1  6  0  0  0
 15 17  1  0  0  0  0
 15 22  1  0  0  0  0
 17 11  1  6  0  0  0
 19 23  2  0  0  0  0
 22 23  1  1  0  0  0
 22 24  1  0  0  0  0
 23 25  1  0  0  0  0
 24 27  1  1  0  0  0
 24 18  1  0  0  0  0
 25 18  1  0  0  0  0
 25 21  1  1  0  0  0
 25 20  1  0  0  0  0
 27 26  1  0  0  0  0
 27 28  1  0  0  0  0
 29 30  1  6  0  0  0
 29  2  1  0  0  0  0
 29 31  1  0  0  0  0
 31 47  1  1  0  0  0
 32 34  1  0  0  0  0
 33 31  1  6  0  0  0
 33 32  1  0  0  0  0
 33 35  1  0  0  0  0
 34 38  1  1  0  0  0
 34 36  1  0  0  0  0
 35 37  1  0  0  0  0
 37 36  1  0  0  0  0
 37 46  1  6  0  0  0
 38 39  1  1  0  0  0
 40 38  1  6  0  0  0
 41 40  1  0  0  0  0
 42 44  1  1  0  0  0
 42 41  1  0  0  0  0
 42 40  1  0  0  0  0
 44 43  1  0  0  0  0
 46 45  1  0  0  0  0
 48 47  1  0  0  0  0
 48 49  1  1  0  0  0
 50 52  1  0  0  0  0
 52 51  1  0  0  0  0
 52 48  1  0  0  0  0
M  END
>  <MODEL>
1

>  <REMARK>
 VINA RESULT:      -7.0      0.000      0.000
  Name = 
  13 active torsions:
  status: ('A' for Active; 'I' for Inactive)
    1  A    between atoms: C_1  and  C_14
    2  A    between atoms: C_1  and  C_30
    3  A    between atoms: O_7  and  C_12
    4  A    between atoms: O_7  and  C_16
    5  A    between atoms: C_12  and  C_27
    6  A    between atoms: C_12  and  C_28
    7  A    between atoms: C_13  and  C_27
    8  A    between atoms: C_16  and  C_45
    9  A    between atoms: C_17  and  C_19
   10  A    between atoms: C_18  and  C_32
   11  A    between atoms: C_20  and  C_40
   12  A    between atoms: C_37  and  C_52
   13  A    between atoms: C_44  and  O_50
                            x       y       z     vdW  Elec       q    Type
                         _______ _______ _______ _____ _____    ______ ____

>  <TORSDO>
F 13

$$$$
=
 OpenBabel11062421393D

 52 57  0  0  1  0  0  0  0  0999 V2000
  190.0970  173.6220  140.1070 O   0  0  0  0  0  0  0  0  0  0  0  0
  190.7440  171.7100  141.8490 C   0  0  2  0  0  0  0  0  0  0  0  0
  189.8250  172.5650  142.5600 C   0  0  2  0  0  3  0  0  0  0  0  0
  190.1830  172.9150  141.0970 C   0  0  0  0  0  0  0  0  0  0  0  0
  190.1820  170.5150  141.4000 O   0  0  0  0  0  1  0  0  0  0  0  0
  190.9620  175.3050  146.9040 O   0  0  0  0  0  1  0  0  0  0  0  0
  188.6620  175.8280  146.6410 C   0  0  0  0  0  2  0  0  0  0  0  0
  187.7920  176.2500  145.6250 O   0  0  0  0  0  0  0  0  0  0  0  0
  190.4820  173.5420  143.5320 C   0  0  2  0  0  3  0  0  0  0  0  0
  189.5770  173.6380  145.9160 C   0  0  0  0  0  2  0  0  0  0  0  0
  190.6610  178.0990  145.0430 O   0  0  0  0  0  1  0  0  0  0  0  0
  189.8860  175.1380  146.0320 C   0  0  2  0  0  0  0  0  0  0  0  0
  190.5280  172.9370  144.9450 C   0  0  0  0  0  2  0  0  0  0  0  0
  190.2570  175.7690  144.6570 C   0  0  1  0  0  3  0  0  0  0  0  0
  188.3460  177.4310  145.0940 C   0  0  1  0  0  3  0  0  0  0  0  0
  189.7990  174.9100  143.4820 C   0  0  0  0  0  2  0  0  0  0  0  0
  189.7490  177.2020  144.4800 C   0  0  1  0  0  3  0  0  0  0  0  0
  185.5020  177.0380  142.8130 C   0  0  0  0  0  2  0  0  0  0  0  0
  188.8800  178.2820  142.1310 C   0  0  0  0  0  2  0  0  0  0  0  0
  186.3930  177.7980  140.7420 F   0  0  0  0  0  0  0  0  0  0  0  0
  187.1300  175.8050  141.5690 O   0  0  0  0  0  1  0  0  0  0  0  0
  187.3660  178.0570  144.0880 C   0  0  1  0  0  3  0  0  0  0  0  0
  187.7630  177.7950  142.6760 C   0  0  0  0  0  0  0  0  0  0  0  0
  185.9760  177.4360  144.2140 C   0  0  1  0  0  3  0  0  0  0  0  0
  186.7120  177.0970  141.8910 C   0  0  2  0  0  0  0  0  0  0  0  0
  185.5860  179.6400  145.0640 O   0  0  0  0  0  1  0  0  0  0  0  0
  185.0050  178.3790  144.9150 C   0  0  0  0  0  3  0  0  0  0  0  0
  184.6370  177.8810  146.1670 O   0  0  0  0  0  1  0  0  0  0  0  0
  192.2740  171.7090  142.0540 C   0  0  1  0  0  3  0  0  0  0  0  0
  192.6990  170.6230  142.8290 O   0  0  0  0  0  1  0  0  0  0  0  0
  193.0050  171.7480  140.6980 C   0  0  2  0  0  3  0  0  0  0  0  0
  194.6960  173.3640  141.7650 C   0  0  0  0  0  2  0  0  0  0  0  0
  193.9950  172.9050  140.4800 C   0  0  2  0  0  3  0  0  0  0  0  0
  195.5680  174.6080  141.5230 C   0  0  1  0  0  3  0  0  0  0  0  0
  193.3630  173.9920  139.8450 O   0  0  0  0  0  0  0  0  0  0  0  0
  195.7160  174.9150  140.0260 C   0  0  0  0  0  2  0  0  0  0  0  0
  194.3430  174.8770  139.3130 C   0  0  1  0  0  3  0  0  0  0  0  0
  195.0350  175.8130  142.3000 C   0  0  2  0  0  3  0  0  0  0  0  0
  195.7450  176.9610  141.9440 O   0  0  0  0  0  1  0  0  0  0  0  0
  195.1830  175.5830  143.7990 C   0  0  1  0  0  3  0  0  0  0  0  0
  194.2480  176.4960  144.5750 C   0  0  0  0  0  2  0  0  0  0  0  0
  193.8730  175.0480  144.3500 C   0  0  2  0  0  3  0  0  0  0  0  0
  194.1420  172.7690  145.2900 C   0  0  0  0  0  1  0  0  0  0  0  0
  194.1530  174.2530  145.6080 C   0  0  0  0  0  2  0  0  0  0  0  0
  195.7880  174.9170  137.5500 C   0  0  0  0  0  1  0  0  0  0  0  0
  194.4370  174.8030  137.9090 O   0  0  0  0  0  0  0  0  0  0  0  0
  192.1780  171.4550  139.5880 O   0  0  0  0  0  0  0  0  0  0  0  0
  192.8560  170.5790  138.7250 C   0  0  1  0  0  3  0  0  0  0  0  0
  192.1090  169.2550  138.6630 C   0  0  0  0  0  1  0  0  0  0  0  0
  192.1490  172.3050  137.2090 O   0  0  0  0  0  1  0  0  0  0  0  0
  194.3170  171.5920  137.0980 O   0  0  0  0  0  1  0  0  0  0  0  0
  192.9970  171.2030  137.3380 C   0  0  0  0  0  3  0  0  0  0  0  0
  1  4  2  0  0  0  0
  2  5  1  6  0  0  0
  2 29  1  0  0  0  0
  2  3  1  0  0  0  0
  3  4  1  6  0  0  0
  3  9  1  0  0  0  0
  4  2  1  0  0  0  0
  8  7  1  0  0  0  0
  9 16  1  1  0  0  0
  9 13  1  0  0  0  0
 10 12  1  0  0  0  0
 12  7  1  0  0  0  0
 12  6  1  1  0  0  0
 13 10  1  0  0  0  0
 14 16  1  6  0  0  0
 14 12  1  0  0  0  0
 15  8  1  6  0  0  0
 17 14  1  0  0  0  0
 17 11  1  1  0  0  0
 17 15  1  0  0  0  0
 18 24  1  0  0  0  0
 19 23  2  0  0  0  0
 21 25  1  0  0  0  0
 22 23  1  6  0  0  0
 22 24  1  0  0  0  0
 22 15  1  0  0  0  0
 24 27  1  6  0  0  0
 25 20  1  6  0  0  0
 25 23  1  0  0  0  0
 25 18  1  0  0  0  0
 27 26  1  0  0  0  0
 27 28  1  0  0  0  0
 29 30  1  6  0  0  0
 31 47  1  6  0  0  0
 31 29  1  0  0  0  0
 33 31  1  1  0  0  0
 33 32  1  0  0  0  0
 34 32  1  0  0  0  0
 34 38  1  1  0  0  0
 35 33  1  0  0  0  0
 36 34  1  0  0  0  0
 37 46  1  6  0  0  0
 37 35  1  0  0  0  0
 37 36  1  0  0  0  0
 38 39  1  6  0  0  0
 40 38  1  6  0  0  0
 40 42  1  0  0  0  0
 40 41  1  0  0  0  0
 42 41  1  0  0  0  0
 42 44  1  1  0  0  0
 43 44  1  0  0  0  0
 45 46  1  0  0  0  0
 48 49  1  6  0  0  0
 48 47  1  0  0  0  0
 50 52  1  0  0  0  0
 51 52  1  0  0  0  0
 52 48  1  0  0  0  0
M  END
>  <MODEL>
2

>  <REMARK>
 VINA RESULT:      -6.7      2.793      8.608
  Name = 
  13 active torsions:
  status: ('A' for Active; 'I' for Inactive)
    1  A    between atoms: C_1  and  C_14
    2  A    between atoms: C_1  and  C_30
    3  A    between atoms: O_7  and  C_12
    4  A    between atoms: O_7  and  C_16
    5  A    between atoms: C_12  and  C_27
    6  A    between atoms: C_12  and  C_28
    7  A    between atoms: C_13  and  C_27
    8  A    between atoms: C_16  and  C_45
    9  A    between atoms: C_17  and  C_19
   10  A    between atoms: C_18  and  C_32
   11  A    between atoms: C_20  and  C_40
   12  A    between atoms: C_37  and  C_52
   13  A    between atoms: C_44  and  O_50
                            x       y       z     vdW  Elec       q    Type
                         _______ _______ _______ _____ _____    ______ ____

>  <TORSDO>
F 13

$$$$
=
 OpenBabel11062421393D

 52 57  0  0  1  0  0  0  0  0999 V2000
  193.2800  176.2200  144.0400 O   0  0  0  0  0  0  0  0  0  0  0  0
  192.0750  174.6370  145.8160 C   0  0  2  0  0  0  0  0  0  0  0  0
  193.4340  174.1570  145.7520 C   0  0  2  0  0  3  0  0  0  0  0  0
  193.0300  175.3610  144.8700 C   0  0  0  0  0  0  0  0  0  0  0  0
  191.7920  175.4020  146.9470 O   0  0  0  0  0  1  0  0  0  0  0  0
  195.4270  169.7040  143.7850 O   0  0  0  0  0  1  0  0  0  0  0  0
  197.2750  171.1690  143.5210 C   0  0  0  0  0  2  0  0  0  0  0  0
  197.5300  172.4570  143.0240 O   0  0  0  0  0  0  0  0  0  0  0  0
  193.6290  172.9010  144.9060 C   0  0  2  0  0  3  0  0  0  0  0  0
  195.6690  171.4450  145.3920 C   0  0  0  0  0  2  0  0  0  0  0  0
  195.2750  171.1520  140.7450 O   0  0  0  0  0  1  0  0  0  0  0  0
  195.8010  171.0410  143.9160 C   0  0  2  0  0  0  0  0  0  0  0  0
  194.2210  171.7690  145.7630 C   0  0  0  0  0  2  0  0  0  0  0  0
  194.8960  171.9050  142.9880 C   0  0  1  0  0  3  0  0  0  0  0  0
  197.0470  172.4750  141.7020 C   0  0  1  0  0  3  0  0  0  0  0  0
  194.4540  173.2040  143.6530 C   0  0  0  0  0  2  0  0  0  0  0  0
  195.5230  172.2080  141.6250 C   0  0  1  0  0  3  0  0  0  0  0  0
  196.0410  175.6930  140.2610 C   0  0  0  0  0  2  0  0  0  0  0  0
  197.9410  172.9530  138.7420 C   0  0  0  0  0  2  0  0  0  0  0  0
  196.9340  175.5750  138.0590 F   0  0  0  0  0  0  0  0  0  0  0  0
  195.1490  174.2520  138.5730 O   0  0  0  0  0  1  0  0  0  0  0  0
  197.4410  173.7980  141.0240 C   0  0  1  0  0  3  0  0  0  0  0  0
  197.2440  173.7570  139.5490 C   0  0  0  0  0  0  0  0  0  0  0  0
  196.5500  174.9440  141.4960 C   0  0  1  0  0  3  0  0  0  0  0  0
  196.3320  174.8190  139.0490 C   0  0  2  0  0  0  0  0  0  0  0  0
  197.0800  175.4210  143.7820 O   0  0  0  0  0  1  0  0  0  0  0  0
  197.2850  175.8570  142.4720 C   0  0  0  0  0  3  0  0  0  0  0  0
  196.8530  177.1800  142.3450 O   0  0  0  0  0  1  0  0  0  0  0  0
  190.8710  173.9440  145.1420 C   0  0  1  0  0  3  0  0  0  0  0  0
  189.7050  174.0540  145.9090 O   0  0  0  0  0  1  0  0  0  0  0  0
  190.6560  174.4930  143.7180 C   0  0  2  0  0  3  0  0  0  0  0  0
  189.6250  176.6360  144.6950 C   0  0  0  0  0  2  0  0  0  0  0  0
  189.6060  175.6070  143.5590 C   0  0  2  0  0  3  0  0  0  0  0  0
  188.4720  177.6460  144.5660 C   0  0  1  0  0  3  0  0  0  0  0  0
  188.3170  175.0590  143.4070 O   0  0  0  0  0  0  0  0  0  0  0  0
  187.7590  177.5240  143.2120 C   0  0  0  0  0  2  0  0  0  0  0  0
  187.4310  176.0470  142.8880 C   0  0  1  0  0  3  0  0  0  0  0  0
  187.4940  177.5170  145.7360 C   0  0  2  0  0  3  0  0  0  0  0  0
  187.5120  176.2110  146.2280 O   0  0  0  0  0  1  0  0  0  0  0  0
  186.0800  177.8580  145.2840 C   0  0  1  0  0  3  0  0  0  0  0  0
  185.3160  178.5550  146.3970 C   0  0  0  0  0  2  0  0  0  0  0  0
  185.9140  179.3670  145.2690 C   0  0  2  0  0  3  0  0  0  0  0  0
  184.1840  178.4780  143.7320 C   0  0  0  0  0  1  0  0  0  0  0  0
  184.8280  179.7370  144.2820 C   0  0  0  0  0  2  0  0  0  0  0  0
  187.3820  176.9940  140.8150 C   0  0  0  0  0  1  0  0  0  0  0  0
  187.1020  175.8250  141.5360 O   0  0  0  0  0  0  0  0  0  0  0  0
  190.6250  173.4980  142.7140 O   0  0  0  0  0  0  0  0  0  0  0  0
  190.7420  174.1070  141.4540 C   0  0  1  0  0  3  0  0  0  0  0  0
  192.2140  174.2290  141.0880 C   0  0  0  0  0  1  0  0  0  0  0  0
  189.0800  172.4260  141.0170 O   0  0  0  0  0  1  0  0  0  0  0  0
  189.2790  174.1590  139.5400 O   0  0  0  0  0  1  0  0  0  0  0  0
  189.9730  173.3080  140.4040 C   0  0  0  0  0  3  0  0  0  0  0  0
  1  4  2  0  0  0  0
  2  5  1  1  0  0  0
  3  4  1  6  0  0  0
  3  2  1  0  0  0  0
  4  2  1  0  0  0  0
  7 12  1  0  0  0  0
  8  7  1  0  0  0  0
  9 16  1  6  0  0  0
  9  3  1  0  0  0  0
  9 13  1  0  0  0  0
 10 13  1  0  0  0  0
 12  6  1  6  0  0  0
 12 10  1  0  0  0  0
 14 16  1  1  0  0  0
 14 12  1  0  0  0  0
 15  8  1  1  0  0  0
 17 11  1  6  0  0  0
 17 15  1  0  0  0  0
 17 14  1  0  0  0  0
 18 24  1  0  0  0  0
 19 23  2  0  0  0  0
 21 25  1  0  0  0  0
 22 23  1  6  0  0  0
 22 24  1  0  0  0  0
 22 15  1  0  0  0  0
 24 27  1  1  0  0  0
 25 20  1  6  0  0  0
 25 23  1  0  0  0  0
 25 18  1  0  0  0  0
 27 26  1  0  0  0  0
 28 27  1  0  0  0  0
 29  2  1  0  0  0  0
 29 30  1  1  0  0  0
 31 47  1  6  0  0  0
 31 29  1  0  0  0  0
 33 31  1  1  0  0  0
 33 32  1  0  0  0  0
 34 32  1  0  0  0  0
 34 38  1  1  0  0  0
 35 33  1  0  0  0  0
 36 34  1  0  0  0  0
 37 46  1  6  0  0  0
 37 36  1  0  0  0  0
 37 35  1  0  0  0  0
 38 39  1  6  0  0  0
 40 38  1  1  0  0  0
 40 41  1  0  0  0  0
 42 44  1  6  0  0  0
 42 40  1  0  0  0  0
 42 41  1  0  0  0  0
 43 44  1  0  0  0  0
 45 46  1  0  0  0  0
 48 49  1  6  0  0  0
 48 47  1  0  0  0  0
 51 52  1  0  0  0  0
 52 50  1  0  0  0  0
 52 48  1  0  0  0  0
M  END
>  <MODEL>
3

>  <REMARK>
 VINA RESULT:      -6.7      2.323      5.880
  Name = 
  13 active torsions:
  status: ('A' for Active; 'I' for Inactive)
    1  A    between atoms: C_1  and  C_14
    2  A    between atoms: C_1  and  C_30
    3  A    between atoms: O_7  and  C_12
    4  A    between atoms: O_7  and  C_16
    5  A    between atoms: C_12  and  C_27
    6  A    between atoms: C_12  and  C_28
    7  A    between atoms: C_13  and  C_27
    8  A    between atoms: C_16  and  C_45
    9  A    between atoms: C_17  and  C_19
   10  A    between atoms: C_18  and  C_32
   11  A    between atoms: C_20  and  C_40
   12  A    between atoms: C_37  and  C_52
   13  A    between atoms: C_44  and  O_50
                            x       y       z     vdW  Elec       q    Type
                         _______ _______ _______ _____ _____    ______ ____

>  <TORSDO>
F 13

$$$$
=
 OpenBabel11062421393D

 52 57  0  0  1  0  0  0  0  0999 V2000
  191.0580  177.9440  144.3640 O   0  0  0  0  0  0  0  0  0  0  0  0
  190.7590  176.1230  146.2880 C   0  0  2  0  0  0  0  0  0  0  0  0
  192.0140  175.7940  145.6570 C   0  0  2  0  0  3  0  0  0  0  0  0
  191.2140  177.0080  145.1300 C   0  0  0  0  0  0  0  0  0  0  0  0
  190.8900  176.7720  147.5150 O   0  0  0  0  0  1  0  0  0  0  0  0
  192.6650  171.0660  143.4450 O   0  0  0  0  0  1  0  0  0  0  0  0
  194.9210  171.6830  143.8400 C   0  0  0  0  0  2  0  0  0  0  0  0
  195.7570  172.7910  143.6370 O   0  0  0  0  0  0  0  0  0  0  0  0
  191.9490  174.6280  144.6730 C   0  0  2  0  0  3  0  0  0  0  0  0
  193.0960  172.4460  145.3370 C   0  0  0  0  0  2  0  0  0  0  0  0
  193.8740  172.6630  140.7340 O   0  0  0  0  0  1  0  0  0  0  0  0
  193.4570  172.1280  143.8790 C   0  0  2  0  0  0  0  0  0  0  0  0
  191.8280  173.2970  145.4340 C   0  0  0  0  0  2  0  0  0  0  0  0
  193.2180  173.3450  142.9360 C   0  0  1  0  0  3  0  0  0  0  0  0
  195.6870  173.0940  142.2630 C   0  0  1  0  0  3  0  0  0  0  0  0
  193.1290  174.6630  143.7000 C   0  0  0  0  0  2  0  0  0  0  0  0
  194.2520  173.4670  141.8130 C   0  0  1  0  0  3  0  0  0  0  0  0
  196.3800  176.4420  140.9370 C   0  0  0  0  0  2  0  0  0  0  0  0
  197.7090  173.1950  139.8790 C   0  0  0  0  0  2  0  0  0  0  0  0
  197.9300  175.9930  139.1890 F   0  0  0  0  0  0  0  0  0  0  0  0
  195.7570  175.3700  138.8920 O   0  0  0  0  0  1  0  0  0  0  0  0
  196.7070  174.1920  141.9220 C   0  0  1  0  0  3  0  0  0  0  0  0
  197.0650  174.2010  140.4760 C   0  0  0  0  0  0  0  0  0  0  0  0
  196.1270  175.5810  142.1790 C   0  0  1  0  0  3  0  0  0  0  0  0
  196.7970  175.5040  139.8130 C   0  0  2  0  0  0  0  0  0  0  0  0
  195.6740  176.6850  144.2550 O   0  0  0  0  0  1  0  0  0  0  0  0
  196.7050  176.2010  143.4470 C   0  0  0  0  0  3  0  0  0  0  0  0
  197.5880  177.2400  143.1410 O   0  0  0  0  0  1  0  0  0  0  0  0
  189.4390  175.3570  146.0590 C   0  0  1  0  0  3  0  0  0  0  0  0
  188.9620  174.7690  147.2370 O   0  0  0  0  0  1  0  0  0  0  0  0
  188.3780  176.2790  145.4270 C   0  0  2  0  0  3  0  0  0  0  0  0
  187.6920  177.5790  143.3180 C   0  0  0  0  0  2  0  0  0  0  0  0
  188.3090  176.2980  143.8890 C   0  0  2  0  0  3  0  0  0  0  0  0
  187.5170  177.4940  141.7910 C   0  0  1  0  0  3  0  0  0  0  0  0
  187.6310  175.1620  143.4050 O   0  0  0  0  0  0  0  0  0  0  0  0
  188.2320  176.2680  141.2060 C   0  0  0  0  0  2  0  0  0  0  0  0
  187.9020  174.9930  142.0170 C   0  0  1  0  0  3  0  0  0  0  0  0
  186.0370  177.5280  141.4050 C   0  0  2  0  0  3  0  0  0  0  0  0
  185.9070  177.8390  140.0500 O   0  0  0  0  0  1  0  0  0  0  0  0
  185.2990  178.5760  142.2280 C   0  0  1  0  0  3  0  0  0  0  0  0
  183.7960  178.3890  142.1060 C   0  0  0  0  0  2  0  0  0  0  0  0
  184.5220  177.8810  143.3320 C   0  0  2  0  0  3  0  0  0  0  0  0
  185.1640  180.0880  144.2620 C   0  0  0  0  0  1  0  0  0  0  0  0
  184.3160  178.8480  144.4780 C   0  0  0  0  0  2  0  0  0  0  0  0
  188.0090  172.7620  141.5600 C   0  0  0  0  0  1  0  0  0  0  0  0
  188.7770  173.9180  141.7610 O   0  0  0  0  0  0  0  0  0  0  0  0
  188.2740  177.5470  146.0430 O   0  0  0  0  0  0  0  0  0  0  0  0
  186.9370  177.7740  146.4090 C   0  0  1  0  0  3  0  0  0  0  0  0
  186.1720  176.4600  146.3670 C   0  0  0  0  0  1  0  0  0  0  0  0
  188.1400  178.8090  148.2160 O   0  0  0  0  0  1  0  0  0  0  0  0
  186.0070  179.5130  147.7960 O   0  0  0  0  0  1  0  0  0  0  0  0
  186.8680  178.4130  147.7960 C   0  0  0  0  0  3  0  0  0  0  0  0
  1  4  2  0  0  0  0
  2  5  1  1  0  0  0
  3  4  1  6  0  0  0
  3  2  1  0  0  0  0
  4  2  1  0  0  0  0
  7 12  1  0  0  0  0
  8  7  1  0  0  0  0
  9 16  1  1  0  0  0
  9 13  1  0  0  0  0
  9  3  1  0  0  0  0
 10 13  1  0  0  0  0
 12  6  1  6  0  0  0
 12 10  1  0  0  0  0
 14 16  1  1  0  0  0
 14 12  1  0  0  0  0
 15  8  1  1  0  0  0
 17 11  1  6  0  0  0
 17 15  1  0  0  0  0
 17 14  1  0  0  0  0
 18 24  1  0  0  0  0
 19 23  2  0  0  0  0
 20 25  1  0  0  0  0
 22 23  1  6  0  0  0
 22 24  1  0  0  0  0
 22 15  1  0  0  0  0
 24 27  1  1  0  0  0
 25 21  1  6  0  0  0
 25 23  1  0  0  0  0
 25 18  1  0  0  0  0
 27 26  1  0  0  0  0
 28 27  1  0  0  0  0
 29  2  1  0  0  0  0
 29 30  1  1  0  0  0
 31 47  1  6  0  0  0
 31 29  1  0  0  0  0
 32 33  1  0  0  0  0
 33 31  1  1  0  0  0
 34 38  1  1  0  0  0
 34 32  1  0  0  0  0
 35 33  1  0  0  0  0
 36 34  1  0  0  0  0
 36 37  1  0  0  0  0
 37 46  1  1  0  0  0
 37 35  1  0  0  0  0
 38 39  1  6  0  0  0
 40 38  1  6  0  0  0
 40 42  1  0  0  0  0
 41 40  1  0  0  0  0
 41 42  1  0  0  0  0
 42 44  1  1  0  0  0
 43 44  1  0  0  0  0
 45 46  1  0  0  0  0
 47 48  1  0  0  0  0
 48 49  1  1  0  0  0
 48 52  1  0  0  0  0
 51 52  1  0  0  0  0
 52 50  1  0  0  0  0
M  END
>  <MODEL>
4

>  <REMARK>
 VINA RESULT:      -6.7      2.310      5.923
  Name = 
  13 active torsions:
  status: ('A' for Active; 'I' for Inactive)
    1  A    between atoms: C_1  and  C_14
    2  A    between atoms: C_1  and  C_30
    3  A    between atoms: O_7  and  C_12
    4  A    between atoms: O_7  and  C_16
    5  A    between atoms: C_12  and  C_27
    6  A    between atoms: C_12  and  C_28
    7  A    between atoms: C_13  and  C_27
    8  A    between atoms: C_16  and  C_45
    9  A    between atoms: C_17  and  C_19
   10  A    between atoms: C_18  and  C_32
   11  A    between atoms: C_20  and  C_40
   12  A    between atoms: C_37  and  C_52
   13  A    between atoms: C_44  and  O_50
                            x       y       z     vdW  Elec       q    Type
                         _______ _______ _______ _____ _____    ______ ____

>  <TORSDO>
F 13

$$$$
=
 OpenBabel11062421393D

 52 57  0  0  1  0  0  0  0  0999 V2000
  189.4900  173.9190  144.1000 O   0  0  0  0  0  0  0  0  0  0  0  0
  187.7620  175.0050  142.3860 C   0  0  2  0  0  0  0  0  0  0  0  0
  188.3710  173.9170  141.6600 C   0  0  2  0  0  3  0  0  0  0  0  0
  188.8110  174.1740  143.1200 C   0  0  0  0  0  0  0  0  0  0  0  0
  186.4740  174.7330  142.8470 O   0  0  0  0  0  1  0  0  0  0  0  0
  191.6380  173.9950  137.5370 O   0  0  0  0  0  1  0  0  0  0  0  0
  192.1240  171.8580  138.4450 C   0  0  0  0  0  2  0  0  0  0  0  0
  192.4150  171.2900  139.6960 O   0  0  0  0  0  0  0  0  0  0  0  0
  189.4630  174.3360  140.6780 C   0  0  2  0  0  3  0  0  0  0  0  0
  189.8600  172.8550  138.6370 C   0  0  0  0  0  2  0  0  0  0  0  0
  194.1750  174.2710  139.7400 O   0  0  0  0  0  1  0  0  0  0  0  0
  191.3620  173.1730  138.6300 C   0  0  2  0  0  0  0  0  0  0  0  0
  189.0410  173.9990  139.2380 C   0  0  0  0  0  2  0  0  0  0  0  0
  191.8140  173.9030  139.9290 C   0  0  1  0  0  3  0  0  0  0  0  0
  193.5190  172.0000  140.2060 C   0  0  1  0  0  3  0  0  0  0  0  0
  190.8140  173.7330  141.0690 C   0  0  0  0  0  2  0  0  0  0  0  0
  193.2140  173.5050  140.4050 C   0  0  1  0  0  3  0  0  0  0  0  0
  193.7800  172.0320  143.8630 C   0  0  0  0  0  2  0  0  0  0  0  0
  196.4320  171.8710  141.3400 C   0  0  0  0  0  2  0  0  0  0  0  0
  196.1300  171.9230  144.2140 F   0  0  0  0  0  0  0  0  0  0  0  0
  195.2510  173.8560  143.3840 O   0  0  0  0  0  1  0  0  0  0  0  0
  194.0120  171.3300  141.4990 C   0  0  1  0  0  3  0  0  0  0  0  0
  195.2750  171.9380  142.0030 C   0  0  0  0  0  0  0  0  0  0  0  0
  193.0130  171.5280  142.6370 C   0  0  1  0  0  3  0  0  0  0  0  0
  195.1610  172.4630  143.3890 C   0  0  2  0  0  0  0  0  0  0  0  0
  192.8920  169.1520  142.3700 O   0  0  0  0  0  1  0  0  0  0  0  0
  192.2300  170.2500  142.9210 C   0  0  0  0  0  3  0  0  0  0  0  0
  190.9360  170.3280  142.4000 O   0  0  0  0  0  1  0  0  0  0  0  0
  188.1140  176.4940  142.1860 C   0  0  1  0  0  3  0  0  0  0  0  0
  187.8890  176.9150  140.8690 O   0  0  0  0  0  1  0  0  0  0  0  0
  187.3460  177.3740  143.1910 C   0  0  2  0  0  3  0  0  0  0  0  0
  189.4310  177.3410  144.6960 C   0  0  0  0  0  2  0  0  0  0  0  0
  187.9020  177.4280  144.6250 C   0  0  2  0  0  3  0  0  0  0  0  0
  189.9290  177.2600  146.1490 C   0  0  1  0  0  3  0  0  0  0  0  0
  187.3110  176.4330  145.4280 O   0  0  0  0  0  0  0  0  0  0  0  0
  188.8020  177.5410  147.1520 C   0  0  0  0  0  2  0  0  0  0  0  0
  187.5320  176.7280  146.8040 C   0  0  1  0  0  3  0  0  0  0  0  0
  190.6100  175.9170  146.4220 C   0  0  2  0  0  3  0  0  0  0  0  0
  190.1430  175.3830  147.6240 O   0  0  0  0  0  1  0  0  0  0  0  0
  192.1200  176.0990  146.5140 C   0  0  1  0  0  3  0  0  0  0  0  0
  192.8380  174.8410  146.0550 C   0  0  0  0  0  2  0  0  0  0  0  0
  192.7140  176.0230  145.1180 C   0  0  2  0  0  3  0  0  0  0  0  0
  194.4310  177.1480  146.5090 C   0  0  0  0  0  1  0  0  0  0  0  0
  194.0200  176.7870  145.0930 C   0  0  0  0  0  2  0  0  0  0  0  0
  186.5770  178.5200  147.8390 C   0  0  0  0  0  1  0  0  0  0  0  0
  186.3700  177.1880  147.4540 O   0  0  0  0  0  0  0  0  0  0  0  0
  185.9390  177.2600  143.1020 O   0  0  0  0  0  0  0  0  0  0  0  0
  185.3980  178.5000  142.7220 C   0  0  1  0  0  3  0  0  0  0  0  0
  184.4070  178.2910  141.5870 C   0  0  0  0  0  1  0  0  0  0  0  0
  184.4250  178.2380  144.9050 O   0  0  0  0  0  1  0  0  0  0  0  0
  185.5660  180.1660  144.4560 O   0  0  0  0  0  1  0  0  0  0  0  0
  184.7360  179.1780  143.9210 C   0  0  0  0  0  3  0  0  0  0  0  0
  2  5  1  1  0  0  0
  2  4  1  0  0  0  0
  3  2  1  0  0  0  0
  3  4  1  1  0  0  0
  4  1  2  0  0  0  0
  7 12  1  0  0  0  0
  7  8  1  0  0  0  0
  9 13  1  6  0  0  0
  9 16  1  0  0  0  0
  9  3  1  0  0  0  0
 10 13  1  0  0  0  0
 12  6  1  6  0  0  0
 12 10  1  0  0  0  0
 12 14  1  0  0  0  0
 14 17  1  0  0  0  0
 14 16  1  1  0  0  0
 15  8  1  1  0  0  0
 15 17  1  0  0  0  0
 15 22  1  0  0  0  0
 17 11  1  6  0  0  0
 19 23  2  0  0  0  0
 22 23  1  1  0  0  0
 22 24  1  0  0  0  0
 23 25  1  0  0  0  0
 24 27  1  1  0  0  0
 24 18  1  0  0  0  0
 25 21  1  6  0  0  0
 25 18  1  0  0  0  0
 25 20  1  0  0  0  0
 26 27  1  0  0  0  0
 28 27  1  0  0  0  0
 29 30  1  6  0  0  0
 29  2  1  0  0  0  0
 29 31  1  0  0  0  0
 31 47  1  1  0  0  0
 32 34  1  0  0  0  0
 33 31  1  6  0  0  0
 33 32  1  0  0  0  0
 33 35  1  0  0  0  0
 34 38  1  1  0  0  0
 34 36  1  0  0  0  0
 35 37  1  0  0  0  0
 37 36  1  0  0  0  0
 37 46  1  6  0  0  0
 38 39  1  1  0  0  0
 40 38  1  6  0  0  0
 41 40  1  0  0  0  0
 42 44  1  1  0  0  0
 42 41  1  0  0  0  0
 42 40  1  0  0  0  0
 44 43  1  0  0  0  0
 46 45  1  0  0  0  0
 48 49  1  6  0  0  0
 48 47  1  0  0  0  0
 48 52  1  0  0  0  0
 52 51  1  0  0  0  0
 52 50  1  0  0  0  0
M  END
>  <MODEL>
5

>  <REMARK>
 VINA RESULT:      -6.6      1.409      1.997
  Name = 
  13 active torsions:
  status: ('A' for Active; 'I' for Inactive)
    1  A    between atoms: C_1  and  C_14
    2  A    between atoms: C_1  and  C_30
    3  A    between atoms: O_7  and  C_12
    4  A    between atoms: O_7  and  C_16
    5  A    between atoms: C_12  and  C_27
    6  A    between atoms: C_12  and  C_28
    7  A    between atoms: C_13  and  C_27
    8  A    between atoms: C_16  and  C_45
    9  A    between atoms: C_17  and  C_19
   10  A    between atoms: C_18  and  C_32
   11  A    between atoms: C_20  and  C_40
   12  A    between atoms: C_37  and  C_52
   13  A    between atoms: C_44  and  O_50
                            x       y       z     vdW  Elec       q    Type
                         _______ _______ _______ _____ _____    ______ ____

>  <TORSDO>
F 13

$$$$
=
 OpenBabel11062421393D

 52 57  0  0  1  0  0  0  0  0999 V2000
  190.0590  172.5040  144.6860 O   0  0  0  0  0  0  0  0  0  0  0  0
  189.1010  173.4200  142.3730 C   0  0  2  0  0  0  0  0  0  0  0  0
  190.1010  172.4480  142.0020 C   0  0  2  0  0  3  0  0  0  0  0  0
  189.8370  172.7060  143.5040 C   0  0  0  0  0  0  0  0  0  0  0  0
  187.7890  172.9660  142.2440 O   0  0  0  0  0  1  0  0  0  0  0  0
  194.6320  173.2670  139.4570 O   0  0  0  0  0  1  0  0  0  0  0  0
  194.9130  171.0140  140.1450 C   0  0  0  0  0  2  0  0  0  0  0  0
  194.7690  170.2470  141.3120 O   0  0  0  0  0  0  0  0  0  0  0  0
  191.4410  173.0420  141.5740 C   0  0  2  0  0  3  0  0  0  0  0  0
  192.6670  171.9330  139.6290 C   0  0  0  0  0  2  0  0  0  0  0  0
  196.1600  173.2030  142.4600 O   0  0  0  0  0  1  0  0  0  0  0  0
  194.0390  172.2680  140.2300 C   0  0  2  0  0  0  0  0  0  0  0  0
  191.6010  172.9470  140.0470 C   0  0  0  0  0  2  0  0  0  0  0  0
  193.9290  172.7750  141.6990 C   0  0  1  0  0  3  0  0  0  0  0  0
  195.5540  170.8760  142.2980 C   0  0  1  0  0  3  0  0  0  0  0  0
  192.5980  172.4010  142.3440 C   0  0  0  0  0  2  0  0  0  0  0  0
  195.0840  172.3220  142.5950 C   0  0  1  0  0  3  0  0  0  0  0  0
  194.6080  170.3850  145.8070 C   0  0  0  0  0  2  0  0  0  0  0  0
  197.9360  170.4140  144.2730 C   0  0  0  0  0  2  0  0  0  0  0  0
  196.7140  170.0840  146.8720 F   0  0  0  0  0  0  0  0  0  0  0  0
  196.1780  172.1640  146.1060 O   0  0  0  0  0  1  0  0  0  0  0  0
  195.5900  170.0050  143.5650 C   0  0  1  0  0  3  0  0  0  0  0  0
  196.6270  170.4590  144.5330 C   0  0  0  0  0  0  0  0  0  0  0  0
  194.2770  170.1030  144.3380 C   0  0  1  0  0  3  0  0  0  0  0  0
  196.0740  170.7920  145.8710 C   0  0  2  0  0  0  0  0  0  0  0  0
  192.3750  169.1050  143.2800 O   0  0  0  0  0  1  0  0  0  0  0  0
  193.4280  168.8490  144.1600 C   0  0  0  0  0  3  0  0  0  0  0  0
  192.9210  168.4080  145.3840 O   0  0  0  0  0  1  0  0  0  0  0  0
  189.3030  174.9490  142.3100 C   0  0  1  0  0  3  0  0  0  0  0  0
  188.7850  175.5000  141.1320 O   0  0  0  0  0  1  0  0  0  0  0  0
  188.7000  175.6280  143.5560 C   0  0  2  0  0  3  0  0  0  0  0  0
  187.4260  177.6390  144.5260 C   0  0  0  0  0  2  0  0  0  0  0  0
  187.6770  176.7500  143.3030 C   0  0  2  0  0  3  0  0  0  0  0  0
  186.3000  178.6550  144.2680 C   0  0  1  0  0  3  0  0  0  0  0  0
  186.4650  176.2210  142.8160 O   0  0  0  0  0  0  0  0  0  0  0  0
  185.8950  178.6900  142.7870 C   0  0  0  0  0  2  0  0  0  0  0  0
  185.6840  177.2600  142.2350 C   0  0  1  0  0  3  0  0  0  0  0  0
  185.0990  178.3880  145.1780 C   0  0  2  0  0  3  0  0  0  0  0  0
  183.9290  178.8430  144.5680 O   0  0  0  0  0  1  0  0  0  0  0  0
  185.2750  179.1060  146.5100 C   0  0  1  0  0  3  0  0  0  0  0  0
  184.7560  178.2480  147.6520 C   0  0  0  0  0  2  0  0  0  0  0  0
  186.2420  178.3160  147.3750 C   0  0  2  0  0  3  0  0  0  0  0  0
  188.3680  178.9000  148.5090 C   0  0  0  0  0  1  0  0  0  0  0  0
  186.8990  179.2520  148.3660 C   0  0  0  0  0  2  0  0  0  0  0  0
  185.1510  178.4100  140.3400 C   0  0  0  0  0  1  0  0  0  0  0  0
  185.6570  177.1970  140.8270 O   0  0  0  0  0  0  0  0  0  0  0  0
  189.6380  175.8970  144.5790 O   0  0  0  0  0  0  0  0  0  0  0  0
  190.8610  176.2720  143.9980 C   0  0  1  0  0  3  0  0  0  0  0  0
  191.0770  177.7650  144.1990 C   0  0  0  0  0  1  0  0  0  0  0  0
  193.2140  176.1460  144.4720 O   0  0  0  0  0  1  0  0  0  0  0  0
  191.7620  175.1750  145.9450 O   0  0  0  0  0  1  0  0  0  0  0  0
  192.0060  175.4580  144.5990 C   0  0  0  0  0  3  0  0  0  0  0  0
  2  5  1  6  0  0  0
  2  4  1  0  0  0  0
  3  2  1  0  0  0  0
  3  4  1  1  0  0  0
  4  1  2  0  0  0  0
  7 12  1  0  0  0  0
  7  8  1  0  0  0  0
  9 13  1  6  0  0  0
  9  3  1  0  0  0  0
  9 16  1  0  0  0  0
 10 13  1  0  0  0  0
 10 12  1  0  0  0  0
 12  6  1  6  0  0  0
 12 14  1  0  0  0  0
 14 16  1  1  0  0  0
 14 17  1  0  0  0  0
 15  8  1  6  0  0  0
 15 17  1  0  0  0  0
 15 22  1  0  0  0  0
 17 11  1  6  0  0  0
 18 25  1  0  0  0  0
 19 23  2  0  0  0  0
 22 24  1  0  0  0  0
 22 23  1  1  0  0  0
 23 25  1  0  0  0  0
 24 27  1  1  0  0  0
 24 18  1  0  0  0  0
 25 21  1  1  0  0  0
 25 20  1  0  0  0  0
 26 27  1  0  0  0  0
 27 28  1  0  0  0  0
 29 30  1  6  0  0  0
 29  2  1  0  0  0  0
 29 31  1  0  0  0  0
 31 47  1  6  0  0  0
 33 31  1  1  0  0  0
 33 32  1  0  0  0  0
 34 32  1  0  0  0  0
 34 38  1  1  0  0  0
 35 33  1  0  0  0  0
 36 34  1  0  0  0  0
 37 46  1  6  0  0  0
 37 36  1  0  0  0  0
 37 35  1  0  0  0  0
 38 39  1  6  0  0  0
 40 38  1  6  0  0  0
 40 42  1  0  0  0  0
 40 41  1  0  0  0  0
 42 41  1  0  0  0  0
 42 44  1  1  0  0  0
 44 43  1  0  0  0  0
 45 46  1  0  0  0  0
 48 49  1  1  0  0  0
 48 47  1  0  0  0  0
 48 52  1  0  0  0  0
 50 52  1  0  0  0  0
 52 51  1  0  0  0  0
M  END
>  <MODEL>
6

>  <REMARK>
 VINA RESULT:      -6.6      1.618      4.267
  Name = 
  13 active torsions:
  status: ('A' for Active; 'I' for Inactive)
    1  A    between atoms: C_1  and  C_14
    2  A    between atoms: C_1  and  C_30
    3  A    between atoms: O_7  and  C_12
    4  A    between atoms: O_7  and  C_16
    5  A    between atoms: C_12  and  C_27
    6  A    between atoms: C_12  and  C_28
    7  A    between atoms: C_13  and  C_27
    8  A    between atoms: C_16  and  C_45
    9  A    between atoms: C_17  and  C_19
   10  A    between atoms: C_18  and  C_32
   11  A    between atoms: C_20  and  C_40
   12  A    between atoms: C_37  and  C_52
   13  A    between atoms: C_44  and  O_50
                            x       y       z     vdW  Elec       q    Type
                         _______ _______ _______ _____ _____    ______ ____

>  <TORSDO>
F 13

$$$$
=
 OpenBabel11062421393D

 52 57  0  0  1  0  0  0  0  0999 V2000
  189.1040  173.6300  139.6560 O   0  0  0  0  0  0  0  0  0  0  0  0
  190.8480  172.0500  140.9100 C   0  0  2  0  0  0  0  0  0  0  0  0
  190.0290  172.6060  141.9600 C   0  0  2  0  0  3  0  0  0  0  0  0
  189.7340  173.0090  140.4960 C   0  0  0  0  0  0  0  0  0  0  0  0
  190.5390  170.7290  140.5840 O   0  0  0  0  0  1  0  0  0  0  0  0
  191.7670  175.6750  145.8630 O   0  0  0  0  0  1  0  0  0  0  0  0
  189.4770  175.4690  146.4490 C   0  0  0  0  0  2  0  0  0  0  0  0
  188.2210  175.5810  145.8310 O   0  0  0  0  0  0  0  0  0  0  0  0
  190.6700  173.7620  142.7250 C   0  0  2  0  0  3  0  0  0  0  0  0
  190.6750  173.6420  145.2750 C   0  0  0  0  0  2  0  0  0  0  0  0
  190.0270  178.1970  144.4580 O   0  0  0  0  0  1  0  0  0  0  0  0
  190.5520  175.1670  145.4020 C   0  0  2  0  0  0  0  0  0  0  0  0
  191.3840  173.2360  143.9810 C   0  0  0  0  0  2  0  0  0  0  0  0
  190.2140  175.8450  144.0410 C   0  0  1  0  0  3  0  0  0  0  0  0
  188.1820  176.8600  145.2430 C   0  0  1  0  0  3  0  0  0  0  0  0
  189.6450  174.8570  143.0270 C   0  0  0  0  0  2  0  0  0  0  0  0
  189.2810  177.0510  144.1680 C   0  0  1  0  0  3  0  0  0  0  0  0
  185.6560  179.2680  144.1160 C   0  0  0  0  0  2  0  0  0  0  0  0
  185.4420  176.7260  146.7470 C   0  0  0  0  0  2  0  0  0  0  0  0
  183.8070  178.7760  145.5310 F   0  0  0  0  0  0  0  0  0  0  0  0
  185.6310  179.7900  146.4500 O   0  0  0  0  0  1  0  0  0  0  0  0
  186.7730  177.1320  144.6900 C   0  0  1  0  0  3  0  0  0  0  0  0
  185.8160  177.5390  145.7560 C   0  0  0  0  0  0  0  0  0  0  0  0
  186.7820  178.3100  143.7170 C   0  0  1  0  0  3  0  0  0  0  0  0
  185.1870  178.8620  145.5070 C   0  0  2  0  0  0  0  0  0  0  0  0
  185.6470  178.5390  141.6210 O   0  0  0  0  0  1  0  0  0  0  0  0
  186.6660  177.8400  142.2710 C   0  0  0  0  0  3  0  0  0  0  0  0
  186.4080  176.4680  142.2080 O   0  0  0  0  0  1  0  0  0  0  0  0
  192.2820  172.5160  140.5800 C   0  0  1  0  0  3  0  0  0  0  0  0
  193.2280  171.9610  141.4510 O   0  0  0  0  0  1  0  0  0  0  0  0
  192.6290  172.2090  139.1100 C   0  0  2  0  0  3  0  0  0  0  0  0
  194.9890  173.2010  138.8740 C   0  0  0  0  0  2  0  0  0  0  0  0
  193.5350  173.2230  138.3890 C   0  0  2  0  0  3  0  0  0  0  0  0
  195.8210  174.3210  138.2260 C   0  0  1  0  0  3  0  0  0  0  0  0
  193.0010  174.5230  138.4800 O   0  0  0  0  0  0  0  0  0  0  0  0
  195.0590  175.0050  137.0820 C   0  0  0  0  0  2  0  0  0  0  0  0
  193.6180  175.3670  137.5130 C   0  0  1  0  0  3  0  0  0  0  0  0
  196.2960  175.3300  139.2740 C   0  0  2  0  0  3  0  0  0  0  0  0
  197.6830  175.2500  139.4160 O   0  0  0  0  0  1  0  0  0  0  0  0
  195.6420  175.0420  140.6200 C   0  0  1  0  0  3  0  0  0  0  0  0
  196.0570  176.0820  141.6480 C   0  0  0  0  0  2  0  0  0  0  0  0
  194.7070  176.1860  140.9710 C   0  0  2  0  0  3  0  0  0  0  0  0
  194.2080  175.4940  143.2980 C   0  0  0  0  0  1  0  0  0  0  0  0
  193.6320  175.6780  141.9060 C   0  0  0  0  0  2  0  0  0  0  0  0
  193.2130  176.8560  135.8340 C   0  0  0  0  0  1  0  0  0  0  0  0
  192.7650  175.6700  136.4330 O   0  0  0  0  0  0  0  0  0  0  0  0
  191.5370  171.7370  138.3460 O   0  0  0  0  0  0  0  0  0  0  0  0
  192.0110  170.8720  137.3460 C   0  0  1  0  0  3  0  0  0  0  0  0
  192.7120  169.6880  137.9960 C   0  0  0  0  0  1  0  0  0  0  0  0
  191.2690  169.3590  135.6320 O   0  0  0  0  0  1  0  0  0  0  0  0
  189.7600  170.0220  137.2150 O   0  0  0  0  0  1  0  0  0  0  0  0
  190.8610  170.4150  136.4500 C   0  0  0  0  0  3  0  0  0  0  0  0
  1  4  2  0  0  0  0
  2  5  1  6  0  0  0
  2  3  1  0  0  0  0
  3  4  1  6  0  0  0
  3  9  1  0  0  0  0
  4  2  1  0  0  0  0
  8  7  1  0  0  0  0
  9 16  1  1  0  0  0
  9 13  1  0  0  0  0
 10 12  1  0  0  0  0
 12  6  1  1  0  0  0
 12  7  1  0  0  0  0
 13 10  1  0  0  0  0
 14 16  1  6  0  0  0
 14 17  1  0  0  0  0
 14 12  1  0  0  0  0
 15  8  1  6  0  0  0
 17 11  1  1  0  0  0
 17 15  1  0  0  0  0
 18 25  1  0  0  0  0
 22 15  1  0  0  0  0
 22 23  1  1  0  0  0
 23 19  2  0  0  0  0
 24 27  1  6  0  0  0
 24 18  1  0  0  0  0
 24 22  1  0  0  0  0
 25 20  1  1  0  0  0
 25 23  1  0  0  0  0
 25 21  1  0  0  0  0
 26 27  1  0  0  0  0
 28 27  1  0  0  0  0
 29  2  1  0  0  0  0
 29 30  1  1  0  0  0
 31 47  1  6  0  0  0
 31 29  1  0  0  0  0
 33 35  1  0  0  0  0
 33 32  1  0  0  0  0
 33 31  1  1  0  0  0
 34 32  1  0  0  0  0
 34 38  1  1  0  0  0
 36 37  1  0  0  0  0
 36 34  1  0  0  0  0
 37 46  1  6  0  0  0
 37 35  1  0  0  0  0
 38 39  1  1  0  0  0
 40 38  1  6  0  0  0
 40 42  1  0  0  0  0
 40 41  1  0  0  0  0
 42 41  1  0  0  0  0
 42 44  1  1  0  0  0
 44 43  1  0  0  0  0
 45 46  1  0  0  0  0
 48 49  1  1  0  0  0
 48 47  1  0  0  0  0
 50 52  1  0  0  0  0
 52 51  1  0  0  0  0
 52 48  1  0  0  0  0
M  END
>  <MODEL>
7

>  <REMARK>
 VINA RESULT:      -6.6      3.433      9.071
  Name = 
  13 active torsions:
  status: ('A' for Active; 'I' for Inactive)
    1  A    between atoms: C_1  and  C_14
    2  A    between atoms: C_1  and  C_30
    3  A    between atoms: O_7  and  C_12
    4  A    between atoms: O_7  and  C_16
    5  A    between atoms: C_12  and  C_27
    6  A    between atoms: C_12  and  C_28
    7  A    between atoms: C_13  and  C_27
    8  A    between atoms: C_16  and  C_45
    9  A    between atoms: C_17  and  C_19
   10  A    between atoms: C_18  and  C_32
   11  A    between atoms: C_20  and  C_40
   12  A    between atoms: C_37  and  C_52
   13  A    between atoms: C_44  and  O_50
                            x       y       z     vdW  Elec       q    Type
                         _______ _______ _______ _____ _____    ______ ____

>  <TORSDO>
F 13

$$$$
=
 OpenBabel11062421393D

 52 57  0  0  1  0  0  0  0  0999 V2000
  191.0830  177.7090  142.9000 O   0  0  0  0  0  0  0  0  0  0  0  0
  190.3470  176.4570  145.1360 C   0  0  2  0  0  0  0  0  0  0  0  0
  191.7260  176.0810  144.9360 C   0  0  2  0  0  3  0  0  0  0  0  0
  191.0600  177.0320  143.9150 C   0  0  0  0  0  0  0  0  0  0  0  0
  190.1570  177.4230  146.1240 O   0  0  0  0  0  1  0  0  0  0  0  0
  193.3380  171.1260  144.2110 O   0  0  0  0  0  1  0  0  0  0  0  0
  195.4210  172.2410  144.4260 C   0  0  0  0  0  2  0  0  0  0  0  0
  196.0590  173.3810  143.9130 O   0  0  0  0  0  0  0  0  0  0  0  0
  191.9280  174.6910  144.3370 C   0  0  2  0  0  3  0  0  0  0  0  0
  193.4000  173.0460  145.6190 C   0  0  0  0  0  2  0  0  0  0  0  0
  194.4110  172.0770  141.1610 O   0  0  0  0  0  1  0  0  0  0  0  0
  193.9010  172.3970  144.3210 C   0  0  2  0  0  0  0  0  0  0  0  0
  191.9980  173.6360  145.4530 C   0  0  0  0  0  2  0  0  0  0  0  0
  193.5100  173.2260  143.0610 C   0  0  1  0  0  3  0  0  0  0  0  0
  196.0210  173.2590  142.5100 C   0  0  1  0  0  3  0  0  0  0  0  0
  193.1420  174.6660  143.4050 C   0  0  0  0  0  2  0  0  0  0  0  0
  194.5730  173.2120  141.9600 C   0  0  1  0  0  3  0  0  0  0  0  0
  196.1540  176.2740  140.4260 C   0  0  0  0  0  2  0  0  0  0  0  0
  197.9410  173.0970  140.0460 C   0  0  0  0  0  2  0  0  0  0  0  0
  197.7100  175.6620  138.7330 F   0  0  0  0  0  0  0  0  0  0  0  0
  195.6520  174.6790  138.7160 O   0  0  0  0  0  1  0  0  0  0  0  0
  196.8500  174.3840  141.8700 C   0  0  1  0  0  3  0  0  0  0  0  0
  197.1650  174.1100  140.4400 C   0  0  0  0  0  0  0  0  0  0  0  0
  196.0690  175.6960  141.8430 C   0  0  1  0  0  3  0  0  0  0  0  0
  196.6820  175.1710  139.5190 C   0  0  2  0  0  0  0  0  0  0  0  0
  197.9320  176.4460  143.1470 O   0  0  0  0  0  1  0  0  0  0  0  0
  196.5760  176.6700  142.9020 C   0  0  0  0  0  3  0  0  0  0  0  0
  195.8560  176.5360  144.0920 O   0  0  0  0  0  1  0  0  0  0  0  0
  189.1400  175.5450  144.8320 C   0  0  1  0  0  3  0  0  0  0  0  0
  188.0960  175.7330  145.7460 O   0  0  0  0  0  1  0  0  0  0  0  0
  188.6560  175.7490  143.3830 C   0  0  2  0  0  3  0  0  0  0  0  0
  187.4550  177.7960  144.3710 C   0  0  0  0  0  2  0  0  0  0  0  0
  187.6730  176.9080  143.1410 C   0  0  2  0  0  3  0  0  0  0  0  0
  186.3640  178.8530  144.1230 C   0  0  1  0  0  3  0  0  0  0  0  0
  186.4420  176.4250  142.6540 O   0  0  0  0  0  0  0  0  0  0  0  0
  185.9570  178.9130  142.6450 C   0  0  0  0  0  2  0  0  0  0  0  0
  185.6960  177.4950  142.0820 C   0  0  1  0  0  3  0  0  0  0  0  0
  185.1570  178.6200  145.0350 C   0  0  2  0  0  3  0  0  0  0  0  0
  184.0310  179.2510  144.5030 O   0  0  0  0  0  1  0  0  0  0  0  0
  185.4280  179.1810  146.4250 C   0  0  1  0  0  3  0  0  0  0  0  0
  184.8210  178.2830  147.4910 C   0  0  0  0  0  2  0  0  0  0  0  0
  186.3030  178.2040  147.1920 C   0  0  2  0  0  3  0  0  0  0  0  0
  186.3390  180.2340  148.6140 C   0  0  0  0  0  1  0  0  0  0  0  0
  187.0740  178.9570  148.2540 C   0  0  0  0  0  2  0  0  0  0  0  0
  184.3470  177.6820  140.2530 C   0  0  0  0  0  1  0  0  0  0  0  0
  185.6630  177.4430  140.6740 O   0  0  0  0  0  0  0  0  0  0  0  0
  188.3410  174.5490  142.7040 O   0  0  0  0  0  0  0  0  0  0  0  0
  189.4740  174.1020  142.0060 C   0  0  1  0  0  3  0  0  0  0  0  0
  189.7600  172.6560  142.3820 C   0  0  0  0  0  1  0  0  0  0  0  0
  190.3970  173.8330  139.8020 O   0  0  0  0  0  1  0  0  0  0  0  0
  188.1490  173.5230  140.0770 O   0  0  0  0  0  1  0  0  0  0  0  0
  189.2630  174.2530  140.5000 C   0  0  0  0  0  3  0  0  0  0  0  0
  1  4  2  0  0  0  0
  2  5  1  1  0  0  0
  3  4  1  6  0  0  0
  3  2  1  0  0  0  0
  4  2  1  0  0  0  0
  8  7  1  0  0  0  0
  9 16  1  1  0  0  0
  9  3  1  0  0  0  0
  9 13  1  0  0  0  0
 12  6  1  6  0  0  0
 12  7  1  0  0  0  0
 12 10  1  0  0  0  0
 13 10  1  0  0  0  0
 14 16  1  1  0  0  0
 14 12  1  0  0  0  0
 15  8  1  1  0  0  0
 17 11  1  1  0  0  0
 17 15  1  0  0  0  0
 17 14  1  0  0  0  0
 18 24  1  0  0  0  0
 19 23  2  0  0  0  0
 20 25  1  0  0  0  0
 22 23  1  6  0  0  0
 22 15  1  0  0  0  0
 24 22  1  0  0  0  0
 24 27  1  1  0  0  0
 25 21  1  6  0  0  0
 25 18  1  0  0  0  0
 25 23  1  0  0  0  0
 27 26  1  0  0  0  0
 27 28  1  0  0  0  0
 29  2  1  0  0  0  0
 29 30  1  1  0  0  0
 31 47  1  1  0  0  0
 31 29  1  0  0  0  0
 33 31  1  1  0  0  0
 33 32  1  0  0  0  0
 34 32  1  0  0  0  0
 34 38  1  1  0  0  0
 35 33  1  0  0  0  0
 36 34  1  0  0  0  0
 37 46  1  6  0  0  0
 37 36  1  0  0  0  0
 37 35  1  0  0  0  0
 38 39  1  6  0  0  0
 40 38  1  6  0  0  0
 40 42  1  0  0  0  0
 40 41  1  0  0  0  0
 42 41  1  0  0  0  0
 42 44  1  1  0  0  0
 44 43  1  0  0  0  0
 45 46  1  0  0  0  0
 48 49  1  6  0  0  0
 48 47  1  0  0  0  0
 50 52  1  0  0  0  0
 51 52  1  0  0  0  0
 52 48  1  0  0  0  0
M  END
>  <MODEL>
8

>  <REMARK>
 VINA RESULT:      -6.5      2.320      5.690
  Name = 
  13 active torsions:
  status: ('A' for Active; 'I' for Inactive)
    1  A    between atoms: C_1  and  C_14
    2  A    between atoms: C_1  and  C_30
    3  A    between atoms: O_7  and  C_12
    4  A    between atoms: O_7  and  C_16
    5  A    between atoms: C_12  and  C_27
    6  A    between atoms: C_12  and  C_28
    7  A    between atoms: C_13  and  C_27
    8  A    between atoms: C_16  and  C_45
    9  A    between atoms: C_17  and  C_19
   10  A    between atoms: C_18  and  C_32
   11  A    between atoms: C_20  and  C_40
   12  A    between atoms: C_37  and  C_52
   13  A    between atoms: C_44  and  O_50
                            x       y       z     vdW  Elec       q    Type
                         _______ _______ _______ _____ _____    ______ ____

>  <TORSDO>
F 13

$$$$
=
 OpenBabel11062421393D

 52 57  0  0  1  0  0  0  0  0999 V2000
  194.2170  176.0800  142.4250 O   0  0  0  0  0  0  0  0  0  0  0  0
  192.6410  176.4420  144.5450 C   0  0  2  0  0  0  0  0  0  0  0  0
  192.6540  175.0150  144.3310 C   0  0  2  0  0  3  0  0  0  0  0  0
  193.4780  175.9160  143.3820 C   0  0  0  0  0  0  0  0  0  0  0  0
  193.4410  176.8680  145.6050 O   0  0  0  0  0  1  0  0  0  0  0  0
  188.8340  171.7770  142.7190 O   0  0  0  0  0  1  0  0  0  0  0  0
  190.7570  170.5310  142.1070 C   0  0  0  0  0  2  0  0  0  0  0  0
  191.9740  170.7390  141.4390 O   0  0  0  0  0  0  0  0  0  0  0  0
  191.4180  174.4630  143.6240 C   0  0  2  0  0  3  0  0  0  0  0  0
  190.7720  172.0360  144.0790 C   0  0  0  0  0  2  0  0  0  0  0  0
  189.7070  172.5580  139.5590 O   0  0  0  0  0  1  0  0  0  0  0  0
  190.2250  171.8570  142.6550 C   0  0  2  0  0  0  0  0  0  0  0  0
  190.6680  173.4890  144.5470 C   0  0  0  0  0  2  0  0  0  0  0  0
  190.6130  173.0440  141.7230 C   0  0  1  0  0  3  0  0  0  0  0  0
  191.6480  171.2700  140.1770 C   0  0  1  0  0  3  0  0  0  0  0  0
  191.7860  173.8520  142.2710 C   0  0  0  0  0  2  0  0  0  0  0  0
  190.9030  172.6240  140.2800 C   0  0  1  0  0  3  0  0  0  0  0  0
  193.3560  172.6560  137.2420 C   0  0  0  0  0  2  0  0  0  0  0  0
  192.8150  169.1570  138.1870 C   0  0  0  0  0  2  0  0  0  0  0  0
  194.0420  170.7010  136.0740 F   0  0  0  0  0  0  0  0  0  0  0  0
  191.8200  171.2120  136.1130 O   0  0  0  0  0  1  0  0  0  0  0  0
  192.9160  171.3690  139.3130 C   0  0  1  0  0  3  0  0  0  0  0  0
  192.8520  170.4900  138.1130 C   0  0  0  0  0  0  0  0  0  0  0  0
  193.0870  172.7770  138.7460 C   0  0  1  0  0  3  0  0  0  0  0  0
  193.0150  171.2300  136.8340 C   0  0  2  0  0  0  0  0  0  0  0  0
  193.9830  174.9180  139.3360 O   0  0  0  0  0  1  0  0  0  0  0  0
  194.1850  173.5440  139.4760 C   0  0  0  0  0  3  0  0  0  0  0  0
  195.4480  173.2020  138.9860 O   0  0  0  0  0  1  0  0  0  0  0  0
  191.4730  177.3730  144.1540 C   0  0  1  0  0  3  0  0  0  0  0  0
  191.3860  177.5540  142.7690 O   0  0  0  0  0  1  0  0  0  0  0  0
  190.1440  176.8490  144.7330 C   0  0  2  0  0  3  0  0  0  0  0  0
  187.9800  178.1110  144.1540 C   0  0  0  0  0  2  0  0  0  0  0  0
  188.9100  176.9400  143.8180 C   0  0  2  0  0  3  0  0  0  0  0  0
  186.6960  178.0780  143.3070 C   0  0  1  0  0  3  0  0  0  0  0  0
  188.1980  175.7240  143.8180 O   0  0  0  0  0  0  0  0  0  0  0  0
  186.7880  177.0440  142.1770 C   0  0  0  0  0  2  0  0  0  0  0  0
  187.3080  175.6860  142.7070 C   0  0  1  0  0  3  0  0  0  0  0  0
  185.4630  177.8520  144.1850 C   0  0  2  0  0  3  0  0  0  0  0  0
  184.3130  177.8300  143.3930 O   0  0  0  0  0  1  0  0  0  0  0  0
  185.3350  178.9670  145.2150 C   0  0  1  0  0  3  0  0  0  0  0  0
  184.0920  178.7690  146.0650 C   0  0  0  0  0  2  0  0  0  0  0  0
  185.4470  178.3710  146.6070 C   0  0  2  0  0  3  0  0  0  0  0  0
  187.0880  178.8880  148.3930 C   0  0  0  0  0  1  0  0  0  0  0  0
  185.9410  179.4350  147.5630 C   0  0  0  0  0  2  0  0  0  0  0  0
  188.1080  175.5790  140.5740 C   0  0  0  0  0  1  0  0  0  0  0  0
  187.7440  174.8120  141.6910 O   0  0  0  0  0  0  0  0  0  0  0  0
  189.9150  177.2170  146.0790 O   0  0  0  0  0  0  0  0  0  0  0  0
  190.2080  176.1260  146.9130 C   0  0  1  0  0  3  0  0  0  0  0  0
  191.1850  176.5660  147.9930 C   0  0  0  0  0  1  0  0  0  0  0  0
  187.8070  176.0250  146.8200 O   0  0  0  0  0  1  0  0  0  0  0  0
  188.9410  174.1660  147.5160 O   0  0  0  0  0  1  0  0  0  0  0  0
  188.9240  175.5630  147.5210 C   0  0  0  0  0  3  0  0  0  0  0  0
  1  4  2  0  0  0  0
  2  5  1  1  0  0  0
  3  4  1  6  0  0  0
  3  2  1  0  0  0  0
  4  2  1  0  0  0  0
  7 12  1  0  0  0  0
  8  7  1  0  0  0  0
  9 16  1  6  0  0  0
  9  3  1  0  0  0  0
  9 13  1  0  0  0  0
 10 13  1  0  0  0  0
 12  6  1  1  0  0  0
 12 10  1  0  0  0  0
 14 16  1  1  0  0  0
 14 12  1  0  0  0  0
 15 17  1  0  0  0  0
 15  8  1  1  0  0  0
 17 11  1  6  0  0  0
 17 14  1  0  0  0  0
 18 24  1  0  0  0  0
 21 25  1  0  0  0  0
 22 23  1  6  0  0  0
 22 15  1  0  0  0  0
 23 19  2  0  0  0  0
 24 22  1  0  0  0  0
 24 27  1  1  0  0  0
 25 20  1  6  0  0  0
 25 18  1  0  0  0  0
 25 23  1  0  0  0  0
 26 27  1  0  0  0  0
 28 27  1  0  0  0  0
 29 30  1  6  0  0  0
 29  2  1  0  0  0  0
 29 31  1  0  0  0  0
 31 47  1  1  0  0  0
 33 35  1  0  0  0  0
 33 32  1  0  0  0  0
 33 31  1  1  0  0  0
 34 32  1  0  0  0  0
 34 38  1  1  0  0  0
 36 37  1  0  0  0  0
 36 34  1  0  0  0  0
 37 46  1  6  0  0  0
 37 35  1  0  0  0  0
 38 39  1  6  0  0  0
 40 38  1  6  0  0  0
 40 41  1  0  0  0  0
 40 42  1  0  0  0  0
 41 42  1  0  0  0  0
 42 44  1  1  0  0  0
 44 43  1  0  0  0  0
 45 46  1  0  0  0  0
 47 48  1  0  0  0  0
 48 52  1  0  0  0  0
 48 49  1  1  0  0  0
 50 52  1  0  0  0  0
 51 52  1  0  0  0  0
M  END
>  <MODEL>
9

>  <REMARK>
 VINA RESULT:      -6.5      2.889      6.285
  Name = 
  13 active torsions:
  status: ('A' for Active; 'I' for Inactive)
    1  A    between atoms: C_1  and  C_14
    2  A    between atoms: C_1  and  C_30
    3  A    between atoms: O_7  and  C_12
    4  A    between atoms: O_7  and  C_16
    5  A    between atoms: C_12  and  C_27
    6  A    between atoms: C_12  and  C_28
    7  A    between atoms: C_13  and  C_27
    8  A    between atoms: C_16  and  C_45
    9  A    between atoms: C_17  and  C_19
   10  A    between atoms: C_18  and  C_32
   11  A    between atoms: C_20  and  C_40
   12  A    between atoms: C_37  and  C_52
   13  A    between atoms: C_44  and  O_50
                            x       y       z     vdW  Elec       q    Type
                         _______ _______ _______ _____ _____    ______ ____

>  <TORSDO>
F 13

$$$$
