=
 OpenBabel11062420153D

 25 27  0  0  1  0  0  0  0  0999 V2000
  184.1290  179.1680  144.3180 C   0  0  0  0  0  3  0  0  0  0  0  0
  184.9710  178.4840  146.3820 C   0  0  0  0  0  0  0  0  0  0  0  0
  185.0140  178.3600  147.7170 N   0  0  0  0  0  0  0  0  0  0  0  0
  186.1990  177.7510  147.9760 C   0  0  0  0  0  3  0  0  0  0  0  0
  183.9830  179.0710  145.6710 N   0  0  0  0  0  0  0  0  0  0  0  0
  186.9150  177.4840  146.8050 C   0  0  0  0  0  0  0  0  0  0  0  0
  186.1420  177.9610  145.7560 C   0  0  2  0  0  3  0  0  0  0  0  0
  185.2580  178.7030  143.6930 N   0  0  0  0  0  0  0  0  0  0  0  0
  186.2800  178.1050  144.3730 C   0  0  0  0  0  0  0  0  0  0  0  0
  189.4610  177.5910  146.6660 C   0  0  0  0  0  3  0  0  0  0  0  0
  190.6490  177.0480  146.9550 C   0  0  0  0  0  3  0  0  0  0  0  0
  188.3040  175.4670  146.9400 C   0  0  0  0  0  3  0  0  0  0  0  0
  189.6340  174.7660  146.8710 C   0  0  0  0  0  2  0  0  0  0  0  0
  190.7330  175.6430  147.4820 C   0  0  1  0  0  3  0  0  0  0  0  0
  188.2190  176.7930  146.7740 C   0  0  0  0  0  0  0  0  0  0  0  0
  192.9980  175.8000  146.8440 O   0  0  0  0  0  0  0  0  0  0  0  0
  192.0820  175.0730  147.1930 C   0  0  0  0  0  3  0  0  0  0  0  0
  187.5190  177.7250  143.6360 C   0  0  0  0  0  2  0  0  0  0  0  0
  187.1720  177.8480  141.1390 N   0  0  0  0  0  2  0  0  0  0  0  0
  187.1730  177.0740  142.3410 C   0  0  0  0  0  0  0  0  0  0  0  0
  186.9150  175.8400  142.3110 O   0  0  0  0  0  0  0  0  0  0  0  0
  186.8390  177.2800  139.8390 C   0  0  0  0  0  2  0  0  0  0  0  0
  185.3740  177.5180  139.5140 C   0  0  0  0  0  2  0  0  0  0  0  0
  183.5340  178.2500  140.4850 C   0  0  0  0  0  1  0  0  0  0  0  0
  184.8780  178.5650  140.2910 O   0  0  0  0  0  0  0  0  0  0  0  0
  1  5  2  0  0  0  0
  2  3  2  0  0  0  0
  3  4  1  0  0  0  0
  5  2  1  0  0  0  0
  6  4  2  0  0  0  0
  7  9  1  1  0  0  0
  7  2  1  0  0  0  0
  7  6  1  0  0  0  0
  8  1  1  0  0  0  0
  8  9  2  0  0  0  0
 10 15  1  0  0  0  0
 10 11  2  0  0  0  0
 11 14  1  0  0  0  0
 13 12  1  0  0  0  0
 13 14  1  0  0  0  0
 14 17  1  6  0  0  0
 15  6  1  0  0  0  0
 15 12  2  0  0  0  0
 16 17  2  0  0  0  0
 18  9  1  0  0  0  0
 19 20  1  0  0  0  0
 20 18  1  0  0  0  0
 21 20  2  0  0  0  0
 22 19  1  0  0  0  0
 23 22  1  0  0  0  0
 23 25  1  0  0  0  0
 25 24  1  0  0  0  0
M  END
>  <MODEL>
1

>  <REMARK>
 VINA RESULT:      -6.9      0.000      0.000
  Name = 
  7 active torsions:
  status: ('A' for Active; 'I' for Inactive)
    1  A    between atoms: N_1  and  C_12
    2  A    between atoms: C_3  and  C_19
    3  A    between atoms: C_11  and  C_12
    4  A    between atoms: C_11  and  O_16
    5  A    between atoms: C_17  and  C_22
    6  A    between atoms: C_18  and  C_25
    7  A    between atoms: C_19  and  C_24
                            x       y       z     vdW  Elec       q    Type
                         _______ _______ _______ _____ _____    ______ ____

>  <TORSDO>
F 7

$$$$
=
 OpenBabel11062420153D

 25 27  0  0  1  0  0  0  0  0999 V2000
  184.1980  179.0200  143.9580 C   0  0  0  0  0  3  0  0  0  0  0  0
  184.9520  178.3630  146.0650 C   0  0  0  0  0  0  0  0  0  0  0  0
  184.9330  178.2450  147.4010 N   0  0  0  0  0  0  0  0  0  0  0  0
  186.1170  177.6630  147.7200 C   0  0  0  0  0  3  0  0  0  0  0  0
  183.9880  178.9240  145.3030 N   0  0  0  0  0  0  0  0  0  0  0  0
  186.8950  177.4080  146.5860 C   0  0  0  0  0  0  0  0  0  0  0  0
  186.1640  177.8640  145.4990 C   0  0  2  0  0  3  0  0  0  0  0  0
  185.3660  178.5780  143.3920 N   0  0  0  0  0  0  0  0  0  0  0  0
  186.3660  178.0050  144.1240 C   0  0  0  0  0  0  0  0  0  0  0  0
  189.4390  177.5570  146.4390 C   0  0  0  0  0  3  0  0  0  0  0  0
  190.6370  177.0710  146.7800 C   0  0  0  0  0  3  0  0  0  0  0  0
  188.3270  175.4440  146.9160 C   0  0  0  0  0  3  0  0  0  0  0  0
  189.6730  174.7700  146.9150 C   0  0  0  0  0  2  0  0  0  0  0  0
  190.7510  175.7250  147.4400 C   0  0  1  0  0  3  0  0  0  0  0  0
  188.2140  176.7460  146.6230 C   0  0  0  0  0  0  0  0  0  0  0  0
  193.0220  175.8770  146.8210 O   0  0  0  0  0  0  0  0  0  0  0  0
  192.1130  175.1600  147.2070 C   0  0  0  0  0  3  0  0  0  0  0  0
  187.6480  177.6500  143.4490 C   0  0  0  0  0  2  0  0  0  0  0  0
  188.8800  175.4550  143.2630 N   0  0  0  0  0  2  0  0  0  0  0  0
  187.6700  176.1990  143.1070 C   0  0  0  0  0  0  0  0  0  0  0  0
  186.6140  175.6340  142.7130 O   0  0  0  0  0  0  0  0  0  0  0  0
  188.9770  174.0370  142.9440 C   0  0  0  0  0  2  0  0  0  0  0  0
  189.4460  173.8450  141.5110 C   0  0  0  0  0  2  0  0  0  0  0  0
  188.4890  174.1950  139.5550 C   0  0  0  0  0  1  0  0  0  0  0  0
  188.3810  173.4270  140.7140 O   0  0  0  0  0  0  0  0  0  0  0  0
  1  5  2  0  0  0  0
  2  3  2  0  0  0  0
  3  4  1  0  0  0  0
  5  2  1  0  0  0  0
  6 15  1  0  0  0  0
  6  4  2  0  0  0  0
  7  9  1  1  0  0  0
  7  2  1  0  0  0  0
  7  6  1  0  0  0  0
  8  1  1  0  0  0  0
  8  9  2  0  0  0  0
 10 15  1  0  0  0  0
 10 11  2  0  0  0  0
 11 14  1  0  0  0  0
 13 12  1  0  0  0  0
 13 14  1  0  0  0  0
 14 17  1  6  0  0  0
 15 12  2  0  0  0  0
 16 17  2  0  0  0  0
 18  9  1  0  0  0  0
 20 19  1  0  0  0  0
 20 18  1  0  0  0  0
 21 20  2  0  0  0  0
 22 19  1  0  0  0  0
 23 22  1  0  0  0  0
 24 25  1  0  0  0  0
 25 23  1  0  0  0  0
M  END
>  <MODEL>
2

>  <REMARK>
 VINA RESULT:      -6.9      1.729      2.496
  Name = 
  7 active torsions:
  status: ('A' for Active; 'I' for Inactive)
    1  A    between atoms: N_1  and  C_12
    2  A    between atoms: C_3  and  C_19
    3  A    between atoms: C_11  and  C_12
    4  A    between atoms: C_11  and  O_16
    5  A    between atoms: C_17  and  C_22
    6  A    between atoms: C_18  and  C_25
    7  A    between atoms: C_19  and  C_24
                            x       y       z     vdW  Elec       q    Type
                         _______ _______ _______ _____ _____    ______ ____

>  <TORSDO>
F 7

$$$$
=
 OpenBabel11062420153D

 25 27  0  0  1  0  0  0  0  0999 V2000
  184.5170  179.0470  143.7380 C   0  0  0  0  0  3  0  0  0  0  0  0
  185.0470  178.3940  145.9130 C   0  0  0  0  0  0  0  0  0  0  0  0
  184.8760  178.2570  147.2360 N   0  0  0  0  0  0  0  0  0  0  0  0
  186.0400  177.7220  147.6880 C   0  0  0  0  0  3  0  0  0  0  0  0
  184.1540  178.9240  145.0480 N   0  0  0  0  0  0  0  0  0  0  0  0
  186.9560  177.5150  146.6510 C   0  0  0  0  0  0  0  0  0  0  0  0
  186.3380  177.9550  145.4900 C   0  0  2  0  0  3  0  0  0  0  0  0
  185.7610  178.6630  143.3090 N   0  0  0  0  0  0  0  0  0  0  0  0
  186.6930  178.1240  144.1490 C   0  0  0  0  0  0  0  0  0  0  0  0
  188.4700  175.4620  146.5930 C   0  0  0  0  0  3  0  0  0  0  0  0
  189.6920  174.9430  146.4350 C   0  0  0  0  0  3  0  0  0  0  0  0
  189.3570  177.6650  147.1270 C   0  0  0  0  0  3  0  0  0  0  0  0
  190.7060  177.0350  147.3500 C   0  0  0  0  0  2  0  0  0  0  0  0
  190.9000  175.8380  146.4120 C   0  0  1  0  0  3  0  0  0  0  0  0
  188.2890  176.9100  146.8370 C   0  0  0  0  0  0  0  0  0  0  0  0
  193.2250  175.5570  146.6920 O   0  0  0  0  0  0  0  0  0  0  0  0
  192.1150  175.0610  146.7970 C   0  0  0  0  0  3  0  0  0  0  0  0
  188.0590  177.8330  143.6270 C   0  0  0  0  0  2  0  0  0  0  0  0
  187.7720  175.4140  142.9650 N   0  0  0  0  0  2  0  0  0  0  0  0
  188.0010  176.7720  142.5820 C   0  0  0  0  0  0  0  0  0  0  0  0
  188.1210  177.0850  141.3660 O   0  0  0  0  0  0  0  0  0  0  0  0
  187.7070  174.3260  142.0000 C   0  0  0  0  0  2  0  0  0  0  0  0
  188.9910  173.5120  142.0290 C   0  0  0  0  0  2  0  0  0  0  0  0
  189.4180  172.0530  143.6270 C   0  0  0  0  0  1  0  0  0  0  0  0
  189.4640  173.4170  143.3370 O   0  0  0  0  0  0  0  0  0  0  0  0
  1  5  2  0  0  0  0
  2  3  2  0  0  0  0
  3  4  1  0  0  0  0
  5  2  1  0  0  0  0
  6 15  1  0  0  0  0
  6  4  2  0  0  0  0
  7  9  1  1  0  0  0
  7  2  1  0  0  0  0
  7  6  1  0  0  0  0
  8  1  1  0  0  0  0
  8  9  2  0  0  0  0
 10 15  1  0  0  0  0
 11 10  2  0  0  0  0
 12 13  1  0  0  0  0
 14 11  1  0  0  0  0
 14 17  1  1  0  0  0
 14 13  1  0  0  0  0
 15 12  2  0  0  0  0
 16 17  2  0  0  0  0
 18  9  1  0  0  0  0
 20 19  1  0  0  0  0
 20 18  1  0  0  0  0
 21 20  2  0  0  0  0
 22 23  1  0  0  0  0
 22 19  1  0  0  0  0
 23 25  1  0  0  0  0
 25 24  1  0  0  0  0
M  END
>  <MODEL>
3

>  <REMARK>
 VINA RESULT:      -6.7      1.728      3.043
  Name = 
  7 active torsions:
  status: ('A' for Active; 'I' for Inactive)
    1  A    between atoms: N_1  and  C_12
    2  A    between atoms: C_3  and  C_19
    3  A    between atoms: C_11  and  C_12
    4  A    between atoms: C_11  and  O_16
    5  A    between atoms: C_17  and  C_22
    6  A    between atoms: C_18  and  C_25
    7  A    between atoms: C_19  and  C_24
                            x       y       z     vdW  Elec       q    Type
                         _______ _______ _______ _____ _____    ______ ____

>  <TORSDO>
F 7

$$$$
=
 OpenBabel11062420153D

 25 27  0  0  1  0  0  0  0  0999 V2000
  185.3240  178.3470  147.5220 C   0  0  0  0  0  3  0  0  0  0  0  0
  185.7660  178.8060  145.2780 C   0  0  0  0  0  0  0  0  0  0  0  0
  185.5700  179.3510  144.0690 N   0  0  0  0  0  0  0  0  0  0  0  0
  186.5200  178.7950  143.2740 C   0  0  0  0  0  3  0  0  0  0  0  0
  185.0250  179.0390  146.3830 N   0  0  0  0  0  2  0  0  0  0  0  0
  187.3250  177.8920  143.9760 C   0  0  0  0  0  0  0  0  0  0  0  0
  186.8470  177.8740  145.2790 C   0  0  0  0  0  0  0  0  0  0  0  0
  186.3360  177.4230  147.5420 N   0  0  0  0  0  0  0  0  0  0  0  0
  187.1090  177.1560  146.4480 C   0  0  0  0  0  0  0  0  0  0  0  0
  189.8040  177.7940  143.3780 C   0  0  0  0  0  3  0  0  0  0  0  0
  190.9010  177.0630  143.1520 C   0  0  0  0  0  3  0  0  0  0  0  0
  188.3260  175.9120  142.9320 C   0  0  0  0  0  3  0  0  0  0  0  0
  189.4840  175.1920  142.2940 C   0  0  0  0  0  2  0  0  0  0  0  0
  190.7980  175.5720  142.9850 C   0  0  1  0  0  3  0  0  0  0  0  0
  188.4640  177.1660  143.3810 C   0  0  0  0  0  0  0  0  0  0  0  0
  192.9540  175.7680  142.0500 O   0  0  0  0  0  0  0  0  0  0  0  0
  191.9670  175.0670  142.2070 C   0  0  0  0  0  3  0  0  0  0  0  0
  188.1180  176.0610  146.5220 C   0  0  0  0  0  2  0  0  0  0  0  0
  190.6310  175.8320  146.5650 N   0  0  0  0  0  2  0  0  0  0  0  0
  189.4660  176.6160  146.8300 C   0  0  0  0  0  0  0  0  0  0  0  0
  189.5700  177.7840  147.2920 O   0  0  0  0  0  0  0  0  0  0  0  0
  191.9790  176.3070  146.8450 C   0  0  0  0  0  2  0  0  0  0  0  0
  193.0080  175.4250  146.1560 C   0  0  0  0  0  2  0  0  0  0  0  0
  194.4370  177.1050  146.1190 C   0  0  0  0  0  1  0  0  0  0  0  0
  193.7860  176.1930  145.2890 O   0  0  0  0  0  0  0  0  0  0  0  0
  1  8  2  0  0  0  0
  2  7  1  0  0  0  0
  2  5  1  0  0  0  0
  3  2  2  0  0  0  0
  4  6  2  0  0  0  0
  4  3  1  0  0  0  0
  5  1  1  0  0  0  0
  6  7  1  0  0  0  0
  7  9  2  0  0  0  0
  9 18  1  0  0  0  0
  9  8  1  0  0  0  0
 10 15  1  0  0  0  0
 11 10  2  0  0  0  0
 12 15  2  0  0  0  0
 13 12  1  0  0  0  0
 13 14  1  0  0  0  0
 14 17  1  6  0  0  0
 14 11  1  0  0  0  0
 15  6  1  0  0  0  0
 16 17  2  0  0  0  0
 18 20  1  0  0  0  0
 19 20  1  0  0  0  0
 19 22  1  0  0  0  0
 20 21  2  0  0  0  0
 23 22  1  0  0  0  0
 25 24  1  0  0  0  0
 25 23  1  0  0  0  0
M  END
>  <MODEL>
4

>  <REMARK>
 VINA RESULT:      -6.5      2.821      5.630
  Name = 
  7 active torsions:
  status: ('A' for Active; 'I' for Inactive)
    1  A    between atoms: N_1  and  C_12
    2  A    between atoms: C_3  and  C_19
    3  A    between atoms: C_11  and  C_12
    4  A    between atoms: C_11  and  O_16
    5  A    between atoms: C_17  and  C_22
    6  A    between atoms: C_18  and  C_25
    7  A    between atoms: C_19  and  C_24
                            x       y       z     vdW  Elec       q    Type
                         _______ _______ _______ _____ _____    ______ ____

>  <TORSDO>
F 7

$$$$
=
 OpenBabel11062420153D

 25 27  0  0  1  0  0  0  0  0999 V2000
  184.4240  177.9150  142.4420 C   0  0  0  0  0  3  0  0  0  0  0  0
  184.9410  178.5370  144.6300 C   0  0  0  0  0  0  0  0  0  0  0  0
  184.8240  179.2200  145.7780 N   0  0  0  0  0  0  0  0  0  0  0  0
  185.8810  178.8230  146.5320 C   0  0  0  0  0  3  0  0  0  0  0  0
  184.1230  178.6400  143.5590 N   0  0  0  0  0  0  0  0  0  0  0  0
  186.6750  177.8830  145.8650 C   0  0  0  0  0  0  0  0  0  0  0  0
  186.0890  177.6900  144.6220 C   0  0  2  0  0  3  0  0  0  0  0  0
  185.5390  177.1180  142.3960 N   0  0  0  0  0  0  0  0  0  0  0  0
  186.3920  176.9850  143.4540 C   0  0  0  0  0  0  0  0  0  0  0  0
  187.8010  175.8270  146.8730 C   0  0  0  0  0  3  0  0  0  0  0  0
  188.9180  175.1290  147.1030 C   0  0  0  0  0  3  0  0  0  0  0  0
  189.0360  177.8950  146.5250 C   0  0  0  0  0  3  0  0  0  0  0  0
  190.2390  177.2490  147.1600 C   0  0  0  0  0  2  0  0  0  0  0  0
  190.2650  175.7480  146.8520 C   0  0  1  0  0  3  0  0  0  0  0  0
  187.8680  177.2450  146.4540 C   0  0  0  0  0  0  0  0  0  0  0  0
  192.4370  174.9230  147.2550 O   0  0  0  0  0  0  0  0  0  0  0  0
  191.3010  175.0600  147.6780 C   0  0  0  0  0  3  0  0  0  0  0  0
  187.6380  176.1840  143.2870 C   0  0  0  0  0  2  0  0  0  0  0  0
  190.0940  176.7640  143.3460 N   0  0  0  0  0  2  0  0  0  0  0  0
  188.7720  177.0660  142.8910 C   0  0  0  0  0  0  0  0  0  0  0  0
  188.5630  178.0520  142.1340 O   0  0  0  0  0  0  0  0  0  0  0  0
  191.2490  177.5830  143.0040 C   0  0  0  0  0  2  0  0  0  0  0  0
  192.5020  176.7260  142.9190 C   0  0  0  0  0  2  0  0  0  0  0  0
  194.1390  176.2870  144.3310 C   0  0  0  0  0  1  0  0  0  0  0  0
  192.7620  176.1420  144.1590 O   0  0  0  0  0  0  0  0  0  0  0  0
  1  5  2  0  0  0  0
  2  3  2  0  0  0  0
  3  4  1  0  0  0  0
  5  2  1  0  0  0  0
  6 15  1  0  0  0  0
  6  4  2  0  0  0  0
  7  9  1  6  0  0  0
  7  2  1  0  0  0  0
  7  6  1  0  0  0  0
  8  1  1  0  0  0  0
  8  9  2  0  0  0  0
 10 11  2  0  0  0  0
 12 13  1  0  0  0  0
 14 11  1  0  0  0  0
 14 13  1  0  0  0  0
 14 17  1  1  0  0  0
 15 12  2  0  0  0  0
 15 10  1  0  0  0  0
 16 17  2  0  0  0  0
 18  9  1  0  0  0  0
 20 18  1  0  0  0  0
 20 19  1  0  0  0  0
 21 20  2  0  0  0  0
 22 19  1  0  0  0  0
 23 22  1  0  0  0  0
 23 25  1  0  0  0  0
 25 24  1  0  0  0  0
M  END
>  <MODEL>
5

>  <REMARK>
 VINA RESULT:      -6.4      2.022      3.964
  Name = 
  7 active torsions:
  status: ('A' for Active; 'I' for Inactive)
    1  A    between atoms: N_1  and  C_12
    2  A    between atoms: C_3  and  C_19
    3  A    between atoms: C_11  and  C_12
    4  A    between atoms: C_11  and  O_16
    5  A    between atoms: C_17  and  C_22
    6  A    between atoms: C_18  and  C_25
    7  A    between atoms: C_19  and  C_24
                            x       y       z     vdW  Elec       q    Type
                         _______ _______ _______ _____ _____    ______ ____

>  <TORSDO>
F 7

$$$$
=
 OpenBabel11062420153D

 25 27  0  0  1  0  0  0  0  0999 V2000
  185.7380  179.0440  147.2420 C   0  0  0  0  0  3  0  0  0  0  0  0
  185.9640  178.9940  144.9220 C   0  0  0  0  0  0  0  0  0  0  0  0
  185.7280  179.3530  143.6510 N   0  0  0  0  0  0  0  0  0  0  0  0
  186.4270  178.4640  142.8980 C   0  0  0  0  0  3  0  0  0  0  0  0
  185.4410  179.5780  146.0220 N   0  0  0  0  0  2  0  0  0  0  0  0
  187.1120  177.5360  143.6890 C   0  0  0  0  0  0  0  0  0  0  0  0
  186.8180  177.8530  145.0080 C   0  0  0  0  0  0  0  0  0  0  0  0
  186.5290  177.9290  147.3530 N   0  0  0  0  0  0  0  0  0  0  0  0
  187.0770  177.3070  146.2670 C   0  0  0  0  0  0  0  0  0  0  0  0
  187.3750  175.2740  142.5370 C   0  0  0  0  0  3  0  0  0  0  0  0
  188.0990  174.4600  141.7610 C   0  0  0  0  0  3  0  0  0  0  0  0
  189.3150  176.6260  143.1130 C   0  0  0  0  0  3  0  0  0  0  0  0
  190.2000  175.5260  142.5930 C   0  0  0  0  0  2  0  0  0  0  0  0
  189.5240  174.8020  141.4230 C   0  0  1  0  0  3  0  0  0  0  0  0
  187.9850  176.4760  143.1480 C   0  0  0  0  0  0  0  0  0  0  0  0
  190.5110  172.7190  141.9210 O   0  0  0  0  0  0  0  0  0  0  0  0
  190.2720  173.5600  141.0700 C   0  0  0  0  0  3  0  0  0  0  0  0
  187.8360  176.0390  146.4640 C   0  0  0  0  0  2  0  0  0  0  0  0
  190.0620  175.2880  147.3860 N   0  0  0  0  0  2  0  0  0  0  0  0
  189.2450  176.3320  146.8510 C   0  0  0  0  0  0  0  0  0  0  0  0
  189.7140  177.4880  146.6740 O   0  0  0  0  0  0  0  0  0  0  0  0
  191.4450  175.5010  147.7910 C   0  0  0  0  0  2  0  0  0  0  0  0
  192.3950  175.0720  146.6850 C   0  0  0  0  0  2  0  0  0  0  0  0
  193.8980  176.6850  146.6080 C   0  0  0  0  0  1  0  0  0  0  0  0
  192.7850  176.1830  145.9350 O   0  0  0  0  0  0  0  0  0  0  0  0
  1  8  2  0  0  0  0
  2  7  1  0  0  0  0
  2  5  1  0  0  0  0
  3  2  2  0  0  0  0
  4  3  1  0  0  0  0
  4  6  2  0  0  0  0
  5  1  1  0  0  0  0
  6  7  1  0  0  0  0
  7  9  2  0  0  0  0
  9 18  1  0  0  0  0
  9  8  1  0  0  0  0
 10 15  1  0  0  0  0
 11 10  2  0  0  0  0
 12 15  2  0  0  0  0
 13 12  1  0  0  0  0
 14 17  1  1  0  0  0
 14 11  1  0  0  0  0
 14 13  1  0  0  0  0
 15  6  1  0  0  0  0
 17 16  2  0  0  0  0
 18 20  1  0  0  0  0
 19 22  1  0  0  0  0
 20 19  1  0  0  0  0
 21 20  2  0  0  0  0
 23 22  1  0  0  0  0
 25 24  1  0  0  0  0
 25 23  1  0  0  0  0
M  END
>  <MODEL>
6

>  <REMARK>
 VINA RESULT:      -6.2      2.572      5.974
  Name = 
  7 active torsions:
  status: ('A' for Active; 'I' for Inactive)
    1  A    between atoms: N_1  and  C_12
    2  A    between atoms: C_3  and  C_19
    3  A    between atoms: C_11  and  C_12
    4  A    between atoms: C_11  and  O_16
    5  A    between atoms: C_17  and  C_22
    6  A    between atoms: C_18  and  C_25
    7  A    between atoms: C_19  and  C_24
                            x       y       z     vdW  Elec       q    Type
                         _______ _______ _______ _____ _____    ______ ____

>  <TORSDO>
F 7

$$$$
=
 OpenBabel11062420153D

 25 27  0  0  1  0  0  0  0  0999 V2000
  192.2170  174.1070  144.3430 C   0  0  0  0  0  3  0  0  0  0  0  0
  191.5370  175.5350  146.0570 C   0  0  0  0  0  0  0  0  0  0  0  0
  191.6290  176.1980  147.2200 N   0  0  0  0  0  0  0  0  0  0  0  0
  190.4180  176.7900  147.3840 C   0  0  0  0  0  3  0  0  0  0  0  0
  192.5010  174.7660  145.5050 N   0  0  0  0  0  0  0  0  0  0  0  0
  189.5500  176.5050  146.3240 C   0  0  0  0  0  0  0  0  0  0  0  0
  190.2520  175.6820  145.4550 C   0  0  2  0  0  3  0  0  0  0  0  0
  190.9810  174.2050  143.7600 N   0  0  0  0  0  0  0  0  0  0  0  0
  189.9790  174.9700  144.2840 C   0  0  0  0  0  0  0  0  0  0  0  0
  187.9100  178.1490  145.2660 C   0  0  0  0  0  3  0  0  0  0  0  0
  186.6590  178.4440  144.8990 C   0  0  0  0  0  3  0  0  0  0  0  0
  187.1610  176.4850  146.8760 C   0  0  0  0  0  3  0  0  0  0  0  0
  185.7740  177.0630  146.7840 C   0  0  0  0  0  2  0  0  0  0  0  0
  185.5090  177.5970  145.3720 C   0  0  1  0  0  3  0  0  0  0  0  0
  188.1810  177.0430  146.2110 C   0  0  0  0  0  0  0  0  0  0  0  0
  183.8560  178.8880  144.2940 O   0  0  0  0  0  0  0  0  0  0  0  0
  184.2470  178.3920  145.3390 C   0  0  0  0  0  3  0  0  0  0  0  0
  188.6300  174.9370  143.6480 C   0  0  0  0  0  2  0  0  0  0  0  0
  187.2410  176.2860  142.0290 N   0  0  0  0  0  2  0  0  0  0  0  0
  188.5110  176.0160  142.6270 C   0  0  0  0  0  0  0  0  0  0  0  0
  189.5240  176.7030  142.3230 O   0  0  0  0  0  0  0  0  0  0  0  0
  187.0510  177.3210  141.0230 C   0  0  0  0  0  2  0  0  0  0  0  0
  185.8890  178.2250  141.4020 C   0  0  0  0  0  2  0  0  0  0  0  0
  183.8370  178.1600  140.5960 C   0  0  0  0  0  1  0  0  0  0  0  0
  185.1390  178.5360  140.2680 O   0  0  0  0  0  0  0  0  0  0  0  0
  1  5  2  0  0  0  0
  2  3  2  0  0  0  0
  3  4  1  0  0  0  0
  5  2  1  0  0  0  0
  6  4  2  0  0  0  0
  7  9  1  1  0  0  0
  7  2  1  0  0  0  0
  7  6  1  0  0  0  0
  8  9  2  0  0  0  0
  8  1  1  0  0  0  0
 10 15  1  0  0  0  0
 11 10  2  0  0  0  0
 11 14  1  0  0  0  0
 13 12  1  0  0  0  0
 14 17  1  1  0  0  0
 14 13  1  0  0  0  0
 15  6  1  0  0  0  0
 15 12  2  0  0  0  0
 16 17  2  0  0  0  0
 18  9  1  0  0  0  0
 19 20  1  0  0  0  0
 20 18  1  0  0  0  0
 21 20  2  0  0  0  0
 22 23  1  0  0  0  0
 22 19  1  0  0  0  0
 25 24  1  0  0  0  0
 25 23  1  0  0  0  0
M  END
>  <MODEL>
7

>  <REMARK>
 VINA RESULT:      -6.1      2.942      5.284
  Name = 
  7 active torsions:
  status: ('A' for Active; 'I' for Inactive)
    1  A    between atoms: N_1  and  C_12
    2  A    between atoms: C_3  and  C_19
    3  A    between atoms: C_11  and  C_12
    4  A    between atoms: C_11  and  O_16
    5  A    between atoms: C_17  and  C_22
    6  A    between atoms: C_18  and  C_25
    7  A    between atoms: C_19  and  C_24
                            x       y       z     vdW  Elec       q    Type
                         _______ _______ _______ _____ _____    ______ ____

>  <TORSDO>
F 7

$$$$
=
 OpenBabel11062420153D

 25 27  0  0  1  0  0  0  0  0999 V2000
  194.6030  175.8770  142.6530 C   0  0  0  0  0  3  0  0  0  0  0  0
  194.2350  176.1050  144.9450 C   0  0  0  0  0  0  0  0  0  0  0  0
  194.5570  176.1820  146.2450 N   0  0  0  0  0  0  0  0  0  0  0  0
  193.3690  176.2150  146.9010 C   0  0  0  0  0  3  0  0  0  0  0  0
  195.1050  176.0130  143.9160 N   0  0  0  0  0  0  0  0  0  0  0  0
  192.2840  176.1600  146.0190 C   0  0  0  0  0  0  0  0  0  0  0  0
  192.8220  176.0770  144.7430 C   0  0  2  0  0  3  0  0  0  0  0  0
  193.2520  175.8150  142.4330 N   0  0  0  0  0  0  0  0  0  0  0  0
  192.3370  175.9040  143.4440 C   0  0  0  0  0  0  0  0  0  0  0  0
  190.1450  177.5050  146.3740 C   0  0  0  0  0  3  0  0  0  0  0  0
  188.8100  177.5400  146.4360 C   0  0  0  0  0  3  0  0  0  0  0  0
  190.2090  175.1090  146.7970 C   0  0  0  0  0  3  0  0  0  0  0  0
  188.7800  175.1830  147.2630 C   0  0  0  0  0  2  0  0  0  0  0  0
  188.0180  176.2630  146.4870 C   0  0  1  0  0  3  0  0  0  0  0  0
  190.8720  176.2180  146.4430 C   0  0  0  0  0  0  0  0  0  0  0  0
  186.1900  177.6310  147.0740 O   0  0  0  0  0  0  0  0  0  0  0  0
  186.6860  176.5160  147.1090 C   0  0  0  0  0  3  0  0  0  0  0  0
  190.8910  175.7190  143.1330 C   0  0  0  0  0  2  0  0  0  0  0  0
  188.9410  177.0510  142.2420 N   0  0  0  0  0  2  0  0  0  0  0  0
  190.2640  177.0250  142.7820 C   0  0  0  0  0  0  0  0  0  0  0  0
  190.8930  178.0970  142.9930 O   0  0  0  0  0  0  0  0  0  0  0  0
  188.2680  178.2880  141.8710 C   0  0  0  0  0  2  0  0  0  0  0  0
  186.7880  178.2120  142.2120 C   0  0  0  0  0  2  0  0  0  0  0  0
  185.2610  177.7570  143.7370 C   0  0  0  0  0  1  0  0  0  0  0  0
  186.6270  177.9900  143.5800 O   0  0  0  0  0  0  0  0  0  0  0  0
  1  5  2  0  0  0  0
  2  3  2  0  0  0  0
  3  4  1  0  0  0  0
  5  2  1  0  0  0  0
  6 15  1  0  0  0  0
  6  4  2  0  0  0  0
  7  9  1  1  0  0  0
  7  2  1  0  0  0  0
  7  6  1  0  0  0  0
  8  1  1  0  0  0  0
  8  9  2  0  0  0  0
 10 11  2  0  0  0  0
 10 15  1  0  0  0  0
 11 14  1  0  0  0  0
 12 13  1  0  0  0  0
 14 17  1  1  0  0  0
 14 13  1  0  0  0  0
 15 12  2  0  0  0  0
 16 17  2  0  0  0  0
 18  9  1  0  0  0  0
 19 20  1  0  0  0  0
 20 21  2  0  0  0  0
 20 18  1  0  0  0  0
 22 23  1  0  0  0  0
 22 19  1  0  0  0  0
 23 25  1  0  0  0  0
 25 24  1  0  0  0  0
M  END
>  <MODEL>
8

>  <REMARK>
 VINA RESULT:      -6.1      3.797      6.019
  Name = 
  7 active torsions:
  status: ('A' for Active; 'I' for Inactive)
    1  A    between atoms: N_1  and  C_12
    2  A    between atoms: C_3  and  C_19
    3  A    between atoms: C_11  and  C_12
    4  A    between atoms: C_11  and  O_16
    5  A    between atoms: C_17  and  C_22
    6  A    between atoms: C_18  and  C_25
    7  A    between atoms: C_19  and  C_24
                            x       y       z     vdW  Elec       q    Type
                         _______ _______ _______ _____ _____    ______ ____

>  <TORSDO>
F 7

$$$$
=
 OpenBabel11062420153D

 25 27  0  0  1  0  0  0  0  0999 V2000
  185.7060  178.0380  140.5910 C   0  0  0  0  0  3  0  0  0  0  0  0
  185.7000  178.4820  142.8800 C   0  0  0  0  0  0  0  0  0  0  0  0
  185.3120  179.0690  144.0220 N   0  0  0  0  0  0  0  0  0  0  0  0
  186.1810  178.6190  144.9630 C   0  0  0  0  0  3  0  0  0  0  0  0
  185.1430  178.6670  141.6630 N   0  0  0  0  0  0  0  0  0  0  0  0
  187.1270  177.7410  144.4220 C   0  0  0  0  0  0  0  0  0  0  0  0
  186.8420  177.6460  143.0680 C   0  0  2  0  0  3  0  0  0  0  0  0
  186.8220  177.2540  140.7370 N   0  0  0  0  0  0  0  0  0  0  0  0
  187.4170  177.0410  141.9470 C   0  0  0  0  0  0  0  0  0  0  0  0
  189.5720  177.5330  145.1200 C   0  0  0  0  0  3  0  0  0  0  0  0
  190.4760  177.1750  146.0380 C   0  0  0  0  0  3  0  0  0  0  0  0
  187.8610  176.0990  146.0890 C   0  0  0  0  0  3  0  0  0  0  0  0
  188.9360  175.3900  146.8660 C   0  0  0  0  0  2  0  0  0  0  0  0
  190.0630  176.3630  147.2340 C   0  0  1  0  0  3  0  0  0  0  0  0
  188.1720  177.0650  145.2140 C   0  0  0  0  0  0  0  0  0  0  0  0
  192.0640  175.1340  147.0210 O   0  0  0  0  0  0  0  0  0  0  0  0
  191.2400  175.6230  147.7770 C   0  0  0  0  0  3  0  0  0  0  0  0
  188.6880  176.2640  142.0050 C   0  0  0  0  0  2  0  0  0  0  0  0
  189.2780  174.1420  140.7730 N   0  0  0  0  0  2  0  0  0  0  0  0
  188.4340  174.8280  141.7000 C   0  0  0  0  0  0  0  0  0  0  0  0
  187.4970  174.2220  142.2860 O   0  0  0  0  0  0  0  0  0  0  0  0
  189.0860  172.7410  140.4240 C   0  0  0  0  0  2  0  0  0  0  0  0
  188.7180  172.6040  138.9550 C   0  0  0  0  0  2  0  0  0  0  0  0
  189.7090  171.8710  137.1260 C   0  0  0  0  0  1  0  0  0  0  0  0
  189.3390  171.4790  138.4130 O   0  0  0  0  0  0  0  0  0  0  0  0
  1  8  1  0  0  0  0
  1  5  2  0  0  0  0
  2  7  1  0  0  0  0
  2  3  2  0  0  0  0
  3  4  1  0  0  0  0
  5  2  1  0  0  0  0
  6  4  2  0  0  0  0
  6 15  1  0  0  0  0
  7  9  1  6  0  0  0
  7  6  1  0  0  0  0
  8  9  2  0  0  0  0
  9 18  1  0  0  0  0
 10 15  1  0  0  0  0
 10 11  2  0  0  0  0
 11 14  1  0  0  0  0
 12 13  1  0  0  0  0
 13 14  1  0  0  0  0
 14 17  1  6  0  0  0
 15 12  2  0  0  0  0
 16 17  2  0  0  0  0
 19 20  1  0  0  0  0
 20 18  1  0  0  0  0
 20 21  2  0  0  0  0
 22 19  1  0  0  0  0
 23 22  1  0  0  0  0
 24 25  1  0  0  0  0
 25 23  1  0  0  0  0
M  END
>  <MODEL>
9

>  <REMARK>
 VINA RESULT:      -6.1      2.757      3.893
  Name = 
  7 active torsions:
  status: ('A' for Active; 'I' for Inactive)
    1  A    between atoms: N_1  and  C_12
    2  A    between atoms: C_3  and  C_19
    3  A    between atoms: C_11  and  C_12
    4  A    between atoms: C_11  and  O_16
    5  A    between atoms: C_17  and  C_22
    6  A    between atoms: C_18  and  C_25
    7  A    between atoms: C_19  and  C_24
                            x       y       z     vdW  Elec       q    Type
                         _______ _______ _______ _____ _____    ______ ____

>  <TORSDO>
F 7

$$$$
