=
 OpenBabel11072408333D

 26 28  0  0  1  0  0  0  0  0999 V2000
  190.5350  176.9310  146.1310 N   0  0  0  0  0  0  0  0  0  0  0  0
  192.2680  176.7820  144.6400 C   0  0  0  0  0  0  0  0  0  0  0  0
  191.7720  176.3260  145.8240 C   0  0  0  0  0  0  0  0  0  0  0  0
  190.1500  177.8040  145.0280 C   0  0  0  0  0  2  0  0  0  0  0  0
  191.3330  177.7690  144.0280 C   0  0  2  0  0  3  0  0  0  0  0  0
  192.4620  175.3760  146.5740 C   0  0  0  0  0  3  0  0  0  0  0  0
  193.4890  176.3210  144.1470 C   0  0  0  0  0  3  0  0  0  0  0  0
  193.6560  174.9180  146.0960 N   0  0  0  0  0  0  0  0  0  0  0  0
  194.1790  175.3670  144.9140 C   0  0  0  0  0  3  0  0  0  0  0  0
  190.8700  177.2760  142.7390 N   0  0  0  0  0  2  0  0  0  0  0  0
  188.9060  178.1640  141.9350 C   0  0  0  0  0  2  0  0  0  0  0  0
  187.6300  175.6160  142.3300 C   0  0  0  0  0  2  0  0  0  0  0  0
  189.1410  175.8290  142.2860 C   0  0  0  0  0  2  0  0  0  0  0  0
  186.9400  176.6940  141.4990 C   0  0  0  0  0  2  0  0  0  0  0  0
  189.4760  177.1490  142.8200 N   0  0  0  0  0  0  0  0  0  0  0  0
  187.3820  178.0800  141.9600 C   0  0  0  0  0  2  0  0  0  0  0  0
  189.6240  176.4320  147.0730 N   0  0  0  0  0  2  0  0  0  0  0  0
  188.4510  175.9800  146.3430 C   0  0  0  0  0  2  0  0  0  0  0  0
  187.2400  176.8160  146.7230 C   0  0  0  0  0  2  0  0  0  0  0  0
  185.4490  176.5870  144.9810 C   0  0  0  0  0  1  0  0  0  0  0  0
  186.5960  177.4460  145.4890 C   0  0  1  0  0  3  0  0  0  0  0  0
  185.1310  179.3770  144.6890 C   0  0  0  0  0  1  0  0  0  0  0  0
  186.1150  178.8790  145.7410 C   0  0  1  0  0  3  0  0  0  0  0  0
  185.5580  179.0390  147.1180 C   0  0  0  0  0  0  0  0  0  0  0  0
  186.2600  179.7430  148.0900 O   0  0  0  0  0  1  0  0  0  0  0  0
  184.4320  178.5490  147.3960 O   0  0  0  0  0  0  0  0  0  0  0  0
  1 17  1  0  0  0  0
  2  3  1  0  0  0  0
  3  1  1  0  0  0  0
  3  6  2  0  0  0  0
  4  1  1  0  0  0  0
  5 10  1  6  0  0  0
  5  2  1  0  0  0  0
  5  4  1  0  0  0  0
  7  2  2  0  0  0  0
  7  9  1  0  0  0  0
  8  6  1  0  0  0  0
  9  8  2  0  0  0  0
 10 15  1  0  0  0  0
 11 16  1  0  0  0  0
 11 15  1  0  0  0  0
 13 12  1  0  0  0  0
 13 15  1  0  0  0  0
 14 16  1  0  0  0  0
 14 12  1  0  0  0  0
 18 19  1  0  0  0  0
 18 17  1  0  0  0  0
 21 20  1  1  0  0  0
 21 23  1  0  0  0  0
 21 19  1  0  0  0  0
 23 22  1  6  0  0  0
 23 24  1  0  0  0  0
 24 26  2  0  0  0  0
 24 25  1  0  0  0  0
M  END
>  <MODEL>
1

>  <REMARK>
 VINA RESULT:      -6.3      0.000      0.000
  Name = 
  8 active torsions:
  status: ('A' for Active; 'I' for Inactive)
    1  A    between atoms: N_1  and  N_18
    2  A    between atoms: N_5  and  C_8
    3  A    between atoms: N_5  and  N_20
    4  A    between atoms: C_13  and  C_22
    5  A    between atoms: C_15  and  C_16
    6  A    between atoms: C_15  and  C_23
    7  A    between atoms: C_16  and  C_22
    8  A    between atoms: N_18  and  C_23
                            x       y       z     vdW  Elec       q    Type
                         _______ _______ _______ _____ _____    ______ ____

>  <TORSDO>
F 8

$$$$
=
 OpenBabel11072408333D

 26 28  0  0  1  0  0  0  0  0999 V2000
  189.6400  175.2910  145.7680 N   0  0  0  0  0  0  0  0  0  0  0  0
  188.9440  174.9300  143.6150 C   0  0  0  0  0  0  0  0  0  0  0  0
  189.5830  174.3860  144.6870 C   0  0  0  0  0  0  0  0  0  0  0  0
  188.9190  176.5060  145.4030 C   0  0  0  0  0  2  0  0  0  0  0  0
  188.4860  176.3150  143.9280 C   0  0  2  0  0  3  0  0  0  0  0  0
  190.0840  173.0860  144.6420 C   0  0  0  0  0  3  0  0  0  0  0  0
  188.7830  174.2090  142.4320 C   0  0  0  0  0  3  0  0  0  0  0  0
  189.9260  172.3730  143.4890 N   0  0  0  0  0  0  0  0  0  0  0  0
  189.2960  172.9010  142.3950 C   0  0  0  0  0  3  0  0  0  0  0  0
  187.0360  176.3880  143.8310 N   0  0  0  0  0  2  0  0  0  0  0  0
  186.0590  178.4680  143.9270 C   0  0  0  0  0  2  0  0  0  0  0  0
  184.9950  177.8130  146.5180 C   0  0  0  0  0  2  0  0  0  0  0  0
  185.5250  176.7900  145.5170 C   0  0  0  0  0  2  0  0  0  0  0  0
  184.4780  179.0380  145.7680 C   0  0  0  0  0  2  0  0  0  0  0  0
  186.6080  177.3760  144.7290 N   0  0  0  0  0  0  0  0  0  0  0  0
  185.5590  179.5850  144.8410 C   0  0  0  0  0  2  0  0  0  0  0  0
  189.9100  174.9240  147.0940 N   0  0  0  0  0  2  0  0  0  0  0  0
  191.0230  175.7400  147.5510 C   0  0  0  0  0  2  0  0  0  0  0  0
  192.3130  175.2910  146.8840 C   0  0  0  0  0  2  0  0  0  0  0  0
  194.1870  176.9580  146.8170 C   0  0  0  0  0  1  0  0  0  0  0  0
  192.9550  176.4340  146.0990 C   0  0  1  0  0  3  0  0  0  0  0  0
  193.4510  174.5310  144.4710 C   0  0  0  0  0  1  0  0  0  0  0  0
  193.3070  176.0370  144.6610 C   0  0  1  0  0  3  0  0  0  0  0  0
  192.3420  176.6130  143.6780 C   0  0  0  0  0  0  0  0  0  0  0  0
  191.7500  177.8500  143.9070 O   0  0  0  0  0  1  0  0  0  0  0  0
  192.0760  175.9820  142.6220 O   0  0  0  0  0  0  0  0  0  0  0  0
  1 17  1  0  0  0  0
  2  5  1  0  0  0  0
  2  3  1  0  0  0  0
  3  1  1  0  0  0  0
  4  1  1  0  0  0  0
  5 10  1  1  0  0  0
  5  4  1  0  0  0  0
  6  3  2  0  0  0  0
  7  2  2  0  0  0  0
  8  6  1  0  0  0  0
  9  7  1  0  0  0  0
  9  8  2  0  0  0  0
 10 15  1  0  0  0  0
 11 15  1  0  0  0  0
 11 16  1  0  0  0  0
 13 12  1  0  0  0  0
 14 12  1  0  0  0  0
 15 13  1  0  0  0  0
 16 14  1  0  0  0  0
 17 18  1  0  0  0  0
 19 18  1  0  0  0  0
 21 20  1  1  0  0  0
 21 19  1  0  0  0  0
 23 22  1  1  0  0  0
 23 21  1  0  0  0  0
 24 25  1  0  0  0  0
 24 23  1  0  0  0  0
 26 24  2  0  0  0  0
M  END
>  <MODEL>
2

>  <REMARK>
 VINA RESULT:      -6.3      3.015      5.565
  Name = 
  8 active torsions:
  status: ('A' for Active; 'I' for Inactive)
    1  A    between atoms: N_1  and  N_18
    2  A    between atoms: N_5  and  C_8
    3  A    between atoms: N_5  and  N_20
    4  A    between atoms: C_13  and  C_22
    5  A    between atoms: C_15  and  C_16
    6  A    between atoms: C_15  and  C_23
    7  A    between atoms: C_16  and  C_22
    8  A    between atoms: N_18  and  C_23
                            x       y       z     vdW  Elec       q    Type
                         _______ _______ _______ _____ _____    ______ ____

>  <TORSDO>
F 8

$$$$
=
 OpenBabel11072408333D

 26 28  0  0  1  0  0  0  0  0999 V2000
  190.2700  176.8970  142.8880 N   0  0  0  0  0  0  0  0  0  0  0  0
  188.3680  175.6570  142.5780 C   0  0  0  0  0  0  0  0  0  0  0  0
  189.7190  175.6920  142.4070 C   0  0  0  0  0  0  0  0  0  0  0  0
  189.2060  177.6950  143.4890 C   0  0  0  0  0  2  0  0  0  0  0  0
  187.8950  176.9060  143.2430 C   0  0  2  0  0  3  0  0  0  0  0  0
  190.3960  174.6220  141.8240 C   0  0  0  0  0  3  0  0  0  0  0  0
  187.6180  174.5570  142.1640 C   0  0  0  0  0  3  0  0  0  0  0  0
  189.6690  173.5400  141.4190 N   0  0  0  0  0  0  0  0  0  0  0  0
  188.3100  173.4870  141.5730 C   0  0  0  0  0  3  0  0  0  0  0  0
  187.2730  176.5810  144.5170 N   0  0  0  0  0  2  0  0  0  0  0  0
  185.3760  177.7610  143.9660 C   0  0  0  0  0  2  0  0  0  0  0  0
  185.1140  178.5620  146.7160 C   0  0  0  0  0  2  0  0  0  0  0  0
  185.9790  177.4010  146.2320 C   0  0  0  0  0  2  0  0  0  0  0  0
  183.9540  178.7710  145.7470 C   0  0  0  0  0  2  0  0  0  0  0  0
  186.5020  177.6890  144.8970 N   0  0  0  0  0  0  0  0  0  0  0  0
  184.4790  178.9430  144.3240 C   0  0  0  0  0  2  0  0  0  0  0  0
  191.6300  177.0870  143.1720 N   0  0  0  0  0  2  0  0  0  0  0  0
  191.8030  176.8990  144.6040 C   0  0  0  0  0  2  0  0  0  0  0  0
  192.4930  175.5730  144.8790 C   0  0  0  0  0  2  0  0  0  0  0  0
  192.0470  175.3540  147.3390 C   0  0  0  0  0  1  0  0  0  0  0  0
  191.7570  174.7830  145.9610 C   0  0  1  0  0  3  0  0  0  0  0  0
  189.7600  173.3390  145.2960 C   0  0  0  0  0  1  0  0  0  0  0  0
  190.2450  174.7210  145.7190 C   0  0  1  0  0  3  0  0  0  0  0  0
  189.4770  175.2230  146.8980 C   0  0  0  0  0  0  0  0  0  0  0  0
  189.3300  176.5880  147.1180 O   0  0  0  0  0  0  0  0  0  0  0  0
  188.9420  174.4030  147.6890 O   0  0  0  0  0  1  0  0  0  0  0  0
  1 17  1  0  0  0  0
  1  4  1  0  0  0  0
  2  5  1  0  0  0  0
  3  2  1  0  0  0  0
  3  1  1  0  0  0  0
  5  4  1  0  0  0  0
  5 10  1  1  0  0  0
  6  3  2  0  0  0  0
  7  2  2  0  0  0  0
  8  9  2  0  0  0  0
  8  6  1  0  0  0  0
  9  7  1  0  0  0  0
 10 15  1  0  0  0  0
 11 16  1  0  0  0  0
 11 15  1  0  0  0  0
 13 12  1  0  0  0  0
 14 12  1  0  0  0  0
 15 13  1  0  0  0  0
 16 14  1  0  0  0  0
 17 18  1  0  0  0  0
 18 19  1  0  0  0  0
 19 21  1  0  0  0  0
 21 20  1  1  0  0  0
 23 22  1  1  0  0  0
 23 21  1  0  0  0  0
 23 24  1  0  0  0  0
 24 25  2  0  0  0  0
 24 26  1  0  0  0  0
M  END
>  <MODEL>
3

>  <REMARK>
 VINA RESULT:      -6.2      2.306      5.223
  Name = 
  8 active torsions:
  status: ('A' for Active; 'I' for Inactive)
    1  A    between atoms: N_1  and  N_18
    2  A    between atoms: N_5  and  C_8
    3  A    between atoms: N_5  and  N_20
    4  A    between atoms: C_13  and  C_22
    5  A    between atoms: C_15  and  C_16
    6  A    between atoms: C_15  and  C_23
    7  A    between atoms: C_16  and  C_22
    8  A    between atoms: N_18  and  C_23
                            x       y       z     vdW  Elec       q    Type
                         _______ _______ _______ _____ _____    ______ ____

>  <TORSDO>
F 8

$$$$
=
 OpenBabel11072408333D

 26 28  0  0  1  0  0  0  0  0999 V2000
  189.7030  176.6850  144.1890 N   0  0  0  0  0  0  0  0  0  0  0  0
  191.3840  176.2060  145.6710 C   0  0  0  0  0  0  0  0  0  0  0  0
  190.0370  176.1870  145.4650 C   0  0  0  0  0  0  0  0  0  0  0  0
  190.9330  176.9940  143.4670 C   0  0  0  0  0  2  0  0  0  0  0  0
  192.0870  176.7350  144.4660 C   0  0  2  0  0  3  0  0  0  0  0  0
  189.1680  175.7120  146.4450 C   0  0  0  0  0  3  0  0  0  0  0  0
  191.9340  175.7640  146.8740 C   0  0  0  0  0  3  0  0  0  0  0  0
  189.7000  175.2740  147.6240 N   0  0  0  0  0  0  0  0  0  0  0  0
  191.0480  175.2920  147.8570 C   0  0  0  0  0  3  0  0  0  0  0  0
  192.9790  175.7170  143.9300 N   0  0  0  0  0  2  0  0  0  0  0  0
  195.2380  176.1040  144.1260 C   0  0  0  0  0  2  0  0  0  0  0  0
  195.3940  176.4410  141.2730 C   0  0  0  0  0  2  0  0  0  0  0  0
  194.2310  175.7730  142.0030 C   0  0  0  0  0  2  0  0  0  0  0  0
  196.6710  176.2760  142.0930 C   0  0  0  0  0  2  0  0  0  0  0  0
  194.0500  176.3830  143.3190 N   0  0  0  0  0  0  0  0  0  0  0  0
  196.4560  176.7910  143.5140 C   0  0  0  0  0  2  0  0  0  0  0  0
  188.4700  176.4750  143.5560 N   0  0  0  0  0  2  0  0  0  0  0  0
  187.7470  177.7360  143.5870 C   0  0  0  0  0  2  0  0  0  0  0  0
  186.5480  177.6330  144.5160 C   0  0  0  0  0  2  0  0  0  0  0  0
  185.4050  179.8400  144.1680 C   0  0  0  0  0  1  0  0  0  0  0  0
  186.2120  178.9890  145.1350 C   0  0  1  0  0  3  0  0  0  0  0  0
  184.0670  178.2900  146.3290 C   0  0  0  0  0  1  0  0  0  0  0  0
  185.4730  178.8600  146.4710 C   0  0  1  0  0  3  0  0  0  0  0  0
  186.2700  178.0840  147.4690 C   0  0  0  0  0  0  0  0  0  0  0  0
  187.3560  178.6650  148.1150 O   0  0  0  0  0  1  0  0  0  0  0  0
  185.9440  176.8990  147.7410 O   0  0  0  0  0  0  0  0  0  0  0  0
  1  3  1  0  0  0  0
  2  7  1  0  0  0  0
  3  2  2  0  0  0  0
  3  6  1  0  0  0  0
  4  1  1  0  0  0  0
  4  5  1  0  0  0  0
  5 10  1  6  0  0  0
  5  2  1  0  0  0  0
  6  8  2  0  0  0  0
  7  9  2  0  0  0  0
  8  9  1  0  0  0  0
 12 13  1  0  0  0  0
 12 14  1  0  0  0  0
 13 15  1  0  0  0  0
 14 16  1  0  0  0  0
 15 10  1  0  0  0  0
 15 11  1  0  0  0  0
 16 11  1  0  0  0  0
 17 18  1  0  0  0  0
 17  1  1  0  0  0  0
 18 19  1  0  0  0  0
 19 21  1  0  0  0  0
 21 20  1  6  0  0  0
 21 23  1  0  0  0  0
 23 22  1  6  0  0  0
 23 24  1  0  0  0  0
 24 26  2  0  0  0  0
 24 25  1  0  0  0  0
M  END
>  <MODEL>
4

>  <REMARK>
 VINA RESULT:      -6.1      1.875      4.305
  Name = 
  8 active torsions:
  status: ('A' for Active; 'I' for Inactive)
    1  A    between atoms: N_1  and  N_18
    2  A    between atoms: N_5  and  C_8
    3  A    between atoms: N_5  and  N_20
    4  A    between atoms: C_13  and  C_22
    5  A    between atoms: C_15  and  C_16
    6  A    between atoms: C_15  and  C_23
    7  A    between atoms: C_16  and  C_22
    8  A    between atoms: N_18  and  C_23
                            x       y       z     vdW  Elec       q    Type
                         _______ _______ _______ _____ _____    ______ ____

>  <TORSDO>
F 8

$$$$
=
 OpenBabel11072408333D

 26 28  0  0  1  0  0  0  0  0999 V2000
  188.5630  176.4530  142.3350 N   0  0  0  0  0  0  0  0  0  0  0  0
  189.6790  174.6830  143.2690 C   0  0  0  0  0  0  0  0  0  0  0  0
  188.6440  175.0510  142.4640 C   0  0  0  0  0  0  0  0  0  0  0  0
  189.6760  177.0570  143.0590 C   0  0  0  0  0  2  0  0  0  0  0  0
  190.4180  175.8860  143.7510 C   0  0  2  0  0  3  0  0  0  0  0  0
  187.8190  174.0960  141.8740 C   0  0  0  0  0  3  0  0  0  0  0  0
  189.9370  173.3400  143.5400 C   0  0  0  0  0  3  0  0  0  0  0  0
  188.0680  172.7790  142.1310 N   0  0  0  0  0  0  0  0  0  0  0  0
  189.0960  172.3850  142.9440 C   0  0  0  0  0  3  0  0  0  0  0  0
  191.7960  175.8370  143.2860 N   0  0  0  0  0  2  0  0  0  0  0  0
  192.2120  175.7640  145.5480 C   0  0  0  0  0  2  0  0  0  0  0  0
  194.9120  176.6180  145.0460 C   0  0  0  0  0  2  0  0  0  0  0  0
  193.9760  176.0420  143.9860 C   0  0  0  0  0  2  0  0  0  0  0  0
  194.5280  176.0690  146.4170 C   0  0  0  0  0  2  0  0  0  0  0  0
  192.5930  176.4050  144.2900 N   0  0  0  0  0  0  0  0  0  0  0  0
  193.0490  176.3250  146.6940 C   0  0  0  0  0  2  0  0  0  0  0  0
  187.8500  177.1150  141.3260 N   0  0  0  0  0  2  0  0  0  0  0  0
  187.1770  178.2470  141.9420 C   0  0  0  0  0  2  0  0  0  0  0  0
  186.1190  177.7610  142.9190 C   0  0  0  0  0  2  0  0  0  0  0  0
  185.3540  179.6860  144.3360 C   0  0  0  0  0  1  0  0  0  0  0  0
  186.2520  178.4620  144.2700 C   0  0  1  0  0  3  0  0  0  0  0  0
  187.1370  176.6200  145.8000 C   0  0  0  0  0  1  0  0  0  0  0  0
  185.9630  177.5280  145.4500 C   0  0  1  0  0  3  0  0  0  0  0  0
  185.4910  178.2830  146.6490 C   0  0  0  0  0  0  0  0  0  0  0  0
  184.1370  178.3470  146.9590 O   0  0  0  0  0  0  0  0  0  0  0  0
  186.3290  178.8520  147.3970 O   0  0  0  0  0  1  0  0  0  0  0  0
  1  3  1  0  0  0  0
  1  4  1  0  0  0  0
  2  7  1  0  0  0  0
  2  5  1  0  0  0  0
  3  2  2  0  0  0  0
  4  5  1  0  0  0  0
  5 10  1  6  0  0  0
  6  8  2  0  0  0  0
  6  3  1  0  0  0  0
  8  9  1  0  0  0  0
  9  7  2  0  0  0  0
 10 15  1  0  0  0  0
 11 16  1  0  0  0  0
 12 14  1  0  0  0  0
 13 15  1  0  0  0  0
 13 12  1  0  0  0  0
 14 16  1  0  0  0  0
 15 11  1  0  0  0  0
 17 18  1  0  0  0  0
 17  1  1  0  0  0  0
 18 19  1  0  0  0  0
 19 21  1  0  0  0  0
 21 20  1  6  0  0  0
 21 23  1  0  0  0  0
 23 22  1  1  0  0  0
 23 24  1  0  0  0  0
 24 25  2  0  0  0  0
 24 26  1  0  0  0  0
M  END
>  <MODEL>
5

>  <REMARK>
 VINA RESULT:      -6.1      1.822      4.854
  Name = 
  8 active torsions:
  status: ('A' for Active; 'I' for Inactive)
    1  A    between atoms: N_1  and  N_18
    2  A    between atoms: N_5  and  C_8
    3  A    between atoms: N_5  and  N_20
    4  A    between atoms: C_13  and  C_22
    5  A    between atoms: C_15  and  C_16
    6  A    between atoms: C_15  and  C_23
    7  A    between atoms: C_16  and  C_22
    8  A    between atoms: N_18  and  C_23
                            x       y       z     vdW  Elec       q    Type
                         _______ _______ _______ _____ _____    ______ ____

>  <TORSDO>
F 8

$$$$
=
 OpenBabel11072408333D

 26 28  0  0  1  0  0  0  0  0999 V2000
  188.1480  175.0440  142.7670 N   0  0  0  0  0  0  0  0  0  0  0  0
  190.2350  174.3120  142.1660 C   0  0  0  0  0  0  0  0  0  0  0  0
  188.9550  174.5060  141.7430 C   0  0  0  0  0  0  0  0  0  0  0  0
  188.9790  175.2890  143.9410 C   0  0  0  0  0  2  0  0  0  0  0  0
  190.3870  174.7490  143.5850 C   0  0  2  0  0  3  0  0  0  0  0  0
  188.5740  174.1910  140.4400 C   0  0  0  0  0  3  0  0  0  0  0  0
  191.2010  173.7780  141.3140 C   0  0  0  0  0  3  0  0  0  0  0  0
  189.5160  173.6720  139.5990 N   0  0  0  0  0  0  0  0  0  0  0  0
  190.8050  173.4600  140.0040 C   0  0  0  0  0  3  0  0  0  0  0  0
  191.3600  175.8280  143.6660 N   0  0  0  0  0  2  0  0  0  0  0  0
  192.9880  174.4660  144.5520 C   0  0  0  0  0  2  0  0  0  0  0  0
  193.8380  176.6340  146.2400 C   0  0  0  0  0  2  0  0  0  0  0  0
  192.9640  176.7960  144.9990 C   0  0  0  0  0  2  0  0  0  0  0  0
  194.7190  175.3980  146.0840 C   0  0  0  0  0  2  0  0  0  0  0  0
  192.1220  175.6130  144.8230 N   0  0  0  0  0  0  0  0  0  0  0  0
  193.8630  174.1750  145.7690 C   0  0  0  0  0  2  0  0  0  0  0  0
  186.9120  175.6700  142.5540 N   0  0  0  0  0  2  0  0  0  0  0  0
  187.0330  177.0390  143.0270 C   0  0  0  0  0  2  0  0  0  0  0  0
  185.9040  177.3640  143.9920 C   0  0  0  0  0  2  0  0  0  0  0  0
  185.3570  179.8080  144.1510 C   0  0  0  0  0  1  0  0  0  0  0  0
  186.1750  178.6700  144.7380 C   0  0  1  0  0  3  0  0  0  0  0  0
  184.4540  178.2940  146.5850 C   0  0  0  0  0  1  0  0  0  0  0  0
  185.9170  178.5520  146.2440 C   0  0  1  0  0  3  0  0  0  0  0  0
  186.8050  177.5330  146.8780 C   0  0  0  0  0  0  0  0  0  0  0  0
  188.1740  177.5340  146.6330 O   0  0  0  0  0  0  0  0  0  0  0  0
  186.3130  176.6750  147.6570 O   0  0  0  0  0  1  0  0  0  0  0  0
  1  4  1  0  0  0  0
  2  5  1  0  0  0  0
  3  2  1  0  0  0  0
  3  1  1  0  0  0  0
  5 10  1  6  0  0  0
  5  4  1  0  0  0  0
  6  3  2  0  0  0  0
  7  2  2  0  0  0  0
  8  9  2  0  0  0  0
  8  6  1  0  0  0  0
  9  7  1  0  0  0  0
 10 15  1  0  0  0  0
 11 15  1  0  0  0  0
 11 16  1  0  0  0  0
 13 12  1  0  0  0  0
 14 12  1  0  0  0  0
 15 13  1  0  0  0  0
 16 14  1  0  0  0  0
 17  1  1  0  0  0  0
 17 18  1  0  0  0  0
 18 19  1  0  0  0  0
 19 21  1  0  0  0  0
 21 20  1  6  0  0  0
 21 23  1  0  0  0  0
 23 22  1  6  0  0  0
 23 24  1  0  0  0  0
 24 26  1  0  0  0  0
 25 24  2  0  0  0  0
M  END
>  <MODEL>
6

>  <REMARK>
 VINA RESULT:      -6.1      2.189      4.950
  Name = 
  8 active torsions:
  status: ('A' for Active; 'I' for Inactive)
    1  A    between atoms: N_1  and  N_18
    2  A    between atoms: N_5  and  C_8
    3  A    between atoms: N_5  and  N_20
    4  A    between atoms: C_13  and  C_22
    5  A    between atoms: C_15  and  C_16
    6  A    between atoms: C_15  and  C_23
    7  A    between atoms: C_16  and  C_22
    8  A    between atoms: N_18  and  C_23
                            x       y       z     vdW  Elec       q    Type
                         _______ _______ _______ _____ _____    ______ ____

>  <TORSDO>
F 8

$$$$
=
 OpenBabel11072408333D

 26 28  0  0  1  0  0  0  0  0999 V2000
  189.7350  177.2440  144.3710 N   0  0  0  0  0  0  0  0  0  0  0  0
  191.3610  175.8350  145.1600 C   0  0  0  0  0  0  0  0  0  0  0  0
  190.3590  176.6890  145.5080 C   0  0  0  0  0  0  0  0  0  0  0  0
  190.3270  176.6550  143.1750 C   0  0  0  0  0  2  0  0  0  0  0  0
  191.4720  175.7400  143.6750 C   0  0  2  0  0  3  0  0  0  0  0  0
  190.0490  176.9250  146.8460 C   0  0  0  0  0  3  0  0  0  0  0  0
  192.1180  175.1800  146.1310 C   0  0  0  0  0  3  0  0  0  0  0  0
  190.7840  176.2850  147.8020 N   0  0  0  0  0  0  0  0  0  0  0  0
  191.8010  175.4290  147.4760 C   0  0  0  0  0  3  0  0  0  0  0  0
  191.2250  174.3700  143.2490 N   0  0  0  0  0  2  0  0  0  0  0  0
  190.6590  173.8070  141.0920 C   0  0  0  0  0  2  0  0  0  0  0  0
  187.9190  173.5240  141.9190 C   0  0  0  0  0  2  0  0  0  0  0  0
  189.1120  173.5470  142.8720 C   0  0  0  0  0  2  0  0  0  0  0  0
  188.3640  172.9930  140.5590 C   0  0  0  0  0  2  0  0  0  0  0  0
  190.1660  174.4050  142.3320 N   0  0  0  0  0  0  0  0  0  0  0  0
  189.5520  173.7990  140.0410 C   0  0  0  0  0  2  0  0  0  0  0  0
  188.4780  177.8650  144.3830 N   0  0  0  0  0  2  0  0  0  0  0  0
  187.4860  176.8400  144.1020 C   0  0  0  0  0  2  0  0  0  0  0  0
  186.0880  177.3710  144.3780 C   0  0  0  0  0  2  0  0  0  0  0  0
  185.5330  179.8030  144.1080 C   0  0  0  0  0  1  0  0  0  0  0  0
  186.1420  178.7550  145.0240 C   0  0  1  0  0  3  0  0  0  0  0  0
  184.0780  178.1540  146.4000 C   0  0  0  0  0  1  0  0  0  0  0  0
  185.4620  178.7900  146.3970 C   0  0  1  0  0  3  0  0  0  0  0  0
  186.3300  178.1950  147.4570 C   0  0  0  0  0  0  0  0  0  0  0  0
  187.0670  179.0090  148.3110 O   0  0  0  0  0  1  0  0  0  0  0  0
  186.3800  176.9450  147.5920 O   0  0  0  0  0  0  0  0  0  0  0  0
  1 17  1  0  0  0  0
  1  3  1  0  0  0  0
  2  3  2  0  0  0  0
  2  7  1  0  0  0  0
  3  6  1  0  0  0  0
  4  5  1  0  0  0  0
  4  1  1  0  0  0  0
  5 10  1  1  0  0  0
  5  2  1  0  0  0  0
  6  8  2  0  0  0  0
  7  9  2  0  0  0  0
  9  8  1  0  0  0  0
 11 15  1  0  0  0  0
 12 13  1  0  0  0  0
 14 12  1  0  0  0  0
 15 13  1  0  0  0  0
 15 10  1  0  0  0  0
 16 14  1  0  0  0  0
 16 11  1  0  0  0  0
 18 19  1  0  0  0  0
 18 17  1  0  0  0  0
 19 21  1  0  0  0  0
 21 20  1  6  0  0  0
 21 23  1  0  0  0  0
 23 22  1  6  0  0  0
 23 24  1  0  0  0  0
 24 26  2  0  0  0  0
 24 25  1  0  0  0  0
M  END
>  <MODEL>
7

>  <REMARK>
 VINA RESULT:      -6.0      1.915      2.803
  Name = 
  8 active torsions:
  status: ('A' for Active; 'I' for Inactive)
    1  A    between atoms: N_1  and  N_18
    2  A    between atoms: N_5  and  C_8
    3  A    between atoms: N_5  and  N_20
    4  A    between atoms: C_13  and  C_22
    5  A    between atoms: C_15  and  C_16
    6  A    between atoms: C_15  and  C_23
    7  A    between atoms: C_16  and  C_22
    8  A    between atoms: N_18  and  C_23
                            x       y       z     vdW  Elec       q    Type
                         _______ _______ _______ _____ _____    ______ ____

>  <TORSDO>
F 8

$$$$
=
 OpenBabel11072408333D

 26 28  0  0  1  0  0  0  0  0999 V2000
  188.2560  176.0270  145.7410 N   0  0  0  0  0  0  0  0  0  0  0  0
  190.2790  176.3380  144.7110 C   0  0  0  0  0  0  0  0  0  0  0  0
  188.9530  176.6470  144.6840 C   0  0  0  0  0  0  0  0  0  0  0  0
  189.2110  175.3050  146.5750 C   0  0  0  0  0  2  0  0  0  0  0  0
  190.5830  175.4490  145.8700 C   0  0  2  0  0  3  0  0  0  0  0  0
  188.4320  177.4860  143.7010 C   0  0  0  0  0  3  0  0  0  0  0  0
  191.1550  176.8390  143.7490 C   0  0  0  0  0  3  0  0  0  0  0  0
  189.2840  177.9840  142.7570 N   0  0  0  0  0  0  0  0  0  0  0  0
  190.6180  177.6800  142.7590 C   0  0  0  0  0  3  0  0  0  0  0  0
  191.5250  176.1070  146.7630 N   0  0  0  0  0  2  0  0  0  0  0  0
  192.4870  174.2390  145.8270 C   0  0  0  0  0  2  0  0  0  0  0  0
  195.0750  175.4580  146.1340 C   0  0  0  0  0  2  0  0  0  0  0  0
  193.7500  176.2140  146.1920 C   0  0  0  0  0  2  0  0  0  0  0  0
  194.9140  174.2180  145.2580 C   0  0  0  0  0  2  0  0  0  0  0  0
  192.7070  175.3530  146.7490 N   0  0  0  0  0  0  0  0  0  0  0  0
  193.7420  173.3730  145.7490 C   0  0  0  0  0  2  0  0  0  0  0  0
  186.9840  176.4150  146.1860 N   0  0  0  0  0  2  0  0  0  0  0  0
  187.1460  177.6530  146.9320 C   0  0  0  0  0  2  0  0  0  0  0  0
  186.3580  178.7720  146.2710 C   0  0  0  0  0  2  0  0  0  0  0  0
  183.9400  178.2840  146.7320 C   0  0  0  0  0  1  0  0  0  0  0  0
  185.0450  178.2520  145.6880 C   0  0  1  0  0  3  0  0  0  0  0  0
  185.5550  180.1610  144.0720 C   0  0  0  0  0  1  0  0  0  0  0  0
  184.6130  179.0190  144.4330 C   0  0  1  0  0  3  0  0  0  0  0  0
  184.4060  178.1030  143.2720 C   0  0  0  0  0  0  0  0  0  0  0  0
  183.3360  178.2900  142.4030 O   0  0  0  0  0  0  0  0  0  0  0  0
  185.2180  177.1640  143.0670 O   0  0  0  0  0  1  0  0  0  0  0  0
  1 17  1  0  0  0  0
  1  4  1  0  0  0  0
  2  5  1  0  0  0  0
  3  2  1  0  0  0  0
  3  1  1  0  0  0  0
  5  4  1  0  0  0  0
  5 10  1  1  0  0  0
  6  3  2  0  0  0  0
  7  2  2  0  0  0  0
  8  9  2  0  0  0  0
  8  6  1  0  0  0  0
  9  7  1  0  0  0  0
 11 15  1  0  0  0  0
 12 13  1  0  0  0  0
 13 15  1  0  0  0  0
 14 16  1  0  0  0  0
 14 12  1  0  0  0  0
 15 10  1  0  0  0  0
 16 11  1  0  0  0  0
 17 18  1  0  0  0  0
 19 18  1  0  0  0  0
 21 19  1  0  0  0  0
 21 20  1  1  0  0  0
 23 22  1  6  0  0  0
 23 21  1  0  0  0  0
 24 23  1  0  0  0  0
 25 24  2  0  0  0  0
 26 24  1  0  0  0  0
M  END
>  <MODEL>
8

>  <REMARK>
 VINA RESULT:      -6.0      2.132      4.838
  Name = 
  8 active torsions:
  status: ('A' for Active; 'I' for Inactive)
    1  A    between atoms: N_1  and  N_18
    2  A    between atoms: N_5  and  C_8
    3  A    between atoms: N_5  and  N_20
    4  A    between atoms: C_13  and  C_22
    5  A    between atoms: C_15  and  C_16
    6  A    between atoms: C_15  and  C_23
    7  A    between atoms: C_16  and  C_22
    8  A    between atoms: N_18  and  C_23
                            x       y       z     vdW  Elec       q    Type
                         _______ _______ _______ _____ _____    ______ ____

>  <TORSDO>
F 8

$$$$
=
 OpenBabel11072408333D

 26 28  0  0  1  0  0  0  0  0999 V2000
  190.2980  176.8550  143.8300 N   0  0  0  0  0  0  0  0  0  0  0  0
  188.7070  176.0090  142.4140 C   0  0  0  0  0  0  0  0  0  0  0  0
  190.0040  175.9150  142.8210 C   0  0  0  0  0  0  0  0  0  0  0  0
  189.0780  177.5820  144.1660 C   0  0  0  0  0  2  0  0  0  0  0  0
  187.9960  177.0720  143.1830 C   0  0  2  0  0  3  0  0  0  0  0  0
  190.8650  174.9730  142.2600 C   0  0  0  0  0  3  0  0  0  0  0  0
  188.2040  175.1760  141.4150 C   0  0  0  0  0  3  0  0  0  0  0  0
  190.3780  174.1520  141.2850 N   0  0  0  0  0  0  0  0  0  0  0  0
  189.0820  174.2340  140.8540 C   0  0  0  0  0  3  0  0  0  0  0  0
  186.8930  176.4850  143.9300 N   0  0  0  0  0  2  0  0  0  0  0  0
  185.3800  178.2170  143.8860 C   0  0  0  0  0  2  0  0  0  0  0  0
  184.9720  177.8890  146.7150 C   0  0  0  0  0  2  0  0  0  0  0  0
  185.6140  176.8430  145.8070 C   0  0  0  0  0  2  0  0  0  0  0  0
  184.0090  178.7480  145.9000 C   0  0  0  0  0  2  0  0  0  0  0  0
  186.3420  177.5020  144.7230 N   0  0  0  0  0  0  0  0  0  0  0  0
  184.7250  179.3390  144.6880 C   0  0  0  0  0  2  0  0  0  0  0  0
  191.4100  176.7800  144.6810 N   0  0  0  0  0  2  0  0  0  0  0  0
  190.9830  176.0980  145.8920 C   0  0  0  0  0  2  0  0  0  0  0  0
  192.1910  175.6510  146.6980 C   0  0  0  0  0  2  0  0  0  0  0  0
  194.2080  177.1400  146.7960 C   0  0  0  0  0  1  0  0  0  0  0  0
  193.4930  176.0550  146.0090 C   0  0  1  0  0  3  0  0  0  0  0  0
  193.6890  173.5510  145.5520 C   0  0  0  0  0  1  0  0  0  0  0  0
  194.4300  174.8640  145.7750 C   0  0  1  0  0  3  0  0  0  0  0  0
  195.3960  175.1320  144.6670 C   0  0  0  0  0  0  0  0  0  0  0  0
  196.7310  174.7610  144.7850 O   0  0  0  0  0  1  0  0  0  0  0  0
  194.9930  175.6810  143.6080 O   0  0  0  0  0  0  0  0  0  0  0  0
  1  4  1  0  0  0  0
  1 17  1  0  0  0  0
  2  3  1  0  0  0  0
  2  5  1  0  0  0  0
  3  1  1  0  0  0  0
  5 10  1  1  0  0  0
  5  4  1  0  0  0  0
  6  3  2  0  0  0  0
  7  2  2  0  0  0  0
  8  6  1  0  0  0  0
  9  8  2  0  0  0  0
  9  7  1  0  0  0  0
 10 15  1  0  0  0  0
 11 16  1  0  0  0  0
 11 15  1  0  0  0  0
 13 12  1  0  0  0  0
 14 12  1  0  0  0  0
 15 13  1  0  0  0  0
 16 14  1  0  0  0  0
 17 18  1  0  0  0  0
 18 19  1  0  0  0  0
 21 19  1  0  0  0  0
 21 20  1  1  0  0  0
 23 22  1  6  0  0  0
 23 21  1  0  0  0  0
 24 25  1  0  0  0  0
 24 23  1  0  0  0  0
 26 24  2  0  0  0  0
M  END
>  <MODEL>
9

>  <REMARK>
 VINA RESULT:      -6.0      3.595      6.510
  Name = 
  8 active torsions:
  status: ('A' for Active; 'I' for Inactive)
    1  A    between atoms: N_1  and  N_18
    2  A    between atoms: N_5  and  C_8
    3  A    between atoms: N_5  and  N_20
    4  A    between atoms: C_13  and  C_22
    5  A    between atoms: C_15  and  C_16
    6  A    between atoms: C_15  and  C_23
    7  A    between atoms: C_16  and  C_22
    8  A    between atoms: N_18  and  C_23
                            x       y       z     vdW  Elec       q    Type
                         _______ _______ _______ _____ _____    ______ ____

>  <TORSDO>
F 8

$$$$
