=
 OpenBabel11072409053D

 47 51  0  0  1  0  0  0  0  0999 V2000
  193.1070  175.1290  141.7130 C   0  0  0  0  0  2  0  0  0  0  0  0
  188.0190  175.2430  142.7040 C   0  0  0  0  0  3  0  0  0  0  0  0
  189.9420  172.4180  141.8660 N   0  0  0  0  0  0  0  0  0  0  0  0
  188.4750  173.9950  142.3250 C   0  0  0  0  0  0  0  0  0  0  0  0
  191.3220  177.0550  143.2290 C   0  0  0  0  0  3  0  0  0  0  0  0
  187.7990  172.8430  142.0020 C   0  0  0  0  0  3  0  0  0  0  0  0
  188.9690  176.2360  142.9990 C   0  0  0  0  0  0  0  0  0  0  0  0
  188.7330  171.9420  141.7380 O   0  0  0  0  0  0  0  0  0  0  0  0
  190.3770  175.9520  142.9020 C   0  0  0  0  0  0  0  0  0  0  0  0
  192.2090  174.1700  142.4620 C   0  0  0  0  0  2  0  0  0  0  0  0
  193.6600  176.1710  142.6670 C   0  0  1  0  0  3  0  0  0  0  0  0
  192.6540  177.1720  143.1340 C   0  0  0  0  0  3  0  0  0  0  0  0
  189.7930  173.7020  142.2310 C   0  0  0  0  0  0  0  0  0  0  0  0
  190.7900  174.6400  142.5040 C   0  0  0  0  0  0  0  0  0  0  0  0
  186.2890  177.3460  145.5760 C   0  0  1  0  0  3  0  0  0  0  0  0
  186.2570  180.1370  143.1830 O   0  0  0  0  0  0  0  0  0  0  0  0
  186.9870  177.9080  142.8250 C   0  0  1  0  0  3  0  0  0  0  0  0
  185.8330  178.7300  145.0350 C   0  0  1  0  0  3  0  0  0  0  0  0
  188.6080  177.9580  144.7770 N   0  0  0  0  0  2  0  0  0  0  0  0
  188.3890  177.5840  143.3690 C   0  0  1  0  0  3  0  0  0  0  0  0
  186.3280  179.0040  143.6310 C   0  0  0  0  0  0  0  0  0  0  0  0
  187.8130  177.1550  145.7130 C   0  0  0  0  0  2  0  0  0  0  0  0
  185.6290  176.9560  146.8600 C   0  0  0  0  0  0  0  0  0  0  0  0
  184.7120  176.0920  146.8770 O   0  0  0  0  0  0  0  0  0  0  0  0
  186.0040  177.5850  148.0440 O   0  0  0  0  0  1  0  0  0  0  0  0
  184.3090  178.9140  145.0960 C   0  0  0  0  0  2  0  0  0  0  0  0
  183.6510  178.7480  143.7340 C   0  0  0  0  0  1  0  0  0  0  0  0
  187.0680  178.2580  141.4720 O   0  0  0  0  0  0  0  0  0  0  0  0
  184.9820  178.3360  140.3480 C   0  0  0  0  0  1  0  0  0  0  0  0
  186.1190  177.4610  140.8320 C   0  0  0  0  0  2  0  0  0  0  0  0
  194.3900  175.5440  143.8510 C   0  0  0  0  0  2  0  0  0  0  0  0
  195.8040  175.3580  143.5450 N   0  0  0  0  0  0  0  0  0  0  0  0
  195.2340  170.7500  145.4120 C   0  0  0  0  0  0  0  0  0  0  0  0
  196.4530  171.2660  145.9500 N   0  0  0  0  0  2  0  0  0  0  0  0
  195.9870  171.7260  142.2950 C   0  0  0  0  0  1  0  0  0  0  0  0
  195.3270  172.3460  143.5100 C   0  0  1  0  0  3  0  0  0  0  0  0
  196.5310  174.3980  144.3330 C   0  0  0  0  0  3  0  0  0  0  0  0
  194.6700  171.3290  144.2680 O   0  0  0  0  0  0  0  0  0  0  0  0
  194.6280  169.8190  146.0060 O   0  0  0  0  0  0  0  0  0  0  0  0
  197.2380  172.2520  145.2210 C   0  0  0  0  0  2  0  0  0  0  0  0
  196.3520  173.0720  144.3410 C   0  0  0  0  0  0  0  0  0  0  0  0
  197.1770  177.2410  143.3250 O   0  0  0  0  0  1  0  0  0  0  0  0
  196.4500  176.2840  142.6140 C   0  0  1  0  0  3  0  0  0  0  0  0
  197.3780  175.5410  141.6620 C   0  0  0  0  0  2  0  0  0  0  0  0
  196.6240  175.0830  140.4300 C   0  0  0  0  0  2  0  0  0  0  0  0
  197.4450  174.0560  139.6680 C   0  0  0  0  0  2  0  0  0  0  0  0
  196.5550  173.1640  138.9440 N   0  0  0  0  0  1  0  0  0  0  0  0
  1 10  1  0  0  0  0
  1 11  1  0  0  0  0
  2  7  2  0  0  0  0
  3 13  2  0  0  0  0
  4  2  1  0  0  0  0
  6  4  2  0  0  0  0
  8  3  1  0  0  0  0
  8  6  1  0  0  0  0
  9  7  1  0  0  0  0
  9  5  1  0  0  0  0
 10 14  1  0  0  0  0
 11 12  1  0  0  0  0
 11 31  1  1  0  0  0
 12  5  2  0  0  0  0
 13  4  1  0  0  0  0
 13 14  1  0  0  0  0
 14  9  2  0  0  0  0
 15 22  1  0  0  0  0
 15 23  1  1  0  0  0
 16 21  2  0  0  0  0
 17 28  1  6  0  0  0
 17 20  1  0  0  0  0
 17 21  1  0  0  0  0
 18 26  1  6  0  0  0
 18 15  1  0  0  0  0
 19 22  1  0  0  0  0
 20  7  1  1  0  0  0
 20 19  1  0  0  0  0
 21 18  1  0  0  0  0
 23 24  2  0  0  0  0
 23 25  1  0  0  0  0
 27 26  1  0  0  0  0
 29 30  1  0  0  0  0
 30 28  1  0  0  0  0
 32 31  1  0  0  0  0
 32 37  1  0  0  0  0
 33 34  1  0  0  0  0
 33 39  2  0  0  0  0
 36 35  1  6  0  0  0
 36 38  1  0  0  0  0
 36 41  1  0  0  0  0
 37 41  2  0  0  0  0
 38 33  1  0  0  0  0
 40 34  1  0  0  0  0
 41 40  1  0  0  0  0
 43 42  1  1  0  0  0
 43 32  1  0  0  0  0
 44 43  1  0  0  0  0
 45 44  1  0  0  0  0
 46 45  1  0  0  0  0
 47 46  1  0  0  0  0
M  END
>  <MODEL>
1

>  <REMARK>
 VINA RESULT:      -6.9      0.000      0.000
  Name = 
  12 active torsions:
  status: ('A' for Active; 'I' for Inactive)
    1  A    between atoms: O_1  and  C_9
    2  A    between atoms: O_1  and  C_35
    3  A    between atoms: C_3  and  C_13
    4  A    between atoms: C_6  and  C_12
    5  A    between atoms: C_11  and  C_17
    6  A    between atoms: C_13  and  C_42
    7  A    between atoms: C_14  and  N_39
    8  A    between atoms: C_14  and  C_43
    9  A    between atoms: C_22  and  C_26
   10  A    between atoms: C_28  and  N_39
   11  A    between atoms: C_33  and  N_39
   12  A    between atoms: C_33  and  C_42
                            x       y       z     vdW  Elec       q    Type
                         _______ _______ _______ _____ _____    ______ ____

>  <TORSDO>
F 12

$$$$
=
 OpenBabel11072409053D

 47 51  0  0  1  0  0  0  0  0999 V2000
  189.6900  177.9860  143.6750 C   0  0  0  0  0  2  0  0  0  0  0  0
  192.6400  176.0510  147.4730 C   0  0  0  0  0  3  0  0  0  0  0  0
  189.8780  178.2010  147.8350 N   0  0  0  0  0  0  0  0  0  0  0  0
  191.6760  176.9320  147.9240 C   0  0  0  0  0  0  0  0  0  0  0  0
  191.5040  175.5650  143.8760 C   0  0  0  0  0  3  0  0  0  0  0  0
  191.4810  177.5080  149.1560 C   0  0  0  0  0  3  0  0  0  0  0  0
  192.5670  175.6100  146.1400 C   0  0  0  0  0  0  0  0  0  0  0  0
  190.3920  178.2530  149.0350 O   0  0  0  0  0  0  0  0  0  0  0  0
  191.5150  176.0750  145.2740 C   0  0  0  0  0  0  0  0  0  0  0  0
  189.3400  177.4700  145.0530 C   0  0  0  0  0  2  0  0  0  0  0  0
  189.6430  176.8500  142.6710 C   0  0  1  0  0  3  0  0  0  0  0  0
  190.7630  175.8690  142.8010 C   0  0  0  0  0  3  0  0  0  0  0  0
  190.6750  177.3790  147.1320 C   0  0  0  0  0  0  0  0  0  0  0  0
  190.5430  176.9880  145.7970 C   0  0  0  0  0  0  0  0  0  0  0  0
  194.9040  175.5180  143.0440 C   0  0  1  0  0  3  0  0  0  0  0  0
  195.0230  172.0310  144.2000 O   0  0  0  0  0  0  0  0  0  0  0  0
  193.3440  173.6550  144.6140 C   0  0  1  0  0  3  0  0  0  0  0  0
  195.3870  174.0420  143.0120 C   0  0  1  0  0  3  0  0  0  0  0  0
  194.9850  175.3410  145.5650 N   0  0  0  0  0  2  0  0  0  0  0  0
  193.6790  174.6770  145.7140 C   0  0  1  0  0  3  0  0  0  0  0  0
  194.5980  173.1460  143.9410 C   0  0  0  0  0  0  0  0  0  0  0  0
  195.0440  176.2350  144.4030 C   0  0  0  0  0  2  0  0  0  0  0  0
  195.5090  176.3730  141.9760 C   0  0  0  0  0  0  0  0  0  0  0  0
  196.7000  176.7760  142.0710 O   0  0  0  0  0  1  0  0  0  0  0  0
  194.7360  176.7610  140.8860 O   0  0  0  0  0  0  0  0  0  0  0  0
  195.3880  173.4520  141.5940 C   0  0  0  0  0  2  0  0  0  0  0  0
  196.7610  172.9460  141.1790 C   0  0  0  0  0  1  0  0  0  0  0  0
  192.5970  172.6010  145.1520 O   0  0  0  0  0  0  0  0  0  0  0  0
  190.3030  172.2400  144.6750 C   0  0  0  0  0  1  0  0  0  0  0  0
  191.7180  172.2220  144.1380 C   0  0  0  0  0  2  0  0  0  0  0  0
  188.2950  176.1350  142.6660 C   0  0  0  0  0  2  0  0  0  0  0  0
  187.5520  176.4440  141.4500 N   0  0  0  0  0  0  0  0  0  0  0  0
  190.2950  172.4820  140.1000 C   0  0  0  0  0  0  0  0  0  0  0  0
  189.7610  173.0440  138.8990 N   0  0  0  0  0  2  0  0  0  0  0  0
  187.3440  172.6110  141.6850 C   0  0  0  0  0  1  0  0  0  0  0  0
  188.5130  173.5500  141.4630 C   0  0  1  0  0  3  0  0  0  0  0  0
  187.8500  175.6690  140.2750 C   0  0  0  0  0  3  0  0  0  0  0  0
  189.7170  172.7920  141.3380 O   0  0  0  0  0  0  0  0  0  0  0  0
  191.3280  171.7640  140.0540 O   0  0  0  0  0  0  0  0  0  0  0  0
  188.5000  173.7720  138.9060 C   0  0  0  0  0  2  0  0  0  0  0  0
  188.2710  174.3990  140.2430 C   0  0  0  0  0  0  0  0  0  0  0  0
  185.8570  177.5980  140.3200 O   0  0  0  0  0  1  0  0  0  0  0  0
  186.7060  177.6390  141.4280 C   0  0  1  0  0  3  0  0  0  0  0  0
  185.8780  177.7460  142.7020 C   0  0  0  0  0  2  0  0  0  0  0  0
  186.0300  179.1200  143.3230 C   0  0  0  0  0  2  0  0  0  0  0  0
  184.8060  179.4520  144.1610 C   0  0  0  0  0  2  0  0  0  0  0  0
  184.4180  178.2850  144.9350 N   0  0  0  0  0  1  0  0  0  0  0  0
  1 10  1  0  0  0  0
  2  4  1  0  0  0  0
  3  8  1  0  0  0  0
  4  6  2  0  0  0  0
  5  9  1  0  0  0  0
  7  2  2  0  0  0  0
  8  6  1  0  0  0  0
  9 14  2  0  0  0  0
  9  7  1  0  0  0  0
 10 14  1  0  0  0  0
 11 31  1  1  0  0  0
 11 12  1  0  0  0  0
 11  1  1  0  0  0  0
 12  5  2  0  0  0  0
 13  3  2  0  0  0  0
 13  4  1  0  0  0  0
 14 13  1  0  0  0  0
 15 23  1  6  0  0  0
 15 22  1  0  0  0  0
 17 28  1  1  0  0  0
 17 20  1  0  0  0  0
 18 26  1  6  0  0  0
 18 15  1  0  0  0  0
 18 21  1  0  0  0  0
 19 20  1  0  0  0  0
 20  7  1  6  0  0  0
 21 16  2  0  0  0  0
 21 17  1  0  0  0  0
 22 19  1  0  0  0  0
 23 24  1  0  0  0  0
 25 23  2  0  0  0  0
 27 26  1  0  0  0  0
 30 29  1  0  0  0  0
 30 28  1  0  0  0  0
 32 31  1  0  0  0  0
 33 38  1  0  0  0  0
 34 40  1  0  0  0  0
 34 33  1  0  0  0  0
 36 35  1  6  0  0  0
 37 32  1  0  0  0  0
 38 36  1  0  0  0  0
 39 33  2  0  0  0  0
 40 41  1  0  0  0  0
 41 37  2  0  0  0  0
 41 36  1  0  0  0  0
 43 42  1  6  0  0  0
 43 32  1  0  0  0  0
 43 44  1  0  0  0  0
 44 45  1  0  0  0  0
 45 46  1  0  0  0  0
 46 47  1  0  0  0  0
M  END
>  <MODEL>
2

>  <REMARK>
 VINA RESULT:      -6.7      2.494      9.095
  Name = 
  12 active torsions:
  status: ('A' for Active; 'I' for Inactive)
    1  A    between atoms: O_1  and  C_9
    2  A    between atoms: O_1  and  C_35
    3  A    between atoms: C_3  and  C_13
    4  A    between atoms: C_6  and  C_12
    5  A    between atoms: C_11  and  C_17
    6  A    between atoms: C_13  and  C_42
    7  A    between atoms: C_14  and  N_39
    8  A    between atoms: C_14  and  C_43
    9  A    between atoms: C_22  and  C_26
   10  A    between atoms: C_28  and  N_39
   11  A    between atoms: C_33  and  N_39
   12  A    between atoms: C_33  and  C_42
                            x       y       z     vdW  Elec       q    Type
                         _______ _______ _______ _____ _____    ______ ____

>  <TORSDO>
F 12

$$$$
=
 OpenBabel11072409053D

 47 51  0  0  1  0  0  0  0  0999 V2000
  189.7060  172.8560  144.0550 C   0  0  0  0  0  2  0  0  0  0  0  0
  192.5000  171.4840  139.9090 C   0  0  0  0  0  3  0  0  0  0  0  0
  189.0680  172.2590  139.9770 N   0  0  0  0  0  0  0  0  0  0  0  0
  191.1560  171.6480  139.6330 C   0  0  0  0  0  0  0  0  0  0  0  0
  192.6700  172.9440  143.4170 C   0  0  0  0  0  3  0  0  0  0  0  0
  190.4170  171.3460  138.5140 C   0  0  0  0  0  3  0  0  0  0  0  0
  192.9810  171.9170  141.1560 C   0  0  0  0  0  0  0  0  0  0  0  0
  189.1810  171.7360  138.7860 O   0  0  0  0  0  0  0  0  0  0  0  0
  192.0870  172.5110  142.1170 C   0  0  0  0  0  0  0  0  0  0  0  0
  189.6850  173.3460  142.6230 C   0  0  0  0  0  2  0  0  0  0  0  0
  190.6890  173.6790  144.8670 C   0  0  1  0  0  3  0  0  0  0  0  0
  192.1250  173.4120  144.5480 C   0  0  0  0  0  3  0  0  0  0  0  0
  190.2980  172.2070  140.5170 C   0  0  0  0  0  0  0  0  0  0  0  0
  190.7040  172.6550  141.7750 C   0  0  0  0  0  0  0  0  0  0  0  0
  194.9670  170.4530  144.1500 C   0  0  1  0  0  3  0  0  0  0  0  0
  197.5440  172.4030  142.4000 O   0  0  0  0  0  0  0  0  0  0  0  0
  195.1880  172.6690  142.3030 C   0  0  1  0  0  3  0  0  0  0  0  0
  196.4050  170.9920  143.9160 C   0  0  1  0  0  3  0  0  0  0  0  0
  194.7840  170.2540  141.6360 N   0  0  0  0  0  2  0  0  0  0  0  0
  194.4540  171.6680  141.3940 C   0  0  1  0  0  3  0  0  0  0  0  0
  196.4620  172.0710  142.8560 C   0  0  0  0  0  0  0  0  0  0  0  0
  194.3070  169.7680  142.9360 C   0  0  0  0  0  2  0  0  0  0  0  0
  194.8480  169.5570  145.3420 C   0  0  0  0  0  0  0  0  0  0  0  0
  195.1360  168.3330  145.2590 O   0  0  0  0  0  0  0  0  0  0  0  0
  194.3730  170.0710  146.5450 O   0  0  0  0  0  1  0  0  0  0  0  0
  197.0650  171.4950  145.2090 C   0  0  0  0  0  2  0  0  0  0  0  0
  196.4820  172.8190  145.6790 C   0  0  0  0  0  1  0  0  0  0  0  0
  195.4500  173.8500  141.6010 O   0  0  0  0  0  0  0  0  0  0  0  0
  194.3700  175.8960  142.1230 C   0  0  0  0  0  1  0  0  0  0  0  0
  195.3900  174.8640  142.5570 C   0  0  0  0  0  2  0  0  0  0  0  0
  190.3890  175.1740  144.8000 C   0  0  0  0  0  2  0  0  0  0  0  0
  190.0120  175.6830  146.1120 N   0  0  0  0  0  0  0  0  0  0  0  0
  186.2140  178.7390  144.9800 C   0  0  0  0  0  0  0  0  0  0  0  0
  185.7300  177.8270  145.9680 N   0  0  0  0  0  2  0  0  0  0  0  0
  187.6250  176.3010  143.1620 C   0  0  0  0  0  1  0  0  0  0  0  0
  188.0310  177.1710  144.3350 C   0  0  1  0  0  3  0  0  0  0  0  0
  188.6080  175.8320  146.3880 C   0  0  0  0  0  3  0  0  0  0  0  0
  187.3670  178.4330  144.2460 O   0  0  0  0  0  0  0  0  0  0  0  0
  185.6450  179.8500  144.8170 O   0  0  0  0  0  0  0  0  0  0  0  0
  186.2890  176.4880  146.0920 C   0  0  0  0  0  2  0  0  0  0  0  0
  187.7100  176.4740  145.6310 C   0  0  0  0  0  0  0  0  0  0  0  0
  191.3680  175.2610  147.9740 O   0  0  0  0  0  1  0  0  0  0  0  0
  191.0600  176.2050  146.9920 C   0  0  1  0  0  3  0  0  0  0  0  0
  192.3160  176.5480  146.2010 C   0  0  0  0  0  2  0  0  0  0  0  0
  193.5190  175.8230  146.7700 C   0  0  0  0  0  2  0  0  0  0  0  0
  194.7670  176.1870  145.9830 C   0  0  0  0  0  2  0  0  0  0  0  0
  194.6930  177.5790  145.5730 N   0  0  0  0  0  1  0  0  0  0  0  0
  1 11  1  0  0  0  0
  2  7  2  0  0  0  0
  3 13  2  0  0  0  0
  4  2  1  0  0  0  0
  4 13  1  0  0  0  0
  5 12  2  0  0  0  0
  6  8  1  0  0  0  0
  6  4  2  0  0  0  0
  7  9  1  0  0  0  0
  8  3  1  0  0  0  0
  9  5  1  0  0  0  0
 10  1  1  0  0  0  0
 11 31  1  6  0  0  0
 12 11  1  0  0  0  0
 13 14  1  0  0  0  0
 14  9  2  0  0  0  0
 14 10  1  0  0  0  0
 15 23  1  1  0  0  0
 16 21  2  0  0  0  0
 17 28  1  6  0  0  0
 17 21  1  0  0  0  0
 18 15  1  0  0  0  0
 18 26  1  1  0  0  0
 19 22  1  0  0  0  0
 20  7  1  1  0  0  0
 20 19  1  0  0  0  0
 20 17  1  0  0  0  0
 21 18  1  0  0  0  0
 22 15  1  0  0  0  0
 23 25  1  0  0  0  0
 24 23  2  0  0  0  0
 26 27  1  0  0  0  0
 28 30  1  0  0  0  0
 29 30  1  0  0  0  0
 31 32  1  0  0  0  0
 32 37  1  0  0  0  0
 32 43  1  0  0  0  0
 33 34  1  0  0  0  0
 34 40  1  0  0  0  0
 36 35  1  6  0  0  0
 36 41  1  0  0  0  0
 38 36  1  0  0  0  0
 38 33  1  0  0  0  0
 39 33  2  0  0  0  0
 41 40  1  0  0  0  0
 41 37  2  0  0  0  0
 43 42  1  1  0  0  0
 44 45  1  0  0  0  0
 44 43  1  0  0  0  0
 46 45  1  0  0  0  0
 47 46  1  0  0  0  0
M  END
>  <MODEL>
3

>  <REMARK>
 VINA RESULT:      -6.3      2.485      9.045
  Name = 
  12 active torsions:
  status: ('A' for Active; 'I' for Inactive)
    1  A    between atoms: O_1  and  C_9
    2  A    between atoms: O_1  and  C_35
    3  A    between atoms: C_3  and  C_13
    4  A    between atoms: C_6  and  C_12
    5  A    between atoms: C_11  and  C_17
    6  A    between atoms: C_13  and  C_42
    7  A    between atoms: C_14  and  N_39
    8  A    between atoms: C_14  and  C_43
    9  A    between atoms: C_22  and  C_26
   10  A    between atoms: C_28  and  N_39
   11  A    between atoms: C_33  and  N_39
   12  A    between atoms: C_33  and  C_42
                            x       y       z     vdW  Elec       q    Type
                         _______ _______ _______ _____ _____    ______ ____

>  <TORSDO>
F 12

$$$$
=
 OpenBabel11072409053D

 47 51  0  0  1  0  0  0  0  0999 V2000
  188.8920  174.2090  140.7700 C   0  0  0  0  0  2  0  0  0  0  0  0
  188.6920  177.6440  144.6480 C   0  0  0  0  0  3  0  0  0  0  0  0
  185.9660  176.3310  142.8500 N   0  0  0  0  0  0  0  0  0  0  0  0
  187.4570  177.3800  144.0870 C   0  0  0  0  0  0  0  0  0  0  0  0
  190.7840  174.9080  143.0350 C   0  0  0  0  0  3  0  0  0  0  0  0
  186.2360  177.9890  144.2550 C   0  0  0  0  0  3  0  0  0  0  0  0
  189.7730  176.8190  144.2930 C   0  0  0  0  0  0  0  0  0  0  0  0
  185.3910  177.3140  143.4900 O   0  0  0  0  0  0  0  0  0  0  0  0
  189.5910  175.7350  143.3630 C   0  0  0  0  0  0  0  0  0  0  0  0
  187.9250  174.3650  141.9240 C   0  0  0  0  0  2  0  0  0  0  0  0
  190.0400  173.3050  141.1780 C   0  0  1  0  0  3  0  0  0  0  0  0
  190.9940  173.9240  142.1490 C   0  0  0  0  0  3  0  0  0  0  0  0
  187.2590  176.3650  143.2140 C   0  0  0  0  0  0  0  0  0  0  0  0
  188.2880  175.5110  142.8130 C   0  0  0  0  0  0  0  0  0  0  0  0
  193.4630  176.1600  143.2920 C   0  0  1  0  0  3  0  0  0  0  0  0
  193.7500  176.8080  146.8980 O   0  0  0  0  0  0  0  0  0  0  0  0
  191.8420  176.0890  145.6870 C   0  0  1  0  0  3  0  0  0  0  0  0
  194.2300  176.3510  144.6300 C   0  0  1  0  0  3  0  0  0  0  0  0
  191.9470  178.0320  144.0580 N   0  0  0  0  0  2  0  0  0  0  0  0
  191.0970  177.1970  144.9220 C   0  0  1  0  0  3  0  0  0  0  0  0
  193.3100  176.4160  145.8290 C   0  0  0  0  0  0  0  0  0  0  0  0
  192.4950  177.2990  142.9110 C   0  0  0  0  0  2  0  0  0  0  0  0
  194.3530  175.8650  142.1260 C   0  0  0  0  0  0  0  0  0  0  0  0
  194.3260  174.7360  141.5650 O   0  0  0  0  0  0  0  0  0  0  0  0
  195.2490  176.8320  141.6830 O   0  0  0  0  0  1  0  0  0  0  0  0
  195.3040  175.2750  144.8530 C   0  0  0  0  0  2  0  0  0  0  0  0
  194.7010  173.9130  145.1680 C   0  0  0  0  0  1  0  0  0  0  0  0
  191.2470  175.8870  146.9370 O   0  0  0  0  0  0  0  0  0  0  0  0
  189.1650  174.7980  147.2580 C   0  0  0  0  0  1  0  0  0  0  0  0
  190.6140  174.6470  146.8440 C   0  0  0  0  0  2  0  0  0  0  0  0
  189.5600  171.9480  141.6830 C   0  0  0  0  0  2  0  0  0  0  0  0
  190.3570  170.8720  141.1050 N   0  0  0  0  0  0  0  0  0  0  0  0
  192.1090  172.8110  136.8380 C   0  0  0  0  0  0  0  0  0  0  0  0
  191.1300  171.8350  136.4760 N   0  0  0  0  0  2  0  0  0  0  0  0
  193.5980  170.7660  139.0380 C   0  0  0  0  0  1  0  0  0  0  0  0
  192.4410  171.7460  139.0570 C   0  0  1  0  0  3  0  0  0  0  0  0
  190.2570  170.6620  139.6850 C   0  0  0  0  0  3  0  0  0  0  0  0
  192.6840  172.7910  138.1150 O   0  0  0  0  0  0  0  0  0  0  0  0
  192.4050  173.7330  136.0330 O   0  0  0  0  0  0  0  0  0  0  0  0
  190.8590  170.6890  137.3340 C   0  0  0  0  0  2  0  0  0  0  0  0
  191.1500  171.0280  138.7590 C   0  0  0  0  0  0  0  0  0  0  0  0
  191.2530  168.7240  141.3590 O   0  0  0  0  0  1  0  0  0  0  0  0
  191.0440  169.9440  142.0050 C   0  0  1  0  0  3  0  0  0  0  0  0
  192.3810  170.5150  142.4610 C   0  0  0  0  0  2  0  0  0  0  0  0
  192.3340  170.8760  143.9320 C   0  0  0  0  0  2  0  0  0  0  0  0
  193.4640  170.1840  144.6750 C   0  0  0  0  0  2  0  0  0  0  0  0
  193.2250  168.7510  144.6950 N   0  0  0  0  0  1  0  0  0  0  0  0
  1 11  1  0  0  0  0
  1 10  1  0  0  0  0
  3 13  2  0  0  0  0
  3  8  1  0  0  0  0
  4  6  2  0  0  0  0
  4  2  1  0  0  0  0
  5  9  1  0  0  0  0
  7  2  2  0  0  0  0
  8  6  1  0  0  0  0
  9  7  1  0  0  0  0
 10 14  1  0  0  0  0
 11 31  1  1  0  0  0
 11 12  1  0  0  0  0
 12  5  2  0  0  0  0
 13  4  1  0  0  0  0
 14 13  1  0  0  0  0
 14  9  2  0  0  0  0
 15 23  1  6  0  0  0
 15 18  1  0  0  0  0
 17 21  1  0  0  0  0
 17 28  1  1  0  0  0
 18 26  1  1  0  0  0
 18 21  1  0  0  0  0
 19 20  1  0  0  0  0
 20  7  1  6  0  0  0
 20 17  1  0  0  0  0
 21 16  2  0  0  0  0
 22 15  1  0  0  0  0
 22 19  1  0  0  0  0
 24 23  2  0  0  0  0
 25 23  1  0  0  0  0
 26 27  1  0  0  0  0
 30 28  1  0  0  0  0
 30 29  1  0  0  0  0
 32 31  1  0  0  0  0
 32 43  1  0  0  0  0
 33 38  1  0  0  0  0
 34 33  1  0  0  0  0
 34 40  1  0  0  0  0
 36 35  1  6  0  0  0
 37 32  1  0  0  0  0
 38 36  1  0  0  0  0
 39 33  2  0  0  0  0
 40 41  1  0  0  0  0
 41 36  1  0  0  0  0
 41 37  2  0  0  0  0
 43 42  1  6  0  0  0
 43 44  1  0  0  0  0
 44 45  1  0  0  0  0
 45 46  1  0  0  0  0
 46 47  1  0  0  0  0
M  END
>  <MODEL>
4

>  <REMARK>
 VINA RESULT:      -6.2      3.293      7.414
  Name = 
  12 active torsions:
  status: ('A' for Active; 'I' for Inactive)
    1  A    between atoms: O_1  and  C_9
    2  A    between atoms: O_1  and  C_35
    3  A    between atoms: C_3  and  C_13
    4  A    between atoms: C_6  and  C_12
    5  A    between atoms: C_11  and  C_17
    6  A    between atoms: C_13  and  C_42
    7  A    between atoms: C_14  and  N_39
    8  A    between atoms: C_14  and  C_43
    9  A    between atoms: C_22  and  C_26
   10  A    between atoms: C_28  and  N_39
   11  A    between atoms: C_33  and  N_39
   12  A    between atoms: C_33  and  C_42
                            x       y       z     vdW  Elec       q    Type
                         _______ _______ _______ _____ _____    ______ ____

>  <TORSDO>
F 12

$$$$
=
 OpenBabel11072409053D

 47 51  0  0  1  0  0  0  0  0999 V2000
  191.0970  176.7450  143.1680 C   0  0  0  0  0  2  0  0  0  0  0  0
  195.1980  173.8160  141.9540 C   0  0  0  0  0  3  0  0  0  0  0  0
  195.0880  176.4100  144.3300 N   0  0  0  0  0  0  0  0  0  0  0  0
  195.4870  174.8090  142.8710 C   0  0  0  0  0  0  0  0  0  0  0  0
  191.4000  174.0060  141.9020 C   0  0  0  0  0  3  0  0  0  0  0  0
  196.6850  175.2570  143.3730 C   0  0  0  0  0  3  0  0  0  0  0  0
  193.8500  173.5640  141.6490 C   0  0  0  0  0  0  0  0  0  0  0  0
  196.3750  176.2120  144.2380 O   0  0  0  0  0  0  0  0  0  0  0  0
  192.8040  174.3300  142.2760 C   0  0  0  0  0  0  0  0  0  0  0  0
  192.1900  176.1440  144.0250 C   0  0  0  0  0  2  0  0  0  0  0  0
  189.9390  175.7710  143.0500 C   0  0  1  0  0  3  0  0  0  0  0  0
  190.2240  174.5790  142.1940 C   0  0  0  0  0  3  0  0  0  0  0  0
  194.5230  175.5380  143.4770 C   0  0  0  0  0  0  0  0  0  0  0  0
  193.1640  175.3460  143.2190 C   0  0  0  0  0  0  0  0  0  0  0  0
  191.1370  173.0540  138.9230 C   0  0  1  0  0  3  0  0  0  0  0  0
  192.4000  169.6350  139.3980 O   0  0  0  0  0  0  0  0  0  0  0  0
  192.5140  171.4620  140.9080 C   0  0  1  0  0  3  0  0  0  0  0  0
  191.2200  171.5310  138.6250 C   0  0  1  0  0  3  0  0  0  0  0  0
  193.6460  172.9870  139.2250 N   0  0  0  0  0  2  0  0  0  0  0  0
  193.6200  172.4890  140.6100 C   0  0  1  0  0  3  0  0  0  0  0  0
  192.0490  170.7780  139.6430 C   0  0  0  0  0  0  0  0  0  0  0  0
  192.4790  173.8120  138.8910 C   0  0  0  0  0  2  0  0  0  0  0  0
  190.1450  173.7800  138.0710 C   0  0  0  0  0  0  0  0  0  0  0  0
  190.4070  174.0560  136.8700 O   0  0  0  0  0  0  0  0  0  0  0  0
  188.9360  174.1930  138.6240 O   0  0  0  0  0  1  0  0  0  0  0  0
  189.8350  170.8790  138.4940 C   0  0  0  0  0  2  0  0  0  0  0  0
  189.6930  170.0760  137.2090 C   0  0  0  0  0  1  0  0  0  0  0  0
  192.9670  170.5290  141.8470 O   0  0  0  0  0  0  0  0  0  0  0  0
  192.0380  171.1290  143.9450 C   0  0  0  0  0  1  0  0  0  0  0  0
  191.8780  170.3000  142.6880 C   0  0  0  0  0  2  0  0  0  0  0  0
  189.4000  175.3420  144.4110 C   0  0  0  0  0  2  0  0  0  0  0  0
  188.9140  176.4950  145.1600 N   0  0  0  0  0  0  0  0  0  0  0  0
  185.1350  177.7260  142.1190 C   0  0  0  0  0  0  0  0  0  0  0  0
  186.0510  178.8240  142.1050 N   0  0  0  0  0  2  0  0  0  0  0  0
  185.2080  177.4750  145.4610 C   0  0  0  0  0  1  0  0  0  0  0  0
  186.0210  176.9360  144.3010 C   0  0  1  0  0  3  0  0  0  0  0  0
  188.4410  177.6250  144.4040 C   0  0  0  0  0  3  0  0  0  0  0  0
  185.1810  176.7870  143.1560 O   0  0  0  0  0  0  0  0  0  0  0  0
  184.3330  177.5640  141.1620 O   0  0  0  0  0  0  0  0  0  0  0  0
  186.9010  179.1070  143.2530 C   0  0  0  0  0  2  0  0  0  0  0  0
  187.1820  177.8520  144.0130 C   0  0  0  0  0  0  0  0  0  0  0  0
  187.9210  176.8420  147.2520 O   0  0  0  0  0  1  0  0  0  0  0  0
  189.1210  176.5320  146.6090 C   0  0  1  0  0  3  0  0  0  0  0  0
  189.6420  175.1940  147.1190 C   0  0  0  0  0  2  0  0  0  0  0  0
  191.0640  175.3340  147.6260 C   0  0  0  0  0  2  0  0  0  0  0  0
  191.4840  176.7940  147.6040 C   0  0  0  0  0  2  0  0  0  0  0  0
  191.5630  177.2960  148.9650 N   0  0  0  0  0  1  0  0  0  0  0  0
  1 10  1  0  0  0  0
  2  4  1  0  0  0  0
  4  6  2  0  0  0  0
  4 13  1  0  0  0  0
  5 12  2  0  0  0  0
  5  9  1  0  0  0  0
  6  8  1  0  0  0  0
  7  2  2  0  0  0  0
  7  9  1  0  0  0  0
  8  3  1  0  0  0  0
  9 14  2  0  0  0  0
 11  1  1  0  0  0  0
 11 31  1  1  0  0  0
 12 11  1  0  0  0  0
 13  3  2  0  0  0  0
 14 13  1  0  0  0  0
 14 10  1  0  0  0  0
 15 23  1  6  0  0  0
 16 21  2  0  0  0  0
 17 28  1  1  0  0  0
 18 26  1  1  0  0  0
 18 15  1  0  0  0  0
 18 21  1  0  0  0  0
 19 20  1  0  0  0  0
 20 17  1  0  0  0  0
 20  7  1  1  0  0  0
 21 17  1  0  0  0  0
 22 15  1  0  0  0  0
 22 19  1  0  0  0  0
 23 25  1  0  0  0  0
 24 23  2  0  0  0  0
 27 26  1  0  0  0  0
 28 30  1  0  0  0  0
 30 29  1  0  0  0  0
 31 32  1  0  0  0  0
 32 43  1  0  0  0  0
 33 38  1  0  0  0  0
 34 33  1  0  0  0  0
 34 40  1  0  0  0  0
 36 35  1  1  0  0  0
 37 32  1  0  0  0  0
 38 36  1  0  0  0  0
 39 33  2  0  0  0  0
 40 41  1  0  0  0  0
 41 36  1  0  0  0  0
 41 37  2  0  0  0  0
 43 44  1  0  0  0  0
 43 42  1  1  0  0  0
 44 45  1  0  0  0  0
 46 45  1  0  0  0  0
 46 47  1  0  0  0  0
M  END
>  <MODEL>
5

>  <REMARK>
 VINA RESULT:      -6.0      2.965      9.349
  Name = 
  12 active torsions:
  status: ('A' for Active; 'I' for Inactive)
    1  A    between atoms: O_1  and  C_9
    2  A    between atoms: O_1  and  C_35
    3  A    between atoms: C_3  and  C_13
    4  A    between atoms: C_6  and  C_12
    5  A    between atoms: C_11  and  C_17
    6  A    between atoms: C_13  and  C_42
    7  A    between atoms: C_14  and  N_39
    8  A    between atoms: C_14  and  C_43
    9  A    between atoms: C_22  and  C_26
   10  A    between atoms: C_28  and  N_39
   11  A    between atoms: C_33  and  N_39
   12  A    between atoms: C_33  and  C_42
                            x       y       z     vdW  Elec       q    Type
                         _______ _______ _______ _____ _____    ______ ____

>  <TORSDO>
F 12

$$$$
=
 OpenBabel11072409053D

 47 51  0  0  1  0  0  0  0  0999 V2000
  192.0770  176.7150  143.1750 C   0  0  0  0  0  2  0  0  0  0  0  0
  196.0690  174.0490  141.2180 C   0  0  0  0  0  3  0  0  0  0  0  0
  196.2350  176.7250  143.4970 N   0  0  0  0  0  0  0  0  0  0  0  0
  196.4580  175.0980  142.0290 C   0  0  0  0  0  0  0  0  0  0  0  0
  192.3370  173.9560  141.9450 C   0  0  0  0  0  3  0  0  0  0  0  0
  197.6920  175.6550  142.2610 C   0  0  0  0  0  3  0  0  0  0  0  0
  194.7120  173.6850  141.2040 C   0  0  0  0  0  0  0  0  0  0  0  0
  197.4890  176.6190  143.1460 O   0  0  0  0  0  0  0  0  0  0  0  0
  193.7570  174.3970  142.0140 C   0  0  0  0  0  0  0  0  0  0  0  0
  193.3670  176.2330  143.8030 C   0  0  0  0  0  2  0  0  0  0  0  0
  191.0030  175.6540  143.3240 C   0  0  1  0  0  3  0  0  0  0  0  0
  191.2030  174.4520  142.4590 C   0  0  0  0  0  3  0  0  0  0  0  0
  195.5810  175.7790  142.8020 C   0  0  0  0  0  0  0  0  0  0  0  0
  194.2180  175.4770  142.8350 C   0  0  0  0  0  0  0  0  0  0  0  0
  191.6040  172.9320  139.0070 C   0  0  1  0  0  3  0  0  0  0  0  0
  193.0990  169.5960  139.3920 O   0  0  0  0  0  0  0  0  0  0  0  0
  193.3760  171.4960  140.7860 C   0  0  1  0  0  3  0  0  0  0  0  0
  191.7120  171.4020  138.7590 C   0  0  1  0  0  3  0  0  0  0  0  0
  194.1290  172.9860  138.8760 N   0  0  0  0  0  2  0  0  0  0  0  0
  194.3630  172.5530  140.2630 C   0  0  1  0  0  3  0  0  0  0  0  0
  192.7380  170.7340  139.6480 C   0  0  0  0  0  0  0  0  0  0  0  0
  192.8830  173.7440  138.7150 C   0  0  0  0  0  2  0  0  0  0  0  0
  190.4470  173.5740  138.3100 C   0  0  0  0  0  0  0  0  0  0  0  0
  190.4820  173.7900  137.0680 O   0  0  0  0  0  0  0  0  0  0  0  0
  189.3370  173.9770  139.0470 O   0  0  0  0  0  1  0  0  0  0  0  0
  190.3590  170.6860  138.8940 C   0  0  0  0  0  2  0  0  0  0  0  0
  189.9630  169.9530  137.6200 C   0  0  0  0  0  1  0  0  0  0  0  0
  194.0280  170.6280  141.6700 O   0  0  0  0  0  0  0  0  0  0  0  0
  193.9470  171.1030  143.9920 C   0  0  0  0  0  1  0  0  0  0  0  0
  193.2010  170.5600  142.7910 C   0  0  0  0  0  2  0  0  0  0  0  0
  190.7890  175.2440  144.7780 C   0  0  0  0  0  2  0  0  0  0  0  0
  189.4360  175.5720  145.2120 N   0  0  0  0  0  0  0  0  0  0  0  0
  185.7090  178.2440  143.2090 C   0  0  0  0  0  0  0  0  0  0  0  0
  185.5580  176.9040  142.7340 N   0  0  0  0  0  2  0  0  0  0  0  0
  188.9930  178.3010  142.5400 C   0  0  0  0  0  1  0  0  0  0  0  0
  188.1160  177.8650  143.6960 C   0  0  1  0  0  3  0  0  0  0  0  0
  188.3770  175.4220  144.2490 C   0  0  0  0  0  3  0  0  0  0  0  0
  186.9360  178.6700  143.7310 O   0  0  0  0  0  0  0  0  0  0  0  0
  184.7190  179.0220  143.2220 O   0  0  0  0  0  0  0  0  0  0  0  0
  186.7090  176.0240  142.5900 C   0  0  0  0  0  2  0  0  0  0  0  0
  187.7770  176.4030  143.5650 C   0  0  0  0  0  0  0  0  0  0  0  0
  189.6670  177.5520  146.4390 O   0  0  0  0  0  1  0  0  0  0  0  0
  189.2510  176.2210  146.5110 C   0  0  1  0  0  3  0  0  0  0  0  0
  187.7920  176.1650  146.9470 C   0  0  0  0  0  2  0  0  0  0  0  0
  187.2440  177.5620  147.1580 C   0  0  0  0  0  2  0  0  0  0  0  0
  185.7480  177.5810  146.8900 C   0  0  0  0  0  2  0  0  0  0  0  0
  185.2750  178.9540  146.8780 N   0  0  0  0  0  1  0  0  0  0  0  0
  1 11  1  0  0  0  0
  1 10  1  0  0  0  0
  2  4  1  0  0  0  0
  4  6  2  0  0  0  0
  4 13  1  0  0  0  0
  5  9  1  0  0  0  0
  5 12  2  0  0  0  0
  6  8  1  0  0  0  0
  7  2  2  0  0  0  0
  7  9  1  0  0  0  0
  8  3  1  0  0  0  0
  9 14  2  0  0  0  0
 11 31  1  1  0  0  0
 12 11  1  0  0  0  0
 13 14  1  0  0  0  0
 13  3  2  0  0  0  0
 14 10  1  0  0  0  0
 15 23  1  6  0  0  0
 16 21  2  0  0  0  0
 17 28  1  1  0  0  0
 18 26  1  1  0  0  0
 18 15  1  0  0  0  0
 18 21  1  0  0  0  0
 19 20  1  0  0  0  0
 20 17  1  0  0  0  0
 20  7  1  1  0  0  0
 21 17  1  0  0  0  0
 22 19  1  0  0  0  0
 22 15  1  0  0  0  0
 23 25  1  0  0  0  0
 24 23  2  0  0  0  0
 27 26  1  0  0  0  0
 28 30  1  0  0  0  0
 30 29  1  0  0  0  0
 31 32  1  0  0  0  0
 32 43  1  0  0  0  0
 33 39  2  0  0  0  0
 33 38  1  0  0  0  0
 34 33  1  0  0  0  0
 36 35  1  6  0  0  0
 36 38  1  0  0  0  0
 37 32  1  0  0  0  0
 40 34  1  0  0  0  0
 40 41  1  0  0  0  0
 41 36  1  0  0  0  0
 41 37  2  0  0  0  0
 43 42  1  6  0  0  0
 43 44  1  0  0  0  0
 44 45  1  0  0  0  0
 46 45  1  0  0  0  0
 47 46  1  0  0  0  0
M  END
>  <MODEL>
6

>  <REMARK>
 VINA RESULT:      -6.0      2.708      9.623
  Name = 
  12 active torsions:
  status: ('A' for Active; 'I' for Inactive)
    1  A    between atoms: O_1  and  C_9
    2  A    between atoms: O_1  and  C_35
    3  A    between atoms: C_3  and  C_13
    4  A    between atoms: C_6  and  C_12
    5  A    between atoms: C_11  and  C_17
    6  A    between atoms: C_13  and  C_42
    7  A    between atoms: C_14  and  N_39
    8  A    between atoms: C_14  and  C_43
    9  A    between atoms: C_22  and  C_26
   10  A    between atoms: C_28  and  N_39
   11  A    between atoms: C_33  and  N_39
   12  A    between atoms: C_33  and  C_42
                            x       y       z     vdW  Elec       q    Type
                         _______ _______ _______ _____ _____    ______ ____

>  <TORSDO>
F 12

$$$$
=
 OpenBabel11072409053D

 47 51  0  0  1  0  0  0  0  0999 V2000
  188.9670  174.0570  140.8310 C   0  0  0  0  0  2  0  0  0  0  0  0
  188.7160  177.5660  144.6380 C   0  0  0  0  0  3  0  0  0  0  0  0
  186.0060  176.1000  142.9390 N   0  0  0  0  0  0  0  0  0  0  0  0
  187.4800  177.2390  144.1140 C   0  0  0  0  0  0  0  0  0  0  0  0
  190.8830  174.8860  143.0310 C   0  0  0  0  0  3  0  0  0  0  0  0
  186.2390  177.7990  144.3010 C   0  0  0  0  0  3  0  0  0  0  0  0
  189.8230  176.7810  144.2730 C   0  0  0  0  0  0  0  0  0  0  0  0
  185.4050  177.0720  143.5720 O   0  0  0  0  0  0  0  0  0  0  0  0
  189.6640  175.6690  143.3720 C   0  0  0  0  0  0  0  0  0  0  0  0
  188.0230  174.1980  142.0050 C   0  0  0  0  0  2  0  0  0  0  0  0
  190.1630  173.2120  141.2290 C   0  0  1  0  0  3  0  0  0  0  0  0
  191.1130  173.8920  142.1610 C   0  0  0  0  0  3  0  0  0  0  0  0
  187.3050  176.1960  143.2690 C   0  0  0  0  0  0  0  0  0  0  0  0
  188.3590  175.3770  142.8600 C   0  0  0  0  0  0  0  0  0  0  0  0
  193.5150  176.1880  143.2370 C   0  0  1  0  0  3  0  0  0  0  0  0
  193.8410  177.0130  146.8040 O   0  0  0  0  0  0  0  0  0  0  0  0
  191.9360  176.1800  145.6620 C   0  0  1  0  0  3  0  0  0  0  0  0
  194.2970  176.4650  144.5510 C   0  0  1  0  0  3  0  0  0  0  0  0
  191.9530  178.0470  143.9430 N   0  0  0  0  0  2  0  0  0  0  0  0
  191.1440  177.2280  144.8600 C   0  0  1  0  0  3  0  0  0  0  0  0
  193.3960  176.5590  145.7620 C   0  0  0  0  0  0  0  0  0  0  0  0
  192.5050  177.2780  142.8220 C   0  0  0  0  0  2  0  0  0  0  0  0
  194.3930  175.8650  142.0700 C   0  0  0  0  0  0  0  0  0  0  0  0
  195.0090  176.7770  141.4560 O   0  0  0  0  0  0  0  0  0  0  0  0
  194.4980  174.5480  141.6320 O   0  0  0  0  0  1  0  0  0  0  0  0
  195.4080  175.4340  144.8050 C   0  0  0  0  0  2  0  0  0  0  0  0
  194.8690  174.1350  145.3880 C   0  0  0  0  0  1  0  0  0  0  0  0
  191.3690  176.0190  146.9310 O   0  0  0  0  0  0  0  0  0  0  0  0
  189.3020  174.9050  147.2620 C   0  0  0  0  0  1  0  0  0  0  0  0
  190.7660  174.7610  146.9040 C   0  0  0  0  0  2  0  0  0  0  0  0
  189.7540  171.8470  141.7740 C   0  0  0  0  0  2  0  0  0  0  0  0
  190.4840  170.7810  141.0980 N   0  0  0  0  0  0  0  0  0  0  0  0
  194.7050  169.2200  143.2850 C   0  0  0  0  0  0  0  0  0  0  0  0
  193.7470  168.1700  143.4400 N   0  0  0  0  0  2  0  0  0  0  0  0
  192.5370  171.5870  144.2480 C   0  0  0  0  0  1  0  0  0  0  0  0
  192.9040  170.8980  142.9490 C   0  0  1  0  0  3  0  0  0  0  0  0
  190.9590  169.6880  141.9040 C   0  0  0  0  0  3  0  0  0  0  0  0
  194.2810  170.5190  142.9820 O   0  0  0  0  0  0  0  0  0  0  0  0
  195.9360  168.9620  143.3500 O   0  0  0  0  0  0  0  0  0  0  0  0
  192.3200  168.4580  143.4940 C   0  0  0  0  0  2  0  0  0  0  0  0
  192.0140  169.7040  142.7270 C   0  0  0  0  0  0  0  0  0  0  0  0
  192.2460  171.2070  139.6150 O   0  0  0  0  0  1  0  0  0  0  0  0
  190.8710  170.9720  139.6990 C   0  0  1  0  0  3  0  0  0  0  0  0
  190.5100  169.7530  138.8610 C   0  0  0  0  0  2  0  0  0  0  0  0
  189.6910  170.1590  137.6520 C   0  0  0  0  0  2  0  0  0  0  0  0
  190.5610  170.1500  136.4060 C   0  0  0  0  0  2  0  0  0  0  0  0
  190.4580  171.4340  135.7330 N   0  0  0  0  0  1  0  0  0  0  0  0
  1 11  1  0  0  0  0
  1 10  1  0  0  0  0
  3 13  2  0  0  0  0
  3  8  1  0  0  0  0
  4  6  2  0  0  0  0
  4  2  1  0  0  0  0
  5  9  1  0  0  0  0
  7  2  2  0  0  0  0
  8  6  1  0  0  0  0
  9  7  1  0  0  0  0
 10 14  1  0  0  0  0
 11 31  1  1  0  0  0
 11 12  1  0  0  0  0
 12  5  2  0  0  0  0
 13  4  1  0  0  0  0
 14 13  1  0  0  0  0
 14  9  2  0  0  0  0
 15 23  1  6  0  0  0
 15 18  1  0  0  0  0
 17 21  1  0  0  0  0
 17 28  1  1  0  0  0
 18 26  1  1  0  0  0
 18 21  1  0  0  0  0
 19 20  1  0  0  0  0
 20  7  1  6  0  0  0
 20 17  1  0  0  0  0
 21 16  2  0  0  0  0
 22 15  1  0  0  0  0
 22 19  1  0  0  0  0
 24 23  2  0  0  0  0
 25 23  1  0  0  0  0
 26 27  1  0  0  0  0
 30 28  1  0  0  0  0
 30 29  1  0  0  0  0
 32 31  1  0  0  0  0
 32 37  1  0  0  0  0
 33 39  2  0  0  0  0
 33 34  1  0  0  0  0
 34 40  1  0  0  0  0
 36 38  1  0  0  0  0
 36 35  1  1  0  0  0
 37 41  2  0  0  0  0
 38 33  1  0  0  0  0
 41 36  1  0  0  0  0
 41 40  1  0  0  0  0
 43 42  1  1  0  0  0
 43 32  1  0  0  0  0
 44 43  1  0  0  0  0
 45 44  1  0  0  0  0
 46 45  1  0  0  0  0
 47 46  1  0  0  0  0
M  END
>  <MODEL>
7

>  <REMARK>
 VINA RESULT:      -6.0      3.174      6.788
  Name = 
  12 active torsions:
  status: ('A' for Active; 'I' for Inactive)
    1  A    between atoms: O_1  and  C_9
    2  A    between atoms: O_1  and  C_35
    3  A    between atoms: C_3  and  C_13
    4  A    between atoms: C_6  and  C_12
    5  A    between atoms: C_11  and  C_17
    6  A    between atoms: C_13  and  C_42
    7  A    between atoms: C_14  and  N_39
    8  A    between atoms: C_14  and  C_43
    9  A    between atoms: C_22  and  C_26
   10  A    between atoms: C_28  and  N_39
   11  A    between atoms: C_33  and  N_39
   12  A    between atoms: C_33  and  C_42
                            x       y       z     vdW  Elec       q    Type
                         _______ _______ _______ _____ _____    ______ ____

>  <TORSDO>
F 12

$$$$
=
 OpenBabel11072409053D

 47 51  0  0  1  0  0  0  0  0999 V2000
  189.0880  173.8370  143.0310 C   0  0  0  0  0  2  0  0  0  0  0  0
  191.7980  172.7130  138.7570 C   0  0  0  0  0  3  0  0  0  0  0  0
  188.3840  173.5470  138.9310 N   0  0  0  0  0  0  0  0  0  0  0  0
  190.4540  172.9230  138.5130 C   0  0  0  0  0  0  0  0  0  0  0  0
  192.0440  173.9130  142.3580 C   0  0  0  0  0  3  0  0  0  0  0  0
  189.6950  172.7160  137.3860 C   0  0  0  0  0  3  0  0  0  0  0  0
  192.3040  173.0470  140.0250 C   0  0  0  0  0  0  0  0  0  0  0  0
  188.4700  173.1090  137.7040 O   0  0  0  0  0  0  0  0  0  0  0  0
  191.4360  173.5860  141.0390 C   0  0  0  0  0  0  0  0  0  0  0  0
  189.0570  174.4290  141.6390 C   0  0  0  0  0  2  0  0  0  0  0  0
  190.0970  174.5810  143.8850 C   0  0  1  0  0  3  0  0  0  0  0  0
  191.5230  174.3090  143.5270 C   0  0  0  0  0  3  0  0  0  0  0  0
  189.6190  173.4330  139.4470 C   0  0  0  0  0  0  0  0  0  0  0  0
  190.0510  173.7810  140.7290 C   0  0  0  0  0  0  0  0  0  0  0  0
  194.3430  171.6400  143.0120 C   0  0  1  0  0  3  0  0  0  0  0  0
  196.9240  173.4140  141.0870 O   0  0  0  0  0  0  0  0  0  0  0  0
  194.5770  173.7640  141.0600 C   0  0  1  0  0  3  0  0  0  0  0  0
  195.7900  172.1150  142.7030 C   0  0  1  0  0  3  0  0  0  0  0  0
  194.0630  171.3390  140.5170 N   0  0  0  0  0  2  0  0  0  0  0  0
  193.7750  172.7530  140.2230 C   0  0  1  0  0  3  0  0  0  0  0  0
  195.8480  173.1440  141.5960 C   0  0  0  0  0  0  0  0  0  0  0  0
  193.6150  170.9280  141.8530 C   0  0  0  0  0  2  0  0  0  0  0  0
  194.2350  170.8020  144.2450 C   0  0  0  0  0  0  0  0  0  0  0  0
  193.8080  171.2940  145.3240 O   0  0  0  0  0  1  0  0  0  0  0  0
  194.6500  169.4730  144.2120 O   0  0  0  0  0  0  0  0  0  0  0  0
  196.5150  172.6480  143.9490 C   0  0  0  0  0  2  0  0  0  0  0  0
  196.0550  174.0470  144.3310 C   0  0  0  0  0  1  0  0  0  0  0  0
  194.8560  174.9030  140.2970 O   0  0  0  0  0  0  0  0  0  0  0  0
  195.9440  176.7730  141.2680 C   0  0  0  0  0  1  0  0  0  0  0  0
  194.6590  175.9790  141.1630 C   0  0  0  0  0  2  0  0  0  0  0  0
  189.8270  176.0820  143.9300 C   0  0  0  0  0  2  0  0  0  0  0  0
  189.4620  176.5000  145.2780 N   0  0  0  0  0  0  0  0  0  0  0  0
  185.1850  179.0250  144.6680 C   0  0  0  0  0  0  0  0  0  0  0  0
  184.9130  177.9680  145.5910 N   0  0  0  0  0  2  0  0  0  0  0  0
  186.8030  176.9970  142.5450 C   0  0  0  0  0  1  0  0  0  0  0  0
  187.1610  177.8150  143.7710 C   0  0  1  0  0  3  0  0  0  0  0  0
  188.0750  176.4080  145.6480 C   0  0  0  0  0  3  0  0  0  0  0  0
  186.3140  178.9630  143.8420 O   0  0  0  0  0  0  0  0  0  0  0  0
  184.4490  180.0460  144.6460 O   0  0  0  0  0  0  0  0  0  0  0  0
  185.6700  176.7240  145.5530 C   0  0  0  0  0  2  0  0  0  0  0  0
  187.0400  176.9680  145.0110 C   0  0  0  0  0  0  0  0  0  0  0  0
  190.2950  176.8240  147.4430 O   0  0  0  0  0  1  0  0  0  0  0  0
  190.4670  177.1740  146.1020 C   0  0  1  0  0  3  0  0  0  0  0  0
  191.8760  176.8060  145.6550 C   0  0  0  0  0  2  0  0  0  0  0  0
  192.6170  176.0870  146.7640 C   0  0  0  0  0  2  0  0  0  0  0  0
  194.1150  176.1440  146.5130 C   0  0  0  0  0  2  0  0  0  0  0  0
  194.4990  177.5060  146.1800 N   0  0  0  0  0  1  0  0  0  0  0  0
  1 11  1  0  0  0  0
  2  7  2  0  0  0  0
  3 13  2  0  0  0  0
  4  2  1  0  0  0  0
  4 13  1  0  0  0  0
  5 12  2  0  0  0  0
  6  8  1  0  0  0  0
  6  4  2  0  0  0  0
  7  9  1  0  0  0  0
  8  3  1  0  0  0  0
  9  5  1  0  0  0  0
 10  1  1  0  0  0  0
 11 31  1  6  0  0  0
 12 11  1  0  0  0  0
 13 14  1  0  0  0  0
 14  9  2  0  0  0  0
 14 10  1  0  0  0  0
 15 23  1  1  0  0  0
 16 21  2  0  0  0  0
 17 28  1  6  0  0  0
 17 21  1  0  0  0  0
 18 15  1  0  0  0  0
 18 26  1  1  0  0  0
 19 22  1  0  0  0  0
 20  7  1  1  0  0  0
 20 19  1  0  0  0  0
 20 17  1  0  0  0  0
 21 18  1  0  0  0  0
 22 15  1  0  0  0  0
 23 24  1  0  0  0  0
 25 23  2  0  0  0  0
 26 27  1  0  0  0  0
 28 30  1  0  0  0  0
 30 29  1  0  0  0  0
 31 32  1  0  0  0  0
 32 37  1  0  0  0  0
 32 43  1  0  0  0  0
 33 34  1  0  0  0  0
 36 35  1  6  0  0  0
 36 38  1  0  0  0  0
 36 41  1  0  0  0  0
 38 33  1  0  0  0  0
 39 33  2  0  0  0  0
 40 34  1  0  0  0  0
 41 40  1  0  0  0  0
 41 37  2  0  0  0  0
 43 42  1  1  0  0  0
 44 43  1  0  0  0  0
 44 45  1  0  0  0  0
 46 45  1  0  0  0  0
 47 46  1  0  0  0  0
M  END
>  <MODEL>
8

>  <REMARK>
 VINA RESULT:      -6.0      2.516      8.951
  Name = 
  12 active torsions:
  status: ('A' for Active; 'I' for Inactive)
    1  A    between atoms: O_1  and  C_9
    2  A    between atoms: O_1  and  C_35
    3  A    between atoms: C_3  and  C_13
    4  A    between atoms: C_6  and  C_12
    5  A    between atoms: C_11  and  C_17
    6  A    between atoms: C_13  and  C_42
    7  A    between atoms: C_14  and  N_39
    8  A    between atoms: C_14  and  C_43
    9  A    between atoms: C_22  and  C_26
   10  A    between atoms: C_28  and  N_39
   11  A    between atoms: C_33  and  N_39
   12  A    between atoms: C_33  and  C_42
                            x       y       z     vdW  Elec       q    Type
                         _______ _______ _______ _____ _____    ______ ____

>  <TORSDO>
F 12

$$$$
=
 OpenBabel11072409053D

 47 51  0  0  1  0  0  0  0  0999 V2000
  190.2300  174.8130  142.5970 C   0  0  0  0  0  2  0  0  0  0  0  0
  193.3230  175.8040  146.6370 C   0  0  0  0  0  3  0  0  0  0  0  0
  189.8230  176.1540  146.5250 N   0  0  0  0  0  0  0  0  0  0  0  0
  191.9970  176.1150  146.8740 C   0  0  0  0  0  0  0  0  0  0  0  0
  193.0110  173.8840  143.3700 C   0  0  0  0  0  3  0  0  0  0  0  0
  191.3960  176.7910  147.9090 C   0  0  0  0  0  3  0  0  0  0  0  0
  193.6380  175.0680  145.4820 C   0  0  0  0  0  0  0  0  0  0  0  0
  190.0990  176.7780  147.6380 O   0  0  0  0  0  0  0  0  0  0  0  0
  192.5990  174.6590  144.5720 C   0  0  0  0  0  0  0  0  0  0  0  0
  190.0550  174.5640  144.0790 C   0  0  0  0  0  2  0  0  0  0  0  0
  190.8960  173.6150  141.9470 C   0  0  1  0  0  3  0  0  0  0  0  0
  192.3430  173.4570  142.2890 C   0  0  0  0  0  3  0  0  0  0  0  0
  191.0040  175.7370  146.0370 C   0  0  0  0  0  0  0  0  0  0  0  0
  191.2430  175.0100  144.8700 C   0  0  0  0  0  0  0  0  0  0  0  0
  195.8940  174.9640  142.3280 C   0  0  1  0  0  3  0  0  0  0  0  0
  197.8240  172.9480  144.7200 O   0  0  0  0  0  0  0  0  0  0  0  0
  195.4980  173.4140  144.7380 C   0  0  1  0  0  3  0  0  0  0  0  0
  197.1150  174.1250  142.7970 C   0  0  1  0  0  3  0  0  0  0  0  0
  195.8390  175.9270  144.6650 N   0  0  0  0  0  2  0  0  0  0  0  0
  195.1130  174.8020  145.2770 C   0  0  1  0  0  3  0  0  0  0  0  0
  196.8770  173.4310  144.1200 C   0  0  0  0  0  0  0  0  0  0  0  0
  195.4940  176.1320  143.2530 C   0  0  0  0  0  2  0  0  0  0  0  0
  196.0160  175.4710  140.9260 C   0  0  0  0  0  0  0  0  0  0  0  0
  196.8070  176.4120  140.6470 O   0  0  0  0  0  1  0  0  0  0  0  0
  195.2160  174.9260  139.9260 O   0  0  0  0  0  0  0  0  0  0  0  0
  197.5670  173.1010  141.7440 C   0  0  0  0  0  2  0  0  0  0  0  0
  196.5860  171.9470  141.6010 C   0  0  0  0  0  1  0  0  0  0  0  0
  195.4170  172.4630  145.7620 O   0  0  0  0  0  0  0  0  0  0  0  0
  194.9320  170.1720  146.1330 C   0  0  0  0  0  1  0  0  0  0  0  0
  194.8430  171.3380  145.1710 C   0  0  0  0  0  2  0  0  0  0  0  0
  190.1340  172.3180  142.2020 C   0  0  0  0  0  2  0  0  0  0  0  0
  190.3510  171.3710  141.1150 N   0  0  0  0  0  0  0  0  0  0  0  0
  191.8470  174.1590  137.2390 C   0  0  0  0  0  0  0  0  0  0  0  0
  190.5140  173.7320  136.9500 N   0  0  0  0  0  2  0  0  0  0  0  0
  192.8180  171.0920  138.1790 C   0  0  0  0  0  1  0  0  0  0  0  0
  192.1650  172.2880  138.8420 C   0  0  1  0  0  3  0  0  0  0  0  0
  189.9000  171.7530  139.8030 C   0  0  0  0  0  3  0  0  0  0  0  0
  192.6060  173.4880  138.2050 O   0  0  0  0  0  0  0  0  0  0  0  0
  192.3150  175.1830  136.6750 O   0  0  0  0  0  0  0  0  0  0  0  0
  189.9910  172.4850  137.4900 C   0  0  0  0  0  2  0  0  0  0  0  0
  190.6650  172.1570  138.7830 C   0  0  0  0  0  0  0  0  0  0  0  0
  190.6560  169.1850  140.3340 O   0  0  0  0  0  1  0  0  0  0  0  0
  190.8170  170.0220  141.4400 C   0  0  1  0  0  3  0  0  0  0  0  0
  192.2820  170.0360  141.8590 C   0  0  0  0  0  2  0  0  0  0  0  0
  192.4690  169.3000  143.1700 C   0  0  0  0  0  2  0  0  0  0  0  0
  193.5920  168.2840  143.0420 C   0  0  0  0  0  2  0  0  0  0  0  0
  194.7000  168.8760  142.3110 N   0  0  0  0  0  1  0  0  0  0  0  0
  1 10  1  0  0  0  0
  2  4  1  0  0  0  0
  3  8  1  0  0  0  0
  4  6  2  0  0  0  0
  5  9  1  0  0  0  0
  7  2  2  0  0  0  0
  8  6  1  0  0  0  0
  9 14  2  0  0  0  0
  9  7  1  0  0  0  0
 10 14  1  0  0  0  0
 11 31  1  1  0  0  0
 11 12  1  0  0  0  0
 11  1  1  0  0  0  0
 12  5  2  0  0  0  0
 13  3  2  0  0  0  0
 13  4  1  0  0  0  0
 14 13  1  0  0  0  0
 15 23  1  6  0  0  0
 15 18  1  0  0  0  0
 15 22  1  0  0  0  0
 17 20  1  0  0  0  0
 17 28  1  1  0  0  0
 18 26  1  6  0  0  0
 18 21  1  0  0  0  0
 19 20  1  0  0  0  0
 20  7  1  6  0  0  0
 21 16  2  0  0  0  0
 21 17  1  0  0  0  0
 22 19  1  0  0  0  0
 24 23  1  0  0  0  0
 25 23  2  0  0  0  0
 27 26  1  0  0  0  0
 30 28  1  0  0  0  0
 30 29  1  0  0  0  0
 32 43  1  0  0  0  0
 32 31  1  0  0  0  0
 33 38  1  0  0  0  0
 34 33  1  0  0  0  0
 34 40  1  0  0  0  0
 36 35  1  6  0  0  0
 37 32  1  0  0  0  0
 38 36  1  0  0  0  0
 39 33  2  0  0  0  0
 40 41  1  0  0  0  0
 41 36  1  0  0  0  0
 41 37  2  0  0  0  0
 43 42  1  6  0  0  0
 43 44  1  0  0  0  0
 44 45  1  0  0  0  0
 46 45  1  0  0  0  0
 47 46  1  0  0  0  0
M  END
>  <MODEL>
9

>  <REMARK>
 VINA RESULT:      -5.9      3.747      8.965
  Name = 
  12 active torsions:
  status: ('A' for Active; 'I' for Inactive)
    1  A    between atoms: O_1  and  C_9
    2  A    between atoms: O_1  and  C_35
    3  A    between atoms: C_3  and  C_13
    4  A    between atoms: C_6  and  C_12
    5  A    between atoms: C_11  and  C_17
    6  A    between atoms: C_13  and  C_42
    7  A    between atoms: C_14  and  N_39
    8  A    between atoms: C_14  and  C_43
    9  A    between atoms: C_22  and  C_26
   10  A    between atoms: C_28  and  N_39
   11  A    between atoms: C_33  and  N_39
   12  A    between atoms: C_33  and  C_42
                            x       y       z     vdW  Elec       q    Type
                         _______ _______ _______ _____ _____    ______ ____

>  <TORSDO>
F 12

$$$$
