=
 OpenBabel11062419573D

 28 29  0  0  1  0  0  0  0  0999 V2000
  186.8660  176.8280  147.0110 C   0  0  0  0  0  2  0  0  0  0  0  0
  184.7420  178.3520  146.1600 C   0  0  0  0  0  0  0  0  0  0  0  0
  183.9300  178.8520  144.2360 N   0  0  0  0  0  0  0  0  0  0  0  0
  184.9680  178.0050  144.0060 C   0  0  0  0  0  0  0  0  0  0  0  0
  183.7880  179.0640  145.5430 N   0  0  0  0  0  0  0  0  0  0  0  0
  184.9980  178.3040  147.4890 N   0  0  0  0  0  0  0  0  0  0  0  0
  186.0510  177.5460  147.9210 C   0  0  0  0  0  3  0  0  0  0  0  0
  186.6140  176.8750  145.6240 C   0  0  0  0  0  0  0  0  0  0  0  0
  185.5370  177.6510  145.2100 C   0  0  0  0  0  0  0  0  0  0  0  0
  187.4550  176.1030  144.6610 C   0  0  0  0  0  2  0  0  0  0  0  0
  189.7800  175.2300  145.0850 N   0  0  0  0  0  2  0  0  0  0  0  0
  191.1730  175.2220  145.4420 C   0  0  0  0  0  0  0  0  0  0  0  0
  188.9070  176.3510  144.9030 C   0  0  0  0  0  0  0  0  0  0  0  0
  191.7860  174.1230  145.4360 O   0  0  0  0  0  0  0  0  0  0  0  0
  189.3390  177.5330  144.9320 O   0  0  0  0  0  0  0  0  0  0  0  0
  191.9430  176.4490  145.8380 C   0  0  1  0  0  3  0  0  0  0  0  0
  190.7930  176.7530  147.9080 O   0  0  0  0  0  1  0  0  0  0  0  0
  192.0570  176.5700  147.3490 C   0  0  0  0  0  2  0  0  0  0  0  0
  193.2520  176.4840  145.2040 N   0  0  0  0  0  2  0  0  0  0  0  0
  194.2460  176.4170  146.2610 C   0  0  0  0  0  2  0  0  0  0  0  0
  195.1480  175.2930  146.0150 C   0  0  0  0  0  0  0  0  0  0  0  0
  195.8900  174.3650  145.8120 C   0  0  0  0  0  3  0  0  0  0  0  0
  185.4450  177.6250  142.6430 C   0  0  0  0  0  2  0  0  0  0  0  0
  186.4200  178.6600  142.1060 C   0  0  0  0  0  2  0  0  0  0  0  0
  187.7030  177.9960  141.6310 C   0  0  0  0  0  2  0  0  0  0  0  0
  187.7810  175.6850  141.0430 O   0  0  0  0  0  1  0  0  0  0  0  0
  186.7000  177.0510  139.5550 O   0  0  0  0  0  0  0  0  0  0  0  0
  187.3900  176.8420  140.7410 C   0  0  0  0  0  0  0  0  0  0  0  0
  1  7  1  0  0  0  0
  2  6  1  0  0  0  0
  3  5  1  0  0  0  0
  4  3  2  0  0  0  0
  4  9  1  0  0  0  0
  5  2  2  0  0  0  0
  6  7  2  0  0  0  0
  8  1  1  0  0  0  0
  9  8  2  0  0  0  0
  9  2  1  0  0  0  0
 10 13  1  0  0  0  0
 10  8  1  0  0  0  0
 11 12  1  0  0  0  0
 12 16  1  0  0  0  0
 13 15  2  0  0  0  0
 13 11  1  0  0  0  0
 14 12  2  0  0  0  0
 16 18  1  1  0  0  0
 18 17  1  0  0  0  0
 19 16  1  0  0  0  0
 19 20  1  0  0  0  0
 21 20  1  0  0  0  0
 22 21  3  0  0  0  0
 23  4  1  0  0  0  0
 24 23  1  0  0  0  0
 25 24  1  0  0  0  0
 27 28  2  0  0  0  0
 28 26  1  0  0  0  0
 28 25  1  0  0  0  0
M  END
>  <MODEL>
1

>  <REMARK>
 VINA RESULT:      -6.4      0.000      0.000
  Name = 
  11 active torsions:
  status: ('A' for Active; 'I' for Inactive)
    1  A    between atoms: C_1  and  C_23
    2  A    between atoms: C_1  and  C_28
    3  A    between atoms: N_2  and  C_3
    4  A    between atoms: N_2  and  CA_24
    5  A    between atoms: C_3  and  C_17
    6  A    between atoms: C_11  and  CA_24
    7  A    between atoms: C_12  and  C_26
    8  A    between atoms: C_16  and  C_22
    9  A    between atoms: C_18  and  CA_24
   10  A    between atoms: C_19  and  C_22
   11  A    between atoms: C_23  and  C_26
                            x       y       z     vdW  Elec       q    Type
                         _______ _______ _______ _____ _____    ______ ____

>  <TORSDO>
F 11

$$$$
=
 OpenBabel11062419573D

 28 29  0  0  1  0  0  0  0  0999 V2000
  187.1960  176.8090  146.8050 C   0  0  0  0  0  2  0  0  0  0  0  0
  184.9970  178.3590  146.2390 C   0  0  0  0  0  0  0  0  0  0  0  0
  183.9040  178.8150  144.4470 N   0  0  0  0  0  0  0  0  0  0  0  0
  184.8750  177.9340  144.0910 C   0  0  0  0  0  0  0  0  0  0  0  0
  183.9730  179.0740  145.7520 N   0  0  0  0  0  0  0  0  0  0  0  0
  185.4560  178.3500  147.5120 N   0  0  0  0  0  0  0  0  0  0  0  0
  186.5480  177.5790  147.8040 C   0  0  0  0  0  3  0  0  0  0  0  0
  186.7310  176.8160  145.4740 C   0  0  0  0  0  0  0  0  0  0  0  0
  185.6180  177.6050  145.2030 C   0  0  0  0  0  0  0  0  0  0  0  0
  187.3950  175.9900  144.4220 C   0  0  0  0  0  2  0  0  0  0  0  0
  189.5180  177.3150  144.1290 N   0  0  0  0  0  2  0  0  0  0  0  0
  190.9230  177.6050  144.0280 C   0  0  0  0  0  0  0  0  0  0  0  0
  188.8810  176.0930  144.5220 C   0  0  0  0  0  0  0  0  0  0  0  0
  191.2720  178.7860  143.7730 O   0  0  0  0  0  0  0  0  0  0  0  0
  189.5430  175.1160  144.9580 O   0  0  0  0  0  0  0  0  0  0  0  0
  192.0040  176.5770  144.1950 C   0  0  1  0  0  3  0  0  0  0  0  0
  191.7780  175.1680  142.2800 O   0  0  0  0  0  1  0  0  0  0  0  0
  192.5810  176.1540  142.8530 C   0  0  0  0  0  2  0  0  0  0  0  0
  193.0480  177.0430  145.0950 N   0  0  0  0  0  2  0  0  0  0  0  0
  193.2140  176.0320  146.1250 C   0  0  0  0  0  2  0  0  0  0  0  0
  192.1190  176.1300  147.0890 C   0  0  0  0  0  0  0  0  0  0  0  0
  191.2180  176.2120  147.8850 C   0  0  0  0  0  3  0  0  0  0  0  0
  185.1250  177.4940  142.6850 C   0  0  0  0  0  2  0  0  0  0  0  0
  185.8280  178.5880  141.8970 C   0  0  0  0  0  2  0  0  0  0  0  0
  187.2370  178.1600  141.5200 C   0  0  0  0  0  2  0  0  0  0  0  0
  186.6130  177.1370  139.4560 O   0  0  0  0  0  0  0  0  0  0  0  0
  187.7570  175.7980  140.9220 O   0  0  0  0  0  1  0  0  0  0  0  0
  187.1930  177.0160  140.5670 C   0  0  0  0  0  0  0  0  0  0  0  0
  1  7  1  0  0  0  0
  2  6  1  0  0  0  0
  3  5  1  0  0  0  0
  4  3  2  0  0  0  0
  4  9  1  0  0  0  0
  5  2  2  0  0  0  0
  6  7  2  0  0  0  0
  8  1  1  0  0  0  0
  9  8  2  0  0  0  0
  9  2  1  0  0  0  0
 10 13  1  0  0  0  0
 10  8  1  0  0  0  0
 11 13  1  0  0  0  0
 12 11  1  0  0  0  0
 12 16  1  0  0  0  0
 13 15  2  0  0  0  0
 14 12  2  0  0  0  0
 16 18  1  6  0  0  0
 16 19  1  0  0  0  0
 17 18  1  0  0  0  0
 19 20  1  0  0  0  0
 20 21  1  0  0  0  0
 21 22  3  0  0  0  0
 23  4  1  0  0  0  0
 24 23  1  0  0  0  0
 25 24  1  0  0  0  0
 26 28  2  0  0  0  0
 28 27  1  0  0  0  0
 28 25  1  0  0  0  0
M  END
>  <MODEL>
2

>  <REMARK>
 VINA RESULT:      -6.3      1.395      2.368
  Name = 
  11 active torsions:
  status: ('A' for Active; 'I' for Inactive)
    1  A    between atoms: C_1  and  C_23
    2  A    between atoms: C_1  and  C_28
    3  A    between atoms: N_2  and  C_3
    4  A    between atoms: N_2  and  CA_24
    5  A    between atoms: C_3  and  C_17
    6  A    between atoms: C_11  and  CA_24
    7  A    between atoms: C_12  and  C_26
    8  A    between atoms: C_16  and  C_22
    9  A    between atoms: C_18  and  CA_24
   10  A    between atoms: C_19  and  C_22
   11  A    between atoms: C_23  and  C_26
                            x       y       z     vdW  Elec       q    Type
                         _______ _______ _______ _____ _____    ______ ____

>  <TORSDO>
F 11

$$$$
=
 OpenBabel11062419573D

 28 29  0  0  1  0  0  0  0  0999 V2000
  187.2180  177.6790  140.9430 C   0  0  0  0  0  2  0  0  0  0  0  0
  184.5630  178.1770  141.4530 C   0  0  0  0  0  0  0  0  0  0  0  0
  183.4420  178.6780  143.2160 N   0  0  0  0  0  0  0  0  0  0  0  0
  184.7450  178.6080  143.5960 C   0  0  0  0  0  0  0  0  0  0  0  0
  183.3280  178.4190  141.9140 N   0  0  0  0  0  0  0  0  0  0  0  0
  184.9130  177.8280  140.1930 N   0  0  0  0  0  0  0  0  0  0  0  0
  186.2320  177.5810  139.9290 C   0  0  0  0  0  3  0  0  0  0  0  0
  186.8650  178.0350  142.2610 C   0  0  0  0  0  0  0  0  0  0  0  0
  185.5190  178.2830  142.5030 C   0  0  0  0  0  0  0  0  0  0  0  0
  187.9020  178.1620  143.3290 C   0  0  0  0  0  2  0  0  0  0  0  0
  190.1450  177.0150  143.3320 N   0  0  0  0  0  2  0  0  0  0  0  0
  191.1190  175.9570  143.2830 C   0  0  0  0  0  0  0  0  0  0  0  0
  188.7190  176.9160  143.4290 C   0  0  0  0  0  0  0  0  0  0  0  0
  192.3380  176.2660  143.3140 O   0  0  0  0  0  0  0  0  0  0  0  0
  188.1460  175.8100  143.6080 O   0  0  0  0  0  0  0  0  0  0  0  0
  190.7690  174.5010  143.1820 C   0  0  1  0  0  3  0  0  0  0  0  0
  190.2240  173.4340  141.1170 O   0  0  0  0  0  1  0  0  0  0  0  0
  191.2900  173.8920  141.8900 C   0  0  0  0  0  2  0  0  0  0  0  0
  191.2380  173.7590  144.3430 N   0  0  0  0  0  2  0  0  0  0  0  0
  190.0750  173.1440  144.9620 C   0  0  0  0  0  2  0  0  0  0  0  0
  189.6430  173.9540  146.1010 C   0  0  0  0  0  0  0  0  0  0  0  0
  189.2840  174.6200  147.0390 C   0  0  0  0  0  3  0  0  0  0  0  0
  185.2100  178.7680  145.0070 C   0  0  0  0  0  2  0  0  0  0  0  0
  184.7770  177.5810  145.8530 C   0  0  0  0  0  2  0  0  0  0  0  0
  185.9840  176.7780  146.3110 C   0  0  0  0  0  2  0  0  0  0  0  0
  186.3700  178.1990  148.1890 O   0  0  0  0  0  1  0  0  0  0  0  0
  188.1990  177.7660  146.8790 O   0  0  0  0  0  0  0  0  0  0  0  0
  186.8550  177.6090  147.1890 C   0  0  0  0  0  0  0  0  0  0  0  0
  1  8  1  0  0  0  0
  2  5  2  0  0  0  0
  2  9  1  0  0  0  0
  3  4  2  0  0  0  0
  4 23  1  0  0  0  0
  5  3  1  0  0  0  0
  6  2  1  0  0  0  0
  7  6  2  0  0  0  0
  7  1  1  0  0  0  0
  8  9  2  0  0  0  0
  8 10  1  0  0  0  0
  9  4  1  0  0  0  0
 10 13  1  0  0  0  0
 11 13  1  0  0  0  0
 12 14  2  0  0  0  0
 12 11  1  0  0  0  0
 13 15  2  0  0  0  0
 16 18  1  6  0  0  0
 16 12  1  0  0  0  0
 16 19  1  0  0  0  0
 17 18  1  0  0  0  0
 19 20  1  0  0  0  0
 20 21  1  0  0  0  0
 21 22  3  0  0  0  0
 23 24  1  0  0  0  0
 24 25  1  0  0  0  0
 25 28  1  0  0  0  0
 27 28  2  0  0  0  0
 28 26  1  0  0  0  0
M  END
>  <MODEL>
3

>  <REMARK>
 VINA RESULT:      -6.2      2.720      4.947
  Name = 
  11 active torsions:
  status: ('A' for Active; 'I' for Inactive)
    1  A    between atoms: C_1  and  C_23
    2  A    between atoms: C_1  and  C_28
    3  A    between atoms: N_2  and  C_3
    4  A    between atoms: N_2  and  CA_24
    5  A    between atoms: C_3  and  C_17
    6  A    between atoms: C_11  and  CA_24
    7  A    between atoms: C_12  and  C_26
    8  A    between atoms: C_16  and  C_22
    9  A    between atoms: C_18  and  CA_24
   10  A    between atoms: C_19  and  C_22
   11  A    between atoms: C_23  and  C_26
                            x       y       z     vdW  Elec       q    Type
                         _______ _______ _______ _____ _____    ______ ____

>  <TORSDO>
F 11

$$$$
=
 OpenBabel11062419573D

 28 29  0  0  1  0  0  0  0  0999 V2000
  186.9300  176.6240  146.6420 C   0  0  0  0  0  2  0  0  0  0  0  0
  185.6650  178.9120  145.7940 C   0  0  0  0  0  0  0  0  0  0  0  0
  185.4780  179.9100  143.9010 N   0  0  0  0  0  0  0  0  0  0  0  0
  186.1940  178.7780  143.6700 C   0  0  0  0  0  0  0  0  0  0  0  0
  185.1540  179.9950  145.1900 N   0  0  0  0  0  0  0  0  0  0  0  0
  185.6130  178.6100  147.1120 N   0  0  0  0  0  0  0  0  0  0  0  0
  186.2380  177.4710  147.5430 C   0  0  0  0  0  3  0  0  0  0  0  0
  186.9970  176.9320  145.2680 C   0  0  0  0  0  0  0  0  0  0  0  0
  186.3520  178.0930  144.8550 C   0  0  0  0  0  0  0  0  0  0  0  0
  187.7050  176.0320  144.3090 C   0  0  0  0  0  2  0  0  0  0  0  0
  189.8390  177.3480  144.0610 N   0  0  0  0  0  2  0  0  0  0  0  0
  191.2470  177.6360  144.0120 C   0  0  0  0  0  0  0  0  0  0  0  0
  189.1860  176.1410  144.4710 C   0  0  0  0  0  0  0  0  0  0  0  0
  191.6080  178.8080  143.7290 O   0  0  0  0  0  0  0  0  0  0  0  0
  189.8280  175.1810  144.9720 O   0  0  0  0  0  0  0  0  0  0  0  0
  192.3200  176.6160  144.2640 C   0  0  1  0  0  3  0  0  0  0  0  0
  192.6390  174.5820  143.0560 O   0  0  0  0  0  1  0  0  0  0  0  0
  192.7840  175.9660  142.9710 C   0  0  0  0  0  2  0  0  0  0  0  0
  193.4390  177.1910  144.9970 N   0  0  0  0  0  2  0  0  0  0  0  0
  193.5850  176.4310  146.2280 C   0  0  0  0  0  2  0  0  0  0  0  0
  194.6910  175.4840  146.0900 C   0  0  0  0  0  0  0  0  0  0  0  0
  195.6010  174.7030  145.9760 C   0  0  0  0  0  3  0  0  0  0  0  0
  186.7810  178.4220  142.3430 C   0  0  0  0  0  2  0  0  0  0  0  0
  185.8310  177.5340  141.5560 C   0  0  0  0  0  2  0  0  0  0  0  0
  184.9410  178.3670  140.6480 C   0  0  0  0  0  2  0  0  0  0  0  0
  183.1070  178.2410  142.1700 O   0  0  0  0  0  1  0  0  0  0  0  0
  182.6150  177.7760  139.9810 O   0  0  0  0  0  0  0  0  0  0  0  0
  183.5060  178.1400  140.9810 C   0  0  0  0  0  0  0  0  0  0  0  0
  1  7  1  0  0  0  0
  2  6  1  0  0  0  0
  3  5  1  0  0  0  0
  4  3  2  0  0  0  0
  4  9  1  0  0  0  0
  5  2  2  0  0  0  0
  6  7  2  0  0  0  0
  8  1  1  0  0  0  0
  9  8  2  0  0  0  0
  9  2  1  0  0  0  0
 10 13  1  0  0  0  0
 10  8  1  0  0  0  0
 11 13  1  0  0  0  0
 12 11  1  0  0  0  0
 12 16  1  0  0  0  0
 13 15  2  0  0  0  0
 14 12  2  0  0  0  0
 16 18  1  6  0  0  0
 16 19  1  0  0  0  0
 18 17  1  0  0  0  0
 19 20  1  0  0  0  0
 21 20  1  0  0  0  0
 22 21  3  0  0  0  0
 23  4  1  0  0  0  0
 24 23  1  0  0  0  0
 25 28  1  0  0  0  0
 25 24  1  0  0  0  0
 27 28  2  0  0  0  0
 28 26  1  0  0  0  0
M  END
>  <MODEL>
4

>  <REMARK>
 VINA RESULT:      -6.1      1.965      2.603
  Name = 
  11 active torsions:
  status: ('A' for Active; 'I' for Inactive)
    1  A    between atoms: C_1  and  C_23
    2  A    between atoms: C_1  and  C_28
    3  A    between atoms: N_2  and  C_3
    4  A    between atoms: N_2  and  CA_24
    5  A    between atoms: C_3  and  C_17
    6  A    between atoms: C_11  and  CA_24
    7  A    between atoms: C_12  and  C_26
    8  A    between atoms: C_16  and  C_22
    9  A    between atoms: C_18  and  CA_24
   10  A    between atoms: C_19  and  C_22
   11  A    between atoms: C_23  and  C_26
                            x       y       z     vdW  Elec       q    Type
                         _______ _______ _______ _____ _____    ______ ____

>  <TORSDO>
F 11

$$$$
=
 OpenBabel11062419573D

 28 29  0  0  1  0  0  0  0  0999 V2000
  186.4180  178.1650  142.7300 C   0  0  0  0  0  2  0  0  0  0  0  0
  185.1640  177.8750  145.1590 C   0  0  0  0  0  0  0  0  0  0  0  0
  185.8180  177.3200  147.1290 N   0  0  0  0  0  0  0  0  0  0  0  0
  186.9290  177.3360  146.3460 C   0  0  0  0  0  0  0  0  0  0  0  0
  184.7440  177.6490  146.4130 N   0  0  0  0  0  0  0  0  0  0  0  0
  184.4030  178.1950  144.0870 N   0  0  0  0  0  0  0  0  0  0  0  0
  185.0200  178.3440  142.8740 C   0  0  0  0  0  3  0  0  0  0  0  0
  187.2200  177.8260  143.8390 C   0  0  0  0  0  0  0  0  0  0  0  0
  186.5710  177.6820  145.0610 C   0  0  0  0  0  0  0  0  0  0  0  0
  188.6980  177.6580  143.7000 C   0  0  0  0  0  2  0  0  0  0  0  0
  190.3390  176.0800  142.6220 N   0  0  0  0  0  2  0  0  0  0  0  0
  190.8460  174.9120  141.9530 C   0  0  0  0  0  0  0  0  0  0  0  0
  189.0330  176.3050  143.1650 C   0  0  0  0  0  0  0  0  0  0  0  0
  192.0680  174.8780  141.6540 O   0  0  0  0  0  0  0  0  0  0  0  0
  188.1720  175.3890  143.2120 O   0  0  0  0  0  0  0  0  0  0  0  0
  190.0010  173.7300  141.5750 C   0  0  1  0  0  3  0  0  0  0  0  0
  188.1850  173.2630  140.0970 O   0  0  0  0  0  1  0  0  0  0  0  0
  189.4330  173.8800  140.1720 C   0  0  0  0  0  2  0  0  0  0  0  0
  190.7360  172.4820  141.7170 N   0  0  0  0  0  2  0  0  0  0  0  0
  189.8820  171.5590  142.4460 C   0  0  0  0  0  2  0  0  0  0  0  0
  189.7720  171.9910  143.8390 C   0  0  0  0  0  0  0  0  0  0  0  0
  189.6810  172.3450  144.9880 C   0  0  0  0  0  3  0  0  0  0  0  0
  188.2880  176.9370  146.8210 C   0  0  0  0  0  2  0  0  0  0  0  0
  188.4720  175.4310  146.7200 C   0  0  0  0  0  2  0  0  0  0  0  0
  189.7070  174.9870  147.4870 C   0  0  0  0  0  2  0  0  0  0  0  0
  191.3300  175.4230  145.7930 O   0  0  0  0  0  0  0  0  0  0  0  0
  191.6220  176.5560  147.7630 O   0  0  0  0  0  1  0  0  0  0  0  0
  190.9200  175.6720  146.9560 C   0  0  0  0  0  0  0  0  0  0  0  0
  1  7  1  0  0  0  0
  1  8  1  0  0  0  0
  2  5  2  0  0  0  0
  4 23  1  0  0  0  0
  4  3  2  0  0  0  0
  5  3  1  0  0  0  0
  6  2  1  0  0  0  0
  7  6  2  0  0  0  0
  8  9  2  0  0  0  0
  9  2  1  0  0  0  0
  9  4  1  0  0  0  0
 10  8  1  0  0  0  0
 11 13  1  0  0  0  0
 12 11  1  0  0  0  0
 13 15  2  0  0  0  0
 13 10  1  0  0  0  0
 14 12  2  0  0  0  0
 16 18  1  6  0  0  0
 16 19  1  0  0  0  0
 16 12  1  0  0  0  0
 17 18  1  0  0  0  0
 19 20  1  0  0  0  0
 20 21  1  0  0  0  0
 21 22  3  0  0  0  0
 24 23  1  0  0  0  0
 24 25  1  0  0  0  0
 26 28  2  0  0  0  0
 28 25  1  0  0  0  0
 28 27  1  0  0  0  0
M  END
>  <MODEL>
5

>  <REMARK>
 VINA RESULT:      -6.0      2.545      5.307
  Name = 
  11 active torsions:
  status: ('A' for Active; 'I' for Inactive)
    1  A    between atoms: C_1  and  C_23
    2  A    between atoms: C_1  and  C_28
    3  A    between atoms: N_2  and  C_3
    4  A    between atoms: N_2  and  CA_24
    5  A    between atoms: C_3  and  C_17
    6  A    between atoms: C_11  and  CA_24
    7  A    between atoms: C_12  and  C_26
    8  A    between atoms: C_16  and  C_22
    9  A    between atoms: C_18  and  CA_24
   10  A    between atoms: C_19  and  C_22
   11  A    between atoms: C_23  and  C_26
                            x       y       z     vdW  Elec       q    Type
                         _______ _______ _______ _____ _____    ______ ____

>  <TORSDO>
F 11

$$$$
=
 OpenBabel11062419573D

 28 29  0  0  1  0  0  0  0  0999 V2000
  188.2620  177.0120  142.3230 C   0  0  0  0  0  2  0  0  0  0  0  0
  185.6740  177.8140  141.8560 C   0  0  0  0  0  0  0  0  0  0  0  0
  184.1710  178.7930  143.0380 N   0  0  0  0  0  0  0  0  0  0  0  0
  185.2820  178.7150  143.8170 C   0  0  0  0  0  0  0  0  0  0  0  0
  184.4060  178.2480  141.8450 N   0  0  0  0  0  0  0  0  0  0  0  0
  186.3230  177.1570  140.8670 N   0  0  0  0  0  0  0  0  0  0  0  0
  187.6130  176.7560  141.0900 C   0  0  0  0  0  3  0  0  0  0  0  0
  187.5940  177.6890  143.3640 C   0  0  0  0  0  0  0  0  0  0  0  0
  186.2860  178.0880  143.1130 C   0  0  0  0  0  0  0  0  0  0  0  0
  188.2800  177.9820  144.6580 C   0  0  0  0  0  2  0  0  0  0  0  0
  189.9320  176.1520  145.1780 N   0  0  0  0  0  2  0  0  0  0  0  0
  191.1940  175.4930  145.3800 C   0  0  0  0  0  0  0  0  0  0  0  0
  189.6790  177.4600  144.6500 C   0  0  0  0  0  0  0  0  0  0  0  0
  191.1870  174.2910  145.7510 O   0  0  0  0  0  0  0  0  0  0  0  0
  190.6030  178.1680  144.1720 O   0  0  0  0  0  0  0  0  0  0  0  0
  192.5260  176.1580  145.1890 C   0  0  1  0  0  3  0  0  0  0  0  0
  194.5590  176.7150  146.3110 O   0  0  0  0  0  1  0  0  0  0  0  0
  193.2130  176.4180  146.5210 C   0  0  0  0  0  2  0  0  0  0  0  0
  193.3810  175.3920  144.2940 N   0  0  0  0  0  2  0  0  0  0  0  0
  193.2100  175.9400  142.9590 C   0  0  0  0  0  2  0  0  0  0  0  0
  192.1890  175.1760  142.2440 C   0  0  0  0  0  0  0  0  0  0  0  0
  191.3470  174.5480  141.6530 C   0  0  0  0  0  3  0  0  0  0  0  0
  185.3310  179.1620  145.2420 C   0  0  0  0  0  2  0  0  0  0  0  0
  184.4330  178.2940  146.1090 C   0  0  0  0  0  2  0  0  0  0  0  0
  185.0590  176.9270  146.3340 C   0  0  0  0  0  2  0  0  0  0  0  0
  186.0040  177.8480  148.3220 O   0  0  0  0  0  1  0  0  0  0  0  0
  187.2130  176.1720  147.3320 O   0  0  0  0  0  0  0  0  0  0  0  0
  186.1050  177.0050  147.3930 C   0  0  0  0  0  0  0  0  0  0  0  0
  1  8  1  0  0  0  0
  2  9  1  0  0  0  0
  3  4  2  0  0  0  0
  4 23  1  0  0  0  0
  5  2  2  0  0  0  0
  5  3  1  0  0  0  0
  6  7  2  0  0  0  0
  6  2  1  0  0  0  0
  7  1  1  0  0  0  0
  8 10  1  0  0  0  0
  9  8  2  0  0  0  0
  9  4  1  0  0  0  0
 11 12  1  0  0  0  0
 12 14  2  0  0  0  0
 13 10  1  0  0  0  0
 13 11  1  0  0  0  0
 15 13  2  0  0  0  0
 16 12  1  0  0  0  0
 16 18  1  1  0  0  0
 17 18  1  0  0  0  0
 19 16  1  0  0  0  0
 20 19  1  0  0  0  0
 21 20  1  0  0  0  0
 22 21  3  0  0  0  0
 23 24  1  0  0  0  0
 24 25  1  0  0  0  0
 25 28  1  0  0  0  0
 27 28  2  0  0  0  0
 28 26  1  0  0  0  0
M  END
>  <MODEL>
6

>  <REMARK>
 VINA RESULT:      -5.9      2.281      4.233
  Name = 
  11 active torsions:
  status: ('A' for Active; 'I' for Inactive)
    1  A    between atoms: C_1  and  C_23
    2  A    between atoms: C_1  and  C_28
    3  A    between atoms: N_2  and  C_3
    4  A    between atoms: N_2  and  CA_24
    5  A    between atoms: C_3  and  C_17
    6  A    between atoms: C_11  and  CA_24
    7  A    between atoms: C_12  and  C_26
    8  A    between atoms: C_16  and  C_22
    9  A    between atoms: C_18  and  CA_24
   10  A    between atoms: C_19  and  C_22
   11  A    between atoms: C_23  and  C_26
                            x       y       z     vdW  Elec       q    Type
                         _______ _______ _______ _____ _____    ______ ____

>  <TORSDO>
F 11

$$$$
=
 OpenBabel11062419573D

 28 29  0  0  1  0  0  0  0  0999 V2000
  185.8960  178.3010  146.3990 C   0  0  0  0  0  2  0  0  0  0  0  0
  185.1700  178.6130  143.7650 C   0  0  0  0  0  0  0  0  0  0  0  0
  185.5360  177.4980  141.9660 N   0  0  0  0  0  0  0  0  0  0  0  0
  186.1220  176.8020  142.9750 C   0  0  0  0  0  0  0  0  0  0  0  0
  184.9560  178.5980  142.4420 N   0  0  0  0  0  0  0  0  0  0  0  0
  184.7940  179.5710  144.6450 N   0  0  0  0  0  0  0  0  0  0  0  0
  185.1480  179.4220  145.9580 C   0  0  0  0  0  3  0  0  0  0  0  0
  186.2990  177.3010  145.4900 C   0  0  0  0  0  0  0  0  0  0  0  0
  185.9260  177.4730  144.1620 C   0  0  0  0  0  0  0  0  0  0  0  0
  187.0680  176.1060  145.9510 C   0  0  0  0  0  2  0  0  0  0  0  0
  189.4270  175.2630  145.6840 N   0  0  0  0  0  2  0  0  0  0  0  0
  190.8650  175.2480  145.7110 C   0  0  0  0  0  0  0  0  0  0  0  0
  188.5370  176.3650  145.9000 C   0  0  0  0  0  0  0  0  0  0  0  0
  191.4580  174.1900  145.3780 O   0  0  0  0  0  0  0  0  0  0  0  0
  188.9660  177.5410  146.0340 O   0  0  0  0  0  0  0  0  0  0  0  0
  191.7060  176.4190  146.1290 C   0  0  1  0  0  3  0  0  0  0  0  0
  191.1120  175.4900  148.2470 O   0  0  0  0  0  1  0  0  0  0  0  0
  191.9440  176.4250  147.6310 C   0  0  0  0  0  2  0  0  0  0  0  0
  192.9620  176.4620  145.3950 N   0  0  0  0  0  2  0  0  0  0  0  0
  194.0340  176.3160  146.3650 C   0  0  0  0  0  2  0  0  0  0  0  0
  195.0140  175.3500  145.8690 C   0  0  0  0  0  0  0  0  0  0  0  0
  195.8220  174.5540  145.4620 C   0  0  0  0  0  3  0  0  0  0  0  0
  186.9280  175.5600  142.7710 C   0  0  0  0  0  2  0  0  0  0  0  0
  187.9790  175.7730  141.6930 C   0  0  0  0  0  2  0  0  0  0  0  0
  189.3380  176.0540  142.3140 C   0  0  0  0  0  2  0  0  0  0  0  0
  188.9260  178.3110  141.6580 O   0  0  0  0  0  0  0  0  0  0  0  0
  190.5520  178.0200  143.2450 O   0  0  0  0  0  1  0  0  0  0  0  0
  189.5780  177.5230  142.3910 C   0  0  0  0  0  0  0  0  0  0  0  0
  2  9  1  0  0  0  0
  2  6  1  0  0  0  0
  3  5  1  0  0  0  0
  3  4  2  0  0  0  0
  4  9  1  0  0  0  0
  5  2  2  0  0  0  0
  6  7  2  0  0  0  0
  7  1  1  0  0  0  0
  8 10  1  0  0  0  0
  8  1  1  0  0  0  0
  9  8  2  0  0  0  0
 11 12  1  0  0  0  0
 11 13  1  0  0  0  0
 12 16  1  0  0  0  0
 13 10  1  0  0  0  0
 13 15  2  0  0  0  0
 14 12  2  0  0  0  0
 16 18  1  1  0  0  0
 18 17  1  0  0  0  0
 19 16  1  0  0  0  0
 19 20  1  0  0  0  0
 21 20  1  0  0  0  0
 22 21  3  0  0  0  0
 23  4  1  0  0  0  0
 24 25  1  0  0  0  0
 24 23  1  0  0  0  0
 25 28  1  0  0  0  0
 26 28  2  0  0  0  0
 28 27  1  0  0  0  0
M  END
>  <MODEL>
7

>  <REMARK>
 VINA RESULT:      -5.9      1.465      2.166
  Name = 
  11 active torsions:
  status: ('A' for Active; 'I' for Inactive)
    1  A    between atoms: C_1  and  C_23
    2  A    between atoms: C_1  and  C_28
    3  A    between atoms: N_2  and  C_3
    4  A    between atoms: N_2  and  CA_24
    5  A    between atoms: C_3  and  C_17
    6  A    between atoms: C_11  and  CA_24
    7  A    between atoms: C_12  and  C_26
    8  A    between atoms: C_16  and  C_22
    9  A    between atoms: C_18  and  CA_24
   10  A    between atoms: C_19  and  C_22
   11  A    between atoms: C_23  and  C_26
                            x       y       z     vdW  Elec       q    Type
                         _______ _______ _______ _____ _____    ______ ____

>  <TORSDO>
F 11

$$$$
=
 OpenBabel11062419573D

 28 29  0  0  1  0  0  0  0  0999 V2000
  188.0990  177.2380  142.1310 C   0  0  0  0  0  2  0  0  0  0  0  0
  185.4640  177.9200  141.7440 C   0  0  0  0  0  0  0  0  0  0  0  0
  183.9420  178.7940  142.9830 N   0  0  0  0  0  0  0  0  0  0  0  0
  185.0740  178.7530  143.7350 C   0  0  0  0  0  0  0  0  0  0  0  0
  184.1750  178.2900  141.7720 N   0  0  0  0  0  0  0  0  0  0  0  0
  186.1200  177.3190  140.7240 N   0  0  0  0  0  0  0  0  0  0  0  0
  187.4330  176.9800  140.9070 C   0  0  0  0  0  3  0  0  0  0  0  0
  187.4230  177.8560  143.2030 C   0  0  0  0  0  0  0  0  0  0  0  0
  186.0910  178.1940  142.9920 C   0  0  0  0  0  0  0  0  0  0  0  0
  188.1250  178.1520  144.4880 C   0  0  0  0  0  2  0  0  0  0  0  0
  189.2080  175.9450  145.0360 N   0  0  0  0  0  2  0  0  0  0  0  0
  190.2350  174.9890  145.3500 C   0  0  0  0  0  0  0  0  0  0  0  0
  189.3500  177.3120  144.6320 C   0  0  0  0  0  0  0  0  0  0  0  0
  189.8950  173.7980  145.5730 O   0  0  0  0  0  0  0  0  0  0  0  0
  190.4790  177.8120  144.3860 O   0  0  0  0  0  0  0  0  0  0  0  0
  191.6950  175.3270  145.4430 C   0  0  1  0  0  3  0  0  0  0  0  0
  192.0600  176.6470  147.3990 O   0  0  0  0  0  1  0  0  0  0  0  0
  192.1680  175.3540  146.8880 C   0  0  0  0  0  2  0  0  0  0  0  0
  192.5040  174.4230  144.6390 N   0  0  0  0  0  2  0  0  0  0  0  0
  193.4510  173.7800  145.5330 C   0  0  0  0  0  2  0  0  0  0  0  0
  193.6570  172.3940  145.1120 C   0  0  0  0  0  0  0  0  0  0  0  0
  193.8250  171.2530  144.7640 C   0  0  0  0  0  3  0  0  0  0  0  0
  185.1350  179.1680  145.1690 C   0  0  0  0  0  2  0  0  0  0  0  0
  184.3530  178.2000  146.0420 C   0  0  0  0  0  2  0  0  0  0  0  0
  184.7840  178.3180  147.4960 C   0  0  0  0  0  2  0  0  0  0  0  0
  187.0610  178.7180  148.0850 O   0  0  0  0  0  1  0  0  0  0  0  0
  186.5990  176.6270  147.2710 O   0  0  0  0  0  0  0  0  0  0  0  0
  186.2070  177.9030  147.6490 C   0  0  0  0  0  0  0  0  0  0  0  0
  1  8  1  0  0  0  0
  2  5  2  0  0  0  0
  2  9  1  0  0  0  0
  3  4  2  0  0  0  0
  4 23  1  0  0  0  0
  5  3  1  0  0  0  0
  6  7  2  0  0  0  0
  6  2  1  0  0  0  0
  7  1  1  0  0  0  0
  8 10  1  0  0  0  0
  9  8  2  0  0  0  0
  9  4  1  0  0  0  0
 10 13  1  0  0  0  0
 11 12  1  0  0  0  0
 12 16  1  0  0  0  0
 12 14  2  0  0  0  0
 13 11  1  0  0  0  0
 15 13  2  0  0  0  0
 16 18  1  1  0  0  0
 18 17  1  0  0  0  0
 19 16  1  0  0  0  0
 19 20  1  0  0  0  0
 21 20  1  0  0  0  0
 22 21  3  0  0  0  0
 23 24  1  0  0  0  0
 24 25  1  0  0  0  0
 25 28  1  0  0  0  0
 27 28  2  0  0  0  0
 28 26  1  0  0  0  0
M  END
>  <MODEL>
8

>  <REMARK>
 VINA RESULT:      -5.8      2.275      4.116
  Name = 
  11 active torsions:
  status: ('A' for Active; 'I' for Inactive)
    1  A    between atoms: C_1  and  C_23
    2  A    between atoms: C_1  and  C_28
    3  A    between atoms: N_2  and  C_3
    4  A    between atoms: N_2  and  CA_24
    5  A    between atoms: C_3  and  C_17
    6  A    between atoms: C_11  and  CA_24
    7  A    between atoms: C_12  and  C_26
    8  A    between atoms: C_16  and  C_22
    9  A    between atoms: C_18  and  CA_24
   10  A    between atoms: C_19  and  C_22
   11  A    between atoms: C_23  and  C_26
                            x       y       z     vdW  Elec       q    Type
                         _______ _______ _______ _____ _____    ______ ____

>  <TORSDO>
F 11

$$$$
=
 OpenBabel11062419573D

 28 29  0  0  1  0  0  0  0  0999 V2000
  187.4660  177.7300  141.0380 C   0  0  0  0  0  2  0  0  0  0  0  0
  184.9110  178.1530  141.9610 C   0  0  0  0  0  0  0  0  0  0  0  0
  184.0530  178.4820  143.9030 N   0  0  0  0  0  0  0  0  0  0  0  0
  185.3960  178.3920  144.0870 C   0  0  0  0  0  0  0  0  0  0  0  0
  183.7540  178.3390  142.6130 N   0  0  0  0  0  0  0  0  0  0  0  0
  185.0770  177.9220  140.6380 N   0  0  0  0  0  0  0  0  0  0  0  0
  186.3460  177.7140  140.1690 C   0  0  0  0  0  3  0  0  0  0  0  0
  187.3040  177.9630  142.4190 C   0  0  0  0  0  0  0  0  0  0  0  0
  186.0060  178.1740  142.8710 C   0  0  0  0  0  0  0  0  0  0  0  0
  188.4820  178.0040  143.3370 C   0  0  0  0  0  2  0  0  0  0  0  0
  190.6580  176.8060  142.9150 N   0  0  0  0  0  2  0  0  0  0  0  0
  191.5780  175.7290  142.6640 C   0  0  0  0  0  0  0  0  0  0  0  0
  189.2680  176.7370  143.2530 C   0  0  0  0  0  0  0  0  0  0  0  0
  192.7930  176.0080  142.4960 O   0  0  0  0  0  0  0  0  0  0  0  0
  188.7020  175.6390  143.4910 O   0  0  0  0  0  0  0  0  0  0  0  0
  191.1730  174.2860  142.5770 C   0  0  1  0  0  3  0  0  0  0  0  0
  189.8620  173.0170  141.0380 O   0  0  0  0  0  1  0  0  0  0  0  0
  190.9740  173.8520  141.1330 C   0  0  0  0  0  2  0  0  0  0  0  0
  192.1250  173.4240  143.2610 N   0  0  0  0  0  2  0  0  0  0  0  0
  191.6570  173.2640  144.6280 C   0  0  0  0  0  2  0  0  0  0  0  0
  190.3780  172.5550  144.6270 C   0  0  0  0  0  0  0  0  0  0  0  0
  189.3240  171.9700  144.6270 C   0  0  0  0  0  3  0  0  0  0  0  0
  186.0570  178.4290  145.4270 C   0  0  0  0  0  2  0  0  0  0  0  0
  186.1070  177.0380  146.0400 C   0  0  0  0  0  2  0  0  0  0  0  0
  187.0090  177.0210  147.2630 C   0  0  0  0  0  2  0  0  0  0  0  0
  188.5610  175.2810  146.7580 O   0  0  0  0  0  0  0  0  0  0  0  0
  189.4190  177.4050  146.7620 O   0  0  0  0  0  1  0  0  0  0  0  0
  188.3630  176.5150  146.9010 C   0  0  0  0  0  0  0  0  0  0  0  0
  1  8  1  0  0  0  0
  2  5  2  0  0  0  0
  2  9  1  0  0  0  0
  3  4  2  0  0  0  0
  4 23  1  0  0  0  0
  5  3  1  0  0  0  0
  6  2  1  0  0  0  0
  7  6  2  0  0  0  0
  7  1  1  0  0  0  0
  8  9  2  0  0  0  0
  8 10  1  0  0  0  0
  9  4  1  0  0  0  0
 11 13  1  0  0  0  0
 12 11  1  0  0  0  0
 13 10  1  0  0  0  0
 13 15  2  0  0  0  0
 14 12  2  0  0  0  0
 16 18  1  6  0  0  0
 16 12  1  0  0  0  0
 16 19  1  0  0  0  0
 17 18  1  0  0  0  0
 19 20  1  0  0  0  0
 21 22  3  0  0  0  0
 21 20  1  0  0  0  0
 23 24  1  0  0  0  0
 24 25  1  0  0  0  0
 26 28  2  0  0  0  0
 27 28  1  0  0  0  0
 28 25  1  0  0  0  0
M  END
>  <MODEL>
9

>  <REMARK>
 VINA RESULT:      -5.8      2.601      4.883
  Name = 
  11 active torsions:
  status: ('A' for Active; 'I' for Inactive)
    1  A    between atoms: C_1  and  C_23
    2  A    between atoms: C_1  and  C_28
    3  A    between atoms: N_2  and  C_3
    4  A    between atoms: N_2  and  CA_24
    5  A    between atoms: C_3  and  C_17
    6  A    between atoms: C_11  and  CA_24
    7  A    between atoms: C_12  and  C_26
    8  A    between atoms: C_16  and  C_22
    9  A    between atoms: C_18  and  CA_24
   10  A    between atoms: C_19  and  C_22
   11  A    between atoms: C_23  and  C_26
                            x       y       z     vdW  Elec       q    Type
                         _______ _______ _______ _____ _____    ______ ____

>  <TORSDO>
F 11

$$$$
