=
 OpenBabel11062421263D

 31 36  0  0  1  0  0  0  0  0999 V2000
  193.0260  173.6210  145.3940 C   0  0  0  0  0  2  0  0  0  0  0  0
  191.4320  175.1900  146.2210 C   0  0  2  0  0  3  0  0  0  0  0  0
  188.4010  173.7180  141.2590 N   0  0  0  0  0  1  0  0  0  0  0  0
  186.7570  176.9390  143.9010 C   0  0  0  0  0  0  0  0  0  0  0  0
  186.1460  176.9750  146.4870 C   0  0  0  0  0  2  0  0  0  0  0  0
  185.4300  178.7070  144.6710 C   0  0  0  0  0  0  0  0  0  0  0  0
  189.2270  175.5100  144.5610 C   0  0  0  0  0  0  0  0  0  0  0  0
  188.7160  173.8380  142.6940 C   0  0  1  0  0  3  0  0  0  0  0  0
  192.6660  176.0660  146.0480 C   0  0  2  0  0  3  0  0  0  0  0  0
  185.4620  178.2900  146.1230 C   0  0  0  0  0  0  0  0  0  0  0  0
  184.8990  179.7830  144.3450 O   0  0  0  0  0  0  0  0  0  0  0  0
  187.1260  176.5720  145.3610 C   0  0  2  0  0  3  0  0  0  0  0  0
  192.6900  174.5410  146.4690 N   0  0  2  0  0  0  0  0  0  0  0  0
  190.9240  173.8690  144.0160 C   0  0  0  0  0  0  0  0  0  0  0  0
  190.0960  173.4210  142.8920 N   0  0  0  0  0  2  0  0  0  0  0  0
  190.7030  175.1080  144.7620 C   0  0  2  0  0  3  0  0  0  0  0  0
  187.2830  176.0460  142.7870 C   0  0  0  0  0  2  0  0  0  0  0  0
  185.9650  177.9160  143.6810 N   0  0  0  0  0  0  0  0  0  0  0  0
  192.0450  173.2590  144.2180 C   0  0  0  0  0  3  0  0  0  0  0  0
  184.9080  179.0400  146.9010 O   0  0  0  0  0  0  0  0  0  0  0  0
  188.5890  175.2890  143.1370 C   0  0  1  0  0  3  0  0  0  0  0  0
  188.5820  176.1810  145.5290 C   0  0  0  0  0  3  0  0  0  0  0  0
  194.1920  176.5240  146.3000 C   0  0  0  0  0  2  0  0  0  0  0  0
  195.0530  176.7620  145.1260 N   0  0  0  0  0  2  0  0  0  0  0  0
  195.0790  175.3970  143.1090 C   0  0  2  0  0  3  0  0  0  0  0  0
  193.4560  175.4720  141.5210 C   0  0  0  0  0  2  0  0  0  0  0  0
  195.6830  175.8190  144.2330 C   0  0  2  0  0  3  0  0  0  0  0  0
  193.9330  176.0490  142.7170 N   0  0  0  0  0  2  0  0  0  0  0  0
  194.0680  174.1800  141.3650 N   0  0  0  0  0  2  0  0  0  0  0  0
  195.1820  174.1660  142.2880 C   0  0  0  0  0  2  0  0  0  0  0  0
  196.7640  174.9160  144.6540 C   0  0  0  0  0  1  0  0  0  0  0  0
  1 13  1  0  0  0  0
  2 13  1  0  0  0  0
  3  8  1  0  0  0  0
  4 12  1  0  0  0  0
  6 10  1  0  0  0  0
  7 16  1  0  0  0  0
  7 22  2  0  0  0  0
  8 15  1  0  0  0  0
  8 21  1  0  0  0  0
  9  2  1  0  0  0  0
  9 23  1  0  0  0  0
  9 13  1  0  0  0  0
 10  5  1  0  0  0  0
 10 20  2  0  0  0  0
 11  6  2  0  0  0  0
 12 22  1  0  0  0  0
 12  5  1  0  0  0  0
 14 19  2  0  0  0  0
 14 16  1  0  0  0  0
 15 14  1  0  0  0  0
 16  2  1  0  0  0  0
 17 21  1  0  0  0  0
 17  4  1  0  0  0  0
 18  4  2  0  0  0  0
 18  6  1  0  0  0  0
 19  1  1  0  0  0  0
 21  7  1  0  0  0  0
 24 23  1  0  0  0  0
 25 27  1  0  0  0  0
 26 28  1  0  0  0  0
 27 31  1  0  0  0  0
 27 24  1  0  0  0  0
 28 25  1  0  0  0  0
 29 26  1  0  0  0  0
 29 30  1  0  0  0  0
 30 25  1  0  0  0  0
M  END
>  <MODEL>
1

>  <REMARK>
 VINA RESULT:      -7.7      0.000      0.000
  Name = 
  3 active torsions:
  status: ('A' for Active; 'I' for Inactive)
    1  A    between atoms: C_8  and  N_16
    2  A    between atoms: C_10  and  C_13
    3  A    between atoms: C_10  and  N_16
                            x       y       z     vdW  Elec       q    Type
                         _______ _______ _______ _____ _____    ______ ____

>  <TORSDO>
F 3

$$$$
=
 OpenBabel11062421263D

 31 36  0  0  1  0  0  0  0  0999 V2000
  187.3210  176.0530  144.3520 C   0  0  0  0  0  2  0  0  0  0  0  0
  189.3500  175.6530  143.1650 C   0  0  2  0  0  3  0  0  0  0  0  0
  191.9120  177.1310  148.3840 N   0  0  0  0  0  1  0  0  0  0  0  0
  194.5470  176.3200  144.8530 C   0  0  0  0  0  0  0  0  0  0  0  0
  194.7490  174.2240  143.2340 C   0  0  0  0  0  2  0  0  0  0  0  0
  196.4500  176.1850  143.4980 C   0  0  0  0  0  0  0  0  0  0  0  0
  191.6320  176.0950  144.6900 C   0  0  0  0  0  0  0  0  0  0  0  0
  191.5080  176.2980  147.2360 C   0  0  1  0  0  3  0  0  0  0  0  0
  188.7330  176.7830  142.3490 C   0  0  2  0  0  3  0  0  0  0  0  0
  196.0280  174.9240  142.7810 C   0  0  0  0  0  0  0  0  0  0  0  0
  197.4750  176.7900  143.1380 O   0  0  0  0  0  0  0  0  0  0  0  0
  193.8560  175.2230  144.0040 C   0  0  2  0  0  3  0  0  0  0  0  0
  187.9160  175.6470  143.0890 N   0  0  2  0  0  0  0  0  0  0  0  0
  189.4400  176.2950  145.7040 C   0  0  0  0  0  0  0  0  0  0  0  0
  190.0870  176.5070  147.0030 N   0  0  0  0  0  2  0  0  0  0  0  0
  190.1340  176.3510  144.4170 C   0  0  2  0  0  3  0  0  0  0  0  0
  193.8070  176.8490  146.0730 C   0  0  0  0  0  2  0  0  0  0  0  0
  195.7350  176.6850  144.5610 N   0  0  0  0  0  0  0  0  0  0  0  0
  188.1490  176.2840  145.6700 C   0  0  0  0  0  3  0  0  0  0  0  0
  196.7670  174.5460  141.8940 O   0  0  0  0  0  0  0  0  0  0  0  0
  192.2640  176.7290  145.9870 C   0  0  1  0  0  3  0  0  0  0  0  0
  192.3870  175.4990  143.7530 C   0  0  0  0  0  3  0  0  0  0  0  0
  187.6040  177.4960  141.4470 C   0  0  0  0  0  2  0  0  0  0  0  0
  186.8850  178.6540  142.0130 N   0  0  0  0  0  2  0  0  0  0  0  0
  185.1420  178.9700  143.6850 C   0  0  2  0  0  3  0  0  0  0  0  0
  185.5660  179.4160  145.8720 C   0  0  0  0  0  2  0  0  0  0  0  0
  185.5020  178.7840  142.4030 C   0  0  2  0  0  3  0  0  0  0  0  0
  186.1370  179.2470  144.5930 N   0  0  0  0  0  2  0  0  0  0  0  0
  184.2480  178.8400  145.8600 N   0  0  0  0  0  2  0  0  0  0  0  0
  183.9170  178.6630  144.4620 C   0  0  0  0  0  2  0  0  0  0  0  0
  184.3870  178.2910  141.5810 C   0  0  0  0  0  1  0  0  0  0  0  0
  1 19  1  0  0  0  0
  2 16  1  0  0  0  0
  4 17  1  0  0  0  0
  5 12  1  0  0  0  0
  6 18  1  0  0  0  0
  7 21  1  0  0  0  0
  8  3  1  0  0  0  0
  9 13  1  0  0  0  0
  9  2  1  0  0  0  0
 10  5  1  0  0  0  0
 10  6  1  0  0  0  0
 11  6  2  0  0  0  0
 12  4  1  0  0  0  0
 13  2  1  0  0  0  0
 13  1  1  0  0  0  0
 14 15  1  0  0  0  0
 15  8  1  0  0  0  0
 16  7  1  0  0  0  0
 16 14  1  0  0  0  0
 18  4  2  0  0  0  0
 19 14  2  0  0  0  0
 20 10  2  0  0  0  0
 21 17  1  0  0  0  0
 21  8  1  0  0  0  0
 22 12  1  0  0  0  0
 22  7  2  0  0  0  0
 23 24  1  0  0  0  0
 23  9  1  0  0  0  0
 24 27  1  0  0  0  0
 25 30  1  0  0  0  0
 25 28  1  0  0  0  0
 27 25  1  0  0  0  0
 28 26  1  0  0  0  0
 29 26  1  0  0  0  0
 30 29  1  0  0  0  0
 31 27  1  0  0  0  0
M  END
>  <MODEL>
2

>  <REMARK>
 VINA RESULT:      -7.5      3.834      8.660
  Name = 
  3 active torsions:
  status: ('A' for Active; 'I' for Inactive)
    1  A    between atoms: C_8  and  N_16
    2  A    between atoms: C_10  and  C_13
    3  A    between atoms: C_10  and  N_16
                            x       y       z     vdW  Elec       q    Type
                         _______ _______ _______ _____ _____    ______ ____

>  <TORSDO>
F 3

$$$$
=
 OpenBabel11062421263D

 31 36  0  0  1  0  0  0  0  0999 V2000
  190.6220  175.3010  147.7440 C   0  0  0  0  0  2  0  0  0  0  0  0
  189.6970  174.3410  145.7670 C   0  0  2  0  0  3  0  0  0  0  0  0
  195.1480  175.4050  143.5010 N   0  0  0  0  0  1  0  0  0  0  0  0
  191.9790  173.7690  140.7910 C   0  0  0  0  0  0  0  0  0  0  0  0
  190.4460  171.6060  140.9550 C   0  0  0  0  0  2  0  0  0  0  0  0
  190.8660  173.0880  138.8480 C   0  0  0  0  0  0  0  0  0  0  0  0
  191.4730  174.2760  143.6300 C   0  0  0  0  0  0  0  0  0  0  0  0
  193.9810  174.6400  143.9770 C   0  0  1  0  0  3  0  0  0  0  0  0
  188.7860  175.5440  145.9810 C   0  0  2  0  0  3  0  0  0  0  0  0
  190.1330  171.9370  139.4980 C   0  0  0  0  0  0  0  0  0  0  0  0
  190.6170  173.3960  137.6700 O   0  0  0  0  0  0  0  0  0  0  0  0
  191.0800  172.8370  141.6420 C   0  0  2  0  0  3  0  0  0  0  0  0
  189.4490  174.6910  147.1380 N   0  0  2  0  0  0  0  0  0  0  0  0
  192.2120  175.0740  145.7950 C   0  0  0  0  0  0  0  0  0  0  0  0
  193.5730  175.1870  145.2620 N   0  0  0  0  0  2  0  0  0  0  0  0
  191.0170  174.8850  144.9730 C   0  0  2  0  0  3  0  0  0  0  0  0
  193.0890  174.5320  141.5000 C   0  0  0  0  0  2  0  0  0  0  0  0
  191.8230  173.8080  139.5240 N   0  0  0  0  0  0  0  0  0  0  0  0
  192.0230  175.3870  147.0350 C   0  0  0  0  0  3  0  0  0  0  0  0
  189.3510  171.3380  138.7880 O   0  0  0  0  0  0  0  0  0  0  0  0
  192.8210  174.7990  143.0030 C   0  0  1  0  0  3  0  0  0  0  0  0
  190.6470  173.4600  142.9550 C   0  0  0  0  0  3  0  0  0  0  0  0
  187.7380  176.4690  146.7840 C   0  0  0  0  0  2  0  0  0  0  0  0
  186.3870  176.6490  146.2170 N   0  0  0  0  0  2  0  0  0  0  0  0
  185.8120  177.8940  144.2050 C   0  0  2  0  0  3  0  0  0  0  0  0
  186.1170  177.0920  142.1010 C   0  0  0  0  0  2  0  0  0  0  0  0
  185.8110  177.7880  145.5450 C   0  0  2  0  0  3  0  0  0  0  0  0
  186.1870  176.7890  143.4770 N   0  0  0  0  0  2  0  0  0  0  0  0
  186.0930  178.5230  141.9520 N   0  0  0  0  0  2  0  0  0  0  0  0
  185.7770  179.0420  143.2660 C   0  0  0  0  0  2  0  0  0  0  0  0
  185.5980  179.0850  146.2030 C   0  0  0  0  0  1  0  0  0  0  0  0
  2  9  1  0  0  0  0
  2 13  1  0  0  0  0
  3  8  1  0  0  0  0
  4 17  1  0  0  0  0
  4 12  1  0  0  0  0
  5 12  1  0  0  0  0
  6 10  1  0  0  0  0
  6 18  1  0  0  0  0
  7 16  1  0  0  0  0
  8 15  1  0  0  0  0
  9 23  1  0  0  0  0
  9 13  1  0  0  0  0
 10  5  1  0  0  0  0
 11  6  2  0  0  0  0
 12 22  1  0  0  0  0
 13  1  1  0  0  0  0
 14 19  2  0  0  0  0
 15 14  1  0  0  0  0
 16  2  1  0  0  0  0
 16 14  1  0  0  0  0
 17 21  1  0  0  0  0
 18  4  2  0  0  0  0
 19  1  1  0  0  0  0
 20 10  2  0  0  0  0
 21  7  1  0  0  0  0
 21  8  1  0  0  0  0
 22  7  2  0  0  0  0
 24 23  1  0  0  0  0
 25 27  1  0  0  0  0
 26 28  1  0  0  0  0
 27 31  1  0  0  0  0
 27 24  1  0  0  0  0
 28 25  1  0  0  0  0
 29 26  1  0  0  0  0
 29 30  1  0  0  0  0
 30 25  1  0  0  0  0
M  END
>  <MODEL>
3

>  <REMARK>
 VINA RESULT:      -7.2      3.454      7.455
  Name = 
  3 active torsions:
  status: ('A' for Active; 'I' for Inactive)
    1  A    between atoms: C_8  and  N_16
    2  A    between atoms: C_10  and  C_13
    3  A    between atoms: C_10  and  N_16
                            x       y       z     vdW  Elec       q    Type
                         _______ _______ _______ _____ _____    ______ ____

>  <TORSDO>
F 3

$$$$
=
 OpenBabel11062421263D

 31 36  0  0  1  0  0  0  0  0999 V2000
  191.6560  173.5990  141.7580 C   0  0  0  0  0  2  0  0  0  0  0  0
  189.6560  174.8980  141.8120 C   0  0  2  0  0  3  0  0  0  0  0  0
  190.7420  175.1050  147.7080 N   0  0  0  0  0  1  0  0  0  0  0  0
  186.9730  176.9600  146.1530 C   0  0  0  0  0  0  0  0  0  0  0  0
  186.5400  178.8100  144.2970 C   0  0  0  0  0  2  0  0  0  0  0  0
  184.8570  177.9600  146.1010 C   0  0  0  0  0  0  0  0  0  0  0  0
  188.9280  175.7070  144.3690 C   0  0  0  0  0  0  0  0  0  0  0  0
  190.5760  175.5790  146.3220 C   0  0  1  0  0  3  0  0  0  0  0  0
  189.1510  173.5770  141.2440 C   0  0  2  0  0  3  0  0  0  0  0  0
  185.1310  178.8150  144.8860 C   0  0  0  0  0  0  0  0  0  0  0  0
  183.7150  177.9240  146.5920 O   0  0  0  0  0  0  0  0  0  0  0  0
  187.2860  177.5340  144.7480 C   0  0  2  0  0  3  0  0  0  0  0  0
  190.5840  174.1910  140.9730 N   0  0  2  0  0  0  0  0  0  0  0  0
  190.9970  174.4940  144.0260 C   0  0  0  0  0  0  0  0  0  0  0  0
  191.3170  174.6850  145.4450 N   0  0  0  0  0  2  0  0  0  0  0  0
  189.6800  174.7340  143.4370 C   0  0  2  0  0  3  0  0  0  0  0  0
  188.0720  176.1870  146.8690 C   0  0  0  0  0  2  0  0  0  0  0  0
  185.8480  177.2170  146.7010 N   0  0  0  0  0  0  0  0  0  0  0  0
  191.8570  173.8640  143.2960 C   0  0  0  0  0  3  0  0  0  0  0  0
  184.1940  179.4700  144.4780 O   0  0  0  0  0  0  0  0  0  0  0  0
  189.1070  175.5250  145.9240 C   0  0  1  0  0  3  0  0  0  0  0  0
  188.0250  176.5580  143.8550 C   0  0  0  0  0  3  0  0  0  0  0  0
  189.0850  172.3600  140.1890 C   0  0  0  0  0  2  0  0  0  0  0  0
  188.5740  172.6380  138.8330 N   0  0  0  0  0  2  0  0  0  0  0  0
  188.5700  174.4230  137.1760 C   0  0  2  0  0  3  0  0  0  0  0  0
  186.9570  176.0180  137.0520 C   0  0  0  0  0  2  0  0  0  0  0  0
  189.1800  173.3700  137.7470 C   0  0  2  0  0  3  0  0  0  0  0  0
  187.4450  174.9200  137.7910 N   0  0  0  0  0  2  0  0  0  0  0  0
  187.5330  175.9700  135.7340 N   0  0  0  0  0  2  0  0  0  0  0  0
  188.6420  175.0460  135.8310 C   0  0  0  0  0  2  0  0  0  0  0  0
  190.2330  172.8080  136.8900 C   0  0  0  0  0  1  0  0  0  0  0  0
  1 19  1  0  0  0  0
  2 16  1  0  0  0  0
  4 18  2  0  0  0  0
  4 17  1  0  0  0  0
  5 12  1  0  0  0  0
  5 10  1  0  0  0  0
  6 11  2  0  0  0  0
  6 18  1  0  0  0  0
  7 21  1  0  0  0  0
  8  3  1  0  0  0  0
  9  2  1  0  0  0  0
 10  6  1  0  0  0  0
 12  4  1  0  0  0  0
 13  9  1  0  0  0  0
 13  1  1  0  0  0  0
 13  2  1  0  0  0  0
 14 15  1  0  0  0  0
 15  8  1  0  0  0  0
 16 14  1  0  0  0  0
 16  7  1  0  0  0  0
 19 14  2  0  0  0  0
 20 10  2  0  0  0  0
 21  8  1  0  0  0  0
 21 17  1  0  0  0  0
 22  7  2  0  0  0  0
 22 12  1  0  0  0  0
 23  9  1  0  0  0  0
 24 23  1  0  0  0  0
 25 27  1  0  0  0  0
 25 28  1  0  0  0  0
 26 28  1  0  0  0  0
 27 24  1  0  0  0  0
 29 30  1  0  0  0  0
 29 26  1  0  0  0  0
 30 25  1  0  0  0  0
 31 27  1  0  0  0  0
M  END
>  <MODEL>
4

>  <REMARK>
 VINA RESULT:      -7.1      3.063      5.736
  Name = 
  3 active torsions:
  status: ('A' for Active; 'I' for Inactive)
    1  A    between atoms: C_8  and  N_16
    2  A    between atoms: C_10  and  C_13
    3  A    between atoms: C_10  and  N_16
                            x       y       z     vdW  Elec       q    Type
                         _______ _______ _______ _____ _____    ______ ____

>  <TORSDO>
F 3

$$$$
=
 OpenBabel11062421263D

 31 36  0  0  1  0  0  0  0  0999 V2000
  191.0810  174.8990  146.4110 C   0  0  0  0  0  2  0  0  0  0  0  0
  189.7920  175.3020  144.4450 C   0  0  2  0  0  3  0  0  0  0  0  0
  186.3710  178.5430  148.1560 N   0  0  0  0  0  1  0  0  0  0  0  0
  185.0580  178.0570  143.9010 C   0  0  0  0  0  0  0  0  0  0  0  0
  186.2750  178.5750  141.5970 C   0  0  0  0  0  2  0  0  0  0  0  0
  183.7320  178.1250  141.9730 C   0  0  0  0  0  0  0  0  0  0  0  0
  187.5520  176.8850  144.8920 C   0  0  0  0  0  0  0  0  0  0  0  0
  187.2930  178.2400  147.0450 C   0  0  1  0  0  3  0  0  0  0  0  0
  189.7050  173.7850  144.5660 C   0  0  2  0  0  3  0  0  0  0  0  0
  184.8780  178.3640  141.0180 C   0  0  0  0  0  0  0  0  0  0  0  0
  182.5870  177.9280  141.5320 O   0  0  0  0  0  0  0  0  0  0  0  0
  186.3370  177.9920  143.0280 C   0  0  2  0  0  3  0  0  0  0  0  0
  190.9590  174.6580  144.9820 N   0  0  2  0  0  0  0  0  0  0  0  0
  189.1040  176.4450  146.6990 C   0  0  0  0  0  0  0  0  0  0  0  0
  188.3360  177.3610  147.5500 N   0  0  0  0  0  2  0  0  0  0  0  0
  188.6340  175.9190  145.4180 C   0  0  2  0  0  3  0  0  0  0  0  0
  185.2290  178.1280  145.4110 C   0  0  0  0  0  2  0  0  0  0  0  0
  183.9150  178.1310  143.3370 N   0  0  0  0  0  0  0  0  0  0  0  0
  190.1540  175.8890  147.2090 C   0  0  0  0  0  3  0  0  0  0  0  0
  184.5880  178.3920  139.8400 O   0  0  0  0  0  0  0  0  0  0  0  0
  186.5500  177.5090  145.9350 C   0  0  1  0  0  3  0  0  0  0  0  0
  187.3820  177.0370  143.5680 C   0  0  0  0  0  3  0  0  0  0  0  0
  190.2820  172.2820  144.6460 C   0  0  0  0  0  2  0  0  0  0  0  0
  190.4830  171.5410  143.3850 N   0  0  0  0  0  2  0  0  0  0  0  0
  190.3510  172.3640  141.0970 C   0  0  2  0  0  3  0  0  0  0  0  0
  188.4070  172.9720  140.0910 C   0  0  0  0  0  2  0  0  0  0  0  0
  191.0900  171.9690  142.1480 C   0  0  2  0  0  3  0  0  0  0  0  0
  189.0050  172.5550  141.2990 N   0  0  0  0  0  2  0  0  0  0  0  0
  189.3000  172.6530  139.0090 N   0  0  0  0  0  2  0  0  0  0  0  0
  190.5790  172.3820  139.6310 C   0  0  0  0  0  2  0  0  0  0  0  0
  192.4580  171.6000  141.7560 C   0  0  0  0  0  1  0  0  0  0  0  0
  1 19  1  0  0  0  0
  2  9  1  0  0  0  0
  2 13  1  0  0  0  0
  2 16  1  0  0  0  0
  4 17  1  0  0  0  0
  5 12  1  0  0  0  0
  6 18  1  0  0  0  0
  7 16  1  0  0  0  0
  7 21  1  0  0  0  0
  8 15  1  0  0  0  0
  8  3  1  0  0  0  0
  9 23  1  0  0  0  0
  9 13  1  0  0  0  0
 10  5  1  0  0  0  0
 10  6  1  0  0  0  0
 11  6  2  0  0  0  0
 12 22  1  0  0  0  0
 12  4  1  0  0  0  0
 13  1  1  0  0  0  0
 14 19  2  0  0  0  0
 14 15  1  0  0  0  0
 16 14  1  0  0  0  0
 17 21  1  0  0  0  0
 18  4  2  0  0  0  0
 20 10  2  0  0  0  0
 21  8  1  0  0  0  0
 22  7  2  0  0  0  0
 24 23  1  0  0  0  0
 25 28  1  0  0  0  0
 25 27  1  0  0  0  0
 26 28  1  0  0  0  0
 27 24  1  0  0  0  0
 29 30  1  0  0  0  0
 29 26  1  0  0  0  0
 30 25  1  0  0  0  0
 31 27  1  0  0  0  0
M  END
>  <MODEL>
5

>  <REMARK>
 VINA RESULT:      -6.9      3.038      4.941
  Name = 
  3 active torsions:
  status: ('A' for Active; 'I' for Inactive)
    1  A    between atoms: C_8  and  N_16
    2  A    between atoms: C_10  and  C_13
    3  A    between atoms: C_10  and  N_16
                            x       y       z     vdW  Elec       q    Type
                         _______ _______ _______ _____ _____    ______ ____

>  <TORSDO>
F 3

$$$$
=
 OpenBabel11062421263D

 31 36  0  0  1  0  0  0  0  0999 V2000
  192.2590  173.9930  142.4260 C   0  0  0  0  0  2  0  0  0  0  0  0
  190.0660  174.9180  142.2770 C   0  0  2  0  0  3  0  0  0  0  0  0
  191.1590  176.7020  147.8990 N   0  0  0  0  0  1  0  0  0  0  0  0
  187.1100  177.4830  146.1480 C   0  0  0  0  0  0  0  0  0  0  0  0
  186.3450  178.7380  143.9350 C   0  0  0  0  0  2  0  0  0  0  0  0
  184.8530  178.0760  145.9710 C   0  0  0  0  0  0  0  0  0  0  0  0
  189.2350  176.1810  144.6080 C   0  0  0  0  0  0  0  0  0  0  0  0
  190.8990  176.7970  146.4500 C   0  0  1  0  0  3  0  0  0  0  0  0
  189.7910  173.4350  142.0590 C   0  0  2  0  0  3  0  0  0  0  0  0
  184.9630  178.6500  144.5780 C   0  0  0  0  0  0  0  0  0  0  0  0
  183.7390  177.9700  146.5130 O   0  0  0  0  0  0  0  0  0  0  0  0
  187.3060  177.7490  144.6330 C   0  0  2  0  0  3  0  0  0  0  0  0
  191.0940  174.1950  141.5800 N   0  0  2  0  0  0  0  0  0  0  0  0
  191.4790  175.2820  144.4530 C   0  0  0  0  0  0  0  0  0  0  0  0
  191.7750  175.8560  145.7690 N   0  0  0  0  0  2  0  0  0  0  0  0
  190.1340  175.1520  143.8920 C   0  0  2  0  0  3  0  0  0  0  0  0
  188.3330  177.0950  146.9670 C   0  0  0  0  0  2  0  0  0  0  0  0
  185.9640  177.6730  146.6760 N   0  0  0  0  0  0  0  0  0  0  0  0
  192.4270  174.6460  143.8470 C   0  0  0  0  0  3  0  0  0  0  0  0
  183.9230  179.0250  144.0760 O   0  0  0  0  0  0  0  0  0  0  0  0
  189.4580  176.4080  146.1520 C   0  0  1  0  0  3  0  0  0  0  0  0
  188.1930  176.7230  143.9560 C   0  0  0  0  0  3  0  0  0  0  0  0
  189.9260  172.0080  141.3210 C   0  0  0  0  0  2  0  0  0  0  0  0
  189.6520  171.9410  139.8720 N   0  0  0  0  0  2  0  0  0  0  0  0
  189.5940  173.5650  138.0580 C   0  0  2  0  0  3  0  0  0  0  0  0
  187.8160  174.9160  137.6380 C   0  0  0  0  0  2  0  0  0  0  0  0
  190.2690  172.6550  138.7800 C   0  0  2  0  0  3  0  0  0  0  0  0
  188.3600  173.9580  138.5200 N   0  0  0  0  0  2  0  0  0  0  0  0
  188.5230  174.8350  136.3880 N   0  0  0  0  0  2  0  0  0  0  0  0
  189.7240  174.0770  136.6720 C   0  0  0  0  0  2  0  0  0  0  0  0
  191.4660  172.1670  138.0780 C   0  0  0  0  0  1  0  0  0  0  0  0
  1 19  1  0  0  0  0
  2 16  1  0  0  0  0
  4 18  2  0  0  0  0
  4 17  1  0  0  0  0
  5 10  1  0  0  0  0
  5 12  1  0  0  0  0
  6 11  2  0  0  0  0
  6 18  1  0  0  0  0
  7 21  1  0  0  0  0
  8  3  1  0  0  0  0
  9  2  1  0  0  0  0
 10  6  1  0  0  0  0
 12  4  1  0  0  0  0
 13  9  1  0  0  0  0
 13  2  1  0  0  0  0
 13  1  1  0  0  0  0
 14 15  1  0  0  0  0
 15  8  1  0  0  0  0
 16 14  1  0  0  0  0
 16  7  1  0  0  0  0
 19 14  2  0  0  0  0
 20 10  2  0  0  0  0
 21  8  1  0  0  0  0
 21 17  1  0  0  0  0
 22  7  2  0  0  0  0
 22 12  1  0  0  0  0
 23  9  1  0  0  0  0
 24 23  1  0  0  0  0
 25 28  1  0  0  0  0
 25 27  1  0  0  0  0
 26 28  1  0  0  0  0
 27 24  1  0  0  0  0
 29 30  1  0  0  0  0
 29 26  1  0  0  0  0
 30 25  1  0  0  0  0
 31 27  1  0  0  0  0
M  END
>  <MODEL>
6

>  <REMARK>
 VINA RESULT:      -6.9      2.752      5.228
  Name = 
  3 active torsions:
  status: ('A' for Active; 'I' for Inactive)
    1  A    between atoms: C_8  and  N_16
    2  A    between atoms: C_10  and  C_13
    3  A    between atoms: C_10  and  N_16
                            x       y       z     vdW  Elec       q    Type
                         _______ _______ _______ _____ _____    ______ ____

>  <TORSDO>
F 3

$$$$
=
 OpenBabel11062421263D

 31 36  0  0  1  0  0  0  0  0999 V2000
  189.8940  173.5380  140.9560 C   0  0  0  0  0  2  0  0  0  0  0  0
  189.2930  174.2180  143.1610 C   0  0  2  0  0  3  0  0  0  0  0  0
  185.9620  178.2910  140.2810 N   0  0  0  0  0  1  0  0  0  0  0  0
  186.1340  178.4340  144.7550 C   0  0  0  0  0  0  0  0  0  0  0  0
  185.6080  176.6070  146.6110 C   0  0  0  0  0  2  0  0  0  0  0  0
  185.8640  179.1810  146.9570 C   0  0  0  0  0  0  0  0  0  0  0  0
  187.5540  176.3840  143.2190 C   0  0  0  0  0  0  0  0  0  0  0  0
  186.2860  177.1250  141.1250 C   0  0  1  0  0  3  0  0  0  0  0  0
  190.8020  174.4340  143.1720 C   0  0  2  0  0  3  0  0  0  0  0  0
  185.6750  177.8060  147.5540 C   0  0  0  0  0  0  0  0  0  0  0  0
  185.9450  180.1750  147.6990 O   0  0  0  0  0  0  0  0  0  0  0  0
  186.2620  176.9740  145.2590 C   0  0  2  0  0  3  0  0  0  0  0  0
  190.0560  173.2850  142.3780 N   0  0  2  0  0  0  0  0  0  0  0  0
  188.2060  175.4110  141.0980 C   0  0  0  0  0  0  0  0  0  0  0  0
  187.2720  176.3180  140.4220 N   0  0  0  0  0  2  0  0  0  0  0  0
  188.6300  175.5510  142.4910 C   0  0  2  0  0  3  0  0  0  0  0  0
  186.1500  178.6730  143.2520 C   0  0  0  0  0  2  0  0  0  0  0  0
  185.9390  179.3740  145.5970 N   0  0  0  0  0  0  0  0  0  0  0  0
  188.8700  174.5780  140.3670 C   0  0  0  0  0  3  0  0  0  0  0  0
  185.5670  177.7640  148.7630 O   0  0  0  0  0  0  0  0  0  0  0  0
  186.9000  177.5870  142.4400 C   0  0  1  0  0  3  0  0  0  0  0  0
  187.3250  176.1800  144.5270 C   0  0  0  0  0  3  0  0  0  0  0  0
  192.3500  174.0030  143.0440 C   0  0  0  0  0  2  0  0  0  0  0  0
  193.1290  173.8180  144.2830 N   0  0  0  0  0  2  0  0  0  0  0  0
  193.0750  175.3590  146.1690 C   0  0  2  0  0  3  0  0  0  0  0  0
  191.3200  175.5290  147.6010 C   0  0  0  0  0  2  0  0  0  0  0  0
  193.7420  174.7990  145.1450 C   0  0  2  0  0  3  0  0  0  0  0  0
  191.8580  174.8160  146.5090 N   0  0  0  0  0  2  0  0  0  0  0  0
  192.0030  176.7900  147.7010 N   0  0  0  0  0  2  0  0  0  0  0  0
  193.1910  176.6520  146.8860 C   0  0  0  0  0  2  0  0  0  0  0  0
  194.9150  175.5930  144.7490 C   0  0  0  0  0  1  0  0  0  0  0  0
  1 13  1  0  0  0  0
  2  9  1  0  0  0  0
  3  8  1  0  0  0  0
  4 12  1  0  0  0  0
  4 18  2  0  0  0  0
  5 10  1  0  0  0  0
  6 10  1  0  0  0  0
  6 11  2  0  0  0  0
  7 22  2  0  0  0  0
  8 21  1  0  0  0  0
 10 20  2  0  0  0  0
 12  5  1  0  0  0  0
 13  2  1  0  0  0  0
 13  9  1  0  0  0  0
 14 16  1  0  0  0  0
 15 14  1  0  0  0  0
 15  8  1  0  0  0  0
 16  2  1  0  0  0  0
 16  7  1  0  0  0  0
 17  4  1  0  0  0  0
 18  6  1  0  0  0  0
 19  1  1  0  0  0  0
 19 14  2  0  0  0  0
 21  7  1  0  0  0  0
 21 17  1  0  0  0  0
 22 12  1  0  0  0  0
 23  9  1  0  0  0  0
 23 24  1  0  0  0  0
 24 27  1  0  0  0  0
 25 28  1  0  0  0  0
 25 30  1  0  0  0  0
 26 29  1  0  0  0  0
 27 25  1  0  0  0  0
 28 26  1  0  0  0  0
 30 29  1  0  0  0  0
 31 27  1  0  0  0  0
M  END
>  <MODEL>
7

>  <REMARK>
 VINA RESULT:      -6.9      1.826      3.894
  Name = 
  3 active torsions:
  status: ('A' for Active; 'I' for Inactive)
    1  A    between atoms: C_8  and  N_16
    2  A    between atoms: C_10  and  C_13
    3  A    between atoms: C_10  and  N_16
                            x       y       z     vdW  Elec       q    Type
                         _______ _______ _______ _____ _____    ______ ____

>  <TORSDO>
F 3

$$$$
=
 OpenBabel11062421263D

 31 36  0  0  1  0  0  0  0  0999 V2000
  192.0890  173.9650  142.3070 C   0  0  0  0  0  2  0  0  0  0  0  0
  189.9090  174.9260  142.2010 C   0  0  2  0  0  3  0  0  0  0  0  0
  191.1750  176.7650  147.7680 N   0  0  0  0  0  1  0  0  0  0  0  0
  187.0970  177.5930  146.1090 C   0  0  0  0  0  0  0  0  0  0  0  0
  186.2980  178.8330  143.8990 C   0  0  0  0  0  2  0  0  0  0  0  0
  184.8470  178.2240  145.9810 C   0  0  0  0  0  0  0  0  0  0  0  0
  189.1590  176.2350  144.5340 C   0  0  0  0  0  0  0  0  0  0  0  0
  190.8800  176.8460  146.3250 C   0  0  1  0  0  3  0  0  0  0  0  0
  189.6030  173.4450  142.0100 C   0  0  2  0  0  3  0  0  0  0  0  0
  184.9320  178.7780  144.5780 C   0  0  0  0  0  0  0  0  0  0  0  0
  183.7460  178.1450  146.5530 O   0  0  0  0  0  0  0  0  0  0  0  0
  187.2590  177.8360  144.5870 C   0  0  2  0  0  3  0  0  0  0  0  0
  190.9070  174.1760  141.4880 N   0  0  2  0  0  0  0  0  0  0  0  0
  191.3830  175.2940  144.3350 C   0  0  0  0  0  0  0  0  0  0  0  0
  191.7220  175.8800  145.6360 N   0  0  0  0  0  2  0  0  0  0  0  0
  190.0230  175.1810  143.8100 C   0  0  2  0  0  3  0  0  0  0  0  0
  188.3330  177.1960  146.9020 C   0  0  0  0  0  2  0  0  0  0  0  0
  185.9680  177.8110  146.6630 N   0  0  0  0  0  0  0  0  0  0  0  0
  192.3050  174.6340  143.7140 C   0  0  0  0  0  3  0  0  0  0  0  0
  183.8860  179.1640  144.0970 O   0  0  0  0  0  0  0  0  0  0  0  0
  189.4250  176.4780  146.0690 C   0  0  1  0  0  3  0  0  0  0  0  0
  188.1110  176.7860  143.9010 C   0  0  0  0  0  3  0  0  0  0  0  0
  189.6950  172.0060  141.2890 C   0  0  0  0  0  2  0  0  0  0  0  0
  190.0790  170.8380  142.1050 N   0  0  0  0  0  2  0  0  0  0  0  0
  192.2760  169.9970  142.7360 C   0  0  2  0  0  3  0  0  0  0  0  0
  193.4440  170.7580  144.5300 C   0  0  0  0  0  2  0  0  0  0  0  0
  191.1870  169.9270  141.9510 C   0  0  2  0  0  3  0  0  0  0  0  0
  192.2190  170.8240  143.8330 N   0  0  0  0  0  2  0  0  0  0  0  0
  194.4370  170.2000  143.6520 N   0  0  0  0  0  2  0  0  0  0  0  0
  193.6950  169.6030  142.5610 C   0  0  0  0  0  2  0  0  0  0  0  0
  191.4460  169.1810  140.7110 C   0  0  0  0  0  1  0  0  0  0  0  0
  1 19  1  0  0  0  0
  2 16  1  0  0  0  0
  4 18  2  0  0  0  0
  4 17  1  0  0  0  0
  5 10  1  0  0  0  0
  5 12  1  0  0  0  0
  6 11  2  0  0  0  0
  6 18  1  0  0  0  0
  7 21  1  0  0  0  0
  8  3  1  0  0  0  0
  9  2  1  0  0  0  0
 10  6  1  0  0  0  0
 12  4  1  0  0  0  0
 13  9  1  0  0  0  0
 13  2  1  0  0  0  0
 13  1  1  0  0  0  0
 14 15  1  0  0  0  0
 15  8  1  0  0  0  0
 16 14  1  0  0  0  0
 16  7  1  0  0  0  0
 19 14  2  0  0  0  0
 20 10  2  0  0  0  0
 21  8  1  0  0  0  0
 21 17  1  0  0  0  0
 22  7  2  0  0  0  0
 22 12  1  0  0  0  0
 23  9  1  0  0  0  0
 23 24  1  0  0  0  0
 25 28  1  0  0  0  0
 27 24  1  0  0  0  0
 27 25  1  0  0  0  0
 28 26  1  0  0  0  0
 29 26  1  0  0  0  0
 30 25  1  0  0  0  0
 30 29  1  0  0  0  0
 31 27  1  0  0  0  0
M  END
>  <MODEL>
8

>  <REMARK>
 VINA RESULT:      -6.8      2.466      4.744
  Name = 
  3 active torsions:
  status: ('A' for Active; 'I' for Inactive)
    1  A    between atoms: C_8  and  N_16
    2  A    between atoms: C_10  and  C_13
    3  A    between atoms: C_10  and  N_16
                            x       y       z     vdW  Elec       q    Type
                         _______ _______ _______ _____ _____    ______ ____

>  <TORSDO>
F 3

$$$$
=
 OpenBabel11062421263D

 31 36  0  0  1  0  0  0  0  0999 V2000
  191.3110  172.2720  143.4490 C   0  0  0  0  0  2  0  0  0  0  0  0
  190.0310  173.8530  144.6940 C   0  0  2  0  0  3  0  0  0  0  0  0
  187.8170  175.3010  139.3110 N   0  0  0  0  0  1  0  0  0  0  0  0
  186.5350  177.6950  142.8730 C   0  0  0  0  0  0  0  0  0  0  0  0
  185.4340  176.9870  145.1850 C   0  0  0  0  0  2  0  0  0  0  0  0
  185.5700  179.3870  144.1710 C   0  0  0  0  0  0  0  0  0  0  0  0
  188.3700  175.4260  143.1160 C   0  0  0  0  0  0  0  0  0  0  0  0
  187.8490  174.7900  140.6940 C   0  0  1  0  0  3  0  0  0  0  0  0
  191.4560  174.2980  145.0030 C   0  0  2  0  0  3  0  0  0  0  0  0
  185.1950  178.4880  145.3250 C   0  0  0  0  0  0  0  0  0  0  0  0
  185.4080  180.6160  144.2630 O   0  0  0  0  0  0  0  0  0  0  0  0
  186.4900  176.7300  144.0860 C   0  0  2  0  0  3  0  0  0  0  0  0
  191.0040  172.7990  144.7690 N   0  0  2  0  0  0  0  0  0  0  0  0
  189.6710  173.6480  142.1080 C   0  0  0  0  0  0  0  0  0  0  0  0
  189.0070  173.9200  140.8280 N   0  0  0  0  0  2  0  0  0  0  0  0
  189.6220  174.5370  143.2680 C   0  0  2  0  0  3  0  0  0  0  0  0
  187.0350  177.1470  141.5450 C   0  0  0  0  0  2  0  0  0  0  0  0
  186.0800  178.8810  142.9970 N   0  0  0  0  0  0  0  0  0  0  0  0
  190.5340  172.6870  142.1450 C   0  0  0  0  0  3  0  0  0  0  0  0
  184.7020  179.0400  146.2880 O   0  0  0  0  0  0  0  0  0  0  0  0
  188.0060  175.9450  141.6730 C   0  0  1  0  0  3  0  0  0  0  0  0
  187.7310  175.8690  144.2110 C   0  0  0  0  0  3  0  0  0  0  0  0
  192.9610  174.1290  145.5550 C   0  0  0  0  0  2  0  0  0  0  0  0
  194.0790  174.4500  144.6460 N   0  0  0  0  0  2  0  0  0  0  0  0
  195.7430  175.8230  143.5150 C   0  0  2  0  0  3  0  0  0  0  0  0
  197.1860  175.0180  141.9570 C   0  0  0  0  0  2  0  0  0  0  0  0
  194.6970  175.7210  144.3540 C   0  0  2  0  0  3  0  0  0  0  0  0
  196.0770  174.7140  142.7750 N   0  0  0  0  0  2  0  0  0  0  0  0
  197.8210  176.2000  142.4740 N   0  0  0  0  0  2  0  0  0  0  0  0
  196.8590  176.7910  143.3800 C   0  0  0  0  0  2  0  0  0  0  0  0
  194.5750  176.8940  145.2320 C   0  0  0  0  0  1  0  0  0  0  0  0
  1 13  1  0  0  0  0
  2 13  1  0  0  0  0
  2  9  1  0  0  0  0
  3  8  1  0  0  0  0
  4 18  2  0  0  0  0
  4 12  1  0  0  0  0
  5 10  1  0  0  0  0
  6 11  2  0  0  0  0
  6 10  1  0  0  0  0
  7 16  1  0  0  0  0
  7 22  2  0  0  0  0
  8 15  1  0  0  0  0
  8 21  1  0  0  0  0
  9 23  1  0  0  0  0
 10 20  2  0  0  0  0
 12 22  1  0  0  0  0
 12  5  1  0  0  0  0
 13  9  1  0  0  0  0
 14 19  2  0  0  0  0
 14 16  1  0  0  0  0
 15 14  1  0  0  0  0
 16  2  1  0  0  0  0
 17 21  1  0  0  0  0
 17  4  1  0  0  0  0
 18  6  1  0  0  0  0
 19  1  1  0  0  0  0
 21  7  1  0  0  0  0
 24 23  1  0  0  0  0
 25 27  1  0  0  0  0
 26 29  1  0  0  0  0
 26 28  1  0  0  0  0
 27 24  1  0  0  0  0
 27 31  1  0  0  0  0
 28 25  1  0  0  0  0
 29 30  1  0  0  0  0
 30 25  1  0  0  0  0
M  END
>  <MODEL>
9

>  <REMARK>
 VINA RESULT:      -6.7      1.634      2.275
  Name = 
  3 active torsions:
  status: ('A' for Active; 'I' for Inactive)
    1  A    between atoms: C_8  and  N_16
    2  A    between atoms: C_10  and  C_13
    3  A    between atoms: C_10  and  N_16
                            x       y       z     vdW  Elec       q    Type
                         _______ _______ _______ _____ _____    ______ ____

>  <TORSDO>
F 3

$$$$
