=
 OpenBabel11062419013D

 51 56  0  0  1  0  0  0  0  0999 V2000
  183.7070  178.2190  141.0530 C   0  0  0  0  0  3  0  0  0  0  0  0
  184.7660  179.3400  143.4580 C   0  0  1  0  0  3  0  0  0  0  0  0
  185.5230  178.5470  142.5340 O   0  0  0  0  0  0  0  0  0  0  0  0
  185.0160  178.1540  141.2900 C   0  0  0  0  0  0  0  0  0  0  0  0
  183.2820  179.1570  143.2640 C   0  0  0  0  0  3  0  0  0  0  0  0
  182.7970  178.6840  142.1140 C   0  0  0  0  0  0  0  0  0  0  0  0
  181.3900  178.5980  141.9190 N   0  0  0  0  0  0  0  0  0  0  0  0
  180.1240  177.8220  141.7670 C   0  0  0  0  0  2  0  0  0  0  0  0
  180.0470  179.1960  141.6680 C   0  0  2  0  0  3  0  0  0  0  0  0
  179.9720  179.6330  140.2150 C   0  0  2  0  0  3  0  0  0  0  0  0
  179.9240  181.0860  140.1440 N   0  0  0  0  0  2  0  0  0  0  0  0
  178.5780  181.0710  139.7210 N   0  0  0  0  0  0  0  0  0  0  0  0
  178.5490  179.6160  139.7420 C   0  0  0  0  0  2  0  0  0  0  0  0
  178.5580  181.5000  138.3280 C   0  0  0  0  0  2  0  0  0  0  0  0
  177.9800  182.7690  138.2350 O   0  0  0  0  0  1  0  0  0  0  0  0
  185.9850  180.1290  145.3570 F   0  0  0  0  0  0  0  0  0  0  0  0
  184.0730  179.0120  145.7120 F   0  0  0  0  0  0  0  0  0  0  0  0
  185.2010  179.0770  144.9100 C   0  0  0  0  0  0  0  0  0  0  0  0
  185.9870  178.0470  147.6180 C   0  0  0  0  0  1  0  0  0  0  0  0
  187.2130  176.3240  146.5260 O   0  0  0  0  0  0  0  0  0  0  0  0
  186.0020  177.7650  145.0790 C   0  0  2  0  0  3  0  0  0  0  0  0
  186.0260  177.0800  146.4420 C   0  0  2  0  0  0  0  0  0  0  0  0
  188.1050  176.7870  145.5300 C   0  0  1  0  0  3  0  0  0  0  0  0
  187.4360  177.8280  144.6600 C   0  0  0  0  0  2  0  0  0  0  0  0
  184.9310  176.2220  146.5350 O   0  0  0  0  0  1  0  0  0  0  0  0
  189.3490  177.3640  146.1800 C   0  0  0  0  0  2  0  0  0  0  0  0
  190.0920  178.0750  145.2510 F   0  0  0  0  0  0  0  0  0  0  0  0
  185.9350  177.6450  140.2370 C   0  0  0  0  0  2  0  0  0  0  0  0
  187.2440  177.6240  140.7230 O   0  0  0  0  0  0  0  0  0  0  0  0
  187.6290  176.2850  140.6330 C   0  0  0  0  0  2  0  0  0  0  0  0
  188.3500  175.8760  141.9000 C   0  0  0  0  0  2  0  0  0  0  0  0
  187.7660  174.6840  142.4030 O   0  0  0  0  0  0  0  0  0  0  0  0
  188.3470  173.4330  142.1960 C   0  0  0  0  0  0  0  0  0  0  0  0
  187.8900  172.6840  141.2910 O   0  0  0  0  0  0  0  0  0  0  0  0
  189.4510  173.0000  142.9940 N   0  0  0  0  0  2  0  0  0  0  0  0
  190.0320  171.7380  142.7970 N   0  0  0  0  0  2  0  0  0  0  0  0
  191.1280  171.8510  141.8310 C   0  0  2  0  0  3  0  0  0  0  0  0
  191.6040  169.8540  140.6060 O   0  0  0  0  0  1  0  0  0  0  0  0
  190.9880  170.9500  140.6340 C   0  0  0  0  0  0  0  0  0  0  0  0
  190.2110  171.3250  139.5420 O   0  0  0  0  0  0  0  0  0  0  0  0
  192.4460  171.8030  142.4740 N   0  0  0  0  0  2  0  0  0  0  0  0
  192.4940  172.7320  143.5260 N   0  0  0  0  0  2  0  0  0  0  0  0
  195.0980  173.9420  141.8270 N   0  0  0  0  0  2  0  0  0  0  0  0
  192.9600  173.9880  142.9600 C   0  0  1  0  0  3  0  0  0  0  0  0
  195.9770  175.0870  141.7350 C   0  0  0  0  0  2  0  0  0  0  0  0
  196.6320  176.7000  143.2910 C   0  0  0  0  0  1  0  0  0  0  0  0
  192.4530  175.1400  143.7690 C   0  0  0  0  0  2  0  0  0  0  0  0
  195.4740  176.1140  142.6330 N   0  0  0  0  0  0  0  0  0  0  0  0
  194.7350  175.4480  143.6250 N   0  0  1  0  0  0  0  0  0  0  0  0
  193.5100  176.1360  143.7550 N   0  0  0  0  0  2  0  0  0  0  0  0
  194.4500  174.1060  143.1160 C   0  0  2  0  0  3  0  0  0  0  0  0
  1  4  2  0  0  0  0
  1  6  1  0  0  0  0
  2 18  1  1  0  0  0
  3  2  1  0  0  0  0
  4  3  1  0  0  0  0
  5  2  1  0  0  0  0
  6  5  2  0  0  0  0
  7  6  1  0  0  0  0
  8  7  1  0  0  0  0
  9  8  1  6  0  0  0
  9  7  1  0  0  0  0
 10 13  1  1  0  0  0
 10  9  1  0  0  0  0
 11 10  1  0  0  0  0
 12 13  1  0  0  0  0
 12 11  1  0  0  0  0
 14 12  1  0  0  0  0
 15 14  1  0  0  0  0
 18 16  1  0  0  0  0
 18 17  1  0  0  0  0
 21 18  1  1  0  0  0
 21 22  1  0  0  0  0
 22 20  1  0  0  0  0
 22 25  1  0  0  0  0
 22 19  1  1  0  0  0
 23 26  1  1  0  0  0
 23 20  1  0  0  0  0
 24 21  1  0  0  0  0
 24 23  1  0  0  0  0
 27 26  1  0  0  0  0
 28 29  1  0  0  0  0
 28  4  1  0  0  0  0
 30 29  1  0  0  0  0
 30 31  1  0  0  0  0
 31 32  1  0  0  0  0
 33 32  1  0  0  0  0
 33 35  1  0  0  0  0
 34 33  2  0  0  0  0
 36 35  1  0  0  0  0
 37 39  1  6  0  0  0
 37 41  1  0  0  0  0
 37 36  1  0  0  0  0
 38 39  1  0  0  0  0
 40 39  2  0  0  0  0
 41 42  1  0  0  0  0
 44 51  1  0  0  0  0
 44 42  1  1  0  0  0
 44 47  1  0  0  0  0
 45 43  1  0  0  0  0
 45 48  1  0  0  0  0
 48 46  1  0  0  0  0
 48 49  1  0  0  0  0
 49 50  1  6  0  0  0
 50 47  1  0  0  0  0
 51 43  1  6  0  0  0
 51 49  1  0  0  0  0
M  END
>  <MODEL>
1

>  <REMARK>
 VINA RESULT:      -7.2      0.000      0.000
  Name = 
  18 active torsions:
  status: ('A' for Active; 'I' for Inactive)
    1  A    between atoms: C_1  and  C_15
    2  A    between atoms: C_1  and  N_40
    3  A    between atoms: C_1  and  N_46
    4  A    between atoms: C_3  and  O_14
    5  A    between atoms: N_5  and  C_33
    6  A    between atoms: C_6  and  C_24
    7  A    between atoms: C_6  and  O_43
    8  A    between atoms: C_9  and  N_36
    9  A    between atoms: C_10  and  C_38
   10  A    between atoms: C_12  and  C_27
   11  A    between atoms: C_12  and  O_43
   12  A    between atoms: O_14  and  C_24
   13  A    between atoms: C_17  and  C_37
   14  A    between atoms: C_23  and  N_34
   15  A    between atoms: C_29  and  C_37
   16  A    between atoms: N_36  and  N_46
   17  A    between atoms: C_39  and  C_41
   18  A    between atoms: N_40  and  N_44
                            x       y       z     vdW  Elec       q    Type
                         _______ _______ _______ _____ _____    ______ ____

>  <TORSDO>
F 18

$$$$
=
 OpenBabel11062419013D

 51 56  0  0  1  0  0  0  0  0999 V2000
  189.5020  173.5640  142.5560 C   0  0  0  0  0  3  0  0  0  0  0  0
  189.2100  176.3750  142.9660 C   0  0  1  0  0  3  0  0  0  0  0  0
  189.4140  175.4230  144.0170 O   0  0  0  0  0  0  0  0  0  0  0  0
  189.7160  174.0800  143.7660 C   0  0  0  0  0  0  0  0  0  0  0  0
  188.7330  175.7130  141.6980 C   0  0  0  0  0  3  0  0  0  0  0  0
  188.9260  174.4080  141.4960 C   0  0  0  0  0  0  0  0  0  0  0  0
  188.5440  173.8180  140.2590 N   0  0  0  0  0  0  0  0  0  0  0  0
  188.0690  172.6660  139.4370 C   0  0  0  0  0  2  0  0  0  0  0  0
  188.3490  173.8470  138.7800 C   0  0  2  0  0  3  0  0  0  0  0  0
  189.7090  173.7850  138.1070 C   0  0  2  0  0  3  0  0  0  0  0  0
  189.5360  173.6300  136.6700 N   0  0  0  0  0  2  0  0  0  0  0  0
  190.0140  172.3010  136.7050 N   0  0  0  0  0  0  0  0  0  0  0  0
  190.2400  172.3820  138.1410 C   0  0  0  0  0  2  0  0  0  0  0  0
  191.3140  172.2930  136.0460 C   0  0  0  0  0  2  0  0  0  0  0  0
  191.4360  171.1440  135.2610 O   0  0  0  0  0  1  0  0  0  0  0  0
  188.9300  178.3090  144.3440 F   0  0  0  0  0  0  0  0  0  0  0  0
  187.9700  178.3010  142.3170 F   0  0  0  0  0  0  0  0  0  0  0  0
  188.2780  177.5140  143.4150 C   0  0  0  0  0  0  0  0  0  0  0  0
  185.8950  179.3120  143.7360 C   0  0  0  0  0  1  0  0  0  0  0  0
  184.8090  177.5440  144.9020 O   0  0  0  0  0  0  0  0  0  0  0  0
  186.9580  177.0100  144.0450 C   0  0  2  0  0  3  0  0  0  0  0  0
  185.6760  177.8070  143.8220 C   0  0  2  0  0  0  0  0  0  0  0  0
  185.5720  176.9900  145.9580 C   0  0  1  0  0  3  0  0  0  0  0  0
  187.0020  176.7640  145.5200 C   0  0  0  0  0  2  0  0  0  0  0  0
  185.0760  177.3760  142.6400 O   0  0  0  0  0  1  0  0  0  0  0  0
  185.5300  177.9130  147.1630 C   0  0  0  0  0  2  0  0  0  0  0  0
  184.7430  179.0210  146.8950 F   0  0  0  0  0  0  0  0  0  0  0  0
  190.2590  173.2210  144.8520 C   0  0  0  0  0  2  0  0  0  0  0  0
  190.4220  171.9150  144.3850 O   0  0  0  0  0  0  0  0  0  0  0  0
  191.8010  171.7030  144.4130 C   0  0  0  0  0  2  0  0  0  0  0  0
  192.2100  170.8480  143.2330 C   0  0  0  0  0  2  0  0  0  0  0  0
  193.1350  169.8640  143.6690 O   0  0  0  0  0  0  0  0  0  0  0  0
  194.4710  170.1690  143.9280 C   0  0  0  0  0  0  0  0  0  0  0  0
  195.0450  169.6350  144.9150 O   0  0  0  0  0  0  0  0  0  0  0  0
  195.1890  171.0730  143.0860 N   0  0  0  0  0  2  0  0  0  0  0  0
  196.5300  171.3930  143.3470 N   0  0  0  0  0  2  0  0  0  0  0  0
  196.6320  172.8070  143.7170 C   0  0  2  0  0  3  0  0  0  0  0  0
  196.8870  172.2330  146.0240 O   0  0  0  0  0  1  0  0  0  0  0  0
  197.1670  173.0440  145.1040 C   0  0  0  0  0  0  0  0  0  0  0  0
  197.9410  174.1640  145.3910 O   0  0  0  0  0  0  0  0  0  0  0  0
  195.4090  173.5550  143.4050 N   0  0  0  0  0  2  0  0  0  0  0  0
  195.7360  174.7310  142.7100 N   0  0  0  0  0  2  0  0  0  0  0  0
  195.0790  176.0400  145.7070 N   0  0  0  0  0  2  0  0  0  0  0  0
  194.9520  175.8020  143.3010 C   0  0  1  0  0  3  0  0  0  0  0  0
  194.0070  176.5830  146.5130 C   0  0  0  0  0  2  0  0  0  0  0  0
  191.6960  176.2580  146.4860 C   0  0  0  0  0  1  0  0  0  0  0  0
  193.7210  176.0530  142.4890 C   0  0  0  0  0  2  0  0  0  0  0  0
  192.8230  176.6890  145.6760 N   0  0  0  0  0  0  0  0  0  0  0  0
  192.9760  175.7410  144.6500 N   0  0  1  0  0  0  0  0  0  0  0  0
  192.6760  176.3980  143.4370 N   0  0  0  0  0  2  0  0  0  0  0  0
  194.3890  175.3630  144.6240 C   0  0  2  0  0  3  0  0  0  0  0  0
  1  4  2  0  0  0  0
  2 18  1  1  0  0  0
  2  3  1  0  0  0  0
  4  3  1  0  0  0  0
  4 28  1  0  0  0  0
  5  2  1  0  0  0  0
  6  5  2  0  0  0  0
  6  1  1  0  0  0  0
  7  6  1  0  0  0  0
  8  7  1  0  0  0  0
  9  8  1  6  0  0  0
  9  7  1  0  0  0  0
 10 13  1  1  0  0  0
 10  9  1  0  0  0  0
 11 12  1  0  0  0  0
 11 10  1  0  0  0  0
 12 13  1  0  0  0  0
 14 12  1  0  0  0  0
 15 14  1  0  0  0  0
 17 18  1  0  0  0  0
 18 16  1  0  0  0  0
 20 23  1  0  0  0  0
 21 18  1  1  0  0  0
 21 24  1  0  0  0  0
 22 19  1  6  0  0  0
 22 21  1  0  0  0  0
 22 20  1  0  0  0  0
 23 26  1  1  0  0  0
 24 23  1  0  0  0  0
 25 22  1  0  0  0  0
 27 26  1  0  0  0  0
 29 30  1  0  0  0  0
 29 28  1  0  0  0  0
 31 32  1  0  0  0  0
 31 30  1  0  0  0  0
 32 33  1  0  0  0  0
 33 34  2  0  0  0  0
 35 36  1  0  0  0  0
 35 33  1  0  0  0  0
 37 36  1  1  0  0  0
 37 39  1  0  0  0  0
 39 40  2  0  0  0  0
 39 38  1  0  0  0  0
 41 37  1  0  0  0  0
 42 41  1  0  0  0  0
 43 45  1  0  0  0  0
 44 42  1  6  0  0  0
 44 51  1  0  0  0  0
 47 44  1  0  0  0  0
 47 50  1  0  0  0  0
 48 46  1  0  0  0  0
 48 45  1  0  0  0  0
 49 50  1  6  0  0  0
 49 48  1  0  0  0  0
 51 49  1  0  0  0  0
 51 43  1  1  0  0  0
M  END
>  <MODEL>
2

>  <REMARK>
 VINA RESULT:      -7.1      4.361      7.487
  Name = 
  18 active torsions:
  status: ('A' for Active; 'I' for Inactive)
    1  A    between atoms: C_1  and  C_15
    2  A    between atoms: C_1  and  N_40
    3  A    between atoms: C_1  and  N_46
    4  A    between atoms: C_3  and  O_14
    5  A    between atoms: N_5  and  C_33
    6  A    between atoms: C_6  and  C_24
    7  A    between atoms: C_6  and  O_43
    8  A    between atoms: C_9  and  N_36
    9  A    between atoms: C_10  and  C_38
   10  A    between atoms: C_12  and  C_27
   11  A    between atoms: C_12  and  O_43
   12  A    between atoms: O_14  and  C_24
   13  A    between atoms: C_17  and  C_37
   14  A    between atoms: C_23  and  N_34
   15  A    between atoms: C_29  and  C_37
   16  A    between atoms: N_36  and  N_46
   17  A    between atoms: C_39  and  C_41
   18  A    between atoms: N_40  and  N_44
                            x       y       z     vdW  Elec       q    Type
                         _______ _______ _______ _____ _____    ______ ____

>  <TORSDO>
F 18

$$$$
=
 OpenBabel11062419013D

 51 56  0  0  1  0  0  0  0  0999 V2000
  190.4150  174.5970  143.4030 C   0  0  0  0  0  3  0  0  0  0  0  0
  187.9710  175.9780  143.9310 C   0  0  1  0  0  3  0  0  0  0  0  0
  188.3710  175.5110  142.6370 O   0  0  0  0  0  0  0  0  0  0  0  0
  189.4940  174.6980  142.4460 C   0  0  0  0  0  0  0  0  0  0  0  0
  189.1390  176.0590  144.8810 C   0  0  0  0  0  3  0  0  0  0  0  0
  190.2550  175.3640  144.6500 C   0  0  0  0  0  0  0  0  0  0  0  0
  191.3140  175.3870  145.6000 N   0  0  0  0  0  0  0  0  0  0  0  0
  192.0580  176.0140  146.7320 C   0  0  0  0  0  2  0  0  0  0  0  0
  192.5600  174.8390  146.2130 C   0  0  2  0  0  3  0  0  0  0  0  0
  193.7240  175.1130  145.2760 C   0  0  2  0  0  3  0  0  0  0  0  0
  194.4560  173.8780  145.0340 N   0  0  0  0  0  2  0  0  0  0  0  0
  195.5630  174.3280  145.7860 N   0  0  0  0  0  0  0  0  0  0  0  0
  194.9100  175.6010  146.0550 C   0  0  0  0  0  2  0  0  0  0  0  0
  196.6520  174.5720  144.8480 C   0  0  0  0  0  2  0  0  0  0  0  0
  197.8480  174.0840  145.3790 O   0  0  0  0  0  1  0  0  0  0  0  0
  187.9440  178.3150  144.4370 F   0  0  0  0  0  0  0  0  0  0  0  0
  187.0420  177.6380  142.4980 F   0  0  0  0  0  0  0  0  0  0  0  0
  187.2050  177.3100  143.8350 C   0  0  0  0  0  0  0  0  0  0  0  0
  185.4940  179.7630  144.0940 C   0  0  0  0  0  1  0  0  0  0  0  0
  183.9510  178.4640  145.3570 O   0  0  0  0  0  0  0  0  0  0  0  0
  185.8120  177.2610  144.5030 C   0  0  2  0  0  3  0  0  0  0  0  0
  184.8290  178.4020  144.2560 C   0  0  2  0  0  0  0  0  0  0  0  0
  184.5350  177.7500  146.4300 C   0  0  1  0  0  3  0  0  0  0  0  0
  185.8160  177.0780  145.9870 C   0  0  0  0  0  2  0  0  0  0  0  0
  184.0960  178.1250  143.1030 O   0  0  0  0  0  1  0  0  0  0  0  0
  184.8080  178.6910  147.5890 C   0  0  0  0  0  2  0  0  0  0  0  0
  185.9160  179.4780  147.3200 F   0  0  0  0  0  0  0  0  0  0  0  0
  189.6700  173.9580  141.1670 C   0  0  0  0  0  2  0  0  0  0  0  0
  189.0940  172.6910  141.2720 O   0  0  0  0  0  0  0  0  0  0  0  0
  190.0850  171.8170  140.8230 C   0  0  0  0  0  2  0  0  0  0  0  0
  190.7050  171.1010  142.0030 C   0  0  0  0  0  2  0  0  0  0  0  0
  191.9450  170.5350  141.6050 O   0  0  0  0  0  0  0  0  0  0  0  0
  193.1410  171.2460  141.6870 C   0  0  0  0  0  0  0  0  0  0  0  0
  193.8450  171.1500  142.7300 O   0  0  0  0  0  0  0  0  0  0  0  0
  193.5760  172.0730  140.6060 N   0  0  0  0  0  2  0  0  0  0  0  0
  194.7730  172.7980  140.6870 N   0  0  0  0  0  2  0  0  0  0  0  0
  194.6270  174.0650  139.9640 C   0  0  2  0  0  3  0  0  0  0  0  0
  195.9880  176.0090  140.2520 O   0  0  0  0  0  0  0  0  0  0  0  0
  195.0910  175.2710  140.7350 C   0  0  0  0  0  0  0  0  0  0  0  0
  194.5660  175.5640  141.9900 O   0  0  0  0  0  1  0  0  0  0  0  0
  193.3000  174.2090  139.3550 N   0  0  0  0  0  2  0  0  0  0  0  0
  193.4170  174.8390  138.1050 N   0  0  0  0  0  2  0  0  0  0  0  0
  190.2620  173.9000  137.5670 N   0  0  0  0  0  2  0  0  0  0  0  0
  192.6430  174.0500  137.1610 C   0  0  1  0  0  3  0  0  0  0  0  0
  189.4530  172.7700  137.1630 C   0  0  0  0  0  2  0  0  0  0  0  0
  189.8010  170.4640  137.2710 C   0  0  0  0  0  1  0  0  0  0  0  0
  193.4800  172.9420  136.6040 C   0  0  0  0  0  2  0  0  0  0  0  0
  190.3480  171.7040  136.7420 N   0  0  0  0  0  0  0  0  0  0  0  0
  191.5690  171.9260  137.4010 N   0  0  1  0  0  0  0  0  0  0  0  0
  192.5850  171.8120  136.4290 N   0  0  0  0  0  2  0  0  0  0  0  0
  191.5510  173.3090  137.8790 C   0  0  2  0  0  3  0  0  0  0  0  0
  1  6  1  0  0  0  0
  2 18  1  6  0  0  0
  2  5  1  0  0  0  0
  3  2  1  0  0  0  0
  4  3  1  0  0  0  0
  4  1  2  0  0  0  0
  6  5  2  0  0  0  0
  6  7  1  0  0  0  0
  7  9  1  0  0  0  0
  7  8  1  0  0  0  0
  9  8  1  1  0  0  0
 10 13  1  1  0  0  0
 10  9  1  0  0  0  0
 11 10  1  0  0  0  0
 11 12  1  0  0  0  0
 12 13  1  0  0  0  0
 14 15  1  0  0  0  0
 14 12  1  0  0  0  0
 17 18  1  0  0  0  0
 18 16  1  0  0  0  0
 20 23  1  0  0  0  0
 21 18  1  1  0  0  0
 21 24  1  0  0  0  0
 22 19  1  6  0  0  0
 22 21  1  0  0  0  0
 22 20  1  0  0  0  0
 23 26  1  1  0  0  0
 24 23  1  0  0  0  0
 25 22  1  0  0  0  0
 27 26  1  0  0  0  0
 28 29  1  0  0  0  0
 28  4  1  0  0  0  0
 30 29  1  0  0  0  0
 30 31  1  0  0  0  0
 32 33  1  0  0  0  0
 32 31  1  0  0  0  0
 33 34  2  0  0  0  0
 35 36  1  0  0  0  0
 35 33  1  0  0  0  0
 37 41  1  1  0  0  0
 37 36  1  0  0  0  0
 37 39  1  0  0  0  0
 38 39  2  0  0  0  0
 39 40  1  0  0  0  0
 42 41  1  0  0  0  0
 44 51  1  0  0  0  0
 44 42  1  1  0  0  0
 45 43  1  0  0  0  0
 47 44  1  0  0  0  0
 48 45  1  0  0  0  0
 48 46  1  0  0  0  0
 48 49  1  0  0  0  0
 49 50  1  6  0  0  0
 49 51  1  0  0  0  0
 50 47  1  0  0  0  0
 51 43  1  6  0  0  0
M  END
>  <MODEL>
3

>  <REMARK>
 VINA RESULT:      -7.0      4.522      8.976
  Name = 
  18 active torsions:
  status: ('A' for Active; 'I' for Inactive)
    1  A    between atoms: C_1  and  C_15
    2  A    between atoms: C_1  and  N_40
    3  A    between atoms: C_1  and  N_46
    4  A    between atoms: C_3  and  O_14
    5  A    between atoms: N_5  and  C_33
    6  A    between atoms: C_6  and  C_24
    7  A    between atoms: C_6  and  O_43
    8  A    between atoms: C_9  and  N_36
    9  A    between atoms: C_10  and  C_38
   10  A    between atoms: C_12  and  C_27
   11  A    between atoms: C_12  and  O_43
   12  A    between atoms: O_14  and  C_24
   13  A    between atoms: C_17  and  C_37
   14  A    between atoms: C_23  and  N_34
   15  A    between atoms: C_29  and  C_37
   16  A    between atoms: N_36  and  N_46
   17  A    between atoms: C_39  and  C_41
   18  A    between atoms: N_40  and  N_44
                            x       y       z     vdW  Elec       q    Type
                         _______ _______ _______ _____ _____    ______ ____

>  <TORSDO>
F 18

$$$$
=
 OpenBabel11062419013D

 51 56  0  0  1  0  0  0  0  0999 V2000
  189.3050  174.2680  141.5360 C   0  0  0  0  0  3  0  0  0  0  0  0
  187.3100  175.8580  142.8190 C   0  0  1  0  0  3  0  0  0  0  0  0
  187.4940  175.7850  141.4000 O   0  0  0  0  0  0  0  0  0  0  0  0
  188.3710  174.8720  140.8030 C   0  0  0  0  0  0  0  0  0  0  0  0
  188.5270  175.3720  143.5660 C   0  0  0  0  0  3  0  0  0  0  0  0
  189.4230  174.5840  142.9690 C   0  0  0  0  0  0  0  0  0  0  0  0
  190.5200  174.0680  143.7140 N   0  0  0  0  0  0  0  0  0  0  0  0
  191.1230  173.0960  144.6740 C   0  0  0  0  0  2  0  0  0  0  0  0
  191.9380  174.0940  144.1790 C   0  0  2  0  0  3  0  0  0  0  0  0
  192.0980  175.2160  145.1910 C   0  0  2  0  0  3  0  0  0  0  0  0
  193.0420  176.2000  144.6810 N   0  0  0  0  0  2  0  0  0  0  0  0
  194.0160  175.8340  145.6350 N   0  0  0  0  0  0  0  0  0  0  0  0
  193.1240  174.8430  146.2190 C   0  0  0  0  0  2  0  0  0  0  0  0
  194.1360  176.9390  146.5760 C   0  0  0  0  0  2  0  0  0  0  0  0
  194.9390  177.9410  146.0250 O   0  0  0  0  0  1  0  0  0  0  0  0
  187.9000  177.8560  143.9930 F   0  0  0  0  0  0  0  0  0  0  0  0
  186.6690  178.0450  142.1270 F   0  0  0  0  0  0  0  0  0  0  0  0
  186.8830  177.2700  143.2570 C   0  0  0  0  0  0  0  0  0  0  0  0
  185.4930  179.8300  143.9850 C   0  0  0  0  0  1  0  0  0  0  0  0
  184.0030  178.5530  145.3310 O   0  0  0  0  0  0  0  0  0  0  0  0
  185.5940  177.2810  144.1110 C   0  0  2  0  0  3  0  0  0  0  0  0
  184.7140  178.5270  144.1150 C   0  0  2  0  0  0  0  0  0  0  0  0
  184.6450  177.6770  146.2390 C   0  0  1  0  0  3  0  0  0  0  0  0
  185.7770  176.9400  145.5560 C   0  0  0  0  0  2  0  0  0  0  0  0
  183.8090  178.4440  143.0590 O   0  0  0  0  0  1  0  0  0  0  0  0
  185.1700  178.4600  147.4290 C   0  0  0  0  0  2  0  0  0  0  0  0
  186.4770  178.8640  147.2020 F   0  0  0  0  0  0  0  0  0  0  0  0
  188.2740  174.5880  139.3460 C   0  0  0  0  0  2  0  0  0  0  0  0
  189.3570  173.8040  138.9450 O   0  0  0  0  0  0  0  0  0  0  0  0
  189.2470  173.7390  137.5550 C   0  0  0  0  0  2  0  0  0  0  0  0
  190.5730  174.1020  136.9220 C   0  0  0  0  0  2  0  0  0  0  0  0
  191.5580  173.1680  137.3350 O   0  0  0  0  0  0  0  0  0  0  0  0
  192.8870  173.5370  137.5400 C   0  0  0  0  0  0  0  0  0  0  0  0
  193.8050  172.8570  137.0060 O   0  0  0  0  0  0  0  0  0  0  0  0
  193.2140  174.6760  138.3400 N   0  0  0  0  0  2  0  0  0  0  0  0
  194.5500  175.0460  138.5570 N   0  0  0  0  0  2  0  0  0  0  0  0
  194.8800  174.8690  139.9740 C   0  0  2  0  0  3  0  0  0  0  0  0
  195.4210  176.7950  141.2830 O   0  0  0  0  0  1  0  0  0  0  0  0
  195.8420  175.8930  140.5140 C   0  0  0  0  0  0  0  0  0  0  0  0
  197.1840  175.8760  140.1490 O   0  0  0  0  0  0  0  0  0  0  0  0
  195.2300  173.4810  140.2960 N   0  0  0  0  0  2  0  0  0  0  0  0
  195.0160  173.2430  141.6640 N   0  0  0  0  0  2  0  0  0  0  0  0
  193.3680  170.8920  139.9650 N   0  0  0  0  0  2  0  0  0  0  0  0
  194.6340  171.8460  141.7940 C   0  0  1  0  0  3  0  0  0  0  0  0
  192.4270  169.8050  140.1270 C   0  0  0  0  0  2  0  0  0  0  0  0
  190.7870  169.3670  141.7300 C   0  0  0  0  0  1  0  0  0  0  0  0
  194.4370  171.4960  143.2350 C   0  0  0  0  0  2  0  0  0  0  0  0
  192.2100  169.6060  141.5510 N   0  0  0  0  0  0  0  0  0  0  0  0
  192.5000  170.8320  142.1730 N   0  0  1  0  0  0  0  0  0  0  0  0
  193.3380  170.5470  143.2720 N   0  0  0  0  0  2  0  0  0  0  0  0
  193.2650  171.6280  141.2130 C   0  0  2  0  0  3  0  0  0  0  0  0
  1  6  1  0  0  0  0
  2 18  1  1  0  0  0
  2  5  1  0  0  0  0
  3  2  1  0  0  0  0
  4  3  1  0  0  0  0
  4  1  2  0  0  0  0
  6  5  2  0  0  0  0
  6  7  1  0  0  0  0
  7  9  1  0  0  0  0
  7  8  1  0  0  0  0
  9  8  1  1  0  0  0
  9 10  1  0  0  0  0
 10 13  1  1  0  0  0
 11 10  1  0  0  0  0
 11 12  1  0  0  0  0
 12 13  1  0  0  0  0
 12 14  1  0  0  0  0
 15 14  1  0  0  0  0
 17 18  1  0  0  0  0
 18 16  1  0  0  0  0
 20 23  1  0  0  0  0
 21 18  1  1  0  0  0
 21 22  1  0  0  0  0
 21 24  1  0  0  0  0
 22 19  1  6  0  0  0
 22 20  1  0  0  0  0
 23 26  1  1  0  0  0
 24 23  1  0  0  0  0
 25 22  1  0  0  0  0
 27 26  1  0  0  0  0
 28  4  1  0  0  0  0
 29 28  1  0  0  0  0
 30 29  1  0  0  0  0
 31 32  1  0  0  0  0
 31 30  1  0  0  0  0
 32 33  1  0  0  0  0
 33 35  1  0  0  0  0
 34 33  2  0  0  0  0
 35 36  1  0  0  0  0
 37 36  1  6  0  0  0
 37 41  1  0  0  0  0
 37 39  1  0  0  0  0
 39 38  1  0  0  0  0
 40 39  2  0  0  0  0
 41 42  1  0  0  0  0
 43 45  1  0  0  0  0
 44 42  1  1  0  0  0
 44 47  1  0  0  0  0
 45 48  1  0  0  0  0
 47 50  1  0  0  0  0
 48 46  1  0  0  0  0
 48 49  1  0  0  0  0
 49 50  1  1  0  0  0
 51 43  1  6  0  0  0
 51 44  1  0  0  0  0
 51 49  1  0  0  0  0
M  END
>  <MODEL>
4

>  <REMARK>
 VINA RESULT:      -6.9      4.476      8.084
  Name = 
  18 active torsions:
  status: ('A' for Active; 'I' for Inactive)
    1  A    between atoms: C_1  and  C_15
    2  A    between atoms: C_1  and  N_40
    3  A    between atoms: C_1  and  N_46
    4  A    between atoms: C_3  and  O_14
    5  A    between atoms: N_5  and  C_33
    6  A    between atoms: C_6  and  C_24
    7  A    between atoms: C_6  and  O_43
    8  A    between atoms: C_9  and  N_36
    9  A    between atoms: C_10  and  C_38
   10  A    between atoms: C_12  and  C_27
   11  A    between atoms: C_12  and  O_43
   12  A    between atoms: O_14  and  C_24
   13  A    between atoms: C_17  and  C_37
   14  A    between atoms: C_23  and  N_34
   15  A    between atoms: C_29  and  C_37
   16  A    between atoms: N_36  and  N_46
   17  A    between atoms: C_39  and  C_41
   18  A    between atoms: N_40  and  N_44
                            x       y       z     vdW  Elec       q    Type
                         _______ _______ _______ _____ _____    ______ ____

>  <TORSDO>
F 18

$$$$
=
 OpenBabel11062419013D

 51 56  0  0  1  0  0  0  0  0999 V2000
  183.5930  178.1650  141.1550 C   0  0  0  0  0  3  0  0  0  0  0  0
  184.5810  179.3030  143.5820 C   0  0  1  0  0  3  0  0  0  0  0  0
  185.3580  178.4840  142.6990 O   0  0  0  0  0  0  0  0  0  0  0  0
  184.8910  178.0810  141.4420 C   0  0  0  0  0  0  0  0  0  0  0  0
  183.1020  179.1430  143.3350 C   0  0  0  0  0  3  0  0  0  0  0  0
  182.6530  178.6610  142.1740 C   0  0  0  0  0  0  0  0  0  0  0  0
  181.2520  178.5970  141.9280 N   0  0  0  0  0  0  0  0  0  0  0  0
  179.9810  177.8400  141.7320 C   0  0  0  0  0  2  0  0  0  0  0  0
  179.9290  179.2150  141.6250 C   0  0  2  0  0  3  0  0  0  0  0  0
  179.9150  179.6450  140.1680 C   0  0  2  0  0  3  0  0  0  0  0  0
  179.9680  181.0980  140.0890 N   0  0  0  0  0  2  0  0  0  0  0  0
  178.6330  181.1730  139.6370 N   0  0  0  0  0  0  0  0  0  0  0  0
  178.5040  179.7230  139.6650 C   0  0  0  0  0  2  0  0  0  0  0  0
  178.6720  181.5930  138.2420 C   0  0  0  0  0  2  0  0  0  0  0  0
  177.9780  182.7970  138.0940 O   0  0  0  0  0  1  0  0  0  0  0  0
  185.7540  180.0920  145.5100 F   0  0  0  0  0  0  0  0  0  0  0  0
  183.8000  179.0340  145.8140 F   0  0  0  0  0  0  0  0  0  0  0  0
  184.9570  179.0550  145.0530 C   0  0  0  0  0  0  0  0  0  0  0  0
  185.8790  178.1960  147.7770 C   0  0  0  0  0  1  0  0  0  0  0  0
  186.9610  176.3430  146.7480 O   0  0  0  0  0  0  0  0  0  0  0  0
  185.7140  177.7240  145.2720 C   0  0  2  0  0  3  0  0  0  0  0  0
  185.8020  177.1420  146.6800 C   0  0  2  0  0  0  0  0  0  0  0  0
  187.8020  176.6890  145.6640 C   0  0  1  0  0  3  0  0  0  0  0  0
  187.1190  177.6910  144.7600 C   0  0  0  0  0  2  0  0  0  0  0  0
  184.6820  176.3440  146.9090 O   0  0  0  0  0  1  0  0  0  0  0  0
  189.1090  177.2580  146.1880 C   0  0  0  0  0  2  0  0  0  0  0  0
  189.5940  176.4770  147.2240 F   0  0  0  0  0  0  0  0  0  0  0  0
  185.8400  177.5410  140.4310 C   0  0  0  0  0  2  0  0  0  0  0  0
  187.1330  177.9810  140.7170 O   0  0  0  0  0  0  0  0  0  0  0  0
  187.7930  176.8450  141.1870 C   0  0  0  0  0  2  0  0  0  0  0  0
  188.9410  177.2570  142.0840 C   0  0  0  0  0  2  0  0  0  0  0  0
  189.5930  176.0930  142.5700 O   0  0  0  0  0  0  0  0  0  0  0  0
  190.9770  176.0330  142.7280 C   0  0  0  0  0  0  0  0  0  0  0  0
  191.6570  175.3190  141.9430 O   0  0  0  0  0  0  0  0  0  0  0  0
  191.6260  176.7730  143.7650 N   0  0  0  0  0  2  0  0  0  0  0  0
  193.0160  176.7080  143.9360 N   0  0  0  0  0  2  0  0  0  0  0  0
  193.3420  175.6370  144.8820 C   0  0  2  0  0  3  0  0  0  0  0  0
  192.2950  175.6450  147.0320 O   0  0  0  0  0  1  0  0  0  0  0  0
  193.2570  176.0460  146.3280 C   0  0  0  0  0  0  0  0  0  0  0  0
  194.2110  176.8900  146.8900 O   0  0  0  0  0  0  0  0  0  0  0  0
  194.5780  174.9330  144.5240 N   0  0  0  0  0  2  0  0  0  0  0  0
  195.6900  175.7210  144.8670 N   0  0  0  0  0  2  0  0  0  0  0  0
  195.7550  176.2020  141.5670 N   0  0  0  0  0  2  0  0  0  0  0  0
  196.6230  175.6410  143.7560 C   0  0  1  0  0  3  0  0  0  0  0  0
  196.2760  175.6490  140.3360 C   0  0  0  0  0  2  0  0  0  0  0  0
  196.9180  173.4880  139.7270 C   0  0  0  0  0  1  0  0  0  0  0  0
  197.6480  174.5830  144.0160 C   0  0  0  0  0  2  0  0  0  0  0  0
  197.1760  174.5590  140.6780 N   0  0  0  0  0  0  0  0  0  0  0  0
  196.7720  174.0900  141.9390 N   0  0  1  0  0  0  0  0  0  0  0  0
  197.9370  173.9780  142.7270 N   0  0  0  0  0  2  0  0  0  0  0  0
  195.9240  175.1280  142.5280 C   0  0  2  0  0  3  0  0  0  0  0  0
  1  4  2  0  0  0  0
  1  6  1  0  0  0  0
  2 18  1  1  0  0  0
  3  2  1  0  0  0  0
  4  3  1  0  0  0  0
  5  2  1  0  0  0  0
  6  5  2  0  0  0  0
  7  6  1  0  0  0  0
  8  7  1  0  0  0  0
  9  8  1  6  0  0  0
  9  7  1  0  0  0  0
 10 13  1  1  0  0  0
 10  9  1  0  0  0  0
 11 10  1  0  0  0  0
 12 13  1  0  0  0  0
 12 11  1  0  0  0  0
 14 12  1  0  0  0  0
 15 14  1  0  0  0  0
 18 16  1  0  0  0  0
 18 17  1  0  0  0  0
 21 18  1  1  0  0  0
 21 22  1  0  0  0  0
 22 20  1  0  0  0  0
 22 25  1  0  0  0  0
 22 19  1  1  0  0  0
 23 26  1  1  0  0  0
 23 20  1  0  0  0  0
 24 21  1  0  0  0  0
 24 23  1  0  0  0  0
 26 27  1  0  0  0  0
 28 29  1  0  0  0  0
 28  4  1  0  0  0  0
 29 30  1  0  0  0  0
 30 31  1  0  0  0  0
 31 32  1  0  0  0  0
 32 33  1  0  0  0  0
 33 35  1  0  0  0  0
 34 33  2  0  0  0  0
 35 36  1  0  0  0  0
 37 36  1  6  0  0  0
 37 39  1  0  0  0  0
 39 40  2  0  0  0  0
 39 38  1  0  0  0  0
 41 42  1  0  0  0  0
 41 37  1  0  0  0  0
 44 47  1  0  0  0  0
 44 42  1  1  0  0  0
 45 48  1  0  0  0  0
 45 43  1  0  0  0  0
 46 48  1  0  0  0  0
 48 49  1  0  0  0  0
 49 51  1  0  0  0  0
 49 50  1  1  0  0  0
 50 47  1  0  0  0  0
 51 43  1  6  0  0  0
 51 44  1  0  0  0  0
M  END
>  <MODEL>
5

>  <REMARK>
 VINA RESULT:      -6.9      2.199      3.244
  Name = 
  18 active torsions:
  status: ('A' for Active; 'I' for Inactive)
    1  A    between atoms: C_1  and  C_15
    2  A    between atoms: C_1  and  N_40
    3  A    between atoms: C_1  and  N_46
    4  A    between atoms: C_3  and  O_14
    5  A    between atoms: N_5  and  C_33
    6  A    between atoms: C_6  and  C_24
    7  A    between atoms: C_6  and  O_43
    8  A    between atoms: C_9  and  N_36
    9  A    between atoms: C_10  and  C_38
   10  A    between atoms: C_12  and  C_27
   11  A    between atoms: C_12  and  O_43
   12  A    between atoms: O_14  and  C_24
   13  A    between atoms: C_17  and  C_37
   14  A    between atoms: C_23  and  N_34
   15  A    between atoms: C_29  and  C_37
   16  A    between atoms: N_36  and  N_46
   17  A    between atoms: C_39  and  C_41
   18  A    between atoms: N_40  and  N_44
                            x       y       z     vdW  Elec       q    Type
                         _______ _______ _______ _____ _____    ______ ____

>  <TORSDO>
F 18

$$$$
=
 OpenBabel11062419013D

 51 56  0  0  1  0  0  0  0  0999 V2000
  189.4320  173.4480  141.4930 C   0  0  0  0  0  3  0  0  0  0  0  0
  188.0360  175.8600  142.1180 C   0  0  1  0  0  3  0  0  0  0  0  0
  188.2980  174.8120  143.0590 O   0  0  0  0  0  0  0  0  0  0  0  0
  189.1240  173.7230  142.7590 C   0  0  0  0  0  0  0  0  0  0  0  0
  188.1760  175.3810  140.6950 C   0  0  0  0  0  3  0  0  0  0  0  0
  188.8790  174.2820  140.4120 C   0  0  0  0  0  0  0  0  0  0  0  0
  189.0700  173.8930  139.0570 N   0  0  0  0  0  0  0  0  0  0  0  0
  188.6020  173.2700  137.7840 C   0  0  0  0  0  2  0  0  0  0  0  0
  189.8960  173.7480  137.8220 C   0  0  2  0  0  3  0  0  0  0  0  0
  190.8860  172.6150  138.0300 C   0  0  2  0  0  3  0  0  0  0  0  0
  192.0600  173.1160  138.7310 N   0  0  0  0  0  2  0  0  0  0  0  0
  192.8660  172.9840  137.5790 N   0  0  0  0  0  0  0  0  0  0  0  0
  191.7490  172.4520  136.8130 C   0  0  0  0  0  2  0  0  0  0  0  0
  193.7990  171.8930  137.8280 C   0  0  0  0  0  2  0  0  0  0  0  0
  195.1080  172.3390  137.6280 O   0  0  0  0  0  1  0  0  0  0  0  0
  186.0420  176.7790  141.1720 F   0  0  0  0  0  0  0  0  0  0  0  0
  185.8760  175.6380  143.0960 F   0  0  0  0  0  0  0  0  0  0  0  0
  186.6700  176.5190  142.3790 C   0  0  0  0  0  0  0  0  0  0  0  0
  186.5890  176.5730  145.3800 C   0  0  0  0  0  1  0  0  0  0  0  0
  186.5990  178.9500  145.2650 O   0  0  0  0  0  0  0  0  0  0  0  0
  186.7730  177.8430  143.1720 C   0  0  2  0  0  3  0  0  0  0  0  0
  187.1320  177.7970  144.6540 C   0  0  2  0  0  0  0  0  0  0  0  0
  185.6170  179.4940  144.4040 C   0  0  1  0  0  3  0  0  0  0  0  0
  185.5720  178.7310  143.0990 C   0  0  0  0  0  2  0  0  0  0  0  0
  188.5190  177.8120  144.7830 O   0  0  0  0  0  1  0  0  0  0  0  0
  184.2590  179.4570  145.0820 C   0  0  0  0  0  2  0  0  0  0  0  0
  184.3530  178.8330  146.3160 F   0  0  0  0  0  0  0  0  0  0  0  0
  189.6460  172.8590  143.8520 C   0  0  0  0  0  2  0  0  0  0  0  0
  190.0880  171.6440  143.3230 O   0  0  0  0  0  0  0  0  0  0  0  0
  191.2910  171.3920  143.9840 C   0  0  0  0  0  2  0  0  0  0  0  0
  192.4370  172.0070  143.2090 C   0  0  0  0  0  2  0  0  0  0  0  0
  193.6600  171.6850  143.8530 O   0  0  0  0  0  0  0  0  0  0  0  0
  194.4360  172.6520  144.4890 C   0  0  0  0  0  0  0  0  0  0  0  0
  194.2740  172.8600  145.7220 O   0  0  0  0  0  0  0  0  0  0  0  0
  195.4110  173.4020  143.7610 N   0  0  0  0  0  2  0  0  0  0  0  0
  196.1880  174.3830  144.3930 N   0  0  0  0  0  2  0  0  0  0  0  0
  196.0700  175.6470  143.6590 C   0  0  2  0  0  3  0  0  0  0  0  0
  197.9060  175.2660  142.1750 O   0  0  0  0  0  0  0  0  0  0  0  0
  197.3320  176.0690  142.9550 C   0  0  0  0  0  0  0  0  0  0  0  0
  197.8900  177.3240  143.1780 O   0  0  0  0  0  1  0  0  0  0  0  0
  195.4430  176.7020  144.4620 N   0  0  0  0  0  2  0  0  0  0  0  0
  194.8470  176.1390  145.6030 N   0  0  0  0  0  2  0  0  0  0  0  0
  192.3230  176.6990  147.7110 N   0  0  0  0  0  2  0  0  0  0  0  0
  193.4430  176.5130  145.5740 C   0  0  1  0  0  3  0  0  0  0  0  0
  190.9060  176.4690  147.8930 C   0  0  0  0  0  2  0  0  0  0  0  0
  189.4580  174.8320  147.0730 C   0  0  0  0  0  1  0  0  0  0  0  0
  192.7990  176.0080  144.3210 C   0  0  0  0  0  2  0  0  0  0  0  0
  190.3860  175.8770  146.6710 N   0  0  0  0  0  0  0  0  0  0  0  0
  191.4710  175.2410  146.0440 N   0  0  1  0  0  0  0  0  0  0  0  0
  191.4450  175.6310  144.6880 N   0  0  0  0  0  2  0  0  0  0  0  0
  192.6890  175.7800  146.6480 C   0  0  2  0  0  3  0  0  0  0  0  0
  1  4  2  0  0  0  0
  2 18  1  6  0  0  0
  2  3  1  0  0  0  0
  4  3  1  0  0  0  0
  4 28  1  0  0  0  0
  5  2  1  0  0  0  0
  6  5  2  0  0  0  0
  6  1  1  0  0  0  0
  7  6  1  0  0  0  0
  8  7  1  0  0  0  0
  9  8  1  6  0  0  0
  9 10  1  0  0  0  0
  9  7  1  0  0  0  0
 10 13  1  6  0  0  0
 10 11  1  0  0  0  0
 12 14  1  0  0  0  0
 12 11  1  0  0  0  0
 13 12  1  0  0  0  0
 15 14  1  0  0  0  0
 16 18  1  0  0  0  0
 18 17  1  0  0  0  0
 21 18  1  1  0  0  0
 21 22  1  0  0  0  0
 22 25  1  0  0  0  0
 22 20  1  0  0  0  0
 22 19  1  1  0  0  0
 23 26  1  1  0  0  0
 23 20  1  0  0  0  0
 24 21  1  0  0  0  0
 24 23  1  0  0  0  0
 26 27  1  0  0  0  0
 29 28  1  0  0  0  0
 29 30  1  0  0  0  0
 31 32  1  0  0  0  0
 31 30  1  0  0  0  0
 32 33  1  0  0  0  0
 33 34  2  0  0  0  0
 35 36  1  0  0  0  0
 35 33  1  0  0  0  0
 37 39  1  1  0  0  0
 37 36  1  0  0  0  0
 37 41  1  0  0  0  0
 38 39  2  0  0  0  0
 39 40  1  0  0  0  0
 41 42  1  0  0  0  0
 43 45  1  0  0  0  0
 44 42  1  6  0  0  0
 44 51  1  0  0  0  0
 47 50  1  0  0  0  0
 47 44  1  0  0  0  0
 48 46  1  0  0  0  0
 48 45  1  0  0  0  0
 49 50  1  6  0  0  0
 49 51  1  0  0  0  0
 49 48  1  0  0  0  0
 51 43  1  1  0  0  0
M  END
>  <MODEL>
6

>  <REMARK>
 VINA RESULT:      -6.9      4.499      8.227
  Name = 
  18 active torsions:
  status: ('A' for Active; 'I' for Inactive)
    1  A    between atoms: C_1  and  C_15
    2  A    between atoms: C_1  and  N_40
    3  A    between atoms: C_1  and  N_46
    4  A    between atoms: C_3  and  O_14
    5  A    between atoms: N_5  and  C_33
    6  A    between atoms: C_6  and  C_24
    7  A    between atoms: C_6  and  O_43
    8  A    between atoms: C_9  and  N_36
    9  A    between atoms: C_10  and  C_38
   10  A    between atoms: C_12  and  C_27
   11  A    between atoms: C_12  and  O_43
   12  A    between atoms: O_14  and  C_24
   13  A    between atoms: C_17  and  C_37
   14  A    between atoms: C_23  and  N_34
   15  A    between atoms: C_29  and  C_37
   16  A    between atoms: N_36  and  N_46
   17  A    between atoms: C_39  and  C_41
   18  A    between atoms: N_40  and  N_44
                            x       y       z     vdW  Elec       q    Type
                         _______ _______ _______ _____ _____    ______ ____

>  <TORSDO>
F 18

$$$$
=
 OpenBabel11062419013D

 51 56  0  0  1  0  0  0  0  0999 V2000
  191.1320  171.9460  142.8150 C   0  0  0  0  0  3  0  0  0  0  0  0
  193.1770  172.0370  144.8070 C   0  0  1  0  0  3  0  0  0  0  0  0
  192.0830  172.9600  144.7300 O   0  0  0  0  0  0  0  0  0  0  0  0
  191.0150  172.7860  143.8420 C   0  0  0  0  0  0  0  0  0  0  0  0
  193.3810  171.3030  143.5050 C   0  0  0  0  0  3  0  0  0  0  0  0
  192.3970  171.2220  142.6070 C   0  0  0  0  0  0  0  0  0  0  0  0
  192.5800  170.4550  141.4220 N   0  0  0  0  0  0  0  0  0  0  0  0
  193.3330  170.0990  140.1840 C   0  0  0  0  0  2  0  0  0  0  0  0
  192.1570  169.4210  140.4320 C   0  0  2  0  0  3  0  0  0  0  0  0
  191.0200  169.9830  139.5970 C   0  0  2  0  0  3  0  0  0  0  0  0
  190.7470  169.0900  138.4810 N   0  0  0  0  0  2  0  0  0  0  0  0
  191.2650  170.0150  137.5480 N   0  0  0  0  0  0  0  0  0  0  0  0
  191.5480  170.9760  138.6040 C   0  0  0  0  0  2  0  0  0  0  0  0
  190.1410  170.5200  136.7710 C   0  0  0  0  0  2  0  0  0  0  0  0
  190.4380  170.4410  135.4080 O   0  0  0  0  0  1  0  0  0  0  0  0
  194.1330  173.8660  146.0140 F   0  0  0  0  0  0  0  0  0  0  0  0
  195.1450  171.8690  146.1370 F   0  0  0  0  0  0  0  0  0  0  0  0
  194.4620  172.7300  145.2930 C   0  0  0  0  0  0  0  0  0  0  0  0
  197.2240  173.7830  145.8150 C   0  0  0  0  0  1  0  0  0  0  0  0
  197.4340  174.1860  143.4800 O   0  0  0  0  0  0  0  0  0  0  0  0
  195.4070  173.1400  144.1400 C   0  0  2  0  0  3  0  0  0  0  0  0
  196.9010  173.2770  144.4160 C   0  0  2  0  0  0  0  0  0  0  0  0
  196.3640  174.9220  142.9180 C   0  0  1  0  0  3  0  0  0  0  0  0
  195.0370  174.3990  143.4210 C   0  0  0  0  0  2  0  0  0  0  0  0
  197.5080  172.0340  144.2410 O   0  0  0  0  0  1  0  0  0  0  0  0
  196.5130  176.3930  143.2620 C   0  0  0  0  0  2  0  0  0  0  0  0
  196.3350  177.1740  142.1310 F   0  0  0  0  0  0  0  0  0  0  0  0
  189.7540  173.5530  144.0340 C   0  0  0  0  0  2  0  0  0  0  0  0
  188.9220  173.3760  142.9270 O   0  0  0  0  0  0  0  0  0  0  0  0
  188.8800  174.6300  142.3160 C   0  0  0  0  0  2  0  0  0  0  0  0
  187.8140  174.6380  141.2410 C   0  0  0  0  0  2  0  0  0  0  0  0
  187.8430  175.8860  140.5670 O   0  0  0  0  0  0  0  0  0  0  0  0
  187.4180  177.0650  141.1770 C   0  0  0  0  0  0  0  0  0  0  0  0
  188.1010  178.1150  141.0330 O   0  0  0  0  0  0  0  0  0  0  0  0
  186.2200  177.0940  141.9560 N   0  0  0  0  0  2  0  0  0  0  0  0
  185.7930  178.2740  142.5820 N   0  0  0  0  0  2  0  0  0  0  0  0
  185.1020  177.9420  143.8310 C   0  0  2  0  0  3  0  0  0  0  0  0
  183.8960  178.9960  145.6060 O   0  0  0  0  0  1  0  0  0  0  0  0
  184.6950  179.1410  144.6460 C   0  0  0  0  0  0  0  0  0  0  0  0
  185.1660  180.4120  144.3330 O   0  0  0  0  0  0  0  0  0  0  0  0
  185.7970  176.8990  144.5930 N   0  0  0  0  0  2  0  0  0  0  0  0
  186.7310  177.4890  145.4610 N   0  0  0  0  0  2  0  0  0  0  0  0
  188.6000  175.2320  147.0560 N   0  0  0  0  0  2  0  0  0  0  0  0
  187.9810  176.7670  145.2900 C   0  0  1  0  0  3  0  0  0  0  0  0
  189.9700  174.8970  147.3780 C   0  0  0  0  0  2  0  0  0  0  0  0
  191.9030  176.1910  147.5770 C   0  0  0  0  0  1  0  0  0  0  0  0
  188.9510  177.5910  144.5040 C   0  0  0  0  0  2  0  0  0  0  0  0
  190.8390  175.8160  146.6600 N   0  0  0  0  0  0  0  0  0  0  0  0
  190.0810  176.9740  146.4180 N   0  0  1  0  0  0  0  0  0  0  0  0
  190.2630  177.3060  145.0580 N   0  0  0  0  0  2  0  0  0  0  0  0
  188.6760  176.6130  146.6130 C   0  0  2  0  0  3  0  0  0  0  0  0
  1  4  2  0  0  0  0
  2 18  1  6  0  0  0
  3  2  1  0  0  0  0
  4 28  1  0  0  0  0
  4  3  1  0  0  0  0
  5  2  1  0  0  0  0
  6  1  1  0  0  0  0
  6  5  2  0  0  0  0
  7  6  1  0  0  0  0
  8  7  1  0  0  0  0
  9  8  1  6  0  0  0
  9  7  1  0  0  0  0
 10 13  1  6  0  0  0
 10  9  1  0  0  0  0
 11 10  1  0  0  0  0
 12 11  1  0  0  0  0
 12 13  1  0  0  0  0
 14 12  1  0  0  0  0
 15 14  1  0  0  0  0
 18 16  1  0  0  0  0
 18 17  1  0  0  0  0
 20 22  1  0  0  0  0
 21 22  1  0  0  0  0
 21 18  1  1  0  0  0
 22 19  1  1  0  0  0
 23 26  1  1  0  0  0
 23 24  1  0  0  0  0
 23 20  1  0  0  0  0
 24 21  1  0  0  0  0
 25 22  1  0  0  0  0
 27 26  1  0  0  0  0
 29 28  1  0  0  0  0
 30 29  1  0  0  0  0
 31 30  1  0  0  0  0
 32 33  1  0  0  0  0
 32 31  1  0  0  0  0
 33 35  1  0  0  0  0
 34 33  2  0  0  0  0
 35 36  1  0  0  0  0
 37 36  1  6  0  0  0
 37 41  1  0  0  0  0
 37 39  1  0  0  0  0
 39 38  1  0  0  0  0
 40 39  2  0  0  0  0
 41 42  1  0  0  0  0
 43 45  1  0  0  0  0
 44 42  1  1  0  0  0
 44 51  1  0  0  0  0
 47 50  1  0  0  0  0
 47 44  1  0  0  0  0
 48 45  1  0  0  0  0
 48 46  1  0  0  0  0
 49 50  1  6  0  0  0
 49 51  1  0  0  0  0
 49 48  1  0  0  0  0
 51 43  1  6  0  0  0
M  END
>  <MODEL>
7

>  <REMARK>
 VINA RESULT:      -6.8      4.520     10.411
  Name = 
  18 active torsions:
  status: ('A' for Active; 'I' for Inactive)
    1  A    between atoms: C_1  and  C_15
    2  A    between atoms: C_1  and  N_40
    3  A    between atoms: C_1  and  N_46
    4  A    between atoms: C_3  and  O_14
    5  A    between atoms: N_5  and  C_33
    6  A    between atoms: C_6  and  C_24
    7  A    between atoms: C_6  and  O_43
    8  A    between atoms: C_9  and  N_36
    9  A    between atoms: C_10  and  C_38
   10  A    between atoms: C_12  and  C_27
   11  A    between atoms: C_12  and  O_43
   12  A    between atoms: O_14  and  C_24
   13  A    between atoms: C_17  and  C_37
   14  A    between atoms: C_23  and  N_34
   15  A    between atoms: C_29  and  C_37
   16  A    between atoms: N_36  and  N_46
   17  A    between atoms: C_39  and  C_41
   18  A    between atoms: N_40  and  N_44
                            x       y       z     vdW  Elec       q    Type
                         _______ _______ _______ _____ _____    ______ ____

>  <TORSDO>
F 18

$$$$
=
 OpenBabel11062419013D

 51 56  0  0  1  0  0  0  0  0999 V2000
  190.7650  174.6450  144.9350 C   0  0  0  0  0  3  0  0  0  0  0  0
  188.8080  176.6830  145.3530 C   0  0  1  0  0  3  0  0  0  0  0  0
  189.8660  176.3790  146.2710 O   0  0  0  0  0  0  0  0  0  0  0  0
  190.8990  175.4890  145.9580 C   0  0  0  0  0  0  0  0  0  0  0  0
  188.5710  175.5550  144.3800 C   0  0  0  0  0  3  0  0  0  0  0  0
  189.5170  174.6400  144.1540 C   0  0  0  0  0  0  0  0  0  0  0  0
  189.3080  173.6330  143.1710 N   0  0  0  0  0  0  0  0  0  0  0  0
  189.2430  172.2060  142.7380 C   0  0  0  0  0  2  0  0  0  0  0  0
  189.0290  173.1750  141.7790 C   0  0  2  0  0  3  0  0  0  0  0  0
  190.2750  173.3900  140.9370 C   0  0  2  0  0  3  0  0  0  0  0  0
  190.0080  172.9940  139.5620 N   0  0  0  0  0  2  0  0  0  0  0  0
  190.8470  171.8630  139.6710 N   0  0  0  0  0  0  0  0  0  0  0  0
  191.1850  172.2020  141.0460 C   0  0  0  0  0  2  0  0  0  0  0  0
  192.0210  172.1140  138.8460 C   0  0  0  0  0  2  0  0  0  0  0  0
  191.8540  171.5140  137.5950 O   0  0  0  0  0  1  0  0  0  0  0  0
  186.6180  176.0430  146.0690 F   0  0  0  0  0  0  0  0  0  0  0  0
  187.8340  177.3600  147.4170 F   0  0  0  0  0  0  0  0  0  0  0  0
  187.5230  177.0920  146.0940 C   0  0  0  0  0  0  0  0  0  0  0  0
  184.6090  177.6650  146.5310 C   0  0  0  0  0  1  0  0  0  0  0  0
  184.8200  179.5050  145.0360 O   0  0  0  0  0  0  0  0  0  0  0  0
  186.8400  178.3400  145.4870 C   0  0  2  0  0  3  0  0  0  0  0  0
  185.5010  178.8030  146.0520 C   0  0  2  0  0  0  0  0  0  0  0  0
  185.4190  179.1800  143.7960 C   0  0  1  0  0  3  0  0  0  0  0  0
  186.6360  178.3050  144.0060 C   0  0  0  0  0  2  0  0  0  0  0  0
  185.7360  179.6650  147.1220 O   0  0  0  0  0  1  0  0  0  0  0  0
  184.4120  178.4750  142.9060 C   0  0  0  0  0  2  0  0  0  0  0  0
  184.8030  177.1650  142.6790 F   0  0  0  0  0  0  0  0  0  0  0  0
  192.1410  175.4690  146.7770 C   0  0  0  0  0  2  0  0  0  0  0  0
  192.6650  176.7600  146.8690 O   0  0  0  0  0  0  0  0  0  0  0  0
  194.0290  176.6030  146.6210 C   0  0  0  0  0  2  0  0  0  0  0  0
  194.2880  175.2250  146.0500 C   0  0  0  0  0  2  0  0  0  0  0  0
  195.6750  174.9380  146.1380 O   0  0  0  0  0  0  0  0  0  0  0  0
  196.4400  174.6380  145.0120 C   0  0  0  0  0  0  0  0  0  0  0  0
  197.5970  174.1590  145.1620 O   0  0  0  0  0  0  0  0  0  0  0  0
  195.9260  174.8660  143.6980 N   0  0  0  0  0  2  0  0  0  0  0  0
  196.6950  174.5760  142.5610 N   0  0  0  0  0  2  0  0  0  0  0  0
  195.8070  174.3140  141.4250 C   0  0  2  0  0  3  0  0  0  0  0  0
  193.5300  175.0170  141.2260 O   0  0  0  0  0  1  0  0  0  0  0  0
  194.7410  175.3580  141.2240 C   0  0  0  0  0  0  0  0  0  0  0  0
  195.0760  176.6900  141.0030 O   0  0  0  0  0  0  0  0  0  0  0  0
  195.3130  172.9330  141.4100 N   0  0  0  0  0  2  0  0  0  0  0  0
  196.3300  172.0610  141.8320 N   0  0  0  0  0  2  0  0  0  0  0  0
  194.7050  171.5180  144.6950 N   0  0  0  0  0  2  0  0  0  0  0  0
  195.6830  170.9740  142.5480 C   0  0  1  0  0  3  0  0  0  0  0  0
  194.5670  170.5640  145.7740 C   0  0  0  0  0  2  0  0  0  0  0  0
  196.0070  168.9430  146.6370 C   0  0  0  0  0  1  0  0  0  0  0  0
  196.3460  169.6730  142.2240 C   0  0  0  0  0  2  0  0  0  0  0  0
  195.3310  169.3770  145.4250 N   0  0  0  0  0  0  0  0  0  0  0  0
  196.3280  169.7950  144.5280 N   0  0  1  0  0  0  0  0  0  0  0  0
  196.3110  168.8880  143.4460 N   0  0  0  0  0  2  0  0  0  0  0  0
  195.9270  171.1090  144.0250 C   0  0  2  0  0  3  0  0  0  0  0  0
  1  4  2  0  0  0  0
  2 18  1  1  0  0  0
  2  3  1  0  0  0  0
  4  3  1  0  0  0  0
  4 28  1  0  0  0  0
  5  2  1  0  0  0  0
  6  5  2  0  0  0  0
  6  1  1  0  0  0  0
  7  6  1  0  0  0  0
  8  7  1  0  0  0  0
  9  8  1  1  0  0  0
  9  7  1  0  0  0  0
 10 13  1  1  0  0  0
 10  9  1  0  0  0  0
 11 12  1  0  0  0  0
 11 10  1  0  0  0  0
 12 13  1  0  0  0  0
 14 12  1  0  0  0  0
 15 14  1  0  0  0  0
 16 18  1  0  0  0  0
 18 17  1  0  0  0  0
 20 22  1  0  0  0  0
 21 22  1  0  0  0  0
 21 18  1  1  0  0  0
 22 19  1  1  0  0  0
 22 25  1  0  0  0  0
 23 26  1  6  0  0  0
 23 24  1  0  0  0  0
 23 20  1  0  0  0  0
 24 21  1  0  0  0  0
 27 26  1  0  0  0  0
 28 29  1  0  0  0  0
 30 29  1  0  0  0  0
 31 32  1  0  0  0  0
 31 30  1  0  0  0  0
 33 34  2  0  0  0  0
 33 32  1  0  0  0  0
 35 33  1  0  0  0  0
 36 35  1  0  0  0  0
 37 39  1  1  0  0  0
 37 36  1  0  0  0  0
 39 38  1  0  0  0  0
 40 39  2  0  0  0  0
 41 37  1  0  0  0  0
 41 42  1  0  0  0  0
 43 45  1  0  0  0  0
 44 42  1  6  0  0  0
 44 51  1  0  0  0  0
 47 44  1  0  0  0  0
 47 50  1  0  0  0  0
 48 45  1  0  0  0  0
 48 46  1  0  0  0  0
 49 50  1  6  0  0  0
 49 48  1  0  0  0  0
 51 49  1  0  0  0  0
 51 43  1  1  0  0  0
M  END
>  <MODEL>
8

>  <REMARK>
 VINA RESULT:      -6.8      4.408      8.087
  Name = 
  18 active torsions:
  status: ('A' for Active; 'I' for Inactive)
    1  A    between atoms: C_1  and  C_15
    2  A    between atoms: C_1  and  N_40
    3  A    between atoms: C_1  and  N_46
    4  A    between atoms: C_3  and  O_14
    5  A    between atoms: N_5  and  C_33
    6  A    between atoms: C_6  and  C_24
    7  A    between atoms: C_6  and  O_43
    8  A    between atoms: C_9  and  N_36
    9  A    between atoms: C_10  and  C_38
   10  A    between atoms: C_12  and  C_27
   11  A    between atoms: C_12  and  O_43
   12  A    between atoms: O_14  and  C_24
   13  A    between atoms: C_17  and  C_37
   14  A    between atoms: C_23  and  N_34
   15  A    between atoms: C_29  and  C_37
   16  A    between atoms: N_36  and  N_46
   17  A    between atoms: C_39  and  C_41
   18  A    between atoms: N_40  and  N_44
                            x       y       z     vdW  Elec       q    Type
                         _______ _______ _______ _____ _____    ______ ____

>  <TORSDO>
F 18

$$$$
=
 OpenBabel11062419013D

 51 56  0  0  1  0  0  0  0  0999 V2000
  189.8940  174.9450  142.1020 C   0  0  0  0  0  3  0  0  0  0  0  0
  189.2150  173.1370  139.9980 C   0  0  1  0  0  3  0  0  0  0  0  0
  190.4780  173.1510  140.6740 O   0  0  0  0  0  0  0  0  0  0  0  0
  190.7160  173.9400  141.8060 C   0  0  0  0  0  0  0  0  0  0  0  0
  188.4590  174.4270  140.1990 C   0  0  0  0  0  3  0  0  0  0  0  0
  188.7510  175.2360  141.2200 C   0  0  0  0  0  0  0  0  0  0  0  0
  187.9730  176.4060  141.4420 N   0  0  0  0  0  0  0  0  0  0  0  0
  187.8340  177.8610  141.7420 C   0  0  0  0  0  2  0  0  0  0  0  0
  186.6750  177.1260  141.6000 C   0  0  2  0  0  3  0  0  0  0  0  0
  186.0860  176.7750  142.9560 C   0  0  2  0  0  3  0  0  0  0  0  0
  184.8340  177.4930  143.1430 N   0  0  0  0  0  2  0  0  0  0  0  0
  185.4030  178.3280  144.1300 N   0  0  0  0  0  0  0  0  0  0  0  0
  186.6840  177.6460  144.0210 C   0  0  0  0  0  2  0  0  0  0  0  0
  184.8040  177.9580  145.4060 C   0  0  0  0  0  2  0  0  0  0  0  0
  184.1310  179.0570  145.9460 O   0  0  0  0  0  1  0  0  0  0  0  0
  190.0110  171.5560  138.3900 F   0  0  0  0  0  0  0  0  0  0  0  0
  188.1240  172.6790  137.9310 F   0  0  0  0  0  0  0  0  0  0  0  0
  189.3790  172.7840  138.5090 C   0  0  0  0  0  0  0  0  0  0  0  0
  189.6530  172.6510  135.5230 C   0  0  0  0  0  1  0  0  0  0  0  0
  191.1640  174.4840  135.6520 O   0  0  0  0  0  0  0  0  0  0  0  0
  190.1970  173.8330  137.7210 C   0  0  2  0  0  3  0  0  0  0  0  0
  189.9810  173.9670  136.2160 C   0  0  2  0  0  0  0  0  0  0  0  0
  192.2140  174.3070  136.5840 C   0  0  1  0  0  3  0  0  0  0  0  0
  191.6820  173.7470  137.8840 C   0  0  0  0  0  2  0  0  0  0  0  0
  188.9370  174.8620  135.9880 O   0  0  0  0  0  1  0  0  0  0  0  0
  193.2680  173.3810  136.0040 C   0  0  0  0  0  2  0  0  0  0  0  0
  192.9150  172.0580  136.2150 F   0  0  0  0  0  0  0  0  0  0  0  0
  191.8960  173.6680  142.6700 C   0  0  0  0  0  2  0  0  0  0  0  0
  193.0560  173.6500  141.8930 O   0  0  0  0  0  0  0  0  0  0  0  0
  193.4320  174.9910  141.7950 C   0  0  0  0  0  2  0  0  0  0  0  0
  194.2010  175.2110  140.5110 C   0  0  0  0  0  2  0  0  0  0  0  0
  195.5900  175.0730  140.7710 O   0  0  0  0  0  0  0  0  0  0  0  0
  196.1580  175.4670  141.9820 C   0  0  0  0  0  0  0  0  0  0  0  0
  196.2700  176.6960  142.2390 O   0  0  0  0  0  0  0  0  0  0  0  0
  196.6070  174.4950  142.9290 N   0  0  0  0  0  2  0  0  0  0  0  0
  197.1890  174.8850  144.1440 N   0  0  0  0  0  2  0  0  0  0  0  0
  196.2730  174.5760  145.2450 C   0  0  2  0  0  3  0  0  0  0  0  0
  194.8440  172.6720  145.4680 O   0  0  0  0  0  0  0  0  0  0  0  0
  196.0240  173.1040  145.4430 C   0  0  0  0  0  0  0  0  0  0  0  0
  197.0810  172.2200  145.6320 O   0  0  0  0  0  1  0  0  0  0  0  0
  195.0560  175.3950  145.2060 N   0  0  0  0  0  2  0  0  0  0  0  0
  194.6720  175.7360  146.5140 N   0  0  0  0  0  2  0  0  0  0  0  0
  191.6340  175.5620  147.8800 N   0  0  0  0  0  2  0  0  0  0  0  0
  193.3750  176.3860  146.4160 C   0  0  1  0  0  3  0  0  0  0  0  0
  190.2240  175.6240  147.5580 C   0  0  0  0  0  2  0  0  0  0  0  0
  189.0350  175.1850  145.5980 C   0  0  0  0  0  1  0  0  0  0  0  0
  193.1480  176.8800  145.0220 C   0  0  0  0  0  2  0  0  0  0  0  0
  190.0980  176.0030  146.1600 N   0  0  0  0  0  0  0  0  0  0  0  0
  191.2920  175.6090  145.5320 N   0  0  1  0  0  0  0  0  0  0  0  0
  191.7300  176.7060  144.7600 N   0  0  0  0  0  2  0  0  0  0  0  0
  192.2750  175.3780  146.5910 C   0  0  2  0  0  3  0  0  0  0  0  0
  2 18  1  6  0  0  0
  2  5  1  0  0  0  0
  2  3  1  0  0  0  0
  3  4  1  0  0  0  0
  4  1  2  0  0  0  0
  4 28  1  0  0  0  0
  5  6  2  0  0  0  0
  6  7  1  0  0  0  0
  6  1  1  0  0  0  0
  7  9  1  0  0  0  0
  7  8  1  0  0  0  0
  9  8  1  1  0  0  0
  9 10  1  0  0  0  0
 10 11  1  0  0  0  0
 10 13  1  1  0  0  0
 11 12  1  0  0  0  0
 12 14  1  0  0  0  0
 13 12  1  0  0  0  0
 14 15  1  0  0  0  0
 16 18  1  0  0  0  0
 17 18  1  0  0  0  0
 20 22  1  0  0  0  0
 20 23  1  0  0  0  0
 21 24  1  0  0  0  0
 21 18  1  6  0  0  0
 22 19  1  6  0  0  0
 22 21  1  0  0  0  0
 23 26  1  6  0  0  0
 23 24  1  0  0  0  0
 25 22  1  0  0  0  0
 26 27  1  0  0  0  0
 29 28  1  0  0  0  0
 30 29  1  0  0  0  0
 31 32  1  0  0  0  0
 31 30  1  0  0  0  0
 32 33  1  0  0  0  0
 33 34  2  0  0  0  0
 33 35  1  0  0  0  0
 35 36  1  0  0  0  0
 37 36  1  6  0  0  0
 37 39  1  0  0  0  0
 39 38  2  0  0  0  0
 39 40  1  0  0  0  0
 41 37  1  0  0  0  0
 41 42  1  0  0  0  0
 44 42  1  6  0  0  0
 44 51  1  0  0  0  0
 45 43  1  0  0  0  0
 46 48  1  0  0  0  0
 47 44  1  0  0  0  0
 48 45  1  0  0  0  0
 49 50  1  6  0  0  0
 49 48  1  0  0  0  0
 49 51  1  0  0  0  0
 50 47  1  0  0  0  0
 51 43  1  1  0  0  0
M  END
>  <MODEL>
9

>  <REMARK>
 VINA RESULT:      -6.6      4.755      8.297
  Name = 
  18 active torsions:
  status: ('A' for Active; 'I' for Inactive)
    1  A    between atoms: C_1  and  C_15
    2  A    between atoms: C_1  and  N_40
    3  A    between atoms: C_1  and  N_46
    4  A    between atoms: C_3  and  O_14
    5  A    between atoms: N_5  and  C_33
    6  A    between atoms: C_6  and  C_24
    7  A    between atoms: C_6  and  O_43
    8  A    between atoms: C_9  and  N_36
    9  A    between atoms: C_10  and  C_38
   10  A    between atoms: C_12  and  C_27
   11  A    between atoms: C_12  and  O_43
   12  A    between atoms: O_14  and  C_24
   13  A    between atoms: C_17  and  C_37
   14  A    between atoms: C_23  and  N_34
   15  A    between atoms: C_29  and  C_37
   16  A    between atoms: N_36  and  N_46
   17  A    between atoms: C_39  and  C_41
   18  A    between atoms: N_40  and  N_44
                            x       y       z     vdW  Elec       q    Type
                         _______ _______ _______ _____ _____    ______ ____

>  <TORSDO>
F 18

$$$$
