=
 OpenBabel11062421503D

 48 52  0  0  1  0  0  0  0  0999 V2000
  189.1850  173.3380  140.7710 C   0  0  0  0  0  0  0  0  0  0  0  0
  191.6230  177.5210  144.2640 S   0  0  0  0  0  0  0  0  0  0  0  0
  192.2280  175.2190  142.0330 C   0  0  0  0  0  2  0  0  0  0  0  0
  193.3680  175.3480  144.2620 C   0  0  0  0  0  2  0  0  0  0  0  0
  189.2760  174.7040  142.5260 C   0  0  0  0  0  0  0  0  0  0  0  0
  189.6440  175.7090  143.5130 N   0  0  0  0  0  0  0  0  0  0  0  0
  190.0640  174.0820  141.5490 C   0  0  0  0  0  0  0  0  0  0  0  0
  190.9940  175.8270  144.1130 C   0  0  1  0  0  3  0  0  0  0  0  0
  192.0980  174.9610  143.5280 C   0  0  1  0  0  3  0  0  0  0  0  0
  188.0040  173.3240  141.3560 O   0  0  0  0  0  0  0  0  0  0  0  0
  191.4870  174.1790  141.3630 N   0  0  0  0  0  0  0  0  0  0  0  0
  188.0120  174.1130  142.4160 C   0  0  0  0  0  3  0  0  0  0  0  0
  193.2350  176.8000  144.7640 C   0  0  2  0  0  3  0  0  0  0  0  0
  187.1670  176.5140  146.2050 C   0  0  0  0  0  2  0  0  0  0  0  0
  186.7180  177.9450  145.8570 C   0  0  1  0  0  3  0  0  0  0  0  0
  188.2860  177.8540  143.7870 C   0  0  2  0  0  3  0  0  0  0  0  0
  188.4980  176.3720  144.1550 C   0  0  2  0  0  3  0  0  0  0  0  0
  186.9320  178.2910  144.3670 C   0  0  0  0  0  2  0  0  0  0  0  0
  188.5550  176.1950  145.6740 C   0  0  0  0  0  2  0  0  0  0  0  0
  184.8630  178.1320  147.3980 O   0  0  0  0  0  0  0  0  0  0  0  0
  185.2500  178.1240  146.1920 C   0  0  0  0  0  0  0  0  0  0  0  0
  184.2700  178.2920  145.1550 N   0  0  0  0  0  1  0  0  0  0  0  0
  188.2440  178.0070  142.3780 O   0  0  0  0  0  0  0  0  0  0  0  0
  186.9120  178.2790  142.0320 C   0  0  0  0  0  2  0  0  0  0  0  0
  187.4210  176.7140  140.2830 O   0  0  0  0  0  0  0  0  0  0  0  0
  186.5770  177.5120  140.7820 C   0  0  0  0  0  0  0  0  0  0  0  0
  185.3850  177.7800  140.1000 O   0  0  0  0  0  0  0  0  0  0  0  0
  184.3320  178.4130  140.7410 N   0  0  0  0  0  1  0  0  0  0  0  0
  190.1490  171.5120  139.3490 C   0  0  0  0  0  1  0  0  0  0  0  0
  188.1920  172.6930  138.6270 N   0  0  0  0  0  1  0  0  0  0  0  0
  189.4440  172.8470  139.3550 C   0  0  1  0  0  0  0  0  0  0  0  0
  190.2450  173.7900  138.6940 O   0  0  0  0  0  1  0  0  0  0  0  0
  193.5350  176.9880  146.1310 O   0  0  0  0  0  0  0  0  0  0  0  0
  194.4810  176.0320  146.5130 C   0  0  0  0  0  1  0  0  0  0  0  0
  192.2620  173.0140  140.9150 C   0  0  0  0  0  2  0  0  0  0  0  0
  193.2180  172.7900  138.3730 F   0  0  0  0  0  0  0  0  0  0  0  0
  197.8390  173.0310  139.7360 C   0  0  0  0  0  1  0  0  0  0  0  0
  193.8600  174.9080  138.8590 F   0  0  0  0  0  0  0  0  0  0  0  0
  195.9070  172.8250  141.3050 C   0  0  1  0  0  3  0  0  0  0  0  0
  194.0530  173.5610  139.1640 C   0  0  0  0  0  0  0  0  0  0  0  0
  195.5060  173.1640  138.8450 C   0  0  1  0  0  3  0  0  0  0  0  0
  195.9420  173.7980  137.6880 F   0  0  0  0  0  0  0  0  0  0  0  0
  194.5770  172.3500  141.2160 O   0  0  0  0  0  0  0  0  0  0  0  0
  193.7470  173.3570  140.6720 C   0  0  2  0  0  3  0  0  0  0  0  0
  196.4240  173.4980  140.0190 C   0  0  2  0  0  3  0  0  0  0  0  0
  196.4410  174.8540  142.4700 O   0  0  0  0  0  0  0  0  0  0  0  0
  196.0520  173.0100  143.7940 O   0  0  0  0  0  1  0  0  0  0  0  0
  196.1400  173.6290  142.5460 C   0  0  0  0  0  0  0  0  0  0  0  0
  1 10  1  0  0  0  0
  1  7  2  0  0  0  0
  2 13  1  0  0  0  0
  4 13  1  0  0  0  0
  5  6  1  0  0  0  0
  6  8  1  0  0  0  0
  7  5  1  0  0  0  0
  8  2  1  6  0  0  0
  9  3  1  6  0  0  0
  9  8  1  0  0  0  0
  9  4  1  0  0  0  0
 10 12  1  0  0  0  0
 11  7  1  0  0  0  0
 11  3  1  0  0  0  0
 12  5  2  0  0  0  0
 13 33  1  1  0  0  0
 15 21  1  6  0  0  0
 15 14  1  0  0  0  0
 16 23  1  6  0  0  0
 16 17  1  0  0  0  0
 16 18  1  0  0  0  0
 17  6  1  6  0  0  0
 17 19  1  0  0  0  0
 18 15  1  0  0  0  0
 19 14  1  0  0  0  0
 21 20  2  0  0  0  0
 22 21  1  0  0  0  0
 24 23  1  0  0  0  0
 25 26  2  0  0  0  0
 26 24  1  0  0  0  0
 27 28  1  0  0  0  0
 27 26  1  0  0  0  0
 30 31  1  0  0  0  0
 31 29  1  1  0  0  0
 31  1  1  0  0  0  0
 32 31  1  0  0  0  0
 33 34  1  0  0  0  0
 35 11  1  0  0  0  0
 36 40  1  0  0  0  0
 38 40  1  0  0  0  0
 39 48  1  1  0  0  0
 40 44  1  0  0  0  0
 41 42  1  6  0  0  0
 41 40  1  0  0  0  0
 41 45  1  0  0  0  0
 43 39  1  0  0  0  0
 44 35  1  6  0  0  0
 44 43  1  0  0  0  0
 45 37  1  6  0  0  0
 45 39  1  0  0  0  0
 46 48  2  0  0  0  0
 48 47  1  0  0  0  0
M  END
>  <MODEL>
1

>  <REMARK>
 VINA RESULT:      -7.2      0.000      0.000
  Name = 
  11 active torsions:
  status: ('A' for Active; 'I' for Inactive)
    1  A    between atoms: C_1  and  C_31
    2  A    between atoms: C_3  and  O_18
    3  A    between atoms: C_3  and  C_29
    4  A    between atoms: C_9  and  C_44
    5  A    between atoms: C_11  and  O_18
    6  A    between atoms: C_12  and  N_27
    7  A    between atoms: C_15  and  C_34
    8  A    between atoms: C_15  and  N_43
    9  A    between atoms: O_17  and  C_29
   10  A    between atoms: O_19  and  C_48
   11  A    between atoms: C_25  and  C_47
                            x       y       z     vdW  Elec       q    Type
                         _______ _______ _______ _____ _____    ______ ____

>  <TORSDO>
F 11

$$$$
=
 OpenBabel11062421503D

 48 52  0  0  1  0  0  0  0  0999 V2000
  192.9450  176.5930  144.4240 C   0  0  0  0  0  0  0  0  0  0  0  0
  188.2690  173.6890  142.1120 S   0  0  0  0  0  0  0  0  0  0  0  0
  191.4910  173.5950  142.6110 C   0  0  0  0  0  2  0  0  0  0  0  0
  190.4080  173.3000  140.3690 C   0  0  0  0  0  2  0  0  0  0  0  0
  190.8990  176.4150  143.5670 C   0  0  0  0  0  0  0  0  0  0  0  0
  189.6380  175.9430  143.0120 N   0  0  0  0  0  0  0  0  0  0  0  0
  192.1330  175.7610  143.6630 C   0  0  0  0  0  0  0  0  0  0  0  0
  189.5350  174.9690  141.8990 C   0  0  1  0  0  3  0  0  0  0  0  0
  190.8180  174.2950  141.4380 C   0  0  1  0  0  3  0  0  0  0  0  0
  192.3370  177.7510  144.5850 O   0  0  0  0  0  0  0  0  0  0  0  0
  192.5090  174.4890  143.1040 N   0  0  0  0  0  0  0  0  0  0  0  0
  191.1190  177.7000  144.0780 C   0  0  0  0  0  3  0  0  0  0  0  0
  188.9470  172.8710  140.6160 C   0  0  2  0  0  3  0  0  0  0  0  0
  186.8560  178.4060  142.5430 C   0  0  0  0  0  2  0  0  0  0  0  0
  185.8340  177.9950  143.6180 C   0  0  1  0  0  3  0  0  0  0  0  0
  187.4810  176.1290  144.3640 C   0  0  2  0  0  3  0  0  0  0  0  0
  188.4740  176.7660  143.3730 C   0  0  2  0  0  3  0  0  0  0  0  0
  186.4780  177.2140  144.7850 C   0  0  0  0  0  2  0  0  0  0  0  0
  187.7470  177.2520  142.1170 C   0  0  0  0  0  2  0  0  0  0  0  0
  185.6050  180.3820  143.9410 O   0  0  0  0  0  0  0  0  0  0  0  0
  185.1460  179.2250  144.1780 C   0  0  0  0  0  0  0  0  0  0  0  0
  183.9620  179.1080  144.9820 N   0  0  0  0  0  1  0  0  0  0  0  0
  188.1670  175.6750  145.5200 O   0  0  0  0  0  0  0  0  0  0  0  0
  188.2320  176.7560  146.4110 C   0  0  0  0  0  2  0  0  0  0  0  0
  190.0400  177.7980  147.6000 O   0  0  0  0  0  0  0  0  0  0  0  0
  189.5810  176.7420  147.0790 C   0  0  0  0  0  0  0  0  0  0  0  0
  190.3820  175.5970  147.0050 O   0  0  0  0  0  0  0  0  0  0  0  0
  191.3700  175.3650  147.9480 N   0  0  0  0  0  1  0  0  0  0  0  0
  194.5340  177.1440  146.2840 C   0  0  0  0  0  1  0  0  0  0  0  0
  194.0110  174.8580  145.7850 N   0  0  0  0  0  1  0  0  0  0  0  0
  194.1950  176.1700  145.1810 C   0  0  1  0  0  0  0  0  0  0  0  0
  195.2670  176.1110  144.2770 O   0  0  0  0  0  1  0  0  0  0  0  0
  188.1000  172.9650  139.4900 O   0  0  0  0  0  0  0  0  0  0  0  0
  188.7750  173.6630  138.4840 C   0  0  0  0  0  1  0  0  0  0  0  0
  193.8690  174.2710  142.5940 C   0  0  0  0  0  2  0  0  0  0  0  0
  196.5560  173.8260  142.4950 F   0  0  0  0  0  0  0  0  0  0  0  0
  196.0880  169.0270  142.3360 C   0  0  0  0  0  1  0  0  0  0  0  0
  196.0760  172.9420  144.5260 F   0  0  0  0  0  0  0  0  0  0  0  0
  194.1940  170.6420  142.1420 C   0  0  1  0  0  3  0  0  0  0  0  0
  195.8940  172.8010  143.1500 C   0  0  0  0  0  0  0  0  0  0  0  0
  196.5070  171.4680  142.6840 C   0  0  1  0  0  3  0  0  0  0  0  0
  197.6870  171.2080  143.3720 F   0  0  0  0  0  0  0  0  0  0  0  0
  194.0560  171.9990  141.7610 O   0  0  0  0  0  0  0  0  0  0  0  0
  194.3700  172.8350  142.8570 C   0  0  2  0  0  3  0  0  0  0  0  0
  195.5130  170.3240  142.8730 C   0  0  2  0  0  3  0  0  0  0  0  0
  193.0540  169.6550  144.0090 O   0  0  0  0  0  1  0  0  0  0  0  0
  191.7480  170.1250  142.1700 O   0  0  0  0  0  0  0  0  0  0  0  0
  192.9750  170.1210  142.8360 C   0  0  0  0  0  0  0  0  0  0  0  0
  1 10  1  0  0  0  0
  1 31  1  0  0  0  0
  3 11  1  0  0  0  0
  4 13  1  0  0  0  0
  5  7  1  0  0  0  0
  5 12  2  0  0  0  0
  6 17  1  0  0  0  0
  6  5  1  0  0  0  0
  7  1  2  0  0  0  0
  8  2  1  1  0  0  0
  8  6  1  0  0  0  0
  9  4  1  6  0  0  0
  9  8  1  0  0  0  0
  9  3  1  0  0  0  0
 11  7  1  0  0  0  0
 12 10  1  0  0  0  0
 13 33  1  6  0  0  0
 13  2  1  0  0  0  0
 14 15  1  0  0  0  0
 15 21  1  1  0  0  0
 15 18  1  0  0  0  0
 16 18  1  0  0  0  0
 16 23  1  1  0  0  0
 17 19  1  6  0  0  0
 17 16  1  0  0  0  0
 19 14  1  0  0  0  0
 20 21  2  0  0  0  0
 21 22  1  0  0  0  0
 23 24  1  0  0  0  0
 24 26  1  0  0  0  0
 26 25  2  0  0  0  0
 27 26  1  0  0  0  0
 27 28  1  0  0  0  0
 31 30  1  0  0  0  0
 31 29  1  1  0  0  0
 32 31  1  0  0  0  0
 34 33  1  0  0  0  0
 35 11  1  0  0  0  0
 36 40  1  0  0  0  0
 39 48  1  1  0  0  0
 39 45  1  0  0  0  0
 40 38  1  0  0  0  0
 41 45  1  0  0  0  0
 41 40  1  0  0  0  0
 41 42  1  1  0  0  0
 43 39  1  0  0  0  0
 43 44  1  0  0  0  0
 44 35  1  6  0  0  0
 44 40  1  0  0  0  0
 45 37  1  6  0  0  0
 47 48  2  0  0  0  0
 48 46  1  0  0  0  0
M  END
>  <MODEL>
2

>  <REMARK>
 VINA RESULT:      -7.1      2.822      5.567
  Name = 
  11 active torsions:
  status: ('A' for Active; 'I' for Inactive)
    1  A    between atoms: C_1  and  C_31
    2  A    between atoms: C_3  and  O_18
    3  A    between atoms: C_3  and  C_29
    4  A    between atoms: C_9  and  C_44
    5  A    between atoms: C_11  and  O_18
    6  A    between atoms: C_12  and  N_27
    7  A    between atoms: C_15  and  C_34
    8  A    between atoms: C_15  and  N_43
    9  A    between atoms: O_17  and  C_29
   10  A    between atoms: O_19  and  C_48
   11  A    between atoms: C_25  and  C_47
                            x       y       z     vdW  Elec       q    Type
                         _______ _______ _______ _____ _____    ______ ____

>  <TORSDO>
F 11

$$$$
=
 OpenBabel11062421503D

 48 52  0  0  1  0  0  0  0  0999 V2000
  190.0310  173.7620  140.7060 C   0  0  0  0  0  0  0  0  0  0  0  0
  193.2470  174.1150  145.7240 S   0  0  0  0  0  0  0  0  0  0  0  0
  190.5720  175.1720  144.1860 C   0  0  0  0  0  2  0  0  0  0  0  0
  192.3100  176.6820  145.1790 C   0  0  0  0  0  2  0  0  0  0  0  0
  191.8770  173.6020  141.9390 C   0  0  0  0  0  0  0  0  0  0  0  0
  192.8570  173.5870  143.0160 N   0  0  0  0  0  0  0  0  0  0  0  0
  190.6080  174.1920  141.8950 C   0  0  0  0  0  0  0  0  0  0  0  0
  193.0090  174.6710  144.0140 C   0  0  1  0  0  3  0  0  0  0  0  0
  191.9610  175.7730  144.0160 C   0  0  1  0  0  3  0  0  0  0  0  0
  190.9490  173.1520  139.9820 O   0  0  0  0  0  0  0  0  0  0  0  0
  190.0000  175.0610  142.8670 N   0  0  0  0  0  0  0  0  0  0  0  0
  192.0730  173.0450  140.6690 C   0  0  0  0  0  3  0  0  0  0  0  0
  193.0750  175.8670  146.2420 C   0  0  2  0  0  3  0  0  0  0  0  0
  196.3120  172.3180  142.3170 C   0  0  0  0  0  2  0  0  0  0  0  0
  196.3460  170.9630  143.0480 C   0  0  1  0  0  3  0  0  0  0  0  0
  193.8790  171.3680  143.7580 C   0  0  2  0  0  3  0  0  0  0  0  0
  193.9360  172.6020  142.8370 C   0  0  2  0  0  3  0  0  0  0  0  0
  194.9370  170.3680  143.2660 C   0  0  0  0  0  2  0  0  0  0  0  0
  195.3040  173.2800  142.9240 C   0  0  0  0  0  2  0  0  0  0  0  0
  197.5010  170.2120  141.0590 O   0  0  0  0  0  0  0  0  0  0  0  0
  197.1770  169.9690  142.2590 C   0  0  0  0  0  0  0  0  0  0  0  0
  197.6160  168.7380  142.8540 N   0  0  0  0  0  1  0  0  0  0  0  0
  192.6040  170.7530  143.6740 O   0  0  0  0  0  0  0  0  0  0  0  0
  192.6600  169.8280  142.6220 C   0  0  0  0  0  2  0  0  0  0  0  0
  190.3720  170.5150  142.3720 O   0  0  0  0  0  0  0  0  0  0  0  0
  191.3020  169.7520  141.9800 C   0  0  0  0  0  0  0  0  0  0  0  0
  191.0300  168.7490  141.0430 O   0  0  0  0  0  0  0  0  0  0  0  0
  192.0550  168.1660  140.3160 N   0  0  0  0  0  1  0  0  0  0  0  0
  188.2270  172.8110  139.2480 C   0  0  0  0  0  1  0  0  0  0  0  0
  187.7790  173.3040  141.5510 N   0  0  0  0  0  1  0  0  0  0  0  0
  188.5430  173.7450  140.3920 C   0  0  1  0  0  0  0  0  0  0  0  0
  188.1420  175.0440  140.0470 O   0  0  0  0  0  1  0  0  0  0  0  0
  194.2870  176.4460  146.6780 O   0  0  0  0  0  0  0  0  0  0  0  0
  194.6750  177.4160  145.7490 C   0  0  0  0  0  1  0  0  0  0  0  0
  189.1310  176.1660  142.4400 C   0  0  0  0  0  2  0  0  0  0  0  0
  186.7570  177.2190  141.6160 F   0  0  0  0  0  0  0  0  0  0  0  0
  185.5550  178.7980  146.0130 C   0  0  0  0  0  1  0  0  0  0  0  0
  186.0140  175.5480  142.9550 F   0  0  0  0  0  0  0  0  0  0  0  0
  187.7890  177.8640  145.4050 C   0  0  1  0  0  3  0  0  0  0  0  0
  186.6870  176.7690  142.9240 C   0  0  0  0  0  0  0  0  0  0  0  0
  185.9030  177.8110  143.7420 C   0  0  1  0  0  3  0  0  0  0  0  0
  184.5350  177.6410  143.5630 F   0  0  0  0  0  0  0  0  0  0  0  0
  188.5320  177.7160  144.2090 O   0  0  0  0  0  0  0  0  0  0  0  0
  188.1040  176.5560  143.5230 C   0  0  2  0  0  3  0  0  0  0  0  0
  186.2660  177.7170  145.2230 C   0  0  2  0  0  3  0  0  0  0  0  0
  187.7580  175.9930  146.9080 O   0  0  0  0  0  0  0  0  0  0  0  0
  189.5130  177.4630  147.1710 O   0  0  0  0  0  1  0  0  0  0  0  0
  188.3470  177.0450  146.5250 C   0  0  0  0  0  0  0  0  0  0  0  0
  1  7  2  0  0  0  0
  2 13  1  0  0  0  0
  4 13  1  0  0  0  0
  5  6  1  0  0  0  0
  6  8  1  0  0  0  0
  7  5  1  0  0  0  0
  7 11  1  0  0  0  0
  8  9  1  0  0  0  0
  8  2  1  1  0  0  0
  9  3  1  1  0  0  0
  9  4  1  0  0  0  0
 10 12  1  0  0  0  0
 10  1  1  0  0  0  0
 11  3  1  0  0  0  0
 12  5  2  0  0  0  0
 13 33  1  6  0  0  0
 14 19  1  0  0  0  0
 14 15  1  0  0  0  0
 15 21  1  6  0  0  0
 15 18  1  0  0  0  0
 16 23  1  6  0  0  0
 17 19  1  1  0  0  0
 17  6  1  0  0  0  0
 17 16  1  0  0  0  0
 18 16  1  0  0  0  0
 20 21  2  0  0  0  0
 21 22  1  0  0  0  0
 24 23  1  0  0  0  0
 26 25  2  0  0  0  0
 26 24  1  0  0  0  0
 27 26  1  0  0  0  0
 28 27  1  0  0  0  0
 31 29  1  6  0  0  0
 31  1  1  0  0  0  0
 31 30  1  0  0  0  0
 32 31  1  0  0  0  0
 34 33  1  0  0  0  0
 35 11  1  0  0  0  0
 36 40  1  0  0  0  0
 39 48  1  1  0  0  0
 40 38  1  0  0  0  0
 40 44  1  0  0  0  0
 40 41  1  0  0  0  0
 41 42  1  1  0  0  0
 41 45  1  0  0  0  0
 43 39  1  0  0  0  0
 44 35  1  6  0  0  0
 44 43  1  0  0  0  0
 45 39  1  0  0  0  0
 45 37  1  1  0  0  0
 48 46  2  0  0  0  0
 48 47  1  0  0  0  0
M  END
>  <MODEL>
3

>  <REMARK>
 VINA RESULT:      -7.0      3.538      8.523
  Name = 
  11 active torsions:
  status: ('A' for Active; 'I' for Inactive)
    1  A    between atoms: C_1  and  C_31
    2  A    between atoms: C_3  and  O_18
    3  A    between atoms: C_3  and  C_29
    4  A    between atoms: C_9  and  C_44
    5  A    between atoms: C_11  and  O_18
    6  A    between atoms: C_12  and  N_27
    7  A    between atoms: C_15  and  C_34
    8  A    between atoms: C_15  and  N_43
    9  A    between atoms: O_17  and  C_29
   10  A    between atoms: O_19  and  C_48
   11  A    between atoms: C_25  and  C_47
                            x       y       z     vdW  Elec       q    Type
                         _______ _______ _______ _____ _____    ______ ____

>  <TORSDO>
F 11

$$$$
=
 OpenBabel11062421503D

 48 52  0  0  1  0  0  0  0  0999 V2000
  189.3520  173.3310  140.3920 C   0  0  0  0  0  0  0  0  0  0  0  0
  192.1930  177.1160  144.0310 S   0  0  0  0  0  0  0  0  0  0  0  0
  192.5470  175.0000  141.5740 C   0  0  0  0  0  2  0  0  0  0  0  0
  193.8510  174.8990  143.7120 C   0  0  0  0  0  2  0  0  0  0  0  0
  189.6230  174.5350  142.2440 C   0  0  0  0  0  0  0  0  0  0  0  0
  190.0990  175.4380  143.2820 N   0  0  0  0  0  0  0  0  0  0  0  0
  190.3130  173.9770  141.1610 C   0  0  0  0  0  0  0  0  0  0  0  0
  191.4920  175.4620  143.7860 C   0  0  1  0  0  3  0  0  0  0  0  0
  192.5180  174.6170  143.0470 C   0  0  1  0  0  3  0  0  0  0  0  0
  188.2180  173.3020  141.0610 O   0  0  0  0  0  0  0  0  0  0  0  0
  191.7220  174.0460  140.8750 N   0  0  0  0  0  0  0  0  0  0  0  0
  188.3320  173.9940  142.1810 C   0  0  0  0  0  3  0  0  0  0  0  0
  193.8100  176.3050  144.3440 C   0  0  2  0  0  3  0  0  0  0  0  0
  187.9520  176.1820  146.2600 C   0  0  0  0  0  2  0  0  0  0  0  0
  187.4420  177.6080  145.9810 C   0  0  1  0  0  3  0  0  0  0  0  0
  188.7500  177.5580  143.7370 C   0  0  2  0  0  3  0  0  0  0  0  0
  189.0280  176.0780  144.0630 C   0  0  2  0  0  3  0  0  0  0  0  0
  187.4690  177.9680  144.4790 C   0  0  0  0  0  2  0  0  0  0  0  0
  189.2700  175.8900  145.5620 C   0  0  0  0  0  2  0  0  0  0  0  0
  185.6400  178.8500  147.0110 O   0  0  0  0  0  0  0  0  0  0  0  0
  186.0220  177.7600  146.4920 C   0  0  0  0  0  0  0  0  0  0  0  0
  185.0820  176.6780  146.3960 N   0  0  0  0  0  1  0  0  0  0  0  0
  188.5360  177.7200  142.3440 O   0  0  0  0  0  0  0  0  0  0  0  0
  187.2500  178.2550  142.1840 C   0  0  0  0  0  2  0  0  0  0  0  0
  187.2580  176.7700  140.2980 O   0  0  0  0  0  0  0  0  0  0  0  0
  186.6270  177.6430  140.9590 C   0  0  0  0  0  0  0  0  0  0  0  0
  185.4090  178.1350  140.4780 O   0  0  0  0  0  0  0  0  0  0  0  0
  184.2970  178.1980  141.3030 N   0  0  0  0  0  1  0  0  0  0  0  0
  189.9850  171.5420  138.7520 C   0  0  0  0  0  1  0  0  0  0  0  0
  188.2050  173.0660  138.2440 N   0  0  0  0  0  1  0  0  0  0  0  0
  189.4890  172.9580  138.9230 C   0  0  1  0  0  0  0  0  0  0  0  0
  190.4010  173.8380  138.3200 O   0  0  0  0  0  1  0  0  0  0  0  0
  194.2160  176.3630  145.6960 O   0  0  0  0  0  0  0  0  0  0  0  0
  194.9540  175.2120  145.9870 C   0  0  0  0  0  1  0  0  0  0  0  0
  192.4180  172.9020  140.2720 C   0  0  0  0  0  2  0  0  0  0  0  0
  193.7510  170.6920  139.3970 F   0  0  0  0  0  0  0  0  0  0  0  0
  193.1640  168.2900  143.5380 C   0  0  0  0  0  1  0  0  0  0  0  0
  195.1720  171.4060  141.0120 F   0  0  0  0  0  0  0  0  0  0  0  0
  192.0560  170.4590  142.9890 C   0  0  1  0  0  3  0  0  0  0  0  0
  193.9070  170.8730  140.7610 C   0  0  0  0  0  0  0  0  0  0  0  0
  193.7850  169.4960  141.4380 C   0  0  1  0  0  3  0  0  0  0  0  0
  194.9850  168.8000  141.3460 F   0  0  0  0  0  0  0  0  0  0  0  0
  191.7180  171.1510  141.8010 O   0  0  0  0  0  0  0  0  0  0  0  0
  192.8460  171.8570  141.3240 C   0  0  2  0  0  3  0  0  0  0  0  0
  193.3640  169.6500  142.8980 C   0  0  2  0  0  3  0  0  0  0  0  0
  190.8650  171.8480  144.5440 O   0  0  0  0  0  0  0  0  0  0  0  0
  193.1220  171.6090  144.9370 O   0  0  0  0  0  1  0  0  0  0  0  0
  191.9680  171.3350  144.2000 C   0  0  0  0  0  0  0  0  0  0  0  0
  1 10  1  0  0  0  0
  1  7  2  0  0  0  0
  2 13  1  0  0  0  0
  4 13  1  0  0  0  0
  5  6  1  0  0  0  0
  6  8  1  0  0  0  0
  7  5  1  0  0  0  0
  8  2  1  6  0  0  0
  9  3  1  6  0  0  0
  9  4  1  0  0  0  0
  9  8  1  0  0  0  0
 10 12  1  0  0  0  0
 11  7  1  0  0  0  0
 11  3  1  0  0  0  0
 12  5  2  0  0  0  0
 13 33  1  1  0  0  0
 15 14  1  0  0  0  0
 15 21  1  6  0  0  0
 16 23  1  6  0  0  0
 16 17  1  0  0  0  0
 16 18  1  0  0  0  0
 17  6  1  6  0  0  0
 17 19  1  0  0  0  0
 18 15  1  0  0  0  0
 19 14  1  0  0  0  0
 21 20  2  0  0  0  0
 22 21  1  0  0  0  0
 24 23  1  0  0  0  0
 25 26  2  0  0  0  0
 26 24  1  0  0  0  0
 27 26  1  0  0  0  0
 27 28  1  0  0  0  0
 30 31  1  0  0  0  0
 31 29  1  6  0  0  0
 31  1  1  0  0  0  0
 32 31  1  0  0  0  0
 33 34  1  0  0  0  0
 35 11  1  0  0  0  0
 36 40  1  0  0  0  0
 39 48  1  1  0  0  0
 40 38  1  0  0  0  0
 40 44  1  0  0  0  0
 40 41  1  0  0  0  0
 41 42  1  1  0  0  0
 41 45  1  0  0  0  0
 43 39  1  0  0  0  0
 44 35  1  6  0  0  0
 44 43  1  0  0  0  0
 45 39  1  0  0  0  0
 45 37  1  6  0  0  0
 48 46  2  0  0  0  0
 48 47  1  0  0  0  0
M  END
>  <MODEL>
4

>  <REMARK>
 VINA RESULT:      -7.0      2.053      2.606
  Name = 
  11 active torsions:
  status: ('A' for Active; 'I' for Inactive)
    1  A    between atoms: C_1  and  C_31
    2  A    between atoms: C_3  and  O_18
    3  A    between atoms: C_3  and  C_29
    4  A    between atoms: C_9  and  C_44
    5  A    between atoms: C_11  and  O_18
    6  A    between atoms: C_12  and  N_27
    7  A    between atoms: C_15  and  C_34
    8  A    between atoms: C_15  and  N_43
    9  A    between atoms: O_17  and  C_29
   10  A    between atoms: O_19  and  C_48
   11  A    between atoms: C_25  and  C_47
                            x       y       z     vdW  Elec       q    Type
                         _______ _______ _______ _____ _____    ______ ____

>  <TORSDO>
F 11

$$$$
=
 OpenBabel11062421503D

 48 52  0  0  1  0  0  0  0  0999 V2000
  190.5990  175.5830  146.1630 C   0  0  0  0  0  0  0  0  0  0  0  0
  191.2560  173.7190  140.5290 S   0  0  0  0  0  0  0  0  0  0  0  0
  189.2610  175.2160  142.6320 C   0  0  0  0  0  2  0  0  0  0  0  0
  188.6040  173.2380  141.2390 C   0  0  0  0  0  2  0  0  0  0  0  0
  191.4530  174.3260  144.5360 C   0  0  0  0  0  0  0  0  0  0  0  0
  191.8040  173.7180  143.2610 N   0  0  0  0  0  0  0  0  0  0  0  0
  190.3640  175.1430  144.8660 C   0  0  0  0  0  0  0  0  0  0  0  0
  190.8140  173.3050  142.2380 C   0  0  1  0  0  3  0  0  0  0  0  0
  189.3650  173.7060  142.4640 C   0  0  1  0  0  3  0  0  0  0  0  0
  191.6200  174.9150  146.6620 O   0  0  0  0  0  0  0  0  0  0  0  0
  189.2270  175.4790  144.0490 N   0  0  0  0  0  0  0  0  0  0  0  0
  192.1540  174.1410  145.7340 C   0  0  0  0  0  3  0  0  0  0  0  0
  189.5720  173.1770  140.0390 C   0  0  2  0  0  3  0  0  0  0  0  0
  194.5530  171.1740  143.2800 C   0  0  0  0  0  2  0  0  0  0  0  0
  195.6780  171.8620  142.4870 C   0  0  1  0  0  3  0  0  0  0  0  0
  194.1340  173.9370  142.2400 C   0  0  2  0  0  3  0  0  0  0  0  0
  193.1800  173.1990  143.1990 C   0  0  2  0  0  3  0  0  0  0  0  0
  195.5530  173.4020  142.4880 C   0  0  0  0  0  2  0  0  0  0  0  0
  193.1760  171.6970  142.9080 C   0  0  0  0  0  2  0  0  0  0  0  0
  197.4680  172.0660  144.1020 O   0  0  0  0  0  0  0  0  0  0  0  0
  197.0280  171.4840  143.0660 C   0  0  0  0  0  0  0  0  0  0  0  0
  197.8330  170.4610  142.4590 N   0  0  0  0  0  1  0  0  0  0  0  0
  194.1230  175.3290  142.5140 O   0  0  0  0  0  0  0  0  0  0  0  0
  195.0250  175.5500  143.5640 C   0  0  0  0  0  2  0  0  0  0  0  0
  193.3690  177.1440  144.2620 O   0  0  0  0  0  0  0  0  0  0  0  0
  194.3580  176.4270  144.5890 C   0  0  0  0  0  0  0  0  0  0  0  0
  194.9150  176.5510  145.8670 O   0  0  0  0  0  0  0  0  0  0  0  0
  194.2090  177.1650  146.8880 N   0  0  0  0  0  1  0  0  0  0  0  0
  190.7780  177.2690  148.0100 C   0  0  0  0  0  1  0  0  0  0  0  0
  189.9100  177.9150  145.8700 N   0  0  0  0  0  1  0  0  0  0  0  0
  189.9770  176.8090  146.8150 C   0  0  1  0  0  0  0  0  0  0  0  0
  188.6780  176.4840  147.2330 O   0  0  0  0  0  1  0  0  0  0  0  0
  189.5590  171.9600  139.3240 O   0  0  0  0  0  0  0  0  0  0  0  0
  190.8700  171.4830  139.2370 C   0  0  0  0  0  1  0  0  0  0  0  0
  187.8960  175.6310  144.6510 C   0  0  0  0  0  2  0  0  0  0  0  0
  185.7180  176.6160  145.9590 F   0  0  0  0  0  0  0  0  0  0  0  0
  183.8590  178.6660  142.0090 C   0  0  0  0  0  1  0  0  0  0  0  0
  186.7710  178.5490  145.4190 F   0  0  0  0  0  0  0  0  0  0  0  0
  185.8230  177.1250  142.0140 C   0  0  1  0  0  3  0  0  0  0  0  0
  186.0960  177.4390  144.9110 C   0  0  0  0  0  0  0  0  0  0  0  0
  184.8190  177.8990  144.1860 C   0  0  1  0  0  3  0  0  0  0  0  0
  184.2290  178.9590  144.8650 F   0  0  0  0  0  0  0  0  0  0  0  0
  186.3140  176.1130  142.8750 O   0  0  0  0  0  0  0  0  0  0  0  0
  187.0470  176.7000  143.9310 C   0  0  2  0  0  3  0  0  0  0  0  0
  185.1310  178.2930  142.7440 C   0  0  2  0  0  3  0  0  0  0  0  0
  186.6960  177.2860  139.7840 O   0  0  0  0  0  0  0  0  0  0  0  0
  187.9830  178.2450  141.4360 O   0  0  0  0  0  1  0  0  0  0  0  0
  186.8440  177.5590  141.0090 C   0  0  0  0  0  0  0  0  0  0  0  0
  1 10  1  0  0  0  0
  1 31  1  0  0  0  0
  3 11  1  0  0  0  0
  5  7  1  0  0  0  0
  5 12  2  0  0  0  0
  6  5  1  0  0  0  0
  7  1  2  0  0  0  0
  8  2  1  6  0  0  0
  8  9  1  0  0  0  0
  8  6  1  0  0  0  0
  9  4  1  6  0  0  0
  9  3  1  0  0  0  0
 11 35  1  0  0  0  0
 11  7  1  0  0  0  0
 12 10  1  0  0  0  0
 13 33  1  1  0  0  0
 13  2  1  0  0  0  0
 13  4  1  0  0  0  0
 15 18  1  0  0  0  0
 15 21  1  1  0  0  0
 15 14  1  0  0  0  0
 16 18  1  0  0  0  0
 16 23  1  1  0  0  0
 16 17  1  0  0  0  0
 17 19  1  6  0  0  0
 17  6  1  0  0  0  0
 19 14  1  0  0  0  0
 21 20  2  0  0  0  0
 22 21  1  0  0  0  0
 23 24  1  0  0  0  0
 24 26  1  0  0  0  0
 25 26  2  0  0  0  0
 26 27  1  0  0  0  0
 27 28  1  0  0  0  0
 30 31  1  0  0  0  0
 31 32  1  0  0  0  0
 31 29  1  1  0  0  0
 34 33  1  0  0  0  0
 39 48  1  1  0  0  0
 39 45  1  0  0  0  0
 39 43  1  0  0  0  0
 40 38  1  0  0  0  0
 40 36  1  0  0  0  0
 41 42  1  1  0  0  0
 41 40  1  0  0  0  0
 43 44  1  0  0  0  0
 44 35  1  1  0  0  0
 44 40  1  0  0  0  0
 45 37  1  6  0  0  0
 45 41  1  0  0  0  0
 46 48  2  0  0  0  0
 48 47  1  0  0  0  0
M  END
>  <MODEL>
5

>  <REMARK>
 VINA RESULT:      -6.7      3.787      9.320
  Name = 
  11 active torsions:
  status: ('A' for Active; 'I' for Inactive)
    1  A    between atoms: C_1  and  C_31
    2  A    between atoms: C_3  and  O_18
    3  A    between atoms: C_3  and  C_29
    4  A    between atoms: C_9  and  C_44
    5  A    between atoms: C_11  and  O_18
    6  A    between atoms: C_12  and  N_27
    7  A    between atoms: C_15  and  C_34
    8  A    between atoms: C_15  and  N_43
    9  A    between atoms: O_17  and  C_29
   10  A    between atoms: O_19  and  C_48
   11  A    between atoms: C_25  and  C_47
                            x       y       z     vdW  Elec       q    Type
                         _______ _______ _______ _____ _____    ______ ____

>  <TORSDO>
F 11

$$$$
=
 OpenBabel11062421503D

 48 52  0  0  1  0  0  0  0  0999 V2000
  189.9150  174.9750  141.6520 C   0  0  0  0  0  0  0  0  0  0  0  0
  191.6570  175.2050  147.3580 S   0  0  0  0  0  0  0  0  0  0  0  0
  189.3680  176.1270  145.2250 C   0  0  0  0  0  2  0  0  0  0  0  0
  190.6020  177.7070  146.7300 C   0  0  0  0  0  2  0  0  0  0  0  0
  191.3840  174.8890  143.3220 C   0  0  0  0  0  0  0  0  0  0  0  0
  192.0460  174.8760  144.6190 N   0  0  0  0  0  0  0  0  0  0  0  0
  190.1100  175.3550  142.9750 C   0  0  0  0  0  0  0  0  0  0  0  0
  191.8070  175.8800  145.6820 C   0  0  1  0  0  3  0  0  0  0  0  0
  190.6740  176.8710  145.4670 C   0  0  1  0  0  3  0  0  0  0  0  0
  191.0530  174.5210  141.1660 O   0  0  0  0  0  0  0  0  0  0  0  0
  189.1740  176.0740  143.7970 N   0  0  0  0  0  0  0  0  0  0  0  0
  191.9650  174.4650  142.1200 C   0  0  0  0  0  3  0  0  0  0  0  0
  191.1550  176.8810  147.9100 C   0  0  2  0  0  3  0  0  0  0  0  0
  195.6650  173.9980  145.0190 C   0  0  0  0  0  2  0  0  0  0  0  0
  195.6250  172.5250  145.4660 C   0  0  1  0  0  3  0  0  0  0  0  0
  193.0340  172.6190  145.2870 C   0  0  2  0  0  3  0  0  0  0  0  0
  193.2410  174.0190  144.6770 C   0  0  2  0  0  3  0  0  0  0  0  0
  194.3200  171.8110  145.0500 C   0  0  0  0  0  2  0  0  0  0  0  0
  194.3920  174.7480  145.3730 C   0  0  0  0  0  2  0  0  0  0  0  0
  196.7960  170.5050  144.8350 O   0  0  0  0  0  0  0  0  0  0  0  0
  196.8010  171.7710  144.8760 C   0  0  0  0  0  0  0  0  0  0  0  0
  197.9390  172.4710  144.3490 N   0  0  0  0  0  1  0  0  0  0  0  0
  191.9600  171.9570  144.6400 O   0  0  0  0  0  0  0  0  0  0  0  0
  192.4640  170.7510  144.1320 C   0  0  0  0  0  2  0  0  0  0  0  0
  192.2710  169.5580  142.0570 O   0  0  0  0  0  0  0  0  0  0  0  0
  191.8680  170.5210  142.7700 C   0  0  0  0  0  0  0  0  0  0  0  0
  190.9650  171.4490  142.2400 O   0  0  0  0  0  0  0  0  0  0  0  0
  190.0550  171.0720  141.2660 N   0  0  0  0  0  1  0  0  0  0  0  0
  188.6930  174.0780  139.6540 C   0  0  0  0  0  1  0  0  0  0  0  0
  187.6200  174.1320  141.7970 N   0  0  0  0  0  1  0  0  0  0  0  0
  188.5710  174.8410  140.9520 C   0  0  1  0  0  0  0  0  0  0  0  0
  188.0750  176.1250  140.6830 O   0  0  0  0  0  1  0  0  0  0  0  0
  192.1370  177.5350  148.6870 O   0  0  0  0  0  0  0  0  0  0  0  0
  191.5430  177.9760  149.8730 C   0  0  0  0  0  1  0  0  0  0  0  0
  188.3240  177.1230  143.2170 C   0  0  0  0  0  2  0  0  0  0  0  0
  186.1360  177.9740  141.8340 F   0  0  0  0  0  0  0  0  0  0  0  0
  183.6250  179.0420  145.8110 C   0  0  0  0  0  1  0  0  0  0  0  0
  185.2860  176.1270  142.8340 F   0  0  0  0  0  0  0  0  0  0  0  0
  186.0410  178.4120  145.7880 C   0  0  1  0  0  3  0  0  0  0  0  0
  185.7820  177.4120  143.0490 C   0  0  0  0  0  0  0  0  0  0  0  0
  184.6830  178.2910  143.6740 C   0  0  1  0  0  3  0  0  0  0  0  0
  183.4440  177.9870  143.1210 F   0  0  0  0  0  0  0  0  0  0  0  0
  187.0860  178.4450  144.8330 O   0  0  0  0  0  0  0  0  0  0  0  0
  187.0060  177.3070  143.9990 C   0  0  2  0  0  3  0  0  0  0  0  0
  184.6510  178.1140  145.1910 C   0  0  2  0  0  3  0  0  0  0  0  0
  185.8770  176.4180  147.1140 O   0  0  0  0  0  0  0  0  0  0  0  0
  187.2490  178.0690  147.9500 O   0  0  0  0  0  1  0  0  0  0  0  0
  186.3840  177.5680  146.9750 C   0  0  0  0  0  0  0  0  0  0  0  0
  1  7  2  0  0  0  0
  2 13  1  0  0  0  0
  4 13  1  0  0  0  0
  5  6  1  0  0  0  0
  6  8  1  0  0  0  0
  7  5  1  0  0  0  0
  7 11  1  0  0  0  0
  8  2  1  1  0  0  0
  9  3  1  1  0  0  0
  9  8  1  0  0  0  0
  9  4  1  0  0  0  0
 10  1  1  0  0  0  0
 10 12  1  0  0  0  0
 11  3  1  0  0  0  0
 12  5  2  0  0  0  0
 13 33  1  6  0  0  0
 14 19  1  0  0  0  0
 14 15  1  0  0  0  0
 15 21  1  6  0  0  0
 16 23  1  6  0  0  0
 17  6  1  1  0  0  0
 17 16  1  0  0  0  0
 17 19  1  0  0  0  0
 18 16  1  0  0  0  0
 18 15  1  0  0  0  0
 20 21  2  0  0  0  0
 22 21  1  0  0  0  0
 24 23  1  0  0  0  0
 25 26  2  0  0  0  0
 26 24  1  0  0  0  0
 27 26  1  0  0  0  0
 28 27  1  0  0  0  0
 31 29  1  6  0  0  0
 31  1  1  0  0  0  0
 31 30  1  0  0  0  0
 32 31  1  0  0  0  0
 33 34  1  0  0  0  0
 35 11  1  0  0  0  0
 36 40  1  0  0  0  0
 38 40  1  0  0  0  0
 39 48  1  1  0  0  0
 40 41  1  0  0  0  0
 40 44  1  0  0  0  0
 41 42  1  6  0  0  0
 41 45  1  0  0  0  0
 43 39  1  0  0  0  0
 44 35  1  6  0  0  0
 44 43  1  0  0  0  0
 45 39  1  0  0  0  0
 45 37  1  1  0  0  0
 48 46  2  0  0  0  0
 48 47  1  0  0  0  0
M  END
>  <MODEL>
6

>  <REMARK>
 VINA RESULT:      -6.6      3.712      8.604
  Name = 
  11 active torsions:
  status: ('A' for Active; 'I' for Inactive)
    1  A    between atoms: C_1  and  C_31
    2  A    between atoms: C_3  and  O_18
    3  A    between atoms: C_3  and  C_29
    4  A    between atoms: C_9  and  C_44
    5  A    between atoms: C_11  and  O_18
    6  A    between atoms: C_12  and  N_27
    7  A    between atoms: C_15  and  C_34
    8  A    between atoms: C_15  and  N_43
    9  A    between atoms: O_17  and  C_29
   10  A    between atoms: O_19  and  C_48
   11  A    between atoms: C_25  and  C_47
                            x       y       z     vdW  Elec       q    Type
                         _______ _______ _______ _____ _____    ______ ____

>  <TORSDO>
F 11

$$$$
=
 OpenBabel11062421503D

 48 52  0  0  1  0  0  0  0  0999 V2000
  192.9340  176.3980  144.1430 C   0  0  0  0  0  0  0  0  0  0  0  0
  188.1210  173.5860  142.0060 S   0  0  0  0  0  0  0  0  0  0  0  0
  191.3600  173.4420  142.3600 C   0  0  0  0  0  2  0  0  0  0  0  0
  190.1750  173.1900  140.1650 C   0  0  0  0  0  2  0  0  0  0  0  0
  190.8500  176.2580  143.3750 C   0  0  0  0  0  0  0  0  0  0  0  0
  189.5600  175.8090  142.8700 N   0  0  0  0  0  0  0  0  0  0  0  0
  192.0780  175.5860  143.4080 C   0  0  0  0  0  0  0  0  0  0  0  0
  189.3940  174.8510  141.7520 C   0  0  1  0  0  3  0  0  0  0  0  0
  190.6450  174.1660  141.2260 C   0  0  1  0  0  3  0  0  0  0  0  0
  192.3500  177.5620  144.3440 O   0  0  0  0  0  0  0  0  0  0  0  0
  192.4110  174.3160  142.8180 N   0  0  0  0  0  0  0  0  0  0  0  0
  191.1100  177.5340  143.8900 C   0  0  0  0  0  3  0  0  0  0  0  0
  188.7210  172.7770  140.4720 C   0  0  2  0  0  3  0  0  0  0  0  0
  186.7200  178.2280  142.5290 C   0  0  0  0  0  2  0  0  0  0  0  0
  185.8040  177.8680  143.7130 C   0  0  1  0  0  3  0  0  0  0  0  0
  187.5320  176.0530  144.4020 C   0  0  2  0  0  3  0  0  0  0  0  0
  188.4240  176.6440  143.2930 C   0  0  2  0  0  3  0  0  0  0  0  0
  186.5590  177.1530  144.8550 C   0  0  0  0  0  2  0  0  0  0  0  0
  187.5810  177.0580  142.0840 C   0  0  0  0  0  2  0  0  0  0  0  0
  185.5660  180.2670  143.9140 O   0  0  0  0  0  0  0  0  0  0  0  0
  185.1560  179.1210  144.2680 C   0  0  0  0  0  0  0  0  0  0  0  0
  184.0660  179.0390  145.2000 N   0  0  0  0  0  1  0  0  0  0  0  0
  188.3240  175.6650  145.5120 O   0  0  0  0  0  0  0  0  0  0  0  0
  188.2750  176.7150  146.4400 C   0  0  0  0  0  2  0  0  0  0  0  0
  189.9570  177.9410  147.6380 O   0  0  0  0  0  0  0  0  0  0  0  0
  189.6340  176.8590  147.0700 C   0  0  0  0  0  0  0  0  0  0  0  0
  190.5850  175.8450  146.9110 O   0  0  0  0  0  0  0  0  0  0  0  0
  191.2170  175.2910  148.0130 N   0  0  0  0  0  1  0  0  0  0  0  0
  194.6120  176.9050  145.9360 C   0  0  0  0  0  1  0  0  0  0  0  0
  194.0350  174.6320  145.4350 N   0  0  0  0  0  1  0  0  0  0  0  0
  194.2110  175.9490  144.8380 C   0  0  1  0  0  0  0  0  0  0  0  0
  195.2410  175.8860  143.8870 O   0  0  0  0  0  1  0  0  0  0  0  0
  187.8260  172.8970  139.3860 O   0  0  0  0  0  0  0  0  0  0  0  0
  188.5000  173.4990  138.3200 C   0  0  0  0  0  1  0  0  0  0  0  0
  193.7440  174.0870  142.2460 C   0  0  0  0  0  2  0  0  0  0  0  0
  193.3930  172.3700  140.1590 F   0  0  0  0  0  0  0  0  0  0  0  0
  194.2350  168.4370  142.8240 C   0  0  0  0  0  1  0  0  0  0  0  0
  195.6020  172.0640  140.5650 F   0  0  0  0  0  0  0  0  0  0  0  0
  193.9710  170.7430  143.7450 C   0  0  1  0  0  3  0  0  0  0  0  0
  194.3150  171.8810  141.0700 C   0  0  0  0  0  0  0  0  0  0  0  0
  194.0440  170.3770  141.2570 C   0  0  1  0  0  3  0  0  0  0  0  0
  194.6130  169.6470  140.2210 F   0  0  0  0  0  0  0  0  0  0  0  0
  193.3540  171.9420  143.3120 O   0  0  0  0  0  0  0  0  0  0  0  0
  194.2160  172.6290  142.4270 C   0  0  2  0  0  3  0  0  0  0  0  0
  194.5760  169.8990  142.6070 C   0  0  2  0  0  3  0  0  0  0  0  0
  196.1480  170.8030  144.7530 O   0  0  0  0  0  0  0  0  0  0  0  0
  194.3860  171.3360  146.1380 O   0  0  0  0  0  1  0  0  0  0  0  0
  194.9030  170.9680  144.8940 C   0  0  0  0  0  0  0  0  0  0  0  0
  1 10  1  0  0  0  0
  1 31  1  0  0  0  0
  3 11  1  0  0  0  0
  4 13  1  0  0  0  0
  5  7  1  0  0  0  0
  5 12  2  0  0  0  0
  6 17  1  0  0  0  0
  6  5  1  0  0  0  0
  7  1  2  0  0  0  0
  8  2  1  1  0  0  0
  8  6  1  0  0  0  0
  9  4  1  6  0  0  0
  9  8  1  0  0  0  0
  9  3  1  0  0  0  0
 11  7  1  0  0  0  0
 12 10  1  0  0  0  0
 13 33  1  6  0  0  0
 13  2  1  0  0  0  0
 14 15  1  0  0  0  0
 15 21  1  1  0  0  0
 15 18  1  0  0  0  0
 16 18  1  0  0  0  0
 16 23  1  1  0  0  0
 17 19  1  6  0  0  0
 17 16  1  0  0  0  0
 19 14  1  0  0  0  0
 20 21  2  0  0  0  0
 21 22  1  0  0  0  0
 23 24  1  0  0  0  0
 24 26  1  0  0  0  0
 26 25  2  0  0  0  0
 27 26  1  0  0  0  0
 27 28  1  0  0  0  0
 31 30  1  0  0  0  0
 31 29  1  1  0  0  0
 32 31  1  0  0  0  0
 34 33  1  0  0  0  0
 35 11  1  0  0  0  0
 36 40  1  0  0  0  0
 38 40  1  0  0  0  0
 39 48  1  1  0  0  0
 40 41  1  0  0  0  0
 40 44  1  0  0  0  0
 41 42  1  6  0  0  0
 41 45  1  0  0  0  0
 43 39  1  0  0  0  0
 44 35  1  6  0  0  0
 44 43  1  0  0  0  0
 45 37  1  1  0  0  0
 45 39  1  0  0  0  0
 46 48  2  0  0  0  0
 48 47  1  0  0  0  0
M  END
>  <MODEL>
7

>  <REMARK>
 VINA RESULT:      -6.6      2.584      5.351
  Name = 
  11 active torsions:
  status: ('A' for Active; 'I' for Inactive)
    1  A    between atoms: C_1  and  C_31
    2  A    between atoms: C_3  and  O_18
    3  A    between atoms: C_3  and  C_29
    4  A    between atoms: C_9  and  C_44
    5  A    between atoms: C_11  and  O_18
    6  A    between atoms: C_12  and  N_27
    7  A    between atoms: C_15  and  C_34
    8  A    between atoms: C_15  and  N_43
    9  A    between atoms: O_17  and  C_29
   10  A    between atoms: O_19  and  C_48
   11  A    between atoms: C_25  and  C_47
                            x       y       z     vdW  Elec       q    Type
                         _______ _______ _______ _____ _____    ______ ____

>  <TORSDO>
F 11

$$$$
=
 OpenBabel11062421503D

 48 52  0  0  1  0  0  0  0  0999 V2000
  193.0420  176.4210  144.5270 C   0  0  0  0  0  0  0  0  0  0  0  0
  189.1460  172.6920  141.9660 S   0  0  0  0  0  0  0  0  0  0  0  0
  192.1530  172.9820  143.1960 C   0  0  0  0  0  2  0  0  0  0  0  0
  191.6520  172.1020  140.9020 C   0  0  0  0  0  2  0  0  0  0  0  0
  191.2700  175.8850  143.2920 C   0  0  0  0  0  0  0  0  0  0  0  0
  190.1950  175.1960  142.5920 N   0  0  0  0  0  0  0  0  0  0  0  0
  192.4610  175.3740  143.8200 C   0  0  0  0  0  0  0  0  0  0  0  0
  190.3900  173.9930  141.7500 C   0  0  1  0  0  3  0  0  0  0  0  0
  191.7640  173.3420  141.7680 C   0  0  1  0  0  3  0  0  0  0  0  0
  192.3820  177.5310  144.2640 O   0  0  0  0  0  0  0  0  0  0  0  0
  192.9960  174.0460  143.6820 N   0  0  0  0  0  0  0  0  0  0  0  0
  191.3240  177.2660  143.5190 C   0  0  0  0  0  3  0  0  0  0  0  0
  190.1880  171.6180  140.9040 C   0  0  2  0  0  3  0  0  0  0  0  0
  187.3600  176.9590  140.8910 C   0  0  0  0  0  2  0  0  0  0  0  0
  186.2440  176.9390  141.9510 C   0  0  1  0  0  3  0  0  0  0  0  0
  187.8890  175.7240  143.5540 C   0  0  2  0  0  3  0  0  0  0  0  0
  188.9550  175.9800  142.4710 C   0  0  2  0  0  3  0  0  0  0  0  0
  186.7890  176.7840  143.3880 C   0  0  0  0  0  2  0  0  0  0  0  0
  188.3540  175.8230  141.0720 C   0  0  0  0  0  2  0  0  0  0  0  0
  185.4270  179.0340  142.8440 O   0  0  0  0  0  0  0  0  0  0  0  0
  185.4330  178.2190  141.8750 C   0  0  0  0  0  0  0  0  0  0  0  0
  184.6620  178.5360  140.7050 N   0  0  0  0  0  1  0  0  0  0  0  0
  188.4600  175.8630  144.8450 O   0  0  0  0  0  0  0  0  0  0  0  0
  187.7810  176.9100  145.4850 C   0  0  0  0  0  2  0  0  0  0  0  0
  188.1480  175.6640  147.5040 O   0  0  0  0  0  0  0  0  0  0  0  0
  187.3960  176.4550  146.8660 C   0  0  0  0  0  0  0  0  0  0  0  0
  186.1450  176.8010  147.3890 O   0  0  0  0  0  0  0  0  0  0  0  0
  185.2840  177.6180  146.6760 N   0  0  0  0  0  1  0  0  0  0  0  0
  194.1730  177.5370  146.4670 C   0  0  0  0  0  1  0  0  0  0  0  0
  193.7530  175.1770  146.5130 N   0  0  0  0  0  1  0  0  0  0  0  0
  194.0840  176.2840  145.6270 C   0  0  1  0  0  0  0  0  0  0  0  0
  195.3320  176.0400  145.0350 O   0  0  0  0  0  1  0  0  0  0  0  0
  189.6350  171.3860  139.6250 O   0  0  0  0  0  0  0  0  0  0  0  0
  190.6730  171.3780  138.6890 C   0  0  0  0  0  1  0  0  0  0  0  0
  194.4450  173.8330  143.5630 C   0  0  0  0  0  2  0  0  0  0  0  0
  196.1310  173.3290  145.6440 F   0  0  0  0  0  0  0  0  0  0  0  0
  197.0940  168.8270  144.2050 C   0  0  0  0  0  1  0  0  0  0  0  0
  194.4470  171.8930  146.1330 F   0  0  0  0  0  0  0  0  0  0  0  0
  195.8180  170.5010  142.8620 C   0  0  1  0  0  3  0  0  0  0  0  0
  195.4730  172.1810  145.2330 C   0  0  0  0  0  0  0  0  0  0  0  0
  196.4920  171.0280  145.2270 C   0  0  1  0  0  3  0  0  0  0  0  0
  196.6650  170.5240  146.5110 F   0  0  0  0  0  0  0  0  0  0  0  0
  195.7330  171.9140  142.8220 O   0  0  0  0  0  0  0  0  0  0  0  0
  194.8450  172.3660  143.8250 C   0  0  2  0  0  3  0  0  0  0  0  0
  196.0480  169.9220  144.2720 C   0  0  2  0  0  3  0  0  0  0  0  0
  193.8710  169.1050  142.7130 O   0  0  0  0  0  1  0  0  0  0  0  0
  194.5970  170.0290  140.7320 O   0  0  0  0  0  0  0  0  0  0  0  0
  194.7020  169.8440  142.1120 C   0  0  0  0  0  0  0  0  0  0  0  0
  1 31  1  0  0  0  0
  3 11  1  0  0  0  0
  4 13  1  0  0  0  0
  5 12  2  0  0  0  0
  5  7  1  0  0  0  0
  6  5  1  0  0  0  0
  7  1  2  0  0  0  0
  8  9  1  0  0  0  0
  8  2  1  1  0  0  0
  8  6  1  0  0  0  0
  9  4  1  6  0  0  0
  9  3  1  0  0  0  0
 10  1  1  0  0  0  0
 11  7  1  0  0  0  0
 12 10  1  0  0  0  0
 13 33  1  6  0  0  0
 13  2  1  0  0  0  0
 14 19  1  0  0  0  0
 14 15  1  0  0  0  0
 15 21  1  1  0  0  0
 15 18  1  0  0  0  0
 16 23  1  1  0  0  0
 17 19  1  6  0  0  0
 17  6  1  0  0  0  0
 17 16  1  0  0  0  0
 18 16  1  0  0  0  0
 21 20  2  0  0  0  0
 22 21  1  0  0  0  0
 23 24  1  0  0  0  0
 24 26  1  0  0  0  0
 26 27  1  0  0  0  0
 26 25  2  0  0  0  0
 28 27  1  0  0  0  0
 31 29  1  1  0  0  0
 31 30  1  0  0  0  0
 32 31  1  0  0  0  0
 34 33  1  0  0  0  0
 35 11  1  0  0  0  0
 39 48  1  1  0  0  0
 39 45  1  0  0  0  0
 40 36  1  0  0  0  0
 40 38  1  0  0  0  0
 41 40  1  0  0  0  0
 41 42  1  1  0  0  0
 43 39  1  0  0  0  0
 43 44  1  0  0  0  0
 44 35  1  6  0  0  0
 44 40  1  0  0  0  0
 45 37  1  6  0  0  0
 45 41  1  0  0  0  0
 47 48  2  0  0  0  0
 48 46  1  0  0  0  0
M  END
>  <MODEL>
8

>  <REMARK>
 VINA RESULT:      -6.5      3.161      5.824
  Name = 
  11 active torsions:
  status: ('A' for Active; 'I' for Inactive)
    1  A    between atoms: C_1  and  C_31
    2  A    between atoms: C_3  and  O_18
    3  A    between atoms: C_3  and  C_29
    4  A    between atoms: C_9  and  C_44
    5  A    between atoms: C_11  and  O_18
    6  A    between atoms: C_12  and  N_27
    7  A    between atoms: C_15  and  C_34
    8  A    between atoms: C_15  and  N_43
    9  A    between atoms: O_17  and  C_29
   10  A    between atoms: O_19  and  C_48
   11  A    between atoms: C_25  and  C_47
                            x       y       z     vdW  Elec       q    Type
                         _______ _______ _______ _____ _____    ______ ____

>  <TORSDO>
F 11

$$$$
=
 OpenBabel11062421503D

 48 52  0  0  1  0  0  0  0  0999 V2000
  189.3130  173.3510  140.5900 C   0  0  0  0  0  0  0  0  0  0  0  0
  192.2450  176.8360  144.4500 S   0  0  0  0  0  0  0  0  0  0  0  0
  192.5580  174.7890  141.9300 C   0  0  0  0  0  2  0  0  0  0  0  0
  193.7820  174.5380  144.1030 C   0  0  0  0  0  2  0  0  0  0  0  0
  189.5910  174.4740  142.4920 C   0  0  0  0  0  0  0  0  0  0  0  0
  190.0830  175.3120  143.5760 N   0  0  0  0  0  0  0  0  0  0  0  0
  190.2830  173.9140  141.4110 C   0  0  0  0  0  0  0  0  0  0  0  0
  191.4580  175.2360  144.1240 C   0  0  1  0  0  3  0  0  0  0  0  0
  192.4570  174.3580  143.3870 C   0  0  1  0  0  3  0  0  0  0  0  0
  188.1570  173.3670  141.2220 O   0  0  0  0  0  0  0  0  0  0  0  0
  191.7020  173.9100  141.1730 N   0  0  0  0  0  0  0  0  0  0  0  0
  188.2740  174.0120  142.3690 C   0  0  0  0  0  3  0  0  0  0  0  0
  193.8000  175.9220  144.7840 C   0  0  2  0  0  3  0  0  0  0  0  0
  187.8610  176.0540  146.4990 C   0  0  0  0  0  2  0  0  0  0  0  0
  187.4650  177.5250  146.2780 C   0  0  1  0  0  3  0  0  0  0  0  0
  188.8670  177.4970  144.0900 C   0  0  2  0  0  3  0  0  0  0  0  0
  189.0260  175.9860  144.3460 C   0  0  2  0  0  3  0  0  0  0  0  0
  187.5860  177.9600  144.8010 C   0  0  0  0  0  2  0  0  0  0  0  0
  189.1850  175.7030  145.8410 C   0  0  0  0  0  2  0  0  0  0  0  0
  185.7180  178.8250  147.3320 O   0  0  0  0  0  0  0  0  0  0  0  0
  186.0380  177.7530  146.7370 C   0  0  0  0  0  0  0  0  0  0  0  0
  185.0200  176.7660  146.5050 N   0  0  0  0  0  1  0  0  0  0  0  0
  188.7290  177.7470  142.7010 O   0  0  0  0  0  0  0  0  0  0  0  0
  187.4510  178.2900  142.5050 C   0  0  0  0  0  2  0  0  0  0  0  0
  187.4010  176.7980  140.6250 O   0  0  0  0  0  0  0  0  0  0  0  0
  186.7380  177.4700  141.4650 C   0  0  0  0  0  0  0  0  0  0  0  0
  185.3460  177.5590  141.3440 O   0  0  0  0  0  0  0  0  0  0  0  0
  184.7690  178.0300  140.1770 N   0  0  0  0  0  1  0  0  0  0  0  0
  190.0510  171.6400  138.9130 C   0  0  0  0  0  1  0  0  0  0  0  0
  188.1920  173.0740  138.4300 N   0  0  0  0  0  1  0  0  0  0  0  0
  189.4770  173.0220  139.1140 C   0  0  1  0  0  0  0  0  0  0  0  0
  190.3410  173.9650  138.5370 O   0  0  0  0  0  1  0  0  0  0  0  0
  194.1640  175.9100  146.1490 O   0  0  0  0  0  0  0  0  0  0  0  0
  193.3100  176.7710  146.8430 C   0  0  0  0  0  1  0  0  0  0  0  0
  192.3510  172.7480  140.5510 C   0  0  0  0  0  2  0  0  0  0  0  0
  194.8840  172.5800  141.5400 F   0  0  0  0  0  0  0  0  0  0  0  0
  196.8050  175.1960  137.9710 C   0  0  0  0  0  1  0  0  0  0  0  0
  195.1180  171.3850  139.6290 F   0  0  0  0  0  0  0  0  0  0  0  0
  194.3550  174.8890  138.3420 C   0  0  1  0  0  3  0  0  0  0  0  0
  194.8820  172.6540  140.1570 C   0  0  0  0  0  0  0  0  0  0  0  0
  196.0140  173.6070  139.7320 C   0  0  1  0  0  3  0  0  0  0  0  0
  197.2370  172.9460  139.7400 F   0  0  0  0  0  0  0  0  0  0  0  0
  193.5320  174.5570  139.4450 O   0  0  0  0  0  0  0  0  0  0  0  0
  193.5140  173.1550  139.6210 C   0  0  2  0  0  3  0  0  0  0  0  0
  195.7320  174.1950  138.3510 C   0  0  2  0  0  3  0  0  0  0  0  0
  192.6750  175.5590  136.7650 O   0  0  0  0  0  1  0  0  0  0  0  0
  193.9910  173.7780  136.1310 O   0  0  0  0  0  0  0  0  0  0  0  0
  193.6280  174.7760  137.0380 C   0  0  0  0  0  0  0  0  0  0  0  0
  1 10  1  0  0  0  0
  1  7  2  0  0  0  0
  2 13  1  0  0  0  0
  4 13  1  0  0  0  0
  5  6  1  0  0  0  0
  6  8  1  0  0  0  0
  7  5  1  0  0  0  0
  8  2  1  6  0  0  0
  9  3  1  6  0  0  0
  9  4  1  0  0  0  0
  9  8  1  0  0  0  0
 10 12  1  0  0  0  0
 11  7  1  0  0  0  0
 11  3  1  0  0  0  0
 12  5  2  0  0  0  0
 13 33  1  1  0  0  0
 15 14  1  0  0  0  0
 15 21  1  6  0  0  0
 16 23  1  6  0  0  0
 16 17  1  0  0  0  0
 16 18  1  0  0  0  0
 17  6  1  6  0  0  0
 17 19  1  0  0  0  0
 18 15  1  0  0  0  0
 19 14  1  0  0  0  0
 21 20  2  0  0  0  0
 22 21  1  0  0  0  0
 24 23  1  0  0  0  0
 25 26  2  0  0  0  0
 26 24  1  0  0  0  0
 27 26  1  0  0  0  0
 28 27  1  0  0  0  0
 30 31  1  0  0  0  0
 31 29  1  6  0  0  0
 31  1  1  0  0  0  0
 32 31  1  0  0  0  0
 33 34  1  0  0  0  0
 35 11  1  0  0  0  0
 38 40  1  0  0  0  0
 39 48  1  6  0  0  0
 39 45  1  0  0  0  0
 39 43  1  0  0  0  0
 40 36  1  0  0  0  0
 41 42  1  6  0  0  0
 41 40  1  0  0  0  0
 43 44  1  0  0  0  0
 44 40  1  0  0  0  0
 44 35  1  1  0  0  0
 45 37  1  1  0  0  0
 45 41  1  0  0  0  0
 46 48  1  0  0  0  0
 47 48  2  0  0  0  0
M  END
>  <MODEL>
9

>  <REMARK>
 VINA RESULT:      -6.4      1.537      2.279
  Name = 
  11 active torsions:
  status: ('A' for Active; 'I' for Inactive)
    1  A    between atoms: C_1  and  C_31
    2  A    between atoms: C_3  and  O_18
    3  A    between atoms: C_3  and  C_29
    4  A    between atoms: C_9  and  C_44
    5  A    between atoms: C_11  and  O_18
    6  A    between atoms: C_12  and  N_27
    7  A    between atoms: C_15  and  C_34
    8  A    between atoms: C_15  and  N_43
    9  A    between atoms: O_17  and  C_29
   10  A    between atoms: O_19  and  C_48
   11  A    between atoms: C_25  and  C_47
                            x       y       z     vdW  Elec       q    Type
                         _______ _______ _______ _____ _____    ______ ____

>  <TORSDO>
F 11

$$$$
