=
 OpenBabel11062423113D

 28 29  0  0  1  0  0  0  0  0999 V2000
  188.9170  175.7170  145.0700 C   0  0  2  0  0  3  0  0  0  0  0  0
  186.9920  177.1880  145.3520 C   0  0  0  0  0  0  0  0  0  0  0  0
  186.1080  177.9790  144.8000 C   0  0  0  0  0  0  0  0  0  0  0  0
  187.8750  176.3980  145.8990 C   0  0  0  0  0  3  0  0  0  0  0  0
  184.4890  177.6120  146.7740 C   0  0  0  0  0  1  0  0  0  0  0  0
  184.8450  178.2940  145.4980 C   0  0  0  0  0  0  0  0  0  0  0  0
  184.0500  179.1500  145.0240 O   0  0  0  0  0  0  0  0  0  0  0  0
  186.3930  178.5480  143.4430 C   0  0  0  0  0  2  0  0  0  0  0  0
  183.6900  178.1420  141.7960 N   0  0  0  0  0  1  0  0  0  0  0  0
  187.4430  177.0260  141.4040 S   0  0  0  0  0  0  0  0  0  0  0  0
  185.2300  177.6650  140.0560 N   0  0  0  0  0  2  0  0  0  0  0  0
  185.0670  178.2800  141.3600 C   0  0  2  0  0  3  0  0  0  0  0  0
  185.9880  177.5820  142.3360 C   0  0  2  0  0  3  0  0  0  0  0  0
  186.6620  177.5440  139.8490 C   0  0  0  0  0  2  0  0  0  0  0  0
  189.6630  174.6540  145.8790 C   0  0  0  0  0  2  0  0  0  0  0  0
  189.7710  175.0430  147.3460 C   0  0  0  0  0  2  0  0  0  0  0  0
  191.1210  175.5940  147.6520 C   0  0  0  0  0  0  0  0  0  0  0  0
  191.2400  176.7690  148.3830 O   0  0  0  0  0  1  0  0  0  0  0  0
  192.1530  175.0130  147.2240 O   0  0  0  0  0  0  0  0  0  0  0  0
  189.8690  176.7340  144.4340 C   0  0  0  0  0  2  0  0  0  0  0  0
  191.9660  175.0850  142.0470 N   0  0  0  0  0  0  0  0  0  0  0  0
  192.2640  176.1240  144.0120 N   0  0  0  0  0  0  0  0  0  0  0  0
  190.9690  176.0950  143.6440 C   0  0  0  0  0  0  0  0  0  0  0  0
  190.7770  175.4810  142.4640 N   0  0  0  0  0  2  0  0  0  0  0  0
  192.8460  175.4700  142.9890 C   0  0  0  0  0  0  0  0  0  0  0  0
  194.3150  175.2560  142.8790 C   0  0  0  0  0  2  0  0  0  0  0  0
  195.0350  176.0940  143.9160 C   0  0  0  0  0  2  0  0  0  0  0  0
  196.2350  176.6620  143.3300 N   0  0  0  0  0  1  0  0  0  0  0  0
  1 20  1  1  0  0  0
  1 15  1  0  0  0  0
  1  4  1  0  0  0  0
  2  4  2  0  0  0  0
  3  2  2  0  0  0  0
  3  6  1  0  0  0  0
  6  5  1  0  0  0  0
  7  6  2  0  0  0  0
  8  3  1  0  0  0  0
 10 13  1  0  0  0  0
 11 12  1  0  0  0  0
 12  9  1  1  0  0  0
 12 13  1  0  0  0  0
 13  8  1  1  0  0  0
 14 11  1  0  0  0  0
 14 10  1  0  0  0  0
 15 16  1  0  0  0  0
 16 17  1  0  0  0  0
 17 18  1  0  0  0  0
 19 17  2  0  0  0  0
 21 24  1  0  0  0  0
 21 25  2  0  0  0  0
 23 22  2  0  0  0  0
 23 20  1  0  0  0  0
 24 23  1  0  0  0  0
 25 22  1  0  0  0  0
 26 25  1  0  0  0  0
 26 27  1  0  0  0  0
 28 27  1  0  0  0  0
M  END
>  <MODEL>
1

>  <REMARK>
 VINA RESULT:      -6.3      0.000      0.000
  Name = 
  11 active torsions:
  status: ('A' for Active; 'I' for Inactive)
    1  A    between atoms: C_1  and  C_26
    2  A    between atoms: C_2  and  C_14
    3  A    between atoms: C_2  and  C_17
    4  A    between atoms: C_2  and  C_20
    5  A    between atoms: C_10  and  C_12
    6  A    between atoms: C_12  and  C_24
    7  A    between atoms: C_13  and  C_15
    8  A    between atoms: C_15  and  C_28
    9  A    between atoms: C_16  and  C_20
   10  A    between atoms: C_17  and  C_26
   11  A    between atoms: C_22  and  C_24
                            x       y       z     vdW  Elec       q    Type
                         _______ _______ _______ _____ _____    ______ ____

>  <TORSDO>
F 11

$$$$
=
 OpenBabel11062423113D

 28 29  0  0  1  0  0  0  0  0999 V2000
  190.2650  176.3920  146.3070 C   0  0  2  0  0  3  0  0  0  0  0  0
  188.0440  177.3900  146.4420 C   0  0  0  0  0  0  0  0  0  0  0  0
  186.8170  177.4350  145.9900 C   0  0  0  0  0  0  0  0  0  0  0  0
  189.2690  177.3420  146.8910 C   0  0  0  0  0  3  0  0  0  0  0  0
  184.3550  178.1550  146.2700 C   0  0  0  0  0  1  0  0  0  0  0  0
  185.7360  178.0170  146.8130 C   0  0  0  0  0  0  0  0  0  0  0  0
  185.9680  178.4040  147.9900 O   0  0  0  0  0  0  0  0  0  0  0  0
  186.5250  176.8750  144.6320 C   0  0  0  0  0  2  0  0  0  0  0  0
  189.1890  177.5310  143.0020 N   0  0  0  0  0  1  0  0  0  0  0  0
  185.3520  178.3100  142.5950 S   0  0  0  0  0  0  0  0  0  0  0  0
  187.6210  177.8790  141.2560 N   0  0  0  0  0  2  0  0  0  0  0  0
  187.8310  177.2730  142.5580 C   0  0  2  0  0  3  0  0  0  0  0  0
  186.8470  177.8800  143.5320 C   0  0  2  0  0  3  0  0  0  0  0  0
  186.1840  177.8730  141.0420 C   0  0  0  0  0  2  0  0  0  0  0  0
  189.7240  174.9600  146.2940 C   0  0  0  0  0  2  0  0  0  0  0  0
  189.6400  174.4070  144.8780 C   0  0  0  0  0  2  0  0  0  0  0  0
  190.3550  173.1040  144.7740 C   0  0  0  0  0  0  0  0  0  0  0  0
  191.7430  173.0710  144.7870 O   0  0  0  0  0  1  0  0  0  0  0  0
  189.7030  172.0350  144.6450 O   0  0  0  0  0  0  0  0  0  0  0  0
  191.6130  176.4930  147.0270 C   0  0  0  0  0  2  0  0  0  0  0  0
  194.6260  175.3010  145.5060 N   0  0  0  0  0  0  0  0  0  0  0  0
  192.8480  176.4980  144.8450 N   0  0  0  0  0  0  0  0  0  0  0  0
  192.7760  176.1560  146.1460 C   0  0  0  0  0  0  0  0  0  0  0  0
  193.8330  175.4320  146.5540 N   0  0  0  0  0  2  0  0  0  0  0  0
  194.0280  175.9520  144.4920 C   0  0  0  0  0  0  0  0  0  0  0  0
  194.5770  176.0050  143.1090 C   0  0  0  0  0  2  0  0  0  0  0  0
  196.0600  175.6930  143.1340 C   0  0  0  0  0  2  0  0  0  0  0  0
  196.8120  176.9320  143.2180 N   0  0  0  0  0  1  0  0  0  0  0  0
  1 15  1  1  0  0  0
  1  4  1  0  0  0  0
  1 20  1  0  0  0  0
  2  4  2  0  0  0  0
  3  2  2  0  0  0  0
  3  6  1  0  0  0  0
  5  6  1  0  0  0  0
  6  7  2  0  0  0  0
  8  3  1  0  0  0  0
 10 13  1  0  0  0  0
 11 12  1  0  0  0  0
 12  9  1  1  0  0  0
 12 13  1  0  0  0  0
 13  8  1  1  0  0  0
 14 11  1  0  0  0  0
 14 10  1  0  0  0  0
 16 15  1  0  0  0  0
 17 18  1  0  0  0  0
 17 16  1  0  0  0  0
 19 17  2  0  0  0  0
 21 24  1  0  0  0  0
 22 23  2  0  0  0  0
 23 24  1  0  0  0  0
 23 20  1  0  0  0  0
 25 22  1  0  0  0  0
 25 21  2  0  0  0  0
 26 27  1  0  0  0  0
 26 25  1  0  0  0  0
 27 28  1  0  0  0  0
M  END
>  <MODEL>
2

>  <REMARK>
 VINA RESULT:      -6.2      2.152      2.904
  Name = 
  11 active torsions:
  status: ('A' for Active; 'I' for Inactive)
    1  A    between atoms: C_1  and  C_26
    2  A    between atoms: C_2  and  C_14
    3  A    between atoms: C_2  and  C_17
    4  A    between atoms: C_2  and  C_20
    5  A    between atoms: C_10  and  C_12
    6  A    between atoms: C_12  and  C_24
    7  A    between atoms: C_13  and  C_15
    8  A    between atoms: C_15  and  C_28
    9  A    between atoms: C_16  and  C_20
   10  A    between atoms: C_17  and  C_26
   11  A    between atoms: C_22  and  C_24
                            x       y       z     vdW  Elec       q    Type
                         _______ _______ _______ _____ _____    ______ ____

>  <TORSDO>
F 11

$$$$
=
 OpenBabel11062423113D

 28 29  0  0  1  0  0  0  0  0999 V2000
  188.5710  175.8320  146.1040 C   0  0  2  0  0  3  0  0  0  0  0  0
  190.3010  174.2890  145.3470 C   0  0  0  0  0  0  0  0  0  0  0  0
  191.1740  173.9620  144.4280 C   0  0  0  0  0  0  0  0  0  0  0  0
  189.4310  174.6190  146.2620 C   0  0  0  0  0  3  0  0  0  0  0  0
  193.4510  173.5490  145.5690 C   0  0  0  0  0  1  0  0  0  0  0  0
  192.3020  173.0650  144.7520 C   0  0  0  0  0  0  0  0  0  0  0  0
  192.3080  171.8730  144.3420 O   0  0  0  0  0  0  0  0  0  0  0  0
  191.0160  174.5230  143.0480 C   0  0  0  0  0  2  0  0  0  0  0  0
  187.9060  174.9930  142.5060 N   0  0  0  0  0  1  0  0  0  0  0  0
  190.7620  172.8000  140.9150 S   0  0  0  0  0  0  0  0  0  0  0  0
  188.4980  174.1110  140.3850 N   0  0  0  0  0  2  0  0  0  0  0  0
  189.0070  174.7160  141.6010 C   0  0  2  0  0  3  0  0  0  0  0  0
  189.9750  173.7510  142.2470 C   0  0  2  0  0  3  0  0  0  0  0  0
  189.6540  173.5650  139.6970 C   0  0  0  0  0  2  0  0  0  0  0  0
  189.4180  177.0840  145.8630 C   0  0  0  0  0  2  0  0  0  0  0  0
  189.0080  177.7980  144.5830 C   0  0  0  0  0  2  0  0  0  0  0  0
  190.1550  177.8890  143.6350 C   0  0  0  0  0  0  0  0  0  0  0  0
  191.4560  177.8770  144.1190 O   0  0  0  0  0  1  0  0  0  0  0  0
  189.9450  178.0060  142.3990 O   0  0  0  0  0  0  0  0  0  0  0  0
  187.6230  175.9970  147.2950 C   0  0  0  0  0  2  0  0  0  0  0  0
  185.6940  179.0110  147.3620 N   0  0  0  0  0  0  0  0  0  0  0  0
  185.6640  177.1010  146.1870 N   0  0  0  0  0  0  0  0  0  0  0  0
  186.6410  177.1120  147.1140 C   0  0  0  0  0  0  0  0  0  0  0  0
  186.6740  178.2550  147.8220 N   0  0  0  0  0  2  0  0  0  0  0  0
  185.0920  178.3040  146.3880 C   0  0  0  0  0  0  0  0  0  0  0  0
  183.9580  178.8210  145.5750 C   0  0  0  0  0  2  0  0  0  0  0  0
  184.3860  178.9580  144.1280 C   0  0  0  0  0  2  0  0  0  0  0  0
  185.4280  179.9630  144.0250 N   0  0  0  0  0  1  0  0  0  0  0  0
  1 15  1  1  0  0  0
  1  4  1  0  0  0  0
  1 20  1  0  0  0  0
  2  4  2  0  0  0  0
  3  6  1  0  0  0  0
  3  2  2  0  0  0  0
  6  5  1  0  0  0  0
  7  6  2  0  0  0  0
  8  3  1  0  0  0  0
 10 13  1  0  0  0  0
 11 12  1  0  0  0  0
 12 13  1  0  0  0  0
 12  9  1  1  0  0  0
 13  8  1  6  0  0  0
 14 11  1  0  0  0  0
 14 10  1  0  0  0  0
 16 15  1  0  0  0  0
 17 18  1  0  0  0  0
 17 16  1  0  0  0  0
 19 17  2  0  0  0  0
 21 24  1  0  0  0  0
 22 25  1  0  0  0  0
 22 23  2  0  0  0  0
 23 20  1  0  0  0  0
 23 24  1  0  0  0  0
 25 21  2  0  0  0  0
 26 25  1  0  0  0  0
 27 26  1  0  0  0  0
 28 27  1  0  0  0  0
M  END
>  <MODEL>
3

>  <REMARK>
 VINA RESULT:      -6.1      3.526      6.975
  Name = 
  11 active torsions:
  status: ('A' for Active; 'I' for Inactive)
    1  A    between atoms: C_1  and  C_26
    2  A    between atoms: C_2  and  C_14
    3  A    between atoms: C_2  and  C_17
    4  A    between atoms: C_2  and  C_20
    5  A    between atoms: C_10  and  C_12
    6  A    between atoms: C_12  and  C_24
    7  A    between atoms: C_13  and  C_15
    8  A    between atoms: C_15  and  C_28
    9  A    between atoms: C_16  and  C_20
   10  A    between atoms: C_17  and  C_26
   11  A    between atoms: C_22  and  C_24
                            x       y       z     vdW  Elec       q    Type
                         _______ _______ _______ _____ _____    ______ ____

>  <TORSDO>
F 11

$$$$
=
 OpenBabel11062423113D

 28 29  0  0  1  0  0  0  0  0999 V2000
  189.1450  176.6490  146.8260 C   0  0  2  0  0  3  0  0  0  0  0  0
  189.0500  176.8900  144.4010 C   0  0  0  0  0  0  0  0  0  0  0  0
  188.8050  176.3410  143.2390 C   0  0  0  0  0  0  0  0  0  0  0  0
  189.2920  177.4350  145.5620 C   0  0  0  0  0  3  0  0  0  0  0  0
  187.5480  176.7300  141.0200 C   0  0  0  0  0  1  0  0  0  0  0  0
  188.5170  177.1810  142.0590 C   0  0  0  0  0  0  0  0  0  0  0  0
  189.0860  178.2970  141.9150 O   0  0  0  0  0  0  0  0  0  0  0  0
  188.8110  174.8460  143.1290 C   0  0  0  0  0  2  0  0  0  0  0  0
  189.6420  172.4010  145.0040 N   0  0  0  0  0  1  0  0  0  0  0  0
  191.4170  174.6100  142.2730 S   0  0  0  0  0  0  0  0  0  0  0  0
  191.3460  172.1770  143.3680 N   0  0  0  0  0  2  0  0  0  0  0  0
  190.0470  172.7580  143.6570 C   0  0  2  0  0  3  0  0  0  0  0  0
  190.1580  174.2620  143.5340 C   0  0  2  0  0  3  0  0  0  0  0  0
  191.8230  172.8440  142.1690 C   0  0  0  0  0  2  0  0  0  0  0  0
  190.2720  175.6240  146.9770 C   0  0  0  0  0  2  0  0  0  0  0  0
  191.5140  176.2470  147.5950 C   0  0  0  0  0  2  0  0  0  0  0  0
  192.7060  176.0290  146.7280 C   0  0  0  0  0  0  0  0  0  0  0  0
  193.8230  176.8420  146.8670 O   0  0  0  0  0  1  0  0  0  0  0  0
  192.6920  175.1270  145.8490 O   0  0  0  0  0  0  0  0  0  0  0  0
  187.7600  176.0020  146.9170 C   0  0  0  0  0  2  0  0  0  0  0  0
  185.4100  178.6200  147.5770 N   0  0  0  0  0  0  0  0  0  0  0  0
  185.7700  177.1550  145.9180 N   0  0  0  0  0  0  0  0  0  0  0  0
  186.6450  177.0010  146.9310 C   0  0  0  0  0  0  0  0  0  0  0  0
  186.4440  177.8790  147.9300 N   0  0  0  0  0  2  0  0  0  0  0  0
  185.0110  178.1700  146.3740 C   0  0  0  0  0  0  0  0  0  0  0  0
  183.8930  178.7740  145.5980 C   0  0  0  0  0  2  0  0  0  0  0  0
  184.4120  179.2970  144.2740 C   0  0  0  0  0  2  0  0  0  0  0  0
  183.8760  178.4910  143.1930 N   0  0  0  0  0  1  0  0  0  0  0  0
  1  4  1  6  0  0  0
  1 20  1  0  0  0  0
  1 15  1  0  0  0  0
  2  4  2  0  0  0  0
  3  2  2  0  0  0  0
  5  6  1  0  0  0  0
  6  3  1  0  0  0  0
  7  6  2  0  0  0  0
  8  3  1  0  0  0  0
 10 13  1  0  0  0  0
 11 12  1  0  0  0  0
 12  9  1  1  0  0  0
 13  8  1  6  0  0  0
 13 12  1  0  0  0  0
 14 10  1  0  0  0  0
 14 11  1  0  0  0  0
 15 16  1  0  0  0  0
 17 18  1  0  0  0  0
 17 16  1  0  0  0  0
 19 17  2  0  0  0  0
 20 23  1  0  0  0  0
 21 24  1  0  0  0  0
 22 25  1  0  0  0  0
 22 23  2  0  0  0  0
 23 24  1  0  0  0  0
 25 21  2  0  0  0  0
 26 25  1  0  0  0  0
 27 26  1  0  0  0  0
 28 27  1  0  0  0  0
M  END
>  <MODEL>
4

>  <REMARK>
 VINA RESULT:      -6.1      3.032      6.581
  Name = 
  11 active torsions:
  status: ('A' for Active; 'I' for Inactive)
    1  A    between atoms: C_1  and  C_26
    2  A    between atoms: C_2  and  C_14
    3  A    between atoms: C_2  and  C_17
    4  A    between atoms: C_2  and  C_20
    5  A    between atoms: C_10  and  C_12
    6  A    between atoms: C_12  and  C_24
    7  A    between atoms: C_13  and  C_15
    8  A    between atoms: C_15  and  C_28
    9  A    between atoms: C_16  and  C_20
   10  A    between atoms: C_17  and  C_26
   11  A    between atoms: C_22  and  C_24
                            x       y       z     vdW  Elec       q    Type
                         _______ _______ _______ _____ _____    ______ ____

>  <TORSDO>
F 11

$$$$
=
 OpenBabel11062423113D

 28 29  0  0  1  0  0  0  0  0999 V2000
  190.0920  175.6980  146.0100 C   0  0  2  0  0  3  0  0  0  0  0  0
  187.9540  176.8380  146.2930 C   0  0  0  0  0  0  0  0  0  0  0  0
  186.9600  177.4860  145.7440 C   0  0  0  0  0  0  0  0  0  0  0  0
  188.9470  176.1890  146.8380 C   0  0  0  0  0  3  0  0  0  0  0  0
  185.2300  178.8550  147.0810 C   0  0  0  0  0  1  0  0  0  0  0  0
  185.6560  177.5830  146.4320 C   0  0  0  0  0  0  0  0  0  0  0  0
  184.8830  176.5890  146.4790 O   0  0  0  0  0  0  0  0  0  0  0  0
  187.1620  178.1190  144.4000 C   0  0  0  0  0  2  0  0  0  0  0  0
  184.1730  178.5210  143.3570 N   0  0  0  0  0  1  0  0  0  0  0  0
  187.4120  176.7080  142.0490 S   0  0  0  0  0  0  0  0  0  0  0  0
  185.1930  177.9780  141.2850 N   0  0  0  0  0  2  0  0  0  0  0  0
  185.4340  178.4260  142.6440 C   0  0  2  0  0  3  0  0  0  0  0  0
  186.3370  177.4230  143.3250 C   0  0  2  0  0  3  0  0  0  0  0  0
  186.4890  177.5890  140.7580 C   0  0  0  0  0  2  0  0  0  0  0  0
  189.6050  174.8130  144.8600 C   0  0  0  0  0  2  0  0  0  0  0  0
  189.7890  173.3360  145.1760 C   0  0  0  0  0  2  0  0  0  0  0  0
  190.3010  172.5980  143.9870 C   0  0  0  0  0  0  0  0  0  0  0  0
  191.5540  172.9010  143.4700 O   0  0  0  0  0  1  0  0  0  0  0  0
  189.5890  171.7200  143.4330 O   0  0  0  0  0  0  0  0  0  0  0  0
  191.1400  174.9950  146.8770 C   0  0  0  0  0  2  0  0  0  0  0  0
  194.3320  176.5820  146.5580 N   0  0  0  0  0  0  0  0  0  0  0  0
  193.4130  174.6520  145.8780 N   0  0  0  0  0  0  0  0  0  0  0  0
  192.5420  175.4170  146.5630 C   0  0  0  0  0  0  0  0  0  0  0  0
  193.0820  176.5740  146.9830 N   0  0  0  0  0  2  0  0  0  0  0  0
  194.5150  175.4280  145.8900 C   0  0  0  0  0  0  0  0  0  0  0  0
  195.8140  175.0210  145.2890 C   0  0  0  0  0  2  0  0  0  0  0  0
  195.8080  175.3230  143.8040 C   0  0  0  0  0  2  0  0  0  0  0  0
  196.6020  176.5110  143.5490 N   0  0  0  0  0  1  0  0  0  0  0  0
  1 15  1  6  0  0  0
  1  4  1  0  0  0  0
  1 20  1  0  0  0  0
  2  4  2  0  0  0  0
  3  2  2  0  0  0  0
  3  6  1  0  0  0  0
  6  7  2  0  0  0  0
  6  5  1  0  0  0  0
  8  3  1  0  0  0  0
 10 13  1  0  0  0  0
 11 12  1  0  0  0  0
 12 13  1  0  0  0  0
 12  9  1  1  0  0  0
 13  8  1  1  0  0  0
 14 11  1  0  0  0  0
 14 10  1  0  0  0  0
 15 16  1  0  0  0  0
 17 16  1  0  0  0  0
 18 17  1  0  0  0  0
 19 17  2  0  0  0  0
 21 24  1  0  0  0  0
 22 25  1  0  0  0  0
 22 23  2  0  0  0  0
 23 20  1  0  0  0  0
 23 24  1  0  0  0  0
 25 21  2  0  0  0  0
 26 25  1  0  0  0  0
 27 26  1  0  0  0  0
 28 27  1  0  0  0  0
M  END
>  <MODEL>
5

>  <REMARK>
 VINA RESULT:      -6.0      2.344      2.926
  Name = 
  11 active torsions:
  status: ('A' for Active; 'I' for Inactive)
    1  A    between atoms: C_1  and  C_26
    2  A    between atoms: C_2  and  C_14
    3  A    between atoms: C_2  and  C_17
    4  A    between atoms: C_2  and  C_20
    5  A    between atoms: C_10  and  C_12
    6  A    between atoms: C_12  and  C_24
    7  A    between atoms: C_13  and  C_15
    8  A    between atoms: C_15  and  C_28
    9  A    between atoms: C_16  and  C_20
   10  A    between atoms: C_17  and  C_26
   11  A    between atoms: C_22  and  C_24
                            x       y       z     vdW  Elec       q    Type
                         _______ _______ _______ _____ _____    ______ ____

>  <TORSDO>
F 11

$$$$
=
 OpenBabel11062423113D

 28 29  0  0  1  0  0  0  0  0999 V2000
  190.0030  175.2310  146.1960 C   0  0  2  0  0  3  0  0  0  0  0  0
  187.9750  176.5630  146.4460 C   0  0  0  0  0  0  0  0  0  0  0  0
  187.0500  177.2930  145.8790 C   0  0  0  0  0  0  0  0  0  0  0  0
  188.9000  175.8320  147.0070 C   0  0  0  0  0  3  0  0  0  0  0  0
  185.4690  178.7990  147.2540 C   0  0  0  0  0  1  0  0  0  0  0  0
  185.7540  177.5150  146.5530 C   0  0  0  0  0  0  0  0  0  0  0  0
  184.8660  176.6200  146.5420 O   0  0  0  0  0  0  0  0  0  0  0  0
  187.3220  177.8890  144.5320 C   0  0  0  0  0  2  0  0  0  0  0  0
  184.5250  179.1980  143.7240 N   0  0  0  0  0  1  0  0  0  0  0  0
  186.9620  176.5290  142.1650 S   0  0  0  0  0  0  0  0  0  0  0  0
  185.1790  178.4270  141.5780 N   0  0  0  0  0  2  0  0  0  0  0  0
  185.6430  178.7470  142.9150 C   0  0  2  0  0  3  0  0  0  0  0  0
  186.2480  177.5010  143.5220 C   0  0  2  0  0  3  0  0  0  0  0  0
  186.2550  177.6790  140.9510 C   0  0  0  0  0  2  0  0  0  0  0  0
  191.2850  175.0920  147.0200 C   0  0  0  0  0  2  0  0  0  0  0  0
  192.0480  176.4070  147.0920 C   0  0  0  0  0  2  0  0  0  0  0  0
  193.4660  176.2220  146.6720 C   0  0  0  0  0  0  0  0  0  0  0  0
  194.3640  177.2750  146.7830 O   0  0  0  0  0  1  0  0  0  0  0  0
  193.8440  175.1220  146.1890 O   0  0  0  0  0  0  0  0  0  0  0  0
  190.2300  176.0180  144.9020 C   0  0  0  0  0  2  0  0  0  0  0  0
  190.3820  174.4960  141.6660 N   0  0  0  0  0  0  0  0  0  0  0  0
  189.4340  174.0050  143.6380 N   0  0  0  0  0  0  0  0  0  0  0  0
  190.0980  175.1760  143.6720 C   0  0  0  0  0  0  0  0  0  0  0  0
  190.6780  175.4790  142.4970 N   0  0  0  0  0  2  0  0  0  0  0  0
  189.6300  173.6240  142.3610 C   0  0  0  0  0  0  0  0  0  0  0  0
  189.1240  172.3420  141.7980 C   0  0  0  0  0  2  0  0  0  0  0  0
  190.2900  171.4400  141.4480 C   0  0  0  0  0  2  0  0  0  0  0  0
  190.9640  171.0270  142.6660 N   0  0  0  0  0  1  0  0  0  0  0  0
  1 20  1  6  0  0  0
  1  4  1  0  0  0  0
  1 15  1  0  0  0  0
  2  4  2  0  0  0  0
  3  2  2  0  0  0  0
  3  6  1  0  0  0  0
  6  5  1  0  0  0  0
  7  6  2  0  0  0  0
  8  3  1  0  0  0  0
 10 13  1  0  0  0  0
 11 12  1  0  0  0  0
 12 13  1  0  0  0  0
 12  9  1  1  0  0  0
 13  8  1  1  0  0  0
 14 11  1  0  0  0  0
 14 10  1  0  0  0  0
 15 16  1  0  0  0  0
 17 18  1  0  0  0  0
 17 16  1  0  0  0  0
 19 17  2  0  0  0  0
 21 25  2  0  0  0  0
 21 24  1  0  0  0  0
 22 23  2  0  0  0  0
 23 20  1  0  0  0  0
 24 23  1  0  0  0  0
 25 22  1  0  0  0  0
 26 25  1  0  0  0  0
 27 26  1  0  0  0  0
 27 28  1  0  0  0  0
M  END
>  <MODEL>
6

>  <REMARK>
 VINA RESULT:      -6.0      2.208      3.026
  Name = 
  11 active torsions:
  status: ('A' for Active; 'I' for Inactive)
    1  A    between atoms: C_1  and  C_26
    2  A    between atoms: C_2  and  C_14
    3  A    between atoms: C_2  and  C_17
    4  A    between atoms: C_2  and  C_20
    5  A    between atoms: C_10  and  C_12
    6  A    between atoms: C_12  and  C_24
    7  A    between atoms: C_13  and  C_15
    8  A    between atoms: C_15  and  C_28
    9  A    between atoms: C_16  and  C_20
   10  A    between atoms: C_17  and  C_26
   11  A    between atoms: C_22  and  C_24
                            x       y       z     vdW  Elec       q    Type
                         _______ _______ _______ _____ _____    ______ ____

>  <TORSDO>
F 11

$$$$
=
 OpenBabel11062423113D

 28 29  0  0  1  0  0  0  0  0999 V2000
  189.9360  176.9230  143.9990 C   0  0  2  0  0  3  0  0  0  0  0  0
  187.7430  177.2910  145.0020 C   0  0  0  0  0  0  0  0  0  0  0  0
  186.4520  177.0880  144.9540 C   0  0  0  0  0  0  0  0  0  0  0  0
  189.0330  177.4890  145.0470 C   0  0  0  0  0  3  0  0  0  0  0  0
  186.1830  176.9540  147.5160 C   0  0  0  0  0  1  0  0  0  0  0  0
  185.6230  177.2460  146.1660 C   0  0  0  0  0  0  0  0  0  0  0  0
  184.4260  177.6320  146.0760 O   0  0  0  0  0  0  0  0  0  0  0  0
  185.8310  176.6820  143.6520 C   0  0  0  0  0  2  0  0  0  0  0  0
  187.6280  177.7810  141.2540 N   0  0  0  0  0  1  0  0  0  0  0  0
  183.9420  178.3330  142.5180 S   0  0  0  0  0  0  0  0  0  0  0  0
  185.4950  178.2870  140.3480 N   0  0  0  0  0  2  0  0  0  0  0  0
  186.2070  177.4990  141.3370 C   0  0  2  0  0  3  0  0  0  0  0  0
  185.6870  177.8700  142.7080 C   0  0  2  0  0  3  0  0  0  0  0  0
  184.0910  178.2110  140.7130 C   0  0  0  0  0  2  0  0  0  0  0  0
  189.8600  175.3940  143.9680 C   0  0  0  0  0  2  0  0  0  0  0  0
  189.2720  174.8900  142.6580 C   0  0  0  0  0  2  0  0  0  0  0  0
  188.9880  173.4300  142.7310 C   0  0  0  0  0  0  0  0  0  0  0  0
  189.7240  172.6220  143.5880 O   0  0  0  0  0  1  0  0  0  0  0  0
  188.1010  172.9210  141.9960 O   0  0  0  0  0  0  0  0  0  0  0  0
  191.3710  177.4270  144.1750 C   0  0  0  0  0  2  0  0  0  0  0  0
  193.0330  175.4590  146.6600 N   0  0  0  0  0  0  0  0  0  0  0  0
  193.0830  175.6120  144.4230 N   0  0  0  0  0  0  0  0  0  0  0  0
  192.2270  176.4940  144.9740 C   0  0  0  0  0  0  0  0  0  0  0  0
  192.1820  176.4080  146.3160 N   0  0  0  0  0  2  0  0  0  0  0  0
  193.5710  174.9960  145.5180 C   0  0  0  0  0  0  0  0  0  0  0  0
  194.5520  173.8770  145.4620 C   0  0  0  0  0  2  0  0  0  0  0  0
  195.9410  174.3970  145.7680 C   0  0  0  0  0  2  0  0  0  0  0  0
  196.4920  175.0280  144.5820 N   0  0  0  0  0  1  0  0  0  0  0  0
  1 15  1  1  0  0  0
  1 20  1  0  0  0  0
  1  4  1  0  0  0  0
  2  4  2  0  0  0  0
  3  2  2  0  0  0  0
  3  6  1  0  0  0  0
  6  5  1  0  0  0  0
  7  6  2  0  0  0  0
  8  3  1  0  0  0  0
 10 13  1  0  0  0  0
 11 14  1  0  0  0  0
 11 12  1  0  0  0  0
 12  9  1  1  0  0  0
 12 13  1  0  0  0  0
 13  8  1  1  0  0  0
 14 10  1  0  0  0  0
 16 17  1  0  0  0  0
 16 15  1  0  0  0  0
 17 18  1  0  0  0  0
 19 17  2  0  0  0  0
 20 23  1  0  0  0  0
 22 23  2  0  0  0  0
 22 25  1  0  0  0  0
 23 24  1  0  0  0  0
 24 21  1  0  0  0  0
 25 21  2  0  0  0  0
 26 25  1  0  0  0  0
 26 27  1  0  0  0  0
 28 27  1  0  0  0  0
M  END
>  <MODEL>
7

>  <REMARK>
 VINA RESULT:      -5.9      2.510      3.213
  Name = 
  11 active torsions:
  status: ('A' for Active; 'I' for Inactive)
    1  A    between atoms: C_1  and  C_26
    2  A    between atoms: C_2  and  C_14
    3  A    between atoms: C_2  and  C_17
    4  A    between atoms: C_2  and  C_20
    5  A    between atoms: C_10  and  C_12
    6  A    between atoms: C_12  and  C_24
    7  A    between atoms: C_13  and  C_15
    8  A    between atoms: C_15  and  C_28
    9  A    between atoms: C_16  and  C_20
   10  A    between atoms: C_17  and  C_26
   11  A    between atoms: C_22  and  C_24
                            x       y       z     vdW  Elec       q    Type
                         _______ _______ _______ _____ _____    ______ ____

>  <TORSDO>
F 11

$$$$
=
 OpenBabel11062423113D

 28 29  0  0  1  0  0  0  0  0999 V2000
  189.6830  175.5820  145.3220 C   0  0  2  0  0  3  0  0  0  0  0  0
  187.5990  176.8260  145.5600 C   0  0  0  0  0  0  0  0  0  0  0  0
  186.3870  177.0550  145.1250 C   0  0  0  0  0  0  0  0  0  0  0  0
  188.8090  176.5940  145.9920 C   0  0  0  0  0  3  0  0  0  0  0  0
  185.4420  179.1540  146.2920 C   0  0  0  0  0  1  0  0  0  0  0  0
  185.3840  177.6930  146.0030 C   0  0  0  0  0  0  0  0  0  0  0  0
  184.4610  177.0080  146.5210 O   0  0  0  0  0  0  0  0  0  0  0  0
  186.0300  176.6500  143.7280 C   0  0  0  0  0  2  0  0  0  0  0  0
  187.7770  177.8710  141.3520 N   0  0  0  0  0  1  0  0  0  0  0  0
  184.0890  178.2870  142.6640 S   0  0  0  0  0  0  0  0  0  0  0  0
  185.6230  178.3510  140.4800 N   0  0  0  0  0  2  0  0  0  0  0  0
  186.3640  177.5500  141.4370 C   0  0  2  0  0  3  0  0  0  0  0  0
  185.8470  177.8630  142.8240 C   0  0  2  0  0  3  0  0  0  0  0  0
  184.2250  178.2270  140.8540 C   0  0  0  0  0  2  0  0  0  0  0  0
  190.6930  174.9830  146.3050 C   0  0  0  0  0  2  0  0  0  0  0  0
  192.1130  175.4260  145.9860 C   0  0  0  0  0  2  0  0  0  0  0  0
  192.6110  176.3900  147.0080 C   0  0  0  0  0  0  0  0  0  0  0  0
  191.7690  176.8160  148.0260 O   0  0  0  0  0  1  0  0  0  0  0  0
  193.7840  176.8400  146.9330 O   0  0  0  0  0  0  0  0  0  0  0  0
  190.3640  176.1730  144.0840 C   0  0  0  0  0  2  0  0  0  0  0  0
  190.7680  174.0680  141.2170 N   0  0  0  0  0  0  0  0  0  0  0  0
  189.0390  174.9050  142.3740 N   0  0  0  0  0  0  0  0  0  0  0  0
  190.2250  175.3100  142.8680 C   0  0  0  0  0  0  0  0  0  0  0  0
  191.2710  174.8090  142.1880 N   0  0  0  0  0  2  0  0  0  0  0  0
  189.4300  174.1410  141.3360 C   0  0  0  0  0  0  0  0  0  0  0  0
  188.4840  173.4030  140.4560 C   0  0  0  0  0  2  0  0  0  0  0  0
  189.0450  173.3230  139.0510 C   0  0  0  0  0  2  0  0  0  0  0  0
  188.2020  174.0870  138.1490 N   0  0  0  0  0  1  0  0  0  0  0  0
  1 20  1  6  0  0  0
  1  4  1  0  0  0  0
  1 15  1  0  0  0  0
  2  4  2  0  0  0  0
  3  2  2  0  0  0  0
  3  6  1  0  0  0  0
  6  5  1  0  0  0  0
  6  7  2  0  0  0  0
  8  3  1  0  0  0  0
 10 13  1  0  0  0  0
 11 14  1  0  0  0  0
 11 12  1  0  0  0  0
 12  9  1  1  0  0  0
 12 13  1  0  0  0  0
 13  8  1  1  0  0  0
 14 10  1  0  0  0  0
 16 15  1  0  0  0  0
 16 17  1  0  0  0  0
 17 18  1  0  0  0  0
 19 17  2  0  0  0  0
 21 25  2  0  0  0  0
 21 24  1  0  0  0  0
 22 23  2  0  0  0  0
 23 20  1  0  0  0  0
 24 23  1  0  0  0  0
 25 22  1  0  0  0  0
 26 25  1  0  0  0  0
 27 26  1  0  0  0  0
 28 27  1  0  0  0  0
M  END
>  <MODEL>
8

>  <REMARK>
 VINA RESULT:      -5.9      2.288      3.406
  Name = 
  11 active torsions:
  status: ('A' for Active; 'I' for Inactive)
    1  A    between atoms: C_1  and  C_26
    2  A    between atoms: C_2  and  C_14
    3  A    between atoms: C_2  and  C_17
    4  A    between atoms: C_2  and  C_20
    5  A    between atoms: C_10  and  C_12
    6  A    between atoms: C_12  and  C_24
    7  A    between atoms: C_13  and  C_15
    8  A    between atoms: C_15  and  C_28
    9  A    between atoms: C_16  and  C_20
   10  A    between atoms: C_17  and  C_26
   11  A    between atoms: C_22  and  C_24
                            x       y       z     vdW  Elec       q    Type
                         _______ _______ _______ _____ _____    ______ ____

>  <TORSDO>
F 11

$$$$
=
 OpenBabel11062423113D

 28 29  0  0  1  0  0  0  0  0999 V2000
  190.6540  175.6920  146.4090 C   0  0  2  0  0  3  0  0  0  0  0  0
  189.7570  174.2000  144.7010 C   0  0  0  0  0  0  0  0  0  0  0  0
  189.6120  173.9280  143.4300 C   0  0  0  0  0  0  0  0  0  0  0  0
  189.9050  174.4750  145.9690 C   0  0  0  0  0  3  0  0  0  0  0  0
  188.1540  172.3080  142.0490 C   0  0  0  0  0  1  0  0  0  0  0  0
  189.2820  172.5560  142.9910 C   0  0  0  0  0  0  0  0  0  0  0  0
  189.9540  171.5740  143.4060 O   0  0  0  0  0  0  0  0  0  0  0  0
  189.7980  175.0260  142.4280 C   0  0  0  0  0  2  0  0  0  0  0  0
  190.4660  178.0500  143.2000 N   0  0  0  0  0  1  0  0  0  0  0  0
  187.2930  176.0730  141.9670 S   0  0  0  0  0  0  0  0  0  0  0  0
  188.5150  178.4450  141.9080 N   0  0  0  0  0  2  0  0  0  0  0  0
  189.5640  177.4890  142.2100 C   0  0  2  0  0  3  0  0  0  0  0  0
  188.9230  176.2310  142.7520 C   0  0  2  0  0  3  0  0  0  0  0  0
  187.4930  177.7030  141.1920 C   0  0  0  0  0  2  0  0  0  0  0  0
  191.9550  175.3150  147.1220 C   0  0  0  0  0  2  0  0  0  0  0  0
  193.0520  174.9570  146.1310 C   0  0  0  0  0  2  0  0  0  0  0  0
  194.2670  175.7890  146.3590 C   0  0  0  0  0  0  0  0  0  0  0  0
  194.1380  177.0860  146.8410 O   0  0  0  0  0  1  0  0  0  0  0  0
  195.4070  175.3300  146.0900 O   0  0  0  0  0  0  0  0  0  0  0  0
  189.7700  176.6050  147.2640 C   0  0  0  0  0  2  0  0  0  0  0  0
  186.3480  176.8000  146.2340 N   0  0  0  0  0  0  0  0  0  0  0  0
  188.2490  177.8780  145.7300 N   0  0  0  0  0  0  0  0  0  0  0  0
  188.4440  176.8980  146.6330 C   0  0  0  0  0  0  0  0  0  0  0  0
  187.3100  176.2480  146.9500 N   0  0  0  0  0  2  0  0  0  0  0  0
  186.9260  177.7700  145.5020 C   0  0  0  0  0  0  0  0  0  0  0  0
  186.1730  178.6720  144.5880 C   0  0  0  0  0  2  0  0  0  0  0  0
  184.8480  178.0380  144.2180 C   0  0  0  0  0  2  0  0  0  0  0  0
  184.3420  178.6490  143.0030 N   0  0  0  0  0  1  0  0  0  0  0  0
  1  4  1  1  0  0  0
  1 15  1  0  0  0  0
  1 20  1  0  0  0  0
  2  4  2  0  0  0  0
  3  2  2  0  0  0  0
  5  6  1  0  0  0  0
  6  7  2  0  0  0  0
  6  3  1  0  0  0  0
  8  3  1  0  0  0  0
 10 13  1  0  0  0  0
 11 12  1  0  0  0  0
 12 13  1  0  0  0  0
 12  9  1  1  0  0  0
 13  8  1  6  0  0  0
 14 11  1  0  0  0  0
 14 10  1  0  0  0  0
 16 17  1  0  0  0  0
 16 15  1  0  0  0  0
 17 18  1  0  0  0  0
 19 17  2  0  0  0  0
 21 24  1  0  0  0  0
 22 23  2  0  0  0  0
 23 24  1  0  0  0  0
 23 20  1  0  0  0  0
 25 22  1  0  0  0  0
 25 21  2  0  0  0  0
 26 25  1  0  0  0  0
 27 26  1  0  0  0  0
 28 27  1  0  0  0  0
M  END
>  <MODEL>
9

>  <REMARK>
 VINA RESULT:      -5.8      3.034      5.877
  Name = 
  11 active torsions:
  status: ('A' for Active; 'I' for Inactive)
    1  A    between atoms: C_1  and  C_26
    2  A    between atoms: C_2  and  C_14
    3  A    between atoms: C_2  and  C_17
    4  A    between atoms: C_2  and  C_20
    5  A    between atoms: C_10  and  C_12
    6  A    between atoms: C_12  and  C_24
    7  A    between atoms: C_13  and  C_15
    8  A    between atoms: C_15  and  C_28
    9  A    between atoms: C_16  and  C_20
   10  A    between atoms: C_17  and  C_26
   11  A    between atoms: C_22  and  C_24
                            x       y       z     vdW  Elec       q    Type
                         _______ _______ _______ _____ _____    ______ ____

>  <TORSDO>
F 11

$$$$
