=
 OpenBabel11062419523D

 30 32  0  0  1  0  0  0  0  0999 V2000
  187.1790  178.2690  142.3290 C   0  0  0  0  0  2  0  0  0  0  0  0
  187.5630  175.7670  142.8070 C   0  0  0  0  0  0  0  0  0  0  0  0
  186.5690  176.9130  142.7430 C   0  0  1  0  0  3  0  0  0  0  0  0
  188.4230  178.1060  141.5810 N   0  0  0  0  0  2  0  0  0  0  0  0
  189.4170  177.2960  143.7310 C   0  0  0  0  0  2  0  0  0  0  0  0
  189.5570  178.2070  142.5040 C   0  0  0  0  0  2  0  0  0  0  0  0
  189.7230  174.8450  143.4650 C   0  0  0  0  0  3  0  0  0  0  0  0
  187.1870  174.6390  142.3870 O   0  0  0  0  0  0  0  0  0  0  0  0
  188.9350  175.9260  143.3540 C   0  0  0  0  0  0  0  0  0  0  0  0
  184.4040  178.5580  145.4780 C   0  0  0  0  0  0  0  0  0  0  0  0
  185.1090  178.4280  144.1610 C   0  0  0  0  0  2  0  0  0  0  0  0
  185.8260  176.8270  146.5470 C   0  0  1  0  0  3  0  0  0  0  0  0
  185.1200  178.1760  146.7390 C   0  0  1  0  0  3  0  0  0  0  0  0
  186.6700  176.8120  145.2730 C   0  0  0  0  0  2  0  0  0  0  0  0
  183.2800  179.0300  145.5280 O   0  0  0  0  0  0  0  0  0  0  0  0
  186.6250  176.5340  147.6530 O   0  0  0  0  0  1  0  0  0  0  0  0
  185.7740  177.0500  144.0510 C   0  0  2  0  0  3  0  0  0  0  0  0
  186.0430  179.1710  147.0710 O   0  0  0  0  0  1  0  0  0  0  0  0
  191.1080  174.8030  143.9660 C   0  0  0  0  0  0  0  0  0  0  0  0
  191.3350  174.3540  145.3070 N   0  0  0  0  0  2  0  0  0  0  0  0
  192.0800  175.1520  143.2420 O   0  0  0  0  0  0  0  0  0  0  0  0
  197.0110  172.5360  146.0670 O   0  0  0  0  0  1  0  0  0  0  0  0
  193.1720  175.6620  146.3160 C   0  0  0  0  0  2  0  0  0  0  0  0
  195.8190  172.4290  145.6730 C   0  0  0  0  0  0  0  0  0  0  0  0
  195.3220  171.1730  145.3430 O   0  0  0  0  0  0  0  0  0  0  0  0
  194.9830  173.5870  145.5680 N   0  0  0  0  0  0  0  0  0  0  0  0
  195.5240  174.9130  145.8870 C   0  0  0  0  0  2  0  0  0  0  0  0
  194.4940  176.0110  145.6330 C   0  0  0  0  0  2  0  0  0  0  0  0
  192.6490  174.2660  145.9350 C   0  0  2  0  0  3  0  0  0  0  0  0
  193.6140  173.4450  145.0730 C   0  0  0  0  0  2  0  0  0  0  0  0
  2  9  1  0  0  0  0
  3  1  1  1  0  0  0
  3  2  1  0  0  0  0
  3 17  1  0  0  0  0
  4  1  1  0  0  0  0
  4  6  1  0  0  0  0
  6  5  1  0  0  0  0
  7 19  1  0  0  0  0
  8  2  2  0  0  0  0
  9  7  2  0  0  0  0
  9  5  1  0  0  0  0
 10 15  2  0  0  0  0
 10 13  1  0  0  0  0
 11 10  1  0  0  0  0
 12 13  1  0  0  0  0
 12 16  1  1  0  0  0
 13 18  1  6  0  0  0
 14 12  1  0  0  0  0
 17 11  1  1  0  0  0
 17 14  1  0  0  0  0
 19 20  1  0  0  0  0
 21 19  2  0  0  0  0
 24 22  1  0  0  0  0
 25 24  2  0  0  0  0
 26 24  1  0  0  0  0
 26 27  1  0  0  0  0
 28 27  1  0  0  0  0
 28 23  1  0  0  0  0
 29 20  1  6  0  0  0
 29 23  1  0  0  0  0
 30 26  1  0  0  0  0
 30 29  1  0  0  0  0
M  END
>  <MODEL>
1

>  <REMARK>
 VINA RESULT:      -8.2      0.000      0.000
  Name = 
  3 active torsions:
  status: ('A' for Active; 'I' for Inactive)
    1  A    between atoms: C_5  and  C_21
    2  A    between atoms: C_6  and  C_25
    3  A    between atoms: N_7  and  C_29
                            x       y       z     vdW  Elec       q    Type
                         _______ _______ _______ _____ _____    ______ ____

>  <TORSDO>
F 3

$$$$
=
 OpenBabel11062419523D

 30 32  0  0  1  0  0  0  0  0999 V2000
  189.4230  177.5470  144.4440 C   0  0  0  0  0  2  0  0  0  0  0  0
  188.1060  177.1750  142.2620 C   0  0  0  0  0  0  0  0  0  0  0  0
  188.1800  177.8930  143.5970 C   0  0  1  0  0  3  0  0  0  0  0  0
  190.5220  177.0420  143.6250 N   0  0  0  0  0  2  0  0  0  0  0  0
  189.0980  175.0160  143.2550 C   0  0  0  0  0  2  0  0  0  0  0  0
  190.4820  175.5770  143.6140 C   0  0  0  0  0  2  0  0  0  0  0  0
  188.3020  175.1570  140.9060 C   0  0  0  0  0  3  0  0  0  0  0  0
  187.6900  177.8280  141.2660 O   0  0  0  0  0  0  0  0  0  0  0  0
  188.4850  175.7480  142.0970 C   0  0  0  0  0  0  0  0  0  0  0  0
  184.8010  178.7720  145.2360 C   0  0  0  0  0  0  0  0  0  0  0  0
  186.0110  178.9580  144.3700 C   0  0  0  0  0  2  0  0  0  0  0  0
  185.9150  177.0460  146.6290 C   0  0  1  0  0  3  0  0  0  0  0  0
  184.9670  178.2520  146.6320 C   0  0  1  0  0  3  0  0  0  0  0  0
  187.2100  177.3530  145.8750 C   0  0  0  0  0  2  0  0  0  0  0  0
  183.6990  179.1000  144.8290 O   0  0  0  0  0  0  0  0  0  0  0  0
  186.2060  176.6500  147.9350 O   0  0  0  0  0  1  0  0  0  0  0  0
  186.8930  177.7050  144.4160 C   0  0  2  0  0  3  0  0  0  0  0  0
  185.4670  179.2680  147.4520 O   0  0  0  0  0  1  0  0  0  0  0  0
  188.6270  173.7660  140.5450 C   0  0  0  0  0  0  0  0  0  0  0  0
  189.7870  173.5210  139.7420 N   0  0  0  0  0  2  0  0  0  0  0  0
  187.9070  172.8030  140.9280 O   0  0  0  0  0  0  0  0  0  0  0  0
  191.6070  169.2610  135.9170 O   0  0  0  0  0  1  0  0  0  0  0  0
  191.2860  171.6260  140.2610 C   0  0  0  0  0  2  0  0  0  0  0  0
  191.0070  170.3180  136.2510 C   0  0  0  0  0  0  0  0  0  0  0  0
  190.0300  170.8390  135.4110 O   0  0  0  0  0  0  0  0  0  0  0  0
  191.3260  170.9740  137.4830 N   0  0  0  0  0  0  0  0  0  0  0  0
  192.3820  170.4350  138.3490 C   0  0  0  0  0  2  0  0  0  0  0  0
  192.6130  171.3270  139.5660 C   0  0  0  0  0  2  0  0  0  0  0  0
  190.2230  172.1990  139.3060 C   0  0  2  0  0  3  0  0  0  0  0  0
  190.6450  172.2200  137.8330 C   0  0  0  0  0  2  0  0  0  0  0  0
  2  3  1  0  0  0  0
  3 17  1  0  0  0  0
  3  1  1  1  0  0  0
  4  1  1  0  0  0  0
  5  6  1  0  0  0  0
  6  4  1  0  0  0  0
  7  9  2  0  0  0  0
  8  2  2  0  0  0  0
  9  2  1  0  0  0  0
  9  5  1  0  0  0  0
 10 13  1  0  0  0  0
 11 10  1  0  0  0  0
 12 13  1  0  0  0  0
 12 16  1  1  0  0  0
 13 18  1  1  0  0  0
 14 12  1  0  0  0  0
 15 10  2  0  0  0  0
 17 11  1  1  0  0  0
 17 14  1  0  0  0  0
 19  7  1  0  0  0  0
 19 21  2  0  0  0  0
 20 19  1  0  0  0  0
 22 24  1  0  0  0  0
 24 26  1  0  0  0  0
 25 24  2  0  0  0  0
 26 30  1  0  0  0  0
 26 27  1  0  0  0  0
 27 28  1  0  0  0  0
 28 23  1  0  0  0  0
 29 20  1  1  0  0  0
 29 23  1  0  0  0  0
 30 29  1  0  0  0  0
M  END
>  <MODEL>
2

>  <REMARK>
 VINA RESULT:      -8.2      4.324      5.610
  Name = 
  3 active torsions:
  status: ('A' for Active; 'I' for Inactive)
    1  A    between atoms: C_5  and  C_21
    2  A    between atoms: C_6  and  C_25
    3  A    between atoms: N_7  and  C_29
                            x       y       z     vdW  Elec       q    Type
                         _______ _______ _______ _____ _____    ______ ____

>  <TORSDO>
F 3

$$$$
=
 OpenBabel11062419523D

 30 32  0  0  1  0  0  0  0  0999 V2000
  188.3550  175.9810  146.7890 C   0  0  0  0  0  2  0  0  0  0  0  0
  189.7160  177.0340  144.8710 C   0  0  0  0  0  0  0  0  0  0  0  0
  188.5240  177.1570  145.8030 C   0  0  1  0  0  3  0  0  0  0  0  0
  189.6100  175.2690  147.0130 N   0  0  0  0  0  2  0  0  0  0  0  0
  189.4000  174.4880  144.6430 C   0  0  0  0  0  2  0  0  0  0  0  0
  189.6810  174.1190  146.1070 C   0  0  0  0  0  2  0  0  0  0  0  0
  191.1190  175.7360  143.3550 C   0  0  0  0  0  3  0  0  0  0  0  0
  190.3770  178.0780  144.6210 O   0  0  0  0  0  0  0  0  0  0  0  0
  190.1110  175.7470  144.2420 C   0  0  0  0  0  0  0  0  0  0  0  0
  186.1840  178.4970  143.0450 C   0  0  0  0  0  0  0  0  0  0  0  0
  187.4790  178.2010  143.7400 C   0  0  0  0  0  2  0  0  0  0  0  0
  184.8710  178.2770  145.1410 C   0  0  1  0  0  3  0  0  0  0  0  0
  185.0370  179.0590  143.8310 C   0  0  1  0  0  3  0  0  0  0  0  0
  186.1960  178.1550  145.8930 C   0  0  0  0  0  2  0  0  0  0  0  0
  186.0840  178.3390  141.8400 O   0  0  0  0  0  0  0  0  0  0  0  0
  183.9140  178.8860  145.9540 O   0  0  0  0  0  1  0  0  0  0  0  0
  187.2210  177.4100  145.0290 C   0  0  2  0  0  3  0  0  0  0  0  0
  185.2700  180.4120  144.0930 O   0  0  0  0  0  1  0  0  0  0  0  0
  191.6620  174.5670  142.6410 C   0  0  0  0  0  0  0  0  0  0  0  0
  191.0810  174.2050  141.3840 N   0  0  0  0  0  2  0  0  0  0  0  0
  192.6160  173.8920  143.1160 O   0  0  0  0  0  0  0  0  0  0  0  0
  191.0940  168.5810  139.2690 O   0  0  0  0  0  0  0  0  0  0  0  0
  191.7380  173.4930  139.1100 C   0  0  0  0  0  2  0  0  0  0  0  0
  190.8850  169.4800  140.1280 C   0  0  0  0  0  0  0  0  0  0  0  0
  190.7000  169.1190  141.4580 O   0  0  0  0  0  1  0  0  0  0  0  0
  190.8440  170.8580  139.7400 N   0  0  0  0  0  0  0  0  0  0  0  0
  191.0090  171.2280  138.3290 C   0  0  0  0  0  2  0  0  0  0  0  0
  190.8520  172.7330  138.1260 C   0  0  0  0  0  2  0  0  0  0  0  0
  191.5130  173.0710  140.5730 C   0  0  2  0  0  3  0  0  0  0  0  0
  190.5630  171.8810  140.7460 C   0  0  0  0  0  2  0  0  0  0  0  0
  1  4  1  0  0  0  0
  2  3  1  0  0  0  0
  3  1  1  6  0  0  0
  5  6  1  0  0  0  0
  6  4  1  0  0  0  0
  7  9  2  0  0  0  0
  8  2  2  0  0  0  0
  9  5  1  0  0  0  0
  9  2  1  0  0  0  0
 10 11  1  0  0  0  0
 10 13  1  0  0  0  0
 12 14  1  0  0  0  0
 12 16  1  1  0  0  0
 13 18  1  1  0  0  0
 13 12  1  0  0  0  0
 15 10  2  0  0  0  0
 17 11  1  6  0  0  0
 17  3  1  0  0  0  0
 17 14  1  0  0  0  0
 19 21  2  0  0  0  0
 19  7  1  0  0  0  0
 20 19  1  0  0  0  0
 22 24  2  0  0  0  0
 23 29  1  0  0  0  0
 24 25  1  0  0  0  0
 26 24  1  0  0  0  0
 26 30  1  0  0  0  0
 27 26  1  0  0  0  0
 28 27  1  0  0  0  0
 28 23  1  0  0  0  0
 29 30  1  0  0  0  0
 29 20  1  1  0  0  0
M  END
>  <MODEL>
3

>  <REMARK>
 VINA RESULT:      -8.0      3.698      5.211
  Name = 
  3 active torsions:
  status: ('A' for Active; 'I' for Inactive)
    1  A    between atoms: C_5  and  C_21
    2  A    between atoms: C_6  and  C_25
    3  A    between atoms: N_7  and  C_29
                            x       y       z     vdW  Elec       q    Type
                         _______ _______ _______ _____ _____    ______ ____

>  <TORSDO>
F 3

$$$$
=
 OpenBabel11062419523D

 30 32  0  0  1  0  0  0  0  0999 V2000
  191.7280  175.2840  147.6620 C   0  0  0  0  0  2  0  0  0  0  0  0
  191.3900  174.6480  145.1880 C   0  0  0  0  0  0  0  0  0  0  0  0
  192.3120  174.6250  146.3940 C   0  0  1  0  0  3  0  0  0  0  0  0
  190.2690  175.3190  147.6380 N   0  0  0  0  0  2  0  0  0  0  0  0
  190.5020  176.9900  145.7880 C   0  0  0  0  0  2  0  0  0  0  0  0
  189.8260  176.6150  147.1150 C   0  0  0  0  0  2  0  0  0  0  0  0
  189.8350  175.8070  143.7080 C   0  0  0  0  0  3  0  0  0  0  0  0
  191.3560  173.6230  144.4540 O   0  0  0  0  0  0  0  0  0  0  0  0
  190.5530  175.8260  144.8420 C   0  0  0  0  0  0  0  0  0  0  0  0
  194.9400  177.1770  145.1880 C   0  0  0  0  0  0  0  0  0  0  0  0
  193.5870  176.6590  145.5720 C   0  0  0  0  0  2  0  0  0  0  0  0
  195.8360  174.8950  144.7990 C   0  0  1  0  0  3  0  0  0  0  0  0
  195.8240  176.3480  144.3050 C   0  0  1  0  0  3  0  0  0  0  0  0
  194.4190  174.3630  145.0100 C   0  0  0  0  0  2  0  0  0  0  0  0
  195.2940  178.2910  145.5390 O   0  0  0  0  0  0  0  0  0  0  0  0
  196.5240  174.0800  143.8990 O   0  0  0  0  0  1  0  0  0  0  0  0
  193.6940  175.2100  146.0630 C   0  0  2  0  0  3  0  0  0  0  0  0
  195.3620  176.4150  142.9880 O   0  0  0  0  0  1  0  0  0  0  0  0
  188.9410  176.8640  143.2040 C   0  0  0  0  0  0  0  0  0  0  0  0
  187.5850  176.8890  143.6640 N   0  0  0  0  0  2  0  0  0  0  0  0
  189.3480  177.7340  142.3860 O   0  0  0  0  0  0  0  0  0  0  0  0
  182.8020  179.0400  140.7330 O   0  0  0  0  0  1  0  0  0  0  0  0
  186.0580  178.6640  144.4520 C   0  0  0  0  0  2  0  0  0  0  0  0
  183.7890  178.2750  140.9060 C   0  0  0  0  0  0  0  0  0  0  0  0
  184.2980  177.5660  139.8240 O   0  0  0  0  0  0  0  0  0  0  0  0
  184.3820  178.1390  142.2020 N   0  0  0  0  0  0  0  0  0  0  0  0
  183.8190  178.8660  143.3460 C   0  0  0  0  0  2  0  0  0  0  0  0
  184.5490  178.5190  144.6410 C   0  0  0  0  0  2  0  0  0  0  0  0
  186.5920  177.8710  143.2450 C   0  0  2  0  0  3  0  0  0  0  0  0
  185.5010  177.2180  142.3900 C   0  0  0  0  0  2  0  0  0  0  0  0
  2  3  1  0  0  0  0
  3  1  1  1  0  0  0
  4  1  1  0  0  0  0
  5  6  1  0  0  0  0
  6  4  1  0  0  0  0
  7  9  2  0  0  0  0
  8  2  2  0  0  0  0
  9  2  1  0  0  0  0
  9  5  1  0  0  0  0
 10 15  2  0  0  0  0
 10 11  1  0  0  0  0
 11 17  1  0  0  0  0
 12 16  1  6  0  0  0
 12 14  1  0  0  0  0
 13 18  1  6  0  0  0
 13 12  1  0  0  0  0
 13 10  1  0  0  0  0
 17 14  1  6  0  0  0
 17  3  1  0  0  0  0
 19 20  1  0  0  0  0
 19  7  1  0  0  0  0
 21 19  2  0  0  0  0
 22 24  1  0  0  0  0
 23 28  1  0  0  0  0
 24 26  1  0  0  0  0
 25 24  2  0  0  0  0
 26 30  1  0  0  0  0
 26 27  1  0  0  0  0
 27 28  1  0  0  0  0
 29 20  1  1  0  0  0
 29 23  1  0  0  0  0
 30 29  1  0  0  0  0
M  END
>  <MODEL>
4

>  <REMARK>
 VINA RESULT:      -8.0      2.710      9.128
  Name = 
  3 active torsions:
  status: ('A' for Active; 'I' for Inactive)
    1  A    between atoms: C_5  and  C_21
    2  A    between atoms: C_6  and  C_25
    3  A    between atoms: N_7  and  C_29
                            x       y       z     vdW  Elec       q    Type
                         _______ _______ _______ _____ _____    ______ ____

>  <TORSDO>
F 3

$$$$
=
 OpenBabel11062419523D

 30 32  0  0  1  0  0  0  0  0999 V2000
  186.6920  178.1180  142.0870 C   0  0  0  0  0  2  0  0  0  0  0  0
  187.3630  175.7210  142.7490 C   0  0  0  0  0  0  0  0  0  0  0  0
  186.2590  176.7600  142.6770 C   0  0  1  0  0  3  0  0  0  0  0  0
  187.8770  177.9960  141.2410 N   0  0  0  0  0  2  0  0  0  0  0  0
  189.1290  177.4970  143.3510 C   0  0  0  0  0  2  0  0  0  0  0  0
  189.0710  178.2910  142.0390 C   0  0  0  0  0  2  0  0  0  0  0  0
  189.6540  175.0700  143.2790 C   0  0  0  0  0  3  0  0  0  0  0  0
  187.0670  174.5270  142.4710 O   0  0  0  0  0  0  0  0  0  0  0  0
  188.7550  176.0580  143.1470 C   0  0  0  0  0  0  0  0  0  0  0  0
  184.3540  178.5350  145.5230 C   0  0  0  0  0  0  0  0  0  0  0  0
  184.9530  178.3510  144.1610 C   0  0  0  0  0  2  0  0  0  0  0  0
  185.8060  176.7910  146.5280 C   0  0  1  0  0  3  0  0  0  0  0  0
  185.1540  178.1630  146.7360 C   0  0  1  0  0  3  0  0  0  0  0  0
  186.5490  176.7190  145.1940 C   0  0  0  0  0  2  0  0  0  0  0  0
  183.2510  179.0410  145.6450 O   0  0  0  0  0  0  0  0  0  0  0  0
  186.6790  176.5010  147.5780 O   0  0  0  0  0  1  0  0  0  0  0  0
  185.5700  176.9520  144.0380 C   0  0  2  0  0  3  0  0  0  0  0  0
  186.1260  179.1390  146.9700 O   0  0  0  0  0  1  0  0  0  0  0  0
  191.0740  175.2040  143.6480 C   0  0  0  0  0  0  0  0  0  0  0  0
  192.0410  174.4180  142.9410 N   0  0  0  0  0  2  0  0  0  0  0  0
  191.4440  175.9880  144.5640 O   0  0  0  0  0  0  0  0  0  0  0  0
  197.6040  176.6790  143.1380 O   0  0  0  0  0  1  0  0  0  0  0  0
  193.7930  173.8620  144.5930 C   0  0  0  0  0  2  0  0  0  0  0  0
  196.4290  176.5680  142.6950 C   0  0  0  0  0  0  0  0  0  0  0  0
  196.1280  177.0700  141.4340 O   0  0  0  0  0  0  0  0  0  0  0  0
  195.4150  175.9290  143.4790 N   0  0  0  0  0  0  0  0  0  0  0  0
  195.7330  175.4300  144.8220 C   0  0  0  0  0  2  0  0  0  0  0  0
  194.4960  174.8600  145.5120 C   0  0  0  0  0  2  0  0  0  0  0  0
  193.4750  174.4450  143.2040 C   0  0  2  0  0  3  0  0  0  0  0  0
  194.0500  175.8450  142.9620 C   0  0  0  0  0  2  0  0  0  0  0  0
  2  9  1  0  0  0  0
  3  1  1  1  0  0  0
  3  2  1  0  0  0  0
  3 17  1  0  0  0  0
  4  6  1  0  0  0  0
  4  1  1  0  0  0  0
  6  5  1  0  0  0  0
  7 19  1  0  0  0  0
  8  2  2  0  0  0  0
  9  7  2  0  0  0  0
  9  5  1  0  0  0  0
 10 15  2  0  0  0  0
 10 13  1  0  0  0  0
 11 10  1  0  0  0  0
 12 13  1  0  0  0  0
 12 16  1  1  0  0  0
 13 18  1  6  0  0  0
 14 12  1  0  0  0  0
 17 11  1  6  0  0  0
 17 14  1  0  0  0  0
 19 21  2  0  0  0  0
 20 19  1  0  0  0  0
 23 28  1  0  0  0  0
 24 22  1  0  0  0  0
 24 26  1  0  0  0  0
 25 24  2  0  0  0  0
 26 27  1  0  0  0  0
 27 28  1  0  0  0  0
 29 20  1  1  0  0  0
 29 23  1  0  0  0  0
 30 29  1  0  0  0  0
 30 26  1  0  0  0  0
M  END
>  <MODEL>
5

>  <REMARK>
 VINA RESULT:      -8.0      1.851      2.254
  Name = 
  3 active torsions:
  status: ('A' for Active; 'I' for Inactive)
    1  A    between atoms: C_5  and  C_21
    2  A    between atoms: C_6  and  C_25
    3  A    between atoms: N_7  and  C_29
                            x       y       z     vdW  Elec       q    Type
                         _______ _______ _______ _____ _____    ______ ____

>  <TORSDO>
F 3

$$$$
=
 OpenBabel11062419523D

 30 32  0  0  1  0  0  0  0  0999 V2000
  194.5440  174.3620  143.0990 C   0  0  0  0  0  2  0  0  0  0  0  0
  193.5980  175.1430  145.3650 C   0  0  0  0  0  0  0  0  0  0  0  0
  194.3960  174.0940  144.6120 C   0  0  1  0  0  3  0  0  0  0  0  0
  194.3710  175.7750  142.7740 N   0  0  0  0  0  2  0  0  0  0  0  0
  191.9670  175.4560  143.3970 C   0  0  0  0  0  2  0  0  0  0  0  0
  192.9780  176.0130  142.3840 C   0  0  0  0  0  2  0  0  0  0  0  0
  191.6630  176.6140  145.5730 C   0  0  0  0  0  3  0  0  0  0  0  0
  194.0010  175.4780  146.5120 O   0  0  0  0  0  0  0  0  0  0  0  0
  192.3670  175.7640  144.8090 C   0  0  0  0  0  0  0  0  0  0  0  0
  194.4140  170.3540  145.5540 C   0  0  0  0  0  0  0  0  0  0  0  0
  194.9530  171.7430  145.3880 C   0  0  0  0  0  2  0  0  0  0  0  0
  192.5960  170.7330  143.9070 C   0  0  1  0  0  3  0  0  0  0  0  0
  193.6270  169.7300  144.4400 C   0  0  1  0  0  3  0  0  0  0  0  0
  193.2380  172.0840  143.5920 C   0  0  0  0  0  2  0  0  0  0  0  0
  194.6660  169.7140  146.5610 O   0  0  0  0  0  0  0  0  0  0  0  0
  191.9660  170.2260  142.7690 O   0  0  0  0  0  1  0  0  0  0  0  0
  193.8550  172.6780  144.8640 C   0  0  2  0  0  3  0  0  0  0  0  0
  194.4970  169.3320  143.4210 O   0  0  0  0  0  1  0  0  0  0  0  0
  190.4340  177.3350  145.1980 C   0  0  0  0  0  0  0  0  0  0  0  0
  189.1970  176.9360  145.7990 N   0  0  0  0  0  2  0  0  0  0  0  0
  190.4570  178.2850  144.3680 O   0  0  0  0  0  0  0  0  0  0  0  0
  184.0320  177.9210  142.8930 O   0  0  0  0  0  1  0  0  0  0  0  0
  187.0710  177.6960  146.8020 C   0  0  0  0  0  2  0  0  0  0  0  0
  185.2360  177.5630  142.9960 C   0  0  0  0  0  0  0  0  0  0  0  0
  186.0120  177.4490  141.8490 O   0  0  0  0  0  0  0  0  0  0  0  0
  185.8000  177.2790  144.2810 N   0  0  0  0  0  0  0  0  0  0  0  0
  184.9650  177.3700  145.4850 C   0  0  0  0  0  2  0  0  0  0  0  0
  185.7390  176.9520  146.7330 C   0  0  0  0  0  2  0  0  0  0  0  0
  187.9070  177.5550  145.5180 C   0  0  2  0  0  3  0  0  0  0  0  0
  187.1880  176.8290  144.3760 C   0  0  0  0  0  2  0  0  0  0  0  0
  2  8  2  0  0  0  0
  3  1  1  6  0  0  0
  3 17  1  0  0  0  0
  3  2  1  0  0  0  0
  4  1  1  0  0  0  0
  5  9  1  0  0  0  0
  6  4  1  0  0  0  0
  6  5  1  0  0  0  0
  9  2  1  0  0  0  0
  9  7  2  0  0  0  0
 10 15  2  0  0  0  0
 11 10  1  0  0  0  0
 12 16  1  6  0  0  0
 12 13  1  0  0  0  0
 13 18  1  6  0  0  0
 13 10  1  0  0  0  0
 14 12  1  0  0  0  0
 17 14  1  6  0  0  0
 17 11  1  0  0  0  0
 19  7  1  0  0  0  0
 19 20  1  0  0  0  0
 21 19  2  0  0  0  0
 22 24  1  0  0  0  0
 24 26  1  0  0  0  0
 25 24  2  0  0  0  0
 26 30  1  0  0  0  0
 26 27  1  0  0  0  0
 27 28  1  0  0  0  0
 28 23  1  0  0  0  0
 29 20  1  1  0  0  0
 29 23  1  0  0  0  0
 30 29  1  0  0  0  0
M  END
>  <MODEL>
6

>  <REMARK>
 VINA RESULT:      -8.0      2.545      9.106
  Name = 
  3 active torsions:
  status: ('A' for Active; 'I' for Inactive)
    1  A    between atoms: C_5  and  C_21
    2  A    between atoms: C_6  and  C_25
    3  A    between atoms: N_7  and  C_29
                            x       y       z     vdW  Elec       q    Type
                         _______ _______ _______ _____ _____    ______ ____

>  <TORSDO>
F 3

$$$$
=
 OpenBabel11062419523D

 30 32  0  0  1  0  0  0  0  0999 V2000
  188.7350  178.2860  142.4220 C   0  0  0  0  0  2  0  0  0  0  0  0
  188.4010  175.7670  142.0010 C   0  0  0  0  0  0  0  0  0  0  0  0
  187.8090  177.1620  141.9120 C   0  0  1  0  0  3  0  0  0  0  0  0
  190.1420  177.8960  142.3890 N   0  0  0  0  0  2  0  0  0  0  0  0
  189.5730  176.2990  144.2320 C   0  0  0  0  0  2  0  0  0  0  0  0
  190.5300  177.3780  143.7040 C   0  0  0  0  0  2  0  0  0  0  0  0
  189.6160  174.0340  143.2150 C   0  0  0  0  0  3  0  0  0  0  0  0
  188.1800  174.9720  141.0480 O   0  0  0  0  0  0  0  0  0  0  0  0
  189.2060  175.3110  143.1640 C   0  0  0  0  0  0  0  0  0  0  0  0
  184.1780  178.2910  142.5580 C   0  0  0  0  0  0  0  0  0  0  0  0
  185.4850  178.1780  141.8320 C   0  0  0  0  0  2  0  0  0  0  0  0
  185.1900  177.6460  144.7300 C   0  0  1  0  0  3  0  0  0  0  0  0
  184.1740  178.5590  144.0330 C   0  0  1  0  0  3  0  0  0  0  0  0
  186.5570  177.7020  144.0480 C   0  0  0  0  0  2  0  0  0  0  0  0
  183.1270  178.2270  141.9420 O   0  0  0  0  0  0  0  0  0  0  0  0
  185.3140  177.9920  146.0770 O   0  0  0  0  0  1  0  0  0  0  0  0
  186.4330  177.2390  142.5910 C   0  0  2  0  0  3  0  0  0  0  0  0
  184.4830  179.9030  144.2630 O   0  0  0  0  0  1  0  0  0  0  0  0
  190.4280  173.4020  144.2690 C   0  0  0  0  0  0  0  0  0  0  0  0
  191.8400  173.2780  144.0620 N   0  0  0  0  0  2  0  0  0  0  0  0
  189.9050  172.9760  145.3350 O   0  0  0  0  0  0  0  0  0  0  0  0
  195.6460  169.1820  146.2610 O   0  0  0  0  0  1  0  0  0  0  0  0
  193.7560  173.7110  145.5610 C   0  0  0  0  0  2  0  0  0  0  0  0
  194.6800  169.5850  145.5590 C   0  0  0  0  0  0  0  0  0  0  0  0
  193.7590  168.6620  145.0750 O   0  0  0  0  0  0  0  0  0  0  0  0
  194.5270  170.9790  145.2670 N   0  0  0  0  0  0  0  0  0  0  0  0
  195.5210  171.9430  145.7550 C   0  0  0  0  0  2  0  0  0  0  0  0
  195.2120  173.3560  145.2660 C   0  0  0  0  0  2  0  0  0  0  0  0
  192.7620  172.6700  145.0150 C   0  0  2  0  0  3  0  0  0  0  0  0
  193.4200  171.4210  144.4200 C   0  0  0  0  0  2  0  0  0  0  0  0
  2  9  1  0  0  0  0
  3  2  1  0  0  0  0
  3  1  1  1  0  0  0
  3 17  1  0  0  0  0
  4  1  1  0  0  0  0
  4  6  1  0  0  0  0
  6  5  1  0  0  0  0
  7 19  1  0  0  0  0
  8  2  2  0  0  0  0
  9  7  2  0  0  0  0
  9  5  1  0  0  0  0
 10 13  1  0  0  0  0
 11 10  1  0  0  0  0
 12 16  1  1  0  0  0
 13 18  1  6  0  0  0
 13 12  1  0  0  0  0
 14 12  1  0  0  0  0
 15 10  2  0  0  0  0
 17 11  1  6  0  0  0
 17 14  1  0  0  0  0
 19 21  2  0  0  0  0
 20 19  1  0  0  0  0
 24 22  1  0  0  0  0
 25 24  2  0  0  0  0
 26 24  1  0  0  0  0
 26 27  1  0  0  0  0
 28 23  1  0  0  0  0
 28 27  1  0  0  0  0
 29 20  1  6  0  0  0
 29 23  1  0  0  0  0
 30 29  1  0  0  0  0
 30 26  1  0  0  0  0
M  END
>  <MODEL>
7

>  <REMARK>
 VINA RESULT:      -7.9      1.839      2.365
  Name = 
  3 active torsions:
  status: ('A' for Active; 'I' for Inactive)
    1  A    between atoms: C_5  and  C_21
    2  A    between atoms: C_6  and  C_25
    3  A    between atoms: N_7  and  C_29
                            x       y       z     vdW  Elec       q    Type
                         _______ _______ _______ _____ _____    ______ ____

>  <TORSDO>
F 3

$$$$
=
 OpenBabel11062419523D

 30 32  0  0  1  0  0  0  0  0999 V2000
  193.9370  174.9830  146.1560 C   0  0  0  0  0  2  0  0  0  0  0  0
  192.3370  174.1200  144.3310 C   0  0  0  0  0  0  0  0  0  0  0  0
  193.7540  174.1430  144.8740 C   0  0  1  0  0  3  0  0  0  0  0  0
  192.6840  175.1460  146.8880 N   0  0  0  0  0  2  0  0  0  0  0  0
  191.9440  176.5820  144.9750 C   0  0  0  0  0  2  0  0  0  0  0  0
  192.0580  176.4130  146.4970 C   0  0  0  0  0  2  0  0  0  0  0  0
  190.2600  175.2480  143.7280 C   0  0  0  0  0  3  0  0  0  0  0  0
  191.9010  173.0290  143.8700 O   0  0  0  0  0  0  0  0  0  0  0  0
  191.4670  175.3240  144.3100 C   0  0  0  0  0  0  0  0  0  0  0  0
  196.1630  176.4160  142.8970 C   0  0  0  0  0  0  0  0  0  0  0  0
  195.2340  176.0110  144.0020 C   0  0  0  0  0  2  0  0  0  0  0  0
  195.2540  174.7080  141.3430 C   0  0  1  0  0  3  0  0  0  0  0  0
  195.7800  176.1430  141.4740 C   0  0  1  0  0  3  0  0  0  0  0  0
  194.1820  174.4050  142.3900 C   0  0  0  0  0  2  0  0  0  0  0  0
  197.1930  177.0180  143.1520 O   0  0  0  0  0  0  0  0  0  0  0  0
  194.7450  174.4890  140.0620 O   0  0  0  0  0  1  0  0  0  0  0  0
  194.7680  174.5630  143.7980 C   0  0  2  0  0  3  0  0  0  0  0  0
  194.8070  177.0610  141.0680 O   0  0  0  0  0  1  0  0  0  0  0  0
  189.2560  176.3210  143.6200 C   0  0  0  0  0  0  0  0  0  0  0  0
  188.2730  176.4440  144.6540 N   0  0  0  0  0  2  0  0  0  0  0  0
  189.2510  177.1200  142.6440 O   0  0  0  0  0  0  0  0  0  0  0  0
  183.0500  179.0410  143.2120 O   0  0  0  0  0  1  0  0  0  0  0  0
  186.9000  177.8890  146.1150 C   0  0  0  0  0  2  0  0  0  0  0  0
  184.0540  178.3030  143.0170 C   0  0  0  0  0  0  0  0  0  0  0  0
  184.3700  177.9160  141.7190 O   0  0  0  0  0  0  0  0  0  0  0  0
  184.8620  177.8720  144.1170 N   0  0  0  0  0  0  0  0  0  0  0  0
  184.5030  178.2590  145.4860 C   0  0  0  0  0  2  0  0  0  0  0  0
  185.4470  177.6290  146.5080 C   0  0  0  0  0  2  0  0  0  0  0  0
  187.2200  177.4530  144.6740 C   0  0  2  0  0  3  0  0  0  0  0  0
  186.0000  176.9860  143.8720 C   0  0  0  0  0  2  0  0  0  0  0  0
  1  4  1  0  0  0  0
  2  3  1  0  0  0  0
  3  1  1  1  0  0  0
  5  6  1  0  0  0  0
  6  4  1  0  0  0  0
  7  9  2  0  0  0  0
  8  2  2  0  0  0  0
  9  2  1  0  0  0  0
  9  5  1  0  0  0  0
 10 15  2  0  0  0  0
 10 11  1  0  0  0  0
 12 16  1  6  0  0  0
 12 13  1  0  0  0  0
 12 14  1  0  0  0  0
 13 18  1  1  0  0  0
 13 10  1  0  0  0  0
 17 14  1  6  0  0  0
 17 11  1  0  0  0  0
 17  3  1  0  0  0  0
 19  7  1  0  0  0  0
 19 20  1  0  0  0  0
 21 19  2  0  0  0  0
 23 28  1  0  0  0  0
 24 22  1  0  0  0  0
 24 26  1  0  0  0  0
 25 24  2  0  0  0  0
 26 27  1  0  0  0  0
 27 28  1  0  0  0  0
 29 20  1  1  0  0  0
 29 23  1  0  0  0  0
 30 26  1  0  0  0  0
 30 29  1  0  0  0  0
M  END
>  <MODEL>
8

>  <REMARK>
 VINA RESULT:      -7.9      2.688      9.222
  Name = 
  3 active torsions:
  status: ('A' for Active; 'I' for Inactive)
    1  A    between atoms: C_5  and  C_21
    2  A    between atoms: C_6  and  C_25
    3  A    between atoms: N_7  and  C_29
                            x       y       z     vdW  Elec       q    Type
                         _______ _______ _______ _____ _____    ______ ____

>  <TORSDO>
F 3

$$$$
=
 OpenBabel11062419523D

 30 32  0  0  1  0  0  0  0  0999 V2000
  192.9450  172.4300  143.3710 C   0  0  0  0  0  2  0  0  0  0  0  0
  191.8070  173.7660  141.4850 C   0  0  0  0  0  0  0  0  0  0  0  0
  193.1020  173.4190  142.1960 C   0  0  1  0  0  3  0  0  0  0  0  0
  191.7340  171.6230  143.2500 N   0  0  0  0  0  2  0  0  0  0  0  0
  190.4750  173.7430  143.6900 C   0  0  0  0  0  2  0  0  0  0  0  0
  190.6560  172.2540  144.0180 C   0  0  0  0  0  2  0  0  0  0  0  0
  189.4500  174.3930  141.5230 C   0  0  0  0  0  3  0  0  0  0  0  0
  191.8360  173.8740  140.2290 O   0  0  0  0  0  0  0  0  0  0  0  0
  190.5310  173.9970  142.2120 C   0  0  0  0  0  0  0  0  0  0  0  0
  195.8440  176.1310  142.2570 C   0  0  0  0  0  0  0  0  0  0  0  0
  195.0830  174.9410  141.7530 C   0  0  0  0  0  2  0  0  0  0  0  0
  194.9420  175.8850  144.5560 C   0  0  1  0  0  3  0  0  0  0  0  0
  196.1780  176.2280  143.7150 C   0  0  1  0  0  3  0  0  0  0  0  0
  194.3050  174.5700  144.1070 C   0  0  0  0  0  2  0  0  0  0  0  0
  196.2420  176.9800  141.4770 O   0  0  0  0  0  0  0  0  0  0  0  0
  195.2760  175.8160  145.9090 O   0  0  0  0  0  1  0  0  0  0  0  0
  193.8610  174.6780  142.6430 C   0  0  2  0  0  3  0  0  0  0  0  0
  197.2310  175.3580  144.0120 O   0  0  0  0  0  1  0  0  0  0  0  0
  188.1030  174.6580  142.0590 C   0  0  0  0  0  0  0  0  0  0  0  0
  187.8030  175.9750  142.5330 N   0  0  0  0  0  2  0  0  0  0  0  0
  187.2250  173.7530  142.1050 O   0  0  0  0  0  0  0  0  0  0  0  0
  183.9510  178.0840  146.6340 O   0  0  0  0  0  0  0  0  0  0  0  0
  185.7130  177.2150  142.0830 C   0  0  0  0  0  2  0  0  0  0  0  0
  185.0070  177.5190  146.2400 C   0  0  0  0  0  0  0  0  0  0  0  0
  185.7360  176.7410  147.1320 O   0  0  0  0  0  1  0  0  0  0  0  0
  185.4510  177.6740  144.8870 N   0  0  0  0  0  0  0  0  0  0  0  0
  184.6940  178.5240  143.9600 C   0  0  0  0  0  2  0  0  0  0  0  0
  185.3810  178.6130  142.5990 C   0  0  0  0  0  2  0  0  0  0  0  0
  186.5170  176.3760  143.0920 C   0  0  2  0  0  3  0  0  0  0  0  0
  186.6980  177.0420  144.4610 C   0  0  0  0  0  2  0  0  0  0  0  0
  2  3  1  0  0  0  0
  2  9  1  0  0  0  0
  3 17  1  0  0  0  0
  3  1  1  1  0  0  0
  4  1  1  0  0  0  0
  4  6  1  0  0  0  0
  5  6  1  0  0  0  0
  7 19  1  0  0  0  0
  7  9  2  0  0  0  0
  8  2  2  0  0  0  0
  9  5  1  0  0  0  0
 10 13  1  0  0  0  0
 11 10  1  0  0  0  0
 12 16  1  1  0  0  0
 13 18  1  1  0  0  0
 13 12  1  0  0  0  0
 14 12  1  0  0  0  0
 15 10  2  0  0  0  0
 17 11  1  6  0  0  0
 17 14  1  0  0  0  0
 19 21  2  0  0  0  0
 19 20  1  0  0  0  0
 23 28  1  0  0  0  0
 23 29  1  0  0  0  0
 24 22  2  0  0  0  0
 24 25  1  0  0  0  0
 26 24  1  0  0  0  0
 27 26  1  0  0  0  0
 28 27  1  0  0  0  0
 29 20  1  6  0  0  0
 29 30  1  0  0  0  0
 30 26  1  0  0  0  0
M  END
>  <MODEL>
9

>  <REMARK>
 VINA RESULT:      -7.9      2.539      8.940
  Name = 
  3 active torsions:
  status: ('A' for Active; 'I' for Inactive)
    1  A    between atoms: C_5  and  C_21
    2  A    between atoms: C_6  and  C_25
    3  A    between atoms: N_7  and  C_29
                            x       y       z     vdW  Elec       q    Type
                         _______ _______ _______ _____ _____    ______ ____

>  <TORSDO>
F 3

$$$$
