=
 OpenBabel11072408393D

 69 76  0  0  1  0  0  0  0  0999 V2000
  187.2850  172.8500  142.0460 O   0  0  0  0  0  0  0  0  0  0  0  0
  188.0960  173.7180  141.6250 C   0  0  0  0  0  0  0  0  0  0  0  0
  188.1660  174.9780  142.3020 N   0  0  0  0  0  2  0  0  0  0  0  0
  188.9370  173.4120  140.4190 C   0  0  0  0  0  0  0  0  0  0  0  0
  188.1930  172.7950  139.2480 C   0  0  0  0  0  2  0  0  0  0  0  0
  188.6250  174.2470  139.1870 C   0  0  0  0  0  2  0  0  0  0  0  0
  194.3480  170.4870  138.2190 O   0  0  0  0  0  1  0  0  0  0  0  0
  196.2280  171.2170  140.2920 C   0  0  0  0  0  2  0  0  0  0  0  0
  192.8480  172.3020  138.6490 C   0  0  0  0  0  2  0  0  0  0  0  0
  194.8510  171.5850  145.8320 O   0  0  0  0  0  0  0  0  0  0  0  0
  195.1850  171.7360  144.6240 C   0  0  0  0  0  0  0  0  0  0  0  0
  194.3910  172.5120  143.7720 O   0  0  0  0  0  0  0  0  0  0  0  0
  190.3970  172.9750  140.6100 C   0  0  2  0  0  3  0  0  0  0  0  0
  196.6740  171.5050  141.6880 C   0  0  0  0  0  3  0  0  0  0  0  0
  190.7780  173.0380  141.9600 O   0  0  0  0  0  0  0  0  0  0  0  0
  191.2600  173.7760  139.8340 O   0  0  0  0  0  0  0  0  0  0  0  0
  196.2470  170.7270  142.6800 C   0  0  0  0  0  3  0  0  0  0  0  0
  193.9300  171.5290  141.0140 O   0  0  0  0  0  0  0  0  0  0  0  0
  193.0600  172.6250  141.2010 C   0  0  1  0  0  3  0  0  0  0  0  0
  193.0290  172.8070  144.0650 C   0  0  2  0  0  3  0  0  0  0  0  0
  192.5610  173.2190  139.8430 C   0  0  1  0  0  3  0  0  0  0  0  0
  196.4590  171.1190  144.1020 C   0  0  2  0  0  3  0  0  0  0  0  0
  194.3100  171.8130  138.6580 C   0  0  1  0  0  3  0  0  0  0  0  0
  192.1590  171.8770  143.4320 O   0  0  0  0  0  0  0  0  0  0  0  0
  194.8960  171.9280  140.0740 C   0  0  2  0  0  3  0  0  0  0  0  0
  196.8340  169.8790  144.8970 C   0  0  0  0  0  1  0  0  0  0  0  0
  191.8700  172.1690  142.0670 C   0  0  1  0  0  3  0  0  0  0  0  0
  192.6880  174.2820  143.8280 C   0  0  0  0  0  2  0  0  0  0  0  0
  195.4300  175.3220  140.9980 C   0  0  0  0  0  2  0  0  0  0  0  0
  193.8270  175.1530  144.2420 C   0  0  0  0  0  0  0  0  0  0  0  0
  194.2760  175.8370  141.8540 C   0  0  0  0  0  2  0  0  0  0  0  0
  197.9410  175.6940  140.5470 C   0  0  0  0  0  1  0  0  0  0  0  0
  194.6570  175.7960  143.2620 N   0  0  0  0  0  0  0  0  0  0  0  0
  196.7660  175.8660  141.4450 C   0  0  0  0  0  0  0  0  0  0  0  0
  195.8400  176.5490  143.6690 C   0  0  0  0  0  2  0  0  0  0  0  0
  194.0830  175.2780  145.4700 O   0  0  0  0  0  0  0  0  0  0  0  0
  196.9600  176.3590  142.6810 C   0  0  0  0  0  3  0  0  0  0  0  0
  188.9700  176.1190  141.8770 C   0  0  1  0  0  3  0  0  0  0  0  0
  188.0860  177.1940  141.3060 C   0  0  0  0  0  0  0  0  0  0  0  0
  188.4590  178.3570  141.2950 O   0  0  0  0  0  0  0  0  0  0  0  0
  186.7460  176.8530  140.7380 C   0  0  2  0  0  3  0  0  0  0  0  0
  186.6940  177.2000  139.3850 O   0  0  0  0  0  1  0  0  0  0  0  0
  185.6460  177.5630  141.5110 C   0  0  0  0  0  2  0  0  0  0  0  0
  184.7160  178.2920  140.5600 C   0  0  0  0  0  2  0  0  0  0  0  0
  183.1900  178.3150  142.3820 O   0  0  0  0  0  0  0  0  0  0  0  0
  183.3440  178.3250  141.1320 C   0  0  0  0  0  0  0  0  0  0  0  0
  182.2410  178.3480  140.2750 O   0  0  0  0  0  0  0  0  0  0  0  0
  180.9140  178.2020  140.7570 C   0  0  0  0  0  1  0  0  0  0  0  0
  189.8540  176.6520  143.0070 C   0  0  0  0  0  2  0  0  0  0  0  0
  191.2580  178.2230  149.3260 C   0  0  0  0  0  3  0  0  0  0  0  0
  190.3690  178.7570  148.4710 C   0  0  0  0  0  3  0  0  0  0  0  0
  188.3820  177.5460  144.8280 C   0  0  0  0  0  2  0  0  0  0  0  0
  189.7900  175.5800  146.4440 C   0  0  1  0  0  0  0  0  0  0  0  0
  189.3470  176.7880  147.2900 C   0  0  2  0  0  0  0  0  0  0  0  0
  189.2910  176.3670  144.3900 C   0  0  2  0  0  3  0  0  0  0  0  0
  187.4410  177.3250  146.0700 C   0  0  2  0  0  3  0  0  0  0  0  0
  192.0770  176.9640  149.1330 C   0  0  0  0  0  2  0  0  0  0  0  0
  191.7520  176.1340  147.8910 C   0  0  0  0  0  2  0  0  0  0  0  0
  187.9430  176.7650  147.2980 O   0  0  0  0  0  0  0  0  0  0  0  0
  190.0260  178.1720  147.1340 C   0  0  0  0  0  2  0  0  0  0  0  0
  190.3700  176.1140  145.2820 O   0  0  0  0  0  0  0  0  0  0  0  0
  190.2810  175.7220  147.8770 C   0  0  2  0  0  3  0  0  0  0  0  0
  188.5320  173.7690  147.5000 F   0  0  0  0  0  0  0  0  0  0  0  0
  188.8990  174.3230  146.2820 C   0  0  2  0  0  3  0  0  0  0  0  0
  189.6210  173.2770  145.4510 C   0  0  0  0  0  1  0  0  0  0  0  0
  185.3300  176.2020  146.8850 C   0  0  0  0  0  1  0  0  0  0  0  0
  186.0570  176.7980  145.6930 C   0  0  1  0  0  3  0  0  0  0  0  0
  184.2370  178.4490  145.7390 C   0  0  0  0  0  2  0  0  0  0  0  0
  185.2400  177.8840  145.0700 C   0  0  0  0  0  3  0  0  0  0  0  0
  2  1  2  0  0  0  0
  2  3  1  0  0  0  0
  4  2  1  0  0  0  0
  5  4  1  0  0  0  0
  6  5  1  0  0  0  0
  6  4  1  0  0  0  0
  8 14  1  0  0  0  0
  9 23  1  0  0  0  0
 11 10  2  0  0  0  0
 12 20  1  0  0  0  0
 12 11  1  0  0  0  0
 13  4  1  1  0  0  0
 13 15  1  0  0  0  0
 14 17  2  0  0  0  0
 16 21  1  0  0  0  0
 16 13  1  0  0  0  0
 17 22  1  0  0  0  0
 19 18  1  6  0  0  0
 19 27  1  0  0  0  0
 20 28  1  6  0  0  0
 21  9  1  6  0  0  0
 21 19  1  0  0  0  0
 22 11  1  0  0  0  0
 22 26  1  1  0  0  0
 23  7  1  1  0  0  0
 23 25  1  0  0  0  0
 24 20  1  0  0  0  0
 25  8  1  6  0  0  0
 25 18  1  0  0  0  0
 27 15  1  1  0  0  0
 27 24  1  0  0  0  0
 28 30  1  0  0  0  0
 29 34  1  0  0  0  0
 29 31  1  0  0  0  0
 30 36  2  0  0  0  0
 31 33  1  0  0  0  0
 32 34  1  0  0  0  0
 33 35  1  0  0  0  0
 33 30  1  0  0  0  0
 34 37  2  0  0  0  0
 37 35  1  0  0  0  0
 38  3  1  0  0  0  0
 38 49  1  1  0  0  0
 39 38  1  0  0  0  0
 40 39  2  0  0  0  0
 41 42  1  6  0  0  0
 41 39  1  0  0  0  0
 41 43  1  0  0  0  0
 44 46  1  0  0  0  0
 44 43  1  0  0  0  0
 46 45  2  0  0  0  0
 47 48  1  0  0  0  0
 47 46  1  0  0  0  0
 51 50  2  0  0  0  0
 52 56  1  0  0  0  0
 53 64  1  6  0  0  0
 53 54  1  0  0  0  0
 53 62  1  0  0  0  0
 54 60  1  6  0  0  0
 54 59  1  0  0  0  0
 54 62  1  0  0  0  0
 55 49  1  6  0  0  0
 55 52  1  0  0  0  0
 55 61  1  0  0  0  0
 56 67  1  6  0  0  0
 56 59  1  0  0  0  0
 57 50  1  0  0  0  0
 58 57  1  0  0  0  0
 60 51  1  0  0  0  0
 61 53  1  0  0  0  0
 62 58  1  6  0  0  0
 64 65  1  6  0  0  0
 64 63  1  0  0  0  0
 67 66  1  1  0  0  0
 69 67  1  0  0  0  0
 69 68  2  0  0  0  0
M  END
>  <MODEL>
1

>  <REMARK>
 VINA RESULT:      -7.1      0.000      0.000
  Name = 
  16 active torsions:
  status: ('A' for Active; 'I' for Inactive)
    1  A    between atoms: C_4  and  C_67
    2  A    between atoms: C_10  and  C_45
    3  A    between atoms: C_10  and  C_59
    4  A    between atoms: C_18  and  C_19
    5  A    between atoms: C_19  and  C_37
    6  A    between atoms: C_21  and  C_52
    7  A    between atoms: C_21  and  C_59
    8  A    between atoms: C_22  and  C_45
    9  A    between atoms: C_22  and  C_49
   10  A    between atoms: C_22  and  N_60
   11  A    between atoms: C_23  and  C_29
   12  A    between atoms: C_25  and  C_49
   13  A    between atoms: C_27  and  C_36
   14  A    between atoms: C_36  and  C_57
   15  A    between atoms: C_47  and  C_67
   16  A    between atoms: O_50  and  C_52
                            x       y       z     vdW  Elec       q    Type
                         _______ _______ _______ _____ _____    ______ ____

>  <TORSDO>
F 16

$$$$
=
 OpenBabel11072408393D

 69 76  0  0  1  0  0  0  0  0999 V2000
  187.2290  172.9310  142.1250 O   0  0  0  0  0  0  0  0  0  0  0  0
  188.0670  173.7810  141.7220 C   0  0  0  0  0  0  0  0  0  0  0  0
  187.9680  175.1250  142.2070 N   0  0  0  0  0  2  0  0  0  0  0  0
  189.1190  173.3630  140.7350 C   0  0  0  0  0  0  0  0  0  0  0  0
  188.5980  172.6820  139.4810 C   0  0  0  0  0  2  0  0  0  0  0  0
  189.0930  174.1140  139.4110 C   0  0  0  0  0  2  0  0  0  0  0  0
  193.2760  168.6170  142.4260 O   0  0  0  0  0  1  0  0  0  0  0  0
  195.7050  170.1440  142.7940 C   0  0  0  0  0  2  0  0  0  0  0  0
  192.2380  170.2210  140.9860 C   0  0  0  0  0  2  0  0  0  0  0  0
  195.8320  175.4120  145.0180 O   0  0  0  0  0  0  0  0  0  0  0  0
  195.8730  174.3550  144.3290 C   0  0  0  0  0  0  0  0  0  0  0  0
  195.0240  174.2070  143.2270 O   0  0  0  0  0  0  0  0  0  0  0  0
  190.4920  172.9030  141.2450 C   0  0  2  0  0  3  0  0  0  0  0  0
  196.5250  171.3230  143.2010 C   0  0  0  0  0  3  0  0  0  0  0  0
  191.2030  173.9650  141.8290 O   0  0  0  0  0  0  0  0  0  0  0  0
  191.2490  172.3420  140.1960 O   0  0  0  0  0  0  0  0  0  0  0  0
  196.2420  171.9490  144.3410 C   0  0  0  0  0  3  0  0  0  0  0  0
  193.7400  171.5700  142.7980 O   0  0  0  0  0  0  0  0  0  0  0  0
  193.1280  172.4670  141.8950 C   0  0  1  0  0  3  0  0  0  0  0  0
  193.8430  174.9860  143.0680 C   0  0  2  0  0  3  0  0  0  0  0  0
  192.4060  171.7220  140.7240 C   0  0  1  0  0  3  0  0  0  0  0  0
  196.8620  173.2650  144.6630 C   0  0  2  0  0  3  0  0  0  0  0  0
  193.5590  169.5840  141.4580 C   0  0  1  0  0  3  0  0  0  0  0  0
  192.7070  174.2960  143.5750 O   0  0  0  0  0  0  0  0  0  0  0  0
  194.4900  170.6630  142.0310 C   0  0  2  0  0  3  0  0  0  0  0  0
  197.2230  173.2850  146.1390 C   0  0  0  0  0  1  0  0  0  0  0  0
  192.1360  173.3510  142.6730 C   0  0  1  0  0  3  0  0  0  0  0  0
  193.6910  175.5330  141.6460 C   0  0  0  0  0  2  0  0  0  0  0  0
  195.6300  172.8560  139.2620 C   0  0  0  0  0  2  0  0  0  0  0  0
  195.0220  175.9220  141.0920 C   0  0  0  0  0  0  0  0  0  0  0  0
  194.8640  174.1760  139.2750 C   0  0  0  0  0  2  0  0  0  0  0  0
  197.9310  171.8530  138.6740 C   0  0  0  0  0  1  0  0  0  0  0  0
  195.6240  175.1720  140.0260 N   0  0  0  0  0  0  0  0  0  0  0  0
  197.1050  173.0470  139.0040 C   0  0  0  0  0  0  0  0  0  0  0  0
  196.9750  175.4830  139.5690 C   0  0  0  0  0  2  0  0  0  0  0  0
  195.6360  176.8940  141.6090 O   0  0  0  0  0  0  0  0  0  0  0  0
  197.7210  174.2250  139.2100 C   0  0  0  0  0  3  0  0  0  0  0  0
  188.7910  176.2440  141.7590 C   0  0  1  0  0  3  0  0  0  0  0  0
  187.9250  177.3210  141.1640 C   0  0  0  0  0  0  0  0  0  0  0  0
  188.3000  178.4820  141.1610 O   0  0  0  0  0  0  0  0  0  0  0  0
  186.5990  176.9820  140.5620 C   0  0  2  0  0  3  0  0  0  0  0  0
  186.5650  177.3740  139.2210 O   0  0  0  0  0  1  0  0  0  0  0  0
  185.4760  177.6510  141.3390 C   0  0  0  0  0  2  0  0  0  0  0  0
  184.4630  178.2580  140.3880 C   0  0  0  0  0  2  0  0  0  0  0  0
  183.0880  178.4570  142.3180 O   0  0  0  0  0  0  0  0  0  0  0  0
  183.1410  178.3530  141.0630 C   0  0  0  0  0  0  0  0  0  0  0  0
  181.9720  178.3050  140.2990 O   0  0  0  0  0  0  0  0  0  0  0  0
  180.6900  178.2000  140.8970 C   0  0  0  0  0  1  0  0  0  0  0  0
  189.6820  176.7880  142.8790 C   0  0  0  0  0  2  0  0  0  0  0  0
  191.3530  178.0250  149.2070 C   0  0  0  0  0  3  0  0  0  0  0  0
  190.4170  178.5890  148.4260 C   0  0  0  0  0  3  0  0  0  0  0  0
  188.2820  177.5490  144.8130 C   0  0  0  0  0  2  0  0  0  0  0  0
  189.7950  175.5210  146.2490 C   0  0  1  0  0  0  0  0  0  0  0  0
  189.3730  176.6720  147.1820 C   0  0  2  0  0  0  0  0  0  0  0  0
  189.1890  176.4140  144.2680 C   0  0  2  0  0  3  0  0  0  0  0  0
  187.4030  177.2410  146.0830 C   0  0  2  0  0  3  0  0  0  0  0  0
  192.1830  176.7940  148.9050 C   0  0  0  0  0  2  0  0  0  0  0  0
  191.8140  176.0300  147.6340 C   0  0  0  0  0  2  0  0  0  0  0  0
  187.9720  176.6210  147.2520 O   0  0  0  0  0  0  0  0  0  0  0  0
  190.0210  178.0750  147.0750 C   0  0  0  0  0  2  0  0  0  0  0  0
  190.3120  176.1310  145.0940 O   0  0  0  0  0  0  0  0  0  0  0  0
  190.3510  175.5920  147.6630 C   0  0  2  0  0  3  0  0  0  0  0  0
  188.6400  173.6160  147.2520 F   0  0  0  0  0  0  0  0  0  0  0  0
  188.9190  174.2590  146.0550 C   0  0  2  0  0  3  0  0  0  0  0  0
  189.6050  173.2880  145.1110 C   0  0  0  0  0  1  0  0  0  0  0  0
  185.2290  176.3190  146.9810 C   0  0  0  0  0  1  0  0  0  0  0  0
  186.0120  176.7100  145.7390 C   0  0  1  0  0  3  0  0  0  0  0  0
  184.2620  178.4160  145.4850 C   0  0  0  0  0  2  0  0  0  0  0  0
  185.2550  177.7180  144.9380 C   0  0  0  0  0  3  0  0  0  0  0  0
  2  1  2  0  0  0  0
  2  3  1  0  0  0  0
  4  2  1  0  0  0  0
  5  4  1  0  0  0  0
  6  5  1  0  0  0  0
  6  4  1  0  0  0  0
  8 14  1  0  0  0  0
  9 23  1  0  0  0  0
 11 22  1  0  0  0  0
 11 10  2  0  0  0  0
 12 11  1  0  0  0  0
 13  4  1  6  0  0  0
 13 15  1  0  0  0  0
 14 17  2  0  0  0  0
 16 21  1  0  0  0  0
 16 13  1  0  0  0  0
 17 22  1  0  0  0  0
 19 27  1  0  0  0  0
 19 18  1  1  0  0  0
 20 28  1  6  0  0  0
 20 12  1  0  0  0  0
 20 24  1  0  0  0  0
 21  9  1  1  0  0  0
 21 19  1  0  0  0  0
 22 26  1  1  0  0  0
 23 25  1  0  0  0  0
 23  7  1  1  0  0  0
 25  8  1  1  0  0  0
 25 18  1  0  0  0  0
 27 15  1  6  0  0  0
 27 24  1  0  0  0  0
 29 31  1  0  0  0  0
 30 36  2  0  0  0  0
 30 28  1  0  0  0  0
 31 33  1  0  0  0  0
 32 34  1  0  0  0  0
 33 30  1  0  0  0  0
 34 37  2  0  0  0  0
 34 29  1  0  0  0  0
 35 33  1  0  0  0  0
 37 35  1  0  0  0  0
 38  3  1  0  0  0  0
 38 49  1  1  0  0  0
 39 38  1  0  0  0  0
 40 39  2  0  0  0  0
 41 42  1  6  0  0  0
 41 39  1  0  0  0  0
 41 43  1  0  0  0  0
 44 46  1  0  0  0  0
 44 43  1  0  0  0  0
 46 45  2  0  0  0  0
 47 48  1  0  0  0  0
 47 46  1  0  0  0  0
 51 50  2  0  0  0  0
 52 56  1  0  0  0  0
 53 64  1  6  0  0  0
 53 54  1  0  0  0  0
 53 62  1  0  0  0  0
 54 60  1  6  0  0  0
 54 59  1  0  0  0  0
 54 62  1  0  0  0  0
 55 49  1  6  0  0  0
 55 52  1  0  0  0  0
 55 61  1  0  0  0  0
 56 67  1  6  0  0  0
 56 59  1  0  0  0  0
 57 50  1  0  0  0  0
 58 57  1  0  0  0  0
 60 51  1  0  0  0  0
 61 53  1  0  0  0  0
 62 58  1  6  0  0  0
 64 65  1  6  0  0  0
 64 63  1  0  0  0  0
 67 66  1  1  0  0  0
 69 68  2  0  0  0  0
 69 67  1  0  0  0  0
M  END
>  <MODEL>
2

>  <REMARK>
 VINA RESULT:      -7.1      1.389      2.005
  Name = 
  16 active torsions:
  status: ('A' for Active; 'I' for Inactive)
    1  A    between atoms: C_4  and  C_67
    2  A    between atoms: C_10  and  C_45
    3  A    between atoms: C_10  and  C_59
    4  A    between atoms: C_18  and  C_19
    5  A    between atoms: C_19  and  C_37
    6  A    between atoms: C_21  and  C_52
    7  A    between atoms: C_21  and  C_59
    8  A    between atoms: C_22  and  C_45
    9  A    between atoms: C_22  and  C_49
   10  A    between atoms: C_22  and  N_60
   11  A    between atoms: C_23  and  C_29
   12  A    between atoms: C_25  and  C_49
   13  A    between atoms: C_27  and  C_36
   14  A    between atoms: C_36  and  C_57
   15  A    between atoms: C_47  and  C_67
   16  A    between atoms: O_50  and  C_52
                            x       y       z     vdW  Elec       q    Type
                         _______ _______ _______ _____ _____    ______ ____

>  <TORSDO>
F 16

$$$$
=
 OpenBabel11072408393D

 69 76  0  0  1  0  0  0  0  0999 V2000
  192.2350  175.9650  146.8480 O   0  0  0  0  0  0  0  0  0  0  0  0
  191.9310  175.4210  145.7530 C   0  0  0  0  0  0  0  0  0  0  0  0
  192.9720  175.1590  144.8050 N   0  0  0  0  0  2  0  0  0  0  0  0
  190.4930  175.0920  145.4710 C   0  0  0  0  0  0  0  0  0  0  0  0
  189.7520  174.4040  146.6040 C   0  0  0  0  0  2  0  0  0  0  0  0
  189.4810  175.8650  146.3040 C   0  0  0  0  0  2  0  0  0  0  0  0
  191.2020  171.4480  140.0970 O   0  0  0  0  0  1  0  0  0  0  0  0
  188.8680  172.2580  138.5930 C   0  0  0  0  0  2  0  0  0  0  0  0
  190.3080  172.0770  142.2250 C   0  0  0  0  0  2  0  0  0  0  0  0
  186.8170  177.5970  138.5560 O   0  0  0  0  0  0  0  0  0  0  0  0
  187.0690  176.3660  138.6760 C   0  0  0  0  0  0  0  0  0  0  0  0
  187.2080  175.8020  139.9490 O   0  0  0  0  0  0  0  0  0  0  0  0
  190.0720  174.7110  144.0450 C   0  0  2  0  0  3  0  0  0  0  0  0
  187.8330  173.2100  138.0900 C   0  0  0  0  0  3  0  0  0  0  0  0
  189.2610  175.7030  143.4690 O   0  0  0  0  0  0  0  0  0  0  0  0
  189.3900  173.4780  144.0410 O   0  0  0  0  0  0  0  0  0  0  0  0
  188.2020  174.4340  137.7220 C   0  0  0  0  0  3  0  0  0  0  0  0
  189.3770  173.8290  140.3740 O   0  0  0  0  0  0  0  0  0  0  0  0
  188.8520  174.1300  141.6500 C   0  0  1  0  0  3  0  0  0  0  0  0
  187.4830  176.5910  141.1030 C   0  0  2  0  0  3  0  0  0  0  0  0
  189.2140  173.0360  142.7080 C   0  0  1  0  0  3  0  0  0  0  0  0
  187.1830  175.4890  137.4540 C   0  0  2  0  0  3  0  0  0  0  0  0
  190.0040  171.5500  140.8090 C   0  0  1  0  0  3  0  0  0  0  0  0
  188.8800  176.6330  141.3690 O   0  0  0  0  0  0  0  0  0  0  0  0
  189.0300  172.4970  140.0910 C   0  0  2  0  0  3  0  0  0  0  0  0
  187.6230  176.2920  136.2410 C   0  0  0  0  0  1  0  0  0  0  0  0
  189.3800  175.5090  142.0880 C   0  0  1  0  0  3  0  0  0  0  0  0
  186.6040  176.2060  142.2970 C   0  0  0  0  0  2  0  0  0  0  0  0
  186.5840  177.8170  146.0400 C   0  0  0  0  0  2  0  0  0  0  0  0
  185.6190  177.2890  142.5890 C   0  0  0  0  0  0  0  0  0  0  0  0
  186.9550  178.0740  144.5820 C   0  0  0  0  0  2  0  0  0  0  0  0
  185.0770  178.7030  147.9350 C   0  0  0  0  0  1  0  0  0  0  0  0
  185.7430  178.0980  143.7690 N   0  0  0  0  0  0  0  0  0  0  0  0
  185.3840  178.6200  146.4800 C   0  0  0  0  0  0  0  0  0  0  0  0
  184.7130  179.0750  144.1110 C   0  0  0  0  0  2  0  0  0  0  0  0
  184.6440  177.4520  141.8080 O   0  0  0  0  0  0  0  0  0  0  0  0
  184.5030  179.1300  145.6010 C   0  0  0  0  0  3  0  0  0  0  0  0
  192.7710  174.6350  143.4570 C   0  0  1  0  0  3  0  0  0  0  0  0
  193.3330  175.5890  142.4400 C   0  0  0  0  0  0  0  0  0  0  0  0
  193.3250  176.7920  142.6520 O   0  0  0  0  0  0  0  0  0  0  0  0
  193.9170  175.0800  141.1610 C   0  0  2  0  0  3  0  0  0  0  0  0
  194.5650  176.1150  140.4820 O   0  0  0  0  0  1  0  0  0  0  0  0
  192.8320  174.4690  140.2880 C   0  0  0  0  0  2  0  0  0  0  0  0
  193.4490  173.6490  139.1720 C   0  0  0  0  0  2  0  0  0  0  0  0
  191.7090  173.7800  137.5570 O   0  0  0  0  0  0  0  0  0  0  0  0
  192.8920  174.0880  137.8650 C   0  0  0  0  0  0  0  0  0  0  0  0
  193.6930  174.8200  136.9850 O   0  0  0  0  0  0  0  0  0  0  0  0
  193.3540  176.1380  136.5830 C   0  0  0  0  0  1  0  0  0  0  0  0
  193.3510  173.2270  143.2950 C   0  0  0  0  0  2  0  0  0  0  0  0
  197.6090  168.4720  145.1980 C   0  0  0  0  0  3  0  0  0  0  0  0
  197.4360  169.0610  144.0040 C   0  0  0  0  0  3  0  0  0  0  0  0
  195.6780  172.7200  142.5180 C   0  0  0  0  0  2  0  0  0  0  0  0
  196.1780  172.3930  145.3640 C   0  0  1  0  0  0  0  0  0  0  0  0
  197.1080  171.4970  144.5250 C   0  0  2  0  0  0  0  0  0  0  0  0
  194.8030  173.1260  143.7330 C   0  0  2  0  0  3  0  0  0  0  0  0
  197.2390  172.8720  142.6530 C   0  0  2  0  0  3  0  0  0  0  0  0
  196.9840  168.8730  146.5200 C   0  0  0  0  0  2  0  0  0  0  0  0
  196.1830  170.1740  146.5170 C   0  0  0  0  0  2  0  0  0  0  0  0
  197.9410  172.3670  143.8050 O   0  0  0  0  0  0  0  0  0  0  0  0
  196.5650  170.2580  143.7690 C   0  0  0  0  0  2  0  0  0  0  0  0
  194.8900  172.2220  144.8290 O   0  0  0  0  0  0  0  0  0  0  0  0
  197.0440  171.3470  146.0500 C   0  0  2  0  0  3  0  0  0  0  0  0
  197.6910  173.8340  146.6310 F   0  0  0  0  0  0  0  0  0  0  0  0
  196.5860  173.8240  145.7930 C   0  0  2  0  0  3  0  0  0  0  0  0
  195.4240  174.5130  146.4850 C   0  0  0  0  0  1  0  0  0  0  0  0
  197.6380  174.3980  140.6800 C   0  0  0  0  0  1  0  0  0  0  0  0
  197.7560  174.2320  142.1840 C   0  0  1  0  0  3  0  0  0  0  0  0
  197.5870  176.5400  143.0100 C   0  0  0  0  0  2  0  0  0  0  0  0
  197.0370  175.3330  142.8920 C   0  0  0  0  0  3  0  0  0  0  0  0
  2  1  2  0  0  0  0
  3  2  1  0  0  0  0
  4  2  1  0  0  0  0
  4  6  1  0  0  0  0
  4  5  1  0  0  0  0
  6  5  1  0  0  0  0
 10 11  2  0  0  0  0
 11 12  1  0  0  0  0
 12 20  1  0  0  0  0
 13  4  1  1  0  0  0
 14  8  1  0  0  0  0
 15 13  1  0  0  0  0
 16 13  1  0  0  0  0
 17 14  2  0  0  0  0
 19 18  1  6  0  0  0
 19 27  1  0  0  0  0
 19 21  1  0  0  0  0
 20 24  1  0  0  0  0
 20 28  1  1  0  0  0
 21  9  1  6  0  0  0
 21 16  1  0  0  0  0
 22 26  1  6  0  0  0
 22 17  1  0  0  0  0
 22 11  1  0  0  0  0
 23  7  1  6  0  0  0
 23  9  1  0  0  0  0
 25  8  1  6  0  0  0
 25 18  1  0  0  0  0
 25 23  1  0  0  0  0
 27 24  1  6  0  0  0
 27 15  1  0  0  0  0
 28 30  1  0  0  0  0
 29 34  1  0  0  0  0
 30 33  1  0  0  0  0
 31 29  1  0  0  0  0
 33 35  1  0  0  0  0
 33 31  1  0  0  0  0
 34 32  1  0  0  0  0
 35 37  1  0  0  0  0
 36 30  2  0  0  0  0
 37 34  2  0  0  0  0
 38 49  1  1  0  0  0
 38  3  1  0  0  0  0
 39 40  2  0  0  0  0
 39 38  1  0  0  0  0
 41 42  1  6  0  0  0
 41 39  1  0  0  0  0
 43 41  1  0  0  0  0
 44 43  1  0  0  0  0
 45 46  2  0  0  0  0
 46 44  1  0  0  0  0
 47 46  1  0  0  0  0
 48 47  1  0  0  0  0
 50 57  1  0  0  0  0
 51 50  2  0  0  0  0
 52 56  1  0  0  0  0
 52 55  1  0  0  0  0
 53 64  1  1  0  0  0
 53 62  1  0  0  0  0
 54 60  1  6  0  0  0
 54 53  1  0  0  0  0
 54 62  1  0  0  0  0
 55 49  1  6  0  0  0
 55 61  1  0  0  0  0
 56 67  1  1  0  0  0
 56 59  1  0  0  0  0
 58 57  1  0  0  0  0
 59 54  1  0  0  0  0
 60 51  1  0  0  0  0
 61 53  1  0  0  0  0
 62 58  1  6  0  0  0
 64 65  1  1  0  0  0
 64 63  1  0  0  0  0
 67 66  1  6  0  0  0
 67 69  1  0  0  0  0
 69 68  2  0  0  0  0
M  END
>  <MODEL>
3

>  <REMARK>
 VINA RESULT:      -6.4      2.383      9.136
  Name = 
  16 active torsions:
  status: ('A' for Active; 'I' for Inactive)
    1  A    between atoms: C_4  and  C_67
    2  A    between atoms: C_10  and  C_45
    3  A    between atoms: C_10  and  C_59
    4  A    between atoms: C_18  and  C_19
    5  A    between atoms: C_19  and  C_37
    6  A    between atoms: C_21  and  C_52
    7  A    between atoms: C_21  and  C_59
    8  A    between atoms: C_22  and  C_45
    9  A    between atoms: C_22  and  C_49
   10  A    between atoms: C_22  and  N_60
   11  A    between atoms: C_23  and  C_29
   12  A    between atoms: C_25  and  C_49
   13  A    between atoms: C_27  and  C_36
   14  A    between atoms: C_36  and  C_57
   15  A    between atoms: C_47  and  C_67
   16  A    between atoms: O_50  and  C_52
                            x       y       z     vdW  Elec       q    Type
                         _______ _______ _______ _____ _____    ______ ____

>  <TORSDO>
F 16

$$$$
=
 OpenBabel11072408393D

 69 76  0  0  1  0  0  0  0  0999 V2000
  191.0670  170.2030  141.4420 O   0  0  0  0  0  0  0  0  0  0  0  0
  191.7070  171.1760  140.9610 C   0  0  0  0  0  0  0  0  0  0  0  0
  193.1310  171.0750  140.8530 N   0  0  0  0  0  2  0  0  0  0  0  0
  190.9610  172.4100  140.5430 C   0  0  0  0  0  0  0  0  0  0  0  0
  191.3620  172.9850  139.1960 C   0  0  0  0  0  2  0  0  0  0  0  0
  190.0520  172.2350  139.3350 C   0  0  0  0  0  2  0  0  0  0  0  0
  191.4990  175.0280  146.5040 O   0  0  0  0  0  1  0  0  0  0  0  0
  189.6960  177.2770  146.2620 C   0  0  0  0  0  2  0  0  0  0  0  0
  191.8840  174.8160  144.1510 C   0  0  0  0  0  2  0  0  0  0  0  0
  184.8060  177.1140  143.3000 O   0  0  0  0  0  0  0  0  0  0  0  0
  185.9550  177.3020  143.7880 C   0  0  0  0  0  0  0  0  0  0  0  0
  187.0910  176.9370  143.0590 O   0  0  0  0  0  0  0  0  0  0  0  0
  190.5090  173.4170  141.6110 C   0  0  2  0  0  3  0  0  0  0  0  0
  188.4730  178.0000  145.8030 C   0  0  0  0  0  3  0  0  0  0  0  0
  189.2500  173.9590  141.3030 O   0  0  0  0  0  0  0  0  0  0  0  0
  191.4530  174.4540  141.7460 O   0  0  0  0  0  0  0  0  0  0  0  0
  187.3020  177.3670  145.8140 C   0  0  0  0  0  3  0  0  0  0  0  0
  189.3230  175.6360  144.5110 O   0  0  0  0  0  0  0  0  0  0  0  0
  189.6210  175.5270  143.1340 C   0  0  1  0  0  3  0  0  0  0  0  0
  187.0370  176.0050  141.9830 C   0  0  2  0  0  3  0  0  0  0  0  0
  191.1370  175.2390  142.8810 C   0  0  1  0  0  3  0  0  0  0  0  0
  186.1110  177.9550  145.1390 C   0  0  2  0  0  3  0  0  0  0  0  0
  191.5810  175.7710  145.3230 C   0  0  1  0  0  3  0  0  0  0  0  0
  187.3500  174.6920  142.4320 O   0  0  0  0  0  0  0  0  0  0  0  0
  190.2640  176.5200  145.0650 C   0  0  2  0  0  3  0  0  0  0  0  0
  184.8890  177.7140  146.0100 C   0  0  0  0  0  1  0  0  0  0  0  0
  188.7460  174.4150  142.5260 C   0  0  1  0  0  3  0  0  0  0  0  0
  187.8240  176.4790  140.7580 C   0  0  0  0  0  2  0  0  0  0  0  0
  188.6920  174.8620  137.1190 C   0  0  0  0  0  2  0  0  0  0  0  0
  186.8980  176.7670  139.6240 C   0  0  0  0  0  0  0  0  0  0  0  0
  187.7510  174.7820  138.3190 C   0  0  0  0  0  2  0  0  0  0  0  0
  188.7030  175.2990  134.5790 C   0  0  0  0  0  1  0  0  0  0  0  0
  186.9670  176.0100  138.4060 N   0  0  0  0  0  0  0  0  0  0  0  0
  188.0150  175.4260  135.8930 C   0  0  0  0  0  0  0  0  0  0  0  0
  186.1410  176.3720  137.2570 C   0  0  0  0  0  2  0  0  0  0  0  0
  186.0820  177.7220  139.7310 O   0  0  0  0  0  0  0  0  0  0  0  0
  186.8960  176.1670  135.9710 C   0  0  0  0  0  3  0  0  0  0  0  0
  194.0220  172.1470  140.4190 C   0  0  1  0  0  3  0  0  0  0  0  0
  194.2890  173.0930  141.5570 C   0  0  0  0  0  0  0  0  0  0  0  0
  194.2650  172.6930  142.7100 O   0  0  0  0  0  0  0  0  0  0  0  0
  194.5970  174.5320  141.2920 C   0  0  2  0  0  3  0  0  0  0  0  0
  194.0060  174.9370  140.0920 O   0  0  0  0  0  1  0  0  0  0  0  0
  196.1010  174.7530  141.2440 C   0  0  0  0  0  2  0  0  0  0  0  0
  196.7340  174.3710  142.5680 C   0  0  0  0  0  2  0  0  0  0  0  0
  197.1190  176.6560  143.1010 O   0  0  0  0  0  0  0  0  0  0  0  0
  196.6960  175.5350  143.4930 C   0  0  0  0  0  0  0  0  0  0  0  0
  196.2090  175.3680  144.7910 O   0  0  0  0  0  0  0  0  0  0  0  0
  196.4720  174.1940  145.5440 C   0  0  0  0  0  1  0  0  0  0  0  0
  195.3200  171.6060  139.8140 C   0  0  0  0  0  2  0  0  0  0  0  0
  190.9030  172.4730  134.9050 C   0  0  0  0  0  3  0  0  0  0  0  0
  191.7940  173.3260  135.4370 C   0  0  0  0  0  3  0  0  0  0  0  0
  195.4270  173.0420  137.7630 C   0  0  0  0  0  2  0  0  0  0  0  0
  194.3280  170.6740  136.4800 C   0  0  1  0  0  0  0  0  0  0  0  0
  193.8790  171.9610  135.7620 C   0  0  2  0  0  0  0  0  0  0  0  0
  195.3080  171.5890  138.2930 C   0  0  2  0  0  3  0  0  0  0  0  0
  195.7620  173.2420  136.2380 C   0  0  2  0  0  3  0  0  0  0  0  0
  190.7850  170.9850  135.1650 C   0  0  0  0  0  2  0  0  0  0  0  0
  191.8910  170.3620  136.0170 C   0  0  0  0  0  2  0  0  0  0  0  0
  195.0410  172.5270  135.2150 O   0  0  0  0  0  0  0  0  0  0  0  0
  192.8620  172.9330  136.4120 C   0  0  0  0  0  2  0  0  0  0  0  0
  194.1380  170.9110  137.8510 O   0  0  0  0  0  0  0  0  0  0  0  0
  193.2640  170.6040  135.3940 C   0  0  2  0  0  3  0  0  0  0  0  0
  195.5950  169.5460  134.7200 F   0  0  0  0  0  0  0  0  0  0  0  0
  195.6050  169.9050  136.0600 C   0  0  2  0  0  3  0  0  0  0  0  0
  195.7670  168.6600  136.9130 C   0  0  0  0  0  1  0  0  0  0  0  0
  197.5920  173.0040  134.5140 C   0  0  0  0  0  1  0  0  0  0  0  0
  197.2600  173.3410  135.9570 C   0  0  1  0  0  3  0  0  0  0  0  0
  197.0890  175.7920  135.9480 C   0  0  0  0  0  2  0  0  0  0  0  0
  197.7650  174.7030  136.3070 C   0  0  0  0  0  3  0  0  0  0  0  0
  2  1  2  0  0  0  0
  3  2  1  0  0  0  0
  4  2  1  0  0  0  0
  5  6  1  0  0  0  0
  5  4  1  0  0  0  0
  6  4  1  0  0  0  0
  9 23  1  0  0  0  0
 10 11  2  0  0  0  0
 11 22  1  0  0  0  0
 12 11  1  0  0  0  0
 13  4  1  6  0  0  0
 13 16  1  0  0  0  0
 14 17  2  0  0  0  0
 14  8  1  0  0  0  0
 15 13  1  0  0  0  0
 16 21  1  0  0  0  0
 18 25  1  0  0  0  0
 19 18  1  1  0  0  0
 20 28  1  6  0  0  0
 20 24  1  0  0  0  0
 20 12  1  0  0  0  0
 21 19  1  0  0  0  0
 21  9  1  1  0  0  0
 22 17  1  0  0  0  0
 22 26  1  1  0  0  0
 23  7  1  1  0  0  0
 24 27  1  0  0  0  0
 25 23  1  0  0  0  0
 25  8  1  1  0  0  0
 27 15  1  6  0  0  0
 27 19  1  0  0  0  0
 29 31  1  0  0  0  0
 30 36  2  0  0  0  0
 30 28  1  0  0  0  0
 31 33  1  0  0  0  0
 32 34  1  0  0  0  0
 33 30  1  0  0  0  0
 34 37  2  0  0  0  0
 34 29  1  0  0  0  0
 35 33  1  0  0  0  0
 37 35  1  0  0  0  0
 38 49  1  1  0  0  0
 38  3  1  0  0  0  0
 38 39  1  0  0  0  0
 39 40  2  0  0  0  0
 41 42  1  6  0  0  0
 41 39  1  0  0  0  0
 43 41  1  0  0  0  0
 43 44  1  0  0  0  0
 44 46  1  0  0  0  0
 45 46  2  0  0  0  0
 46 47  1  0  0  0  0
 47 48  1  0  0  0  0
 50 57  1  0  0  0  0
 50 51  2  0  0  0  0
 51 60  1  0  0  0  0
 52 55  1  0  0  0  0
 53 64  1  6  0  0  0
 53 61  1  0  0  0  0
 54 60  1  1  0  0  0
 54 53  1  0  0  0  0
 55 49  1  1  0  0  0
 56 67  1  1  0  0  0
 56 52  1  0  0  0  0
 57 58  1  0  0  0  0
 59 54  1  0  0  0  0
 59 56  1  0  0  0  0
 61 55  1  0  0  0  0
 62 54  1  0  0  0  0
 62 58  1  1  0  0  0
 62 53  1  0  0  0  0
 63 64  1  0  0  0  0
 64 65  1  1  0  0  0
 67 66  1  6  0  0  0
 67 69  1  0  0  0  0
 68 69  2  0  0  0  0
M  END
>  <MODEL>
4

>  <REMARK>
 VINA RESULT:      -6.1      3.204     10.701
  Name = 
  16 active torsions:
  status: ('A' for Active; 'I' for Inactive)
    1  A    between atoms: C_4  and  C_67
    2  A    between atoms: C_10  and  C_45
    3  A    between atoms: C_10  and  C_59
    4  A    between atoms: C_18  and  C_19
    5  A    between atoms: C_19  and  C_37
    6  A    between atoms: C_21  and  C_52
    7  A    between atoms: C_21  and  C_59
    8  A    between atoms: C_22  and  C_45
    9  A    between atoms: C_22  and  C_49
   10  A    between atoms: C_22  and  N_60
   11  A    between atoms: C_23  and  C_29
   12  A    between atoms: C_25  and  C_49
   13  A    between atoms: C_27  and  C_36
   14  A    between atoms: C_36  and  C_57
   15  A    between atoms: C_47  and  C_67
   16  A    between atoms: O_50  and  C_52
                            x       y       z     vdW  Elec       q    Type
                         _______ _______ _______ _____ _____    ______ ____

>  <TORSDO>
F 16

$$$$
=
 OpenBabel11072408393D

 69 76  0  0  1  0  0  0  0  0999 V2000
  189.3510  175.0010  140.6220 O   0  0  0  0  0  0  0  0  0  0  0  0
  189.6740  174.0250  141.3500 C   0  0  0  0  0  0  0  0  0  0  0  0
  190.0220  174.2740  142.7170 N   0  0  0  0  0  2  0  0  0  0  0  0
  189.7070  172.6460  140.7570 C   0  0  0  0  0  0  0  0  0  0  0  0
  189.3310  171.5220  141.7070 C   0  0  0  0  0  2  0  0  0  0  0  0
  188.3510  171.9650  140.6380 C   0  0  0  0  0  2  0  0  0  0  0  0
  191.2630  171.2610  134.5660 O   0  0  0  0  0  1  0  0  0  0  0  0
  194.1500  171.3590  134.7090 C   0  0  0  0  0  2  0  0  0  0  0  0
  190.9130  172.6400  136.4900 C   0  0  0  0  0  2  0  0  0  0  0  0
  197.1640  169.5430  139.2180 O   0  0  0  0  0  0  0  0  0  0  0  0
  196.5770  170.1570  138.2840 C   0  0  0  0  0  0  0  0  0  0  0  0
  195.5980  171.1100  138.5820 O   0  0  0  0  0  0  0  0  0  0  0  0
  190.7480  172.3120  139.6790 C   0  0  2  0  0  3  0  0  0  0  0  0
  195.4910  171.1580  135.3330 C   0  0  0  0  0  3  0  0  0  0  0  0
  191.9670  171.9130  140.2520 O   0  0  0  0  0  0  0  0  0  0  0  0
  190.9590  173.4200  138.8330 O   0  0  0  0  0  0  0  0  0  0  0  0
  195.7340  170.0340  136.0040 C   0  0  0  0  0  3  0  0  0  0  0  0
  193.1490  171.1640  136.9130 O   0  0  0  0  0  0  0  0  0  0  0  0
  192.9110  172.0270  138.0040 C   0  0  1  0  0  3  0  0  0  0  0  0
  194.9320  171.1460  139.8400 C   0  0  2  0  0  3  0  0  0  0  0  0
  191.7410  173.0260  137.7210 C   0  0  1  0  0  3  0  0  0  0  0  0
  196.9560  169.8970  136.8470 C   0  0  2  0  0  3  0  0  0  0  0  0
  191.8180  172.3240  135.2830 C   0  0  1  0  0  3  0  0  0  0  0  0
  193.7030  170.4320  139.7870 O   0  0  0  0  0  0  0  0  0  0  0  0
  193.2330  171.9690  135.7640 C   0  0  2  0  0  3  0  0  0  0  0  0
  197.5130  168.4950  136.6700 C   0  0  0  0  0  1  0  0  0  0  0  0
  192.6100  171.1740  139.2510 C   0  0  1  0  0  3  0  0  0  0  0  0
  194.8370  172.5650  140.4090 C   0  0  0  0  0  2  0  0  0  0  0  0
  195.4790  174.7780  137.0480 C   0  0  0  0  0  2  0  0  0  0  0  0
  196.1450  173.2700  140.2730 C   0  0  0  0  0  0  0  0  0  0  0  0
  195.2030  174.8530  138.5470 C   0  0  0  0  0  2  0  0  0  0  0  0
  197.2290  175.4380  135.2740 C   0  0  0  0  0  1  0  0  0  0  0  0
  196.3330  174.2900  139.2790 N   0  0  0  0  0  0  0  0  0  0  0  0
  196.8920  175.1810  136.7010 C   0  0  0  0  0  0  0  0  0  0  0  0
  197.6470  174.8920  139.0700 C   0  0  0  0  0  2  0  0  0  0  0  0
  197.1040  172.9230  141.0140 O   0  0  0  0  0  0  0  0  0  0  0  0
  197.8840  175.1640  137.6090 C   0  0  0  0  0  3  0  0  0  0  0  0
  190.5180  173.2720  143.6560 C   0  0  1  0  0  3  0  0  0  0  0  0
  192.0110  173.1400  143.5350 C   0  0  0  0  0  0  0  0  0  0  0  0
  192.5140  172.0600  143.2660 O   0  0  0  0  0  0  0  0  0  0  0  0
  192.8980  174.3280  143.7320 C   0  0  2  0  0  3  0  0  0  0  0  0
  193.1090  174.9780  142.5130 O   0  0  0  0  0  1  0  0  0  0  0  0
  194.2240  173.9040  144.3450 C   0  0  0  0  0  2  0  0  0  0  0  0
  195.3800  174.5250  143.5850 C   0  0  0  0  0  2  0  0  0  0  0  0
  196.6670  173.3620  145.2100 O   0  0  0  0  0  0  0  0  0  0  0  0
  196.6580  174.2060  144.2740 C   0  0  0  0  0  0  0  0  0  0  0  0
  197.8310  174.8610  143.8900 O   0  0  0  0  0  0  0  0  0  0  0  0
  197.8050  176.0490  143.1160 C   0  0  0  0  0  1  0  0  0  0  0  0
  190.0910  173.5720  145.0950 C   0  0  0  0  0  2  0  0  0  0  0  0
  185.0830  177.7910  146.3150 C   0  0  0  0  0  3  0  0  0  0  0  0
  185.9320  177.1780  147.1560 C   0  0  0  0  0  3  0  0  0  0  0  0
  189.8120  175.2900  146.8980 C   0  0  0  0  0  2  0  0  0  0  0  0
  188.8360  176.9240  144.6990 C   0  0  1  0  0  0  0  0  0  0  0  0
  188.1740  177.3230  146.0310 C   0  0  2  0  0  0  0  0  0  0  0  0
  189.9100  175.0570  145.3670 C   0  0  2  0  0  3  0  0  0  0  0  0
  189.9500  176.7660  147.4270 C   0  0  2  0  0  3  0  0  0  0  0  0
  185.1560  177.8290  144.8020 C   0  0  0  0  0  2  0  0  0  0  0  0
  186.4100  177.2230  144.1730 C   0  0  0  0  0  2  0  0  0  0  0  0
  189.2000  177.8440  146.8350 O   0  0  0  0  0  0  0  0  0  0  0  0
  187.1380  176.4010  146.7230 C   0  0  0  0  0  2  0  0  0  0  0  0
  188.7770  175.5220  144.6430 O   0  0  0  0  0  0  0  0  0  0  0  0
  187.6710  177.9030  144.7030 C   0  0  2  0  0  3  0  0  0  0  0  0
  190.3150  178.8700  144.7270 F   0  0  0  0  0  0  0  0  0  0  0  0
  190.1330  177.6030  144.1930 C   0  0  2  0  0  3  0  0  0  0  0  0
  190.1180  177.6930  142.6780 C   0  0  0  0  0  1  0  0  0  0  0  0
  191.5460  177.5270  149.2310 C   0  0  0  0  0  1  0  0  0  0  0  0
  191.3890  177.1530  147.7680 C   0  0  1  0  0  3  0  0  0  0  0  0
  193.3430  176.2590  146.5770 C   0  0  0  0  0  2  0  0  0  0  0  0
  192.3240  176.0460  147.4060 C   0  0  0  0  0  3  0  0  0  0  0  0
  1  2  2  0  0  0  0
  2  3  1  0  0  0  0
  3 38  1  0  0  0  0
  4  2  1  0  0  0  0
  4  5  1  0  0  0  0
  6  4  1  0  0  0  0
  6  5  1  0  0  0  0
  8 14  1  0  0  0  0
 11 12  1  0  0  0  0
 11 10  2  0  0  0  0
 12 20  1  0  0  0  0
 13 15  1  0  0  0  0
 13  4  1  1  0  0  0
 14 17  2  0  0  0  0
 16 13  1  0  0  0  0
 17 22  1  0  0  0  0
 19 18  1  6  0  0  0
 19 27  1  0  0  0  0
 20 28  1  6  0  0  0
 21  9  1  6  0  0  0
 21 19  1  0  0  0  0
 21 16  1  0  0  0  0
 22 26  1  1  0  0  0
 22 11  1  0  0  0  0
 23  7  1  1  0  0  0
 23 25  1  0  0  0  0
 23  9  1  0  0  0  0
 24 20  1  0  0  0  0
 25  8  1  6  0  0  0
 25 18  1  0  0  0  0
 27 24  1  1  0  0  0
 27 15  1  0  0  0  0
 29 31  1  0  0  0  0
 30 28  1  0  0  0  0
 30 36  2  0  0  0  0
 31 33  1  0  0  0  0
 32 34  1  0  0  0  0
 33 30  1  0  0  0  0
 34 29  1  0  0  0  0
 34 37  2  0  0  0  0
 35 33  1  0  0  0  0
 37 35  1  0  0  0  0
 38 49  1  1  0  0  0
 39 38  1  0  0  0  0
 39 41  1  0  0  0  0
 40 39  2  0  0  0  0
 41 42  1  6  0  0  0
 41 43  1  0  0  0  0
 44 46  1  0  0  0  0
 44 43  1  0  0  0  0
 46 45  2  0  0  0  0
 47 46  1  0  0  0  0
 48 47  1  0  0  0  0
 50 51  2  0  0  0  0
 52 56  1  0  0  0  0
 53 64  1  6  0  0  0
 53 62  1  0  0  0  0
 53 54  1  0  0  0  0
 54 60  1  1  0  0  0
 54 59  1  0  0  0  0
 55 49  1  1  0  0  0
 55 52  1  0  0  0  0
 56 67  1  6  0  0  0
 57 50  1  0  0  0  0
 58 57  1  0  0  0  0
 59 56  1  0  0  0  0
 60 51  1  0  0  0  0
 61 53  1  0  0  0  0
 61 55  1  0  0  0  0
 62 58  1  6  0  0  0
 62 54  1  0  0  0  0
 64 65  1  6  0  0  0
 64 63  1  0  0  0  0
 67 66  1  1  0  0  0
 68 69  2  0  0  0  0
 69 67  1  0  0  0  0
M  END
>  <MODEL>
5

>  <REMARK>
 VINA RESULT:      -6.0      2.605      6.391
  Name = 
  16 active torsions:
  status: ('A' for Active; 'I' for Inactive)
    1  A    between atoms: C_4  and  C_67
    2  A    between atoms: C_10  and  C_45
    3  A    between atoms: C_10  and  C_59
    4  A    between atoms: C_18  and  C_19
    5  A    between atoms: C_19  and  C_37
    6  A    between atoms: C_21  and  C_52
    7  A    between atoms: C_21  and  C_59
    8  A    between atoms: C_22  and  C_45
    9  A    between atoms: C_22  and  C_49
   10  A    between atoms: C_22  and  N_60
   11  A    between atoms: C_23  and  C_29
   12  A    between atoms: C_25  and  C_49
   13  A    between atoms: C_27  and  C_36
   14  A    between atoms: C_36  and  C_57
   15  A    between atoms: C_47  and  C_67
   16  A    between atoms: O_50  and  C_52
                            x       y       z     vdW  Elec       q    Type
                         _______ _______ _______ _____ _____    ______ ____

>  <TORSDO>
F 16

$$$$
=
 OpenBabel11072408393D

 69 76  0  0  1  0  0  0  0  0999 V2000
  189.3580  171.9710  139.6090 O   0  0  0  0  0  0  0  0  0  0  0  0
  190.4420  172.0900  140.2410 C   0  0  0  0  0  0  0  0  0  0  0  0
  191.6420  172.3410  139.5020 N   0  0  0  0  0  2  0  0  0  0  0  0
  190.4400  171.9420  141.7350 C   0  0  0  0  0  0  0  0  0  0  0  0
  190.1490  170.5420  142.2470 C   0  0  0  0  0  2  0  0  0  0  0  0
  191.5640  171.0840  142.2980 C   0  0  0  0  0  2  0  0  0  0  0  0
  190.3530  175.1620  147.4170 O   0  0  0  0  0  1  0  0  0  0  0  0
  188.8940  177.5420  146.6580 C   0  0  0  0  0  2  0  0  0  0  0  0
  191.0720  174.6410  145.1950 C   0  0  0  0  0  2  0  0  0  0  0  0
  184.5420  177.5410  142.9470 O   0  0  0  0  0  0  0  0  0  0  0  0
  185.6150  177.6650  143.6000 C   0  0  0  0  0  0  0  0  0  0  0  0
  186.7990  177.1040  143.1120 O   0  0  0  0  0  0  0  0  0  0  0  0
  189.9510  173.1070  142.6080 C   0  0  2  0  0  3  0  0  0  0  0  0
  187.8530  178.3280  145.9320 C   0  0  0  0  0  3  0  0  0  0  0  0
  188.8300  173.7350  142.0420 O   0  0  0  0  0  0  0  0  0  0  0  0
  190.9810  174.0500  142.7990 O   0  0  0  0  0  0  0  0  0  0  0  0
  186.6280  177.8250  145.8080 C   0  0  0  0  0  3  0  0  0  0  0  0
  188.6040  175.7560  145.0380 O   0  0  0  0  0  0  0  0  0  0  0  0
  189.0980  175.4590  143.7480 C   0  0  1  0  0  3  0  0  0  0  0  0
  186.8010  176.0630  142.1390 C   0  0  2  0  0  3  0  0  0  0  0  0
  190.5890  174.9890  143.7830 C   0  0  1  0  0  3  0  0  0  0  0  0
  185.6360  178.4510  144.8880 C   0  0  2  0  0  3  0  0  0  0  0  0
  190.7070  175.7510  146.2010 C   0  0  1  0  0  3  0  0  0  0  0  0
  186.8800  174.7860  142.7600 O   0  0  0  0  0  0  0  0  0  0  0  0
  189.5470  176.5970  145.6540 C   0  0  2  0  0  3  0  0  0  0  0  0
  184.2730  178.4390  145.5610 C   0  0  0  0  0  1  0  0  0  0  0  0
  188.2000  174.3800  143.1130 C   0  0  1  0  0  3  0  0  0  0  0  0
  187.8210  176.3100  141.0230 C   0  0  0  0  0  2  0  0  0  0  0  0
  188.9170  174.4990  137.5400 C   0  0  0  0  0  2  0  0  0  0  0  0
  187.1290  176.7260  139.7670 C   0  0  0  0  0  0  0  0  0  0  0  0
  187.8140  174.6000  138.5910 C   0  0  0  0  0  2  0  0  0  0  0  0
  189.3670  174.8770  135.0300 C   0  0  0  0  0  1  0  0  0  0  0  0
  187.2440  175.9440  138.5690 N   0  0  0  0  0  0  0  0  0  0  0  0
  188.5280  175.1430  136.2320 C   0  0  0  0  0  0  0  0  0  0  0  0
  186.6650  176.4170  137.3140 C   0  0  0  0  0  2  0  0  0  0  0  0
  186.4790  177.8060  139.7600 O   0  0  0  0  0  0  0  0  0  0  0  0
  187.5500  176.0620  136.1500 C   0  0  0  0  0  3  0  0  0  0  0  0
  192.9860  172.3990  140.0720 C   0  0  1  0  0  3  0  0  0  0  0  0
  193.9630  171.6960  139.1700 C   0  0  0  0  0  0  0  0  0  0  0  0
  194.3400  172.2260  138.1380 O   0  0  0  0  0  0  0  0  0  0  0  0
  194.4920  170.3440  139.5300 C   0  0  2  0  0  3  0  0  0  0  0  0
  195.2680  169.8370  138.4850 O   0  0  0  0  0  1  0  0  0  0  0  0
  193.3470  169.3950  139.8500 C   0  0  0  0  0  2  0  0  0  0  0  0
  192.8430  168.7280  138.5840 C   0  0  0  0  0  2  0  0  0  0  0  0
  190.5890  168.5290  139.3130 O   0  0  0  0  0  0  0  0  0  0  0  0
  191.3830  168.9710  138.4400 C   0  0  0  0  0  0  0  0  0  0  0  0
  190.9080  169.6700  137.3290 O   0  0  0  0  0  0  0  0  0  0  0  0
  191.6540  169.7600  136.1250 C   0  0  0  0  0  1  0  0  0  0  0  0
  193.4220  173.8350  140.3710 C   0  0  0  0  0  2  0  0  0  0  0  0
  195.6960  169.9890  145.3100 C   0  0  0  0  0  3  0  0  0  0  0  0
  196.1940  170.2200  144.0850 C   0  0  0  0  0  3  0  0  0  0  0  0
  195.7670  173.2480  141.0290 C   0  0  0  0  0  2  0  0  0  0  0  0
  194.7580  173.7330  143.7130 C   0  0  1  0  0  0  0  0  0  0  0  0
  195.8900  172.6880  143.7190 C   0  0  2  0  0  0  0  0  0  0  0  0
  194.4490  173.9270  141.4880 C   0  0  2  0  0  3  0  0  0  0  0  0
  197.0630  173.5060  141.8850 C   0  0  2  0  0  3  0  0  0  0  0  0
  194.5420  170.7040  145.9830 C   0  0  0  0  0  2  0  0  0  0  0  0
  193.9770  171.9150  145.2420 C   0  0  0  0  0  2  0  0  0  0  0  0
  197.0500  173.3690  143.3180 O   0  0  0  0  0  0  0  0  0  0  0  0
  195.6750  171.2650  143.1440 C   0  0  0  0  0  2  0  0  0  0  0  0
  193.8950  173.3610  142.6690 O   0  0  0  0  0  0  0  0  0  0  0  0
  195.0650  172.9560  144.9850 C   0  0  2  0  0  3  0  0  0  0  0  0
  195.4820  175.5490  145.1800 F   0  0  0  0  0  0  0  0  0  0  0  0
  195.0380  175.2450  143.9010 C   0  0  2  0  0  3  0  0  0  0  0  0
  193.7860  176.0480  143.6000 C   0  0  0  0  0  1  0  0  0  0  0  0
  197.9160  174.8010  139.8900 C   0  0  0  0  0  1  0  0  0  0  0  0
  197.8740  174.7100  141.4050 C   0  0  1  0  0  3  0  0  0  0  0  0
  196.5800  176.7940  141.2590 C   0  0  0  0  0  2  0  0  0  0  0  0
  197.3270  175.9710  141.9910 C   0  0  0  0  0  3  0  0  0  0  0  0
  1  2  2  0  0  0  0
  2  4  1  0  0  0  0
  3 38  1  0  0  0  0
  3  2  1  0  0  0  0
  4  5  1  0  0  0  0
  4  6  1  0  0  0  0
  5  6  1  0  0  0  0
  9 23  1  0  0  0  0
 10 11  2  0  0  0  0
 11 22  1  0  0  0  0
 12 11  1  0  0  0  0
 13  4  1  6  0  0  0
 13 16  1  0  0  0  0
 14  8  1  0  0  0  0
 15 13  1  0  0  0  0
 16 21  1  0  0  0  0
 17 14  2  0  0  0  0
 18 25  1  0  0  0  0
 19 21  1  0  0  0  0
 19 18  1  1  0  0  0
 20 28  1  6  0  0  0
 20 24  1  0  0  0  0
 20 12  1  0  0  0  0
 21  9  1  1  0  0  0
 22 26  1  1  0  0  0
 22 17  1  0  0  0  0
 23  7  1  1  0  0  0
 24 27  1  0  0  0  0
 25 23  1  0  0  0  0
 25  8  1  1  0  0  0
 27 15  1  6  0  0  0
 27 19  1  0  0  0  0
 29 31  1  0  0  0  0
 30 28  1  0  0  0  0
 32 34  1  0  0  0  0
 33 31  1  0  0  0  0
 33 30  1  0  0  0  0
 34 29  1  0  0  0  0
 35 33  1  0  0  0  0
 36 30  2  0  0  0  0
 37 34  2  0  0  0  0
 37 35  1  0  0  0  0
 38 49  1  6  0  0  0
 39 41  1  0  0  0  0
 39 38  1  0  0  0  0
 40 39  2  0  0  0  0
 41 42  1  6  0  0  0
 41 43  1  0  0  0  0
 44 43  1  0  0  0  0
 46 44  1  0  0  0  0
 46 45  2  0  0  0  0
 47 46  1  0  0  0  0
 48 47  1  0  0  0  0
 50 57  1  0  0  0  0
 51 50  2  0  0  0  0
 52 55  1  0  0  0  0
 52 56  1  0  0  0  0
 53 54  1  0  0  0  0
 53 64  1  6  0  0  0
 53 62  1  0  0  0  0
 54 60  1  6  0  0  0
 54 62  1  0  0  0  0
 55 49  1  6  0  0  0
 55 61  1  0  0  0  0
 56 67  1  1  0  0  0
 56 59  1  0  0  0  0
 58 57  1  0  0  0  0
 59 54  1  0  0  0  0
 60 51  1  0  0  0  0
 61 53  1  0  0  0  0
 62 58  1  6  0  0  0
 64 65  1  1  0  0  0
 64 63  1  0  0  0  0
 67 66  1  6  0  0  0
 67 69  1  0  0  0  0
 68 69  2  0  0  0  0
M  END
>  <MODEL>
6

>  <REMARK>
 VINA RESULT:      -5.9      2.322      9.262
  Name = 
  16 active torsions:
  status: ('A' for Active; 'I' for Inactive)
    1  A    between atoms: C_4  and  C_67
    2  A    between atoms: C_10  and  C_45
    3  A    between atoms: C_10  and  C_59
    4  A    between atoms: C_18  and  C_19
    5  A    between atoms: C_19  and  C_37
    6  A    between atoms: C_21  and  C_52
    7  A    between atoms: C_21  and  C_59
    8  A    between atoms: C_22  and  C_45
    9  A    between atoms: C_22  and  C_49
   10  A    between atoms: C_22  and  N_60
   11  A    between atoms: C_23  and  C_29
   12  A    between atoms: C_25  and  C_49
   13  A    between atoms: C_27  and  C_36
   14  A    between atoms: C_36  and  C_57
   15  A    between atoms: C_47  and  C_67
   16  A    between atoms: O_50  and  C_52
                            x       y       z     vdW  Elec       q    Type
                         _______ _______ _______ _____ _____    ______ ____

>  <TORSDO>
F 16

$$$$
=
 OpenBabel11072408393D

 69 76  0  0  1  0  0  0  0  0999 V2000
  192.4770  170.0780  143.0660 O   0  0  0  0  0  0  0  0  0  0  0  0
  192.9870  171.0130  142.3940 C   0  0  0  0  0  0  0  0  0  0  0  0
  194.4050  171.0180  142.1920 N   0  0  0  0  0  2  0  0  0  0  0  0
  192.0990  172.0970  141.8530 C   0  0  0  0  0  0  0  0  0  0  0  0
  192.4670  172.6060  140.4700 C   0  0  0  0  0  2  0  0  0  0  0  0
  191.2630  171.7010  140.6450 C   0  0  0  0  0  2  0  0  0  0  0  0
  191.9180  175.0570  147.6730 O   0  0  0  0  0  1  0  0  0  0  0  0
  189.9820  177.1420  147.1490 C   0  0  0  0  0  2  0  0  0  0  0  0
  192.5230  174.7540  145.3780 C   0  0  0  0  0  2  0  0  0  0  0  0
  185.3960  176.4400  143.8040 O   0  0  0  0  0  0  0  0  0  0  0  0
  186.4800  176.7430  144.3750 C   0  0  0  0  0  0  0  0  0  0  0  0
  187.7010  176.4310  143.7660 O   0  0  0  0  0  0  0  0  0  0  0  0
  191.4830  173.1200  142.8180 C   0  0  2  0  0  3  0  0  0  0  0  0
  188.7540  177.7410  146.5480 C   0  0  0  0  0  3  0  0  0  0  0  0
  190.2190  173.5430  142.3750 O   0  0  0  0  0  0  0  0  0  0  0  0
  192.3320  174.2330  142.9710 O   0  0  0  0  0  0  0  0  0  0  0  0
  187.6370  177.0200  146.4990 C   0  0  0  0  0  3  0  0  0  0  0  0
  189.8870  175.3870  145.4730 O   0  0  0  0  0  0  0  0  0  0  0  0
  190.3110  175.2300  144.1350 C   0  0  1  0  0  3  0  0  0  0  0  0
  187.8090  175.4420  142.7470 C   0  0  2  0  0  3  0  0  0  0  0  0
  191.8610  175.0490  144.0270 C   0  0  1  0  0  3  0  0  0  0  0  0
  186.4690  177.4770  145.6930 C   0  0  2  0  0  3  0  0  0  0  0  0
  192.0480  175.7420  146.4610 C   0  0  1  0  0  3  0  0  0  0  0  0
  188.1790  174.1830  143.2970 O   0  0  0  0  0  0  0  0  0  0  0  0
  190.7080  176.3700  146.0510 C   0  0  2  0  0  3  0  0  0  0  0  0
  185.1970  177.1860  146.4720 C   0  0  0  0  0  1  0  0  0  0  0  0
  189.5770  174.0230  143.5230 C   0  0  1  0  0  3  0  0  0  0  0  0
  188.6640  175.9120  141.5660 C   0  0  0  0  0  2  0  0  0  0  0  0
  189.4280  173.8260  138.1490 C   0  0  0  0  0  2  0  0  0  0  0  0
  187.8050  176.1780  140.3740 C   0  0  0  0  0  0  0  0  0  0  0  0
  188.4560  173.9810  139.3160 C   0  0  0  0  0  2  0  0  0  0  0  0
  189.5510  173.9830  135.5790 C   0  0  0  0  0  1  0  0  0  0  0  0
  187.8160  175.2910  139.2450 N   0  0  0  0  0  0  0  0  0  0  0  0
  188.8510  174.3260  136.8470 C   0  0  0  0  0  0  0  0  0  0  0  0
  187.0650  175.6170  138.0360 C   0  0  0  0  0  2  0  0  0  0  0  0
  187.1010  177.2240  140.3520 O   0  0  0  0  0  0  0  0  0  0  0  0
  187.8220  175.1910  136.8060 C   0  0  0  0  0  3  0  0  0  0  0  0
  195.1580  172.0810  141.5320 C   0  0  1  0  0  3  0  0  0  0  0  0
  195.4500  173.1910  142.5030 C   0  0  0  0  0  0  0  0  0  0  0  0
  195.6250  174.3310  142.1010 O   0  0  0  0  0  0  0  0  0  0  0  0
  195.5210  172.9170  143.9710 C   0  0  2  0  0  3  0  0  0  0  0  0
  195.4210  174.1120  144.6890 O   0  0  0  0  0  1  0  0  0  0  0  0
  196.8160  172.1980  144.3150 C   0  0  0  0  0  2  0  0  0  0  0  0
  196.8250  171.7920  145.7760 C   0  0  0  0  0  2  0  0  0  0  0  0
  197.6500  169.6410  145.1900 O   0  0  0  0  0  0  0  0  0  0  0  0
  196.8340  170.3080  145.8800 C   0  0  0  0  0  0  0  0  0  0  0  0
  195.9250  169.6720  146.7280 O   0  0  0  0  0  0  0  0  0  0  0  0
  194.6930  169.1540  146.2520 C   0  0  0  0  0  1  0  0  0  0  0  0
  196.4340  171.5550  140.8700 C   0  0  0  0  0  2  0  0  0  0  0  0
  191.7370  170.8460  136.2020 C   0  0  0  0  0  3  0  0  0  0  0  0
  192.3150  171.9530  136.6960 C   0  0  0  0  0  3  0  0  0  0  0  0
  195.9450  172.9270  138.8320 C   0  0  0  0  0  2  0  0  0  0  0  0
  195.6440  170.3180  137.5820 C   0  0  1  0  0  0  0  0  0  0  0  0
  194.7510  171.3730  136.9010 C   0  0  2  0  0  0  0  0  0  0  0  0
  196.3510  171.5230  139.3520 C   0  0  2  0  0  3  0  0  0  0  0  0
  196.1140  173.2170  137.2940 C   0  0  2  0  0  3  0  0  0  0  0  0
  192.1410  169.4070  136.4520 C   0  0  0  0  0  2  0  0  0  0  0  0
  193.4340  169.2000  137.2400 C   0  0  0  0  0  2  0  0  0  0  0  0
  195.6250  172.2940  136.3020 O   0  0  0  0  0  0  0  0  0  0  0  0
  193.5010  171.9500  137.6120 C   0  0  0  0  0  2  0  0  0  0  0  0
  195.4560  170.4870  138.9630 O   0  0  0  0  0  0  0  0  0  0  0  0
  194.6120  169.8860  136.5510 C   0  0  2  0  0  3  0  0  0  0  0  0
  197.1460  169.8250  135.7180 F   0  0  0  0  0  0  0  0  0  0  0  0
  197.0820  170.0220  137.0900 C   0  0  2  0  0  3  0  0  0  0  0  0
  197.6340  168.7980  137.7990 C   0  0  0  0  0  1  0  0  0  0  0  0
  197.9410  173.3850  135.5570 C   0  0  0  0  0  1  0  0  0  0  0  0
  197.4750  173.8140  136.9380 C   0  0  1  0  0  3  0  0  0  0  0  0
  197.0300  176.0430  136.0050 C   0  0  0  0  0  2  0  0  0  0  0  0
  197.4310  175.3040  137.0370 C   0  0  0  0  0  3  0  0  0  0  0  0
  2  1  2  0  0  0  0
  3  2  1  0  0  0  0
  4  2  1  0  0  0  0
  5  6  1  0  0  0  0
  5  4  1  0  0  0  0
  6  4  1  0  0  0  0
  9 23  1  0  0  0  0
 10 11  2  0  0  0  0
 11 22  1  0  0  0  0
 12 11  1  0  0  0  0
 13  4  1  6  0  0  0
 13 16  1  0  0  0  0
 14  8  1  0  0  0  0
 15 13  1  0  0  0  0
 16 21  1  0  0  0  0
 17 14  2  0  0  0  0
 18 25  1  0  0  0  0
 19 18  1  1  0  0  0
 20 28  1  6  0  0  0
 20 24  1  0  0  0  0
 20 12  1  0  0  0  0
 21 19  1  0  0  0  0
 21  9  1  1  0  0  0
 22 26  1  1  0  0  0
 22 17  1  0  0  0  0
 23  7  1  1  0  0  0
 24 27  1  0  0  0  0
 25 23  1  0  0  0  0
 25  8  1  1  0  0  0
 27 15  1  6  0  0  0
 27 19  1  0  0  0  0
 29 31  1  0  0  0  0
 30 28  1  0  0  0  0
 32 34  1  0  0  0  0
 33 31  1  0  0  0  0
 33 30  1  0  0  0  0
 34 29  1  0  0  0  0
 35 33  1  0  0  0  0
 36 30  2  0  0  0  0
 37 34  2  0  0  0  0
 37 35  1  0  0  0  0
 38 49  1  1  0  0  0
 38  3  1  0  0  0  0
 38 39  1  0  0  0  0
 39 41  1  0  0  0  0
 40 39  2  0  0  0  0
 41 43  1  0  0  0  0
 41 42  1  1  0  0  0
 43 44  1  0  0  0  0
 44 46  1  0  0  0  0
 45 46  2  0  0  0  0
 46 47  1  0  0  0  0
 48 47  1  0  0  0  0
 50 57  1  0  0  0  0
 50 51  2  0  0  0  0
 51 60  1  0  0  0  0
 52 55  1  0  0  0  0
 53 64  1  6  0  0  0
 53 61  1  0  0  0  0
 54 53  1  0  0  0  0
 54 60  1  1  0  0  0
 55 49  1  1  0  0  0
 56 67  1  1  0  0  0
 56 52  1  0  0  0  0
 57 58  1  0  0  0  0
 59 54  1  0  0  0  0
 59 56  1  0  0  0  0
 61 55  1  0  0  0  0
 62 54  1  0  0  0  0
 62 58  1  1  0  0  0
 62 53  1  0  0  0  0
 63 64  1  0  0  0  0
 64 65  1  1  0  0  0
 67 66  1  6  0  0  0
 67 69  1  0  0  0  0
 68 69  2  0  0  0  0
M  END
>  <MODEL>
7

>  <REMARK>
 VINA RESULT:      -5.8      2.962     10.806
  Name = 
  16 active torsions:
  status: ('A' for Active; 'I' for Inactive)
    1  A    between atoms: C_4  and  C_67
    2  A    between atoms: C_10  and  C_45
    3  A    between atoms: C_10  and  C_59
    4  A    between atoms: C_18  and  C_19
    5  A    between atoms: C_19  and  C_37
    6  A    between atoms: C_21  and  C_52
    7  A    between atoms: C_21  and  C_59
    8  A    between atoms: C_22  and  C_45
    9  A    between atoms: C_22  and  C_49
   10  A    between atoms: C_22  and  N_60
   11  A    between atoms: C_23  and  C_29
   12  A    between atoms: C_25  and  C_49
   13  A    between atoms: C_27  and  C_36
   14  A    between atoms: C_36  and  C_57
   15  A    between atoms: C_47  and  C_67
   16  A    between atoms: O_50  and  C_52
                            x       y       z     vdW  Elec       q    Type
                         _______ _______ _______ _____ _____    ______ ____

>  <TORSDO>
F 16

$$$$
=
 OpenBabel11072408393D

 69 76  0  0  1  0  0  0  0  0999 V2000
  189.9910  177.7330  142.2960 O   0  0  0  0  0  0  0  0  0  0  0  0
  190.0640  176.6000  142.8420 C   0  0  0  0  0  0  0  0  0  0  0  0
  191.0060  176.4090  143.9040 N   0  0  0  0  0  2  0  0  0  0  0  0
  189.1830  175.4890  142.3480 C   0  0  0  0  0  0  0  0  0  0  0  0
  187.9340  175.2350  143.1740 C   0  0  0  0  0  2  0  0  0  0  0  0
  187.8210  175.9290  141.8310 C   0  0  0  0  0  2  0  0  0  0  0  0
  191.8550  169.5370  142.6860 O   0  0  0  0  0  1  0  0  0  0  0  0
  192.0340  168.8750  139.8760 C   0  0  0  0  0  2  0  0  0  0  0  0
  190.1120  171.1530  142.4080 C   0  0  0  0  0  2  0  0  0  0  0  0
  193.2810  172.6830  135.7950 O   0  0  0  0  0  0  0  0  0  0  0  0
  192.7940  171.8350  136.5930 C   0  0  0  0  0  0  0  0  0  0  0  0
  191.7050  172.1790  137.4000 O   0  0  0  0  0  0  0  0  0  0  0  0
  189.8190  174.2640  141.6740 C   0  0  2  0  0  3  0  0  0  0  0  0
  192.2540  169.1430  138.4240 C   0  0  0  0  0  3  0  0  0  0  0  0
  190.2300  174.5580  140.3630 O   0  0  0  0  0  0  0  0  0  0  0  0
  188.9170  173.1820  141.6590 O   0  0  0  0  0  0  0  0  0  0  0  0
  193.2520  169.9430  138.0550 C   0  0  0  0  0  3  0  0  0  0  0  0
  191.7080  171.2570  140.2170 O   0  0  0  0  0  0  0  0  0  0  0  0
  190.6360  172.1680  140.0930 C   0  0  1  0  0  3  0  0  0  0  0  0
  191.3650  173.5340  137.6780 C   0  0  2  0  0  3  0  0  0  0  0  0
  189.5920  172.0070  141.2460 C   0  0  1  0  0  3  0  0  0  0  0  0
  193.3560  170.4350  136.6520 C   0  0  2  0  0  3  0  0  0  0  0  0
  190.7400  169.8410  141.9000 C   0  0  1  0  0  3  0  0  0  0  0  0
  191.9440  173.9630  138.9040 O   0  0  0  0  0  0  0  0  0  0  0  0
  191.1450  169.9870  140.4250 C   0  0  2  0  0  3  0  0  0  0  0  0
  194.8170  170.4110  136.2360 C   0  0  0  0  0  1  0  0  0  0  0  0
  191.2050  173.5990  140.0680 C   0  0  1  0  0  3  0  0  0  0  0  0
  189.8630  173.7990  137.5390 C   0  0  0  0  0  2  0  0  0  0  0  0
  186.2670  175.6570  137.0610 C   0  0  0  0  0  2  0  0  0  0  0  0
  189.5630  174.4170  136.2140 C   0  0  0  0  0  0  0  0  0  0  0  0
  187.7690  175.8840  137.2140 C   0  0  0  0  0  2  0  0  0  0  0  0
  184.3140  176.0570  135.4270 C   0  0  0  0  0  1  0  0  0  0  0  0
  188.4650  175.3290  136.0580 N   0  0  0  0  0  0  0  0  0  0  0  0
  185.7800  175.9490  135.6620 C   0  0  0  0  0  0  0  0  0  0  0  0
  188.1040  175.8380  134.7380 C   0  0  0  0  0  2  0  0  0  0  0  0
  190.2610  174.0880  135.2170 O   0  0  0  0  0  0  0  0  0  0  0  0
  186.6100  175.9630  134.6040 C   0  0  0  0  0  3  0  0  0  0  0  0
  191.2860  175.1380  144.5640 C   0  0  1  0  0  3  0  0  0  0  0  0
  190.1060  174.7130  145.3950 C   0  0  0  0  0  0  0  0  0  0  0  0
  189.5350  173.6600  145.1600 O   0  0  0  0  0  0  0  0  0  0  0  0
  189.6240  175.5680  146.5230 C   0  0  2  0  0  3  0  0  0  0  0  0
  189.7920  174.9000  147.7390 O   0  0  0  0  0  1  0  0  0  0  0  0
  188.1640  175.9410  146.3190 C   0  0  0  0  0  2  0  0  0  0  0  0
  188.0120  177.4460  146.2100 C   0  0  0  0  0  2  0  0  0  0  0  0
  186.8720  178.3370  144.3240 O   0  0  0  0  0  0  0  0  0  0  0  0
  186.7780  177.7680  145.4440 C   0  0  0  0  0  0  0  0  0  0  0  0
  185.5300  177.4530  145.9850 O   0  0  0  0  0  0  0  0  0  0  0  0
  184.8270  178.3560  146.8230 C   0  0  0  0  0  1  0  0  0  0  0  0
  191.6990  174.0510  143.5680 C   0  0  0  0  0  2  0  0  0  0  0  0
  196.1870  171.0010  139.7060 C   0  0  0  0  0  3  0  0  0  0  0  0
  195.8850  172.3030  139.8300 C   0  0  0  0  0  3  0  0  0  0  0  0
  193.9400  174.8240  142.7540 C   0  0  0  0  0  2  0  0  0  0  0  0
  194.7350  172.1170  143.4600 C   0  0  1  0  0  0  0  0  0  0  0  0
  195.5840  172.6660  142.2980 C   0  0  2  0  0  0  0  0  0  0  0  0
  193.1900  173.7550  143.5930 C   0  0  2  0  0  3  0  0  0  0  0  0
  195.5040  174.9100  142.9040 C   0  0  2  0  0  3  0  0  0  0  0  0
  195.6980  169.8570  140.5720 C   0  0  0  0  0  2  0  0  0  0  0  0
  194.8860  170.2480  141.8060 C   0  0  0  0  0  2  0  0  0  0  0  0
  196.3280  173.7310  142.8290 O   0  0  0  0  0  0  0  0  0  0  0  0
  194.9800  172.8650  140.8850 C   0  0  0  0  0  2  0  0  0  0  0  0
  193.4010  172.4220  143.1420 O   0  0  0  0  0  0  0  0  0  0  0  0
  195.6790  171.1900  142.7090 C   0  0  2  0  0  3  0  0  0  0  0  0
  196.5440  172.3750  145.0820 F   0  0  0  0  0  0  0  0  0  0  0  0
  195.1680  172.2760  144.9380 C   0  0  2  0  0  3  0  0  0  0  0  0
  194.6600  171.1060  145.7600 C   0  0  0  0  0  1  0  0  0  0  0  0
  196.8030  177.0130  143.4260 C   0  0  0  0  0  1  0  0  0  0  0  0
  195.9540  175.8870  143.9890 C   0  0  1  0  0  3  0  0  0  0  0  0
  194.6190  176.2330  146.0230 C   0  0  0  0  0  2  0  0  0  0  0  0
  194.7700  176.4370  144.7160 C   0  0  0  0  0  3  0  0  0  0  0  0
  1  2  2  0  0  0  0
  2  3  1  0  0  0  0
  3 38  1  0  0  0  0
  4  2  1  0  0  0  0
  4  5  1  0  0  0  0
  6  4  1  0  0  0  0
  6  5  1  0  0  0  0
 10 11  2  0  0  0  0
 11 22  1  0  0  0  0
 11 12  1  0  0  0  0
 12 20  1  0  0  0  0
 13  4  1  6  0  0  0
 14  8  1  0  0  0  0
 15 13  1  0  0  0  0
 16 13  1  0  0  0  0
 17 14  2  0  0  0  0
 18 25  1  0  0  0  0
 19 18  1  1  0  0  0
 19 21  1  0  0  0  0
 20 28  1  1  0  0  0
 20 24  1  0  0  0  0
 21 16  1  0  0  0  0
 21  9  1  1  0  0  0
 22 26  1  1  0  0  0
 22 17  1  0  0  0  0
 23  9  1  0  0  0  0
 23  7  1  1  0  0  0
 25  8  1  1  0  0  0
 25 23  1  0  0  0  0
 27 24  1  6  0  0  0
 27 19  1  0  0  0  0
 27 15  1  0  0  0  0
 29 31  1  0  0  0  0
 30 28  1  0  0  0  0
 32 34  1  0  0  0  0
 33 30  1  0  0  0  0
 33 31  1  0  0  0  0
 34 29  1  0  0  0  0
 35 33  1  0  0  0  0
 36 30  2  0  0  0  0
 37 35  1  0  0  0  0
 37 34  2  0  0  0  0
 38 49  1  6  0  0  0
 38 39  1  0  0  0  0
 39 41  1  0  0  0  0
 40 39  2  0  0  0  0
 41 42  1  1  0  0  0
 43 41  1  0  0  0  0
 44 43  1  0  0  0  0
 45 46  2  0  0  0  0
 46 47  1  0  0  0  0
 46 44  1  0  0  0  0
 47 48  1  0  0  0  0
 50 51  2  0  0  0  0
 50 57  1  0  0  0  0
 51 60  1  0  0  0  0
 52 56  1  0  0  0  0
 52 55  1  0  0  0  0
 53 64  1  1  0  0  0
 54 60  1  6  0  0  0
 54 62  1  0  0  0  0
 54 59  1  0  0  0  0
 54 53  1  0  0  0  0
 55 49  1  6  0  0  0
 56 67  1  1  0  0  0
 57 58  1  0  0  0  0
 59 56  1  0  0  0  0
 61 53  1  0  0  0  0
 61 55  1  0  0  0  0
 62 58  1  6  0  0  0
 62 53  1  0  0  0  0
 64 63  1  0  0  0  0
 64 65  1  1  0  0  0
 67 66  1  6  0  0  0
 67 69  1  0  0  0  0
 69 68  2  0  0  0  0
M  END
>  <MODEL>
8

>  <REMARK>
 VINA RESULT:      -5.8      2.702      7.700
  Name = 
  16 active torsions:
  status: ('A' for Active; 'I' for Inactive)
    1  A    between atoms: C_4  and  C_67
    2  A    between atoms: C_10  and  C_45
    3  A    between atoms: C_10  and  C_59
    4  A    between atoms: C_18  and  C_19
    5  A    between atoms: C_19  and  C_37
    6  A    between atoms: C_21  and  C_52
    7  A    between atoms: C_21  and  C_59
    8  A    between atoms: C_22  and  C_45
    9  A    between atoms: C_22  and  C_49
   10  A    between atoms: C_22  and  N_60
   11  A    between atoms: C_23  and  C_29
   12  A    between atoms: C_25  and  C_49
   13  A    between atoms: C_27  and  C_36
   14  A    between atoms: C_36  and  C_57
   15  A    between atoms: C_47  and  C_67
   16  A    between atoms: O_50  and  C_52
                            x       y       z     vdW  Elec       q    Type
                         _______ _______ _______ _____ _____    ______ ____

>  <TORSDO>
F 16

$$$$
=
 OpenBabel11072408393D

 69 76  0  0  1  0  0  0  0  0999 V2000
  192.7580  174.0720  139.4250 O   0  0  0  0  0  0  0  0  0  0  0  0
  192.5350  172.9480  139.9490 C   0  0  0  0  0  0  0  0  0  0  0  0
  193.5600  171.9500  139.8960 N   0  0  0  0  0  2  0  0  0  0  0  0
  191.2000  172.6890  140.5860 C   0  0  0  0  0  0  0  0  0  0  0  0
  190.1520  172.0790  139.6720 C   0  0  0  0  0  2  0  0  0  0  0  0
  190.8280  171.2200  140.7230 C   0  0  0  0  0  2  0  0  0  0  0  0
  191.5050  175.1050  146.6480 O   0  0  0  0  0  1  0  0  0  0  0  0
  189.6270  177.2950  146.4420 C   0  0  0  0  0  2  0  0  0  0  0  0
  191.9520  174.9930  144.2990 C   0  0  0  0  0  2  0  0  0  0  0  0
  184.8150  177.0650  143.3580 O   0  0  0  0  0  0  0  0  0  0  0  0
  185.9450  177.2760  143.8810 C   0  0  0  0  0  0  0  0  0  0  0  0
  187.1110  176.9790  143.1670 O   0  0  0  0  0  0  0  0  0  0  0  0
  190.6870  173.6390  141.6780 C   0  0  2  0  0  3  0  0  0  0  0  0
  188.3890  177.9900  145.9800 C   0  0  0  0  0  3  0  0  0  0  0  0
  189.4170  174.1460  141.3590 O   0  0  0  0  0  0  0  0  0  0  0  0
  191.5900  174.7040  141.8730 O   0  0  0  0  0  0  0  0  0  0  0  0
  187.2420  177.3160  145.9400 C   0  0  0  0  0  3  0  0  0  0  0  0
  189.3550  175.7070  144.6250 O   0  0  0  0  0  0  0  0  0  0  0  0
  189.6880  175.6590  143.2540 C   0  0  1  0  0  3  0  0  0  0  0  0
  187.1150  176.0850  142.0580 C   0  0  2  0  0  3  0  0  0  0  0  0
  191.2190  175.4350  143.0280 C   0  0  1  0  0  3  0  0  0  0  0  0
  186.0460  177.8850  145.2570 C   0  0  2  0  0  3  0  0  0  0  0  0
  191.5870  175.8930  145.4960 C   0  0  1  0  0  3  0  0  0  0  0  0
  187.4660  174.7690  142.4680 O   0  0  0  0  0  0  0  0  0  0  0  0
  190.2500  176.6030  145.2340 C   0  0  2  0  0  3  0  0  0  0  0  0
  184.8140  177.5690  146.0900 C   0  0  0  0  0  1  0  0  0  0  0  0
  188.8680  174.5390  142.5860 C   0  0  1  0  0  3  0  0  0  0  0  0
  187.9120  176.6320  140.8700 C   0  0  0  0  0  2  0  0  0  0  0  0
  188.7730  174.8030  137.3310 C   0  0  0  0  0  2  0  0  0  0  0  0
  187.0090  176.8880  139.7100 C   0  0  0  0  0  0  0  0  0  0  0  0
  187.8160  174.8130  138.5210 C   0  0  0  0  0  2  0  0  0  0  0  0
  188.8270  175.1070  134.7720 C   0  0  0  0  0  1  0  0  0  0  0  0
  187.0690  176.0670  138.5340 N   0  0  0  0  0  0  0  0  0  0  0  0
  188.1280  175.3220  136.0690 C   0  0  0  0  0  0  0  0  0  0  0  0
  186.2680  176.3930  137.3570 C   0  0  0  0  0  2  0  0  0  0  0  0
  186.2200  177.8710  139.7570 O   0  0  0  0  0  0  0  0  0  0  0  0
  187.0300  176.0990  136.0930 C   0  0  0  0  0  3  0  0  0  0  0  0
  193.4200  170.5730  140.3590 C   0  0  1  0  0  3  0  0  0  0  0  0
  193.1080  169.6640  139.2020 C   0  0  0  0  0  0  0  0  0  0  0  0
  192.2150  168.8360  139.2930 O   0  0  0  0  0  0  0  0  0  0  0  0
  193.8780  169.7690  137.9250 C   0  0  2  0  0  3  0  0  0  0  0  0
  195.2500  169.7680  138.1890 O   0  0  0  0  0  1  0  0  0  0  0  0
  193.4830  171.0280  137.1690 C   0  0  0  0  0  2  0  0  0  0  0  0
  192.1230  170.8520  136.5210 C   0  0  0  0  0  2  0  0  0  0  0  0
  192.3920  173.1720  136.0770 O   0  0  0  0  0  0  0  0  0  0  0  0
  191.6890  172.1390  135.9160 C   0  0  0  0  0  0  0  0  0  0  0  0
  190.4950  172.1920  135.1920 O   0  0  0  0  0  0  0  0  0  0  0  0
  189.3170  171.5420  135.6410 C   0  0  0  0  0  1  0  0  0  0  0  0
  194.6520  170.1000  141.1350 C   0  0  0  0  0  2  0  0  0  0  0  0
  196.9790  168.6640  147.2090 C   0  0  0  0  0  3  0  0  0  0  0  0
  197.5640  169.2940  146.1770 C   0  0  0  0  0  3  0  0  0  0  0  0
  196.2770  171.3340  142.5900 C   0  0  0  0  0  2  0  0  0  0  0  0
  194.3520  170.6950  144.6740 C   0  0  1  0  0  0  0  0  0  0  0  0
  195.7810  170.7960  145.2420 C   0  0  2  0  0  0  0  0  0  0  0  0
  194.8230  170.8050  142.4710 C   0  0  2  0  0  3  0  0  0  0  0  0
  196.5900  172.3710  143.7320 C   0  0  2  0  0  3  0  0  0  0  0  0
  195.5240  168.2590  147.3330 C   0  0  0  0  0  2  0  0  0  0  0  0
  194.5930  168.7470  146.2240 C   0  0  0  0  0  2  0  0  0  0  0  0
  196.1650  172.1380  145.0890 O   0  0  0  0  0  0  0  0  0  0  0  0
  196.8490  169.7190  144.9300 C   0  0  0  0  0  2  0  0  0  0  0  0
  194.4530  169.9100  143.5140 O   0  0  0  0  0  0  0  0  0  0  0  0
  194.6290  170.2700  146.1090 C   0  0  2  0  0  3  0  0  0  0  0  0
  193.4070  172.6420  145.8090 F   0  0  0  0  0  0  0  0  0  0  0  0
  193.4000  171.9150  144.6280 C   0  0  2  0  0  3  0  0  0  0  0  0
  191.9830  171.4600  144.3270 C   0  0  0  0  0  1  0  0  0  0  0  0
  195.1370  174.0370  142.5110 C   0  0  0  0  0  1  0  0  0  0  0  0
  196.4210  173.8240  143.2920 C   0  0  1  0  0  3  0  0  0  0  0  0
  195.4830  175.5930  144.7170 C   0  0  0  0  0  2  0  0  0  0  0  0
  196.4710  174.7340  144.4760 C   0  0  0  0  0  3  0  0  0  0  0  0
  1  2  2  0  0  0  0
  2  4  1  0  0  0  0
  3  2  1  0  0  0  0
  3 38  1  0  0  0  0
  4  6  1  0  0  0  0
  5  4  1  0  0  0  0
  5  6  1  0  0  0  0
  9 23  1  0  0  0  0
 10 11  2  0  0  0  0
 11 22  1  0  0  0  0
 12 11  1  0  0  0  0
 13  4  1  6  0  0  0
 13 16  1  0  0  0  0
 14  8  1  0  0  0  0
 15 13  1  0  0  0  0
 16 21  1  0  0  0  0
 17 14  2  0  0  0  0
 18 25  1  0  0  0  0
 19 18  1  1  0  0  0
 20 28  1  6  0  0  0
 20 24  1  0  0  0  0
 20 12  1  0  0  0  0
 21 19  1  0  0  0  0
 21  9  1  1  0  0  0
 22 17  1  0  0  0  0
 22 26  1  1  0  0  0
 23  7  1  1  0  0  0
 24 27  1  0  0  0  0
 25 23  1  0  0  0  0
 25  8  1  1  0  0  0
 27 15  1  6  0  0  0
 27 19  1  0  0  0  0
 29 31  1  0  0  0  0
 30 36  2  0  0  0  0
 30 28  1  0  0  0  0
 31 33  1  0  0  0  0
 32 34  1  0  0  0  0
 33 30  1  0  0  0  0
 34 37  2  0  0  0  0
 34 29  1  0  0  0  0
 35 33  1  0  0  0  0
 37 35  1  0  0  0  0
 38 49  1  6  0  0  0
 39 40  2  0  0  0  0
 39 38  1  0  0  0  0
 41 42  1  1  0  0  0
 41 39  1  0  0  0  0
 43 41  1  0  0  0  0
 44 43  1  0  0  0  0
 46 45  2  0  0  0  0
 46 44  1  0  0  0  0
 47 48  1  0  0  0  0
 47 46  1  0  0  0  0
 50 57  1  0  0  0  0
 51 50  2  0  0  0  0
 52 56  1  0  0  0  0
 53 64  1  6  0  0  0
 53 54  1  0  0  0  0
 53 62  1  0  0  0  0
 54 60  1  6  0  0  0
 54 62  1  0  0  0  0
 55 49  1  6  0  0  0
 55 52  1  0  0  0  0
 55 61  1  0  0  0  0
 56 67  1  6  0  0  0
 56 59  1  0  0  0  0
 58 57  1  0  0  0  0
 59 54  1  0  0  0  0
 60 51  1  0  0  0  0
 61 53  1  0  0  0  0
 62 58  1  6  0  0  0
 64 65  1  1  0  0  0
 64 63  1  0  0  0  0
 67 66  1  1  0  0  0
 67 69  1  0  0  0  0
 69 68  2  0  0  0  0
M  END
>  <MODEL>
9

>  <REMARK>
 VINA RESULT:      -5.7      2.353      9.085
  Name = 
  16 active torsions:
  status: ('A' for Active; 'I' for Inactive)
    1  A    between atoms: C_4  and  C_67
    2  A    between atoms: C_10  and  C_45
    3  A    between atoms: C_10  and  C_59
    4  A    between atoms: C_18  and  C_19
    5  A    between atoms: C_19  and  C_37
    6  A    between atoms: C_21  and  C_52
    7  A    between atoms: C_21  and  C_59
    8  A    between atoms: C_22  and  C_45
    9  A    between atoms: C_22  and  C_49
   10  A    between atoms: C_22  and  N_60
   11  A    between atoms: C_23  and  C_29
   12  A    between atoms: C_25  and  C_49
   13  A    between atoms: C_27  and  C_36
   14  A    between atoms: C_36  and  C_57
   15  A    between atoms: C_47  and  C_67
   16  A    between atoms: O_50  and  C_52
                            x       y       z     vdW  Elec       q    Type
                         _______ _______ _______ _____ _____    ______ ____

>  <TORSDO>
F 16

$$$$
