=
 OpenBabel11072408453D

 36 40  0  0  1  0  0  0  0  0999 V2000
  191.6600  174.1130  143.8480 C   0  0  2  0  0  3  0  0  0  0  0  0
  190.7880  176.3990  144.3030 O   0  0  0  0  0  0  0  0  0  0  0  0
  187.4670  176.8880  143.0290 C   0  0  0  0  0  2  0  0  0  0  0  0
  187.9400  175.5180  142.9650 N   0  0  0  0  0  0  0  0  0  0  0  0
  192.1300  175.3770  146.1050 C   0  0  0  0  0  2  0  0  0  0  0  0
  188.9100  175.0540  143.6850 C   0  0  0  0  0  0  0  0  0  0  0  0
  188.6750  176.9930  145.2550 C   0  0  0  0  0  0  0  0  0  0  0  0
  193.3310  174.4810  146.4220 C   0  0  0  0  0  2  0  0  0  0  0  0
  188.9030  177.5190  146.3780 O   0  0  0  0  0  0  0  0  0  0  0  0
  189.5620  175.8910  144.7630 C   0  0  2  0  0  3  0  0  0  0  0  0
  190.5450  173.3710  144.2980 O   0  0  0  0  0  0  0  0  0  0  0  0
  186.7040  178.3750  144.8800 C   0  0  0  0  0  3  0  0  0  0  0  0
  192.9130  173.2330  143.9390 C   0  0  0  0  0  2  0  0  0  0  0  0
  194.1390  174.0220  144.1020 N   0  0  0  0  0  0  0  0  0  0  0  0
  189.4250  173.6390  143.4650 C   0  0  2  0  0  3  0  0  0  0  0  0
  191.7990  175.4590  144.6050 C   0  0  1  0  0  3  0  0  0  0  0  0
  194.4650  174.6310  145.4020 C   0  0  0  0  0  2  0  0  0  0  0  0
  187.5520  177.4450  144.4200 C   0  0  0  0  0  0  0  0  0  0  0  0
  196.4340  175.0420  140.6700 C   0  0  0  0  0  0  0  0  0  0  0  0
  196.3200  172.2260  143.1730 C   0  0  0  0  0  1  0  0  0  0  0  0
  194.6310  175.5060  142.2110 C   0  0  0  0  0  3  0  0  0  0  0  0
  195.9900  173.5160  142.5030 C   0  0  0  0  0  0  0  0  0  0  0  0
  194.9280  174.3420  142.9410 C   0  0  0  0  0  0  0  0  0  0  0  0
  196.7320  173.8740  141.3740 C   0  0  0  0  0  3  0  0  0  0  0  0
  195.3790  175.8550  141.0850 C   0  0  0  0  0  3  0  0  0  0  0  0
  197.8500  175.7020  138.5400 C   0  0  0  0  0  3  0  0  0  0  0  0
  197.2040  175.4000  139.5120 C   0  0  0  0  0  0  0  0  0  0  0  0
  190.5080  171.6270  140.4830 C   0  0  0  0  0  2  0  0  0  0  0  0
  188.4100  172.7970  139.9930 N   0  0  0  0  0  2  0  0  0  0  0  0
  188.4330  173.5150  141.2820 C   0  0  0  0  0  2  0  0  0  0  0  0
  189.6830  173.3250  142.0440 N   0  0  2  0  0  0  0  0  0  0  0  0
  190.0670  171.9160  141.9180 C   0  0  0  0  0  2  0  0  0  0  0  0
  189.7660  172.5400  139.5090 C   0  0  0  0  0  2  0  0  0  0  0  0
  184.4430  178.1910  143.8260 O   0  0  0  0  0  0  0  0  0  0  0  0
  185.5580  178.9510  144.1570 C   0  0  0  0  0  0  0  0  0  0  0  0
  185.5910  180.1670  143.8330 O   0  0  0  0  0  1  0  0  0  0  0  0
  1 13  1  1  0  0  0
  1 11  1  0  0  0  0
  1 16  1  0  0  0  0
  2 16  1  0  0  0  0
  2 10  1  0  0  0  0
  3 18  1  0  0  0  0
  4  3  1  0  0  0  0
  4  6  2  0  0  0  0
  5  8  1  0  0  0  0
  7  9  2  0  0  0  0
 10  6  1  6  0  0  0
 10  7  1  0  0  0  0
 13 14  1  0  0  0  0
 14 17  1  0  0  0  0
 15  6  1  6  0  0  0
 15 11  1  0  0  0  0
 16  5  1  1  0  0  0
 17  8  1  0  0  0  0
 18 12  2  0  0  0  0
 18  7  1  0  0  0  0
 19 25  2  0  0  0  0
 19 24  1  0  0  0  0
 21 23  2  0  0  0  0
 22 23  1  0  0  0  0
 22 20  1  0  0  0  0
 23 14  1  0  0  0  0
 24 22  2  0  0  0  0
 25 21  1  0  0  0  0
 26 27  3  0  0  0  0
 27 19  1  0  0  0  0
 28 32  1  0  0  0  0
 29 30  1  0  0  0  0
 31 30  1  6  0  0  0
 31 15  1  0  0  0  0
 32 31  1  0  0  0  0
 33 29  1  0  0  0  0
 33 28  1  0  0  0  0
 34 35  2  0  0  0  0
 35 12  1  0  0  0  0
 36 35  1  0  0  0  0
M  END
>  <MODEL>
1

>  <REMARK>
 VINA RESULT:      -7.4      0.000      0.000
  Name = 
  4 active torsions:
  status: ('A' for Active; 'I' for Inactive)
    1  A    between atoms: C_3  and  C_26
    2  A    between atoms: C_20  and  C_27
    3  A    between atoms: N_21  and  C_31
    4  A    between atoms: N_29  and  C_30
                            x       y       z     vdW  Elec       q    Type
                         _______ _______ _______ _____ _____    ______ ____

>  <TORSDO>
F 4

$$$$
=
 OpenBabel11072408453D

 36 40  0  0  1  0  0  0  0  0999 V2000
  193.2910  173.8660  144.0560 C   0  0  2  0  0  3  0  0  0  0  0  0
  192.1090  176.0270  144.4130 O   0  0  0  0  0  0  0  0  0  0  0  0
  188.5670  175.7670  143.8840 C   0  0  0  0  0  2  0  0  0  0  0  0
  189.2700  174.4970  143.8820 N   0  0  0  0  0  0  0  0  0  0  0  0
  193.9590  175.5390  145.9710 C   0  0  0  0  0  2  0  0  0  0  0  0
  190.4370  174.3180  144.4120 C   0  0  0  0  0  0  0  0  0  0  0  0
  190.1600  176.4230  145.7420 C   0  0  0  0  0  0  0  0  0  0  0  0
  195.3480  174.9080  146.1120 C   0  0  0  0  0  2  0  0  0  0  0  0
  190.5070  177.1540  146.7090 O   0  0  0  0  0  0  0  0  0  0  0  0
  191.1230  175.4120  145.2000 C   0  0  2  0  0  3  0  0  0  0  0  0
  192.4530  173.0390  144.8380 O   0  0  0  0  0  0  0  0  0  0  0  0
  187.9270  177.3940  145.6620 C   0  0  0  0  0  3  0  0  0  0  0  0
  194.6810  173.2230  143.9650 C   0  0  0  0  0  2  0  0  0  0  0  0
  195.7400  174.2130  143.7440 N   0  0  0  0  0  0  0  0  0  0  0  0
  191.1570  172.9860  144.2570 C   0  0  2  0  0  3  0  0  0  0  0  0
  193.3210  175.3210  144.5890 C   0  0  1  0  0  3  0  0  0  0  0  0
  196.2010  175.0690  144.8490 C   0  0  0  0  0  2  0  0  0  0  0  0
  188.8250  176.5490  145.1380 C   0  0  0  0  0  0  0  0  0  0  0  0
  197.0520  175.0170  139.7790 C   0  0  0  0  0  0  0  0  0  0  0  0
  197.9410  172.6130  142.5430 C   0  0  0  0  0  1  0  0  0  0  0  0
  195.5660  175.4550  141.6340 C   0  0  0  0  0  3  0  0  0  0  0  0
  197.2670  173.7330  141.8270 C   0  0  0  0  0  0  0  0  0  0  0  0
  196.2000  174.4630  142.4030 C   0  0  0  0  0  0  0  0  0  0  0  0
  197.6820  174.0180  140.5220 C   0  0  0  0  0  3  0  0  0  0  0  0
  195.9890  175.7310  140.3330 C   0  0  0  0  0  3  0  0  0  0  0  0
  197.8560  175.5380  137.3180 C   0  0  0  0  0  3  0  0  0  0  0  0
  197.4890  175.3010  138.4410 C   0  0  0  0  0  0  0  0  0  0  0  0
  190.4310  170.7070  141.3590 C   0  0  0  0  0  2  0  0  0  0  0  0
  190.1710  173.0470  140.6770 N   0  0  0  0  0  2  0  0  0  0  0  0
  190.6540  173.5500  141.9770 C   0  0  0  0  0  2  0  0  0  0  0  0
  191.1760  172.4900  142.8640 N   0  0  2  0  0  0  0  0  0  0  0  0
  190.2820  171.3340  142.7450 C   0  0  0  0  0  2  0  0  0  0  0  0
  190.8070  171.7750  140.3340 C   0  0  0  0  0  2  0  0  0  0  0  0
  185.4840  176.8730  145.5310 O   0  0  0  0  0  1  0  0  0  0  0  0
  186.5700  177.6550  145.1550 C   0  0  0  0  0  0  0  0  0  0  0  0
  186.3890  178.6150  144.3620 O   0  0  0  0  0  0  0  0  0  0  0  0
  1 13  1  1  0  0  0
  1 16  1  0  0  0  0
  1 11  1  0  0  0  0
  2 16  1  0  0  0  0
  2 10  1  0  0  0  0
  3 18  1  0  0  0  0
  4  3  1  0  0  0  0
  4  6  2  0  0  0  0
  5  8  1  0  0  0  0
  7  9  2  0  0  0  0
 10  6  1  6  0  0  0
 10  7  1  0  0  0  0
 14 13  1  0  0  0  0
 14 17  1  0  0  0  0
 15  6  1  6  0  0  0
 15 11  1  0  0  0  0
 16  5  1  1  0  0  0
 17  8  1  0  0  0  0
 18 12  2  0  0  0  0
 18  7  1  0  0  0  0
 19 25  2  0  0  0  0
 19 24  1  0  0  0  0
 21 23  2  0  0  0  0
 22 23  1  0  0  0  0
 22 20  1  0  0  0  0
 23 14  1  0  0  0  0
 24 22  2  0  0  0  0
 25 21  1  0  0  0  0
 26 27  3  0  0  0  0
 27 19  1  0  0  0  0
 28 32  1  0  0  0  0
 29 30  1  0  0  0  0
 31 30  1  6  0  0  0
 31 15  1  0  0  0  0
 32 31  1  0  0  0  0
 33 29  1  0  0  0  0
 33 28  1  0  0  0  0
 35 34  1  0  0  0  0
 35 12  1  0  0  0  0
 36 35  2  0  0  0  0
M  END
>  <MODEL>
2

>  <REMARK>
 VINA RESULT:      -7.1      1.380      1.686
  Name = 
  4 active torsions:
  status: ('A' for Active; 'I' for Inactive)
    1  A    between atoms: C_3  and  C_26
    2  A    between atoms: C_20  and  C_27
    3  A    between atoms: N_21  and  C_31
    4  A    between atoms: N_29  and  C_30
                            x       y       z     vdW  Elec       q    Type
                         _______ _______ _______ _____ _____    ______ ____

>  <TORSDO>
F 4

$$$$
=
 OpenBabel11072408453D

 36 40  0  0  1  0  0  0  0  0999 V2000
  192.0210  173.9250  143.4410 C   0  0  2  0  0  3  0  0  0  0  0  0
  192.2730  174.2560  140.9870 O   0  0  0  0  0  0  0  0  0  0  0  0
  195.4550  175.6650  140.1040 C   0  0  0  0  0  2  0  0  0  0  0  0
  195.3380  175.2710  141.4950 N   0  0  0  0  0  0  0  0  0  0  0  0
  191.0980  172.2010  141.6830 C   0  0  0  0  0  2  0  0  0  0  0  0
  194.4620  174.4250  141.9340 C   0  0  0  0  0  0  0  0  0  0  0  0
  194.1030  173.5810  139.6020 C   0  0  0  0  0  0  0  0  0  0  0  0
  190.1330  171.5910  142.7050 C   0  0  0  0  0  2  0  0  0  0  0  0
  193.6740  172.6900  138.8210 O   0  0  0  0  0  0  0  0  0  0  0  0
  193.5500  173.6720  140.9910 C   0  0  2  0  0  3  0  0  0  0  0  0
  193.2490  173.2720  143.6900 O   0  0  0  0  0  0  0  0  0  0  0  0
  195.6980  174.4150  137.9600 C   0  0  0  0  0  3  0  0  0  0  0  0
  191.0180  173.5340  144.5330 C   0  0  0  0  0  2  0  0  0  0  0  0
  189.6280  173.6210  144.0730 N   0  0  0  0  0  0  0  0  0  0  0  0
  194.3260  174.1630  143.4270 C   0  0  2  0  0  3  0  0  0  0  0  0
  191.5040  173.6490  142.0050 C   0  0  1  0  0  3  0  0  0  0  0  0
  189.0720  172.5880  143.1840 C   0  0  0  0  0  2  0  0  0  0  0  0
  195.1390  174.5330  139.1720 C   0  0  0  0  0  0  0  0  0  0  0  0
  187.3610  177.1410  144.8220 C   0  0  0  0  0  0  0  0  0  0  0  0
  189.3150  174.6360  146.8510 C   0  0  0  0  0  1  0  0  0  0  0  0
  188.3020  175.5300  143.2860 C   0  0  0  0  0  3  0  0  0  0  0  0
  188.6830  175.2920  145.6710 C   0  0  0  0  0  0  0  0  0  0  0  0
  188.8700  174.8120  144.3530 C   0  0  0  0  0  0  0  0  0  0  0  0
  187.9310  176.4500  145.8930 C   0  0  0  0  0  3  0  0  0  0  0  0
  187.5520  176.6840  143.5180 C   0  0  0  0  0  3  0  0  0  0  0  0
  185.9410  179.3240  145.2630 C   0  0  0  0  0  3  0  0  0  0  0  0
  186.5900  178.3270  145.0630 C   0  0  0  0  0  0  0  0  0  0  0  0
  194.0590  176.3040  146.5020 C   0  0  0  0  0  2  0  0  0  0  0  0
  195.7400  177.2270  144.9760 N   0  0  0  0  0  2  0  0  0  0  0  0
  195.4330  176.2330  143.9290 C   0  0  0  0  0  2  0  0  0  0  0  0
  194.2530  175.3980  144.2350 N   0  0  2  0  0  0  0  0  0  0  0  0
  194.3120  175.0550  145.6590 C   0  0  0  0  0  2  0  0  0  0  0  0
  194.5510  177.5480  145.7640 C   0  0  0  0  0  2  0  0  0  0  0  0
  197.9410  175.5200  137.9930 O   0  0  0  0  0  1  0  0  0  0  0  0
  196.7160  175.3030  137.3740 C   0  0  0  0  0  0  0  0  0  0  0  0
  196.4690  175.8760  136.2830 O   0  0  0  0  0  0  0  0  0  0  0  0
  1 11  1  0  0  0  0
  1 13  1  1  0  0  0
  2 10  1  0  0  0  0
  2 16  1  0  0  0  0
  3  4  1  0  0  0  0
  4  6  2  0  0  0  0
  5  8  1  0  0  0  0
  8 17  1  0  0  0  0
  9  7  2  0  0  0  0
 10  7  1  6  0  0  0
 10  6  1  0  0  0  0
 12 18  2  0  0  0  0
 14 23  1  0  0  0  0
 14 13  1  0  0  0  0
 15  6  1  6  0  0  0
 15 11  1  0  0  0  0
 15 31  1  0  0  0  0
 16  5  1  6  0  0  0
 16  1  1  0  0  0  0
 17 14  1  0  0  0  0
 18  7  1  0  0  0  0
 18  3  1  0  0  0  0
 19 27  1  0  0  0  0
 19 24  1  0  0  0  0
 21 25  1  0  0  0  0
 21 23  2  0  0  0  0
 22 24  2  0  0  0  0
 22 20  1  0  0  0  0
 23 22  1  0  0  0  0
 25 19  2  0  0  0  0
 27 26  3  0  0  0  0
 29 33  1  0  0  0  0
 30 29  1  0  0  0  0
 31 30  1  6  0  0  0
 31 32  1  0  0  0  0
 32 28  1  0  0  0  0
 33 28  1  0  0  0  0
 35 12  1  0  0  0  0
 35 34  1  0  0  0  0
 36 35  2  0  0  0  0
M  END
>  <MODEL>
3

>  <REMARK>
 VINA RESULT:      -6.6      3.114      8.557
  Name = 
  4 active torsions:
  status: ('A' for Active; 'I' for Inactive)
    1  A    between atoms: C_3  and  C_26
    2  A    between atoms: C_20  and  C_27
    3  A    between atoms: N_21  and  C_31
    4  A    between atoms: N_29  and  C_30
                            x       y       z     vdW  Elec       q    Type
                         _______ _______ _______ _____ _____    ______ ____

>  <TORSDO>
F 4

$$$$
=
 OpenBabel11072408453D

 36 40  0  0  1  0  0  0  0  0999 V2000
  192.1650  175.0230  142.9790 C   0  0  2  0  0  3  0  0  0  0  0  0
  189.7960  174.4840  143.5200 O   0  0  0  0  0  0  0  0  0  0  0  0
  188.2240  177.0220  145.5150 C   0  0  0  0  0  2  0  0  0  0  0  0
  189.5360  177.3810  145.0090 N   0  0  0  0  0  0  0  0  0  0  0  0
  190.5490  173.8780  141.2490 C   0  0  0  0  0  2  0  0  0  0  0  0
  190.1010  176.8070  143.9970 C   0  0  0  0  0  0  0  0  0  0  0  0
  187.8830  175.8980  143.2690 C   0  0  0  0  0  0  0  0  0  0  0  0
  191.7230  173.3600  140.4130 C   0  0  0  0  0  2  0  0  0  0  0  0
  187.1550  175.3900  142.3740 O   0  0  0  0  0  0  0  0  0  0  0  0
  189.3720  175.7750  143.1660 C   0  0  2  0  0  3  0  0  0  0  0  0
  191.9800  176.3500  142.5320 O   0  0  0  0  0  0  0  0  0  0  0  0
  185.9680  176.7950  144.4780 C   0  0  0  0  0  3  0  0  0  0  0  0
  193.4420  174.4570  142.3460 C   0  0  0  0  0  2  0  0  0  0  0  0
  193.4050  172.9960  142.2250 N   0  0  0  0  0  0  0  0  0  0  0  0
  191.5300  177.1600  143.6110 C   0  0  2  0  0  3  0  0  0  0  0  0
  190.9110  174.1480  142.7200 C   0  0  1  0  0  3  0  0  0  0  0  0
  192.5940  172.3560  141.1760 C   0  0  0  0  0  2  0  0  0  0  0  0
  187.2930  176.6100  144.4130 C   0  0  0  0  0  0  0  0  0  0  0  0
  195.1650  170.6150  145.2770 C   0  0  0  0  0  0  0  0  0  0  0  0
  196.1500  171.9040  141.8750 C   0  0  0  0  0  1  0  0  0  0  0  0
  193.3330  171.9520  144.4450 C   0  0  0  0  0  3  0  0  0  0  0  0
  195.3170  171.6370  143.0820 C   0  0  0  0  0  0  0  0  0  0  0  0
  194.0250  172.1910  143.2440 C   0  0  0  0  0  0  0  0  0  0  0  0
  195.8740  170.8540  144.0990 C   0  0  0  0  0  3  0  0  0  0  0  0
  193.8980  171.1700  145.4530 C   0  0  0  0  0  3  0  0  0  0  0  0
  196.2350  169.1320  147.1830 C   0  0  0  0  0  3  0  0  0  0  0  0
  195.7470  169.8090  146.3140 C   0  0  0  0  0  0  0  0  0  0  0  0
  193.0880  176.0070  146.8300 C   0  0  0  0  0  2  0  0  0  0  0  0
  194.8330  176.6230  145.2220 N   0  0  0  0  0  2  0  0  0  0  0  0
  193.8480  177.1120  144.2380 C   0  0  0  0  0  2  0  0  0  0  0  0
  192.4650  177.1530  144.7560 N   0  0  2  0  0  0  0  0  0  0  0  0
  192.2550  175.9390  145.5510 C   0  0  0  0  0  2  0  0  0  0  0  0
  194.3570  176.8250  146.5900 C   0  0  0  0  0  2  0  0  0  0  0  0
  184.9650  178.8190  145.5540 O   0  0  0  0  0  0  0  0  0  0  0  0
  185.2270  177.4540  145.5670 C   0  0  0  0  0  0  0  0  0  0  0  0
  184.8180  176.7600  146.5330 O   0  0  0  0  0  1  0  0  0  0  0  0
  1 13  1  6  0  0  0
  4  3  1  0  0  0  0
  6  4  2  0  0  0  0
  7 18  1  0  0  0  0
  8 17  1  0  0  0  0
  8  5  1  0  0  0  0
  9  7  2  0  0  0  0
 10  7  1  1  0  0  0
 10  2  1  0  0  0  0
 10  6  1  0  0  0  0
 11  1  1  0  0  0  0
 12 35  1  0  0  0  0
 14 13  1  0  0  0  0
 14 23  1  0  0  0  0
 15 11  1  6  0  0  0
 15  6  1  0  0  0  0
 15 31  1  0  0  0  0
 16  5  1  6  0  0  0
 16  1  1  0  0  0  0
 16  2  1  0  0  0  0
 17 14  1  0  0  0  0
 18 12  2  0  0  0  0
 18  3  1  0  0  0  0
 19 25  1  0  0  0  0
 19 27  1  0  0  0  0
 20 22  1  0  0  0  0
 21 25  2  0  0  0  0
 22 23  2  0  0  0  0
 22 24  1  0  0  0  0
 23 21  1  0  0  0  0
 24 19  2  0  0  0  0
 27 26  3  0  0  0  0
 29 33  1  0  0  0  0
 30 29  1  0  0  0  0
 31 30  1  6  0  0  0
 31 32  1  0  0  0  0
 32 28  1  0  0  0  0
 33 28  1  0  0  0  0
 34 35  2  0  0  0  0
 35 36  1  0  0  0  0
M  END
>  <MODEL>
4

>  <REMARK>
 VINA RESULT:      -6.6      2.478      5.059
  Name = 
  4 active torsions:
  status: ('A' for Active; 'I' for Inactive)
    1  A    between atoms: C_3  and  C_26
    2  A    between atoms: C_20  and  C_27
    3  A    between atoms: N_21  and  C_31
    4  A    between atoms: N_29  and  C_30
                            x       y       z     vdW  Elec       q    Type
                         _______ _______ _______ _____ _____    ______ ____

>  <TORSDO>
F 4

$$$$
=
 OpenBabel11072408453D

 36 40  0  0  1  0  0  0  0  0999 V2000
  191.6890  173.5160  143.0100 C   0  0  2  0  0  3  0  0  0  0  0  0
  190.9230  175.7390  143.8260 O   0  0  0  0  0  0  0  0  0  0  0  0
  187.5650  176.5010  142.8060 C   0  0  0  0  0  2  0  0  0  0  0  0
  187.9850  175.1410  142.5250 N   0  0  0  0  0  0  0  0  0  0  0  0
  192.3090  174.4330  145.3950 C   0  0  0  0  0  2  0  0  0  0  0  0
  188.9700  174.5520  143.1220 C   0  0  0  0  0  0  0  0  0  0  0  0
  188.8790  176.2530  144.9590 C   0  0  0  0  0  0  0  0  0  0  0  0
  193.4900  173.4650  145.5200 C   0  0  0  0  0  2  0  0  0  0  0  0
  189.1790  176.6070  146.1310 O   0  0  0  0  0  0  0  0  0  0  0  0
  189.7020  175.2070  144.2720 C   0  0  2  0  0  3  0  0  0  0  0  0
  190.5700  172.7510  143.4080 O   0  0  0  0  0  0  0  0  0  0  0  0
  186.9440  177.7310  144.8850 C   0  0  0  0  0  3  0  0  0  0  0  0
  192.9120  172.5960  142.9110 C   0  0  0  0  0  2  0  0  0  0  0  0
  194.1720  173.3180  143.1200 N   0  0  0  0  0  0  0  0  0  0  0  0
  189.4220  173.1680  142.6790 C   0  0  2  0  0  3  0  0  0  0  0  0
  191.9110  174.7360  143.9400 C   0  0  1  0  0  3  0  0  0  0  0  0
  194.5800  173.7260  144.4740 C   0  0  0  0  0  2  0  0  0  0  0  0
  187.7350  176.8520  144.2550 C   0  0  0  0  0  0  0  0  0  0  0  0
  196.3790  174.5970  139.7170 C   0  0  0  0  0  0  0  0  0  0  0  0
  194.3790  176.2140  142.4730 C   0  0  0  0  0  1  0  0  0  0  0  0
  195.5910  172.8390  141.1760 C   0  0  0  0  0  3  0  0  0  0  0  0
  194.9990  175.1480  141.6350 C   0  0  0  0  0  0  0  0  0  0  0  0
  194.9160  173.7770  141.9770 C   0  0  0  0  0  0  0  0  0  0  0  0
  195.7290  175.5440  140.5100 C   0  0  0  0  0  3  0  0  0  0  0  0
  196.3160  173.2450  140.0550 C   0  0  0  0  0  3  0  0  0  0  0  0
  197.7510  175.3670  137.5950 C   0  0  0  0  0  3  0  0  0  0  0  0
  197.1240  175.0160  138.5640 C   0  0  0  0  0  0  0  0  0  0  0  0
  190.5320  171.6790  139.4130 C   0  0  0  0  0  2  0  0  0  0  0  0
  188.2510  172.5540  139.2080 N   0  0  0  0  0  2  0  0  0  0  0  0
  188.2770  173.1260  140.5690 C   0  0  0  0  0  2  0  0  0  0  0  0
  189.6020  173.0510  141.2160 N   0  0  2  0  0  0  0  0  0  0  0  0
  190.1770  171.7410  140.8980 C   0  0  0  0  0  2  0  0  0  0  0  0
  189.5840  172.5650  138.6060 C   0  0  0  0  0  2  0  0  0  0  0  0
  185.9050  179.7070  143.7560 O   0  0  0  0  0  0  0  0  0  0  0  0
  185.7870  178.4380  144.3090 C   0  0  0  0  0  0  0  0  0  0  0  0
  184.6630  177.8740  144.3170 O   0  0  0  0  0  1  0  0  0  0  0  0
  1 13  1  1  0  0  0
  1 11  1  0  0  0  0
  1 16  1  0  0  0  0
  2 16  1  0  0  0  0
  2 10  1  0  0  0  0
  3 18  1  0  0  0  0
  4  3  1  0  0  0  0
  4  6  2  0  0  0  0
  5  8  1  0  0  0  0
  7  9  2  0  0  0  0
 10  6  1  6  0  0  0
 10  7  1  0  0  0  0
 13 14  1  0  0  0  0
 14 17  1  0  0  0  0
 15  6  1  6  0  0  0
 15 11  1  0  0  0  0
 16  5  1  1  0  0  0
 17  8  1  0  0  0  0
 18 12  2  0  0  0  0
 18  7  1  0  0  0  0
 19 25  2  0  0  0  0
 19 24  1  0  0  0  0
 21 23  2  0  0  0  0
 22 23  1  0  0  0  0
 22 20  1  0  0  0  0
 23 14  1  0  0  0  0
 24 22  2  0  0  0  0
 25 21  1  0  0  0  0
 26 27  3  0  0  0  0
 27 19  1  0  0  0  0
 28 32  1  0  0  0  0
 29 30  1  0  0  0  0
 31 30  1  6  0  0  0
 31 15  1  0  0  0  0
 32 31  1  0  0  0  0
 33 29  1  0  0  0  0
 33 28  1  0  0  0  0
 34 35  2  0  0  0  0
 35 36  1  0  0  0  0
 35 12  1  0  0  0  0
M  END
>  <MODEL>
5

>  <REMARK>
 VINA RESULT:      -6.6      0.996      1.535
  Name = 
  4 active torsions:
  status: ('A' for Active; 'I' for Inactive)
    1  A    between atoms: C_3  and  C_26
    2  A    between atoms: C_20  and  C_27
    3  A    between atoms: N_21  and  C_31
    4  A    between atoms: N_29  and  C_30
                            x       y       z     vdW  Elec       q    Type
                         _______ _______ _______ _____ _____    ______ ____

>  <TORSDO>
F 4

$$$$
=
 OpenBabel11072408453D

 36 40  0  0  1  0  0  0  0  0999 V2000
  192.9680  175.0340  143.8280 C   0  0  2  0  0  3  0  0  0  0  0  0
  194.0220  173.8580  145.7510 O   0  0  0  0  0  0  0  0  0  0  0  0
  194.7310  170.4110  145.0390 C   0  0  0  0  0  2  0  0  0  0  0  0
  194.3010  171.1860  143.8900 N   0  0  0  0  0  0  0  0  0  0  0  0
  194.7490  176.1870  145.3810 C   0  0  0  0  0  2  0  0  0  0  0  0
  194.3590  172.4770  143.8280 C   0  0  0  0  0  0  0  0  0  0  0  0
  195.9910  172.4990  145.7290 C   0  0  0  0  0  0  0  0  0  0  0  0
  194.3040  177.5870  144.9460 C   0  0  0  0  0  2  0  0  0  0  0  0
  196.8700  173.1000  146.4030 O   0  0  0  0  0  0  0  0  0  0  0  0
  195.0070  173.2920  144.9250 C   0  0  2  0  0  3  0  0  0  0  0  0
  193.8640  174.6250  142.8160 O   0  0  0  0  0  0  0  0  0  0  0  0
  196.8350  170.3060  146.3720 C   0  0  0  0  0  3  0  0  0  0  0  0
  192.3060  176.3510  143.4040 C   0  0  0  0  0  2  0  0  0  0  0  0
  191.8740  177.1550  144.5530 N   0  0  0  0  0  0  0  0  0  0  0  0
  193.7710  173.2170  142.6360 C   0  0  2  0  0  3  0  0  0  0  0  0
  193.6610  175.1130  145.2130 C   0  0  1  0  0  3  0  0  0  0  0  0
  192.8600  177.9010  145.3520 C   0  0  0  0  0  2  0  0  0  0  0  0
  195.9150  171.0290  145.7210 C   0  0  0  0  0  0  0  0  0  0  0  0
  187.8130  176.9240  145.7930 C   0  0  0  0  0  0  0  0  0  0  0  0
  191.1690  175.8490  147.1310 C   0  0  0  0  0  1  0  0  0  0  0  0
  189.4940  177.6480  144.2150 C   0  0  0  0  0  3  0  0  0  0  0  0
  190.1510  176.4220  146.2050 C   0  0  0  0  0  0  0  0  0  0  0  0
  190.5080  177.0670  144.9970 C   0  0  0  0  0  0  0  0  0  0  0  0
  188.8080  176.3560  146.5900 C   0  0  0  0  0  3  0  0  0  0  0  0
  188.1570  177.5760  144.6090 C   0  0  0  0  0  3  0  0  0  0  0  0
  185.2830  176.7860  146.5400 C   0  0  0  0  0  3  0  0  0  0  0  0
  186.4380  176.8490  146.1990 C   0  0  0  0  0  0  0  0  0  0  0  0
  190.3680  173.3420  141.0490 C   0  0  0  0  0  2  0  0  0  0  0  0
  191.2980  171.0820  140.8710 N   0  0  0  0  0  2  0  0  0  0  0  0
  192.4790  171.4310  141.6840 C   0  0  0  0  0  2  0  0  0  0  0  0
  192.4030  172.7770  142.2890 N   0  0  2  0  0  0  0  0  0  0  0  0
  191.8390  173.6820  141.2830 C   0  0  0  0  0  2  0  0  0  0  0  0
  190.1260  171.8520  141.2850 C   0  0  0  0  0  2  0  0  0  0  0  0
  196.2580  168.1660  147.5310 O   0  0  0  0  0  1  0  0  0  0  0  0
  196.8770  168.8380  146.4850 C   0  0  0  0  0  0  0  0  0  0  0  0
  197.4890  168.1770  145.6070 O   0  0  0  0  0  0  0  0  0  0  0  0
  1 13  1  6  0  0  0
  1 16  1  0  0  0  0
  3 18  1  0  0  0  0
  4  3  1  0  0  0  0
  6  4  2  0  0  0  0
  7  9  2  0  0  0  0
  8 17  1  0  0  0  0
  8  5  1  0  0  0  0
 10  6  1  6  0  0  0
 10  7  1  0  0  0  0
 10  2  1  0  0  0  0
 11  1  1  0  0  0  0
 12 35  1  0  0  0  0
 13 14  1  0  0  0  0
 14 23  1  0  0  0  0
 14 17  1  0  0  0  0
 15 11  1  1  0  0  0
 15  6  1  0  0  0  0
 16  5  1  6  0  0  0
 16  2  1  0  0  0  0
 18  7  1  0  0  0  0
 18 12  2  0  0  0  0
 19 27  1  0  0  0  0
 19 24  1  0  0  0  0
 21 25  1  0  0  0  0
 21 23  2  0  0  0  0
 22 24  2  0  0  0  0
 22 20  1  0  0  0  0
 23 22  1  0  0  0  0
 25 19  2  0  0  0  0
 27 26  3  0  0  0  0
 28 32  1  0  0  0  0
 28 33  1  0  0  0  0
 29 33  1  0  0  0  0
 29 30  1  0  0  0  0
 30 31  1  0  0  0  0
 31 32  1  6  0  0  0
 31 15  1  0  0  0  0
 35 34  1  0  0  0  0
 36 35  2  0  0  0  0
M  END
>  <MODEL>
6

>  <REMARK>
 VINA RESULT:      -6.5      3.707      8.258
  Name = 
  4 active torsions:
  status: ('A' for Active; 'I' for Inactive)
    1  A    between atoms: C_3  and  C_26
    2  A    between atoms: C_20  and  C_27
    3  A    between atoms: N_21  and  C_31
    4  A    between atoms: N_29  and  C_30
                            x       y       z     vdW  Elec       q    Type
                         _______ _______ _______ _____ _____    ______ ____

>  <TORSDO>
F 4

$$$$
=
 OpenBabel11072408453D

 36 40  0  0  1  0  0  0  0  0999 V2000
  191.5590  175.1790  143.2390 C   0  0  2  0  0  3  0  0  0  0  0  0
  192.6310  174.0550  145.1840 O   0  0  0  0  0  0  0  0  0  0  0  0
  193.0890  170.5320  144.6600 C   0  0  0  0  0  2  0  0  0  0  0  0
  192.6540  171.2630  143.4850 N   0  0  0  0  0  0  0  0  0  0  0  0
  193.4820  176.3050  144.6360 C   0  0  0  0  0  2  0  0  0  0  0  0
  192.7880  172.5410  143.3390 C   0  0  0  0  0  0  0  0  0  0  0  0
  194.5080  172.5720  145.1610 C   0  0  0  0  0  0  0  0  0  0  0  0
  193.1040  177.7020  144.1330 C   0  0  0  0  0  2  0  0  0  0  0  0
  195.4550  173.1550  145.7550 O   0  0  0  0  0  0  0  0  0  0  0  0
  193.5380  173.3770  144.3530 C   0  0  2  0  0  3  0  0  0  0  0  0
  192.3790  174.6520  142.2160 O   0  0  0  0  0  0  0  0  0  0  0  0
  195.2460  170.3720  145.9030 C   0  0  0  0  0  3  0  0  0  0  0  0
  190.9600  176.5080  142.7630 C   0  0  0  0  0  2  0  0  0  0  0  0
  190.6350  177.4060  143.8770 N   0  0  0  0  0  0  0  0  0  0  0  0
  192.1900  173.2460  142.1300 C   0  0  2  0  0  3  0  0  0  0  0  0
  192.3220  175.2960  144.5840 C   0  0  1  0  0  3  0  0  0  0  0  0
  191.7030  178.1330  144.5830 C   0  0  0  0  0  2  0  0  0  0  0  0
  194.3410  171.1130  145.2490 C   0  0  0  0  0  0  0  0  0  0  0  0
  186.6880  177.4750  145.4580 C   0  0  0  0  0  0  0  0  0  0  0  0
  188.3520  178.2380  142.1620 C   0  0  0  0  0  1  0  0  0  0  0  0
  189.0480  177.0200  145.7080 C   0  0  0  0  0  3  0  0  0  0  0  0
  188.1960  177.8580  143.5950 C   0  0  0  0  0  0  0  0  0  0  0  0
  189.2890  177.4340  144.3870 C   0  0  0  0  0  0  0  0  0  0  0  0
  186.9070  177.8750  144.1380 C   0  0  0  0  0  3  0  0  0  0  0  0
  187.7580  177.0410  146.2400 C   0  0  0  0  0  3  0  0  0  0  0  0
  184.2460  177.5170  146.4640 C   0  0  0  0  0  3  0  0  0  0  0  0
  185.3600  177.4980  146.0040 C   0  0  0  0  0  0  0  0  0  0  0  0
  188.5470  172.6830  142.8540 C   0  0  0  0  0  2  0  0  0  0  0  0
  188.8150  173.7600  140.6680 N   0  0  0  0  0  2  0  0  0  0  0  0
  190.2860  173.6650  140.7280 C   0  0  0  0  0  2  0  0  0  0  0  0
  190.7830  172.8740  141.8720 N   0  0  2  0  0  0  0  0  0  0  0  0
  189.9650  173.2230  143.0380 C   0  0  0  0  0  2  0  0  0  0  0  0
  188.1860  172.6410  141.3700 C   0  0  0  0  0  2  0  0  0  0  0  0
  194.5400  168.3440  147.1860 O   0  0  0  0  0  1  0  0  0  0  0  0
  195.2020  168.9140  146.1060 C   0  0  0  0  0  0  0  0  0  0  0  0
  195.7790  168.1660  145.2750 O   0  0  0  0  0  0  0  0  0  0  0  0
  1 13  1  6  0  0  0
  1 16  1  0  0  0  0
  3 18  1  0  0  0  0
  4  3  1  0  0  0  0
  6  4  2  0  0  0  0
  7 18  1  0  0  0  0
  7  9  2  0  0  0  0
  8 17  1  0  0  0  0
  8  5  1  0  0  0  0
 10  6  1  6  0  0  0
 10  7  1  0  0  0  0
 10  2  1  0  0  0  0
 11  1  1  0  0  0  0
 12 35  1  0  0  0  0
 13 14  1  0  0  0  0
 14 23  1  0  0  0  0
 14 17  1  0  0  0  0
 15 11  1  1  0  0  0
 15  6  1  0  0  0  0
 16  5  1  6  0  0  0
 16  2  1  0  0  0  0
 18 12  2  0  0  0  0
 19 27  1  0  0  0  0
 19 25  1  0  0  0  0
 20 22  1  0  0  0  0
 21 25  2  0  0  0  0
 22 24  1  0  0  0  0
 22 23  2  0  0  0  0
 23 21  1  0  0  0  0
 24 19  2  0  0  0  0
 27 26  3  0  0  0  0
 28 32  1  0  0  0  0
 29 30  1  0  0  0  0
 29 33  1  0  0  0  0
 31 30  1  6  0  0  0
 31 15  1  0  0  0  0
 31 32  1  0  0  0  0
 33 28  1  0  0  0  0
 35 34  1  0  0  0  0
 36 35  2  0  0  0  0
M  END
>  <MODEL>
7

>  <REMARK>
 VINA RESULT:      -5.8      3.485      8.051
  Name = 
  4 active torsions:
  status: ('A' for Active; 'I' for Inactive)
    1  A    between atoms: C_3  and  C_26
    2  A    between atoms: C_20  and  C_27
    3  A    between atoms: N_21  and  C_31
    4  A    between atoms: N_29  and  C_30
                            x       y       z     vdW  Elec       q    Type
                         _______ _______ _______ _____ _____    ______ ____

>  <TORSDO>
F 4

$$$$
=
 OpenBabel11072408453D

 36 40  0  0  1  0  0  0  0  0999 V2000
  191.8000  173.9160  143.4370 C   0  0  2  0  0  3  0  0  0  0  0  0
  190.7710  176.1590  143.1180 O   0  0  0  0  0  0  0  0  0  0  0  0
  187.4160  175.9710  141.8520 C   0  0  0  0  0  2  0  0  0  0  0  0
  187.9850  174.6940  142.2410 N   0  0  0  0  0  0  0  0  0  0  0  0
  192.1920  175.8990  145.1190 C   0  0  0  0  0  2  0  0  0  0  0  0
  188.9890  174.5660  143.0460 C   0  0  0  0  0  0  0  0  0  0  0  0
  188.6270  176.9030  143.8750 C   0  0  0  0  0  0  0  0  0  0  0  0
  193.4550  175.2430  145.6850 C   0  0  0  0  0  2  0  0  0  0  0  0
  188.8230  177.7920  144.7460 O   0  0  0  0  0  0  0  0  0  0  0  0
  189.5870  175.7600  143.7580 C   0  0  2  0  0  3  0  0  0  0  0  0
  190.7430  173.3000  144.1440 O   0  0  0  0  0  0  0  0  0  0  0  0
  186.5610  177.9450  143.1130 C   0  0  0  0  0  3  0  0  0  0  0  0
  193.1130  173.2020  143.7830 C   0  0  0  0  0  2  0  0  0  0  0  0
  194.2810  174.0770  143.6330 N   0  0  0  0  0  0  0  0  0  0  0  0
  189.6020  173.1970  143.3020 C   0  0  2  0  0  3  0  0  0  0  0  0
  191.8480  175.4450  143.6900 C   0  0  1  0  0  3  0  0  0  0  0  0
  194.5700  175.1110  144.6410 C   0  0  0  0  0  2  0  0  0  0  0  0
  187.4690  176.9710  142.9690 C   0  0  0  0  0  0  0  0  0  0  0  0
  196.5360  173.8750  140.0330 C   0  0  0  0  0  0  0  0  0  0  0  0
  194.2010  176.3280  141.6900 C   0  0  0  0  0  1  0  0  0  0  0  0
  195.8620  172.9260  142.1510 C   0  0  0  0  0  3  0  0  0  0  0  0
  194.9870  175.0820  141.4590 C   0  0  0  0  0  0  0  0  0  0  0  0
  195.0380  174.0350  142.4100 C   0  0  0  0  0  0  0  0  0  0  0  0
  195.7360  174.9910  140.2810 C   0  0  0  0  0  3  0  0  0  0  0  0
  196.6040  172.8460  140.9720 C   0  0  0  0  0  3  0  0  0  0  0  0
  197.9390  173.7230  137.8010 C   0  0  0  0  0  3  0  0  0  0  0  0
  197.2990  173.7930  138.8200 C   0  0  0  0  0  0  0  0  0  0  0  0
  190.9590  172.5000  139.8690 C   0  0  0  0  0  2  0  0  0  0  0  0
  191.2730  170.5440  141.3120 N   0  0  0  0  0  2  0  0  0  0  0  0
  190.5270  171.1620  142.4250 C   0  0  0  0  0  2  0  0  0  0  0  0
  189.8740  172.4370  142.0640 N   0  0  2  0  0  0  0  0  0  0  0  0
  190.8100  173.1900  141.2240 C   0  0  0  0  0  2  0  0  0  0  0  0
  190.7580  170.9930  140.0190 C   0  0  0  0  0  2  0  0  0  0  0  0
  185.4770  178.6000  140.9560 O   0  0  0  0  0  0  0  0  0  0  0  0
  185.3730  178.1660  142.2720 C   0  0  0  0  0  0  0  0  0  0  0  0
  184.2320  177.9530  142.7590 O   0  0  0  0  0  1  0  0  0  0  0  0
  1 16  1  0  0  0  0
  1 13  1  1  0  0  0
  1 11  1  0  0  0  0
  2 16  1  0  0  0  0
  2 10  1  0  0  0  0
  3  4  1  0  0  0  0
  3 18  1  0  0  0  0
  4  6  2  0  0  0  0
  5  8  1  0  0  0  0
  7  9  2  0  0  0  0
 10  6  1  6  0  0  0
 10  7  1  0  0  0  0
 14 13  1  0  0  0  0
 14 17  1  0  0  0  0
 15  6  1  6  0  0  0
 15 11  1  0  0  0  0
 16  5  1  1  0  0  0
 17  8  1  0  0  0  0
 18 12  2  0  0  0  0
 18  7  1  0  0  0  0
 19 24  2  0  0  0  0
 19 25  1  0  0  0  0
 21 23  1  0  0  0  0
 22 20  1  0  0  0  0
 22 23  2  0  0  0  0
 23 14  1  0  0  0  0
 24 22  1  0  0  0  0
 25 21  2  0  0  0  0
 26 27  3  0  0  0  0
 27 19  1  0  0  0  0
 28 33  1  0  0  0  0
 28 32  1  0  0  0  0
 29 30  1  0  0  0  0
 31 32  1  6  0  0  0
 31 30  1  0  0  0  0
 31 15  1  0  0  0  0
 33 29  1  0  0  0  0
 34 35  2  0  0  0  0
 35 36  1  0  0  0  0
 35 12  1  0  0  0  0
M  END
>  <MODEL>
8

>  <REMARK>
 VINA RESULT:      -5.7      1.329      1.958
  Name = 
  4 active torsions:
  status: ('A' for Active; 'I' for Inactive)
    1  A    between atoms: C_3  and  C_26
    2  A    between atoms: C_20  and  C_27
    3  A    between atoms: N_21  and  C_31
    4  A    between atoms: N_29  and  C_30
                            x       y       z     vdW  Elec       q    Type
                         _______ _______ _______ _____ _____    ______ ____

>  <TORSDO>
F 4

$$$$
=
 OpenBabel11072408453D

 36 40  0  0  1  0  0  0  0  0999 V2000
  191.8750  173.0460  142.8190 C   0  0  2  0  0  3  0  0  0  0  0  0
  192.6250  174.5840  141.0130 O   0  0  0  0  0  0  0  0  0  0  0  0
  195.8870  173.7570  139.7610 C   0  0  0  0  0  2  0  0  0  0  0  0
  195.3260  172.7760  140.6710 N   0  0  0  0  0  0  0  0  0  0  0  0
  190.2350  173.9700  140.9830 C   0  0  0  0  0  2  0  0  0  0  0  0
  194.0630  172.6760  140.9340 C   0  0  0  0  0  0  0  0  0  0  0  0
  193.5250  173.9980  138.8750 C   0  0  0  0  0  0  0  0  0  0  0  0
  189.0070  173.6620  141.8460 C   0  0  0  0  0  2  0  0  0  0  0  0
  192.6910  174.3640  138.0030 O   0  0  0  0  0  0  0  0  0  0  0  0
  193.0350  173.5120  140.2040 C   0  0  2  0  0  3  0  0  0  0  0  0
  192.1680  171.8190  142.1830 O   0  0  0  0  0  0  0  0  0  0  0  0
  195.4190  174.3980  137.3970 C   0  0  0  0  0  3  0  0  0  0  0  0
  190.7730  172.8160  143.8610 C   0  0  0  0  0  2  0  0  0  0  0  0
  189.9850  174.0260  144.1170 N   0  0  0  0  0  0  0  0  0  0  0  0
  193.5730  171.7010  141.9950 C   0  0  2  0  0  3  0  0  0  0  0  0
  191.5280  174.1570  141.7940 C   0  0  1  0  0  3  0  0  0  0  0  0
  188.9780  174.4780  143.1430 C   0  0  0  0  0  2  0  0  0  0  0  0
  194.9710  174.0400  138.6070 C   0  0  0  0  0  0  0  0  0  0  0  0
  190.9640  176.4380  147.4800 C   0  0  0  0  0  0  0  0  0  0  0  0
  191.5320  176.5410  143.7550 C   0  0  0  0  0  1  0  0  0  0  0  0
  189.8810  174.5020  146.5220 C   0  0  0  0  0  3  0  0  0  0  0  0
  191.0880  176.0450  145.0890 C   0  0  0  0  0  0  0  0  0  0  0  0
  190.3260  174.8620  145.2380 C   0  0  0  0  0  0  0  0  0  0  0  0
  191.4000  176.8200  146.2100 C   0  0  0  0  0  3  0  0  0  0  0  0
  190.1990  175.2820  147.6340 C   0  0  0  0  0  3  0  0  0  0  0  0
  191.5670  177.9160  149.5850 C   0  0  0  0  0  3  0  0  0  0  0  0
  191.2920  177.2420  148.6240 C   0  0  0  0  0  0  0  0  0  0  0  0
  194.4860  170.9610  145.5630 C   0  0  0  0  0  2  0  0  0  0  0  0
  196.5090  171.0880  144.1850 N   0  0  0  0  0  2  0  0  0  0  0  0
  195.7490  171.5040  142.9900 C   0  0  0  0  0  2  0  0  0  0  0  0
  194.3260  171.7900  143.2640 N   0  0  2  0  0  0  0  0  0  0  0  0
  193.8400  170.7640  144.1930 C   0  0  0  0  0  2  0  0  0  0  0  0
  195.8760  171.5770  145.4090 C   0  0  0  0  0  2  0  0  0  0  0  0
  197.5680  175.6690  137.2380 O   0  0  0  0  0  1  0  0  0  0  0  0
  196.8280  174.5200  136.9850 C   0  0  0  0  0  0  0  0  0  0  0  0
  197.3760  173.5560  136.3920 O   0  0  0  0  0  0  0  0  0  0  0  0
  1 13  1  1  0  0  0
  2 16  1  0  0  0  0
  3  4  1  0  0  0  0
  4  6  2  0  0  0  0
  5  8  1  0  0  0  0
  8 17  1  0  0  0  0
  9  7  2  0  0  0  0
 10  7  1  6  0  0  0
 10  6  1  0  0  0  0
 10  2  1  0  0  0  0
 11  1  1  0  0  0  0
 12 18  2  0  0  0  0
 13 14  1  0  0  0  0
 14 23  1  0  0  0  0
 15  6  1  6  0  0  0
 15 11  1  0  0  0  0
 15 31  1  0  0  0  0
 16  5  1  6  0  0  0
 16  1  1  0  0  0  0
 17 14  1  0  0  0  0
 18  7  1  0  0  0  0
 18  3  1  0  0  0  0
 19 25  1  0  0  0  0
 19 27  1  0  0  0  0
 20 22  1  0  0  0  0
 21 25  2  0  0  0  0
 22 23  2  0  0  0  0
 22 24  1  0  0  0  0
 23 21  1  0  0  0  0
 24 19  2  0  0  0  0
 27 26  3  0  0  0  0
 29 33  1  0  0  0  0
 30 29  1  0  0  0  0
 31 30  1  6  0  0  0
 31 32  1  0  0  0  0
 32 28  1  0  0  0  0
 33 28  1  0  0  0  0
 35 34  1  0  0  0  0
 35 12  1  0  0  0  0
 36 35  2  0  0  0  0
M  END
>  <MODEL>
9

>  <REMARK>
 VINA RESULT:      -5.6      3.611      8.257
  Name = 
  4 active torsions:
  status: ('A' for Active; 'I' for Inactive)
    1  A    between atoms: C_3  and  C_26
    2  A    between atoms: C_20  and  C_27
    3  A    between atoms: N_21  and  C_31
    4  A    between atoms: N_29  and  C_30
                            x       y       z     vdW  Elec       q    Type
                         _______ _______ _______ _____ _____    ______ ____

>  <TORSDO>
F 4

$$$$
