=
 OpenBabel11062420153D

 25 27  0  0  0  0  0  0  0  0999 V2000
  188.7600  175.1920  141.5990 C   0  0  0  0  0  3  0  0  0  0  0  0
  188.2940  176.0150  144.6210 C   0  0  0  0  0  0  0  0  0  0  0  0
  189.2020  175.1510  144.1090 C   0  0  0  0  0  0  0  0  0  0  0  0
  187.3120  176.8610  143.8730 C   0  0  0  0  0  0  0  0  0  0  0  0
  188.2490  176.1390  146.0110 O   0  0  0  0  0  1  0  0  0  0  0  0
  187.6570  176.0830  141.5410 N   0  0  0  0  0  0  0  0  0  0  0  0
  187.0490  176.8560  142.5680 C   0  0  0  0  0  3  0  0  0  0  0  0
  189.4060  174.8160  142.6900 C   0  0  0  0  0  2  0  0  0  0  0  0
  185.9400  178.9670  143.7510 C   0  0  0  0  0  2  0  0  0  0  0  0
  184.9720  179.8290  144.5620 C   0  0  0  0  0  2  0  0  0  0  0  0
  184.4280  178.2010  146.0280 C   0  0  0  0  0  2  0  0  0  0  0  0
  185.3280  177.1390  145.3990 C   0  0  0  0  0  2  0  0  0  0  0  0
  183.9040  179.0410  145.0280 O   0  0  0  0  0  0  0  0  0  0  0  0
  186.4600  177.8340  144.6380 C   0  0  0  0  0  3  0  0  0  0  0  0
  189.8860  173.2710  145.3990 O   0  0  0  0  0  0  0  0  0  0  0  0
  190.1360  174.4520  145.0290 C   0  0  0  0  0  0  0  0  0  0  0  0
  192.8740  175.9700  146.8810 C   0  0  0  0  0  3  0  0  0  0  0  0
  191.6450  175.3310  146.8720 C   0  0  0  0  0  3  0  0  0  0  0  0
  193.2320  176.0920  145.5510 C   0  0  0  0  0  0  0  0  0  0  0  0
  191.3510  175.1160  145.5370 C   0  0  0  0  0  0  0  0  0  0  0  0
  192.3120  175.5770  144.7760 O   0  0  0  0  0  0  0  0  0  0  0  0
  194.8930  177.7760  145.5710 O   0  0  0  0  0  0  0  0  0  0  0  0
  195.1770  176.0940  143.9770 N   0  0  0  0  0  2  0  0  0  0  0  0
  194.4650  176.7090  145.0520 C   0  0  0  0  0  0  0  0  0  0  0  0
  196.4040  176.6610  143.4420 C   0  0  0  0  0  1  0  0  0  0  0  0
  1  8  1  0  0  0  0
  2  5  1  0  0  0  0
  3  2  2  0  0  0  0
  3 16  1  0  0  0  0
  4  2  1  0  0  0  0
  4 14  1  0  0  0  0
  6  1  2  0  0  0  0
  6  7  1  0  0  0  0
  7  4  2  0  0  0  0
  8  3  1  0  0  0  0
  9 10  1  0  0  0  0
  9 14  1  0  0  0  0
 10 13  1  0  0  0  0
 12 11  1  0  0  0  0
 13 11  1  0  0  0  0
 14 12  1  0  0  0  0
 16 15  2  0  0  0  0
 16 20  1  0  0  0  0
 18 17  1  0  0  0  0
 19 17  2  0  0  0  0
 20 18  2  0  0  0  0
 21 20  1  0  0  0  0
 21 19  1  0  0  0  0
 23 24  1  0  0  0  0
 24 19  1  0  0  0  0
 24 22  2  0  0  0  0
 25 23  1  0  0  0  0
M  END
>  <MODEL>
1

>  <REMARK>
 VINA RESULT:      -7.1      0.000      0.000
  Name = 
  4 active torsions:
  status: ('A' for Active; 'I' for Inactive)
    1  A    between atoms: C_5  and  C_25
    2  A    between atoms: C_7  and  C_22
    3  A    between atoms: C_11  and  C_18
    4  A    between atoms: C_13  and  C_25
                            x       y       z     vdW  Elec       q    Type
                         _______ _______ _______ _____ _____    ______ ____

>  <TORSDO>
F 4

$$$$
=
 OpenBabel11062420153D

 25 27  0  0  0  0  0  0  0  0999 V2000
  188.9310  174.9320  147.2210 C   0  0  0  0  0  3  0  0  0  0  0  0
  189.0340  176.2620  144.3490 C   0  0  0  0  0  0  0  0  0  0  0  0
  189.9140  175.4030  144.9170 C   0  0  0  0  0  0  0  0  0  0  0  0
  187.7400  176.7540  144.9160 C   0  0  0  0  0  0  0  0  0  0  0  0
  189.3600  176.7630  143.0880 O   0  0  0  0  0  1  0  0  0  0  0  0
  187.7840  175.7670  147.1940 N   0  0  0  0  0  2  0  0  0  0  0  0
  187.2420  176.5440  146.1330 C   0  0  0  0  0  3  0  0  0  0  0  0
  189.8150  174.7830  146.2480 C   0  0  0  0  0  3  0  0  0  0  0  0
  185.8270  176.8200  143.2820 C   0  0  0  0  0  2  0  0  0  0  0  0
  184.8850  177.7830  142.5590 C   0  0  0  0  0  2  0  0  0  0  0  0
  185.2260  179.5050  143.9800 C   0  0  0  0  0  2  0  0  0  0  0  0
  186.2090  178.7540  144.8760 C   0  0  0  0  0  2  0  0  0  0  0  0
  184.2460  178.6190  143.4940 O   0  0  0  0  0  0  0  0  0  0  0  0
  186.8610  177.6290  144.0680 C   0  0  0  0  0  3  0  0  0  0  0  0
  191.0210  174.0880  143.2720 O   0  0  0  0  0  0  0  0  0  0  0  0
  191.1180  174.9880  144.1520 C   0  0  0  0  0  0  0  0  0  0  0  0
  194.0240  176.9780  145.0600 C   0  0  0  0  0  3  0  0  0  0  0  0
  192.6480  176.8180  145.0220 C   0  0  0  0  0  3  0  0  0  0  0  0
  194.5410  175.8390  144.4710 C   0  0  0  0  0  0  0  0  0  0  0  0
  192.4370  175.5950  144.4090 C   0  0  0  0  0  0  0  0  0  0  0  0
  193.5790  175.0350  144.0950 O   0  0  0  0  0  0  0  0  0  0  0  0
  196.6840  176.3270  143.5970 O   0  0  0  0  0  0  0  0  0  0  0  0
  196.5330  174.3790  144.8750 N   0  0  0  0  0  2  0  0  0  0  0  0
  195.9650  175.5480  144.2810 C   0  0  0  0  0  0  0  0  0  0  0  0
  197.9370  174.0400  144.7200 C   0  0  0  0  0  1  0  0  0  0  0  0
  2  4  1  0  0  0  0
  2  3  2  0  0  0  0
  3  8  1  0  0  0  0
  4  7  2  0  0  0  0
  5  2  1  0  0  0  0
  6  1  1  0  0  0  0
  7  6  1  0  0  0  0
  8  1  2  0  0  0  0
  9 14  1  0  0  0  0
 10  9  1  0  0  0  0
 10 13  1  0  0  0  0
 11 12  1  0  0  0  0
 13 11  1  0  0  0  0
 14 12  1  0  0  0  0
 14  4  1  0  0  0  0
 15 16  2  0  0  0  0
 16 20  1  0  0  0  0
 16  3  1  0  0  0  0
 18 17  1  0  0  0  0
 19 17  2  0  0  0  0
 20 18  2  0  0  0  0
 21 20  1  0  0  0  0
 21 19  1  0  0  0  0
 22 24  2  0  0  0  0
 24 19  1  0  0  0  0
 24 23  1  0  0  0  0
 25 23  1  0  0  0  0
M  END
>  <MODEL>
2

>  <REMARK>
 VINA RESULT:      -7.1      2.118      2.741
  Name = 
  4 active torsions:
  status: ('A' for Active; 'I' for Inactive)
    1  A    between atoms: C_5  and  C_25
    2  A    between atoms: C_7  and  C_22
    3  A    between atoms: C_11  and  C_18
    4  A    between atoms: C_13  and  C_25
                            x       y       z     vdW  Elec       q    Type
                         _______ _______ _______ _____ _____    ______ ____

>  <TORSDO>
F 4

$$$$
=
 OpenBabel11062420153D

 25 27  0  0  0  0  0  0  0  0999 V2000
  186.5740  178.5510  147.6160 C   0  0  0  0  0  3  0  0  0  0  0  0
  187.4600  176.7630  145.1560 C   0  0  0  0  0  0  0  0  0  0  0  0
  187.9030  176.7240  146.4360 C   0  0  0  0  0  0  0  0  0  0  0  0
  186.3780  177.6260  144.5890 C   0  0  0  0  0  0  0  0  0  0  0  0
  188.0780  175.9070  144.2440 O   0  0  0  0  0  1  0  0  0  0  0  0
  185.8170  179.0660  146.5320 N   0  0  0  0  0  0  0  0  0  0  0  0
  185.7100  178.6100  145.1900 C   0  0  0  0  0  3  0  0  0  0  0  0
  187.4440  177.5550  147.5600 C   0  0  0  0  0  2  0  0  0  0  0  0
  184.5670  177.9730  142.8760 C   0  0  0  0  0  2  0  0  0  0  0  0
  184.2840  177.8720  141.3770 C   0  0  0  0  0  2  0  0  0  0  0  0
  186.4550  177.8980  140.7580 C   0  0  0  0  0  2  0  0  0  0  0  0
  187.0050  178.0020  142.1790 C   0  0  0  0  0  2  0  0  0  0  0  0
  185.2440  178.6080  140.6580 O   0  0  0  0  0  0  0  0  0  0  0  0
  185.9710  177.4340  143.1550 C   0  0  0  0  0  3  0  0  0  0  0  0
  188.6160  174.6210  147.2930 O   0  0  0  0  0  0  0  0  0  0  0  0
  188.9500  175.7380  146.8100 C   0  0  0  0  0  0  0  0  0  0  0  0
  192.4870  176.5500  147.0610 C   0  0  0  0  0  3  0  0  0  0  0  0
  191.2600  176.3470  147.6710 C   0  0  0  0  0  3  0  0  0  0  0  0
  192.2610  176.3510  145.7120 C   0  0  0  0  0  0  0  0  0  0  0  0
  190.3840  176.0430  146.6440 C   0  0  0  0  0  0  0  0  0  0  0  0
  191.0070  176.0510  145.4920 O   0  0  0  0  0  0  0  0  0  0  0  0
  192.9150  176.6350  143.4560 O   0  0  0  0  0  0  0  0  0  0  0  0
  194.6560  176.3540  144.9860 N   0  0  0  0  0  2  0  0  0  0  0  0
  193.2700  176.4560  144.6530 C   0  0  0  0  0  0  0  0  0  0  0  0
  195.6990  176.4500  143.9790 C   0  0  0  0  0  1  0  0  0  0  0  0
  2  3  2  0  0  0  0
  3 16  1  0  0  0  0
  3  8  1  0  0  0  0
  4  2  1  0  0  0  0
  4  7  2  0  0  0  0
  5  2  1  0  0  0  0
  6  1  2  0  0  0  0
  7  6  1  0  0  0  0
  8  1  1  0  0  0  0
  9 14  1  0  0  0  0
 10  9  1  0  0  0  0
 11 12  1  0  0  0  0
 12 14  1  0  0  0  0
 13 11  1  0  0  0  0
 13 10  1  0  0  0  0
 14  4  1  0  0  0  0
 16 15  2  0  0  0  0
 17 18  1  0  0  0  0
 19 17  2  0  0  0  0
 20 16  1  0  0  0  0
 20 18  2  0  0  0  0
 21 19  1  0  0  0  0
 21 20  1  0  0  0  0
 22 24  2  0  0  0  0
 24 23  1  0  0  0  0
 24 19  1  0  0  0  0
 25 23  1  0  0  0  0
M  END
>  <MODEL>
3

>  <REMARK>
 VINA RESULT:      -7.0      2.374      3.322
  Name = 
  4 active torsions:
  status: ('A' for Active; 'I' for Inactive)
    1  A    between atoms: C_5  and  C_25
    2  A    between atoms: C_7  and  C_22
    3  A    between atoms: C_11  and  C_18
    4  A    between atoms: C_13  and  C_25
                            x       y       z     vdW  Elec       q    Type
                         _______ _______ _______ _____ _____    ______ ____

>  <TORSDO>
F 4

$$$$
=
 OpenBabel11062420153D

 25 27  0  0  0  0  0  0  0  0999 V2000
  188.5590  174.7860  141.8050 C   0  0  0  0  0  3  0  0  0  0  0  0
  188.8860  177.0810  143.9630 C   0  0  0  0  0  0  0  0  0  0  0  0
  189.8500  176.3870  143.3100 C   0  0  0  0  0  0  0  0  0  0  0  0
  187.4050  176.9830  143.7780 C   0  0  0  0  0  0  0  0  0  0  0  0
  189.3070  177.9940  144.9300 O   0  0  0  0  0  1  0  0  0  0  0  0
  187.2240  175.1020  142.1690 N   0  0  0  0  0  0  0  0  0  0  0  0
  186.7240  176.1210  143.0240 C   0  0  0  0  0  3  0  0  0  0  0  0
  189.6560  175.3440  142.2900 C   0  0  0  0  0  2  0  0  0  0  0  0
  185.8310  178.9400  143.6190 C   0  0  0  0  0  2  0  0  0  0  0  0
  184.8390  179.7650  144.4400 C   0  0  0  0  0  2  0  0  0  0  0  0
  184.5510  178.2020  146.0430 C   0  0  0  0  0  2  0  0  0  0  0  0
  185.5060  177.1860  145.4200 C   0  0  0  0  0  2  0  0  0  0  0  0
  183.8840  178.9170  145.0300 O   0  0  0  0  0  0  0  0  0  0  0  0
  186.5140  177.9260  144.5380 C   0  0  0  0  0  3  0  0  0  0  0  0
  191.8690  177.5960  142.9580 O   0  0  0  0  0  0  0  0  0  0  0  0
  191.2770  176.6840  143.5980 C   0  0  0  0  0  0  0  0  0  0  0  0
  192.6920  175.0470  146.5220 C   0  0  0  0  0  3  0  0  0  0  0  0
  191.7430  175.8880  145.9640 C   0  0  0  0  0  3  0  0  0  0  0  0
  193.4790  174.6320  145.4650 C   0  0  0  0  0  0  0  0  0  0  0  0
  192.0290  175.9200  144.6110 C   0  0  0  0  0  0  0  0  0  0  0  0
  193.0640  175.1630  144.3430 O   0  0  0  0  0  0  0  0  0  0  0  0
  194.4660  172.4830  145.3850 O   0  0  0  0  0  0  0  0  0  0  0  0
  195.9210  174.2480  145.8520 N   0  0  0  0  0  2  0  0  0  0  0  0
  194.6250  173.7230  145.5600 C   0  0  0  0  0  0  0  0  0  0  0  0
  197.0920  173.3950  145.9600 C   0  0  0  0  0  1  0  0  0  0  0  0
  1  6  2  0  0  0  0
  1  8  1  0  0  0  0
  2  5  1  0  0  0  0
  3 16  1  0  0  0  0
  3  2  2  0  0  0  0
  4  2  1  0  0  0  0
  4 14  1  0  0  0  0
  6  7  1  0  0  0  0
  7  4  2  0  0  0  0
  8  3  1  0  0  0  0
  9 10  1  0  0  0  0
  9 14  1  0  0  0  0
 10 13  1  0  0  0  0
 12 11  1  0  0  0  0
 13 11  1  0  0  0  0
 14 12  1  0  0  0  0
 15 16  2  0  0  0  0
 16 20  1  0  0  0  0
 18 17  1  0  0  0  0
 19 24  1  0  0  0  0
 19 17  2  0  0  0  0
 20 18  2  0  0  0  0
 21 20  1  0  0  0  0
 21 19  1  0  0  0  0
 22 24  2  0  0  0  0
 23 25  1  0  0  0  0
 24 23  1  0  0  0  0
M  END
>  <MODEL>
4

>  <REMARK>
 VINA RESULT:      -6.9      1.806      2.192
  Name = 
  4 active torsions:
  status: ('A' for Active; 'I' for Inactive)
    1  A    between atoms: C_5  and  C_25
    2  A    between atoms: C_7  and  C_22
    3  A    between atoms: C_11  and  C_18
    4  A    between atoms: C_13  and  C_25
                            x       y       z     vdW  Elec       q    Type
                         _______ _______ _______ _____ _____    ______ ____

>  <TORSDO>
F 4

$$$$
=
 OpenBabel11062420153D

 25 27  0  0  0  0  0  0  0  0999 V2000
  188.9900  174.9820  147.0940 C   0  0  0  0  0  3  0  0  0  0  0  0
  188.5390  175.9140  144.1010 C   0  0  0  0  0  0  0  0  0  0  0  0
  189.3330  174.9220  144.5690 C   0  0  0  0  0  0  0  0  0  0  0  0
  187.6090  176.7880  144.8830 C   0  0  0  0  0  0  0  0  0  0  0  0
  188.5830  176.1690  142.7300 O   0  0  0  0  0  1  0  0  0  0  0  0
  188.1000  176.0810  147.2120 N   0  0  0  0  0  2  0  0  0  0  0  0
  187.4570  176.8520  146.2050 C   0  0  0  0  0  3  0  0  0  0  0  0
  189.4940  174.5000  145.9700 C   0  0  0  0  0  3  0  0  0  0  0  0
  185.5600  177.0760  143.4520 C   0  0  0  0  0  2  0  0  0  0  0  0
  184.6460  178.1420  142.8480 C   0  0  0  0  0  2  0  0  0  0  0  0
  185.2850  179.7830  144.2620 C   0  0  0  0  0  2  0  0  0  0  0  0
  186.2770  178.9190  145.0390 C   0  0  0  0  0  2  0  0  0  0  0  0
  184.1830  179.0040  143.8590 O   0  0  0  0  0  0  0  0  0  0  0  0
  186.7370  177.7640  144.1460 C   0  0  0  0  0  3  0  0  0  0  0  0
  189.7160  172.9980  143.2220 O   0  0  0  0  0  0  0  0  0  0  0  0
  190.1370  174.1230  143.6080 C   0  0  0  0  0  0  0  0  0  0  0  0
  193.0960  175.1650  141.7670 C   0  0  0  0  0  3  0  0  0  0  0  0
  191.8230  174.6200  141.7750 C   0  0  0  0  0  3  0  0  0  0  0  0
  193.3810  175.4460  143.0900 C   0  0  0  0  0  0  0  0  0  0  0  0
  191.4340  174.6100  143.1030 C   0  0  0  0  0  0  0  0  0  0  0  0
  192.3790  175.1090  143.8610 O   0  0  0  0  0  0  0  0  0  0  0  0
  194.7180  176.4020  144.7920 O   0  0  0  0  0  0  0  0  0  0  0  0
  195.7330  176.2060  142.6990 N   0  0  0  0  0  2  0  0  0  0  0  0
  194.6270  176.0400  143.5870 C   0  0  0  0  0  0  0  0  0  0  0  0
  196.9910  176.7890  143.1350 C   0  0  0  0  0  1  0  0  0  0  0  0
  1  6  1  0  0  0  0
  2  3  2  0  0  0  0
  2  4  1  0  0  0  0
  3  8  1  0  0  0  0
  4  7  2  0  0  0  0
  5  2  1  0  0  0  0
  7  6  1  0  0  0  0
  8  1  2  0  0  0  0
  9 14  1  0  0  0  0
 10  9  1  0  0  0  0
 10 13  1  0  0  0  0
 11 12  1  0  0  0  0
 13 11  1  0  0  0  0
 14  4  1  0  0  0  0
 14 12  1  0  0  0  0
 15 16  2  0  0  0  0
 16  3  1  0  0  0  0
 17 18  1  0  0  0  0
 17 19  2  0  0  0  0
 18 20  2  0  0  0  0
 19 24  1  0  0  0  0
 19 21  1  0  0  0  0
 20 16  1  0  0  0  0
 20 21  1  0  0  0  0
 23 25  1  0  0  0  0
 23 24  1  0  0  0  0
 24 22  2  0  0  0  0
M  END
>  <MODEL>
5

>  <REMARK>
 VINA RESULT:      -6.7      2.128      2.851
  Name = 
  4 active torsions:
  status: ('A' for Active; 'I' for Inactive)
    1  A    between atoms: C_5  and  C_25
    2  A    between atoms: C_7  and  C_22
    3  A    between atoms: C_11  and  C_18
    4  A    between atoms: C_13  and  C_25
                            x       y       z     vdW  Elec       q    Type
                         _______ _______ _______ _____ _____    ______ ____

>  <TORSDO>
F 4

$$$$
=
 OpenBabel11062420153D

 25 27  0  0  0  0  0  0  0  0999 V2000
  189.0860  175.3430  146.9560 C   0  0  0  0  0  3  0  0  0  0  0  0
  189.0000  177.0960  144.3210 C   0  0  0  0  0  0  0  0  0  0  0  0
  190.0050  176.3190  144.7890 C   0  0  0  0  0  0  0  0  0  0  0  0
  187.6330  177.2730  144.9030 C   0  0  0  0  0  0  0  0  0  0  0  0
  189.2530  177.8320  143.1620 O   0  0  0  0  0  1  0  0  0  0  0  0
  187.8130  175.9690  147.0080 N   0  0  0  0  0  2  0  0  0  0  0  0
  187.1610  176.7990  146.0550 C   0  0  0  0  0  3  0  0  0  0  0  0
  189.9950  175.4940  146.0080 C   0  0  0  0  0  3  0  0  0  0  0  0
  185.6670  177.2560  143.3320 C   0  0  0  0  0  2  0  0  0  0  0  0
  184.5960  178.1620  142.7240 C   0  0  0  0  0  2  0  0  0  0  0  0
  184.7900  179.7820  144.2850 C   0  0  0  0  0  2  0  0  0  0  0  0
  185.8840  179.0760  145.0830 C   0  0  0  0  0  2  0  0  0  0  0  0
  183.9010  178.8330  143.7470 O   0  0  0  0  0  0  0  0  0  0  0  0
  186.6300  178.1100  144.1600 C   0  0  0  0  0  3  0  0  0  0  0  0
  192.2160  177.0330  144.2710 O   0  0  0  0  0  0  0  0  0  0  0  0
  191.2730  176.2320  144.0190 C   0  0  0  0  0  0  0  0  0  0  0  0
  192.2880  173.6450  141.6720 C   0  0  0  0  0  3  0  0  0  0  0  0
  192.5550  174.4140  142.7930 C   0  0  0  0  0  3  0  0  0  0  0  0
  191.0430  174.0560  141.2340 C   0  0  0  0  0  0  0  0  0  0  0  0
  191.4510  175.2360  142.9460 C   0  0  0  0  0  0  0  0  0  0  0  0
  190.5690  174.9990  142.0070 O   0  0  0  0  0  0  0  0  0  0  0  0
  190.9410  173.3660  138.9730 O   0  0  0  0  0  0  0  0  0  0  0  0
  188.9470  173.1900  140.1760 N   0  0  0  0  0  2  0  0  0  0  0  0
  190.3320  173.5250  140.0670 C   0  0  0  0  0  0  0  0  0  0  0  0
  188.1920  172.6610  139.0530 C   0  0  0  0  0  1  0  0  0  0  0  0
  1  6  1  0  0  0  0
  2  3  2  0  0  0  0
  2  4  1  0  0  0  0
  3  8  1  0  0  0  0
  4  7  2  0  0  0  0
  5  2  1  0  0  0  0
  7  6  1  0  0  0  0
  8  1  2  0  0  0  0
  9 14  1  0  0  0  0
 10  9  1  0  0  0  0
 10 13  1  0  0  0  0
 11 12  1  0  0  0  0
 13 11  1  0  0  0  0
 14  4  1  0  0  0  0
 14 12  1  0  0  0  0
 16 15  2  0  0  0  0
 16  3  1  0  0  0  0
 17 18  1  0  0  0  0
 18 20  2  0  0  0  0
 19 17  2  0  0  0  0
 19 21  1  0  0  0  0
 20 16  1  0  0  0  0
 21 20  1  0  0  0  0
 22 24  2  0  0  0  0
 24 23  1  0  0  0  0
 24 19  1  0  0  0  0
 25 23  1  0  0  0  0
M  END
>  <MODEL>
6

>  <REMARK>
 VINA RESULT:      -6.7      2.813      4.646
  Name = 
  4 active torsions:
  status: ('A' for Active; 'I' for Inactive)
    1  A    between atoms: C_5  and  C_25
    2  A    between atoms: C_7  and  C_22
    3  A    between atoms: C_11  and  C_18
    4  A    between atoms: C_13  and  C_25
                            x       y       z     vdW  Elec       q    Type
                         _______ _______ _______ _____ _____    ______ ____

>  <TORSDO>
F 4

$$$$
=
 OpenBabel11062420153D

 25 27  0  0  0  0  0  0  0  0999 V2000
  190.2750  172.1590  144.1530 C   0  0  0  0  0  3  0  0  0  0  0  0
  191.4510  174.6680  145.6860 C   0  0  0  0  0  0  0  0  0  0  0  0
  190.1830  174.1910  145.6880 C   0  0  0  0  0  0  0  0  0  0  0  0
  192.6470  174.0840  145.0030 C   0  0  0  0  0  0  0  0  0  0  0  0
  191.6870  175.8470  146.3950 O   0  0  0  0  0  1  0  0  0  0  0  0
  191.6330  172.2020  143.7410 N   0  0  0  0  0  0  0  0  0  0  0  0
  192.6930  173.0480  144.1670 C   0  0  0  0  0  3  0  0  0  0  0  0
  189.6820  173.0000  144.9830 C   0  0  0  0  0  2  0  0  0  0  0  0
  195.0970  173.6860  145.4140 C   0  0  0  0  0  2  0  0  0  0  0  0
  196.4450  174.4050  145.4820 C   0  0  0  0  0  2  0  0  0  0  0  0
  195.7680  176.2200  144.3230 C   0  0  0  0  0  2  0  0  0  0  0  0
  194.3370  175.7260  144.1130 C   0  0  0  0  0  2  0  0  0  0  0  0
  196.6600  175.1320  144.2970 O   0  0  0  0  0  0  0  0  0  0  0  0
  193.9900  174.7230  145.2170 C   0  0  0  0  0  3  0  0  0  0  0  0
  188.9520  174.5530  147.6920 O   0  0  0  0  0  0  0  0  0  0  0  0
  189.1470  174.8900  146.4920 C   0  0  0  0  0  0  0  0  0  0  0  0
  186.9890  177.7050  145.6860 C   0  0  0  0  0  3  0  0  0  0  0  0
  187.5880  176.8890  146.6320 C   0  0  0  0  0  3  0  0  0  0  0  0
  187.4100  177.2170  144.4640 C   0  0  0  0  0  0  0  0  0  0  0  0
  188.3240  175.9670  145.9100 C   0  0  0  0  0  0  0  0  0  0  0  0
  188.2010  176.1870  144.6240 O   0  0  0  0  0  0  0  0  0  0  0  0
  186.4160  178.8550  143.0770 O   0  0  0  0  0  0  0  0  0  0  0  0
  187.3760  177.0390  141.9680 N   0  0  0  0  0  2  0  0  0  0  0  0
  187.0360  177.7590  143.1540 C   0  0  0  0  0  0  0  0  0  0  0  0
  187.0300  177.5270  140.6440 C   0  0  0  0  0  1  0  0  0  0  0  0
  1  8  1  0  0  0  0
  2  3  2  0  0  0  0
  2  5  1  0  0  0  0
  3 16  1  0  0  0  0
  4 14  1  0  0  0  0
  4  2  1  0  0  0  0
  6  1  2  0  0  0  0
  6  7  1  0  0  0  0
  7  4  2  0  0  0  0
  8  3  1  0  0  0  0
  9 10  1  0  0  0  0
 12 11  1  0  0  0  0
 12 14  1  0  0  0  0
 13 11  1  0  0  0  0
 13 10  1  0  0  0  0
 14  9  1  0  0  0  0
 16 15  2  0  0  0  0
 17 18  1  0  0  0  0
 19 21  1  0  0  0  0
 19 17  2  0  0  0  0
 20 16  1  0  0  0  0
 20 18  2  0  0  0  0
 21 20  1  0  0  0  0
 22 24  2  0  0  0  0
 23 24  1  0  0  0  0
 24 19  1  0  0  0  0
 25 23  1  0  0  0  0
M  END
>  <MODEL>
7

>  <REMARK>
 VINA RESULT:      -6.6      2.255      7.360
  Name = 
  4 active torsions:
  status: ('A' for Active; 'I' for Inactive)
    1  A    between atoms: C_5  and  C_25
    2  A    between atoms: C_7  and  C_22
    3  A    between atoms: C_11  and  C_18
    4  A    between atoms: C_13  and  C_25
                            x       y       z     vdW  Elec       q    Type
                         _______ _______ _______ _____ _____    ______ ____

>  <TORSDO>
F 4

$$$$
=
 OpenBabel11062420153D

 25 27  0  0  0  0  0  0  0  0999 V2000
  190.8100  176.7950  143.1490 C   0  0  0  0  0  3  0  0  0  0  0  0
  187.8100  175.7890  143.0220 C   0  0  0  0  0  0  0  0  0  0  0  0
  188.9240  175.1960  142.5320 C   0  0  0  0  0  0  0  0  0  0  0  0
  187.7210  177.0540  143.8160 C   0  0  0  0  0  0  0  0  0  0  0  0
  186.5900  175.1640  142.7590 O   0  0  0  0  0  1  0  0  0  0  0  0
  190.0770  177.8360  143.7770 N   0  0  0  0  0  2  0  0  0  0  0  0
  188.6960  177.9140  144.1060 C   0  0  0  0  0  3  0  0  0  0  0  0
  190.3090  175.6830  142.6370 C   0  0  0  0  0  3  0  0  0  0  0  0
  186.1770  177.0420  145.8040 C   0  0  0  0  0  2  0  0  0  0  0  0
  184.8660  177.6340  146.3200 C   0  0  0  0  0  2  0  0  0  0  0  0
  184.8340  179.3610  144.8670 C   0  0  0  0  0  2  0  0  0  0  0  0
  186.1410  178.9820  144.1710 C   0  0  0  0  0  2  0  0  0  0  0  0
  184.9070  179.0380  146.2350 O   0  0  0  0  0  0  0  0  0  0  0  0
  186.3840  177.4820  144.3530 C   0  0  0  0  0  3  0  0  0  0  0  0
  188.8640  172.8180  142.4710 O   0  0  0  0  0  0  0  0  0  0  0  0
  188.8000  173.8970  141.8200 C   0  0  0  0  0  0  0  0  0  0  0  0
  188.5570  173.1260  138.2740 C   0  0  0  0  0  3  0  0  0  0  0  0
  188.8700  172.7330  139.5640 C   0  0  0  0  0  3  0  0  0  0  0  0
  188.1380  174.4390  138.3830 C   0  0  0  0  0  0  0  0  0  0  0  0
  188.6200  173.8390  140.3580 C   0  0  0  0  0  0  0  0  0  0  0  0
  188.1840  174.8370  139.6290 O   0  0  0  0  0  0  0  0  0  0  0  0
  186.6860  176.0310  137.4060 O   0  0  0  0  0  0  0  0  0  0  0  0
  188.4220  175.2730  136.0410 N   0  0  0  0  0  2  0  0  0  0  0  0
  187.6980  175.2900  137.2730 C   0  0  0  0  0  0  0  0  0  0  0  0
  188.0320  176.0940  134.9070 C   0  0  0  0  0  1  0  0  0  0  0  0
  1  6  1  0  0  0  0
  2  4  1  0  0  0  0
  3  8  1  0  0  0  0
  3  2  2  0  0  0  0
  4  7  2  0  0  0  0
  4 14  1  0  0  0  0
  5  2  1  0  0  0  0
  6  7  1  0  0  0  0
  8  1  2  0  0  0  0
  9 10  1  0  0  0  0
 11 13  1  0  0  0  0
 12 14  1  0  0  0  0
 12 11  1  0  0  0  0
 13 10  1  0  0  0  0
 14  9  1  0  0  0  0
 16 15  2  0  0  0  0
 16  3  1  0  0  0  0
 17 19  2  0  0  0  0
 17 18  1  0  0  0  0
 18 20  2  0  0  0  0
 19 21  1  0  0  0  0
 20 16  1  0  0  0  0
 21 20  1  0  0  0  0
 23 24  1  0  0  0  0
 24 22  2  0  0  0  0
 24 19  1  0  0  0  0
 25 23  1  0  0  0  0
M  END
>  <MODEL>
8

>  <REMARK>
 VINA RESULT:      -6.5      3.516      6.088
  Name = 
  4 active torsions:
  status: ('A' for Active; 'I' for Inactive)
    1  A    between atoms: C_5  and  C_25
    2  A    between atoms: C_7  and  C_22
    3  A    between atoms: C_11  and  C_18
    4  A    between atoms: C_13  and  C_25
                            x       y       z     vdW  Elec       q    Type
                         _______ _______ _______ _____ _____    ______ ____

>  <TORSDO>
F 4

$$$$
=
 OpenBabel11062420153D

 25 27  0  0  0  0  0  0  0  0999 V2000
  190.8700  176.7110  146.7470 C   0  0  0  0  0  3  0  0  0  0  0  0
  188.7100  176.4130  144.4500 C   0  0  0  0  0  0  0  0  0  0  0  0
  189.9960  175.9870  144.4650 C   0  0  0  0  0  0  0  0  0  0  0  0
  187.9550  177.0820  145.5560 C   0  0  0  0  0  0  0  0  0  0  0  0
  187.9900  176.2200  143.2700 O   0  0  0  0  0  1  0  0  0  0  0  0
  189.7310  177.3800  147.2650 N   0  0  0  0  0  2  0  0  0  0  0  0
  188.4180  177.4990  146.7330 C   0  0  0  0  0  3  0  0  0  0  0  0
  190.9620  176.1200  145.5670 C   0  0  0  0  0  3  0  0  0  0  0  0
  185.7000  177.2410  146.6610 C   0  0  0  0  0  2  0  0  0  0  0  0
  184.2620  177.6970  146.4150 C   0  0  0  0  0  2  0  0  0  0  0  0
  184.7670  179.0320  144.6660 C   0  0  0  0  0  2  0  0  0  0  0  0
  186.2660  178.7400  144.6960 C   0  0  0  0  0  2  0  0  0  0  0  0
  184.2520  179.0330  145.9760 O   0  0  0  0  0  0  0  0  0  0  0  0
  186.4960  177.3810  145.3610 C   0  0  0  0  0  3  0  0  0  0  0  0
  191.1630  175.9310  142.3920 O   0  0  0  0  0  0  0  0  0  0  0  0
  190.5380  175.2810  143.2750 C   0  0  0  0  0  0  0  0  0  0  0  0
  189.7560  171.7310  143.4060 C   0  0  0  0  0  3  0  0  0  0  0  0
  189.7080  172.9890  143.9850 C   0  0  0  0  0  3  0  0  0  0  0  0
  190.4180  171.9070  142.2050 C   0  0  0  0  0  0  0  0  0  0  0  0
  190.3480  173.8300  143.0920 C   0  0  0  0  0  0  0  0  0  0  0  0
  190.7570  173.1610  142.0430 O   0  0  0  0  0  0  0  0  0  0  0  0
  191.0330  171.1540  140.0480 O   0  0  0  0  0  0  0  0  0  0  0  0
  190.6320  169.4820  141.6280 N   0  0  0  0  0  2  0  0  0  0  0  0
  190.7120  170.8520  141.2300 C   0  0  0  0  0  0  0  0  0  0  0  0
  190.9120  168.3950  140.7040 C   0  0  0  0  0  1  0  0  0  0  0  0
  1  6  1  0  0  0  0
  2  3  2  0  0  0  0
  2  4  1  0  0  0  0
  3  8  1  0  0  0  0
  4  7  2  0  0  0  0
  5  2  1  0  0  0  0
  7  6  1  0  0  0  0
  8  1  2  0  0  0  0
 10  9  1  0  0  0  0
 11 12  1  0  0  0  0
 11 13  1  0  0  0  0
 12 14  1  0  0  0  0
 13 10  1  0  0  0  0
 14  4  1  0  0  0  0
 14  9  1  0  0  0  0
 15 16  2  0  0  0  0
 16  3  1  0  0  0  0
 17 18  1  0  0  0  0
 19 17  2  0  0  0  0
 20 16  1  0  0  0  0
 20 18  2  0  0  0  0
 21 19  1  0  0  0  0
 21 20  1  0  0  0  0
 22 24  2  0  0  0  0
 24 23  1  0  0  0  0
 24 19  1  0  0  0  0
 25 23  1  0  0  0  0
M  END
>  <MODEL>
9

>  <REMARK>
 VINA RESULT:      -6.4      3.263      4.953
  Name = 
  4 active torsions:
  status: ('A' for Active; 'I' for Inactive)
    1  A    between atoms: C_5  and  C_25
    2  A    between atoms: C_7  and  C_22
    3  A    between atoms: C_11  and  C_18
    4  A    between atoms: C_13  and  C_25
                            x       y       z     vdW  Elec       q    Type
                         _______ _______ _______ _____ _____    ______ ____

>  <TORSDO>
F 4

$$$$
