=
 OpenBabel11072409023D

 47 53  0  0  1  0  0  0  0  0999 V2000
  190.7310  173.1070  142.2560 C   0  0  0  0  0  0  0  0  0  0  0  0
  194.9830  172.2140  144.8460 C   0  0  0  0  0  2  0  0  0  0  0  0
  192.0600  172.8310  141.8930 C   0  0  0  0  0  0  0  0  0  0  0  0
  189.8000  172.0570  142.2690 C   0  0  0  0  0  0  0  0  0  0  0  0
  188.8740  174.8270  142.1560 C   0  0  0  0  0  2  0  0  0  0  0  0
  194.4540  172.3790  143.4780 C   0  0  2  0  0  0  0  0  0  0  0  0
  193.6350  171.9380  144.5310 O   0  0  0  0  0  0  0  0  0  0  0  0
  194.7740  171.2440  142.4960 C   0  0  0  0  0  2  0  0  0  0  0  0
  194.0170  169.9870  140.5960 O   0  0  0  0  0  1  0  0  0  0  0  0
  192.4330  171.5130  141.5700 C   0  0  0  0  0  0  0  0  0  0  0  0
  193.1080  173.9100  141.8730 C   0  0  0  0  0  2  0  0  0  0  0  0
  191.4700  170.4980  141.6310 C   0  0  0  0  0  3  0  0  0  0  0  0
  188.3800  172.3520  142.6210 C   0  0  0  0  0  2  0  0  0  0  0  0
  187.9410  173.6260  141.9000 C   0  0  0  0  0  2  0  0  0  0  0  0
  194.0970  173.8120  143.0440 C   0  0  2  0  0  3  0  0  0  0  0  0
  190.2840  174.4850  142.6800 C   0  0  1  0  0  3  0  0  0  0  0  0
  193.8760  171.2110  141.2550 C   0  0  1  0  0  3  0  0  0  0  0  0
  190.1850  170.7900  141.9670 N   0  0  0  0  0  0  0  0  0  0  0  0
  189.9020  176.2100  146.1730 C   0  0  2  0  0  3  0  0  0  0  0  0
  190.3330  177.2200  143.7470 C   0  0  0  0  0  1  0  0  0  0  0  0
  191.0580  175.9440  146.9240 O   0  0  0  0  0  0  0  0  0  0  0  0
  191.5440  175.2990  144.6950 C   0  0  2  0  0  3  0  0  0  0  0  0
  191.7870  175.0190  146.1620 C   0  0  0  0  0  2  0  0  0  0  0  0
  190.2360  176.0300  144.6990 C   0  0  1  0  0  0  0  0  0  0  0  0
  190.2950  174.5900  144.2050 C   0  0  1  0  0  3  0  0  0  0  0  0
  189.3180  177.5800  146.5300 C   0  0  2  0  0  3  0  0  0  0  0  0
  189.8530  178.0400  147.7360 O   0  0  0  0  0  1  0  0  0  0  0  0
  187.3650  176.3620  147.1450 O   0  0  0  0  0  1  0  0  0  0  0  0
  187.7840  177.5750  146.5910 C   0  0  2  0  0  3  0  0  0  0  0  0
  185.4060  179.1270  143.9510 C   0  0  0  0  0  2  0  0  0  0  0  0
  186.4850  176.5070  144.7010 C   0  0  0  0  0  2  0  0  0  0  0  0
  186.0330  178.8780  145.3200 C   0  0  0  0  0  2  0  0  0  0  0  0
  187.1150  177.8010  145.2240 C   0  0  1  0  0  3  0  0  0  0  0  0
  185.8610  176.7380  143.3280 C   0  0  0  0  0  2  0  0  0  0  0  0
  184.7990  177.8330  143.4120 C   0  0  2  0  0  3  0  0  0  0  0  0
  184.2050  178.0630  142.1000 N   0  0  0  0  0  0  0  0  0  0  0  0
  184.9500  177.8810  140.9830 O   0  0  0  0  0  1  0  0  0  0  0  0
  182.1400  178.6560  143.0170 O   0  0  0  0  0  0  0  0  0  0  0  0
  182.2810  178.7150  140.6890 N   0  0  0  0  0  2  0  0  0  0  0  0
  180.9040  179.1450  140.5130 C   0  0  0  0  0  1  0  0  0  0  0  0
  182.8430  178.4850  141.9830 C   0  0  0  0  0  0  0  0  0  0  0  0
  195.6900  175.7480  143.4150 C   0  0  0  0  0  0  0  0  0  0  0  0
  195.3020  174.5600  142.7190 N   0  0  0  0  0  2  0  0  0  0  0  0
  194.9200  176.2550  144.3250 N   0  0  0  0  0  2  0  0  0  0  0  0
  197.1870  177.5830  143.4660 O   0  0  0  0  0  1  0  0  0  0  0  0
  196.9510  176.4120  143.0680 C   0  0  0  0  0  0  0  0  0  0  0  0
  197.8950  175.7490  142.2950 O   0  0  0  0  0  0  0  0  0  0  0  0
  1  4  1  0  0  0  0
  1 16  1  0  0  0  0
  3  1  2  0  0  0  0
  4 13  1  0  0  0  0
  6  8  1  6  0  0  0
  6  7  1  0  0  0  0
  6  2  1  0  0  0  0
  7  2  1  0  0  0  0
 10 12  2  0  0  0  0
 10  3  1  0  0  0  0
 11  3  1  0  0  0  0
 11 15  1  0  0  0  0
 12 18  1  0  0  0  0
 14  5  1  0  0  0  0
 14 13  1  0  0  0  0
 15 43  1  6  0  0  0
 15  6  1  0  0  0  0
 16  5  1  1  0  0  0
 17  9  1  1  0  0  0
 17 10  1  0  0  0  0
 17  8  1  0  0  0  0
 18  4  2  0  0  0  0
 19 26  1  6  0  0  0
 19 21  1  0  0  0  0
 22 24  1  0  0  0  0
 22 23  1  1  0  0  0
 23 21  1  0  0  0  0
 24 20  1  6  0  0  0
 24 19  1  0  0  0  0
 25 16  1  6  0  0  0
 25 22  1  0  0  0  0
 25 24  1  0  0  0  0
 26 29  1  0  0  0  0
 26 27  1  1  0  0  0
 29 28  1  6  0  0  0
 30 32  1  0  0  0  0
 31 33  1  0  0  0  0
 33 32  1  0  0  0  0
 33 29  1  1  0  0  0
 34 35  1  0  0  0  0
 34 31  1  0  0  0  0
 35 36  1  6  0  0  0
 35 30  1  0  0  0  0
 37 36  1  0  0  0  0
 39 41  1  0  0  0  0
 40 39  1  0  0  0  0
 41 36  1  0  0  0  0
 41 38  2  0  0  0  0
 42 44  2  0  0  0  0
 43 42  1  0  0  0  0
 46 42  1  0  0  0  0
 46 45  1  0  0  0  0
 47 46  2  0  0  0  0
M  END
>  <MODEL>
1

>  <REMARK>
 VINA RESULT:      -8.5      0.000      0.000
  Name = 
  7 active torsions:
  status: ('A' for Active; 'I' for Inactive)
    1  A    between atoms: C_1  and  C_14
    2  A    between atoms: N_2  and  C_38
    3  A    between atoms: C_5  and  C_7
    4  A    between atoms: C_7  and  C_26
    5  A    between atoms: N_11  and  C_45
    6  A    between atoms: C_24  and  C_26
    7  A    between atoms: C_35  and  C_40
                            x       y       z     vdW  Elec       q    Type
                         _______ _______ _______ _____ _____    ______ ____

>  <TORSDO>
F 7

$$$$
=
 OpenBabel11072409023D

 47 53  0  0  1  0  0  0  0  0999 V2000
  190.6150  172.9800  140.7140 C   0  0  0  0  0  0  0  0  0  0  0  0
  193.2480  170.0740  143.9080 C   0  0  0  0  0  2  0  0  0  0  0  0
  191.9290  172.4810  140.7290 C   0  0  0  0  0  0  0  0  0  0  0  0
  189.6410  172.3030  139.9640 C   0  0  0  0  0  0  0  0  0  0  0  0
  189.2000  175.0810  140.7570 C   0  0  0  0  0  2  0  0  0  0  0  0
  193.3640  170.8460  142.6570 C   0  0  2  0  0  0  0  0  0  0  0  0
  192.1320  170.3200  143.0800 O   0  0  0  0  0  0  0  0  0  0  0  0
  193.9210  170.0810  141.4480 C   0  0  0  0  0  2  0  0  0  0  0  0
  193.8780  169.8330  139.0610 O   0  0  0  0  0  1  0  0  0  0  0  0
  192.2350  171.3100  140.0130 C   0  0  0  0  0  0  0  0  0  0  0  0
  193.0140  173.1540  141.5240 C   0  0  0  0  0  2  0  0  0  0  0  0
  191.2170  170.6560  139.3080 C   0  0  0  0  0  3  0  0  0  0  0  0
  188.2530  172.8490  139.9170 C   0  0  0  0  0  2  0  0  0  0  0  0
  188.3180  174.3620  139.7160 C   0  0  0  0  0  2  0  0  0  0  0  0
  193.4020  172.3800  142.7920 C   0  0  2  0  0  3  0  0  0  0  0  0
  190.2070  174.1920  141.5160 C   0  0  1  0  0  3  0  0  0  0  0  0
  193.6280  170.7380  140.0950 C   0  0  1  0  0  3  0  0  0  0  0  0
  189.9560  171.1650  139.2920 N   0  0  0  0  0  0  0  0  0  0  0  0
  189.4310  174.3490  145.3490 C   0  0  2  0  0  3  0  0  0  0  0  0
  191.4170  175.3870  143.9100 C   0  0  0  0  0  1  0  0  0  0  0  0
  189.6910  173.0860  145.9030 O   0  0  0  0  0  0  0  0  0  0  0  0
  190.6210  173.0660  143.7230 C   0  0  2  0  0  3  0  0  0  0  0  0
  189.9510  172.2500  144.8070 C   0  0  0  0  0  2  0  0  0  0  0  0
  190.2040  174.4690  144.0440 C   0  0  1  0  0  0  0  0  0  0  0  0
  189.5920  173.7540  142.8450 C   0  0  1  0  0  3  0  0  0  0  0  0
  189.7170  175.4620  146.3610 C   0  0  2  0  0  3  0  0  0  0  0  0
  189.7920  174.9380  147.6550 O   0  0  0  0  0  1  0  0  0  0  0  0
  187.8460  176.4960  147.4140 O   0  0  0  0  0  1  0  0  0  0  0  0
  188.6870  176.5990  146.3020 C   0  0  2  0  0  3  0  0  0  0  0  0
  187.5150  177.7340  142.7850 C   0  0  0  0  0  2  0  0  0  0  0  0
  186.3690  176.7670  145.3040 C   0  0  0  0  0  2  0  0  0  0  0  0
  188.3070  177.7560  144.0890 C   0  0  0  0  0  2  0  0  0  0  0  0
  187.8630  176.6120  145.0030 C   0  0  1  0  0  3  0  0  0  0  0  0
  185.5620  176.7380  144.0090 C   0  0  0  0  0  2  0  0  0  0  0  0
  186.0210  177.8600  143.0800 C   0  0  2  0  0  3  0  0  0  0  0  0
  185.2570  177.8320  141.8380 N   0  0  0  0  0  0  0  0  0  0  0  0
  185.8660  177.4740  140.6820 O   0  0  0  0  0  1  0  0  0  0  0  0
  183.2940  178.5200  142.9000 O   0  0  0  0  0  0  0  0  0  0  0  0
  183.1410  178.1630  140.6000 N   0  0  0  0  0  2  0  0  0  0  0  0
  181.7330  178.5140  140.5340 C   0  0  0  0  0  1  0  0  0  0  0  0
  183.8700  178.1870  141.8290 C   0  0  0  0  0  0  0  0  0  0  0  0
  194.9830  173.2170  144.5870 C   0  0  0  0  0  0  0  0  0  0  0  0
  194.7160  172.8180  143.2390 N   0  0  0  0  0  2  0  0  0  0  0  0
  194.0230  173.2820  145.4540 N   0  0  0  0  0  2  0  0  0  0  0  0
  197.1110  174.1640  144.1530 O   0  0  0  0  0  0  0  0  0  0  0  0
  196.3480  173.5890  144.9740 C   0  0  0  0  0  0  0  0  0  0  0  0
  196.8070  173.3100  146.2550 O   0  0  0  0  0  1  0  0  0  0  0  0
  1  3  1  0  0  0  0
  1 16  1  0  0  0  0
  3 11  1  0  0  0  0
  4  1  2  0  0  0  0
  6  8  1  6  0  0  0
  6 15  1  0  0  0  0
  6  7  1  0  0  0  0
  6  2  1  0  0  0  0
  7  2  1  0  0  0  0
 10 17  1  0  0  0  0
 10  3  2  0  0  0  0
 11 15  1  0  0  0  0
 12 10  1  0  0  0  0
 13  4  1  0  0  0  0
 14 13  1  0  0  0  0
 14  5  1  0  0  0  0
 15 43  1  6  0  0  0
 16  5  1  6  0  0  0
 17  9  1  6  0  0  0
 17  8  1  0  0  0  0
 18 12  2  0  0  0  0
 18  4  1  0  0  0  0
 19 21  1  0  0  0  0
 19 26  1  1  0  0  0
 22 24  1  0  0  0  0
 22 23  1  1  0  0  0
 23 21  1  0  0  0  0
 24 20  1  6  0  0  0
 24 19  1  0  0  0  0
 25 16  1  6  0  0  0
 25 22  1  0  0  0  0
 25 24  1  0  0  0  0
 26 27  1  1  0  0  0
 29 26  1  0  0  0  0
 29 28  1  1  0  0  0
 30 35  1  0  0  0  0
 30 32  1  0  0  0  0
 32 33  1  0  0  0  0
 33 31  1  0  0  0  0
 33 29  1  1  0  0  0
 34 31  1  0  0  0  0
 35 36  1  6  0  0  0
 35 34  1  0  0  0  0
 37 36  1  0  0  0  0
 39 41  1  0  0  0  0
 40 39  1  0  0  0  0
 41 36  1  0  0  0  0
 41 38  2  0  0  0  0
 42 46  1  0  0  0  0
 42 44  2  0  0  0  0
 43 42  1  0  0  0  0
 45 46  2  0  0  0  0
 46 47  1  0  0  0  0
M  END
>  <MODEL>
2

>  <REMARK>
 VINA RESULT:      -7.6      1.775      2.215
  Name = 
  7 active torsions:
  status: ('A' for Active; 'I' for Inactive)
    1  A    between atoms: C_1  and  C_14
    2  A    between atoms: N_2  and  C_38
    3  A    between atoms: C_5  and  C_7
    4  A    between atoms: C_7  and  C_26
    5  A    between atoms: N_11  and  C_45
    6  A    between atoms: C_24  and  C_26
    7  A    between atoms: C_35  and  C_40
                            x       y       z     vdW  Elec       q    Type
                         _______ _______ _______ _____ _____    ______ ____

>  <TORSDO>
F 7

$$$$
=
 OpenBabel11072409023D

 47 53  0  0  1  0  0  0  0  0999 V2000
  190.4770  173.3420  140.8650 C   0  0  0  0  0  0  0  0  0  0  0  0
  194.8510  170.9300  141.6610 C   0  0  0  0  0  2  0  0  0  0  0  0
  191.5690  172.9980  140.0500 C   0  0  0  0  0  0  0  0  0  0  0  0
  189.3400  172.5190  140.8590 C   0  0  0  0  0  0  0  0  0  0  0  0
  189.1460  175.2670  141.8350 C   0  0  0  0  0  2  0  0  0  0  0  0
  194.0740  171.6430  140.6280 C   0  0  2  0  0  0  0  0  0  0  0  0
  193.4420  171.0030  141.7080 O   0  0  0  0  0  0  0  0  0  0  0  0
  193.8550  170.8830  139.3120 C   0  0  0  0  0  2  0  0  0  0  0  0
  192.3790  170.5040  137.4580 O   0  0  0  0  0  1  0  0  0  0  0  0
  191.5080  171.8330  139.2640 C   0  0  0  0  0  0  0  0  0  0  0  0
  192.8200  173.8320  140.0220 C   0  0  0  0  0  2  0  0  0  0  0  0
  190.3620  171.0300  139.3220 C   0  0  0  0  0  3  0  0  0  0  0  0
  188.1650  172.9000  141.6970 C   0  0  0  0  0  2  0  0  0  0  0  0
  187.9060  174.3980  141.5420 C   0  0  0  0  0  2  0  0  0  0  0  0
  193.9990  173.1760  140.7550 C   0  0  2  0  0  3  0  0  0  0  0  0
  190.5060  174.5410  141.7820 C   0  0  1  0  0  3  0  0  0  0  0  0
  192.7120  171.4290  138.4510 C   0  0  1  0  0  3  0  0  0  0  0  0
  189.3100  171.3910  140.1040 N   0  0  0  0  0  0  0  0  0  0  0  0
  191.8510  174.9620  145.4340 C   0  0  2  0  0  3  0  0  0  0  0  0
  192.2060  176.4370  143.2450 C   0  0  0  0  0  1  0  0  0  0  0  0
  192.8290  173.9810  145.6580 O   0  0  0  0  0  0  0  0  0  0  0  0
  192.4080  173.9850  143.3260 C   0  0  2  0  0  3  0  0  0  0  0  0
  192.7820  173.1480  144.5290 C   0  0  0  0  0  2  0  0  0  0  0  0
  191.7120  175.1650  143.9320 C   0  0  1  0  0  0  0  0  0  0  0  0
  190.9010  174.1070  143.1940 C   0  0  1  0  0  3  0  0  0  0  0  0
  192.1630  176.2380  146.2210 C   0  0  2  0  0  3  0  0  0  0  0  0
  193.4960  176.2390  146.6420 O   0  0  0  0  0  1  0  0  0  0  0  0
  191.1950  175.2630  148.1690 O   0  0  0  0  0  1  0  0  0  0  0  0
  191.2220  176.4420  147.4180 C   0  0  2  0  0  3  0  0  0  0  0  0
  187.4390  176.0730  146.6580 C   0  0  0  0  0  2  0  0  0  0  0  0
  189.7850  177.4900  145.6200 C   0  0  0  0  0  2  0  0  0  0  0  0
  188.8590  175.6460  147.0180 C   0  0  0  0  0  2  0  0  0  0  0  0
  189.7970  176.8550  147.0140 C   0  0  1  0  0  3  0  0  0  0  0  0
  188.3720  177.9300  145.2500 C   0  0  0  0  0  2  0  0  0  0  0  0
  187.4240  176.7320  145.2800 C   0  0  2  0  0  3  0  0  0  0  0  0
  186.0700  177.1490  144.9340 N   0  0  0  0  0  0  0  0  0  0  0  0
  185.1120  177.1850  145.8910 O   0  0  0  0  0  1  0  0  0  0  0  0
  186.6290  177.4850  142.6910 O   0  0  0  0  0  0  0  0  0  0  0  0
  184.4090  177.9110  143.2670 N   0  0  0  0  0  2  0  0  0  0  0  0
  184.0230  178.2900  141.9190 C   0  0  0  0  0  1  0  0  0  0  0  0
  185.7440  177.5140  143.5890 C   0  0  0  0  0  0  0  0  0  0  0  0
  196.0250  174.6490  141.1340 C   0  0  0  0  0  0  0  0  0  0  0  0
  195.2420  173.7840  140.3070 N   0  0  0  0  0  2  0  0  0  0  0  0
  195.6010  174.9940  142.3080 N   0  0  0  0  0  2  0  0  0  0  0  0
  197.9400  176.0360  141.2900 O   0  0  0  0  0  1  0  0  0  0  0  0
  197.2980  175.1760  140.6300 C   0  0  0  0  0  0  0  0  0  0  0  0
  197.8050  174.7260  139.4180 O   0  0  0  0  0  0  0  0  0  0  0  0
  1 16  1  0  0  0  0
  2  7  1  0  0  0  0
  3  1  2  0  0  0  0
  4  1  1  0  0  0  0
  4 13  1  0  0  0  0
  6  8  1  6  0  0  0
  6 15  1  0  0  0  0
  6  2  1  0  0  0  0
  6  7  1  0  0  0  0
 10 12  2  0  0  0  0
 10  3  1  0  0  0  0
 11  3  1  0  0  0  0
 11 15  1  0  0  0  0
 12 18  1  0  0  0  0
 14 13  1  0  0  0  0
 14  5  1  0  0  0  0
 15 43  1  6  0  0  0
 16  5  1  1  0  0  0
 17  9  1  6  0  0  0
 17 10  1  0  0  0  0
 17  8  1  0  0  0  0
 18  4  2  0  0  0  0
 19 21  1  0  0  0  0
 19 26  1  1  0  0  0
 22 24  1  0  0  0  0
 22 23  1  1  0  0  0
 23 21  1  0  0  0  0
 24 20  1  6  0  0  0
 24 19  1  0  0  0  0
 25 16  1  6  0  0  0
 25 22  1  0  0  0  0
 25 24  1  0  0  0  0
 26 27  1  1  0  0  0
 26 29  1  0  0  0  0
 29 28  1  6  0  0  0
 30 32  1  0  0  0  0
 31 33  1  0  0  0  0
 33 32  1  0  0  0  0
 33 29  1  6  0  0  0
 34 35  1  0  0  0  0
 34 31  1  0  0  0  0
 35 36  1  1  0  0  0
 35 30  1  0  0  0  0
 36 37  1  0  0  0  0
 38 41  2  0  0  0  0
 39 41  1  0  0  0  0
 40 39  1  0  0  0  0
 41 36  1  0  0  0  0
 42 44  2  0  0  0  0
 43 42  1  0  0  0  0
 46 42  1  0  0  0  0
 46 45  1  0  0  0  0
 47 46  2  0  0  0  0
M  END
>  <MODEL>
3

>  <REMARK>
 VINA RESULT:      -7.3      1.951      2.998
  Name = 
  7 active torsions:
  status: ('A' for Active; 'I' for Inactive)
    1  A    between atoms: C_1  and  C_14
    2  A    between atoms: N_2  and  C_38
    3  A    between atoms: C_5  and  C_7
    4  A    between atoms: C_7  and  C_26
    5  A    between atoms: N_11  and  C_45
    6  A    between atoms: C_24  and  C_26
    7  A    between atoms: C_35  and  C_40
                            x       y       z     vdW  Elec       q    Type
                         _______ _______ _______ _____ _____    ______ ____

>  <TORSDO>
F 7

$$$$
=
 OpenBabel11072409023D

 47 53  0  0  1  0  0  0  0  0999 V2000
  192.8460  174.1180  144.9550 C   0  0  0  0  0  0  0  0  0  0  0  0
  196.9220  173.5340  142.0190 C   0  0  0  0  0  2  0  0  0  0  0  0
  194.0650  173.4340  145.0960 C   0  0  0  0  0  0  0  0  0  0  0  0
  192.7110  175.3890  145.5330 C   0  0  0  0  0  0  0  0  0  0  0  0
  190.3300  173.8540  144.8150 C   0  0  0  0  0  2  0  0  0  0  0  0
  196.3360  173.1230  143.3090 C   0  0  2  0  0  0  0  0  0  0  0  0
  195.9810  174.3370  142.6980 O   0  0  0  0  0  0  0  0  0  0  0  0
  197.2170  173.3470  144.5460 C   0  0  0  0  0  2  0  0  0  0  0  0
  197.2580  173.8580  146.8910 O   0  0  0  0  0  1  0  0  0  0  0  0
  195.1250  174.0420  145.7930 C   0  0  0  0  0  0  0  0  0  0  0  0
  194.2760  172.0740  144.4880 C   0  0  0  0  0  2  0  0  0  0  0  0
  194.9470  175.3260  146.3210 C   0  0  0  0  0  3  0  0  0  0  0  0
  191.4060  176.1050  145.4150 C   0  0  0  0  0  2  0  0  0  0  0  0
  190.2700  175.1210  145.6930 C   0  0  0  0  0  2  0  0  0  0  0  0
  195.1850  172.1010  143.2510 C   0  0  2  0  0  3  0  0  0  0  0  0
  191.6940  173.5510  144.1610 C   0  0  1  0  0  3  0  0  0  0  0  0
  196.4550  173.3340  145.8750 C   0  0  1  0  0  3  0  0  0  0  0  0
  193.7530  175.9630  146.1890 N   0  0  0  0  0  0  0  0  0  0  0  0
  190.8430  173.7270  140.3450 C   0  0  2  0  0  3  0  0  0  0  0  0
  190.8380  171.6880  142.0580 C   0  0  0  0  0  1  0  0  0  0  0  0
  192.0400  173.9090  139.6350 O   0  0  0  0  0  0  0  0  0  0  0  0
  192.6560  173.3350  141.8510 C   0  0  2  0  0  3  0  0  0  0  0  0
  193.0200  174.1290  140.6160 C   0  0  0  0  0  2  0  0  0  0  0  0
  191.1780  173.1350  141.7060 C   0  0  1  0  0  0  0  0  0  0  0  0
  191.7090  174.1180  142.7420 C   0  0  1  0  0  3  0  0  0  0  0  0
  189.8380  172.9110  139.5270 C   0  0  2  0  0  3  0  0  0  0  0  0
  190.2360  172.8460  138.1880 O   0  0  0  0  0  1  0  0  0  0  0  0
  187.9270  173.7070  138.3470 O   0  0  0  0  0  1  0  0  0  0  0  0
  188.4050  173.4510  139.6350 C   0  0  2  0  0  3  0  0  0  0  0  0
  187.6600  175.6080  142.7690 C   0  0  0  0  0  2  0  0  0  0  0  0
  187.3800  175.7530  139.8550 C   0  0  0  0  0  2  0  0  0  0  0  0
  187.7300  174.3620  141.8930 C   0  0  0  0  0  2  0  0  0  0  0  0
  188.2890  174.7100  140.5110 C   0  0  1  0  0  3  0  0  0  0  0  0
  187.3070  177.0110  140.7160 C   0  0  0  0  0  2  0  0  0  0  0  0
  186.7760  176.6640  142.1070 C   0  0  2  0  0  3  0  0  0  0  0  0
  186.7120  177.8610  142.9360 N   0  0  0  0  0  0  0  0  0  0  0  0
  187.2810  179.0120  142.5030 O   0  0  0  0  0  1  0  0  0  0  0  0
  185.5240  176.7630  144.6210 O   0  0  0  0  0  0  0  0  0  0  0  0
  186.0140  179.0100  145.0130 N   0  0  0  0  0  2  0  0  0  0  0  0
  185.3640  179.0330  146.3120 C   0  0  0  0  0  1  0  0  0  0  0  0
  186.0580  177.8290  144.2090 C   0  0  0  0  0  0  0  0  0  0  0  0
  195.5600  170.0920  141.7530 C   0  0  0  0  0  0  0  0  0  0  0  0
  195.7040  170.7640  143.0070 N   0  0  0  0  0  2  0  0  0  0  0  0
  194.8740  170.6320  140.7960 N   0  0  0  0  0  2  0  0  0  0  0  0
  196.6990  168.1680  142.5360 O   0  0  0  0  0  1  0  0  0  0  0  0
  196.1630  168.7680  141.5660 C   0  0  0  0  0  0  0  0  0  0  0  0
  196.1450  168.1660  140.3150 O   0  0  0  0  0  0  0  0  0  0  0  0
  1  3  2  0  0  0  0
  1  4  1  0  0  0  0
  2  7  1  0  0  0  0
  3 10  1  0  0  0  0
  4 18  2  0  0  0  0
  5 14  1  0  0  0  0
  6  2  1  6  0  0  0
  6  8  1  0  0  0  0
  7  6  1  0  0  0  0
  8 17  1  0  0  0  0
 10 17  1  0  0  0  0
 10 12  2  0  0  0  0
 11  3  1  0  0  0  0
 13  4  1  0  0  0  0
 13 14  1  0  0  0  0
 15 43  1  1  0  0  0
 15  6  1  0  0  0  0
 15 11  1  0  0  0  0
 16  5  1  1  0  0  0
 16  1  1  0  0  0  0
 17  9  1  1  0  0  0
 18 12  1  0  0  0  0
 19 26  1  6  0  0  0
 19 24  1  0  0  0  0
 21 19  1  0  0  0  0
 21 23  1  0  0  0  0
 22 23  1  6  0  0  0
 22 25  1  0  0  0  0
 24 22  1  0  0  0  0
 24 20  1  1  0  0  0
 24 25  1  0  0  0  0
 25 16  1  1  0  0  0
 26 27  1  6  0  0  0
 26 29  1  0  0  0  0
 29 28  1  6  0  0  0
 31 33  1  0  0  0  0
 31 34  1  0  0  0  0
 32 30  1  0  0  0  0
 33 29  1  6  0  0  0
 33 32  1  0  0  0  0
 34 35  1  0  0  0  0
 35 30  1  0  0  0  0
 35 36  1  1  0  0  0
 36 41  1  0  0  0  0
 37 36  1  0  0  0  0
 39 40  1  0  0  0  0
 41 38  2  0  0  0  0
 41 39  1  0  0  0  0
 42 43  1  0  0  0  0
 44 42  2  0  0  0  0
 46 42  1  0  0  0  0
 46 45  1  0  0  0  0
 47 46  2  0  0  0  0
M  END
>  <MODEL>
4

>  <REMARK>
 VINA RESULT:      -6.9      2.774      5.736
  Name = 
  7 active torsions:
  status: ('A' for Active; 'I' for Inactive)
    1  A    between atoms: C_1  and  C_14
    2  A    between atoms: N_2  and  C_38
    3  A    between atoms: C_5  and  C_7
    4  A    between atoms: C_7  and  C_26
    5  A    between atoms: N_11  and  C_45
    6  A    between atoms: C_24  and  C_26
    7  A    between atoms: C_35  and  C_40
                            x       y       z     vdW  Elec       q    Type
                         _______ _______ _______ _____ _____    ______ ____

>  <TORSDO>
F 7

$$$$
=
 OpenBabel11072409023D

 47 53  0  0  1  0  0  0  0  0999 V2000
  191.8600  173.3590  139.8830 C   0  0  0  0  0  0  0  0  0  0  0  0
  195.4380  171.8170  136.6580 C   0  0  0  0  0  2  0  0  0  0  0  0
  192.0410  173.4700  138.4940 C   0  0  0  0  0  0  0  0  0  0  0  0
  191.0330  172.3400  140.3790 C   0  0  0  0  0  0  0  0  0  0  0  0
  191.6640  174.6510  142.0540 C   0  0  0  0  0  2  0  0  0  0  0  0
  194.1780  172.5810  136.7360 C   0  0  2  0  0  0  0  0  0  0  0  0
  194.4810  171.5730  137.6660 O   0  0  0  0  0  0  0  0  0  0  0  0
  193.0700  172.1450  135.7680 C   0  0  0  0  0  2  0  0  0  0  0  0
  190.7040  171.9320  135.4210 O   0  0  0  0  0  1  0  0  0  0  0  0
  191.4090  172.5520  137.6360 C   0  0  0  0  0  0  0  0  0  0  0  0
  192.9260  174.5320  137.9010 C   0  0  0  0  0  2  0  0  0  0  0  0
  190.6210  171.5340  138.1870 C   0  0  0  0  0  3  0  0  0  0  0  0
  190.8100  172.2400  141.8520 C   0  0  0  0  0  2  0  0  0  0  0  0
  190.5600  173.6380  142.4150 C   0  0  0  0  0  2  0  0  0  0  0  0
  194.2580  173.9820  137.3710 C   0  0  2  0  0  3  0  0  0  0  0  0
  192.5640  174.2680  140.8600 C   0  0  1  0  0  3  0  0  0  0  0  0
  191.6690  172.6300  136.1520 C   0  0  1  0  0  3  0  0  0  0  0  0
  190.4440  171.4550  139.5330 N   0  0  0  0  0  0  0  0  0  0  0  0
  195.9520  173.9760  142.7980 C   0  0  2  0  0  3  0  0  0  0  0  0
  194.6370  176.0930  141.8610 C   0  0  0  0  0  1  0  0  0  0  0  0
  196.9120  173.4350  141.9280 O   0  0  0  0  0  0  0  0  0  0  0  0
  195.0500  174.0280  140.5860 C   0  0  2  0  0  3  0  0  0  0  0  0
  196.1980  173.0620  140.7790 C   0  0  0  0  0  2  0  0  0  0  0  0
  194.8350  174.5820  141.9620 C   0  0  1  0  0  0  0  0  0  0  0  0
  193.8320  173.5920  141.3810 C   0  0  1  0  0  3  0  0  0  0  0  0
  196.5980  174.9440  143.7930 C   0  0  2  0  0  3  0  0  0  0  0  0
  197.9410  175.1550  143.4690 O   0  0  0  0  0  1  0  0  0  0  0  0
  196.5430  173.0810  145.2780 O   0  0  0  0  0  1  0  0  0  0  0  0
  196.4650  174.4760  145.2500 C   0  0  2  0  0  3  0  0  0  0  0  0
  192.7180  174.5320  146.2450 C   0  0  0  0  0  2  0  0  0  0  0  0
  194.8620  176.4090  145.5580 C   0  0  0  0  0  2  0  0  0  0  0  0
  193.9860  174.0760  145.5300 C   0  0  0  0  0  2  0  0  0  0  0  0
  195.1720  174.9560  145.9320 C   0  0  1  0  0  3  0  0  0  0  0  0
  193.6010  176.8830  146.2730 C   0  0  0  0  0  2  0  0  0  0  0  0
  192.4190  175.9900  145.8980 C   0  0  2  0  0  3  0  0  0  0  0  0
  191.2110  176.4340  146.5850 N   0  0  0  0  0  0  0  0  0  0  0  0
  191.2110  176.5550  147.9340 O   0  0  0  0  0  1  0  0  0  0  0  0
  190.0160  176.6300  144.5880 O   0  0  0  0  0  0  0  0  0  0  0  0
  188.8470  177.1620  146.5360 N   0  0  0  0  0  2  0  0  0  0  0  0
  187.6160  177.4820  145.8340 C   0  0  0  0  0  1  0  0  0  0  0  0
  190.0240  176.7370  145.8450 C   0  0  0  0  0  0  0  0  0  0  0  0
  196.1630  175.4420  136.5600 C   0  0  0  0  0  0  0  0  0  0  0  0
  194.8320  174.9340  136.4330 N   0  0  0  0  0  2  0  0  0  0  0  0
  196.8900  175.1270  137.5850 N   0  0  0  0  0  2  0  0  0  0  0  0
  196.0860  177.4240  135.2650 O   0  0  0  0  0  1  0  0  0  0  0  0
  196.6910  176.3540  135.5390 C   0  0  0  0  0  0  0  0  0  0  0  0
  197.8660  176.0410  134.8680 O   0  0  0  0  0  0  0  0  0  0  0  0
  1  4  1  0  0  0  0
  1 16  1  0  0  0  0
  2  6  1  0  0  0  0
  2  7  1  0  0  0  0
  3  1  2  0  0  0  0
  4 13  1  0  0  0  0
  5 14  1  0  0  0  0
  6  8  1  6  0  0  0
  6 15  1  0  0  0  0
  6  7  1  0  0  0  0
  8 17  1  0  0  0  0
 10 12  2  0  0  0  0
 10  3  1  0  0  0  0
 11  3  1  0  0  0  0
 12 18  1  0  0  0  0
 13 14  1  0  0  0  0
 15 43  1  6  0  0  0
 15 11  1  0  0  0  0
 16  5  1  1  0  0  0
 17  9  1  6  0  0  0
 17 10  1  0  0  0  0
 18  4  2  0  0  0  0
 19 26  1  6  0  0  0
 21 19  1  0  0  0  0
 22 23  1  1  0  0  0
 22 25  1  0  0  0  0
 22 24  1  0  0  0  0
 23 21  1  0  0  0  0
 24 20  1  1  0  0  0
 24 19  1  0  0  0  0
 25 16  1  6  0  0  0
 25 24  1  0  0  0  0
 26 27  1  6  0  0  0
 26 29  1  0  0  0  0
 29 28  1  6  0  0  0
 31 33  1  0  0  0  0
 31 34  1  0  0  0  0
 32 33  1  0  0  0  0
 32 30  1  0  0  0  0
 33 29  1  6  0  0  0
 35 30  1  0  0  0  0
 35 34  1  0  0  0  0
 35 36  1  1  0  0  0
 36 37  1  0  0  0  0
 38 41  2  0  0  0  0
 40 39  1  0  0  0  0
 41 39  1  0  0  0  0
 41 36  1  0  0  0  0
 42 44  2  0  0  0  0
 43 42  1  0  0  0  0
 45 46  1  0  0  0  0
 46 42  1  0  0  0  0
 47 46  2  0  0  0  0
M  END
>  <MODEL>
5

>  <REMARK>
 VINA RESULT:      -6.9      3.821      6.945
  Name = 
  7 active torsions:
  status: ('A' for Active; 'I' for Inactive)
    1  A    between atoms: C_1  and  C_14
    2  A    between atoms: N_2  and  C_38
    3  A    between atoms: C_5  and  C_7
    4  A    between atoms: C_7  and  C_26
    5  A    between atoms: N_11  and  C_45
    6  A    between atoms: C_24  and  C_26
    7  A    between atoms: C_35  and  C_40
                            x       y       z     vdW  Elec       q    Type
                         _______ _______ _______ _____ _____    ______ ____

>  <TORSDO>
F 7

$$$$
=
 OpenBabel11072409023D

 47 53  0  0  1  0  0  0  0  0999 V2000
  190.2730  173.4340  140.0390 C   0  0  0  0  0  0  0  0  0  0  0  0
  194.2880  170.4880  139.1550 C   0  0  0  0  0  2  0  0  0  0  0  0
  191.0720  173.1790  138.9120 C   0  0  0  0  0  0  0  0  0  0  0  0
  189.0550  172.7490  140.1760 C   0  0  0  0  0  0  0  0  0  0  0  0
  189.5230  175.2080  141.6850 C   0  0  0  0  0  2  0  0  0  0  0  0
  193.4050  171.4890  138.5260 C   0  0  2  0  0  0  0  0  0  0  0  0
  192.9590  170.6850  139.5890 O   0  0  0  0  0  0  0  0  0  0  0  0
  192.7650  171.0750  137.1940 C   0  0  0  0  0  2  0  0  0  0  0  0
  190.8480  171.2740  135.7630 O   0  0  0  0  0  1  0  0  0  0  0  0
  190.6480  172.2350  137.9590 C   0  0  0  0  0  0  0  0  0  0  0  0
  192.3930  173.8710  138.7150 C   0  0  0  0  0  2  0  0  0  0  0  0
  189.4400  171.5560  138.1620 C   0  0  0  0  0  3  0  0  0  0  0  0
  188.1870  173.0420  141.3540 C   0  0  0  0  0  2  0  0  0  0  0  0
  188.1310  174.5540  141.5690 C   0  0  0  0  0  2  0  0  0  0  0  0
  193.5980  172.9530  138.9640 C   0  0  2  0  0  3  0  0  0  0  0  0
  190.7030  174.3830  141.1310 C   0  0  1  0  0  3  0  0  0  0  0  0
  191.5460  171.9110  136.7920 C   0  0  1  0  0  3  0  0  0  0  0  0
  188.6730  171.8310  139.2510 N   0  0  0  0  0  0  0  0  0  0  0  0
  192.9920  173.8090  144.2540 C   0  0  2  0  0  3  0  0  0  0  0  0
  193.0570  175.6580  142.3380 C   0  0  0  0  0  1  0  0  0  0  0  0
  193.7830  172.6750  144.0170 O   0  0  0  0  0  0  0  0  0  0  0  0
  192.7900  173.2440  141.9410 C   0  0  2  0  0  3  0  0  0  0  0  0
  193.2870  172.1220  142.8260 C   0  0  0  0  0  2  0  0  0  0  0  0
  192.5160  174.3510  142.9130 C   0  0  1  0  0  0  0  0  0  0  0  0
  191.3530  173.6030  142.2730 C   0  0  1  0  0  3  0  0  0  0  0  0
  193.7370  174.8270  145.1220 C   0  0  2  0  0  3  0  0  0  0  0  0
  194.7780  174.2060  145.8180 O   0  0  0  0  0  1  0  0  0  0  0  0
  192.6910  174.8150  147.2630 O   0  0  0  0  0  1  0  0  0  0  0  0
  192.8110  175.5720  146.0940 C   0  0  2  0  0  3  0  0  0  0  0  0
  189.9320  177.6410  144.5240 C   0  0  0  0  0  2  0  0  0  0  0  0
  190.3140  175.5060  146.4960 C   0  0  0  0  0  2  0  0  0  0  0  0
  191.2950  177.3580  145.1480 C   0  0  0  0  0  2  0  0  0  0  0  0
  191.4220  175.8750  145.5050 C   0  0  1  0  0  3  0  0  0  0  0  0
  188.9430  175.7750  145.8840 C   0  0  0  0  0  2  0  0  0  0  0  0
  188.8210  177.2490  145.4980 C   0  0  2  0  0  3  0  0  0  0  0  0
  187.5150  177.5100  144.9050 N   0  0  0  0  0  0  0  0  0  0  0  0
  187.3340  177.3370  143.5730 O   0  0  0  0  0  1  0  0  0  0  0  0
  186.5810  178.1150  146.9580 O   0  0  0  0  0  0  0  0  0  0  0  0
  185.1530  178.2130  145.1160 N   0  0  0  0  0  2  0  0  0  0  0  0
  184.0120  178.6660  145.8940 C   0  0  0  0  0  1  0  0  0  0  0  0
  186.4230  177.9530  145.7170 C   0  0  0  0  0  0  0  0  0  0  0  0
  195.9850  173.8010  139.0420 C   0  0  0  0  0  0  0  0  0  0  0  0
  194.7770  173.5230  138.3290 N   0  0  0  0  0  2  0  0  0  0  0  0
  196.0440  173.6270  140.3240 N   0  0  0  0  0  2  0  0  0  0  0  0
  197.8540  173.5550  137.6060 O   0  0  0  0  0  0  0  0  0  0  0  0
  197.1500  174.3200  138.3180 C   0  0  0  0  0  0  0  0  0  0  0  0
  197.4830  175.6650  138.4110 O   0  0  0  0  0  1  0  0  0  0  0  0
  1  4  1  0  0  0  0
  1 16  1  0  0  0  0
  2  7  1  0  0  0  0
  3  1  2  0  0  0  0
  4 13  1  0  0  0  0
  6  8  1  6  0  0  0
  6 15  1  0  0  0  0
  6  2  1  0  0  0  0
  6  7  1  0  0  0  0
 10 12  2  0  0  0  0
 10  3  1  0  0  0  0
 11  3  1  0  0  0  0
 11 15  1  0  0  0  0
 12 18  1  0  0  0  0
 13 14  1  0  0  0  0
 14  5  1  0  0  0  0
 15 43  1  6  0  0  0
 16  5  1  1  0  0  0
 17  9  1  6  0  0  0
 17  8  1  0  0  0  0
 17 10  1  0  0  0  0
 18  4  2  0  0  0  0
 19 26  1  6  0  0  0
 21 19  1  0  0  0  0
 22 25  1  0  0  0  0
 22 23  1  1  0  0  0
 22 24  1  0  0  0  0
 23 21  1  0  0  0  0
 24 20  1  6  0  0  0
 24 19  1  0  0  0  0
 25 16  1  6  0  0  0
 25 24  1  0  0  0  0
 26 27  1  1  0  0  0
 26 29  1  0  0  0  0
 29 28  1  1  0  0  0
 30 32  1  0  0  0  0
 30 35  1  0  0  0  0
 32 33  1  0  0  0  0
 33 29  1  1  0  0  0
 33 31  1  0  0  0  0
 34 31  1  0  0  0  0
 35 36  1  6  0  0  0
 35 34  1  0  0  0  0
 36 41  1  0  0  0  0
 37 36  1  0  0  0  0
 39 41  1  0  0  0  0
 39 40  1  0  0  0  0
 41 38  2  0  0  0  0
 42 44  2  0  0  0  0
 43 42  1  0  0  0  0
 45 46  2  0  0  0  0
 46 47  1  0  0  0  0
 46 42  1  0  0  0  0
M  END
>  <MODEL>
6

>  <REMARK>
 VINA RESULT:      -6.9      2.853      4.561
  Name = 
  7 active torsions:
  status: ('A' for Active; 'I' for Inactive)
    1  A    between atoms: C_1  and  C_14
    2  A    between atoms: N_2  and  C_38
    3  A    between atoms: C_5  and  C_7
    4  A    between atoms: C_7  and  C_26
    5  A    between atoms: N_11  and  C_45
    6  A    between atoms: C_24  and  C_26
    7  A    between atoms: C_35  and  C_40
                            x       y       z     vdW  Elec       q    Type
                         _______ _______ _______ _____ _____    ______ ____

>  <TORSDO>
F 7

$$$$
=
 OpenBabel11072409023D

 47 53  0  0  1  0  0  0  0  0999 V2000
  196.1160  173.6990  142.3570 C   0  0  0  0  0  0  0  0  0  0  0  0
  193.2350  174.4500  138.2690 C   0  0  0  0  0  2  0  0  0  0  0  0
  196.0300  173.0900  141.0940 C   0  0  0  0  0  0  0  0  0  0  0  0
  197.1010  174.6750  142.5740 C   0  0  0  0  0  0  0  0  0  0  0  0
  195.8470  173.3380  144.8510 C   0  0  0  0  0  2  0  0  0  0  0  0
  194.2880  173.5750  138.8180 C   0  0  2  0  0  0  0  0  0  0  0  0
  194.1350  174.9010  139.2570 O   0  0  0  0  0  0  0  0  0  0  0  0
  195.5400  173.4070  137.9470 C   0  0  0  0  0  2  0  0  0  0  0  0
  197.9160  173.0630  137.9260 O   0  0  0  0  0  1  0  0  0  0  0  0
  196.9140  173.4820  140.0730 C   0  0  0  0  0  0  0  0  0  0  0  0
  194.9870  172.0480  140.7960 C   0  0  0  0  0  2  0  0  0  0  0  0
  197.8560  174.4840  140.3340 C   0  0  0  0  0  3  0  0  0  0  0  0
  197.2180  175.3000  143.9250 C   0  0  0  0  0  2  0  0  0  0  0  0
  197.1120  174.2090  144.9890 C   0  0  0  0  0  2  0  0  0  0  0  0
  193.8550  172.5660  139.8980 C   0  0  2  0  0  3  0  0  0  0  0  0
  195.1530  173.3740  143.4730 C   0  0  1  0  0  3  0  0  0  0  0  0
  196.7660  172.8790  138.6980 C   0  0  1  0  0  3  0  0  0  0  0  0
  197.9350  175.0480  141.5690 N   0  0  0  0  0  0  0  0  0  0  0  0
  191.6530  174.8520  144.4160 C   0  0  2  0  0  3  0  0  0  0  0  0
  192.5400  172.3420  144.3300 C   0  0  0  0  0  1  0  0  0  0  0  0
  191.0370  175.3080  143.2400 O   0  0  0  0  0  0  0  0  0  0  0  0
  192.9020  174.0130  142.5600 C   0  0  2  0  0  3  0  0  0  0  0  0
  192.0200  175.2000  142.2440 C   0  0  0  0  0  2  0  0  0  0  0  0
  192.7150  173.8300  144.0350 C   0  0  1  0  0  0  0  0  0  0  0  0
  194.0240  174.4030  143.5050 C   0  0  1  0  0  3  0  0  0  0  0  0
  190.6130  174.3430  145.4180 C   0  0  2  0  0  3  0  0  0  0  0  0
  189.6150  173.6180  144.7620 O   0  0  0  0  0  1  0  0  0  0  0  0
  189.7880  174.9990  147.5560 O   0  0  0  0  0  1  0  0  0  0  0  0
  189.9940  175.4710  146.2560 C   0  0  2  0  0  3  0  0  0  0  0  0
  187.6190  177.8880  144.3720 C   0  0  0  0  0  2  0  0  0  0  0  0
  187.6220  176.1910  146.7620 C   0  0  0  0  0  2  0  0  0  0  0  0
  188.9150  177.3710  144.9890 C   0  0  0  0  0  2  0  0  0  0  0  0
  188.6820  176.0210  145.6700 C   0  0  1  0  0  3  0  0  0  0  0  0
  186.3160  176.6980  146.1590 C   0  0  0  0  0  2  0  0  0  0  0  0
  186.5480  178.0330  145.4530 C   0  0  2  0  0  3  0  0  0  0  0  0
  185.3040  178.5190  144.8680 N   0  0  0  0  0  0  0  0  0  0  0  0
  184.5310  179.3910  145.5590 O   0  0  0  0  0  1  0  0  0  0  0  0
  185.6030  177.2670  142.9190 O   0  0  0  0  0  0  0  0  0  0  0  0
  183.6620  178.5570  143.0180 N   0  0  0  0  0  2  0  0  0  0  0  0
  183.1930  178.1400  141.7080 C   0  0  0  0  0  1  0  0  0  0  0  0
  184.8890  178.0770  143.5720 C   0  0  0  0  0  0  0  0  0  0  0  0
  191.7450  171.2830  139.3300 C   0  0  0  0  0  0  0  0  0  0  0  0
  193.1660  171.4360  139.2920 N   0  0  0  0  0  2  0  0  0  0  0  0
  191.0120  172.1210  139.9930 N   0  0  0  0  0  2  0  0  0  0  0  0
  189.8670  170.0680  138.5460 O   0  0  0  0  0  1  0  0  0  0  0  0
  191.1210  170.1460  138.6430 C   0  0  0  0  0  0  0  0  0  0  0  0
  191.9130  169.1470  138.0930 O   0  0  0  0  0  0  0  0  0  0  0  0
  1  4  1  0  0  0  0
  1 16  1  0  0  0  0
  2  6  1  0  0  0  0
  2  7  1  0  0  0  0
  3  1  2  0  0  0  0
  4 13  1  0  0  0  0
  5 14  1  0  0  0  0
  6  8  1  6  0  0  0
  6  7  1  0  0  0  0
  6 15  1  0  0  0  0
  8 17  1  0  0  0  0
 10 12  2  0  0  0  0
 10  3  1  0  0  0  0
 11  3  1  0  0  0  0
 12 18  1  0  0  0  0
 13 14  1  0  0  0  0
 15 43  1  6  0  0  0
 15 11  1  0  0  0  0
 16  5  1  1  0  0  0
 17  9  1  6  0  0  0
 17 10  1  0  0  0  0
 18  4  2  0  0  0  0
 19 26  1  1  0  0  0
 21 19  1  0  0  0  0
 22 23  1  1  0  0  0
 22 25  1  0  0  0  0
 22 24  1  0  0  0  0
 23 21  1  0  0  0  0
 24 20  1  1  0  0  0
 24 19  1  0  0  0  0
 25 16  1  6  0  0  0
 25 24  1  0  0  0  0
 26 27  1  6  0  0  0
 26 29  1  0  0  0  0
 29 28  1  1  0  0  0
 30 32  1  0  0  0  0
 30 35  1  0  0  0  0
 32 33  1  0  0  0  0
 33 29  1  1  0  0  0
 33 31  1  0  0  0  0
 34 31  1  0  0  0  0
 35 36  1  6  0  0  0
 35 34  1  0  0  0  0
 36 37  1  0  0  0  0
 38 41  2  0  0  0  0
 39 41  1  0  0  0  0
 40 39  1  0  0  0  0
 41 36  1  0  0  0  0
 42 44  2  0  0  0  0
 43 42  1  0  0  0  0
 45 46  1  0  0  0  0
 46 42  1  0  0  0  0
 47 46  2  0  0  0  0
M  END
>  <MODEL>
7

>  <REMARK>
 VINA RESULT:      -6.7      2.654      5.587
  Name = 
  7 active torsions:
  status: ('A' for Active; 'I' for Inactive)
    1  A    between atoms: C_1  and  C_14
    2  A    between atoms: N_2  and  C_38
    3  A    between atoms: C_5  and  C_7
    4  A    between atoms: C_7  and  C_26
    5  A    between atoms: N_11  and  C_45
    6  A    between atoms: C_24  and  C_26
    7  A    between atoms: C_35  and  C_40
                            x       y       z     vdW  Elec       q    Type
                         _______ _______ _______ _____ _____    ______ ____

>  <TORSDO>
F 7

$$$$
=
 OpenBabel11072409023D

 47 53  0  0  1  0  0  0  0  0999 V2000
  195.4410  171.8740  143.4950 C   0  0  0  0  0  0  0  0  0  0  0  0
  194.5390  175.4210  140.0040 C   0  0  0  0  0  2  0  0  0  0  0  0
  195.1320  171.8440  142.1240 C   0  0  0  0  0  0  0  0  0  0  0  0
  196.7830  171.7610  143.8900 C   0  0  0  0  0  0  0  0  0  0  0  0
  194.6470  171.2170  145.8090 C   0  0  0  0  0  2  0  0  0  0  0  0
  194.5810  173.9600  140.2100 C   0  0  2  0  0  0  0  0  0  0  0  0
  195.3430  174.8340  141.0030 O   0  0  0  0  0  0  0  0  0  0  0  0
  195.4590  173.1710  139.2300 C   0  0  0  0  0  2  0  0  0  0  0  0
  196.8780  171.2580  138.9300 O   0  0  0  0  0  1  0  0  0  0  0  0
  196.1690  171.7210  141.1810 C   0  0  0  0  0  0  0  0  0  0  0  0
  193.7150  171.9740  141.6370 C   0  0  0  0  0  2  0  0  0  0  0  0
  197.4930  171.6450  141.6300 C   0  0  0  0  0  3  0  0  0  0  0  0
  197.1120  171.7580  145.3460 C   0  0  0  0  0  2  0  0  0  0  0  0
  196.1210  170.8550  146.0790 C   0  0  0  0  0  2  0  0  0  0  0  0
  193.4160  173.3410  141.0060 C   0  0  2  0  0  3  0  0  0  0  0  0
  194.3830  172.0730  144.5520 C   0  0  1  0  0  3  0  0  0  0  0  0
  195.8370  171.7660  139.7110 C   0  0  1  0  0  3  0  0  0  0  0  0
  197.7690  171.6580  142.9610 N   0  0  0  0  0  0  0  0  0  0  0  0
  192.7410  175.3750  145.8630 C   0  0  2  0  0  3  0  0  0  0  0  0
  191.6730  173.1780  144.8030 C   0  0  0  0  0  1  0  0  0  0  0  0
  193.0260  176.4020  144.9490 O   0  0  0  0  0  0  0  0  0  0  0  0
  193.6190  174.3700  143.8820 C   0  0  2  0  0  3  0  0  0  0  0  0
  193.9350  175.8410  144.0380 C   0  0  0  0  0  2  0  0  0  0  0  0
  192.8860  174.0410  145.1460 C   0  0  1  0  0  0  0  0  0  0  0  0
  194.3140  173.5470  144.9510 C   0  0  1  0  0  3  0  0  0  0  0  0
  191.3780  175.5950  146.5270 C   0  0  2  0  0  3  0  0  0  0  0  0
  190.5340  174.5090  146.2800 O   0  0  0  0  0  1  0  0  0  0  0  0
  189.9870  177.4190  147.1710 O   0  0  0  0  0  1  0  0  0  0  0  0
  190.7080  176.9060  146.0900 C   0  0  2  0  0  3  0  0  0  0  0  0
  189.2590  177.5940  142.5600 C   0  0  0  0  0  2  0  0  0  0  0  0
  188.3220  176.9010  145.2490 C   0  0  0  0  0  2  0  0  0  0  0  0
  190.1390  177.7870  143.7920 C   0  0  0  0  0  2  0  0  0  0  0  0
  189.7960  176.7470  144.8610 C   0  0  1  0  0  3  0  0  0  0  0  0
  187.4290  176.7010  144.0290 C   0  0  0  0  0  2  0  0  0  0  0  0
  187.7860  177.7190  142.9460 C   0  0  2  0  0  3  0  0  0  0  0  0
  186.9400  177.5270  141.7740 N   0  0  0  0  0  0  0  0  0  0  0  0
  187.3960  176.8000  140.7260 O   0  0  0  0  0  1  0  0  0  0  0  0
  185.1990  178.7860  142.6900 O   0  0  0  0  0  0  0  0  0  0  0  0
  184.8210  177.9190  140.5570 N   0  0  0  0  0  2  0  0  0  0  0  0
  183.4880  178.4860  140.4490 C   0  0  0  0  0  1  0  0  0  0  0  0
  185.6330  178.1090  141.7190 C   0  0  0  0  0  0  0  0  0  0  0  0
  190.9650  173.7920  140.5480 C   0  0  0  0  0  0  0  0  0  0  0  0
  192.2290  173.2370  140.1720 N   0  0  0  0  0  2  0  0  0  0  0  0
  190.8130  174.3470  141.7080 N   0  0  0  0  0  2  0  0  0  0  0  0
  190.0180  173.6740  138.3790 O   0  0  0  0  0  0  0  0  0  0  0  0
  189.8290  173.6970  139.6250 C   0  0  0  0  0  0  0  0  0  0  0  0
  188.5340  173.6290  140.1220 O   0  0  0  0  0  1  0  0  0  0  0  0
  1  4  1  0  0  0  0
  1 16  1  0  0  0  0
  2  6  1  0  0  0  0
  2  7  1  0  0  0  0
  3  1  2  0  0  0  0
  4 13  1  0  0  0  0
  5 14  1  0  0  0  0
  6  8  1  6  0  0  0
  6  7  1  0  0  0  0
  6 15  1  0  0  0  0
  8 17  1  0  0  0  0
 10 12  2  0  0  0  0
 10  3  1  0  0  0  0
 11  3  1  0  0  0  0
 12 18  1  0  0  0  0
 13 14  1  0  0  0  0
 15 43  1  6  0  0  0
 15 11  1  0  0  0  0
 16  5  1  1  0  0  0
 17  9  1  6  0  0  0
 17 10  1  0  0  0  0
 18  4  2  0  0  0  0
 19 26  1  6  0  0  0
 21 19  1  0  0  0  0
 22 23  1  1  0  0  0
 22 25  1  0  0  0  0
 22 24  1  0  0  0  0
 23 21  1  0  0  0  0
 24 20  1  6  0  0  0
 24 19  1  0  0  0  0
 25 16  1  6  0  0  0
 25 24  1  0  0  0  0
 26 27  1  6  0  0  0
 29 26  1  0  0  0  0
 29 28  1  1  0  0  0
 30 35  1  0  0  0  0
 30 32  1  0  0  0  0
 32 33  1  0  0  0  0
 33 31  1  0  0  0  0
 33 29  1  1  0  0  0
 34 31  1  0  0  0  0
 35 36  1  6  0  0  0
 35 34  1  0  0  0  0
 37 36  1  0  0  0  0
 39 41  1  0  0  0  0
 40 39  1  0  0  0  0
 41 36  1  0  0  0  0
 41 38  2  0  0  0  0
 42 44  2  0  0  0  0
 43 42  1  0  0  0  0
 45 46  2  0  0  0  0
 46 47  1  0  0  0  0
 46 42  1  0  0  0  0
M  END
>  <MODEL>
8

>  <REMARK>
 VINA RESULT:      -6.6      2.416      4.935
  Name = 
  7 active torsions:
  status: ('A' for Active; 'I' for Inactive)
    1  A    between atoms: C_1  and  C_14
    2  A    between atoms: N_2  and  C_38
    3  A    between atoms: C_5  and  C_7
    4  A    between atoms: C_7  and  C_26
    5  A    between atoms: N_11  and  C_45
    6  A    between atoms: C_24  and  C_26
    7  A    between atoms: C_35  and  C_40
                            x       y       z     vdW  Elec       q    Type
                         _______ _______ _______ _____ _____    ______ ____

>  <TORSDO>
F 7

$$$$
=
 OpenBabel11072409023D

 47 53  0  0  1  0  0  0  0  0999 V2000
  192.7160  175.7670  144.2580 C   0  0  0  0  0  0  0  0  0  0  0  0
  188.8220  174.6130  147.2730 C   0  0  0  0  0  2  0  0  0  0  0  0
  191.9860  176.4730  145.2290 C   0  0  0  0  0  0  0  0  0  0  0  0
  193.9390  175.1820  144.6220 C   0  0  0  0  0  0  0  0  0  0  0  0
  193.3340  175.6650  141.8030 C   0  0  0  0  0  2  0  0  0  0  0  0
  189.7150  175.7200  146.8810 C   0  0  2  0  0  0  0  0  0  0  0  0
  190.1200  174.3790  146.7700 O   0  0  0  0  0  0  0  0  0  0  0  0
  190.4370  176.4370  148.0300 C   0  0  0  0  0  2  0  0  0  0  0  0
  192.4240  177.5960  148.7130 O   0  0  0  0  0  1  0  0  0  0  0  0
  192.4820  176.5620  146.5420 C   0  0  0  0  0  0  0  0  0  0  0  0
  190.6620  177.1100  144.9050 C   0  0  0  0  0  2  0  0  0  0  0  0
  193.6920  175.9310  146.8580 C   0  0  0  0  0  3  0  0  0  0  0  0
  194.7340  174.4600  143.5850 C   0  0  0  0  0  2  0  0  0  0  0  0
  194.7450  175.2870  142.3000 C   0  0  0  0  0  2  0  0  0  0  0  0
  189.4660  176.3530  145.4990 C   0  0  2  0  0  3  0  0  0  0  0  0
  192.2050  175.5750  142.8510 C   0  0  1  0  0  3  0  0  0  0  0  0
  191.6570  177.2560  147.5970 C   0  0  1  0  0  3  0  0  0  0  0  0
  194.3920  175.2680  145.8990 N   0  0  0  0  0  0  0  0  0  0  0  0
  189.6580  172.9480  141.4630 C   0  0  2  0  0  3  0  0  0  0  0  0
  189.6290  175.6110  141.4400 C   0  0  0  0  0  1  0  0  0  0  0  0
  189.0020  172.3520  142.5520 O   0  0  0  0  0  0  0  0  0  0  0  0
  190.1560  174.2360  143.4120 C   0  0  2  0  0  3  0  0  0  0  0  0
  189.6710  172.8300  143.6890 C   0  0  0  0  0  2  0  0  0  0  0  0
  190.2220  174.2860  141.9160 C   0  0  1  0  0  0  0  0  0  0  0  0
  191.5100  174.2200  142.7280 C   0  0  1  0  0  3  0  0  0  0  0  0
  188.7340  173.0280  140.2440 C   0  0  2  0  0  3  0  0  0  0  0  0
  187.5810  172.2670  140.4530 O   0  0  0  0  0  1  0  0  0  0  0  0
  190.0680  171.3780  139.1590 O   0  0  0  0  0  1  0  0  0  0  0  0
  189.4290  172.6020  138.9420 C   0  0  2  0  0  3  0  0  0  0  0  0
  191.3230  174.8020  136.3720 C   0  0  0  0  0  2  0  0  0  0  0  0
  191.8600  173.2910  138.8260 C   0  0  0  0  0  2  0  0  0  0  0  0
  190.3610  173.7350  136.8860 C   0  0  0  0  0  2  0  0  0  0  0  0
  190.4290  173.6450  138.4120 C   0  0  1  0  0  3  0  0  0  0  0  0
  192.8340  174.3540  138.3270 C   0  0  0  0  0  2  0  0  0  0  0  0
  192.7500  174.4700  136.8050 C   0  0  2  0  0  3  0  0  0  0  0  0
  193.6740  175.4900  136.3240 N   0  0  0  0  0  0  0  0  0  0  0  0
  193.2350  176.7570  136.1280 O   0  0  0  0  0  1  0  0  0  0  0  0
  195.4590  173.9870  136.2310 O   0  0  0  0  0  0  0  0  0  0  0  0
  195.9290  176.1740  135.5700 N   0  0  0  0  0  2  0  0  0  0  0  0
  197.3240  175.8960  135.2750 C   0  0  0  0  0  1  0  0  0  0  0  0
  195.0400  175.1630  136.0500 C   0  0  0  0  0  0  0  0  0  0  0  0
  187.1660  177.0640  144.7080 C   0  0  0  0  0  0  0  0  0  0  0  0
  188.3120  177.2380  145.5460 N   0  0  0  0  0  2  0  0  0  0  0  0
  187.1520  176.1400  143.8010 N   0  0  0  0  0  2  0  0  0  0  0  0
  184.9840  177.5850  145.4710 O   0  0  0  0  0  1  0  0  0  0  0  0
  186.0170  177.9640  144.8570 C   0  0  0  0  0  0  0  0  0  0  0  0
  186.0630  179.2440  144.3210 O   0  0  0  0  0  0  0  0  0  0  0  0
  1  4  2  0  0  0  0
  1  3  1  0  0  0  0
  3 10  2  0  0  0  0
  4 18  1  0  0  0  0
  5 14  1  0  0  0  0
  6  2  1  1  0  0  0
  6  8  1  0  0  0  0
  7  6  1  0  0  0  0
  7  2  1  0  0  0  0
 10 12  1  0  0  0  0
 10 17  1  0  0  0  0
 11  3  1  0  0  0  0
 11 15  1  0  0  0  0
 13  4  1  0  0  0  0
 14 13  1  0  0  0  0
 15 43  1  1  0  0  0
 15  6  1  0  0  0  0
 16  5  1  6  0  0  0
 16  1  1  0  0  0  0
 17  8  1  0  0  0  0
 17  9  1  1  0  0  0
 18 12  2  0  0  0  0
 19 26  1  6  0  0  0
 19 24  1  0  0  0  0
 19 21  1  0  0  0  0
 21 23  1  0  0  0  0
 22 23  1  6  0  0  0
 24 20  1  6  0  0  0
 24 25  1  0  0  0  0
 24 22  1  0  0  0  0
 25 16  1  1  0  0  0
 25 22  1  0  0  0  0
 26 27  1  1  0  0  0
 29 28  1  1  0  0  0
 29 26  1  0  0  0  0
 30 35  1  0  0  0  0
 30 32  1  0  0  0  0
 32 33  1  0  0  0  0
 33 31  1  0  0  0  0
 33 29  1  6  0  0  0
 34 31  1  0  0  0  0
 35 36  1  1  0  0  0
 35 34  1  0  0  0  0
 37 36  1  0  0  0  0
 39 41  1  0  0  0  0
 40 39  1  0  0  0  0
 41 38  2  0  0  0  0
 41 36  1  0  0  0  0
 42 46  1  0  0  0  0
 42 43  1  0  0  0  0
 44 42  2  0  0  0  0
 46 45  1  0  0  0  0
 47 46  2  0  0  0  0
M  END
>  <MODEL>
9

>  <REMARK>
 VINA RESULT:      -6.4      3.750      8.829
  Name = 
  7 active torsions:
  status: ('A' for Active; 'I' for Inactive)
    1  A    between atoms: C_1  and  C_14
    2  A    between atoms: N_2  and  C_38
    3  A    between atoms: C_5  and  C_7
    4  A    between atoms: C_7  and  C_26
    5  A    between atoms: N_11  and  C_45
    6  A    between atoms: C_24  and  C_26
    7  A    between atoms: C_35  and  C_40
                            x       y       z     vdW  Elec       q    Type
                         _______ _______ _______ _____ _____    ______ ____

>  <TORSDO>
F 7

$$$$
