=
 OpenBabel11072409123D

 39 42  0  0  1  0  0  0  0  0999 V2000
  185.1630  177.7120  145.3320 C   0  0  2  0  0  3  0  0  0  0  0  0
  189.3460  175.8300  145.8920 C   0  0  0  0  0  2  0  0  0  0  0  0
  185.4470  177.1150  143.0030 N   0  0  0  0  0  0  0  0  0  0  0  0
  184.9620  178.1640  143.8980 C   0  0  2  0  0  3  0  0  0  0  0  0
  188.9100  173.7400  142.0180 C   0  0  0  0  0  0  0  0  0  0  0  0
  187.2300  176.5930  144.7460 C   0  0  2  0  0  3  0  0  0  0  0  0
  190.6380  173.5300  143.7640 C   0  0  0  0  0  3  0  0  0  0  0  0
  188.7480  176.7650  144.8550 C   0  0  0  0  0  2  0  0  0  0  0  0
  186.7350  177.1890  147.0050 C   0  0  0  0  0  2  0  0  0  0  0  0
  185.3570  177.5850  141.7330 O   0  0  0  0  0  1  0  0  0  0  0  0
  192.0090  176.0930  145.8840 C   0  0  0  0  0  0  0  0  0  0  0  0
  192.5070  172.0050  143.5830 C   0  0  0  0  0  0  0  0  0  0  0  0
  190.4120  171.6800  140.5610 O   0  0  0  0  0  1  0  0  0  0  0  0
  193.4720  176.2480  145.9000 C   0  0  0  0  0  2  0  0  0  0  0  0
  190.8550  172.1250  141.8010 C   0  0  0  0  0  0  0  0  0  0  0  0
  184.4420  178.6690  146.2990 C   0  0  0  0  0  2  0  0  0  0  0  0
  194.1970  172.0980  145.2850 O   0  0  0  0  0  0  0  0  0  0  0  0
  186.3260  178.3200  147.9530 C   0  0  0  0  0  2  0  0  0  0  0  0
  194.7240  174.4070  144.7840 C   0  0  0  0  0  2  0  0  0  0  0  0
  185.6250  179.3790  143.6630 O   0  0  0  0  0  1  0  0  0  0  0  0
  195.2200  172.9580  144.8690 C   0  0  1  0  0  3  0  0  0  0  0  0
  188.2340  173.1940  141.1040 O   0  0  0  0  0  0  0  0  0  0  0  0
  192.0300  171.5800  142.3380 C   0  0  0  0  0  3  0  0  0  0  0  0
  186.8500  176.7380  143.2400 C   0  0  1  0  0  3  0  0  0  0  0  0
  190.8050  175.9730  145.8890 C   0  0  0  0  0  0  0  0  0  0  0  0
  186.6000  177.6100  145.6070 N   0  0  2  0  0  0  0  0  0  0  0  0
  187.0850  175.4180  142.4910 C   0  0  0  0  0  2  0  0  0  0  0  0
  188.4600  174.9600  142.6070 N   0  0  0  0  0  2  0  0  0  0  0  0
  185.4130  179.3460  147.2700 C   0  0  0  0  0  2  0  0  0  0  0  0
  191.7960  172.9770  144.2970 C   0  0  0  0  0  3  0  0  0  0  0  0
  190.1550  173.1230  142.5150 C   0  0  0  0  0  0  0  0  0  0  0  0
  193.7750  171.4210  144.1310 C   0  0  0  0  0  2  0  0  0  0  0  0
  194.1390  174.8990  146.1020 C   0  0  0  0  0  2  0  0  0  0  0  0
  196.7890  173.7920  146.4750 O   0  0  0  0  0  0  0  0  0  0  0  0
  197.1380  171.5870  145.8460 N   0  0  0  0  0  2  0  0  0  0  0  0
  196.4210  172.8200  145.7640 C   0  0  0  0  0  0  0  0  0  0  0  0
  196.7370  170.3810  145.1370 C   0  0  2  0  0  3  0  0  0  0  0  0
  196.2460  169.3970  146.0840 N   0  0  0  0  0  1  0  0  0  0  0  0
  197.9330  169.8080  144.4040 C   0  0  0  0  0  1  0  0  0  0  0  0
  1 26  1  0  0  0  0
  1 16  1  1  0  0  0
  3 24  1  0  0  0  0
  3  4  1  0  0  0  0
  4 20  1  1  0  0  0
  4  1  1  0  0  0  0
  5 31  1  0  0  0  0
  5 28  1  0  0  0  0
  6  8  1  6  0  0  0
  6 26  1  0  0  0  0
  7 30  1  0  0  0  0
  8  2  1  0  0  0  0
  9 18  1  0  0  0  0
 10  3  1  0  0  0  0
 11 25  3  0  0  0  0
 11 14  1  0  0  0  0
 12 32  1  0  0  0  0
 12 30  2  0  0  0  0
 13 15  1  0  0  0  0
 14 33  1  0  0  0  0
 15 23  2  0  0  0  0
 15 31  1  0  0  0  0
 16 29  1  0  0  0  0
 19 21  1  0  0  0  0
 19 33  1  0  0  0  0
 21 17  1  0  0  0  0
 21 36  1  1  0  0  0
 22  5  2  0  0  0  0
 23 12  1  0  0  0  0
 24 27  1  6  0  0  0
 24  6  1  0  0  0  0
 25  2  1  0  0  0  0
 26  9  1  1  0  0  0
 27 28  1  0  0  0  0
 29 18  1  0  0  0  0
 31  7  2  0  0  0  0
 32 17  1  0  0  0  0
 36 35  1  0  0  0  0
 36 34  2  0  0  0  0
 37 39  1  1  0  0  0
 37 35  1  0  0  0  0
 37 38  1  0  0  0  0
M  END
>  <MODEL>
1

>  <REMARK>
 VINA RESULT:     -10.2      0.000      0.000
  Name = 
  2 active torsions:
  status: ('A' for Active; 'I' for Inactive)
    1  A    between atoms: C_3  and  N_22
    2  A    between atoms: C_24  and  C_34
                            x       y       z     vdW  Elec       q    Type
                         _______ _______ _______ _____ _____    ______ ____

>  <TORSDO>
F 2

$$$$
=
 OpenBabel11072409123D

 39 42  0  0  1  0  0  0  0  0999 V2000
  184.8050  177.9830  145.1820 C   0  0  2  0  0  3  0  0  0  0  0  0
  188.6530  175.4500  145.5520 C   0  0  0  0  0  2  0  0  0  0  0  0
  185.3250  178.0300  142.8170 N   0  0  0  0  0  0  0  0  0  0  0  0
  184.8430  178.8430  143.9330 C   0  0  2  0  0  3  0  0  0  0  0  0
  188.5050  174.6150  141.2110 C   0  0  0  0  0  0  0  0  0  0  0  0
  186.7980  176.7940  144.4890 C   0  0  2  0  0  3  0  0  0  0  0  0
  189.9560  173.6830  142.9710 C   0  0  0  0  0  3  0  0  0  0  0  0
  188.2990  176.7140  144.7850 C   0  0  0  0  0  2  0  0  0  0  0  0
  186.0800  176.7960  146.7660 C   0  0  0  0  0  2  0  0  0  0  0  0
  185.4530  178.8450  141.7400 O   0  0  0  0  0  1  0  0  0  0  0  0
  191.3070  175.3280  145.8720 C   0  0  0  0  0  0  0  0  0  0  0  0
  191.6580  172.0220  142.5250 C   0  0  0  0  0  0  0  0  0  0  0  0
  189.9540  172.8560  139.3590 O   0  0  0  0  0  1  0  0  0  0  0  0
  192.7620  175.2650  146.0710 C   0  0  0  0  0  2  0  0  0  0  0  0
  190.2760  172.8680  140.7110 C   0  0  0  0  0  0  0  0  0  0  0  0
  184.0710  178.7220  146.3160 C   0  0  0  0  0  2  0  0  0  0  0  0
  193.1120  171.3950  144.3300 O   0  0  0  0  0  0  0  0  0  0  0  0
  185.6740  177.6620  147.9620 C   0  0  0  0  0  2  0  0  0  0  0  0
  193.9450  173.6540  144.5840 C   0  0  0  0  0  2  0  0  0  0  0  0
  185.6580  179.9690  144.1290 O   0  0  0  0  0  1  0  0  0  0  0  0
  194.2670  172.1850  144.2840 C   0  0  1  0  0  3  0  0  0  0  0  0
  187.8990  174.4480  140.1180 O   0  0  0  0  0  0  0  0  0  0  0  0
  191.3060  172.0350  141.1710 C   0  0  0  0  0  3  0  0  0  0  0  0
  186.6370  177.4090  143.0630 C   0  0  1  0  0  3  0  0  0  0  0  0
  190.1060  175.3820  145.7290 C   0  0  0  0  0  0  0  0  0  0  0  0
  186.1740  177.6080  145.5480 N   0  0  2  0  0  0  0  0  0  0  0  0
  186.8240  176.3320  141.9840 C   0  0  0  0  0  2  0  0  0  0  0  0
  188.1150  175.6710  142.0880 N   0  0  0  0  0  2  0  0  0  0  0  0
  184.9730  178.9550  147.5290 C   0  0  0  0  0  2  0  0  0  0  0  0
  190.9690  172.8450  143.4240 C   0  0  0  0  0  3  0  0  0  0  0  0
  189.6000  173.7140  141.6180 C   0  0  0  0  0  0  0  0  0  0  0  0
  192.7740  171.1350  142.9940 C   0  0  0  0  0  2  0  0  0  0  0  0
  193.2490  173.8340  145.9270 C   0  0  0  0  0  2  0  0  0  0  0  0
  195.0270  170.7060  146.0080 O   0  0  0  0  0  0  0  0  0  0  0  0
  196.6600  172.1230  145.1680 N   0  0  0  0  0  2  0  0  0  0  0  0
  195.3190  171.6330  145.2070 C   0  0  0  0  0  0  0  0  0  0  0  0
  197.1180  173.1240  144.2160 C   0  0  2  0  0  3  0  0  0  0  0  0
  197.9410  172.4930  143.2010 N   0  0  0  0  0  1  0  0  0  0  0  0
  197.9410  174.1690  144.9410 C   0  0  0  0  0  1  0  0  0  0  0  0
  1 26  1  0  0  0  0
  1 16  1  1  0  0  0
  2 25  1  0  0  0  0
  3 24  1  0  0  0  0
  3  4  1  0  0  0  0
  4 20  1  1  0  0  0
  4  1  1  0  0  0  0
  5 31  1  0  0  0  0
  5 28  1  0  0  0  0
  6  8  1  1  0  0  0
  6 26  1  0  0  0  0
  7 30  1  0  0  0  0
  8  2  1  0  0  0  0
  9 18  1  0  0  0  0
 10  3  1  0  0  0  0
 11 14  1  0  0  0  0
 12 32  1  0  0  0  0
 12 30  2  0  0  0  0
 13 15  1  0  0  0  0
 15 23  2  0  0  0  0
 15 31  1  0  0  0  0
 16 29  1  0  0  0  0
 19 33  1  0  0  0  0
 21 17  1  0  0  0  0
 21 19  1  0  0  0  0
 21 36  1  1  0  0  0
 22  5  2  0  0  0  0
 23 12  1  0  0  0  0
 24 27  1  6  0  0  0
 24  6  1  0  0  0  0
 25 11  3  0  0  0  0
 26  9  1  1  0  0  0
 27 28  1  0  0  0  0
 29 18  1  0  0  0  0
 31  7  2  0  0  0  0
 32 17  1  0  0  0  0
 33 14  1  0  0  0  0
 35 36  1  0  0  0  0
 36 34  2  0  0  0  0
 37 39  1  1  0  0  0
 37 35  1  0  0  0  0
 38 37  1  0  0  0  0
M  END
>  <MODEL>
2

>  <REMARK>
 VINA RESULT:     -10.0      1.362      1.648
  Name = 
  2 active torsions:
  status: ('A' for Active; 'I' for Inactive)
    1  A    between atoms: C_3  and  N_22
    2  A    between atoms: C_24  and  C_34
                            x       y       z     vdW  Elec       q    Type
                         _______ _______ _______ _____ _____    ______ ____

>  <TORSDO>
F 2

$$$$
=
 OpenBabel11072409123D

 39 42  0  0  1  0  0  0  0  0999 V2000
  185.6990  178.6070  144.8220 C   0  0  2  0  0  3  0  0  0  0  0  0
  189.0690  176.4130  142.5450 C   0  0  0  0  0  2  0  0  0  0  0  0
  186.8500  177.8500  146.8130 N   0  0  0  0  0  0  0  0  0  0  0  0
  185.5270  178.0350  146.2160 C   0  0  2  0  0  3  0  0  0  0  0  0
  191.5330  176.4160  146.2180 C   0  0  0  0  0  0  0  0  0  0  0  0
  187.7160  177.3100  144.4780 C   0  0  2  0  0  3  0  0  0  0  0  0
  192.1030  175.7670  143.9090 C   0  0  0  0  0  3  0  0  0  0  0  0
  188.2150  176.0590  143.7510 C   0  0  0  0  0  2  0  0  0  0  0  0
  186.4870  178.2110  142.6380 C   0  0  0  0  0  2  0  0  0  0  0  0
  186.6770  177.2380  148.0120 O   0  0  0  0  0  1  0  0  0  0  0  0
  190.0230  174.1660  141.4490 C   0  0  0  0  0  0  0  0  0  0  0  0
  194.2980  174.9720  143.2740 C   0  0  0  0  0  0  0  0  0  0  0  0
  194.3070  175.7230  146.8880 O   0  0  0  0  0  1  0  0  0  0  0  0
  190.5330  172.9340  140.8290 C   0  0  0  0  0  2  0  0  0  0  0  0
  193.8480  175.5920  145.5820 C   0  0  0  0  0  0  0  0  0  0  0  0
  184.3370  179.0510  144.2560 C   0  0  0  0  0  2  0  0  0  0  0  0
  194.5970  174.1880  141.0250 O   0  0  0  0  0  0  0  0  0  0  0  0
  185.1160  178.3140  141.9640 C   0  0  0  0  0  2  0  0  0  0  0  0
  192.9320  172.4520  141.2960 C   0  0  0  0  0  2  0  0  0  0  0  0
  184.8160  176.8250  146.1720 O   0  0  0  0  0  1  0  0  0  0  0  0
  194.3930  172.8030  140.9910 C   0  0  1  0  0  3  0  0  0  0  0  0
  191.9060  176.8980  147.3220 O   0  0  0  0  0  0  0  0  0  0  0  0
  194.7270  175.1180  144.5980 C   0  0  0  0  0  3  0  0  0  0  0  0
  187.7480  177.0050  146.0080 C   0  0  1  0  0  3  0  0  0  0  0  0
  189.5920  175.1830  141.9430 C   0  0  0  0  0  0  0  0  0  0  0  0
  186.3640  177.6140  143.9730 N   0  0  2  0  0  0  0  0  0  0  0  0
  189.1620  177.2050  146.5720 C   0  0  0  0  0  2  0  0  0  0  0  0
  190.1450  176.3800  145.8880 N   0  0  0  0  0  2  0  0  0  0  0  0
  183.9680  178.2910  142.9800 C   0  0  0  0  0  2  0  0  0  0  0  0
  192.9820  175.3090  142.9350 C   0  0  0  0  0  3  0  0  0  0  0  0
  192.5150  175.9080  145.2390 C   0  0  0  0  0  0  0  0  0  0  0  0
  195.2490  174.4470  142.2390 C   0  0  0  0  0  2  0  0  0  0  0  0
  191.9580  173.1410  140.3480 C   0  0  0  0  0  2  0  0  0  0  0  0
  194.8130  172.9470  138.6370 O   0  0  0  0  0  0  0  0  0  0  0  0
  195.3660  170.9060  139.5880 N   0  0  0  0  0  2  0  0  0  0  0  0
  194.8520  172.2350  139.6750 C   0  0  0  0  0  0  0  0  0  0  0  0
  195.5390  170.0390  140.7450 C   0  0  2  0  0  3  0  0  0  0  0  0
  196.8140  169.3510  140.6540 N   0  0  0  0  0  1  0  0  0  0  0  0
  194.4250  169.0130  140.7760 C   0  0  0  0  0  1  0  0  0  0  0  0
  1 16  1  6  0  0  0
  1  4  1  0  0  0  0
  2  8  1  0  0  0  0
  3 10  1  0  0  0  0
  4 20  1  6  0  0  0
  4  3  1  0  0  0  0
  5 22  2  0  0  0  0
  6  8  1  6  0  0  0
  6 24  1  0  0  0  0
  7 31  1  0  0  0  0
 11 25  3  0  0  0  0
 12 23  2  0  0  0  0
 14 11  1  0  0  0  0
 15 13  1  0  0  0  0
 17 32  1  0  0  0  0
 18  9  1  0  0  0  0
 18 29  1  0  0  0  0
 21 36  1  6  0  0  0
 21 17  1  0  0  0  0
 21 19  1  0  0  0  0
 23 15  1  0  0  0  0
 24 27  1  1  0  0  0
 24  3  1  0  0  0  0
 25  2  1  0  0  0  0
 26  9  1  6  0  0  0
 26  6  1  0  0  0  0
 26  1  1  0  0  0  0
 28  5  1  0  0  0  0
 28 27  1  0  0  0  0
 29 16  1  0  0  0  0
 30 12  1  0  0  0  0
 30  7  2  0  0  0  0
 31 15  2  0  0  0  0
 31  5  1  0  0  0  0
 32 12  1  0  0  0  0
 33 14  1  0  0  0  0
 33 19  1  0  0  0  0
 34 36  2  0  0  0  0
 35 36  1  0  0  0  0
 35 37  1  0  0  0  0
 37 39  1  6  0  0  0
 38 37  1  0  0  0  0
M  END
>  <MODEL>
3

>  <REMARK>
 VINA RESULT:      -8.9      2.927      4.896
  Name = 
  2 active torsions:
  status: ('A' for Active; 'I' for Inactive)
    1  A    between atoms: C_3  and  N_22
    2  A    between atoms: C_24  and  C_34
                            x       y       z     vdW  Elec       q    Type
                         _______ _______ _______ _____ _____    ______ ____

>  <TORSDO>
F 2

$$$$
=
 OpenBabel11072409123D

 39 42  0  0  1  0  0  0  0  0999 V2000
  185.2780  177.6770  145.3730 C   0  0  2  0  0  3  0  0  0  0  0  0
  189.7080  176.4220  144.9780 C   0  0  0  0  0  2  0  0  0  0  0  0
  185.1840  177.2950  142.9840 N   0  0  0  0  0  0  0  0  0  0  0  0
  184.7430  178.1930  144.0510 C   0  0  2  0  0  3  0  0  0  0  0  0
  188.8190  174.5680  141.0620 C   0  0  0  0  0  0  0  0  0  0  0  0
  187.3250  176.9310  144.3150 C   0  0  2  0  0  3  0  0  0  0  0  0
  190.8640  174.5020  142.4360 C   0  0  0  0  0  3  0  0  0  0  0  0
  188.7970  177.3260  144.1630 C   0  0  0  0  0  2  0  0  0  0  0  0
  187.2010  177.2840  146.6740 C   0  0  0  0  0  2  0  0  0  0  0  0
  184.7860  177.8340  141.8040 O   0  0  0  0  0  1  0  0  0  0  0  0
  192.2570  177.0900  144.5120 C   0  0  0  0  0  0  0  0  0  0  0  0
  192.8540  173.2970  141.7710 C   0  0  0  0  0  0  0  0  0  0  0  0
  190.2780  172.8690  139.1620 O   0  0  0  0  0  1  0  0  0  0  0  0
  193.6600  177.4650  144.2780 C   0  0  0  0  0  2  0  0  0  0  0  0
  190.8870  173.2880  140.3390 C   0  0  0  0  0  0  0  0  0  0  0  0
  184.6340  178.4420  146.5440 C   0  0  0  0  0  2  0  0  0  0  0  0
  194.8130  173.5280  143.1380 O   0  0  0  0  0  0  0  0  0  0  0  0
  186.8320  178.2710  147.7860 C   0  0  0  0  0  2  0  0  0  0  0  0
  194.9120  175.9200  142.7780 C   0  0  0  0  0  2  0  0  0  0  0  0
  185.1750  179.5080  143.8190 O   0  0  0  0  0  1  0  0  0  0  0  0
  195.6090  174.5620  142.6300 C   0  0  1  0  0  3  0  0  0  0  0  0
  188.0600  173.9900  140.2370 O   0  0  0  0  0  0  0  0  0  0  0  0
  192.2080  172.8930  140.5970 C   0  0  0  0  0  3  0  0  0  0  0  0
  186.6450  177.1220  142.9240 C   0  0  1  0  0  3  0  0  0  0  0  0
  191.1050  176.7870  144.7240 C   0  0  0  0  0  0  0  0  0  0  0  0
  186.7410  177.7770  145.3710 N   0  0  2  0  0  0  0  0  0  0  0  0
  186.9080  175.9090  142.0200 C   0  0  0  0  0  2  0  0  0  0  0  0
  188.3290  175.6600  141.8390 N   0  0  0  0  0  2  0  0  0  0  0  0
  185.6720  179.1890  147.3840 C   0  0  0  0  0  2  0  0  0  0  0  0
  192.1690  174.0970  142.6930 C   0  0  0  0  0  3  0  0  0  0  0  0
  190.2090  174.1140  141.2620 C   0  0  0  0  0  0  0  0  0  0  0  0
  194.2730  172.8770  142.0200 C   0  0  0  0  0  2  0  0  0  0  0  0
  194.5310  176.2230  144.2220 C   0  0  0  0  0  2  0  0  0  0  0  0
  197.9410  175.1020  142.6980 O   0  0  0  0  0  0  0  0  0  0  0  0
  197.1690  173.9370  144.5500 N   0  0  0  0  0  2  0  0  0  0  0  0
  196.9680  174.5460  143.2740 C   0  0  0  0  0  0  0  0  0  0  0  0
  196.0920  173.3530  145.3340 C   0  0  2  0  0  3  0  0  0  0  0  0
  196.0070  174.0200  146.6200 N   0  0  0  0  0  1  0  0  0  0  0  0
  196.3750  171.8810  145.5600 C   0  0  0  0  0  1  0  0  0  0  0  0
  1 16  1  1  0  0  0
  3  4  1  0  0  0  0
  4 20  1  6  0  0  0
  4  1  1  0  0  0  0
  5 31  1  0  0  0  0
  5 28  1  0  0  0  0
  6  8  1  6  0  0  0
  6 26  1  0  0  0  0
  7 30  1  0  0  0  0
  8  2  1  0  0  0  0
  9 18  1  0  0  0  0
 10  3  1  0  0  0  0
 11 25  3  0  0  0  0
 12 32  1  0  0  0  0
 12 30  2  0  0  0  0
 13 15  1  0  0  0  0
 14 11  1  0  0  0  0
 15 23  2  0  0  0  0
 15 31  1  0  0  0  0
 16 29  1  0  0  0  0
 19 33  1  0  0  0  0
 21 19  1  0  0  0  0
 21 17  1  0  0  0  0
 21 36  1  1  0  0  0
 22  5  2  0  0  0  0
 23 12  1  0  0  0  0
 24 27  1  6  0  0  0
 24  3  1  0  0  0  0
 24  6  1  0  0  0  0
 25  2  1  0  0  0  0
 26  1  1  0  0  0  0
 26  9  1  1  0  0  0
 28 27  1  0  0  0  0
 29 18  1  0  0  0  0
 31  7  2  0  0  0  0
 32 17  1  0  0  0  0
 33 14  1  0  0  0  0
 34 36  2  0  0  0  0
 35 37  1  0  0  0  0
 36 35  1  0  0  0  0
 37 39  1  1  0  0  0
 37 38  1  0  0  0  0
M  END
>  <MODEL>
4

>  <REMARK>
 VINA RESULT:      -8.8      1.767      1.966
  Name = 
  2 active torsions:
  status: ('A' for Active; 'I' for Inactive)
    1  A    between atoms: C_3  and  N_22
    2  A    between atoms: C_24  and  C_34
                            x       y       z     vdW  Elec       q    Type
                         _______ _______ _______ _____ _____    ______ ____

>  <TORSDO>
F 2

$$$$
=
 OpenBabel11072409123D

 39 42  0  0  1  0  0  0  0  0999 V2000
  196.0960  170.8910  143.5130 C   0  0  2  0  0  3  0  0  0  0  0  0
  192.8160  173.8940  144.7700 C   0  0  0  0  0  2  0  0  0  0  0  0
  194.4310  170.0570  141.9650 N   0  0  0  0  0  0  0  0  0  0  0  0
  195.4830  169.6480  142.8970 C   0  0  2  0  0  3  0  0  0  0  0  0
  190.6300  173.0560  141.0180 C   0  0  0  0  0  0  0  0  0  0  0  0
  193.9480  172.0100  143.5270 C   0  0  2  0  0  3  0  0  0  0  0  0
  190.2340  174.7600  142.7540 C   0  0  0  0  0  3  0  0  0  0  0  0
  192.8170  172.4020  144.4830 C   0  0  0  0  0  2  0  0  0  0  0  0
  195.7400  172.7410  144.9270 C   0  0  0  0  0  2  0  0  0  0  0  0
  193.8270  168.9310  141.5090 O   0  0  0  0  0  1  0  0  0  0  0  0
  190.7110  174.4940  146.3100 C   0  0  0  0  0  0  0  0  0  0  0  0
  188.4260  176.3630  142.6310 C   0  0  0  0  0  0  0  0  0  0  0  0
  188.3010  174.2000  139.6420 O   0  0  0  0  0  1  0  0  0  0  0  0
  189.5690  174.8280  147.1740 C   0  0  0  0  0  2  0  0  0  0  0  0
  188.7280  174.7280  140.8550 C   0  0  0  0  0  0  0  0  0  0  0  0
  197.3660  170.5230  144.3040 C   0  0  0  0  0  2  0  0  0  0  0  0
  188.0740  177.8020  144.5190 O   0  0  0  0  0  0  0  0  0  0  0  0
  196.7720  172.3240  145.9790 C   0  0  0  0  0  2  0  0  0  0  0  0
  187.6680  175.9330  146.0030 C   0  0  0  0  0  2  0  0  0  0  0  0
  194.9760  168.7980  143.8920 O   0  0  0  0  0  1  0  0  0  0  0  0
  187.1260  177.2200  145.3700 C   0  0  1  0  0  3  0  0  0  0  0  0
  190.5670  172.7260  139.8020 O   0  0  0  0  0  0  0  0  0  0  0  0
  188.0250  175.8070  141.4100 C   0  0  0  0  0  3  0  0  0  0  0  0
  193.3940  170.9010  142.5790 C   0  0  1  0  0  3  0  0  0  0  0  0
  191.6640  174.2240  145.6140 C   0  0  0  0  0  0  0  0  0  0  0  0
  195.0900  171.5620  144.3440 N   0  0  2  0  0  0  0  0  0  0  0  0
  192.5940  171.5240  141.4260 C   0  0  0  0  0  2  0  0  0  0  0  0
  191.4970  172.3500  141.9050 N   0  0  0  0  0  2  0  0  0  0  0  0
  197.2430  170.8780  145.7870 C   0  0  0  0  0  2  0  0  0  0  0  0
  189.5410  175.8380  143.2940 C   0  0  0  0  0  3  0  0  0  0  0  0
  189.8380  174.1870  141.5400 C   0  0  0  0  0  0  0  0  0  0  0  0
  187.6490  177.5060  143.2160 C   0  0  0  0  0  2  0  0  0  0  0  0
  188.9710  176.1610  146.7600 C   0  0  0  0  0  2  0  0  0  0  0  0
  187.2180  178.2400  147.5350 O   0  0  0  0  0  0  0  0  0  0  0  0
  185.6290  179.1500  146.1110 N   0  0  0  0  0  2  0  0  0  0  0  0
  186.6660  178.2120  146.4030 C   0  0  0  0  0  0  0  0  0  0  0  0
  184.9960  179.2580  144.8050 C   0  0  2  0  0  3  0  0  0  0  0  0
  185.2800  180.5610  144.2310 N   0  0  0  0  0  1  0  0  0  0  0  0
  183.4960  179.1030  144.9590 C   0  0  0  0  0  1  0  0  0  0  0  0
  1 16  1  1  0  0  0
  1 26  1  0  0  0  0
  2 25  1  0  0  0  0
  3 24  1  0  0  0  0
  3  4  1  0  0  0  0
  4  1  1  0  0  0  0
  4 20  1  1  0  0  0
  5 31  1  0  0  0  0
  5 28  1  0  0  0  0
  6 26  1  0  0  0  0
  6  8  1  1  0  0  0
  7 30  1  0  0  0  0
  8  2  1  0  0  0  0
  9 18  1  0  0  0  0
 10  3  1  0  0  0  0
 11 14  1  0  0  0  0
 12 32  1  0  0  0  0
 12 30  2  0  0  0  0
 13 15  1  0  0  0  0
 15 23  2  0  0  0  0
 15 31  1  0  0  0  0
 16 29  1  0  0  0  0
 17 21  1  0  0  0  0
 19 33  1  0  0  0  0
 21 19  1  0  0  0  0
 21 36  1  1  0  0  0
 22  5  2  0  0  0  0
 23 12  1  0  0  0  0
 24 27  1  6  0  0  0
 24  6  1  0  0  0  0
 25 11  3  0  0  0  0
 26  9  1  6  0  0  0
 27 28  1  0  0  0  0
 29 18  1  0  0  0  0
 31  7  2  0  0  0  0
 32 17  1  0  0  0  0
 33 14  1  0  0  0  0
 35 36  1  0  0  0  0
 36 34  2  0  0  0  0
 37 39  1  1  0  0  0
 37 35  1  0  0  0  0
 38 37  1  0  0  0  0
M  END
>  <MODEL>
5

>  <REMARK>
 VINA RESULT:      -8.6      2.186      9.555
  Name = 
  2 active torsions:
  status: ('A' for Active; 'I' for Inactive)
    1  A    between atoms: C_3  and  N_22
    2  A    between atoms: C_24  and  C_34
                            x       y       z     vdW  Elec       q    Type
                         _______ _______ _______ _____ _____    ______ ____

>  <TORSDO>
F 2

$$$$
=
 OpenBabel11072409123D

 39 42  0  0  1  0  0  0  0  0999 V2000
  185.8040  178.6260  144.8140 C   0  0  2  0  0  3  0  0  0  0  0  0
  188.2310  176.1640  141.7470 C   0  0  0  0  0  2  0  0  0  0  0  0
  187.2100  177.5480  146.4640 N   0  0  0  0  0  0  0  0  0  0  0  0
  185.8380  177.9710  146.1810 C   0  0  2  0  0  3  0  0  0  0  0  0
  191.3770  175.5070  144.7860 C   0  0  0  0  0  0  0  0  0  0  0  0
  187.4720  177.0840  143.9720 C   0  0  2  0  0  3  0  0  0  0  0  0
  191.3420  174.9760  142.3790 C   0  0  0  0  0  3  0  0  0  0  0  0
  187.6030  175.8380  143.0920 C   0  0  0  0  0  2  0  0  0  0  0  0
  186.0450  178.3020  142.4940 C   0  0  0  0  0  2  0  0  0  0  0  0
  187.1970  176.8710  147.6400 O   0  0  0  0  0  1  0  0  0  0  0  0
  188.5650  173.9010  140.3590 C   0  0  0  0  0  0  0  0  0  0  0  0
  193.2000  173.9280  141.2390 C   0  0  0  0  0  0  0  0  0  0  0  0
  194.0840  174.3680  144.7960 O   0  0  0  0  0  1  0  0  0  0  0  0
  188.7320  172.6640  139.5810 C   0  0  0  0  0  2  0  0  0  0  0  0
  193.3470  174.4130  143.6180 C   0  0  0  0  0  0  0  0  0  0  0  0
  184.4410  179.3070  144.5830 C   0  0  0  0  0  2  0  0  0  0  0  0
  192.8940  173.2980  138.9430 O   0  0  0  0  0  0  0  0  0  0  0  0
  184.5970  178.6570  142.1420 C   0  0  0  0  0  2  0  0  0  0  0  0
  191.0680  171.8040  139.4860 C   0  0  0  0  0  2  0  0  0  0  0  0
  184.9510  176.8840  146.2340 O   0  0  0  0  0  1  0  0  0  0  0  0
  192.4700  171.9650  138.8860 C   0  0  1  0  0  3  0  0  0  0  0  0
  192.0450  175.8370  145.8030 O   0  0  0  0  0  0  0  0  0  0  0  0
  193.9140  173.9000  142.4420 C   0  0  0  0  0  3  0  0  0  0  0  0
  187.7740  176.6520  145.4410 C   0  0  1  0  0  3  0  0  0  0  0  0
  188.4140  174.9250  140.9850 C   0  0  0  0  0  0  0  0  0  0  0  0
  186.1110  177.6200  143.7910 N   0  0  2  0  0  0  0  0  0  0  0  0
  189.2890  176.5980  145.6900 C   0  0  0  0  0  2  0  0  0  0  0  0
  189.9630  175.7000  144.7670 N   0  0  0  0  0  2  0  0  0  0  0  0
  183.6980  178.7160  143.3830 C   0  0  0  0  0  2  0  0  0  0  0  0
  191.9130  174.4790  141.2140 C   0  0  0  0  0  3  0  0  0  0  0  0
  192.0390  174.9460  143.5920 C   0  0  0  0  0  0  0  0  0  0  0  0
  193.8180  173.3590  139.9960 C   0  0  0  0  0  2  0  0  0  0  0  0
  190.0400  172.7030  138.8100 C   0  0  0  0  0  2  0  0  0  0  0  0
  192.7970  172.2410  136.5290 O   0  0  0  0  0  0  0  0  0  0  0  0
  192.3750  170.0580  137.1920 N   0  0  0  0  0  2  0  0  0  0  0  0
  192.5480  171.4470  137.4750 C   0  0  0  0  0  0  0  0  0  0  0  0
  192.1770  169.0510  138.2240 C   0  0  2  0  0  3  0  0  0  0  0  0
  193.3290  168.1690  138.2730 N   0  0  0  0  0  1  0  0  0  0  0  0
  190.9430  168.2340  137.8990 C   0  0  0  0  0  1  0  0  0  0  0  0
  1 16  1  6  0  0  0
  1  4  1  0  0  0  0
  2  8  1  0  0  0  0
  3 10  1  0  0  0  0
  4 20  1  6  0  0  0
  4  3  1  0  0  0  0
  5 22  2  0  0  0  0
  6  8  1  6  0  0  0
  6 24  1  0  0  0  0
  7 31  1  0  0  0  0
 11 25  3  0  0  0  0
 12 23  2  0  0  0  0
 14 11  1  0  0  0  0
 15 13  1  0  0  0  0
 17 32  1  0  0  0  0
 18  9  1  0  0  0  0
 18 29  1  0  0  0  0
 21 36  1  6  0  0  0
 21 17  1  0  0  0  0
 21 19  1  0  0  0  0
 23 15  1  0  0  0  0
 24 27  1  6  0  0  0
 24  3  1  0  0  0  0
 25  2  1  0  0  0  0
 26  9  1  6  0  0  0
 26  6  1  0  0  0  0
 26  1  1  0  0  0  0
 28  5  1  0  0  0  0
 28 27  1  0  0  0  0
 29 16  1  0  0  0  0
 30 12  1  0  0  0  0
 30  7  2  0  0  0  0
 31 15  2  0  0  0  0
 31  5  1  0  0  0  0
 32 12  1  0  0  0  0
 33 19  1  0  0  0  0
 33 14  1  0  0  0  0
 34 36  2  0  0  0  0
 35 36  1  0  0  0  0
 35 37  1  0  0  0  0
 37 39  1  6  0  0  0
 37 38  1  0  0  0  0
M  END
>  <MODEL>
6

>  <REMARK>
 VINA RESULT:      -8.6      3.306      5.758
  Name = 
  2 active torsions:
  status: ('A' for Active; 'I' for Inactive)
    1  A    between atoms: C_3  and  N_22
    2  A    between atoms: C_24  and  C_34
                            x       y       z     vdW  Elec       q    Type
                         _______ _______ _______ _____ _____    ______ ____

>  <TORSDO>
F 2

$$$$
=
 OpenBabel11072409123D

 39 42  0  0  1  0  0  0  0  0999 V2000
  185.6730  178.5780  141.6590 C   0  0  2  0  0  3  0  0  0  0  0  0
  189.0680  175.4880  142.1890 C   0  0  0  0  0  2  0  0  0  0  0  0
  185.6970  178.6940  144.0780 N   0  0  0  0  0  0  0  0  0  0  0  0
  184.8180  178.6610  142.9090 C   0  0  2  0  0  3  0  0  0  0  0  0
  189.7400  176.9530  146.3070 C   0  0  0  0  0  0  0  0  0  0  0  0
  187.2910  177.1770  142.7930 C   0  0  2  0  0  3  0  0  0  0  0  0
  191.0370  175.3610  144.9440 C   0  0  0  0  0  3  0  0  0  0  0  0
  187.7390  175.7160  142.8890 C   0  0  0  0  0  2  0  0  0  0  0  0
  187.1700  177.2590  140.4090 C   0  0  0  0  0  2  0  0  0  0  0  0
  184.9120  178.6580  145.1840 O   0  0  0  0  0  1  0  0  0  0  0  0
  189.8360  172.9510  142.5570 C   0  0  0  0  0  0  0  0  0  0  0  0
  193.0490  174.2820  145.7450 C   0  0  0  0  0  0  0  0  0  0  0  0
  191.7530  176.4980  148.3970 O   0  0  0  0  0  1  0  0  0  0  0  0
  190.2540  171.5530  142.7370 C   0  0  0  0  0  2  0  0  0  0  0  0
  191.8510  175.8430  147.1750 C   0  0  0  0  0  0  0  0  0  0  0  0
  184.8050  178.7940  140.4050 C   0  0  0  0  0  2  0  0  0  0  0  0
  194.0510  172.6040  144.3510 O   0  0  0  0  0  0  0  0  0  0  0  0
  186.2600  177.1210  139.1850 C   0  0  0  0  0  2  0  0  0  0  0  0
  192.0670  171.2180  144.4120 C   0  0  0  0  0  2  0  0  0  0  0  0
  183.9270  177.5780  142.9750 O   0  0  0  0  0  1  0  0  0  0  0  0
  193.5630  171.3460  144.7250 C   0  0  1  0  0  3  0  0  0  0  0  0
  189.7300  177.8430  147.2000 O   0  0  0  0  0  0  0  0  0  0  0  0
  192.9190  174.9600  146.9620 C   0  0  0  0  0  3  0  0  0  0  0  0
  186.6230  177.5510  144.1520 C   0  0  1  0  0  3  0  0  0  0  0  0
  189.4900  174.0990  142.3890 C   0  0  0  0  0  0  0  0  0  0  0  0
  186.3760  177.2920  141.6420 N   0  0  2  0  0  0  0  0  0  0  0  0
  187.6870  177.9140  145.1980 C   0  0  0  0  0  2  0  0  0  0  0  0
  188.6420  176.8370  145.4030 N   0  0  0  0  0  2  0  0  0  0  0  0
  184.8260  177.5790  139.4750 C   0  0  0  0  0  2  0  0  0  0  0  0
  192.1050  174.4970  144.7330 C   0  0  0  0  0  3  0  0  0  0  0  0
  190.8890  176.0380  146.1600 C   0  0  0  0  0  0  0  0  0  0  0  0
  194.1900  173.3290  145.5440 C   0  0  0  0  0  2  0  0  0  0  0  0
  191.7560  171.4780  142.9430 C   0  0  0  0  0  2  0  0  0  0  0  0
  194.4570  170.1910  142.8260 O   0  0  0  0  0  0  0  0  0  0  0  0
  195.0830  169.3020  144.8750 N   0  0  0  0  0  2  0  0  0  0  0  0
  194.3740  170.2540  144.0820 C   0  0  0  0  0  0  0  0  0  0  0  0
  195.1260  169.3470  146.3290 C   0  0  2  0  0  3  0  0  0  0  0  0
  196.5030  169.2690  146.7800 N   0  0  0  0  0  1  0  0  0  0  0  0
  194.3540  168.1710  146.8920 C   0  0  0  0  0  1  0  0  0  0  0  0
  1 16  1  6  0  0  0
  1  4  1  0  0  0  0
  2 25  1  0  0  0  0
  2  8  1  0  0  0  0
  3 24  1  0  0  0  0
  3 10  1  0  0  0  0
  4 20  1  1  0  0  0
  4  3  1  0  0  0  0
  5 22  2  0  0  0  0
  6  8  1  1  0  0  0
  6 24  1  0  0  0  0
  7 31  1  0  0  0  0
 11 14  1  0  0  0  0
 12 23  2  0  0  0  0
 14 33  1  0  0  0  0
 15 13  1  0  0  0  0
 17 21  1  0  0  0  0
 17 32  1  0  0  0  0
 18 29  1  0  0  0  0
 18  9  1  0  0  0  0
 19 21  1  0  0  0  0
 21 36  1  6  0  0  0
 23 15  1  0  0  0  0
 24 27  1  1  0  0  0
 25 11  3  0  0  0  0
 26  9  1  6  0  0  0
 26  1  1  0  0  0  0
 26  6  1  0  0  0  0
 27 28  1  0  0  0  0
 28  5  1  0  0  0  0
 29 16  1  0  0  0  0
 30  7  2  0  0  0  0
 30 12  1  0  0  0  0
 31  5  1  0  0  0  0
 31 15  2  0  0  0  0
 32 12  1  0  0  0  0
 33 19  1  0  0  0  0
 34 36  2  0  0  0  0
 35 37  1  0  0  0  0
 36 35  1  0  0  0  0
 37 38  1  0  0  0  0
 37 39  1  1  0  0  0
M  END
>  <MODEL>
7

>  <REMARK>
 VINA RESULT:      -8.5      2.298      4.660
  Name = 
  2 active torsions:
  status: ('A' for Active; 'I' for Inactive)
    1  A    between atoms: C_3  and  N_22
    2  A    between atoms: C_24  and  C_34
                            x       y       z     vdW  Elec       q    Type
                         _______ _______ _______ _____ _____    ______ ____

>  <TORSDO>
F 2

$$$$
=
 OpenBabel11072409123D

 39 42  0  0  1  0  0  0  0  0999 V2000
  185.7160  178.6860  144.7900 C   0  0  2  0  0  3  0  0  0  0  0  0
  188.9670  176.4110  142.4200 C   0  0  0  0  0  2  0  0  0  0  0  0
  186.8960  177.8870  146.7490 N   0  0  0  0  0  0  0  0  0  0  0  0
  185.5650  178.1110  146.1860 C   0  0  2  0  0  3  0  0  0  0  0  0
  191.5220  176.3290  146.0290 C   0  0  0  0  0  0  0  0  0  0  0  0
  187.6880  177.3360  144.3910 C   0  0  2  0  0  3  0  0  0  0  0  0
  192.0150  175.6760  143.7040 C   0  0  0  0  0  3  0  0  0  0  0  0
  188.1340  176.0740  143.6460 C   0  0  0  0  0  2  0  0  0  0  0  0
  186.4380  178.2780  142.5860 C   0  0  0  0  0  2  0  0  0  0  0  0
  186.7370  177.2750  147.9490 O   0  0  0  0  0  1  0  0  0  0  0  0
  189.8300  174.1430  141.2910 C   0  0  0  0  0  0  0  0  0  0  0  0
  194.1700  174.8240  143.0090 C   0  0  0  0  0  0  0  0  0  0  0  0
  194.2920  175.5580  146.6250 O   0  0  0  0  0  1  0  0  0  0  0  0
  190.2900  172.9010  140.6530 C   0  0  0  0  0  2  0  0  0  0  0  0
  193.7960  175.4450  145.3310 C   0  0  0  0  0  0  0  0  0  0  0  0
  184.3530  179.1680  144.2610 C   0  0  0  0  0  2  0  0  0  0  0  0
  194.3910  174.0430  140.7500 O   0  0  0  0  0  0  0  0  0  0  0  0
  185.0540  178.4210  141.9470 C   0  0  0  0  0  2  0  0  0  0  0  0
  192.6860  172.3520  141.0570 C   0  0  0  0  0  2  0  0  0  0  0  0
  184.8200  176.9220  146.1560 O   0  0  0  0  0  1  0  0  0  0  0  0
  194.1490  172.6640  140.7160 C   0  0  1  0  0  3  0  0  0  0  0  0
  191.9360  176.7960  147.1250 O   0  0  0  0  0  0  0  0  0  0  0  0
  194.6370  174.9520  144.3230 C   0  0  0  0  0  3  0  0  0  0  0  0
  187.7500  177.0230  145.9180 C   0  0  1  0  0  3  0  0  0  0  0  0
  189.4400  175.1700  141.8000 C   0  0  0  0  0  0  0  0  0  0  0  0
  186.3330  177.6780  143.9210 N   0  0  2  0  0  0  0  0  0  0  0  0
  189.1830  177.1810  146.4460 C   0  0  0  0  0  2  0  0  0  0  0  0
  190.1250  176.3330  145.7340 N   0  0  0  0  0  2  0  0  0  0  0  0
  183.9310  178.4250  142.9920 C   0  0  0  0  0  2  0  0  0  0  0  0
  192.8570  175.1990  142.7050 C   0  0  0  0  0  3  0  0  0  0  0  0
  192.4640  175.8000  145.0240 C   0  0  0  0  0  0  0  0  0  0  0  0
  195.0810  174.2780  141.9490 C   0  0  0  0  0  2  0  0  0  0  0  0
  191.7080  173.0720  140.1370 C   0  0  0  0  0  2  0  0  0  0  0  0
  194.6560  170.8420  139.2460 O   0  0  0  0  0  0  0  0  0  0  0  0
  194.8070  172.9390  138.2660 N   0  0  0  0  0  2  0  0  0  0  0  0
  194.5580  172.0900  139.3870 C   0  0  0  0  0  0  0  0  0  0  0  0
  194.6300  174.3830  138.3020 C   0  0  2  0  0  3  0  0  0  0  0  0
  193.4820  174.7550  137.4950 N   0  0  0  0  0  1  0  0  0  0  0  0
  195.8670  175.0560  137.7410 C   0  0  0  0  0  1  0  0  0  0  0  0
  1 16  1  6  0  0  0
  1  4  1  0  0  0  0
  2  8  1  0  0  0  0
  3 10  1  0  0  0  0
  4 20  1  6  0  0  0
  4  3  1  0  0  0  0
  5 22  2  0  0  0  0
  6  8  1  6  0  0  0
  6 24  1  0  0  0  0
  7 31  1  0  0  0  0
 11 25  3  0  0  0  0
 12 23  2  0  0  0  0
 14 11  1  0  0  0  0
 15 13  1  0  0  0  0
 17 32  1  0  0  0  0
 18  9  1  0  0  0  0
 18 29  1  0  0  0  0
 21 36  1  6  0  0  0
 21 17  1  0  0  0  0
 21 19  1  0  0  0  0
 23 15  1  0  0  0  0
 24 27  1  1  0  0  0
 24  3  1  0  0  0  0
 25  2  1  0  0  0  0
 26  9  1  6  0  0  0
 26  6  1  0  0  0  0
 26  1  1  0  0  0  0
 28  5  1  0  0  0  0
 28 27  1  0  0  0  0
 29 16  1  0  0  0  0
 30 12  1  0  0  0  0
 30  7  2  0  0  0  0
 31 15  2  0  0  0  0
 31  5  1  0  0  0  0
 32 12  1  0  0  0  0
 33 14  1  0  0  0  0
 33 19  1  0  0  0  0
 34 36  2  0  0  0  0
 35 37  1  0  0  0  0
 35 36  1  0  0  0  0
 37 39  1  6  0  0  0
 38 37  1  0  0  0  0
M  END
>  <MODEL>
8

>  <REMARK>
 VINA RESULT:      -8.5      3.278      5.395
  Name = 
  2 active torsions:
  status: ('A' for Active; 'I' for Inactive)
    1  A    between atoms: C_3  and  N_22
    2  A    between atoms: C_24  and  C_34
                            x       y       z     vdW  Elec       q    Type
                         _______ _______ _______ _____ _____    ______ ____

>  <TORSDO>
F 2

$$$$
=
 OpenBabel11072409123D

 39 42  0  0  1  0  0  0  0  0999 V2000
  196.7420  172.1720  138.4400 C   0  0  2  0  0  3  0  0  0  0  0  0
  193.6440  172.9630  141.7760 C   0  0  0  0  0  2  0  0  0  0  0  0
  197.4260  174.4610  138.8350 N   0  0  0  0  0  0  0  0  0  0  0  0
  197.1770  173.4710  137.7870 C   0  0  2  0  0  3  0  0  0  0  0  0
  195.9950  176.4630  143.1110 C   0  0  0  0  0  0  0  0  0  0  0  0
  195.5440  173.3770  140.1660 C   0  0  2  0  0  3  0  0  0  0  0  0
  194.0410  175.3640  144.1350 C   0  0  0  0  0  3  0  0  0  0  0  0
  194.1210  173.7650  140.5760 C   0  0  0  0  0  2  0  0  0  0  0  0
  195.0660  171.0870  139.6870 C   0  0  0  0  0  2  0  0  0  0  0  0
  197.7080  175.6410  138.2250 O   0  0  0  0  0  1  0  0  0  0  0  0
  191.2210  173.8310  142.5100 C   0  0  0  0  0  0  0  0  0  0  0  0
  193.0500  176.1160  146.2100 C   0  0  0  0  0  0  0  0  0  0  0  0
  195.9150  178.2990  145.4020 O   0  0  0  0  0  1  0  0  0  0  0  0
  189.8810  174.2880  142.9050 C   0  0  0  0  0  2  0  0  0  0  0  0
  194.9830  177.2730  145.2930 C   0  0  0  0  0  0  0  0  0  0  0  0
  196.7120  171.0370  137.4000 C   0  0  0  0  0  2  0  0  0  0  0  0
  191.0260  175.0500  146.9350 O   0  0  0  0  0  0  0  0  0  0  0  0
  194.7030  170.0730  138.5980 C   0  0  0  0  0  2  0  0  0  0  0  0
  189.8310  175.7240  144.9400 C   0  0  0  0  0  2  0  0  0  0  0  0
  196.2030  173.9230  136.8830 O   0  0  0  0  0  1  0  0  0  0  0  0
  189.9280  175.7840  146.4700 C   0  0  1  0  0  3  0  0  0  0  0  0
  197.0710  177.1040  143.2650 O   0  0  0  0  0  0  0  0  0  0  0  0
  194.0050  177.1360  146.2880 C   0  0  0  0  0  3  0  0  0  0  0  0
  196.2740  174.6830  139.7240 C   0  0  1  0  0  3  0  0  0  0  0  0
  192.3170  173.4370  142.1790 C   0  0  0  0  0  0  0  0  0  0  0  0
  195.4440  172.3730  139.0920 N   0  0  2  0  0  0  0  0  0  0  0  0
  196.8020  175.4500  140.9450 C   0  0  0  0  0  2  0  0  0  0  0  0
  195.7430  175.7770  141.8860 N   0  0  0  0  0  2  0  0  0  0  0  0
  195.3130  170.4390  137.2400 C   0  0  0  0  0  2  0  0  0  0  0  0
  193.0820  175.2250  145.1310 C   0  0  0  0  0  3  0  0  0  0  0  0
  194.9960  176.3860  144.1950 C   0  0  0  0  0  0  0  0  0  0  0  0
  192.0010  175.9970  147.2760 C   0  0  0  0  0  2  0  0  0  0  0  0
  189.7550  174.2940  144.4180 C   0  0  0  0  0  2  0  0  0  0  0  0
  188.6470  174.2270  147.7620 O   0  0  0  0  0  0  0  0  0  0  0  0
  187.4800  176.1210  147.1070 N   0  0  0  0  0  2  0  0  0  0  0  0
  188.6620  175.3210  147.1390 C   0  0  0  0  0  0  0  0  0  0  0  0
  187.4240  177.4400  146.4940 C   0  0  2  0  0  3  0  0  0  0  0  0
  186.7540  178.3670  147.3880 N   0  0  0  0  0  1  0  0  0  0  0  0
  186.6480  177.3590  145.1950 C   0  0  0  0  0  1  0  0  0  0  0  0
  1 16  1  6  0  0  0
  1 26  1  0  0  0  0
  2 25  1  0  0  0  0
  3 24  1  0  0  0  0
  4 20  1  6  0  0  0
  4  1  1  0  0  0  0
  4  3  1  0  0  0  0
  5 22  2  0  0  0  0
  5 31  1  0  0  0  0
  6  8  1  6  0  0  0
  7 31  2  0  0  0  0
  7 30  1  0  0  0  0
  8  2  1  0  0  0  0
 10  3  1  0  0  0  0
 11 14  1  0  0  0  0
 12 23  1  0  0  0  0
 12 32  1  0  0  0  0
 14 33  1  0  0  0  0
 15 13  1  0  0  0  0
 15 23  2  0  0  0  0
 17 32  1  0  0  0  0
 18  9  1  0  0  0  0
 19 21  1  0  0  0  0
 21 17  1  0  0  0  0
 21 36  1  1  0  0  0
 24  6  1  0  0  0  0
 24 27  1  1  0  0  0
 25 11  3  0  0  0  0
 26  9  1  1  0  0  0
 26  6  1  0  0  0  0
 27 28  1  0  0  0  0
 28  5  1  0  0  0  0
 29 16  1  0  0  0  0
 29 18  1  0  0  0  0
 30 12  2  0  0  0  0
 31 15  1  0  0  0  0
 33 19  1  0  0  0  0
 35 36  1  0  0  0  0
 36 34  2  0  0  0  0
 37 39  1  6  0  0  0
 37 35  1  0  0  0  0
 37 38  1  0  0  0  0
M  END
>  <MODEL>
9

>  <REMARK>
 VINA RESULT:      -8.2      4.293     10.001
  Name = 
  2 active torsions:
  status: ('A' for Active; 'I' for Inactive)
    1  A    between atoms: C_3  and  N_22
    2  A    between atoms: C_24  and  C_34
                            x       y       z     vdW  Elec       q    Type
                         _______ _______ _______ _____ _____    ______ ____

>  <TORSDO>
F 2

$$$$
