=
 OpenBabel11062422103D

 27 31  0  0  1  0  0  0  0  0999 V2000
  184.7030  178.8260  143.8950 C   0  0  0  0  0  2  0  0  0  0  0  0
  184.2440  178.4510  146.1440 C   0  0  0  0  0  2  0  0  0  0  0  0
  188.0270  177.1990  144.6230 C   0  0  0  0  0  2  0  0  0  0  0  0
  185.4490  177.6980  145.6720 C   0  0  1  0  0  3  0  0  0  0  0  0
  185.9460  178.4720  144.5640 N   0  0  1  0  0  0  0  0  0  0  0  0
  186.7990  177.5820  143.7740 C   0  0  1  0  0  3  0  0  0  0  0  0
  187.6180  176.5960  145.9910 C   0  0  2  0  0  3  0  0  0  0  0  0
  183.6880  179.0440  144.9320 N   0  0  0  0  0  2  0  0  0  0  0  0
  186.5610  177.4870  146.6770 C   0  0  0  0  0  2  0  0  0  0  0  0
  190.7870  173.5270  144.1820 C   0  0  0  0  0  2  0  0  0  0  0  0
  189.6600  173.9560  145.0150 N   0  0  0  0  0  2  0  0  0  0  0  0
  188.7910  176.4000  146.8560 N   0  0  1  0  0  0  0  0  0  0  0  0
  190.1450  174.4600  146.3110 C   0  0  1  0  0  3  0  0  0  0  0  0
  191.8150  175.6810  144.9030 C   0  0  1  0  0  3  0  0  0  0  0  0
  192.9780  176.7890  144.4020 S   0  0  0  0  0  0  0  0  0  0  0  0
  191.7090  174.6790  143.9570 C   0  0  0  0  0  0  0  0  0  0  0  0
  192.5420  174.7910  142.8920 N   0  0  0  0  0  0  0  0  0  0  0  0
  190.9950  175.7160  146.1550 C   0  0  1  0  0  3  0  0  0  0  0  0
  188.9630  174.9630  147.1070 C   0  0  0  0  0  2  0  0  0  0  0  0
  189.9870  176.8400  146.1300 C   0  0  0  0  0  2  0  0  0  0  0  0
  194.1420  176.2460  142.1310 O   0  0  0  0  0  0  0  0  0  0  0  0
  193.2940  175.9100  142.9960 C   0  0  0  0  0  0  0  0  0  0  0  0
  187.2660  178.2610  142.4880 C   0  0  0  0  0  2  0  0  0  0  0  0
  187.1810  177.3660  141.3870 O   0  0  0  0  0  0  0  0  0  0  0  0
  185.2030  178.4130  140.4670 O   0  0  0  0  0  1  0  0  0  0  0  0
  186.3310  177.6140  140.3120 C   0  0  0  0  0  0  0  0  0  0  0  0
  186.5880  177.1120  139.1880 O   0  0  0  0  0  0  0  0  0  0  0  0
  1  8  1  0  0  0  0
  4  2  1  1  0  0  0
  4  9  1  0  0  0  0
  5  1  1  6  0  0  0
  5  4  1  0  0  0  0
  6 23  1  6  0  0  0
  6  5  1  0  0  0  0
  6  3  1  0  0  0  0
  7  3  1  6  0  0  0
  7  9  1  0  0  0  0
  7 12  1  0  0  0  0
  8  2  1  0  0  0  0
 10 11  1  0  0  0  0
 11 13  1  0  0  0  0
 12 20  1  6  0  0  0
 12 19  1  0  0  0  0
 13 19  1  1  0  0  0
 14 16  1  1  0  0  0
 14 18  1  0  0  0  0
 15 14  1  0  0  0  0
 16 10  1  0  0  0  0
 17 22  1  0  0  0  0
 17 16  2  0  0  0  0
 18 20  1  6  0  0  0
 18 13  1  0  0  0  0
 21 22  2  0  0  0  0
 22 15  1  0  0  0  0
 24 23  1  0  0  0  0
 26 25  1  0  0  0  0
 26 24  1  0  0  0  0
 27 26  2  0  0  0  0
M  END
>  <MODEL>
1

>  <REMARK>
 VINA RESULT:      -7.2      0.000      0.000
  Name = 
  4 active torsions:
  status: ('A' for Active; 'I' for Inactive)
    1  A    between atoms: C_5  and  O_9
    2  A    between atoms: C_5  and  C_11
    3  A    between atoms: N_8  and  C_18
    4  A    between atoms: O_9  and  C_25
                            x       y       z     vdW  Elec       q    Type
                         _______ _______ _______ _____ _____    ______ ____

>  <TORSDO>
F 4

$$$$
=
 OpenBabel11062422103D

 27 31  0  0  1  0  0  0  0  0999 V2000
  184.8160  178.7360  146.0080 C   0  0  0  0  0  2  0  0  0  0  0  0
  186.0440  177.7810  147.7370 C   0  0  0  0  0  2  0  0  0  0  0  0
  187.7350  177.7740  143.8220 C   0  0  0  0  0  2  0  0  0  0  0  0
  186.5940  177.4400  146.3870 C   0  0  1  0  0  3  0  0  0  0  0  0
  186.1790  178.5300  145.5430 N   0  0  1  0  0  0  0  0  0  0  0  0
  186.2580  178.0510  144.1620 C   0  0  1  0  0  3  0  0  0  0  0  0
  188.3920  176.8090  144.8410 C   0  0  2  0  0  3  0  0  0  0  0  0
  184.7980  178.4870  147.4530 N   0  0  0  0  0  2  0  0  0  0  0  0
  188.0950  177.2670  146.2840 C   0  0  0  0  0  2  0  0  0  0  0  0
  189.9190  172.2940  144.7190 C   0  0  0  0  0  2  0  0  0  0  0  0
  189.6460  173.6020  145.3230 N   0  0  0  0  0  2  0  0  0  0  0  0
  189.8390  176.6950  144.6070 N   0  0  1  0  0  0  0  0  0  0  0  0
  190.7820  174.5130  145.1020 C   0  0  1  0  0  3  0  0  0  0  0  0
  190.6800  173.6360  142.7610 C   0  0  1  0  0  3  0  0  0  0  0  0
  190.8920  173.4890  141.0980 S   0  0  0  0  0  0  0  0  0  0  0  0
  190.1520  172.4580  143.2540 C   0  0  0  0  0  0  0  0  0  0  0  0
  189.9490  171.4790  142.3370 N   0  0  0  0  0  0  0  0  0  0  0  0
  190.9920  174.8190  143.6230 C   0  0  1  0  0  3  0  0  0  0  0  0
  190.4300  175.8700  145.6690 C   0  0  0  0  0  2  0  0  0  0  0  0
  190.0550  175.9710  143.3500 C   0  0  0  0  0  2  0  0  0  0  0  0
  190.2060  171.1880  140.0770 O   0  0  0  0  0  0  0  0  0  0  0  0
  190.3040  171.9070  141.1040 C   0  0  0  0  0  0  0  0  0  0  0  0
  185.6990  179.0830  143.1840 C   0  0  0  0  0  2  0  0  0  0  0  0
  184.6390  178.5280  142.4180 O   0  0  0  0  0  0  0  0  0  0  0  0
  183.6510  178.2560  140.2260 O   0  0  0  0  0  0  0  0  0  0  0  0
  184.7710  178.3060  141.0490 C   0  0  0  0  0  0  0  0  0  0  0  0
  185.9160  178.1490  140.5520 O   0  0  0  0  0  1  0  0  0  0  0  0
  1  8  1  0  0  0  0
  3  6  1  0  0  0  0
  4  9  1  1  0  0  0
  4  2  1  0  0  0  0
  5  1  1  1  0  0  0
  5  4  1  0  0  0  0
  6 23  1  6  0  0  0
  6  5  1  0  0  0  0
  7  3  1  6  0  0  0
  7  9  1  0  0  0  0
  8  2  1  0  0  0  0
 10 11  1  0  0  0  0
 12 20  1  6  0  0  0
 12  7  1  0  0  0  0
 12 19  1  0  0  0  0
 13 11  1  0  0  0  0
 13 19  1  1  0  0  0
 14 15  1  1  0  0  0
 14 16  1  0  0  0  0
 14 18  1  0  0  0  0
 15 22  1  0  0  0  0
 16 10  1  0  0  0  0
 17 16  2  0  0  0  0
 18 20  1  6  0  0  0
 18 13  1  0  0  0  0
 21 22  2  0  0  0  0
 22 17  1  0  0  0  0
 24 23  1  0  0  0  0
 25 26  2  0  0  0  0
 26 24  1  0  0  0  0
 27 26  1  0  0  0  0
M  END
>  <MODEL>
2

>  <REMARK>
 VINA RESULT:      -7.0      2.312      2.836
  Name = 
  4 active torsions:
  status: ('A' for Active; 'I' for Inactive)
    1  A    between atoms: C_5  and  O_9
    2  A    between atoms: C_5  and  C_11
    3  A    between atoms: N_8  and  C_18
    4  A    between atoms: O_9  and  C_25
                            x       y       z     vdW  Elec       q    Type
                         _______ _______ _______ _____ _____    ______ ____

>  <TORSDO>
F 4

$$$$
=
 OpenBabel11062422103D

 27 31  0  0  1  0  0  0  0  0999 V2000
  184.8390  178.4710  141.8540 C   0  0  0  0  0  2  0  0  0  0  0  0
  186.1570  177.4480  140.2340 C   0  0  0  0  0  2  0  0  0  0  0  0
  186.8910  176.4940  144.3260 C   0  0  0  0  0  2  0  0  0  0  0  0
  186.7100  177.2760  141.6150 C   0  0  1  0  0  3  0  0  0  0  0  0
  185.5610  177.3720  142.4780 N   0  0  1  0  0  0  0  0  0  0  0  0
  186.0610  177.6890  143.8170 C   0  0  1  0  0  3  0  0  0  0  0  0
  188.0130  176.1040  143.3320 C   0  0  2  0  0  3  0  0  0  0  0  0
  185.0320  178.3630  140.4050 N   0  0  0  0  0  2  0  0  0  0  0  0
  187.4470  175.9850  141.9010 C   0  0  0  0  0  2  0  0  0  0  0  0
  192.7410  176.2180  142.7290 C   0  0  0  0  0  2  0  0  0  0  0  0
  191.3510  175.9100  142.3790 N   0  0  0  0  0  2  0  0  0  0  0  0
  188.6780  174.8590  143.7450 N   0  0  1  0  0  0  0  0  0  0  0  0
  190.9580  174.6090  142.9470 C   0  0  1  0  0  3  0  0  0  0  0  0
  192.0650  175.4850  145.0140 C   0  0  1  0  0  3  0  0  0  0  0  0
  192.5170  175.6870  146.6220 S   0  0  0  0  0  0  0  0  0  0  0  0
  192.8860  176.2570  144.2140 C   0  0  0  0  0  0  0  0  0  0  0  0
  193.8460  176.9600  144.8670 N   0  0  0  0  0  0  0  0  0  0  0  0
  190.9660  174.6250  144.4720 C   0  0  1  0  0  3  0  0  0  0  0  0
  189.5000  174.3660  142.6310 C   0  0  0  0  0  2  0  0  0  0  0  0
  189.6040  175.1640  144.8400 C   0  0  0  0  0  2  0  0  0  0  0  0
  194.5320  177.2940  147.0290 O   0  0  0  0  0  0  0  0  0  0  0  0
  193.7580  176.7500  146.2000 C   0  0  0  0  0  0  0  0  0  0  0  0
  184.9130  177.9590  144.7880 C   0  0  0  0  0  2  0  0  0  0  0  0
  185.2540  178.9990  145.6930 O   0  0  0  0  0  0  0  0  0  0  0  0
  186.0460  179.7480  147.8540 O   0  0  0  0  0  1  0  0  0  0  0  0
  185.6340  178.7260  147.0050 C   0  0  0  0  0  0  0  0  0  0  0  0
  185.6030  177.5410  147.4270 O   0  0  0  0  0  0  0  0  0  0  0  0
  2  8  1  0  0  0  0
  4  2  1  6  0  0  0
  4  9  1  0  0  0  0
  4  5  1  0  0  0  0
  5  1  1  6  0  0  0
  5  6  1  0  0  0  0
  6  3  1  0  0  0  0
  6 23  1  1  0  0  0
  7  9  1  6  0  0  0
  7 12  1  0  0  0  0
  7  3  1  0  0  0  0
  8  1  1  0  0  0  0
 10 16  1  0  0  0  0
 11 10  1  0  0  0  0
 11 13  1  0  0  0  0
 12 19  1  6  0  0  0
 12 20  1  0  0  0  0
 13 19  1  1  0  0  0
 13 18  1  0  0  0  0
 14 16  1  6  0  0  0
 14 15  1  0  0  0  0
 16 17  2  0  0  0  0
 17 22  1  0  0  0  0
 18 20  1  6  0  0  0
 18 14  1  0  0  0  0
 22 15  1  0  0  0  0
 22 21  2  0  0  0  0
 23 24  1  0  0  0  0
 24 26  1  0  0  0  0
 26 27  2  0  0  0  0
 26 25  1  0  0  0  0
M  END
>  <MODEL>
3

>  <REMARK>
 VINA RESULT:      -6.8      2.882      4.182
  Name = 
  4 active torsions:
  status: ('A' for Active; 'I' for Inactive)
    1  A    between atoms: C_5  and  O_9
    2  A    between atoms: C_5  and  C_11
    3  A    between atoms: N_8  and  C_18
    4  A    between atoms: O_9  and  C_25
                            x       y       z     vdW  Elec       q    Type
                         _______ _______ _______ _____ _____    ______ ____

>  <TORSDO>
F 4

$$$$
=
 OpenBabel11062422103D

 27 31  0  0  1  0  0  0  0  0999 V2000
  187.1950  177.7050  142.6080 C   0  0  0  0  0  2  0  0  0  0  0  0
  189.4870  178.0400  142.4100 C   0  0  0  0  0  2  0  0  0  0  0  0
  187.9530  176.7870  146.1880 C   0  0  0  0  0  2  0  0  0  0  0  0
  189.0490  177.9130  143.8360 C   0  0  1  0  0  3  0  0  0  0  0  0
  187.8460  177.1230  143.7730 N   0  0  1  0  0  0  0  0  0  0  0  0
  187.1190  177.3560  145.0230 C   0  0  1  0  0  3  0  0  0  0  0  0
  189.3930  177.3610  146.2020 C   0  0  2  0  0  3  0  0  0  0  0  0
  188.2430  178.0640  141.6480 N   0  0  0  0  0  2  0  0  0  0  0  0
  190.0240  177.2670  144.7970 C   0  0  0  0  0  2  0  0  0  0  0  0
  191.3190  173.3060  144.5970 C   0  0  0  0  0  2  0  0  0  0  0  0
  190.3360  174.1390  145.2950 N   0  0  0  0  0  2  0  0  0  0  0  0
  190.2250  176.6810  147.2050 N   0  0  1  0  0  0  0  0  0  0  0  0
  190.7570  174.3690  146.6880 C   0  0  1  0  0  3  0  0  0  0  0  0
  192.9870  174.8300  145.6500 C   0  0  1  0  0  3  0  0  0  0  0  0
  194.5630  175.3740  145.4230 S   0  0  0  0  0  0  0  0  0  0  0  0
  192.6490  173.9820  144.6120 C   0  0  0  0  0  0  0  0  0  0  0  0
  193.6230  173.7680  143.6920 N   0  0  0  0  0  0  0  0  0  0  0  0
  192.0520  175.1680  146.7690 C   0  0  1  0  0  3  0  0  0  0  0  0
  189.7610  175.2940  147.3480 C   0  0  0  0  0  2  0  0  0  0  0  0
  191.6000  176.6070  146.7020 C   0  0  0  0  0  2  0  0  0  0  0  0
  195.7760  174.4560  143.3040 O   0  0  0  0  0  0  0  0  0  0  0  0
  194.7320  174.4770  144.0040 C   0  0  0  0  0  0  0  0  0  0  0  0
  185.7510  176.6780  145.0030 C   0  0  0  0  0  2  0  0  0  0  0  0
  185.0710  176.8800  146.2340 O   0  0  0  0  0  0  0  0  0  0  0  0
  183.7420  178.8360  145.7180 O   0  0  0  0  0  0  0  0  0  0  0  0
  184.5650  178.1290  146.5880 C   0  0  0  0  0  0  0  0  0  0  0  0
  184.8550  178.6220  147.7090 O   0  0  0  0  0  1  0  0  0  0  0  0
  3  7  1  0  0  0  0
  4  2  1  6  0  0  0
  4  9  1  0  0  0  0
  5  1  1  6  0  0  0
  5  4  1  0  0  0  0
  5  6  1  0  0  0  0
  6 23  1  6  0  0  0
  6  3  1  0  0  0  0
  7  9  1  6  0  0  0
  7 12  1  0  0  0  0
  8  2  1  0  0  0  0
  8  1  1  0  0  0  0
 10 16  1  0  0  0  0
 10 11  1  0  0  0  0
 11 13  1  0  0  0  0
 12 20  1  6  0  0  0
 12 19  1  0  0  0  0
 13 18  1  0  0  0  0
 13 19  1  1  0  0  0
 14 16  1  1  0  0  0
 14 18  1  0  0  0  0
 15 14  1  0  0  0  0
 17 22  1  0  0  0  0
 17 16  2  0  0  0  0
 18 20  1  6  0  0  0
 21 22  2  0  0  0  0
 22 15  1  0  0  0  0
 23 24  1  0  0  0  0
 24 26  1  0  0  0  0
 25 26  2  0  0  0  0
 26 27  1  0  0  0  0
M  END
>  <MODEL>
4

>  <REMARK>
 VINA RESULT:      -6.5      2.661      3.620
  Name = 
  4 active torsions:
  status: ('A' for Active; 'I' for Inactive)
    1  A    between atoms: C_5  and  O_9
    2  A    between atoms: C_5  and  C_11
    3  A    between atoms: N_8  and  C_18
    4  A    between atoms: O_9  and  C_25
                            x       y       z     vdW  Elec       q    Type
                         _______ _______ _______ _____ _____    ______ ____

>  <TORSDO>
F 4

$$$$
=
 OpenBabel11062422103D

 27 31  0  0  1  0  0  0  0  0999 V2000
  185.1530  178.9680  145.9300 C   0  0  0  0  0  2  0  0  0  0  0  0
  186.8310  177.7510  146.9840 C   0  0  0  0  0  2  0  0  0  0  0  0
  186.0060  176.9120  142.8840 C   0  0  0  0  0  2  0  0  0  0  0  0
  186.4330  177.1560  145.6690 C   0  0  1  0  0  3  0  0  0  0  0  0
  185.9220  178.2690  144.9110 N   0  0  1  0  0  0  0  0  0  0  0  0
  185.0960  177.7100  143.8390 C   0  0  1  0  0  3  0  0  0  0  0  0
  186.8370  175.8420  143.6360 C   0  0  2  0  0  3  0  0  0  0  0  0
  185.8730  178.8300  147.2000 N   0  0  0  0  0  2  0  0  0  0  0  0
  187.5180  176.4620  144.8740 C   0  0  0  0  0  2  0  0  0  0  0  0
  190.9920  178.1760  143.5010 C   0  0  0  0  0  2  0  0  0  0  0  0
  189.6490  177.8010  143.0480 N   0  0  0  0  0  2  0  0  0  0  0  0
  187.8230  175.2140  142.7460 N   0  0  1  0  0  0  0  0  0  0  0  0
  189.7170  176.6200  142.1710 C   0  0  1  0  0  3  0  0  0  0  0  0
  191.2560  175.7350  143.9360 C   0  0  1  0  0  3  0  0  0  0  0  0
  192.1650  174.6830  144.8830 S   0  0  0  0  0  0  0  0  0  0  0  0
  191.6060  177.0370  144.2430 C   0  0  0  0  0  0  0  0  0  0  0  0
  192.5760  177.1740  145.1820 N   0  0  0  0  0  0  0  0  0  0  0  0
  190.2230  175.3860  142.9100 C   0  0  1  0  0  3  0  0  0  0  0  0
  188.3110  176.2180  141.7900 C   0  0  0  0  0  2  0  0  0  0  0  0
  188.9830  174.8040  143.5440 C   0  0  0  0  0  2  0  0  0  0  0  0
  193.8590  175.8170  146.5120 O   0  0  0  0  0  0  0  0  0  0  0  0
  192.9730  175.9620  145.6310 C   0  0  0  0  0  0  0  0  0  0  0  0
  184.3840  178.8110  143.0560 C   0  0  0  0  0  2  0  0  0  0  0  0
  183.2590  178.2890  142.3630 O   0  0  0  0  0  0  0  0  0  0  0  0
  184.3090  178.6370  140.2110 O   0  0  0  0  0  0  0  0  0  0  0  0
  183.1960  178.2920  140.9720 C   0  0  0  0  0  0  0  0  0  0  0  0
  182.1220  177.9800  140.3970 O   0  0  0  0  0  1  0  0  0  0  0  0
  1  8  1  0  0  0  0
  2  8  1  0  0  0  0
  3  6  1  0  0  0  0
  4  9  1  6  0  0  0
  4  2  1  0  0  0  0
  5  4  1  0  0  0  0
  5  1  1  1  0  0  0
  6 23  1  6  0  0  0
  6  5  1  0  0  0  0
  7  3  1  6  0  0  0
  7  9  1  0  0  0  0
 10 16  1  0  0  0  0
 11 10  1  0  0  0  0
 12 19  1  6  0  0  0
 12 20  1  0  0  0  0
 12  7  1  0  0  0  0
 13 19  1  1  0  0  0
 13 18  1  0  0  0  0
 13 11  1  0  0  0  0
 14 16  1  6  0  0  0
 14 15  1  0  0  0  0
 15 22  1  0  0  0  0
 16 17  2  0  0  0  0
 17 22  1  0  0  0  0
 18 20  1  1  0  0  0
 18 14  1  0  0  0  0
 22 21  2  0  0  0  0
 24 23  1  0  0  0  0
 25 26  2  0  0  0  0
 26 24  1  0  0  0  0
 27 26  1  0  0  0  0
M  END
>  <MODEL>
5

>  <REMARK>
 VINA RESULT:      -6.5      2.332      3.281
  Name = 
  4 active torsions:
  status: ('A' for Active; 'I' for Inactive)
    1  A    between atoms: C_5  and  O_9
    2  A    between atoms: C_5  and  C_11
    3  A    between atoms: N_8  and  C_18
    4  A    between atoms: O_9  and  C_25
                            x       y       z     vdW  Elec       q    Type
                         _______ _______ _______ _____ _____    ______ ____

>  <TORSDO>
F 4

$$$$
=
 OpenBabel11062422103D

 27 31  0  0  1  0  0  0  0  0999 V2000
  185.2890  177.7040  145.1530 C   0  0  0  0  0  2  0  0  0  0  0  0
  185.9820  177.1270  147.2960 C   0  0  0  0  0  2  0  0  0  0  0  0
  188.9570  177.6010  144.2780 C   0  0  0  0  0  2  0  0  0  0  0  0
  187.0670  176.9560  146.2790 C   0  0  1  0  0  3  0  0  0  0  0  0
  186.7310  177.8890  145.2340 N   0  0  1  0  0  0  0  0  0  0  0  0
  187.4430  177.4530  144.0310 C   0  0  1  0  0  3  0  0  0  0  0  0
  189.4100  176.8560  145.5590 C   0  0  2  0  0  3  0  0  0  0  0  0
  184.7960  177.4580  146.5110 N   0  0  0  0  0  2  0  0  0  0  0  0
  188.4850  177.2100  146.7420 C   0  0  0  0  0  2  0  0  0  0  0  0
  192.3550  173.2430  144.5550 C   0  0  0  0  0  2  0  0  0  0  0  0
  191.5000  174.0820  145.4010 N   0  0  0  0  0  2  0  0  0  0  0  0
  190.8150  177.1510  145.8750 N   0  0  1  0  0  0  0  0  0  0  0  0
  192.2720  175.2110  145.9470 C   0  0  1  0  0  3  0  0  0  0  0  0
  193.1140  175.4170  143.5990 C   0  0  1  0  0  3  0  0  0  0  0  0
  193.8060  176.0410  142.1980 S   0  0  0  0  0  0  0  0  0  0  0  0
  192.9060  174.0610  143.4350 C   0  0  0  0  0  0  0  0  0  0  0  0
  193.3060  173.5490  142.2430 N   0  0  0  0  0  0  0  0  0  0  0  0
  192.7590  176.1540  144.8530 C   0  0  1  0  0  3  0  0  0  0  0  0
  191.3400  176.0910  146.7470 C   0  0  0  0  0  2  0  0  0  0  0  0
  191.5970  177.0940  144.6360 C   0  0  0  0  0  2  0  0  0  0  0  0
  194.2480  174.3100  140.2960 O   0  0  0  0  0  0  0  0  0  0  0  0
  193.8140  174.5250  141.4570 C   0  0  0  0  0  0  0  0  0  0  0  0
  187.0440  178.2900  142.8170 C   0  0  0  0  0  2  0  0  0  0  0  0
  187.8290  177.9410  141.6860 O   0  0  0  0  0  0  0  0  0  0  0  0
  186.4950  177.3420  139.7580 O   0  0  0  0  0  0  0  0  0  0  0  0
  187.3920  176.9940  140.7620 C   0  0  0  0  0  0  0  0  0  0  0  0
  187.8160  175.8120  140.8350 O   0  0  0  0  0  1  0  0  0  0  0  0
  1  8  1  0  0  0  0
  4  9  1  1  0  0  0
  4  2  1  0  0  0  0
  5  1  1  6  0  0  0
  5  4  1  0  0  0  0
  6 23  1  6  0  0  0
  6  3  1  0  0  0  0
  6  5  1  0  0  0  0
  7  3  1  6  0  0  0
  7 12  1  0  0  0  0
  7  9  1  0  0  0  0
  8  2  1  0  0  0  0
 10 11  1  0  0  0  0
 11 13  1  0  0  0  0
 12 20  1  6  0  0  0
 12 19  1  0  0  0  0
 13 19  1  1  0  0  0
 14 15  1  1  0  0  0
 14 18  1  0  0  0  0
 16 14  1  0  0  0  0
 16 10  1  0  0  0  0
 17 16  2  0  0  0  0
 18 20  1  6  0  0  0
 18 13  1  0  0  0  0
 21 22  2  0  0  0  0
 22 15  1  0  0  0  0
 22 17  1  0  0  0  0
 24 23  1  0  0  0  0
 25 26  2  0  0  0  0
 26 27  1  0  0  0  0
 26 24  1  0  0  0  0
M  END
>  <MODEL>
6

>  <REMARK>
 VINA RESULT:      -6.4      1.552      1.936
  Name = 
  4 active torsions:
  status: ('A' for Active; 'I' for Inactive)
    1  A    between atoms: C_5  and  O_9
    2  A    between atoms: C_5  and  C_11
    3  A    between atoms: N_8  and  C_18
    4  A    between atoms: O_9  and  C_25
                            x       y       z     vdW  Elec       q    Type
                         _______ _______ _______ _____ _____    ______ ____

>  <TORSDO>
F 4

$$$$
=
 OpenBabel11062422103D

 27 31  0  0  1  0  0  0  0  0999 V2000
  184.6120  178.1240  146.0750 C   0  0  0  0  0  2  0  0  0  0  0  0
  186.5180  178.0730  147.4050 C   0  0  0  0  0  2  0  0  0  0  0  0
  186.9840  177.5540  143.1970 C   0  0  0  0  0  2  0  0  0  0  0  0
  186.7760  177.5740  146.0170 C   0  0  1  0  0  3  0  0  0  0  0  0
  185.7780  178.2260  145.2100 N   0  0  1  0  0  0  0  0  0  0  0  0
  185.6570  177.4490  143.9740 C   0  0  1  0  0  3  0  0  0  0  0  0
  188.1970  177.1340  144.0660 C   0  0  2  0  0  3  0  0  0  0  0  0
  185.0730  178.2690  147.4590 N   0  0  0  0  0  2  0  0  0  0  0  0
  188.1470  177.8420  145.4370 C   0  0  0  0  0  2  0  0  0  0  0  0
  191.8760  174.6920  145.8660 C   0  0  0  0  0  2  0  0  0  0  0  0
  190.9900  175.8480  145.6880 N   0  0  0  0  0  2  0  0  0  0  0  0
  189.4650  177.4060  143.3730 N   0  0  1  0  0  0  0  0  0  0  0  0
  191.4520  176.6770  144.5620 C   0  0  1  0  0  3  0  0  0  0  0  0
  191.6780  174.4780  143.3890 C   0  0  2  0  0  3  0  0  0  0  0  0
  191.8260  173.3200  142.1780 S   0  0  0  0  0  0  0  0  0  0  0  0
  191.8890  173.8770  144.6160 C   0  0  0  0  0  0  0  0  0  0  0  0
  192.1770  172.5510  144.5750 N   0  0  0  0  0  0  0  0  0  0  0  0
  191.3700  175.9350  143.2330 C   0  0  1  0  0  3  0  0  0  0  0  0
  190.4720  177.8100  144.3630 C   0  0  0  0  0  2  0  0  0  0  0  0
  189.9490  176.1580  142.7750 C   0  0  0  0  0  2  0  0  0  0  0  0
  192.4000  170.9080  142.9910 O   0  0  0  0  0  0  0  0  0  0  0  0
  192.1690  172.1060  143.2980 C   0  0  0  0  0  0  0  0  0  0  0  0
  184.5180  177.9710  143.1010 C   0  0  0  0  0  2  0  0  0  0  0  0
  185.0270  178.6360  141.9530 O   0  0  0  0  0  0  0  0  0  0  0  0
  185.5800  177.5650  139.8550 O   0  0  0  0  0  0  0  0  0  0  0  0
  184.6730  178.2380  140.6660 C   0  0  0  0  0  0  0  0  0  0  0  0
  183.5190  178.4900  140.2330 O   0  0  0  0  0  1  0  0  0  0  0  0
  1  8  1  0  0  0  0
  2  8  1  0  0  0  0
  3  6  1  0  0  0  0
  4  9  1  6  0  0  0
  4  2  1  0  0  0  0
  5  4  1  0  0  0  0
  5  1  1  1  0  0  0
  6 23  1  6  0  0  0
  6  5  1  0  0  0  0
  7  3  1  6  0  0  0
  7  9  1  0  0  0  0
 11 10  1  0  0  0  0
 12 20  1  1  0  0  0
 12  7  1  0  0  0  0
 12 19  1  0  0  0  0
 13 19  1  6  0  0  0
 13 11  1  0  0  0  0
 14 15  1  1  0  0  0
 14 16  1  0  0  0  0
 15 22  1  0  0  0  0
 16 10  1  0  0  0  0
 17 16  2  0  0  0  0
 18 20  1  1  0  0  0
 18 14  1  0  0  0  0
 18 13  1  0  0  0  0
 21 22  2  0  0  0  0
 22 17  1  0  0  0  0
 24 23  1  0  0  0  0
 25 26  2  0  0  0  0
 26 24  1  0  0  0  0
 27 26  1  0  0  0  0
M  END
>  <MODEL>
7

>  <REMARK>
 VINA RESULT:      -6.4      2.158      2.856
  Name = 
  4 active torsions:
  status: ('A' for Active; 'I' for Inactive)
    1  A    between atoms: C_5  and  O_9
    2  A    between atoms: C_5  and  C_11
    3  A    between atoms: N_8  and  C_18
    4  A    between atoms: O_9  and  C_25
                            x       y       z     vdW  Elec       q    Type
                         _______ _______ _______ _____ _____    ______ ____

>  <TORSDO>
F 4

$$$$
=
 OpenBabel11062422103D

 27 31  0  0  1  0  0  0  0  0999 V2000
  185.6140  177.3410  142.8350 C   0  0  0  0  0  2  0  0  0  0  0  0
  187.4880  177.9070  141.5790 C   0  0  0  0  0  2  0  0  0  0  0  0
  188.0440  176.9070  145.6880 C   0  0  0  0  0  2  0  0  0  0  0  0
  187.7690  177.8860  143.0490 C   0  0  1  0  0  3  0  0  0  0  0  0
  186.8020  176.9650  143.5880 N   0  0  1  0  0  0  0  0  0  0  0  0
  186.6980  177.2490  145.0210 C   0  0  1  0  0  3  0  0  0  0  0  0
  189.2290  177.6360  145.0050 C   0  0  2  0  0  3  0  0  0  0  0  0
  186.0450  177.7080  141.4830 N   0  0  0  0  0  2  0  0  0  0  0  0
  189.1590  177.4610  143.4740 C   0  0  0  0  0  2  0  0  0  0  0  0
  190.5460  173.4060  143.2430 C   0  0  0  0  0  2  0  0  0  0  0  0
  189.9510  174.3280  144.2150 N   0  0  0  0  0  2  0  0  0  0  0  0
  190.5170  177.1660  145.5360 N   0  0  1  0  0  0  0  0  0  0  0  0
  190.9760  174.8120  145.1550 C   0  0  1  0  0  3  0  0  0  0  0  0
  192.3370  175.1330  143.0790 C   0  0  1  0  0  3  0  0  0  0  0  0
  193.5240  175.6660  142.0130 S   0  0  0  0  0  0  0  0  0  0  0  0
  191.6260  174.1060  142.4880 C   0  0  0  0  0  0  0  0  0  0  0  0
  192.0360  173.7540  141.2420 N   0  0  0  0  0  0  0  0  0  0  0  0
  192.0460  175.6440  144.4560 C   0  0  1  0  0  3  0  0  0  0  0  0
  190.3400  175.8160  146.0890 C   0  0  0  0  0  2  0  0  0  0  0  0
  191.4640  177.0360  144.4230 C   0  0  0  0  0  2  0  0  0  0  0  0
  193.6250  174.4120  139.7260 O   0  0  0  0  0  0  0  0  0  0  0  0
  193.0680  174.5330  140.8470 C   0  0  0  0  0  0  0  0  0  0  0  0
  185.5880  176.4250  145.6700 C   0  0  0  0  0  2  0  0  0  0  0  0
  184.9220  177.1790  146.6730 O   0  0  0  0  0  0  0  0  0  0  0  0
  185.5590  179.4160  147.3420 O   0  0  0  0  0  1  0  0  0  0  0  0
  184.7800  178.5610  146.5700 C   0  0  0  0  0  0  0  0  0  0  0  0
  183.9380  179.0410  145.7670 O   0  0  0  0  0  0  0  0  0  0  0  0
  4  2  1  6  0  0  0
  4  9  1  0  0  0  0
  4  5  1  0  0  0  0
  5  1  1  6  0  0  0
  5  6  1  0  0  0  0
  6 23  1  1  0  0  0
  6  3  1  0  0  0  0
  7  9  1  6  0  0  0
  7 12  1  0  0  0  0
  7  3  1  0  0  0  0
  8  2  1  0  0  0  0
  8  1  1  0  0  0  0
 10 11  1  0  0  0  0
 11 13  1  0  0  0  0
 12 20  1  6  0  0  0
 12 19  1  0  0  0  0
 13 19  1  1  0  0  0
 14 15  1  1  0  0  0
 14 18  1  0  0  0  0
 16 14  1  0  0  0  0
 16 10  1  0  0  0  0
 17 16  2  0  0  0  0
 18 20  1  6  0  0  0
 18 13  1  0  0  0  0
 21 22  2  0  0  0  0
 22 17  1  0  0  0  0
 22 15  1  0  0  0  0
 23 24  1  0  0  0  0
 26 24  1  0  0  0  0
 26 25  1  0  0  0  0
 27 26  2  0  0  0  0
M  END
>  <MODEL>
8

>  <REMARK>
 VINA RESULT:      -6.3      2.656      3.579
  Name = 
  4 active torsions:
  status: ('A' for Active; 'I' for Inactive)
    1  A    between atoms: C_5  and  O_9
    2  A    between atoms: C_5  and  C_11
    3  A    between atoms: N_8  and  C_18
    4  A    between atoms: O_9  and  C_25
                            x       y       z     vdW  Elec       q    Type
                         _______ _______ _______ _____ _____    ______ ____

>  <TORSDO>
F 4

$$$$
=
 OpenBabel11062422103D

 27 31  0  0  1  0  0  0  0  0999 V2000
  193.0210  171.4160  144.2470 C   0  0  0  0  0  2  0  0  0  0  0  0
  194.8510  172.8500  144.2070 C   0  0  0  0  0  2  0  0  0  0  0  0
  190.9580  174.5600  144.5460 C   0  0  0  0  0  2  0  0  0  0  0  0
  193.5530  173.5720  144.0140 C   0  0  1  0  0  3  0  0  0  0  0  0
  192.5770  172.7370  144.6650 N   0  0  1  0  0  0  0  0  0  0  0  0
  191.2690  173.1110  144.1220 C   0  0  1  0  0  3  0  0  0  0  0  0
  192.0890  175.5370  144.1400 C   0  0  2  0  0  3  0  0  0  0  0  0
  194.4860  171.4370  144.1930 N   0  0  0  0  0  2  0  0  0  0  0  0
  193.4630  174.9780  144.5680 C   0  0  0  0  0  2  0  0  0  0  0  0
  187.9120  177.4320  142.8390 C   0  0  0  0  0  2  0  0  0  0  0  0
  189.3570  177.1950  142.7700 N   0  0  0  0  0  2  0  0  0  0  0  0
  191.8620  176.8750  144.7050 N   0  0  1  0  0  0  0  0  0  0  0  0
  190.0720  178.1340  143.6520 C   0  0  1  0  0  3  0  0  0  0  0  0
  188.2960  177.5100  145.3010 C   0  0  1  0  0  3  0  0  0  0  0  0
  187.4620  177.2920  146.7460 S   0  0  0  0  0  0  0  0  0  0  0  0
  187.4430  177.2540  144.2440 C   0  0  0  0  0  0  0  0  0  0  0  0
  186.1730  176.9180  144.5860 N   0  0  0  0  0  0  0  0  0  0  0  0
  189.7260  177.9150  145.1200 C   0  0  1  0  0  3  0  0  0  0  0  0
  191.5470  177.8060  143.6120 C   0  0  0  0  0  2  0  0  0  0  0  0
  190.6740  176.8270  145.5630 C   0  0  0  0  0  2  0  0  0  0  0  0
  184.9570  176.6000  146.5040 O   0  0  0  0  0  0  0  0  0  0  0  0
  186.0390  176.8910  145.9320 C   0  0  0  0  0  0  0  0  0  0  0  0
  190.1700  172.1850  144.6380 C   0  0  0  0  0  2  0  0  0  0  0  0
  189.1290  172.0570  143.6790 O   0  0  0  0  0  0  0  0  0  0  0  0
  190.1560  170.8390  141.8570 O   0  0  0  0  0  1  0  0  0  0  0  0
  189.4050  171.9140  142.3210 C   0  0  0  0  0  0  0  0  0  0  0  0
  188.9690  172.7670  141.5060 O   0  0  0  0  0  0  0  0  0  0  0  0
  4  2  1  1  0  0  0
  4  9  1  0  0  0  0
  4  5  1  0  0  0  0
  5  1  1  6  0  0  0
  6  3  1  0  0  0  0
  6 23  1  1  0  0  0
  6  5  1  0  0  0  0
  7  3  1  1  0  0  0
  7  9  1  0  0  0  0
  7 12  1  0  0  0  0
  8  2  1  0  0  0  0
  8  1  1  0  0  0  0
 10 16  1  0  0  0  0
 11 10  1  0  0  0  0
 11 13  1  0  0  0  0
 12 19  1  6  0  0  0
 12 20  1  0  0  0  0
 13 19  1  1  0  0  0
 13 18  1  0  0  0  0
 14 16  1  6  0  0  0
 14 15  1  0  0  0  0
 16 17  2  0  0  0  0
 17 22  1  0  0  0  0
 18 14  1  0  0  0  0
 18 20  1  6  0  0  0
 22 21  2  0  0  0  0
 22 15  1  0  0  0  0
 24 23  1  0  0  0  0
 25 26  1  0  0  0  0
 26 24  1  0  0  0  0
 27 26  2  0  0  0  0
M  END
>  <MODEL>
9

>  <REMARK>
 VINA RESULT:      -6.1      3.259      7.192
  Name = 
  4 active torsions:
  status: ('A' for Active; 'I' for Inactive)
    1  A    between atoms: C_5  and  O_9
    2  A    between atoms: C_5  and  C_11
    3  A    between atoms: N_8  and  C_18
    4  A    between atoms: O_9  and  C_25
                            x       y       z     vdW  Elec       q    Type
                         _______ _______ _______ _____ _____    ______ ____

>  <TORSDO>
F 4

$$$$
