=
 OpenBabel11072409223D

 58 62  0  0  1  0  0  0  0  0999 V2000
  191.8910  170.3800  139.3180 O   0  0  0  0  0  0  0  0  0  0  0  0
  192.2100  171.5040  136.0690 C   0  0  0  0  0  2  0  0  0  0  0  0
  196.2280  174.5810  137.6520 C   0  0  2  0  0  3  0  0  0  0  0  0
  195.0500  175.1950  139.7710 C   0  0  0  0  0  3  0  0  0  0  0  0
  190.3170  171.9210  140.9790 O   0  0  0  0  0  0  0  0  0  0  0  0
  192.3670  175.2470  142.9910 C   0  0  0  0  0  2  0  0  0  0  0  0
  196.1340  175.0160  141.9390 C   0  0  0  0  0  0  0  0  0  0  0  0
  196.1260  175.1850  143.3270 O   0  0  0  0  0  0  0  0  0  0  0  0
  191.4770  172.2440  140.7670 C   0  0  0  0  0  0  0  0  0  0  0  0
  197.2790  174.5070  141.3170 C   0  0  0  0  0  3  0  0  0  0  0  0
  193.6530  171.1370  136.4100 C   0  0  0  0  0  2  0  0  0  0  0  0
  195.7200  172.1240  137.3440 C   0  0  0  0  0  2  0  0  0  0  0  0
  191.2840  171.5890  137.3040 C   0  0  1  0  0  3  0  0  0  0  0  0
  192.8400  174.8710  144.3910 C   0  0  1  0  0  3  0  0  0  0  0  0
  189.6850  170.0620  138.4380 C   0  0  0  0  0  1  0  0  0  0  0  0
  196.1940  174.6840  139.1480 C   0  0  0  0  0  0  0  0  0  0  0  0
  195.0670  175.7070  143.9680 O   0  0  0  0  0  0  0  0  0  0  0  0
  191.1530  170.2810  138.1060 C   0  0  2  0  0  0  0  0  0  0  0  0
  192.7970  172.1130  142.8380 C   0  0  0  0  0  1  0  0  0  0  0  0
  192.2440  173.0530  141.7760 C   0  0  2  0  0  3  0  0  0  0  0  0
  191.8120  172.4940  138.3280 C   0  0  0  0  0  0  0  0  0  0  0  0
  195.0190  175.3600  141.1590 C   0  0  0  0  0  3  0  0  0  0  0  0
  191.4260  174.1880  142.4260 C   0  0  2  0  0  3  0  0  0  0  0  0
  197.3140  174.3470  139.9260 C   0  0  0  0  0  3  0  0  0  0  0  0
  192.1940  171.7450  139.5440 C   0  0  2  0  0  3  0  0  0  0  0  0
  191.9340  173.7020  138.1890 O   0  0  0  0  0  0  0  0  0  0  0  0
  196.7530  173.2250  137.1750 C   0  0  0  0  0  2  0  0  0  0  0  0
  191.6070  169.1740  137.3780 O   0  0  0  0  0  1  0  0  0  0  0  0
  194.4990  172.3890  136.4830 C   0  0  0  0  0  2  0  0  0  0  0  0
  194.3450  174.6050  144.4370 C   0  0  0  0  0  2  0  0  0  0  0  0
  192.3690  175.8620  145.4540 C   0  0  0  0  0  2  0  0  0  0  0  0
  191.9480  175.1850  146.7500 C   0  0  0  0  0  1  0  0  0  0  0  0
  190.5630  174.8020  141.4870 O   0  0  0  0  0  0  0  0  0  0  0  0
  188.2500  174.5000  141.3570 O   0  0  0  0  0  1  0  0  0  0  0  0
  189.3040  175.0440  142.1020 C   0  0  2  0  0  3  0  0  0  0  0  0
  189.0730  176.5270  142.4090 C   0  0  0  0  0  2  0  0  0  0  0  0
  184.7360  178.9430  144.6480 C   0  0  0  0  0  2  0  0  0  0  0  0
  188.2800  176.7220  143.6630 C   0  0  2  0  0  3  0  0  0  0  0  0
  188.5970  176.1720  144.7920 N   0  0  0  0  0  2  0  0  0  0  0  0
  187.5660  176.1520  146.9200 O   0  0  0  0  0  0  0  0  0  0  0  0
  186.6490  178.6530  142.9490 C   0  0  0  0  0  2  0  0  0  0  0  0
  185.2550  177.7140  145.4250 C   0  0  2  0  0  3  0  0  0  0  0  0
  185.1470  178.9310  143.1550 C   0  0  0  0  0  2  0  0  0  0  0  0
  187.6060  176.5730  145.7320 C   0  0  0  0  0  0  0  0  0  0  0  0
  184.9630  177.9060  146.9030 C   0  0  0  0  0  1  0  0  0  0  0  0
  186.7530  177.6510  145.1760 C   0  0  1  0  0  3  0  0  0  0  0  0
  186.9420  177.3790  143.7090 C   0  0  2  0  0  3  0  0  0  0  0  0
  197.0630  175.7160  137.0700 C   0  0  0  0  0  2  0  0  0  0  0  0
  196.9920  175.7390  135.5480 C   0  0  0  0  0  2  0  0  0  0  0  0
  195.8860  176.6310  135.0620 C   0  0  0  0  0  0  0  0  0  0  0  0
  196.0350  177.8420  135.1030 O   0  0  0  0  0  0  0  0  0  0  0  0
  194.5790  176.0830  134.5430 C   0  0  0  0  0  2  0  0  0  0  0  0
  192.7170  174.9430  135.4550 F   0  0  0  0  0  0  0  0  0  0  0  0
  193.8290  176.3470  136.8040 F   0  0  0  0  0  0  0  0  0  0  0  0
  193.3850  176.1540  135.5050 C   0  0  0  0  0  0  0  0  0  0  0  0
  191.2180  176.9780  134.8730 O   0  0  0  0  0  0  0  0  0  0  0  0
  192.4300  177.2400  135.0970 C   0  0  0  0  0  0  0  0  0  0  0  0
  192.8880  178.5440  134.9390 O   0  0  0  0  0  1  0  0  0  0  0  0
  1 25  1  0  0  0  0
  2 11  1  0  0  0  0
  3 48  1  6  0  0  0
  3 16  1  0  0  0  0
  4 22  1  0  0  0  0
  6 14  1  0  0  0  0
  7  8  1  0  0  0  0
  8 17  1  0  0  0  0
  9  5  2  0  0  0  0
  9 20  1  0  0  0  0
 10  7  1  0  0  0  0
 11 29  1  0  0  0  0
 13  2  1  6  0  0  0
 13 18  1  0  0  0  0
 13 21  1  0  0  0  0
 14 30  1  0  0  0  0
 14 31  1  1  0  0  0
 16  4  2  0  0  0  0
 16 24  1  0  0  0  0
 17 30  1  0  0  0  0
 18 15  1  1  0  0  0
 18  1  1  0  0  0  0
 20 23  1  0  0  0  0
 20 19  1  1  0  0  0
 22  7  2  0  0  0  0
 23 33  1  6  0  0  0
 23  6  1  0  0  0  0
 24 10  2  0  0  0  0
 25 21  1  6  0  0  0
 25  9  1  0  0  0  0
 26 21  2  0  0  0  0
 27 12  1  0  0  0  0
 27  3  1  0  0  0  0
 28 18  1  0  0  0  0
 29 12  1  0  0  0  0
 31 32  1  0  0  0  0
 33 35  1  0  0  0  0
 35 34  1  6  0  0  0
 35 36  1  0  0  0  0
 37 42  1  0  0  0  0
 38 36  1  6  0  0  0
 38 47  1  0  0  0  0
 38 39  1  0  0  0  0
 39 44  1  0  0  0  0
 41 43  1  0  0  0  0
 42 45  1  1  0  0  0
 43 37  1  0  0  0  0
 44 40  2  0  0  0  0
 46 42  1  0  0  0  0
 46 44  1  1  0  0  0
 47 41  1  6  0  0  0
 47 46  1  0  0  0  0
 49 48  1  0  0  0  0
 50 51  2  0  0  0  0
 50 49  1  0  0  0  0
 52 50  1  0  0  0  0
 52 55  1  0  0  0  0
 53 55  1  0  0  0  0
 55 54  1  0  0  0  0
 56 57  2  0  0  0  0
 57 55  1  0  0  0  0
 58 57  1  0  0  0  0
M  END
>  <MODEL>
1

>  <REMARK>
 VINA RESULT:      -8.0      0.000      0.000
  Name = 
  11 active torsions:
  status: ('A' for Active; 'I' for Inactive)
    1  A    between atoms: C_3  and  C_46
    2  A    between atoms: C_6  and  C_8
    3  A    between atoms: C_6  and  C_46
    4  A    between atoms: C_8  and  C_17
    5  A    between atoms: C_17  and  C_38
    6  A    between atoms: C_18  and  C_57
    7  A    between atoms: C_20  and  C_45
    8  A    between atoms: C_30  and  O_33
    9  A    between atoms: C_30  and  C_57
   10  A    between atoms: O_33  and  C_41
   11  A    between atoms: C_34  and  C_38
                            x       y       z     vdW  Elec       q    Type
                         _______ _______ _______ _____ _____    ______ ____

>  <TORSDO>
F 11

$$$$
=
 OpenBabel11072409223D

 58 62  0  0  1  0  0  0  0  0999 V2000
  190.8830  171.2610  140.1690 O   0  0  0  0  0  0  0  0  0  0  0  0
  191.9790  172.2330  137.0420 C   0  0  0  0  0  2  0  0  0  0  0  0
  196.6650  173.4670  139.1950 C   0  0  2  0  0  3  0  0  0  0  0  0
  195.5830  174.4520  141.2230 C   0  0  0  0  0  3  0  0  0  0  0  0
  189.8490  173.2630  141.7610 O   0  0  0  0  0  0  0  0  0  0  0  0
  192.7810  175.4860  144.1650 C   0  0  0  0  0  2  0  0  0  0  0  0
  196.2600  173.8220  143.4710 C   0  0  0  0  0  0  0  0  0  0  0  0
  196.1610  173.9540  144.8600 O   0  0  0  0  0  0  0  0  0  0  0  0
  191.0600  173.1120  141.6840 C   0  0  0  0  0  0  0  0  0  0  0  0
  197.1830  172.9190  142.9330 C   0  0  0  0  0  3  0  0  0  0  0  0
  193.1200  171.3260  137.4990 C   0  0  0  0  0  2  0  0  0  0  0  0
  195.2870  171.4090  138.6880 C   0  0  0  0  0  2  0  0  0  0  0  0
  191.0240  172.6500  138.1840 C   0  0  1  0  0  3  0  0  0  0  0  0
  192.9100  174.9290  145.5780 C   0  0  1  0  0  3  0  0  0  0  0  0
  188.8420  171.8460  139.0610 C   0  0  0  0  0  1  0  0  0  0  0  0
  196.5040  173.5460  140.6840 C   0  0  0  0  0  0  0  0  0  0  0  0
  195.3200  174.8370  145.4260 O   0  0  0  0  0  0  0  0  0  0  0  0
  190.3080  171.4810  138.8870 C   0  0  2  0  0  0  0  0  0  0  0  0
  191.9830  172.4360  143.8610 C   0  0  0  0  0  1  0  0  0  0  0  0
  191.9590  173.5380  142.8100 C   0  0  2  0  0  3  0  0  0  0  0  0
  191.7400  173.2570  139.3090 C   0  0  0  0  0  0  0  0  0  0  0  0
  195.4610  174.5890  142.6100 C   0  0  0  0  0  3  0  0  0  0  0  0
  191.5760  174.8890  143.4460 C   0  0  2  0  0  3  0  0  0  0  0  0
  197.3110  172.7840  141.5450 C   0  0  0  0  0  3  0  0  0  0  0  0
  191.6620  172.3960  140.5070 C   0  0  2  0  0  3  0  0  0  0  0  0
  192.3340  174.3240  139.2560 O   0  0  0  0  0  0  0  0  0  0  0  0
  196.6760  172.0230  138.6890 C   0  0  0  0  0  2  0  0  0  0  0  0
  190.3790  170.2990  138.1400 O   0  0  0  0  0  1  0  0  0  0  0  0
  194.3690  172.1470  137.7300 C   0  0  0  0  0  2  0  0  0  0  0  0
  194.1800  174.0950  145.7530 C   0  0  0  0  0  2  0  0  0  0  0  0
  192.7410  176.0040  146.6500 C   0  0  0  0  0  2  0  0  0  0  0  0
  191.2830  176.3390  146.9280 C   0  0  0  0  0  1  0  0  0  0  0  0
  191.1280  175.8090  142.4670 O   0  0  0  0  0  0  0  0  0  0  0  0
  190.5540  177.7440  143.6440 O   0  0  0  0  0  1  0  0  0  0  0  0
  190.0730  176.5900  143.0120 C   0  0  2  0  0  3  0  0  0  0  0  0
  189.1550  175.7800  143.9350 C   0  0  0  0  0  2  0  0  0  0  0  0
  185.7280  178.4040  147.2550 C   0  0  0  0  0  2  0  0  0  0  0  0
  187.8030  176.4050  144.0670 C   0  0  2  0  0  3  0  0  0  0  0  0
  186.9400  176.4340  143.1000 N   0  0  0  0  0  2  0  0  0  0  0  0
  184.7890  177.3960  142.8890 O   0  0  0  0  0  0  0  0  0  0  0  0
  187.6850  176.8430  146.6540 C   0  0  0  0  0  2  0  0  0  0  0  0
  185.4260  178.5850  145.7520 C   0  0  2  0  0  3  0  0  0  0  0  0
  187.2010  178.0130  147.5320 C   0  0  0  0  0  2  0  0  0  0  0  0
  185.7960  177.1210  143.5980 C   0  0  0  0  0  0  0  0  0  0  0  0
  183.9300  178.7830  145.5700 C   0  0  0  0  0  1  0  0  0  0  0  0
  185.8870  177.3110  145.0660 C   0  0  1  0  0  3  0  0  0  0  0  0
  187.3800  177.2410  145.2280 C   0  0  2  0  0  3  0  0  0  0  0  0
  197.9340  174.1960  138.7680 C   0  0  0  0  0  2  0  0  0  0  0  0
  197.6150  175.5010  138.0500 C   0  0  0  0  0  2  0  0  0  0  0  0
  197.2620  175.2660  136.6100 C   0  0  0  0  0  0  0  0  0  0  0  0
  197.8560  174.4000  135.9850 O   0  0  0  0  0  0  0  0  0  0  0  0
  196.2120  176.0790  135.8940 C   0  0  0  0  0  2  0  0  0  0  0  0
  194.7000  174.3160  135.4450 F   0  0  0  0  0  0  0  0  0  0  0  0
  194.4080  175.4660  137.3470 F   0  0  0  0  0  0  0  0  0  0  0  0
  194.7670  175.5760  136.0130 C   0  0  0  0  0  0  0  0  0  0  0  0
  192.7470  176.0290  134.7920 O   0  0  0  0  0  0  0  0  0  0  0  0
  193.8200  176.4800  135.2750 C   0  0  0  0  0  0  0  0  0  0  0  0
  194.1380  177.8230  135.0980 O   0  0  0  0  0  1  0  0  0  0  0  0
  1 25  1  0  0  0  0
  2 11  1  0  0  0  0
  3 48  1  1  0  0  0
  3 16  1  0  0  0  0
  4 22  1  0  0  0  0
  6 14  1  0  0  0  0
  7  8  1  0  0  0  0
  8 17  1  0  0  0  0
  9  5  2  0  0  0  0
  9 20  1  0  0  0  0
 10  7  1  0  0  0  0
 11 29  1  0  0  0  0
 12 27  1  0  0  0  0
 13  2  1  6  0  0  0
 13 18  1  0  0  0  0
 13 21  1  0  0  0  0
 14 30  1  0  0  0  0
 14 31  1  1  0  0  0
 16  4  2  0  0  0  0
 16 24  1  0  0  0  0
 17 30  1  0  0  0  0
 18 15  1  1  0  0  0
 18  1  1  0  0  0  0
 20 23  1  0  0  0  0
 20 19  1  1  0  0  0
 22  7  2  0  0  0  0
 23 33  1  6  0  0  0
 23  6  1  0  0  0  0
 24 10  2  0  0  0  0
 25 21  1  6  0  0  0
 25  9  1  0  0  0  0
 26 21  2  0  0  0  0
 27  3  1  0  0  0  0
 28 18  1  0  0  0  0
 29 12  1  0  0  0  0
 31 32  1  0  0  0  0
 33 35  1  0  0  0  0
 35 34  1  1  0  0  0
 35 36  1  0  0  0  0
 37 43  1  0  0  0  0
 38 36  1  6  0  0  0
 38 47  1  0  0  0  0
 39 44  1  0  0  0  0
 39 38  1  0  0  0  0
 40 44  2  0  0  0  0
 41 43  1  0  0  0  0
 42 45  1  1  0  0  0
 42 37  1  0  0  0  0
 46 44  1  6  0  0  0
 46 47  1  0  0  0  0
 46 42  1  0  0  0  0
 47 41  1  1  0  0  0
 49 48  1  0  0  0  0
 50 49  1  0  0  0  0
 51 50  2  0  0  0  0
 52 55  1  0  0  0  0
 52 50  1  0  0  0  0
 53 55  1  0  0  0  0
 55 54  1  0  0  0  0
 56 57  2  0  0  0  0
 57 55  1  0  0  0  0
 58 57  1  0  0  0  0
M  END
>  <MODEL>
2

>  <REMARK>
 VINA RESULT:      -7.9      1.651      2.141
  Name = 
  11 active torsions:
  status: ('A' for Active; 'I' for Inactive)
    1  A    between atoms: C_3  and  C_46
    2  A    between atoms: C_6  and  C_8
    3  A    between atoms: C_6  and  C_46
    4  A    between atoms: C_8  and  C_17
    5  A    between atoms: C_17  and  C_38
    6  A    between atoms: C_18  and  C_57
    7  A    between atoms: C_20  and  C_45
    8  A    between atoms: C_30  and  O_33
    9  A    between atoms: C_30  and  C_57
   10  A    between atoms: O_33  and  C_41
   11  A    between atoms: C_34  and  C_38
                            x       y       z     vdW  Elec       q    Type
                         _______ _______ _______ _____ _____    ______ ____

>  <TORSDO>
F 11

$$$$
=
 OpenBabel11072409223D

 58 62  0  0  1  0  0  0  0  0999 V2000
  191.6840  173.9420  139.3120 O   0  0  0  0  0  0  0  0  0  0  0  0
  188.4140  173.2160  140.1500 C   0  0  0  0  0  2  0  0  0  0  0  0
  189.3070  175.2900  144.9480 C   0  0  2  0  0  3  0  0  0  0  0  0
  191.5790  174.2550  145.0800 C   0  0  0  0  0  3  0  0  0  0  0  0
  193.5580  172.0390  140.0050 O   0  0  0  0  0  0  0  0  0  0  0  0
  195.1840  172.3680  144.0740 C   0  0  0  0  0  2  0  0  0  0  0  0
  193.5490  175.5560  145.6590 C   0  0  0  0  0  0  0  0  0  0  0  0
  194.9190  175.6470  145.9250 O   0  0  0  0  0  0  0  0  0  0  0  0
  193.1610  172.8370  140.8430 C   0  0  0  0  0  0  0  0  0  0  0  0
  192.7580  176.7070  145.7360 C   0  0  0  0  0  3  0  0  0  0  0  0
  188.5260  174.6770  140.5840 C   0  0  0  0  0  2  0  0  0  0  0  0
  189.1080  176.0620  142.5490 C   0  0  0  0  0  2  0  0  0  0  0  0
  189.7790  172.5470  139.8730 C   0  0  1  0  0  3  0  0  0  0  0  0
  196.4950  173.1460  144.1110 C   0  0  1  0  0  3  0  0  0  0  0  0
  191.1690  172.1080  137.8600 C   0  0  0  0  0  1  0  0  0  0  0  0
  190.7880  175.4070  145.1540 C   0  0  0  0  0  0  0  0  0  0  0  0
  195.7150  174.5640  145.9050 O   0  0  0  0  0  0  0  0  0  0  0  0
  190.6060  173.2040  138.7510 C   0  0  2  0  0  0  0  0  0  0  0  0
  194.9970  174.3010  141.5730 C   0  0  0  0  0  1  0  0  0  0  0  0
  194.0270  173.2130  142.0130 C   0  0  2  0  0  3  0  0  0  0  0  0
  190.6980  172.6740  141.0070 C   0  0  0  0  0  0  0  0  0  0  0  0
  192.9530  174.3290  145.3310 C   0  0  0  0  0  3  0  0  0  0  0  0
  194.7870  172.0280  142.6420 C   0  0  2  0  0  3  0  0  0  0  0  0
  191.3820  176.6350  145.4910 C   0  0  0  0  0  3  0  0  0  0  0  0
  191.8440  173.5390  140.6610 C   0  0  2  0  0  3  0  0  0  0  0  0
  190.5280  172.1480  142.0970 O   0  0  0  0  0  0  0  0  0  0  0  0
  188.7660  176.3610  143.9990 C   0  0  0  0  0  2  0  0  0  0  0  0
  189.8260  174.0550  137.9580 O   0  0  0  0  0  1  0  0  0  0  0  0
  188.4500  174.7730  142.0920 C   0  0  0  0  0  2  0  0  0  0  0  0
  196.3040  174.5690  144.6360 C   0  0  0  0  0  2  0  0  0  0  0  0
  197.6090  172.3830  144.8260 C   0  0  0  0  0  2  0  0  0  0  0  0
  197.0860  171.2540  145.7030 C   0  0  0  0  0  1  0  0  0  0  0  0
  193.9910  170.8570  142.6570 O   0  0  0  0  0  0  0  0  0  0  0  0
  196.0960  169.8870  142.3650 O   0  0  0  0  0  1  0  0  0  0  0  0
  194.8200  169.7340  142.9240 C   0  0  2  0  0  3  0  0  0  0  0  0
  194.1740  168.4100  142.5040 C   0  0  0  0  0  2  0  0  0  0  0  0
  194.0280  168.5040  137.0610 C   0  0  0  0  0  2  0  0  0  0  0  0
  193.3060  168.5700  141.2960 C   0  0  2  0  0  3  0  0  0  0  0  0
  192.0300  168.7830  141.3670 N   0  0  0  0  0  2  0  0  0  0  0  0
  190.3370  168.9840  139.7270 O   0  0  0  0  0  0  0  0  0  0  0  0
  195.1010  168.7530  139.3880 C   0  0  0  0  0  2  0  0  0  0  0  0
  192.6690  168.2100  137.7320 C   0  0  2  0  0  3  0  0  0  0  0  0
  195.2350  168.1660  137.9690 C   0  0  0  0  0  2  0  0  0  0  0  0
  191.5560  168.8590  140.0260 C   0  0  0  0  0  0  0  0  0  0  0  0
  191.5550  168.7430  136.8450 C   0  0  0  0  0  1  0  0  0  0  0  0
  192.6850  168.9350  139.0670 C   0  0  1  0  0  3  0  0  0  0  0  0
  193.7570  168.2900  139.9020 C   0  0  2  0  0  3  0  0  0  0  0  0
  188.5870  175.3510  146.2910 C   0  0  0  0  0  2  0  0  0  0  0  0
  188.1010  176.7600  146.6030 C   0  0  0  0  0  2  0  0  0  0  0  0
  186.6110  176.7990  146.7910 C   0  0  0  0  0  0  0  0  0  0  0  0
  186.1550  176.8670  147.9210 O   0  0  0  0  0  0  0  0  0  0  0  0
  185.6510  176.7340  145.6280 C   0  0  0  0  0  2  0  0  0  0  0  0
  184.1790  178.5820  145.7620 F   0  0  0  0  0  0  0  0  0  0  0  0
  186.2810  178.9830  145.0910 F   0  0  0  0  0  0  0  0  0  0  0  0
  185.2320  178.0790  145.0190 C   0  0  0  0  0  0  0  0  0  0  0  0
  183.7300  178.4840  143.1880 O   0  0  0  0  0  1  0  0  0  0  0  0
  184.7710  177.9050  143.5990 C   0  0  0  0  0  0  0  0  0  0  0  0
  185.4810  177.0780  142.7340 O   0  0  0  0  0  0  0  0  0  0  0  0
  2 11  1  0  0  0  0
  3 16  1  0  0  0  0
  3 48  1  1  0  0  0
  4 16  2  0  0  0  0
  4 22  1  0  0  0  0
  5  9  2  0  0  0  0
  6 14  1  0  0  0  0
  7 10  1  0  0  0  0
  7  8  1  0  0  0  0
  9 20  1  0  0  0  0
 11 29  1  0  0  0  0
 12 27  1  0  0  0  0
 13  2  1  1  0  0  0
 13 21  1  0  0  0  0
 14 30  1  0  0  0  0
 14 31  1  1  0  0  0
 16 24  1  0  0  0  0
 17  8  1  0  0  0  0
 18 15  1  6  0  0  0
 18  1  1  0  0  0  0
 18 13  1  0  0  0  0
 20 19  1  6  0  0  0
 20 23  1  0  0  0  0
 21 26  2  0  0  0  0
 22  7  2  0  0  0  0
 23 33  1  1  0  0  0
 23  6  1  0  0  0  0
 24 10  2  0  0  0  0
 25  1  1  6  0  0  0
 25  9  1  0  0  0  0
 25 21  1  0  0  0  0
 27  3  1  0  0  0  0
 28 18  1  0  0  0  0
 29 12  1  0  0  0  0
 30 17  1  0  0  0  0
 31 32  1  0  0  0  0
 33 35  1  0  0  0  0
 35 34  1  6  0  0  0
 36 35  1  0  0  0  0
 37 42  1  0  0  0  0
 37 43  1  0  0  0  0
 38 39  1  0  0  0  0
 38 36  1  1  0  0  0
 40 44  2  0  0  0  0
 42 45  1  6  0  0  0
 42 46  1  0  0  0  0
 43 41  1  0  0  0  0
 44 39  1  0  0  0  0
 46 47  1  0  0  0  0
 46 44  1  1  0  0  0
 47 41  1  6  0  0  0
 47 38  1  0  0  0  0
 48 49  1  0  0  0  0
 49 50  1  0  0  0  0
 50 51  2  0  0  0  0
 52 50  1  0  0  0  0
 55 54  1  0  0  0  0
 55 52  1  0  0  0  0
 55 53  1  0  0  0  0
 56 57  1  0  0  0  0
 57 55  1  0  0  0  0
 58 57  2  0  0  0  0
M  END
>  <MODEL>
3

>  <REMARK>
 VINA RESULT:      -7.9      3.948      9.276
  Name = 
  11 active torsions:
  status: ('A' for Active; 'I' for Inactive)
    1  A    between atoms: C_3  and  C_46
    2  A    between atoms: C_6  and  C_8
    3  A    between atoms: C_6  and  C_46
    4  A    between atoms: C_8  and  C_17
    5  A    between atoms: C_17  and  C_38
    6  A    between atoms: C_18  and  C_57
    7  A    between atoms: C_20  and  C_45
    8  A    between atoms: C_30  and  O_33
    9  A    between atoms: C_30  and  C_57
   10  A    between atoms: O_33  and  C_41
   11  A    between atoms: C_34  and  C_38
                            x       y       z     vdW  Elec       q    Type
                         _______ _______ _______ _____ _____    ______ ____

>  <TORSDO>
F 11

$$$$
=
 OpenBabel11072409223D

 58 62  0  0  1  0  0  0  0  0999 V2000
  190.9790  173.5320  140.4190 O   0  0  0  0  0  0  0  0  0  0  0  0
  187.9260  174.2600  141.8560 C   0  0  0  0  0  2  0  0  0  0  0  0
  190.5010  176.5320  145.8960 C   0  0  2  0  0  3  0  0  0  0  0  0
  192.2380  174.7340  145.9270 C   0  0  0  0  0  3  0  0  0  0  0  0
  192.1700  171.1830  141.2410 O   0  0  0  0  0  0  0  0  0  0  0  0
  194.6460  171.4720  144.8600 C   0  0  0  0  0  2  0  0  0  0  0  0
  194.6140  175.2450  145.9160 C   0  0  0  0  0  0  0  0  0  0  0  0
  195.9520  174.8400  145.9560 O   0  0  0  0  0  0  0  0  0  0  0  0
  192.2690  172.1890  141.9290 C   0  0  0  0  0  0  0  0  0  0  0  0
  194.3130  176.6100  145.8480 C   0  0  0  0  0  3  0  0  0  0  0  0
  188.6320  175.6120  141.9350 C   0  0  0  0  0  2  0  0  0  0  0  0
  190.0730  176.9460  143.4390 C   0  0  0  0  0  2  0  0  0  0  0  0
  188.8750  173.0820  141.5420 C   0  0  1  0  0  3  0  0  0  0  0  0
  196.1200  171.6800  144.5350 C   0  0  1  0  0  3  0  0  0  0  0  0
  189.5540  171.8410  139.4980 C   0  0  0  0  0  1  0  0  0  0  0  0
  191.9360  176.0990  145.8570 C   0  0  0  0  0  0  0  0  0  0  0  0
  196.2940  173.5450  146.0620 O   0  0  0  0  0  0  0  0  0  0  0  0
  189.6170  173.1910  140.1960 C   0  0  2  0  0  0  0  0  0  0  0  0
  194.6120  172.9240  142.0450 C   0  0  0  0  0  1  0  0  0  0  0  0
  193.4420  172.3750  142.8490 C   0  0  2  0  0  3  0  0  0  0  0  0
  190.0020  173.0160  142.4760 C   0  0  0  0  0  0  0  0  0  0  0  0
  193.5710  174.3090  145.9560 C   0  0  0  0  0  3  0  0  0  0  0  0
  193.8550  171.0990  143.6110 C   0  0  2  0  0  3  0  0  0  0  0  0
  192.9800  177.0380  145.8240 C   0  0  0  0  0  3  0  0  0  0  0  0
  191.2750  173.3080  141.7860 C   0  0  2  0  0  3  0  0  0  0  0  0
  189.8980  172.7680  143.6680 O   0  0  0  0  0  0  0  0  0  0  0  0
  190.1790  177.5710  144.8200 C   0  0  0  0  0  2  0  0  0  0  0  0
  189.0330  174.1460  139.3530 O   0  0  0  0  0  1  0  0  0  0  0  0
  188.9220  175.9580  143.3790 C   0  0  0  0  0  2  0  0  0  0  0  0
  196.5580  173.1290  144.7530 C   0  0  0  0  0  2  0  0  0  0  0  0
  197.0230  170.6650  145.2340 C   0  0  0  0  0  2  0  0  0  0  0  0
  196.3240  169.9350  146.3720 C   0  0  0  0  0  1  0  0  0  0  0  0
  192.7230  170.3430  143.9980 O   0  0  0  0  0  0  0  0  0  0  0  0
  192.7510  168.2170  144.9670 O   0  0  0  0  0  1  0  0  0  0  0  0
  192.9980  168.9620  143.8060 C   0  0  2  0  0  3  0  0  0  0  0  0
  194.4090  168.7110  143.2640 C   0  0  0  0  0  2  0  0  0  0  0  0
  197.4250  169.7610  138.8520 C   0  0  0  0  0  2  0  0  0  0  0  0
  194.4440  168.7240  141.7680 C   0  0  2  0  0  3  0  0  0  0  0  0
  193.4340  168.3760  141.0350 N   0  0  0  0  0  2  0  0  0  0  0  0
  193.1360  168.1660  138.6980 O   0  0  0  0  0  0  0  0  0  0  0  0
  196.7010  169.9860  141.3140 C   0  0  0  0  0  2  0  0  0  0  0  0
  196.2330  168.8130  138.6010 C   0  0  2  0  0  3  0  0  0  0  0  0
  197.8750  169.7860  140.3340 C   0  0  0  0  0  2  0  0  0  0  0  0
  193.8530  168.5000  139.6800 C   0  0  0  0  0  0  0  0  0  0  0  0
  195.7500  168.9960  137.1720 C   0  0  0  0  0  1  0  0  0  0  0  0
  195.1510  169.2140  139.5890 C   0  0  1  0  0  3  0  0  0  0  0  0
  195.6850  168.9230  140.9650 C   0  0  2  0  0  3  0  0  0  0  0  0
  190.1570  177.0690  147.2810 C   0  0  0  0  0  2  0  0  0  0  0  0
  188.8540  177.8580  147.2680 C   0  0  0  0  0  2  0  0  0  0  0  0
  187.6730  176.9670  147.0050 C   0  0  0  0  0  0  0  0  0  0  0  0
  187.8140  175.7560  147.0720 O   0  0  0  0  0  0  0  0  0  0  0  0
  186.3160  177.5150  146.6380 C   0  0  0  0  0  2  0  0  0  0  0  0
  187.0340  178.4150  144.5710 F   0  0  0  0  0  0  0  0  0  0  0  0
  186.0330  176.4100  144.5310 F   0  0  0  0  0  0  0  0  0  0  0  0
  186.0260  177.6560  145.1380 C   0  0  0  0  0  0  0  0  0  0  0  0
  184.1590  178.9960  145.8390 O   0  0  0  0  0  1  0  0  0  0  0  0
  184.7170  178.3570  144.9070 C   0  0  0  0  0  0  0  0  0  0  0  0
  184.0980  178.2820  143.6630 O   0  0  0  0  0  0  0  0  0  0  0  0
  2 11  1  0  0  0  0
  3 48  1  1  0  0  0
  4 22  1  0  0  0  0
  5  9  2  0  0  0  0
  7  8  1  0  0  0  0
  7 22  2  0  0  0  0
  8 17  1  0  0  0  0
  9 20  1  0  0  0  0
 10  7  1  0  0  0  0
 11 29  1  0  0  0  0
 12 27  1  0  0  0  0
 13  2  1  1  0  0  0
 13 21  1  0  0  0  0
 14 30  1  0  0  0  0
 14  6  1  0  0  0  0
 14 31  1  1  0  0  0
 16  3  1  0  0  0  0
 16  4  2  0  0  0  0
 18 15  1  6  0  0  0
 18  1  1  0  0  0  0
 18 13  1  0  0  0  0
 20 19  1  6  0  0  0
 20 23  1  0  0  0  0
 21 26  2  0  0  0  0
 23 33  1  1  0  0  0
 23  6  1  0  0  0  0
 24 10  2  0  0  0  0
 24 16  1  0  0  0  0
 25  1  1  6  0  0  0
 25  9  1  0  0  0  0
 25 21  1  0  0  0  0
 27  3  1  0  0  0  0
 28 18  1  0  0  0  0
 29 12  1  0  0  0  0
 30 17  1  0  0  0  0
 31 32  1  0  0  0  0
 35 33  1  0  0  0  0
 35 34  1  1  0  0  0
 36 35  1  0  0  0  0
 37 43  1  0  0  0  0
 38 36  1  1  0  0  0
 39 38  1  0  0  0  0
 40 44  2  0  0  0  0
 42 45  1  6  0  0  0
 42 37  1  0  0  0  0
 42 46  1  0  0  0  0
 43 41  1  0  0  0  0
 44 39  1  0  0  0  0
 46 44  1  6  0  0  0
 46 47  1  0  0  0  0
 47 41  1  1  0  0  0
 47 38  1  0  0  0  0
 49 48  1  0  0  0  0
 50 51  2  0  0  0  0
 50 49  1  0  0  0  0
 52 50  1  0  0  0  0
 53 55  1  0  0  0  0
 54 55  1  0  0  0  0
 55 52  1  0  0  0  0
 57 55  1  0  0  0  0
 57 56  1  0  0  0  0
 58 57  2  0  0  0  0
M  END
>  <MODEL>
4

>  <REMARK>
 VINA RESULT:      -7.8      4.278      9.615
  Name = 
  11 active torsions:
  status: ('A' for Active; 'I' for Inactive)
    1  A    between atoms: C_3  and  C_46
    2  A    between atoms: C_6  and  C_8
    3  A    between atoms: C_6  and  C_46
    4  A    between atoms: C_8  and  C_17
    5  A    between atoms: C_17  and  C_38
    6  A    between atoms: C_18  and  C_57
    7  A    between atoms: C_20  and  C_45
    8  A    between atoms: C_30  and  O_33
    9  A    between atoms: C_30  and  C_57
   10  A    between atoms: O_33  and  C_41
   11  A    between atoms: C_34  and  C_38
                            x       y       z     vdW  Elec       q    Type
                         _______ _______ _______ _____ _____    ______ ____

>  <TORSDO>
F 11

$$$$
=
 OpenBabel11072409223D

 58 62  0  0  1  0  0  0  0  0999 V2000
  195.8230  173.0770  144.6530 O   0  0  0  0  0  0  0  0  0  0  0  0
  194.9900  176.2240  145.8030 C   0  0  0  0  0  2  0  0  0  0  0  0
  190.1020  175.5060  143.8780 C   0  0  2  0  0  3  0  0  0  0  0  0
  190.9730  174.4050  141.8090 C   0  0  0  0  0  3  0  0  0  0  0  0
  196.6620  172.9340  142.0280 O   0  0  0  0  0  0  0  0  0  0  0  0
  193.4740  172.5020  139.0350 C   0  0  0  0  0  2  0  0  0  0  0  0
  190.1120  172.2690  141.0340 C   0  0  0  0  0  0  0  0  0  0  0  0
  190.0830  171.2290  140.0980 O   0  0  0  0  0  0  0  0  0  0  0  0
  195.4670  172.9760  142.2840 C   0  0  0  0  0  0  0  0  0  0  0  0
  189.2630  172.2150  142.1440 C   0  0  0  0  0  3  0  0  0  0  0  0
  193.8350  175.3840  146.3440 C   0  0  0  0  0  2  0  0  0  0  0  0
  191.5690  174.6070  145.7310 C   0  0  0  0  0  2  0  0  0  0  0  0
  195.8280  175.5030  144.7230 C   0  0  1  0  0  3  0  0  0  0  0  0
  193.2320  171.0460  138.6560 C   0  0  1  0  0  3  0  0  0  0  0  0
  197.9410  174.1950  144.6910 C   0  0  0  0  0  1  0  0  0  0  0  0
  190.1260  174.3510  142.9220 C   0  0  0  0  0  0  0  0  0  0  0  0
  190.8480  171.2520  138.9940 O   0  0  0  0  0  0  0  0  0  0  0  0
  196.5060  174.2010  145.1930 C   0  0  2  0  0  0  0  0  0  0  0  0
  194.3690  170.8830  141.6060 C   0  0  0  0  0  1  0  0  0  0  0  0
  194.4600  172.3800  141.3410 C   0  0  2  0  0  3  0  0  0  0  0  0
  195.0000  175.0040  143.6220 C   0  0  0  0  0  0  0  0  0  0  0  0
  190.9670  173.3690  140.8690 C   0  0  0  0  0  3  0  0  0  0  0  0
  194.7530  172.6520  139.8510 C   0  0  2  0  0  3  0  0  0  0  0  0
  189.2640  173.2540  143.0830 C   0  0  0  0  0  3  0  0  0  0  0  0
  194.9900  173.5270  143.5990 C   0  0  2  0  0  3  0  0  0  0  0  0
  194.3880  175.7160  142.8400 O   0  0  0  0  0  0  0  0  0  0  0  0
  190.1700  175.0520  145.3380 C   0  0  0  0  0  2  0  0  0  0  0  0
  196.5310  174.1000  146.5900 O   0  0  0  0  0  1  0  0  0  0  0  0
  192.5500  175.7600  145.6380 C   0  0  0  0  0  2  0  0  0  0  0  0
  191.9720  170.4820  139.3130 C   0  0  0  0  0  2  0  0  0  0  0  0
  193.2780  170.8180  137.1450 C   0  0  0  0  0  2  0  0  0  0  0  0
  193.0430  169.3650  136.7580 C   0  0  0  0  0  1  0  0  0  0  0  0
  195.2640  173.9590  139.6600 O   0  0  0  0  0  0  0  0  0  0  0  0
  197.2490  175.0310  139.0520 O   0  0  0  0  0  1  0  0  0  0  0  0
  196.4630  173.8810  138.9000 C   0  0  2  0  0  3  0  0  0  0  0  0
  196.2060  173.5650  137.4230 C   0  0  0  0  0  2  0  0  0  0  0  0
  192.0010  176.3240  135.3330 C   0  0  0  0  0  2  0  0  0  0  0  0
  195.7860  174.7790  136.6550 C   0  0  2  0  0  3  0  0  0  0  0  0
  196.6260  175.6620  136.2160 N   0  0  0  0  0  2  0  0  0  0  0  0
  196.3540  177.7190  135.0810 O   0  0  0  0  0  0  0  0  0  0  0  0
  193.2600  174.2420  136.1790 C   0  0  0  0  0  2  0  0  0  0  0  0
  193.2730  177.1690  135.5540 C   0  0  2  0  0  3  0  0  0  0  0  0
  191.9530  175.0590  136.2260 C   0  0  0  0  0  2  0  0  0  0  0  0
  195.8550  176.6650  135.5610 C   0  0  0  0  0  0  0  0  0  0  0  0
  193.3170  178.2750  134.5130 C   0  0  0  0  0  1  0  0  0  0  0  0
  194.4500  176.2240  135.3850 C   0  0  1  0  0  3  0  0  0  0  0  0
  194.3690  175.2180  136.5000 C   0  0  2  0  0  3  0  0  0  0  0  0
  188.8590  176.3560  143.6380 C   0  0  0  0  0  2  0  0  0  0  0  0
  188.6230  177.3380  144.7780 C   0  0  0  0  0  2  0  0  0  0  0  0
  187.1830  177.7580  144.8550 C   0  0  0  0  0  0  0  0  0  0  0  0
  186.5360  177.4880  145.8550 O   0  0  0  0  0  0  0  0  0  0  0  0
  186.4950  178.4850  143.7260 C   0  0  0  0  0  2  0  0  0  0  0  0
  185.7160  176.3180  143.1830 F   0  0  0  0  0  0  0  0  0  0  0  0
  184.2140  177.9830  143.1870 F   0  0  0  0  0  0  0  0  0  0  0  0
  185.5240  177.6530  142.8760 C   0  0  0  0  0  0  0  0  0  0  0  0
  186.9490  177.6730  140.9410 O   0  0  0  0  0  1  0  0  0  0  0  0
  185.7920  177.8460  141.4100 C   0  0  0  0  0  0  0  0  0  0  0  0
  184.7630  178.2450  140.5620 O   0  0  0  0  0  0  0  0  0  0  0  0
  1 18  1  0  0  0  0
  2 11  1  0  0  0  0
  3 48  1  1  0  0  0
  3 27  1  0  0  0  0
  4 16  1  0  0  0  0
  5  9  2  0  0  0  0
  6 23  1  0  0  0  0
  7 10  2  0  0  0  0
  8  7  1  0  0  0  0
 10 24  1  0  0  0  0
 13 18  1  0  0  0  0
 13  2  1  1  0  0  0
 14 31  1  6  0  0  0
 14  6  1  0  0  0  0
 14 30  1  0  0  0  0
 16 24  2  0  0  0  0
 16  3  1  0  0  0  0
 17 30  1  0  0  0  0
 17  8  1  0  0  0  0
 18 15  1  6  0  0  0
 18 28  1  0  0  0  0
 20 19  1  6  0  0  0
 20  9  1  0  0  0  0
 21 13  1  0  0  0  0
 22  7  1  0  0  0  0
 22  4  2  0  0  0  0
 23 33  1  1  0  0  0
 23 20  1  0  0  0  0
 25  9  1  6  0  0  0
 25 21  1  0  0  0  0
 25  1  1  0  0  0  0
 26 21  2  0  0  0  0
 27 12  1  0  0  0  0
 29 12  1  0  0  0  0
 29 11  1  0  0  0  0
 32 31  1  0  0  0  0
 35 34  1  6  0  0  0
 35 33  1  0  0  0  0
 36 35  1  0  0  0  0
 37 42  1  0  0  0  0
 37 43  1  0  0  0  0
 38 36  1  1  0  0  0
 39 38  1  0  0  0  0
 40 44  2  0  0  0  0
 41 43  1  0  0  0  0
 42 45  1  6  0  0  0
 44 39  1  0  0  0  0
 46 42  1  0  0  0  0
 46 44  1  1  0  0  0
 46 47  1  0  0  0  0
 47 41  1  6  0  0  0
 47 38  1  0  0  0  0
 48 49  1  0  0  0  0
 49 50  1  0  0  0  0
 50 51  2  0  0  0  0
 52 50  1  0  0  0  0
 55 53  1  0  0  0  0
 55 54  1  0  0  0  0
 55 52  1  0  0  0  0
 56 57  1  0  0  0  0
 57 55  1  0  0  0  0
 58 57  2  0  0  0  0
M  END
>  <MODEL>
5

>  <REMARK>
 VINA RESULT:      -7.4      3.231      9.647
  Name = 
  11 active torsions:
  status: ('A' for Active; 'I' for Inactive)
    1  A    between atoms: C_3  and  C_46
    2  A    between atoms: C_6  and  C_8
    3  A    between atoms: C_6  and  C_46
    4  A    between atoms: C_8  and  C_17
    5  A    between atoms: C_17  and  C_38
    6  A    between atoms: C_18  and  C_57
    7  A    between atoms: C_20  and  C_45
    8  A    between atoms: C_30  and  O_33
    9  A    between atoms: C_30  and  C_57
   10  A    between atoms: O_33  and  C_41
   11  A    between atoms: C_34  and  C_38
                            x       y       z     vdW  Elec       q    Type
                         _______ _______ _______ _____ _____    ______ ____

>  <TORSDO>
F 11

$$$$
=
 OpenBabel11072409223D

 58 62  0  0  1  0  0  0  0  0999 V2000
  189.4180  172.1560  142.0810 O   0  0  0  0  0  0  0  0  0  0  0  0
  189.2050  173.7890  139.0460 C   0  0  0  0  0  2  0  0  0  0  0  0
  193.9340  171.7660  137.7580 C   0  0  2  0  0  3  0  0  0  0  0  0
  194.8310  172.1420  140.0610 C   0  0  0  0  0  3  0  0  0  0  0  0
  190.7610  173.5000  144.0820 O   0  0  0  0  0  0  0  0  0  0  0  0
  195.1150  172.9200  144.1710 C   0  0  0  0  0  2  0  0  0  0  0  0
  195.9460  170.3780  141.3070 C   0  0  0  0  0  0  0  0  0  0  0  0
  196.6290  169.9260  142.4400 O   0  0  0  0  0  0  0  0  0  0  0  0
  191.3900  172.8810  143.2360 C   0  0  0  0  0  0  0  0  0  0  0  0
  195.7130  169.4920  140.2490 C   0  0  0  0  0  3  0  0  0  0  0  0
  189.5830  172.3750  138.6080 C   0  0  0  0  0  2  0  0  0  0  0  0
  191.5630  170.9720  138.1310 C   0  0  0  0  0  2  0  0  0  0  0  0
  189.4080  174.0450  140.5560 C   0  0  1  0  0  3  0  0  0  0  0  0
  195.5310  171.8140  145.1340 C   0  0  1  0  0  3  0  0  0  0  0  0
  187.9650  173.9940  142.5790 C   0  0  0  0  0  1  0  0  0  0  0  0
  194.5950  171.2560  139.0040 C   0  0  0  0  0  0  0  0  0  0  0  0
  196.9150  170.7460  143.4660 O   0  0  0  0  0  0  0  0  0  0  0  0
  188.5790  173.1360  141.4830 C   0  0  2  0  0  0  0  0  0  0  0  0
  192.5970  171.0020  144.2670 C   0  0  0  0  0  1  0  0  0  0  0  0
  192.7550  172.3340  143.5450 C   0  0  2  0  0  3  0  0  0  0  0  0
  190.7690  173.7210  140.9930 C   0  0  0  0  0  0  0  0  0  0  0  0
  195.5030  171.7050  141.2080 C   0  0  0  0  0  3  0  0  0  0  0  0
  193.6490  173.2910  144.3590 C   0  0  2  0  0  3  0  0  0  0  0  0
  195.0460  169.9290  139.0980 C   0  0  0  0  0  3  0  0  0  0  0  0
  190.7650  172.5600  141.9070 C   0  0  2  0  0  3  0  0  0  0  0  0
  191.7710  174.3220  140.6360 O   0  0  0  0  0  0  0  0  0  0  0  0
  192.8130  170.8430  137.2760 C   0  0  0  0  0  2  0  0  0  0  0  0
  187.5390  172.4970  140.7960 O   0  0  0  0  0  1  0  0  0  0  0  0
  190.9820  172.3700  138.0320 C   0  0  0  0  0  2  0  0  0  0  0  0
  195.9000  170.5230  144.4040 C   0  0  0  0  0  2  0  0  0  0  0  0
  196.5990  172.2730  146.1270 C   0  0  0  0  0  2  0  0  0  0  0  0
  196.8070  173.7800  146.1190 C   0  0  0  0  0  1  0  0  0  0  0  0
  193.4640  174.6350  143.9540 O   0  0  0  0  0  0  0  0  0  0  0  0
  193.1130  174.9730  146.2380 O   0  0  0  0  0  1  0  0  0  0  0  0
  193.6810  175.4910  145.0680 C   0  0  2  0  0  3  0  0  0  0  0  0
  193.2210  176.9290  144.8050 C   0  0  0  0  0  2  0  0  0  0  0  0
  188.0240  177.3220  146.3830 C   0  0  0  0  0  2  0  0  0  0  0  0
  191.7960  176.9870  144.3530 C   0  0  2  0  0  3  0  0  0  0  0  0
  191.4480  176.9340  143.1060 N   0  0  0  0  0  2  0  0  0  0  0  0
  189.3580  177.0950  142.0100 O   0  0  0  0  0  0  0  0  0  0  0  0
  190.5200  176.7390  146.6350 C   0  0  0  0  0  2  0  0  0  0  0  0
  188.2790  177.7300  144.9160 C   0  0  2  0  0  3  0  0  0  0  0  0
  189.2920  177.4230  147.2670 C   0  0  0  0  0  2  0  0  0  0  0  0
  190.0280  177.0350  143.0770 C   0  0  0  0  0  0  0  0  0  0  0  0
  187.0370  177.4230  144.0960 C   0  0  0  0  0  1  0  0  0  0  0  0
  189.4570  176.8980  144.4390 C   0  0  1  0  0  3  0  0  0  0  0  0
  190.6510  177.3250  145.2480 C   0  0  2  0  0  3  0  0  0  0  0  0
  194.9740  171.9660  136.6600 C   0  0  0  0  0  2  0  0  0  0  0  0
  194.9570  173.3920  136.1250 C   0  0  0  0  0  2  0  0  0  0  0  0
  196.0620  174.2160  136.7200 C   0  0  0  0  0  0  0  0  0  0  0  0
  197.2040  174.0620  136.3160 O   0  0  0  0  0  0  0  0  0  0  0  0
  195.8160  175.2180  137.8210 C   0  0  0  0  0  2  0  0  0  0  0  0
  197.2160  173.8990  139.1980 F   0  0  0  0  0  0  0  0  0  0  0  0
  197.9400  175.9500  138.6550 F   0  0  0  0  0  0  0  0  0  0  0  0
  196.8180  175.2060  138.9840 C   0  0  0  0  0  0  0  0  0  0  0  0
  196.8650  176.3600  141.0920 O   0  0  0  0  0  1  0  0  0  0  0  0
  196.1830  175.7220  140.2450 C   0  0  0  0  0  0  0  0  0  0  0  0
  194.8370  175.4740  140.4980 O   0  0  0  0  0  0  0  0  0  0  0  0
  3 48  1  6  0  0  0
  3 16  1  0  0  0  0
  4 22  1  0  0  0  0
  6 23  1  0  0  0  0
  6 14  1  0  0  0  0
  7  8  1  0  0  0  0
  8 17  1  0  0  0  0
  9 20  1  0  0  0  0
  9  5  2  0  0  0  0
 10  7  1  0  0  0  0
 11  2  1  0  0  0  0
 13  2  1  6  0  0  0
 13 21  1  0  0  0  0
 13 18  1  0  0  0  0
 14 31  1  6  0  0  0
 16 24  1  0  0  0  0
 16  4  2  0  0  0  0
 17 30  1  0  0  0  0
 18  1  1  0  0  0  0
 18 15  1  1  0  0  0
 20 19  1  1  0  0  0
 20 23  1  0  0  0  0
 22  7  2  0  0  0  0
 23 33  1  6  0  0  0
 24 10  2  0  0  0  0
 25 21  1  6  0  0  0
 25  1  1  0  0  0  0
 25  9  1  0  0  0  0
 26 21  2  0  0  0  0
 27  3  1  0  0  0  0
 27 12  1  0  0  0  0
 28 18  1  0  0  0  0
 29 12  1  0  0  0  0
 29 11  1  0  0  0  0
 30 14  1  0  0  0  0
 32 31  1  0  0  0  0
 33 35  1  0  0  0  0
 35 34  1  1  0  0  0
 36 35  1  0  0  0  0
 37 43  1  0  0  0  0
 38 36  1  6  0  0  0
 38 47  1  0  0  0  0
 39 38  1  0  0  0  0
 40 44  2  0  0  0  0
 41 43  1  0  0  0  0
 42 45  1  6  0  0  0
 42 37  1  0  0  0  0
 44 39  1  0  0  0  0
 46 44  1  6  0  0  0
 46 42  1  0  0  0  0
 46 47  1  0  0  0  0
 47 41  1  1  0  0  0
 49 48  1  0  0  0  0
 49 50  1  0  0  0  0
 50 52  1  0  0  0  0
 51 50  2  0  0  0  0
 52 55  1  0  0  0  0
 54 55  1  0  0  0  0
 55 53  1  0  0  0  0
 55 57  1  0  0  0  0
 57 58  2  0  0  0  0
 57 56  1  0  0  0  0
M  END
>  <MODEL>
6

>  <REMARK>
 VINA RESULT:      -7.4      2.703      4.562
  Name = 
  11 active torsions:
  status: ('A' for Active; 'I' for Inactive)
    1  A    between atoms: C_3  and  C_46
    2  A    between atoms: C_6  and  C_8
    3  A    between atoms: C_6  and  C_46
    4  A    between atoms: C_8  and  C_17
    5  A    between atoms: C_17  and  C_38
    6  A    between atoms: C_18  and  C_57
    7  A    between atoms: C_20  and  C_45
    8  A    between atoms: C_30  and  O_33
    9  A    between atoms: C_30  and  C_57
   10  A    between atoms: O_33  and  C_41
   11  A    between atoms: C_34  and  C_38
                            x       y       z     vdW  Elec       q    Type
                         _______ _______ _______ _____ _____    ______ ____

>  <TORSDO>
F 11

$$$$
=
 OpenBabel11072409223D

 58 62  0  0  1  0  0  0  0  0999 V2000
  194.2030  173.8650  144.6010 O   0  0  0  0  0  0  0  0  0  0  0  0
  193.0530  177.0880  145.0570 C   0  0  0  0  0  2  0  0  0  0  0  0
  188.7550  175.8320  142.2170 C   0  0  2  0  0  3  0  0  0  0  0  0
  190.1040  174.5070  140.5810 C   0  0  0  0  0  3  0  0  0  0  0  0
  195.6250  173.4080  142.2810 O   0  0  0  0  0  0  0  0  0  0  0  0
  193.2190  172.3840  138.7490 C   0  0  0  0  0  2  0  0  0  0  0  0
  189.4950  172.2380  139.9580 C   0  0  0  0  0  0  0  0  0  0  0  0
  189.7070  171.0790  139.2040 O   0  0  0  0  0  0  0  0  0  0  0  0
  194.4020  173.4160  142.2540 C   0  0  0  0  0  0  0  0  0  0  0  0
  188.4160  172.2910  140.8460 C   0  0  0  0  0  3  0  0  0  0  0  0
  191.8250  176.2670  145.4450 C   0  0  0  0  0  2  0  0  0  0  0  0
  189.7790  175.2840  144.4620 C   0  0  0  0  0  2  0  0  0  0  0  0
  194.1340  176.2730  144.3110 C   0  0  1  0  0  3  0  0  0  0  0  0
  193.1060  170.8780  138.5450 C   0  0  1  0  0  3  0  0  0  0  0  0
  196.2280  175.0960  144.9460 C   0  0  0  0  0  1  0  0  0  0  0  0
  189.0260  174.5590  141.4720 C   0  0  0  0  0  0  0  0  0  0  0  0
  190.7040  170.9920  138.3070 O   0  0  0  0  0  0  0  0  0  0  0  0
  194.7160  175.0900  145.1080 C   0  0  2  0  0  0  0  0  0  0  0  0
  193.5390  171.1900  141.6650 C   0  0  0  0  0  1  0  0  0  0  0  0
  193.6530  172.6390  141.2090 C   0  0  2  0  0  3  0  0  0  0  0  0
  193.5920  175.5810  143.1390 C   0  0  0  0  0  0  0  0  0  0  0  0
  190.3380  173.3520  139.8280 C   0  0  0  0  0  3  0  0  0  0  0  0
  194.2730  172.7190  139.7990 C   0  0  2  0  0  3  0  0  0  0  0  0
  188.1760  173.4480  141.5970 C   0  0  0  0  0  3  0  0  0  0  0  0
  193.6230  174.1160  143.3330 C   0  0  2  0  0  3  0  0  0  0  0  0
  193.1590  176.1410  142.1430 O   0  0  0  0  0  0  0  0  0  0  0  0
  188.4970  175.5900  143.7060 C   0  0  0  0  0  2  0  0  0  0  0  0
  194.4230  175.1850  146.4740 O   0  0  0  0  0  1  0  0  0  0  0  0
  190.7280  176.4670  144.4220 C   0  0  0  0  0  2  0  0  0  0  0  0
  191.7430  170.3390  138.9800 C   0  0  0  0  0  2  0  0  0  0  0  0
  193.5030  170.4460  137.1330 C   0  0  0  0  0  2  0  0  0  0  0  0
  194.0970  169.0460  137.0870 C   0  0  0  0  0  1  0  0  0  0  0  0
  194.7830  174.0130  139.5350 O   0  0  0  0  0  0  0  0  0  0  0  0
  196.8920  174.9930  139.3150 O   0  0  0  0  0  1  0  0  0  0  0  0
  196.0880  173.8950  138.9840 C   0  0  2  0  0  3  0  0  0  0  0  0
  196.0700  173.6430  137.4730 C   0  0  0  0  0  2  0  0  0  0  0  0
  192.0280  176.5460  135.2590 C   0  0  0  0  0  2  0  0  0  0  0  0
  195.7150  174.8770  136.7050 C   0  0  2  0  0  3  0  0  0  0  0  0
  196.5960  175.7400  136.3080 N   0  0  0  0  0  2  0  0  0  0  0  0
  196.4260  177.8160  135.1870 O   0  0  0  0  0  0  0  0  0  0  0  0
  193.1940  174.4200  136.1270 C   0  0  0  0  0  2  0  0  0  0  0  0
  193.3150  177.3510  135.5380 C   0  0  2  0  0  3  0  0  0  0  0  0
  191.9100  175.2730  136.1350 C   0  0  0  0  0  2  0  0  0  0  0  0
  195.8800  176.7720  135.6360 C   0  0  0  0  0  0  0  0  0  0  0  0
  193.4310  178.4670  134.5130 C   0  0  0  0  0  1  0  0  0  0  0  0
  194.4700  176.3740  135.4020 C   0  0  1  0  0  3  0  0  0  0  0  0
  194.3180  175.3590  136.5010 C   0  0  2  0  0  3  0  0  0  0  0  0
  187.5810  176.5690  141.5820 C   0  0  0  0  0  2  0  0  0  0  0  0
  186.3120  176.4200  142.4110 C   0  0  0  0  0  2  0  0  0  0  0  0
  185.7400  177.7570  142.7880 C   0  0  0  0  0  0  0  0  0  0  0  0
  185.7690  178.6680  141.9740 O   0  0  0  0  0  0  0  0  0  0  0  0
  185.1490  178.0260  144.1500 C   0  0  0  0  0  2  0  0  0  0  0  0
  187.3590  178.5380  144.8200 F   0  0  0  0  0  0  0  0  0  0  0  0
  185.8240  180.1630  144.9990 F   0  0  0  0  0  0  0  0  0  0  0  0
  186.0370  178.7990  145.1340 C   0  0  0  0  0  0  0  0  0  0  0  0
  186.7310  177.9180  147.2590 O   0  0  0  0  0  1  0  0  0  0  0  0
  185.7870  178.3550  146.5470 C   0  0  0  0  0  0  0  0  0  0  0  0
  184.4990  178.3980  147.0720 O   0  0  0  0  0  0  0  0  0  0  0  0
  1 18  1  0  0  0  0
  2 11  1  0  0  0  0
  3 48  1  6  0  0  0
  3 27  1  0  0  0  0
  4 16  1  0  0  0  0
  6 23  1  0  0  0  0
  7 10  2  0  0  0  0
  8  7  1  0  0  0  0
  9  5  2  0  0  0  0
 10 24  1  0  0  0  0
 13  2  1  1  0  0  0
 13 18  1  0  0  0  0
 14 31  1  6  0  0  0
 14  6  1  0  0  0  0
 14 30  1  0  0  0  0
 16 24  2  0  0  0  0
 16  3  1  0  0  0  0
 17 30  1  0  0  0  0
 17  8  1  0  0  0  0
 18 15  1  6  0  0  0
 18 28  1  0  0  0  0
 20 19  1  1  0  0  0
 20  9  1  0  0  0  0
 21 25  1  0  0  0  0
 21 13  1  0  0  0  0
 22  7  1  0  0  0  0
 22  4  2  0  0  0  0
 23 33  1  6  0  0  0
 23 20  1  0  0  0  0
 25  9  1  6  0  0  0
 25  1  1  0  0  0  0
 26 21  2  0  0  0  0
 27 12  1  0  0  0  0
 29 12  1  0  0  0  0
 29 11  1  0  0  0  0
 32 31  1  0  0  0  0
 35 34  1  6  0  0  0
 35 33  1  0  0  0  0
 36 35  1  0  0  0  0
 37 42  1  0  0  0  0
 37 43  1  0  0  0  0
 38 36  1  1  0  0  0
 39 38  1  0  0  0  0
 40 44  2  0  0  0  0
 41 43  1  0  0  0  0
 42 45  1  6  0  0  0
 44 39  1  0  0  0  0
 46 42  1  0  0  0  0
 46 44  1  1  0  0  0
 46 47  1  0  0  0  0
 47 41  1  6  0  0  0
 47 38  1  0  0  0  0
 48 49  1  0  0  0  0
 49 50  1  0  0  0  0
 50 52  1  0  0  0  0
 51 50  2  0  0  0  0
 52 55  1  0  0  0  0
 53 55  1  0  0  0  0
 54 55  1  0  0  0  0
 55 57  1  0  0  0  0
 57 58  2  0  0  0  0
 57 56  1  0  0  0  0
M  END
>  <MODEL>
7

>  <REMARK>
 VINA RESULT:      -7.2      3.213      9.929
  Name = 
  11 active torsions:
  status: ('A' for Active; 'I' for Inactive)
    1  A    between atoms: C_3  and  C_46
    2  A    between atoms: C_6  and  C_8
    3  A    between atoms: C_6  and  C_46
    4  A    between atoms: C_8  and  C_17
    5  A    between atoms: C_17  and  C_38
    6  A    between atoms: C_18  and  C_57
    7  A    between atoms: C_20  and  C_45
    8  A    between atoms: C_30  and  O_33
    9  A    between atoms: C_30  and  C_57
   10  A    between atoms: O_33  and  C_41
   11  A    between atoms: C_34  and  C_38
                            x       y       z     vdW  Elec       q    Type
                         _______ _______ _______ _____ _____    ______ ____

>  <TORSDO>
F 11

$$$$
=
 OpenBabel11072409223D

 58 62  0  0  1  0  0  0  0  0999 V2000
  194.4450  176.5940  141.2820 O   0  0  0  0  0  0  0  0  0  0  0  0
  195.3830  173.4970  140.0790 C   0  0  0  0  0  2  0  0  0  0  0  0
  190.3220  172.6020  138.7730 C   0  0  2  0  0  3  0  0  0  0  0  0
  189.4910  173.6500  140.8850 C   0  0  0  0  0  3  0  0  0  0  0  0
  193.5530  176.6550  143.8920 O   0  0  0  0  0  0  0  0  0  0  0  0
  189.2740  175.8320  144.4580 C   0  0  0  0  0  2  0  0  0  0  0  0
  187.7620  175.3580  140.8740 C   0  0  0  0  0  0  0  0  0  0  0  0
  186.9020  176.2320  141.5480 O   0  0  0  0  0  0  0  0  0  0  0  0
  192.7930  176.3140  142.9970 C   0  0  0  0  0  0  0  0  0  0  0  0
  187.7260  175.3040  139.4770 C   0  0  0  0  0  3  0  0  0  0  0  0
  194.5580  174.0420  138.9150 C   0  0  0  0  0  2  0  0  0  0  0  0
  192.2400  174.0830  138.0520 C   0  0  0  0  0  2  0  0  0  0  0  0
  195.2010  174.2910  141.3920 C   0  0  1  0  0  3  0  0  0  0  0  0
  188.4450  177.1100  144.5280 C   0  0  1  0  0  3  0  0  0  0  0  0
  196.4220  176.1200  142.5500 C   0  0  0  0  0  1  0  0  0  0  0  0
  189.4580  173.5980  139.4870 C   0  0  0  0  0  0  0  0  0  0  0  0
  186.8670  176.2920  142.8900 O   0  0  0  0  0  0  0  0  0  0  0  0
  195.6070  175.7740  141.3130 C   0  0  2  0  0  0  0  0  0  0  0  0
  190.9500  177.9260  142.7730 C   0  0  0  0  0  1  0  0  0  0  0  0
  191.3090  176.4930  143.1430 C   0  0  2  0  0  3  0  0  0  0  0  0
  193.7910  174.4070  141.7760 C   0  0  0  0  0  0  0  0  0  0  0  0
  188.6470  174.5260  141.5760 C   0  0  0  0  0  3  0  0  0  0  0  0
  190.7650  176.1390  144.5420 C   0  0  2  0  0  3  0  0  0  0  0  0
  188.5660  174.4240  138.7840 C   0  0  0  0  0  3  0  0  0  0  0  0
  193.3370  175.8100  141.6890 C   0  0  2  0  0  3  0  0  0  0  0  0
  193.0840  173.4670  142.1070 O   0  0  0  0  0  0  0  0  0  0  0  0
  191.0730  173.2250  137.5940 C   0  0  0  0  0  2  0  0  0  0  0  0
  196.3920  176.0420  140.1840 O   0  0  0  0  0  1  0  0  0  0  0  0
  193.2800  173.2440  138.7720 C   0  0  0  0  0  2  0  0  0  0  0  0
  187.6860  177.3750  143.2270 C   0  0  0  0  0  2  0  0  0  0  0  0
  187.5540  177.1620  145.7680 C   0  0  0  0  0  2  0  0  0  0  0  0
  186.5180  178.2760  145.7060 C   0  0  0  0  0  1  0  0  0  0  0  0
  191.4310  175.0130  145.0820 O   0  0  0  0  0  0  0  0  0  0  0  0
  191.4580  176.5990  146.7970 O   0  0  0  0  0  1  0  0  0  0  0  0
  191.8370  175.3060  146.4120 C   0  0  2  0  0  3  0  0  0  0  0  0
  193.3330  175.0650  146.6390 C   0  0  0  0  0  2  0  0  0  0  0  0
  197.6690  172.4930  144.5770 C   0  0  0  0  0  2  0  0  0  0  0  0
  193.8180  173.8430  145.9230 C   0  0  2  0  0  3  0  0  0  0  0  0
  193.0310  172.8830  145.5530 N   0  0  0  0  0  2  0  0  0  0  0  0
  193.4180  170.7920  144.5170 O   0  0  0  0  0  0  0  0  0  0  0  0
  196.2880  174.5250  145.3510 C   0  0  0  0  0  2  0  0  0  0  0  0
  196.4640  171.5750  144.8760 C   0  0  2  0  0  3  0  0  0  0  0  0
  197.6500  173.8030  145.4030 C   0  0  0  0  0  2  0  0  0  0  0  0
  193.8530  171.9020  144.9290 C   0  0  0  0  0  0  0  0  0  0  0  0
  196.4710  170.4160  143.8950 C   0  0  0  0  0  1  0  0  0  0  0  0
  195.2200  172.4280  144.6910 C   0  0  1  0  0  3  0  0  0  0  0  0
  195.2580  173.4940  145.7510 C   0  0  2  0  0  3  0  0  0  0  0  0
  189.4810  171.4180  138.3090 C   0  0  0  0  0  2  0  0  0  0  0  0
  189.8930  170.9490  136.9200 C   0  0  0  0  0  2  0  0  0  0  0  0
  190.7420  169.7120  136.9860 C   0  0  0  0  0  0  0  0  0  0  0  0
  191.2010  169.2490  135.9530 O   0  0  0  0  0  0  0  0  0  0  0  0
  191.0310  169.0020  138.2850 C   0  0  0  0  0  2  0  0  0  0  0  0
  193.1390  168.1710  138.9650 F   0  0  0  0  0  0  0  0  0  0  0  0
  193.0570  170.2800  138.2090 F   0  0  0  0  0  0  0  0  0  0  0  0
  192.3770  169.3250  138.9490 C   0  0  0  0  0  0  0  0  0  0  0  0
  191.0640  169.6490  140.9350 O   0  0  0  0  0  0  0  0  0  0  0  0
  192.1810  169.7840  140.3660 C   0  0  0  0  0  0  0  0  0  0  0  0
  193.2300  170.3870  141.0530 O   0  0  0  0  0  1  0  0  0  0  0  0
  1 18  1  0  0  0  0
  3 48  1  6  0  0  0
  3 16  1  0  0  0  0
  4 22  1  0  0  0  0
  6 14  1  0  0  0  0
  6 23  1  0  0  0  0
  7  8  1  0  0  0  0
  7 22  2  0  0  0  0
  8 17  1  0  0  0  0
  9 20  1  0  0  0  0
  9  5  2  0  0  0  0
 10  7  1  0  0  0  0
 11  2  1  0  0  0  0
 12 29  1  0  0  0  0
 13  2  1  6  0  0  0
 13 21  1  0  0  0  0
 14 31  1  1  0  0  0
 16  4  2  0  0  0  0
 17 30  1  0  0  0  0
 18 13  1  0  0  0  0
 18 15  1  1  0  0  0
 20 19  1  1  0  0  0
 20 23  1  0  0  0  0
 21 26  2  0  0  0  0
 23 33  1  6  0  0  0
 24 10  2  0  0  0  0
 24 16  1  0  0  0  0
 25  1  1  1  0  0  0
 25 21  1  0  0  0  0
 25  9  1  0  0  0  0
 27 12  1  0  0  0  0
 27  3  1  0  0  0  0
 28 18  1  0  0  0  0
 29 11  1  0  0  0  0
 30 14  1  0  0  0  0
 32 31  1  0  0  0  0
 33 35  1  0  0  0  0
 35 36  1  0  0  0  0
 35 34  1  6  0  0  0
 37 42  1  0  0  0  0
 37 43  1  0  0  0  0
 38 36  1  1  0  0  0
 39 38  1  0  0  0  0
 40 44  2  0  0  0  0
 41 43  1  0  0  0  0
 42 45  1  6  0  0  0
 44 39  1  0  0  0  0
 46 42  1  0  0  0  0
 46 44  1  1  0  0  0
 46 47  1  0  0  0  0
 47 41  1  6  0  0  0
 47 38  1  0  0  0  0
 49 50  1  0  0  0  0
 49 48  1  0  0  0  0
 50 52  1  0  0  0  0
 51 50  2  0  0  0  0
 52 55  1  0  0  0  0
 54 55  1  0  0  0  0
 55 53  1  0  0  0  0
 55 57  1  0  0  0  0
 57 56  2  0  0  0  0
 57 58  1  0  0  0  0
M  END
>  <MODEL>
8

>  <REMARK>
 VINA RESULT:      -7.1      3.044      7.834
  Name = 
  11 active torsions:
  status: ('A' for Active; 'I' for Inactive)
    1  A    between atoms: C_3  and  C_46
    2  A    between atoms: C_6  and  C_8
    3  A    between atoms: C_6  and  C_46
    4  A    between atoms: C_8  and  C_17
    5  A    between atoms: C_17  and  C_38
    6  A    between atoms: C_18  and  C_57
    7  A    between atoms: C_20  and  C_45
    8  A    between atoms: C_30  and  O_33
    9  A    between atoms: C_30  and  C_57
   10  A    between atoms: O_33  and  C_41
   11  A    between atoms: C_34  and  C_38
                            x       y       z     vdW  Elec       q    Type
                         _______ _______ _______ _____ _____    ______ ____

>  <TORSDO>
F 11

$$$$
=
 OpenBabel11072409223D

 58 62  0  0  1  0  0  0  0  0999 V2000
  189.6530  175.7710  144.9640 O   0  0  0  0  0  0  0  0  0  0  0  0
  188.4250  176.4210  141.8030 C   0  0  0  0  0  2  0  0  0  0  0  0
  190.3310  171.7320  140.2240 C   0  0  2  0  0  3  0  0  0  0  0  0
  192.4310  172.0300  141.5480 C   0  0  0  0  0  3  0  0  0  0  0  0
  192.2860  176.4690  145.4020 O   0  0  0  0  0  0  0  0  0  0  0  0
  195.2660  173.4340  144.2980 C   0  0  0  0  0  2  0  0  0  0  0  0
  193.2500  170.3120  143.0590 C   0  0  0  0  0  0  0  0  0  0  0  0
  194.2090  169.8270  143.9540 O   0  0  0  0  0  0  0  0  0  0  0  0
  192.0210  175.4160  144.8390 C   0  0  0  0  0  0  0  0  0  0  0  0
  192.1350  169.5230  142.7560 C   0  0  0  0  0  3  0  0  0  0  0  0
  187.8950  175.0110  142.0540 C   0  0  0  0  0  2  0  0  0  0  0  0
  188.5100  172.6380  141.7270 C   0  0  0  0  0  2  0  0  0  0  0  0
  189.5270  176.8550  142.7960 C   0  0  1  0  0  3  0  0  0  0  0  0
  195.6780  172.5710  145.4850 C   0  0  1  0  0  3  0  0  0  0  0  0
  189.6040  178.1650  144.9070 C   0  0  0  0  0  1  0  0  0  0  0  0
  191.3140  171.2430  141.2460 C   0  0  0  0  0  0  0  0  0  0  0  0
  195.3180  170.5270  144.2480 O   0  0  0  0  0  0  0  0  0  0  0  0
  189.0920  176.8810  144.2740 C   0  0  2  0  0  0  0  0  0  0  0  0
  192.7400  173.5040  146.2080 C   0  0  0  0  0  1  0  0  0  0  0  0
  192.9710  174.2540  144.9020 C   0  0  2  0  0  3  0  0  0  0  0  0
  190.6330  175.8960  142.8470 C   0  0  0  0  0  0  0  0  0  0  0  0
  193.3940  171.5670  142.4500 C   0  0  0  0  0  3  0  0  0  0  0  0
  194.4560  174.6430  144.7520 C   0  0  2  0  0  3  0  0  0  0  0  0
  191.1720  169.9820  141.8490 C   0  0  0  0  0  3  0  0  0  0  0  0
  190.6910  175.2300  144.1650 C   0  0  2  0  0  3  0  0  0  0  0  0
  191.3940  175.6680  141.9190 O   0  0  0  0  0  0  0  0  0  0  0  0
  188.8820  171.5850  140.6960 C   0  0  0  0  0  2  0  0  0  0  0  0
  187.6980  176.8520  144.4090 O   0  0  0  0  0  1  0  0  0  0  0  0
  188.5830  174.0300  141.1290 C   0  0  0  0  0  2  0  0  0  0  0  0
  195.0240  171.1890  145.4450 C   0  0  0  0  0  2  0  0  0  0  0  0
  197.1930  172.5170  145.6730 C   0  0  0  0  0  2  0  0  0  0  0  0
  197.8790  173.8320  145.3340 C   0  0  0  0  0  1  0  0  0  0  0  0
  194.6210  175.6830  143.8060 O   0  0  0  0  0  0  0  0  0  0  0  0
  195.6540  177.4490  144.9330 O   0  0  0  0  0  1  0  0  0  0  0  0
  195.8410  176.3620  144.0700 C   0  0  2  0  0  3  0  0  0  0  0  0
  196.5740  176.7760  142.7890 C   0  0  0  0  0  2  0  0  0  0  0  0
  197.2780  172.0560  140.1650 C   0  0  0  0  0  2  0  0  0  0  0  0
  196.1640  175.9450  141.6150 C   0  0  2  0  0  3  0  0  0  0  0  0
  195.2890  176.3370  140.7430 N   0  0  0  0  0  2  0  0  0  0  0  0
  194.3210  175.2960  138.8530 O   0  0  0  0  0  0  0  0  0  0  0  0
  197.9410  174.0140  141.7010 C   0  0  0  0  0  2  0  0  0  0  0  0
  195.9450  172.7700  139.8510 C   0  0  2  0  0  3  0  0  0  0  0  0
  197.8860  172.4830  141.5240 C   0  0  0  0  0  2  0  0  0  0  0  0
  195.1530  175.2780  139.8000 C   0  0  0  0  0  0  0  0  0  0  0  0
  195.5260  172.4290  138.4310 C   0  0  0  0  0  1  0  0  0  0  0  0
  196.2130  174.2590  139.9900 C   0  0  1  0  0  3  0  0  0  0  0  0
  196.5390  174.5120  141.4360 C   0  0  2  0  0  3  0  0  0  0  0  0
  190.5430  170.9980  138.9040 C   0  0  0  0  0  2  0  0  0  0  0  0
  191.9640  171.1760  138.3870 C   0  0  0  0  0  2  0  0  0  0  0  0
  191.9770  171.6460  136.9610 C   0  0  0  0  0  0  0  0  0  0  0  0
  191.6740  170.8640  136.0730 O   0  0  0  0  0  0  0  0  0  0  0  0
  192.3750  173.0510  136.5790 C   0  0  0  0  0  2  0  0  0  0  0  0
  191.4980  174.1670  138.4710 F   0  0  0  0  0  0  0  0  0  0  0  0
  191.9350  175.4050  136.6540 F   0  0  0  0  0  0  0  0  0  0  0  0
  191.4640  174.1760  137.0880 C   0  0  0  0  0  0  0  0  0  0  0  0
  189.1130  173.8880  137.4930 O   0  0  0  0  0  1  0  0  0  0  0  0
  190.0440  173.9590  136.6470 C   0  0  0  0  0  0  0  0  0  0  0  0
  189.7520  173.8090  135.2950 O   0  0  0  0  0  0  0  0  0  0  0  0
  2 11  1  0  0  0  0
  3 48  1  6  0  0  0
  3 27  1  0  0  0  0
  3 16  1  0  0  0  0
  4 22  1  0  0  0  0
  6 23  1  0  0  0  0
  6 14  1  0  0  0  0
  7  8  1  0  0  0  0
  8 17  1  0  0  0  0
  9 20  1  0  0  0  0
  9  5  2  0  0  0  0
 10  7  1  0  0  0  0
 13  2  1  6  0  0  0
 13 21  1  0  0  0  0
 13 18  1  0  0  0  0
 14 31  1  6  0  0  0
 16  4  2  0  0  0  0
 16 24  1  0  0  0  0
 17 30  1  0  0  0  0
 18 28  1  0  0  0  0
 18 15  1  1  0  0  0
 18  1  1  0  0  0  0
 20 19  1  1  0  0  0
 22  7  2  0  0  0  0
 23 33  1  6  0  0  0
 23 20  1  0  0  0  0
 24 10  2  0  0  0  0
 25 21  1  6  0  0  0
 25  9  1  0  0  0  0
 25  1  1  0  0  0  0
 26 21  2  0  0  0  0
 27 12  1  0  0  0  0
 29 12  1  0  0  0  0
 29 11  1  0  0  0  0
 30 14  1  0  0  0  0
 32 31  1  0  0  0  0
 33 35  1  0  0  0  0
 35 34  1  1  0  0  0
 36 35  1  0  0  0  0
 37 43  1  0  0  0  0
 38 36  1  1  0  0  0
 39 38  1  0  0  0  0
 40 44  2  0  0  0  0
 42 45  1  6  0  0  0
 42 46  1  0  0  0  0
 42 37  1  0  0  0  0
 43 41  1  0  0  0  0
 44 39  1  0  0  0  0
 46 44  1  1  0  0  0
 46 47  1  0  0  0  0
 47 38  1  0  0  0  0
 47 41  1  6  0  0  0
 49 48  1  0  0  0  0
 50 49  1  0  0  0  0
 51 50  2  0  0  0  0
 52 50  1  0  0  0  0
 52 55  1  0  0  0  0
 54 55  1  0  0  0  0
 55 53  1  0  0  0  0
 57 55  1  0  0  0  0
 57 56  1  0  0  0  0
 58 57  2  0  0  0  0
M  END
>  <MODEL>
9

>  <REMARK>
 VINA RESULT:      -7.0      2.804      7.808
  Name = 
  11 active torsions:
  status: ('A' for Active; 'I' for Inactive)
    1  A    between atoms: C_3  and  C_46
    2  A    between atoms: C_6  and  C_8
    3  A    between atoms: C_6  and  C_46
    4  A    between atoms: C_8  and  C_17
    5  A    between atoms: C_17  and  C_38
    6  A    between atoms: C_18  and  C_57
    7  A    between atoms: C_20  and  C_45
    8  A    between atoms: C_30  and  O_33
    9  A    between atoms: C_30  and  C_57
   10  A    between atoms: O_33  and  C_41
   11  A    between atoms: C_34  and  C_38
                            x       y       z     vdW  Elec       q    Type
                         _______ _______ _______ _____ _____    ______ ____

>  <TORSDO>
F 11

$$$$
