=
 OpenBabel11062419093D

 54 61  0  0  1  0  0  0  0  0999 V2000
  189.8930  175.9850  146.3340 C   0  0  0  0  0  0  0  0  0  0  0  0
  188.7310  176.5820  146.4340 C   0  0  0  0  0  0  0  0  0  0  0  0
  187.5680  177.1730  146.4140 C   0  0  0  0  0  0  0  0  0  0  0  0
  192.2820  175.7030  144.3820 C   0  0  0  0  0  0  0  0  0  0  0  0
  190.0800  174.9860  145.2610 C   0  0  0  0  0  0  0  0  0  0  0  0
  191.4430  172.2520  144.2960 O   0  0  0  0  0  0  0  0  0  0  0  0
  189.0700  174.5190  144.6650 O   0  0  0  0  0  0  0  0  0  0  0  0
  192.3030  174.8050  142.0380 C   0  0  0  0  0  0  0  0  0  0  0  0
  192.2980  176.7860  146.5820 N   0  0  0  0  0  2  0  0  0  0  0  0
  191.4630  174.5400  144.8770 C   0  0  1  0  0  3  0  0  0  0  0  0
  191.0230  176.4600  147.1520 C   0  0  0  0  0  0  0  0  0  0  0  0
  192.6770  175.7840  143.0100 N   0  0  0  0  0  0  0  0  0  0  0  0
  192.7280  174.9150  140.8590 O   0  0  0  0  0  0  0  0  0  0  0  0
  191.4080  173.6600  142.4030 C   0  0  1  0  0  3  0  0  0  0  0  0
  190.8440  176.6570  148.3850 O   0  0  0  0  0  0  0  0  0  0  0  0
  186.4510  176.5460  147.1850 C   0  0  0  0  0  1  0  0  0  0  0  0
  191.4620  173.4020  143.8850 C   0  0  0  0  0  0  0  0  0  0  0  0
  192.6850  176.6720  145.2060 C   0  0  0  0  0  2  0  0  0  0  0  0
  187.3460  177.6780  144.0410 N   0  0  2  0  0  0  0  0  0  0  0  0
  185.2940  178.9010  144.1500 C   0  0  0  0  0  2  0  0  0  0  0  0
  188.5630  177.0450  142.0190 C   0  0  0  0  0  2  0  0  0  0  0  0
  187.0480  176.7880  140.1720 O   0  0  0  0  0  0  0  0  0  0  0  0
  186.4700  178.5450  143.2720 C   0  0  2  0  0  3  0  0  0  0  0  0
  187.3360  178.2550  145.3830 C   0  0  1  0  0  3  0  0  0  0  0  0
  185.9840  178.8960  145.4640 C   0  0  0  0  0  0  0  0  0  0  0  0
  185.5250  179.4140  146.4690 O   0  0  0  0  0  0  0  0  0  0  0  0
  187.2270  177.2480  141.3310 C   0  0  0  0  0  0  0  0  0  0  0  0
  188.6450  177.7620  143.3830 C   0  0  0  0  0  2  0  0  0  0  0  0
  186.1440  177.8990  142.0160 N   0  0  0  0  0  2  0  0  0  0  0  0
  189.9730  173.9440  141.9690 C   0  0  2  0  0  3  0  0  0  0  0  0
  189.2990  172.6800  141.4860 C   0  0  1  0  0  0  0  0  0  0  0  0
  187.7960  172.7880  141.6280 C   0  0  0  0  0  1  0  0  0  0  0  0
  189.7420  173.7050  140.4950 C   0  0  2  0  0  3  0  0  0  0  0  0
  189.6560  172.2870  140.1140 N   0  0  0  0  0  0  0  0  0  0  0  0
  190.9960  171.7120  140.1210 C   0  0  0  0  0  2  0  0  0  0  0  0
  193.1160  172.4610  138.9900 N   0  0  0  0  0  2  0  0  0  0  0  0
  191.1150  172.2850  137.8070 O   0  0  0  0  0  0  0  0  0  0  0  0
  191.7280  172.1440  138.8980 C   0  0  0  0  0  0  0  0  0  0  0  0
  193.7530  173.2480  138.0190 N   0  0  0  0  0  2  0  0  0  0  0  0
  197.4540  175.5990  138.0640 O   0  0  0  0  0  1  0  0  0  0  0  0
  195.6830  172.7710  136.2340 S   0  0  0  0  0  0  0  0  0  0  0  0
  196.4320  174.3860  136.3400 N   0  0  0  0  0  0  0  0  0  0  0  0
  196.0590  173.7730  138.6590 C   0  0  2  0  0  3  0  0  0  0  0  0
  196.2900  174.9180  137.7010 C   0  0  1  0  0  3  0  0  0  0  0  0
  195.1390  172.7990  137.9610 C   0  0  1  0  0  3  0  0  0  0  0  0
  194.4910  175.9140  135.8270 C   0  0  0  0  0  1  0  0  0  0  0  0
  195.7880  175.2560  135.3420 C   0  0  1  0  0  3  0  0  0  0  0  0
  196.7520  176.2550  134.7820 C   0  0  0  0  0  0  0  0  0  0  0  0
  196.3210  177.5490  134.5230 O   0  0  0  0  0  1  0  0  0  0  0  0
  197.9400  175.9280  134.5150 O   0  0  0  0  0  0  0  0  0  0  0  0
  195.5080  174.2340  139.8590 O   0  0  0  0  0  0  0  0  0  0  0  0
  195.9830  174.1590  142.1590 C   0  0  0  0  0  2  0  0  0  0  0  0
  197.1750  174.2690  141.4230 O   0  0  0  0  0  0  0  0  0  0  0  0
  196.1510  173.4910  140.8510 C   0  0  2  0  0  3  0  0  0  0  0  0
  1  2  2  0  0  0  0
  1 11  1  0  0  0  0
  3  2  2  0  0  0  0
  3 16  1  0  0  0  0
  4 10  1  0  0  0  0
  4 18  1  0  0  0  0
  5  1  1  0  0  0  0
  7  5  2  0  0  0  0
  8 12  1  0  0  0  0
  9 11  1  0  0  0  0
 10 17  1  6  0  0  0
 10  5  1  0  0  0  0
 11 15  2  0  0  0  0
 12  4  2  0  0  0  0
 13  8  2  0  0  0  0
 14  8  1  1  0  0  0
 14 17  1  0  0  0  0
 17  6  2  0  0  0  0
 18  9  1  0  0  0  0
 19 28  1  6  0  0  0
 19 24  1  0  0  0  0
 20 25  1  0  0  0  0
 21 28  1  0  0  0  0
 22 27  2  0  0  0  0
 23 19  1  0  0  0  0
 23 20  1  1  0  0  0
 24 25  1  0  0  0  0
 24  3  1  1  0  0  0
 25 26  2  0  0  0  0
 27 29  1  0  0  0  0
 27 21  1  0  0  0  0
 29 23  1  0  0  0  0
 30 14  1  6  0  0  0
 31 32  1  1  0  0  0
 31 30  1  0  0  0  0
 33 34  1  6  0  0  0
 33 31  1  0  0  0  0
 33 30  1  0  0  0  0
 34 35  1  0  0  0  0
 34 31  1  0  0  0  0
 37 38  2  0  0  0  0
 38 36  1  0  0  0  0
 38 35  1  0  0  0  0
 39 36  1  0  0  0  0
 41 42  1  0  0  0  0
 41 45  1  0  0  0  0
 42 44  1  0  0  0  0
 43 51  1  1  0  0  0
 44 40  1  1  0  0  0
 44 43  1  0  0  0  0
 45 39  1  6  0  0  0
 45 43  1  0  0  0  0
 47 46  1  1  0  0  0
 47 42  1  0  0  0  0
 48 47  1  0  0  0  0
 49 48  1  0  0  0  0
 50 48  2  0  0  0  0
 53 52  1  0  0  0  0
 54 51  1  6  0  0  0
 54 53  1  0  0  0  0
 54 52  1  0  0  0  0
M  END
>  <MODEL>
1

>  <REMARK>
 VINA RESULT:      -7.7      0.000      0.000
  Name = 
  10 active torsions:
  status: ('A' for Active; 'I' for Inactive)
    1  A    between atoms: N_3  and  N_30
    2  A    between atoms: C_6  and  C_28
    3  A    between atoms: O_10  and  C_17
    4  A    between atoms: O_10  and  C_37
    5  A    between atoms: N_16  and  C_54
    6  A    between atoms: C_26  and  N_30
    7  A    between atoms: C_27  and  C_54
    8  A    between atoms: C_36  and  C_46
    9  A    between atoms: C_38  and  C_40
   10  A    between atoms: C_40  and  N_52
                            x       y       z     vdW  Elec       q    Type
                         _______ _______ _______ _____ _____    ______ ____

>  <TORSDO>
F 10

$$$$
=
 OpenBabel11062419093D

 54 61  0  0  1  0  0  0  0  0999 V2000
  189.9390  175.8660  146.3350 C   0  0  0  0  0  0  0  0  0  0  0  0
  188.7740  176.4590  146.4250 C   0  0  0  0  0  0  0  0  0  0  0  0
  187.6100  177.0480  146.3950 C   0  0  0  0  0  0  0  0  0  0  0  0
  192.3620  175.6200  144.4210 C   0  0  0  0  0  0  0  0  0  0  0  0
  190.1470  174.8850  145.2500 C   0  0  0  0  0  0  0  0  0  0  0  0
  191.5320  172.1700  144.2640 O   0  0  0  0  0  0  0  0  0  0  0  0
  189.1480  174.4260  144.6300 O   0  0  0  0  0  0  0  0  0  0  0  0
  192.4250  174.7610  142.0630 C   0  0  0  0  0  0  0  0  0  0  0  0
  192.3380  176.6670  146.6370 N   0  0  0  0  0  2  0  0  0  0  0  0
  191.5370  174.4480  144.8820 C   0  0  1  0  0  3  0  0  0  0  0  0
  191.0540  176.3290  147.1800 C   0  0  0  0  0  0  0  0  0  0  0  0
  192.7800  175.7240  143.0570 N   0  0  0  0  0  0  0  0  0  0  0  0
  192.8700  174.8900  140.8930 O   0  0  0  0  0  0  0  0  0  0  0  0
  191.5260  173.6080  142.3940 C   0  0  1  0  0  3  0  0  0  0  0  0
  190.8530  176.5070  148.4130 O   0  0  0  0  0  0  0  0  0  0  0  0
  186.4820  176.4070  147.1370 C   0  0  0  0  0  1  0  0  0  0  0  0
  191.5550  173.3260  143.8720 C   0  0  0  0  0  0  0  0  0  0  0  0
  192.7490  176.5770  145.2670 C   0  0  0  0  0  2  0  0  0  0  0  0
  187.4150  177.5900  144.0270 N   0  0  2  0  0  0  0  0  0  0  0  0
  185.3680  178.8210  144.1340 C   0  0  0  0  0  2  0  0  0  0  0  0
  188.6490  176.9800  142.0080 C   0  0  0  0  0  2  0  0  0  0  0  0
  187.1510  176.7580  140.1430 O   0  0  0  0  0  0  0  0  0  0  0  0
  186.5510  178.4720  143.2620 C   0  0  2  0  0  3  0  0  0  0  0  0
  187.3940  178.1470  145.3770 C   0  0  1  0  0  3  0  0  0  0  0  0
  186.0450  178.7930  145.4550 C   0  0  0  0  0  0  0  0  0  0  0  0
  185.5780  179.2990  146.4630 O   0  0  0  0  0  0  0  0  0  0  0  0
  187.3210  177.2000  141.3100 C   0  0  0  0  0  0  0  0  0  0  0  0
  188.7210  177.6760  143.3830 C   0  0  0  0  0  2  0  0  0  0  0  0
  186.2350  177.8460  141.9940 N   0  0  0  0  0  2  0  0  0  0  0  0
  190.0980  173.8960  141.9400 C   0  0  2  0  0  3  0  0  0  0  0  0
  189.4930  172.6840  141.2690 C   0  0  1  0  0  0  0  0  0  0  0  0
  187.9830  172.7200  141.3600 C   0  0  0  0  0  1  0  0  0  0  0  0
  189.9330  173.8450  140.4390 C   0  0  2  0  0  3  0  0  0  0  0  0
  189.9180  172.4880  139.8740 N   0  0  0  0  0  0  0  0  0  0  0  0
  191.2780  171.9630  139.8630 C   0  0  0  0  0  2  0  0  0  0  0  0
  193.3080  172.5300  138.4870 N   0  0  0  0  0  2  0  0  0  0  0  0
  191.2070  172.3050  137.5010 O   0  0  0  0  0  0  0  0  0  0  0  0
  191.9100  172.2500  138.5450 C   0  0  0  0  0  0  0  0  0  0  0  0
  193.8750  173.1980  137.3920 N   0  0  0  0  0  2  0  0  0  0  0  0
  196.1330  176.3820  135.3920 O   0  0  0  0  0  1  0  0  0  0  0  0
  195.6970  174.6180  138.7350 S   0  0  0  0  0  0  0  0  0  0  0  0
  196.6300  175.1200  137.3020 N   0  0  0  0  0  0  0  0  0  0  0  0
  194.3230  175.4870  136.6410 C   0  0  2  0  0  3  0  0  0  0  0  0
  195.7360  175.2770  136.1480 C   0  0  1  0  0  3  0  0  0  0  0  0
  194.1330  174.5660  137.8240 C   0  0  1  0  0  3  0  0  0  0  0  0
  197.9410  173.1820  138.2450 C   0  0  0  0  0  1  0  0  0  0  0  0
  197.6700  174.1070  137.0540 C   0  0  1  0  0  3  0  0  0  0  0  0
  197.4000  173.3410  135.7960 C   0  0  0  0  0  0  0  0  0  0  0  0
  196.6650  172.1650  135.8560 O   0  0  0  0  0  1  0  0  0  0  0  0
  197.8580  173.7350  134.6880 O   0  0  0  0  0  0  0  0  0  0  0  0
  193.3990  175.2220  135.6260 O   0  0  0  0  0  0  0  0  0  0  0  0
  191.2870  175.9640  134.9130 C   0  0  0  0  0  2  0  0  0  0  0  0
  192.0550  177.0520  135.3580 O   0  0  0  0  0  0  0  0  0  0  0  0
  192.2210  175.8390  136.0520 C   0  0  2  0  0  3  0  0  0  0  0  0
  1  2  2  0  0  0  0
  1 11  1  0  0  0  0
  3  2  2  0  0  0  0
  3 16  1  0  0  0  0
  4 10  1  0  0  0  0
  4 18  1  0  0  0  0
  5  1  1  0  0  0  0
  7  5  2  0  0  0  0
  8 12  1  0  0  0  0
  9 11  1  0  0  0  0
 10 17  1  6  0  0  0
 10  5  1  0  0  0  0
 11 15  2  0  0  0  0
 12  4  2  0  0  0  0
 13  8  2  0  0  0  0
 14  8  1  1  0  0  0
 14 17  1  0  0  0  0
 17  6  2  0  0  0  0
 18  9  1  0  0  0  0
 19 28  1  6  0  0  0
 19 24  1  0  0  0  0
 20 25  1  0  0  0  0
 21 28  1  0  0  0  0
 22 27  2  0  0  0  0
 23 19  1  0  0  0  0
 23 20  1  1  0  0  0
 24 25  1  0  0  0  0
 24  3  1  1  0  0  0
 25 26  2  0  0  0  0
 27 29  1  0  0  0  0
 27 21  1  0  0  0  0
 29 23  1  0  0  0  0
 30 14  1  6  0  0  0
 31 32  1  1  0  0  0
 31 30  1  0  0  0  0
 33 34  1  6  0  0  0
 33 31  1  0  0  0  0
 33 30  1  0  0  0  0
 34 31  1  0  0  0  0
 35 34  1  0  0  0  0
 36 38  1  0  0  0  0
 37 38  2  0  0  0  0
 38 35  1  0  0  0  0
 39 36  1  0  0  0  0
 42 41  1  0  0  0  0
 43 51  1  6  0  0  0
 43 45  1  0  0  0  0
 44 40  1  1  0  0  0
 44 43  1  0  0  0  0
 44 42  1  0  0  0  0
 45 39  1  6  0  0  0
 45 41  1  0  0  0  0
 47 42  1  0  0  0  0
 47 46  1  1  0  0  0
 48 49  1  0  0  0  0
 48 47  1  0  0  0  0
 50 48  2  0  0  0  0
 52 53  1  0  0  0  0
 52 54  1  0  0  0  0
 53 54  1  0  0  0  0
 54 51  1  6  0  0  0
M  END
>  <MODEL>
2

>  <REMARK>
 VINA RESULT:      -7.4      1.410      2.488
  Name = 
  10 active torsions:
  status: ('A' for Active; 'I' for Inactive)
    1  A    between atoms: N_3  and  N_30
    2  A    between atoms: C_6  and  C_28
    3  A    between atoms: O_10  and  C_17
    4  A    between atoms: O_10  and  C_37
    5  A    between atoms: N_16  and  C_54
    6  A    between atoms: C_26  and  N_30
    7  A    between atoms: C_27  and  C_54
    8  A    between atoms: C_36  and  C_46
    9  A    between atoms: C_38  and  C_40
   10  A    between atoms: C_40  and  N_52
                            x       y       z     vdW  Elec       q    Type
                         _______ _______ _______ _____ _____    ______ ____

>  <TORSDO>
F 10

$$$$
=
 OpenBabel11062419093D

 54 61  0  0  1  0  0  0  0  0999 V2000
  195.4990  174.0170  141.1280 C   0  0  0  0  0  0  0  0  0  0  0  0
  195.6840  172.7230  141.0410 C   0  0  0  0  0  0  0  0  0  0  0  0
  195.8430  171.4290  141.0710 C   0  0  0  0  0  0  0  0  0  0  0  0
  195.7090  176.3360  143.1710 C   0  0  0  0  0  0  0  0  0  0  0  0
  194.4570  174.5190  142.0480 C   0  0  0  0  0  0  0  0  0  0  0  0
  192.2110  176.7140  142.6800 O   0  0  0  0  0  0  0  0  0  0  0  0
  193.5900  173.7180  142.4970 O   0  0  0  0  0  0  0  0  0  0  0  0
  194.4970  176.6310  145.3490 C   0  0  0  0  0  0  0  0  0  0  0  0
  197.0820  176.0120  141.1660 N   0  0  0  0  0  2  0  0  0  0  0  0
  194.4380  175.9660  142.4530 C   0  0  1  0  0  3  0  0  0  0  0  0
  196.4490  174.9300  140.4680 C   0  0  0  0  0  0  0  0  0  0  0  0
  195.6890  176.6630  144.5630 N   0  0  0  0  0  2  0  0  0  0  0  0
  194.5460  176.9780  146.5580 O   0  0  0  0  0  0  0  0  0  0  0  0
  193.1960  176.1810  144.7570 C   0  0  1  0  0  3  0  0  0  0  0  0
  196.7760  174.7100  139.2700 O   0  0  0  0  0  0  0  0  0  0  0  0
  195.0170  170.6000  140.1410 C   0  0  0  0  0  1  0  0  0  0  0  0
  193.2180  176.3380  143.2600 C   0  0  0  0  0  0  0  0  0  0  0  0
  196.8790  176.3980  142.5320 C   0  0  0  0  0  3  0  0  0  0  0  0
  196.7000  171.8040  143.3210 N   0  0  2  0  0  0  0  0  0  0  0  0
  195.7960  169.8450  144.3540 C   0  0  0  0  0  2  0  0  0  0  0  0
  197.8960  173.6200  144.4330 C   0  0  0  0  0  2  0  0  0  0  0  0
  197.1700  173.8330  146.7140 O   0  0  0  0  0  0  0  0  0  0  0  0
  196.7640  170.9920  144.5250 C   0  0  2  0  0  3  0  0  0  0  0  0
  196.6020  170.8310  142.2360 C   0  0  1  0  0  3  0  0  0  0  0  0
  195.9100  169.6710  142.8830 C   0  0  0  0  0  0  0  0  0  0  0  0
  195.5420  168.6690  142.2920 O   0  0  0  0  0  0  0  0  0  0  0  0
  197.2080  173.1090  145.6840 C   0  0  0  0  0  0  0  0  0  0  0  0
  197.9410  172.5680  143.3060 C   0  0  0  0  0  2  0  0  0  0  0  0
  196.5390  171.8370  145.6810 N   0  0  0  0  0  2  0  0  0  0  0  0
  192.9110  174.7290  145.1310 C   0  0  2  0  0  3  0  0  0  0  0  0
  191.4230  174.4780  145.2130 C   0  0  1  0  0  0  0  0  0  0  0  0
  191.1140  173.0150  144.9820 C   0  0  0  0  0  1  0  0  0  0  0  0
  192.2240  174.5870  146.4690 C   0  0  2  0  0  3  0  0  0  0  0  0
  190.7970  174.9430  146.4610 N   0  0  0  0  0  0  0  0  0  0  0  0
  190.6700  176.3940  146.4140 C   0  0  0  0  0  2  0  0  0  0  0  0
  188.4160  176.2200  145.3060 N   0  0  0  0  0  2  0  0  0  0  0  0
  188.7460  177.5930  147.1610 O   0  0  0  0  0  0  0  0  0  0  0  0
  189.2280  176.7640  146.3460 C   0  0  0  0  0  0  0  0  0  0  0  0
  187.2050  176.8210  144.9340 N   0  0  0  0  0  2  0  0  0  0  0  0
  185.8390  177.2320  140.7870 O   0  0  0  0  0  1  0  0  0  0  0  0
  188.9550  177.2940  142.9710 S   0  0  0  0  0  0  0  0  0  0  0  0
  187.9340  176.6500  141.6580 N   0  0  0  0  0  0  0  0  0  0  0  0
  186.4060  178.0220  142.9530 C   0  0  2  0  0  3  0  0  0  0  0  0
  186.5170  176.8890  141.9590 C   0  0  1  0  0  3  0  0  0  0  0  0
  187.5300  177.8420  143.9450 C   0  0  1  0  0  3  0  0  0  0  0  0
  187.3820  174.3060  142.4100 C   0  0  0  0  0  1  0  0  0  0  0  0
  188.2280  175.2150  141.5120 C   0  0  1  0  0  3  0  0  0  0  0  0
  188.1830  174.7890  140.0770 C   0  0  0  0  0  0  0  0  0  0  0  0
  188.5510  173.4950  139.7370 O   0  0  0  0  0  1  0  0  0  0  0  0
  187.8430  175.6000  139.1720 O   0  0  0  0  0  0  0  0  0  0  0  0
  185.1560  178.0100  143.5810 O   0  0  0  0  0  0  0  0  0  0  0  0
  184.2750  179.0350  145.5030 C   0  0  0  0  0  2  0  0  0  0  0  0
  183.7750  179.6610  144.3490 O   0  0  0  0  0  0  0  0  0  0  0  0
  185.1070  179.2100  144.2920 C   0  0  2  0  0  3  0  0  0  0  0  0
  1  5  1  0  0  0  0
  2  3  2  0  0  0  0
  2  1  2  0  0  0  0
  4 12  1  0  0  0  0
  5  7  2  0  0  0  0
  6 17  2  0  0  0  0
  8 13  2  0  0  0  0
  9 18  1  0  0  0  0
 10  5  1  1  0  0  0
 10  4  1  0  0  0  0
 10 17  1  0  0  0  0
 11  1  1  0  0  0  0
 11  9  1  0  0  0  0
 12  8  1  0  0  0  0
 14 17  1  6  0  0  0
 14  8  1  0  0  0  0
 15 11  2  0  0  0  0
 16  3  1  0  0  0  0
 18  4  2  0  0  0  0
 19 28  1  6  0  0  0
 19 23  1  0  0  0  0
 21 27  1  0  0  0  0
 23 20  1  6  0  0  0
 23 29  1  0  0  0  0
 24  3  1  6  0  0  0
 24 25  1  0  0  0  0
 24 19  1  0  0  0  0
 25 20  1  0  0  0  0
 26 25  2  0  0  0  0
 27 22  2  0  0  0  0
 28 21  1  0  0  0  0
 29 27  1  0  0  0  0
 30 14  1  1  0  0  0
 30 31  1  0  0  0  0
 30 33  1  0  0  0  0
 31 32  1  6  0  0  0
 31 34  1  0  0  0  0
 31 33  1  0  0  0  0
 33 34  1  1  0  0  0
 35 34  1  0  0  0  0
 36 38  1  0  0  0  0
 38 35  1  0  0  0  0
 38 37  2  0  0  0  0
 39 36  1  0  0  0  0
 41 45  1  0  0  0  0
 42 44  1  0  0  0  0
 42 41  1  0  0  0  0
 43 51  1  1  0  0  0
 43 45  1  0  0  0  0
 44 40  1  6  0  0  0
 44 43  1  0  0  0  0
 45 39  1  1  0  0  0
 47 42  1  0  0  0  0
 47 46  1  1  0  0  0
 48 47  1  0  0  0  0
 49 48  1  0  0  0  0
 50 48  2  0  0  0  0
 53 52  1  0  0  0  0
 54 51  1  6  0  0  0
 54 53  1  0  0  0  0
 54 52  1  0  0  0  0
M  END
>  <MODEL>
3

>  <REMARK>
 VINA RESULT:      -7.2      3.267      9.803
  Name = 
  10 active torsions:
  status: ('A' for Active; 'I' for Inactive)
    1  A    between atoms: N_3  and  N_30
    2  A    between atoms: C_6  and  C_28
    3  A    between atoms: O_10  and  C_17
    4  A    between atoms: O_10  and  C_37
    5  A    between atoms: N_16  and  C_54
    6  A    between atoms: C_26  and  N_30
    7  A    between atoms: C_27  and  C_54
    8  A    between atoms: C_36  and  C_46
    9  A    between atoms: C_38  and  C_40
   10  A    between atoms: C_40  and  N_52
                            x       y       z     vdW  Elec       q    Type
                         _______ _______ _______ _____ _____    ______ ____

>  <TORSDO>
F 10

$$$$
=
 OpenBabel11062419093D

 54 61  0  0  1  0  0  0  0  0999 V2000
  195.4970  170.9890  141.5660 C   0  0  0  0  0  0  0  0  0  0  0  0
  196.0270  171.6660  140.5790 C   0  0  0  0  0  0  0  0  0  0  0  0
  196.4680  172.4210  139.6100 C   0  0  0  0  0  0  0  0  0  0  0  0
  192.7600  170.4790  142.9250 C   0  0  0  0  0  0  0  0  0  0  0  0
  194.8800  171.7370  142.6820 C   0  0  0  0  0  0  0  0  0  0  0  0
  194.2430  171.9160  145.8160 O   0  0  0  0  0  0  0  0  0  0  0  0
  195.1240  172.9680  142.8120 O   0  0  0  0  0  0  0  0  0  0  0  0
  191.2210  172.1240  144.0330 C   0  0  0  0  0  0  0  0  0  0  0  0
  194.1080  168.8560  141.6770 N   0  0  0  0  0  2  0  0  0  0  0  0
  193.9600  171.0380  143.6430 C   0  0  1  0  0  3  0  0  0  0  0  0
  195.3550  169.5270  141.4470 C   0  0  0  0  0  0  0  0  0  0  0  0
  191.4570  171.0230  143.1540 N   0  0  0  0  0  2  0  0  0  0  0  0
  190.0410  172.5190  144.2220 O   0  0  0  0  0  0  0  0  0  0  0  0
  192.3570  172.8180  144.7210 C   0  0  1  0  0  3  0  0  0  0  0  0
  196.3430  168.8470  141.0560 O   0  0  0  0  0  0  0  0  0  0  0  0
  197.8780  172.9130  139.6920 C   0  0  0  0  0  1  0  0  0  0  0  0
  193.5530  171.9080  144.8080 C   0  0  0  0  0  0  0  0  0  0  0  0
  192.8680  169.4500  142.0830 C   0  0  0  0  0  3  0  0  0  0  0  0
  194.1160  172.5420  138.9860 N   0  0  2  0  0  0  0  0  0  0  0  0
  193.9210  174.9230  138.8780 C   0  0  0  0  0  2  0  0  0  0  0  0
  192.3090  170.9160  138.7380 C   0  0  0  0  0  2  0  0  0  0  0  0
  190.2190  171.8670  139.4460 O   0  0  0  0  0  0  0  0  0  0  0  0
  193.2440  173.6160  138.5400 C   0  0  2  0  0  3  0  0  0  0  0  0
  195.4590  173.0030  138.6440 C   0  0  1  0  0  3  0  0  0  0  0  0
  195.3330  174.4940  138.7180 C   0  0  0  0  0  0  0  0  0  0  0  0
  196.2650  175.2720  138.5960 O   0  0  0  0  0  0  0  0  0  0  0  0
  191.4100  172.0830  139.0970 C   0  0  0  0  0  0  0  0  0  0  0  0
  193.6950  171.3660  138.2330 C   0  0  0  0  0  2  0  0  0  0  0  0
  191.9250  173.4250  139.1090 N   0  0  0  0  0  2  0  0  0  0  0  0
  192.7260  174.1030  143.9840 C   0  0  2  0  0  3  0  0  0  0  0  0
  193.0180  175.2170  144.9630 C   0  0  1  0  0  0  0  0  0  0  0  0
  193.9260  176.2530  144.3380 C   0  0  0  0  0  1  0  0  0  0  0  0
  191.7300  175.2170  144.2060 C   0  0  2  0  0  3  0  0  0  0  0  0
  191.8200  175.8600  145.5260 N   0  0  0  0  0  0  0  0  0  0  0  0
  191.2340  174.9750  146.5260 C   0  0  0  0  0  2  0  0  0  0  0  0
  189.1440  175.9580  145.5240 N   0  0  0  0  0  2  0  0  0  0  0  0
  189.0400  174.4860  147.3280 O   0  0  0  0  0  0  0  0  0  0  0  0
  189.7500  175.0940  146.4850 C   0  0  0  0  0  0  0  0  0  0  0  0
  187.8350  176.4320  145.6880 N   0  0  0  0  0  2  0  0  0  0  0  0
  185.3010  177.3790  142.2360 O   0  0  0  0  0  1  0  0  0  0  0  0
  188.8790  177.5860  143.5160 S   0  0  0  0  0  0  0  0  0  0  0  0
  187.6130  177.0320  142.3890 N   0  0  0  0  0  0  0  0  0  0  0  0
  186.3620  177.8260  144.3130 C   0  0  2  0  0  3  0  0  0  0  0  0
  186.3230  176.9460  143.0840 C   0  0  1  0  0  3  0  0  0  0  0  0
  187.7360  177.6660  144.9190 C   0  0  1  0  0  3  0  0  0  0  0  0
  187.4270  174.5220  142.5690 C   0  0  0  0  0  1  0  0  0  0  0  0
  188.0270  175.7300  141.8400 C   0  0  1  0  0  3  0  0  0  0  0  0
  187.8040  175.6630  140.3610 C   0  0  0  0  0  0  0  0  0  0  0  0
  187.1190  176.6910  139.7260 O   0  0  0  0  0  1  0  0  0  0  0  0
  188.2050  174.6720  139.6910 O   0  0  0  0  0  0  0  0  0  0  0  0
  185.3550  177.4650  145.2130 O   0  0  0  0  0  0  0  0  0  0  0  0
  184.4600  178.3020  147.2180 C   0  0  0  0  0  2  0  0  0  0  0  0
  183.6830  178.7290  146.1270 O   0  0  0  0  0  0  0  0  0  0  0  0
  185.0720  178.6390  145.9140 C   0  0  2  0  0  3  0  0  0  0  0  0
  1  5  1  0  0  0  0
  2  1  2  0  0  0  0
  3 16  1  0  0  0  0
  3  2  2  0  0  0  0
  4 12  1  0  0  0  0
  4 10  1  0  0  0  0
  5  7  2  0  0  0  0
  8 13  2  0  0  0  0
  9 18  1  0  0  0  0
 10  5  1  6  0  0  0
 10 17  1  0  0  0  0
 11  1  1  0  0  0  0
 11  9  1  0  0  0  0
 12  8  1  0  0  0  0
 14  8  1  6  0  0  0
 14 17  1  0  0  0  0
 15 11  2  0  0  0  0
 17  6  2  0  0  0  0
 18  4  2  0  0  0  0
 19 28  1  6  0  0  0
 21 27  1  0  0  0  0
 23 20  1  1  0  0  0
 23 19  1  0  0  0  0
 23 29  1  0  0  0  0
 24 25  1  0  0  0  0
 24 19  1  0  0  0  0
 24  3  1  1  0  0  0
 25 20  1  0  0  0  0
 26 25  2  0  0  0  0
 27 29  1  0  0  0  0
 27 22  2  0  0  0  0
 28 21  1  0  0  0  0
 30 33  1  0  0  0  0
 30 14  1  1  0  0  0
 30 31  1  0  0  0  0
 31 32  1  6  0  0  0
 31 34  1  0  0  0  0
 33 31  1  0  0  0  0
 33 34  1  1  0  0  0
 34 35  1  0  0  0  0
 36 39  1  0  0  0  0
 36 38  1  0  0  0  0
 38 35  1  0  0  0  0
 38 37  2  0  0  0  0
 41 45  1  0  0  0  0
 42 44  1  0  0  0  0
 42 41  1  0  0  0  0
 43 45  1  0  0  0  0
 43 51  1  1  0  0  0
 44 40  1  6  0  0  0
 44 43  1  0  0  0  0
 45 39  1  6  0  0  0
 47 42  1  0  0  0  0
 47 46  1  1  0  0  0
 48 47  1  0  0  0  0
 49 48  1  0  0  0  0
 50 48  2  0  0  0  0
 53 52  1  0  0  0  0
 54 51  1  6  0  0  0
 54 53  1  0  0  0  0
 54 52  1  0  0  0  0
M  END
>  <MODEL>
4

>  <REMARK>
 VINA RESULT:      -7.0      2.735      9.516
  Name = 
  10 active torsions:
  status: ('A' for Active; 'I' for Inactive)
    1  A    between atoms: N_3  and  N_30
    2  A    between atoms: C_6  and  C_28
    3  A    between atoms: O_10  and  C_17
    4  A    between atoms: O_10  and  C_37
    5  A    between atoms: N_16  and  C_54
    6  A    between atoms: C_26  and  N_30
    7  A    between atoms: C_27  and  C_54
    8  A    between atoms: C_36  and  C_46
    9  A    between atoms: C_38  and  C_40
   10  A    between atoms: C_40  and  N_52
                            x       y       z     vdW  Elec       q    Type
                         _______ _______ _______ _____ _____    ______ ____

>  <TORSDO>
F 10

$$$$
=
 OpenBabel11062419093D

 54 61  0  0  1  0  0  0  0  0999 V2000
  195.1660  173.0520  139.6740 C   0  0  0  0  0  0  0  0  0  0  0  0
  195.4760  171.7810  139.7370 C   0  0  0  0  0  0  0  0  0  0  0  0
  195.8190  170.5340  139.9120 C   0  0  0  0  0  0  0  0  0  0  0  0
  195.9790  175.7810  140.8940 C   0  0  0  0  0  0  0  0  0  0  0  0
  194.6270  173.7060  140.8840 C   0  0  0  0  0  0  0  0  0  0  0  0
  192.6580  175.8940  142.1480 O   0  0  0  0  0  0  0  0  0  0  0  0
  194.2070  172.9940  141.8390 O   0  0  0  0  0  0  0  0  0  0  0  0
  195.9220  176.5120  143.2950 C   0  0  0  0  0  0  0  0  0  0  0  0
  196.2620  175.0670  138.5660 N   0  0  0  0  0  2  0  0  0  0  0  0
  194.5900  175.2050  140.9810 C   0  0  1  0  0  3  0  0  0  0  0  0
  195.5410  173.8300  138.4790 C   0  0  0  0  0  0  0  0  0  0  0  0
  196.5770  176.4140  142.0290 N   0  0  0  0  0  2  0  0  0  0  0  0
  196.4890  177.1260  144.2360 O   0  0  0  0  0  0  0  0  0  0  0  0
  194.5790  175.8860  143.5180 C   0  0  1  0  0  3  0  0  0  0  0  0
  195.2870  173.3580  137.3380 O   0  0  0  0  0  0  0  0  0  0  0  0
  194.7820  169.4830  139.6800 C   0  0  0  0  0  1  0  0  0  0  0  0
  193.8620  175.7000  142.2070 C   0  0  0  0  0  0  0  0  0  0  0  0
  196.6800  175.7440  139.7590 C   0  0  0  0  0  3  0  0  0  0  0  0
  196.9210  170.3280  142.0760 N   0  0  2  0  0  0  0  0  0  0  0  0
  197.9400  168.1920  141.7290 C   0  0  0  0  0  2  0  0  0  0  0  0
  196.9250  171.6280  144.1440 C   0  0  0  0  0  2  0  0  0  0  0  0
  197.0730  170.1740  146.0510 O   0  0  0  0  0  0  0  0  0  0  0  0
  197.9040  169.4080  142.6230 C   0  0  2  0  0  3  0  0  0  0  0  0
  197.1200  170.2480  140.6310 C   0  0  1  0  0  3  0  0  0  0  0  0
  197.6300  168.8530  140.4360 C   0  0  0  0  0  0  0  0  0  0  0  0
  197.8330  168.3380  139.3490 O   0  0  0  0  0  0  0  0  0  0  0  0
  197.2190  170.2960  144.8060 C   0  0  0  0  0  0  0  0  0  0  0  0
  197.2570  171.6310  142.6380 C   0  0  0  0  0  2  0  0  0  0  0  0
  197.5950  169.1560  144.0170 N   0  0  0  0  0  2  0  0  0  0  0  0
  194.7240  174.5460  144.2340 C   0  0  2  0  0  3  0  0  0  0  0  0
  193.4270  174.1520  144.9030 C   0  0  1  0  0  0  0  0  0  0  0  0
  193.3510  172.6510  145.0790 C   0  0  0  0  0  1  0  0  0  0  0  0
  194.5620  174.6560  145.7320 C   0  0  2  0  0  3  0  0  0  0  0  0
  193.1740  174.8310  146.1830 N   0  0  0  0  0  0  0  0  0  0  0  0
  192.7570  176.2030  145.9170 C   0  0  0  0  0  2  0  0  0  0  0  0
  190.5590  177.1180  145.1010 N   0  0  0  0  0  2  0  0  0  0  0  0
  190.6670  175.7180  146.9630 O   0  0  0  0  0  0  0  0  0  0  0  0
  191.2750  176.3010  146.0270 C   0  0  0  0  0  0  0  0  0  0  0  0
  189.2660  177.5820  145.3830 N   0  0  0  0  0  2  0  0  0  0  0  0
  186.2590  176.1730  142.5180 O   0  0  0  0  0  1  0  0  0  0  0  0
  189.7600  177.6460  142.7580 S   0  0  0  0  0  0  0  0  0  0  0  0
  188.5840  176.3790  142.3200 N   0  0  0  0  0  0  0  0  0  0  0  0
  187.3550  177.7930  143.8640 C   0  0  2  0  0  3  0  0  0  0  0  0
  187.4340  176.4230  143.2310 C   0  0  1  0  0  3  0  0  0  0  0  0
  188.7740  178.2150  144.1660 C   0  0  1  0  0  3  0  0  0  0  0  0
  188.9930  174.2700  143.6430 C   0  0  0  0  0  1  0  0  0  0  0  0
  189.2730  175.0780  142.3720 C   0  0  1  0  0  3  0  0  0  0  0  0
  189.0260  174.2790  141.1300 C   0  0  0  0  0  0  0  0  0  0  0  0
  189.6350  173.0390  140.9830 O   0  0  0  0  0  1  0  0  0  0  0  0
  188.2970  174.7290  140.2040 O   0  0  0  0  0  0  0  0  0  0  0  0
  186.5680  177.7620  145.0190 O   0  0  0  0  0  0  0  0  0  0  0  0
  184.8200  178.9510  146.0440 C   0  0  0  0  0  2  0  0  0  0  0  0
  184.5220  178.7260  144.6900 O   0  0  0  0  0  0  0  0  0  0  0  0
  185.8720  178.9720  145.0050 C   0  0  2  0  0  3  0  0  0  0  0  0
  1  2  2  0  0  0  0
  1  5  1  0  0  0  0
  2  3  2  0  0  0  0
  4 10  1  0  0  0  0
  4 12  1  0  0  0  0
  5  7  2  0  0  0  0
  6 17  2  0  0  0  0
  8 14  1  0  0  0  0
  8 13  2  0  0  0  0
  9 18  1  0  0  0  0
 10  5  1  1  0  0  0
 10 17  1  0  0  0  0
 11  9  1  0  0  0  0
 11  1  1  0  0  0  0
 12  8  1  0  0  0  0
 14 17  1  6  0  0  0
 15 11  2  0  0  0  0
 16  3  1  0  0  0  0
 18  4  2  0  0  0  0
 19 23  1  0  0  0  0
 19 28  1  1  0  0  0
 21 27  1  0  0  0  0
 23 20  1  6  0  0  0
 23 29  1  0  0  0  0
 24  3  1  6  0  0  0
 24 19  1  0  0  0  0
 25 24  1  0  0  0  0
 25 20  1  0  0  0  0
 26 25  2  0  0  0  0
 27 22  2  0  0  0  0
 28 21  1  0  0  0  0
 29 27  1  0  0  0  0
 30 14  1  6  0  0  0
 30 31  1  0  0  0  0
 30 33  1  0  0  0  0
 31 32  1  1  0  0  0
 31 33  1  0  0  0  0
 31 34  1  0  0  0  0
 33 34  1  6  0  0  0
 35 38  1  0  0  0  0
 35 34  1  0  0  0  0
 36 39  1  0  0  0  0
 36 38  1  0  0  0  0
 38 37  2  0  0  0  0
 41 45  1  0  0  0  0
 42 47  1  0  0  0  0
 42 41  1  0  0  0  0
 42 44  1  0  0  0  0
 43 45  1  0  0  0  0
 43 51  1  1  0  0  0
 44 40  1  6  0  0  0
 44 43  1  0  0  0  0
 45 39  1  1  0  0  0
 47 46  1  1  0  0  0
 48 47  1  0  0  0  0
 49 48  1  0  0  0  0
 50 48  2  0  0  0  0
 53 54  1  0  0  0  0
 53 52  1  0  0  0  0
 54 51  1  1  0  0  0
 54 52  1  0  0  0  0
M  END
>  <MODEL>
5

>  <REMARK>
 VINA RESULT:      -7.0      3.376     10.325
  Name = 
  10 active torsions:
  status: ('A' for Active; 'I' for Inactive)
    1  A    between atoms: N_3  and  N_30
    2  A    between atoms: C_6  and  C_28
    3  A    between atoms: O_10  and  C_17
    4  A    between atoms: O_10  and  C_37
    5  A    between atoms: N_16  and  C_54
    6  A    between atoms: C_26  and  N_30
    7  A    between atoms: C_27  and  C_54
    8  A    between atoms: C_36  and  C_46
    9  A    between atoms: C_38  and  C_40
   10  A    between atoms: C_40  and  N_52
                            x       y       z     vdW  Elec       q    Type
                         _______ _______ _______ _____ _____    ______ ____

>  <TORSDO>
F 10

$$$$
=
 OpenBabel11062419093D

 54 61  0  0  1  0  0  0  0  0999 V2000
  195.6930  173.4550  143.4740 C   0  0  0  0  0  0  0  0  0  0  0  0
  195.9920  172.2820  142.9730 C   0  0  0  0  0  0  0  0  0  0  0  0
  196.1750  171.0840  142.4890 C   0  0  0  0  0  0  0  0  0  0  0  0
  193.6860  174.7890  145.4200 C   0  0  0  0  0  0  0  0  0  0  0  0
  194.3700  174.0360  143.1620 C   0  0  0  0  0  0  0  0  0  0  0  0
  192.6130  176.6540  142.5940 O   0  0  0  0  0  0  0  0  0  0  0  0
  193.6890  173.5540  142.2150 O   0  0  0  0  0  0  0  0  0  0  0  0
  191.1820  174.8900  145.2760 C   0  0  0  0  0  0  0  0  0  0  0  0
  196.1050  174.5480  145.7370 N   0  0  0  0  0  2  0  0  0  0  0  0
  193.8380  175.1830  143.9750 C   0  0  1  0  0  3  0  0  0  0  0  0
  196.5860  174.0630  144.4760 C   0  0  0  0  0  0  0  0  0  0  0  0
  192.3880  174.6730  146.0100 N   0  0  0  0  0  0  0  0  0  0  0  0
  190.0760  174.8180  145.8730 O   0  0  0  0  0  0  0  0  0  0  0  0
  191.2170  175.1900  143.8080 C   0  0  1  0  0  3  0  0  0  0  0  0
  197.8270  174.0930  144.2510 O   0  0  0  0  0  0  0  0  0  0  0  0
  196.7560  170.9650  141.1170 C   0  0  0  0  0  1  0  0  0  0  0  0
  192.5570  175.7560  143.4190 C   0  0  0  0  0  0  0  0  0  0  0  0
  194.7470  174.5640  146.1970 C   0  0  0  0  0  2  0  0  0  0  0  0
  196.0530  169.7810  144.5450 N   0  0  2  0  0  0  0  0  0  0  0  0
  193.6830  169.8700  144.8560 C   0  0  0  0  0  2  0  0  0  0  0  0
  197.6910  168.8160  146.0790 C   0  0  0  0  0  2  0  0  0  0  0  0
  196.8980  168.9410  148.3430 O   0  0  0  0  0  0  0  0  0  0  0  0
  194.9600  169.2040  145.3100 C   0  0  2  0  0  3  0  0  0  0  0  0
  195.5120  169.9210  143.1950 C   0  0  1  0  0  3  0  0  0  0  0  0
  194.0460  170.1100  143.4360 C   0  0  0  0  0  0  0  0  0  0  0  0
  193.2300  170.3650  142.5650 O   0  0  0  0  0  0  0  0  0  0  0  0
  196.6050  169.0020  147.1200 C   0  0  0  0  0  0  0  0  0  0  0  0
  197.1400  168.8150  144.6380 C   0  0  0  0  0  2  0  0  0  0  0  0
  195.2590  169.3150  146.7240 N   0  0  0  0  0  2  0  0  0  0  0  0
  190.9210  173.9310  142.9970 C   0  0  2  0  0  3  0  0  0  0  0  0
  190.4780  174.2880  141.5960 C   0  0  1  0  0  0  0  0  0  0  0  0
  190.7580  173.1480  140.6410 C   0  0  0  0  0  1  0  0  0  0  0  0
  189.4700  173.8160  142.5930 C   0  0  2  0  0  3  0  0  0  0  0  0
  189.0720  174.7080  141.4940 N   0  0  0  0  0  0  0  0  0  0  0  0
  188.9460  176.0670  142.0070 C   0  0  0  0  0  2  0  0  0  0  0  0
  187.1770  177.8560  141.9350 N   0  0  0  0  0  2  0  0  0  0  0  0
  187.4510  176.3590  140.1680 O   0  0  0  0  0  0  0  0  0  0  0  0
  187.8390  176.7650  141.2960 C   0  0  0  0  0  0  0  0  0  0  0  0
  185.9020  178.2770  141.5290 N   0  0  0  0  0  2  0  0  0  0  0  0
  182.9710  179.0840  144.6900 O   0  0  0  0  0  1  0  0  0  0  0  0
  185.6970  176.6470  143.6360 S   0  0  0  0  0  0  0  0  0  0  0  0
  184.9620  177.8500  144.7270 N   0  0  0  0  0  0  0  0  0  0  0  0
  183.7300  178.1280  142.6530 C   0  0  2  0  0  3  0  0  0  0  0  0
  184.1220  178.7780  143.9600 C   0  0  1  0  0  3  0  0  0  0  0  0
  184.9440  177.3770  142.1600 C   0  0  1  0  0  3  0  0  0  0  0  0
  185.5900  179.3350  146.6680 C   0  0  0  0  0  1  0  0  0  0  0  0
  186.0480  178.5510  145.4330 C   0  0  1  0  0  3  0  0  0  0  0  0
  187.1860  177.6290  145.7410 C   0  0  0  0  0  0  0  0  0  0  0  0
  188.3690  177.7400  145.0220 O   0  0  0  0  0  0  0  0  0  0  0  0
  187.0740  176.7350  146.6240 O   0  0  0  0  0  1  0  0  0  0  0  0
  183.3050  179.0870  141.7290 O   0  0  0  0  0  0  0  0  0  0  0  0
  181.1080  179.0910  140.8970 C   0  0  0  0  0  2  0  0  0  0  0  0
  181.3340  177.9320  141.6590 O   0  0  0  0  0  0  0  0  0  0  0  0
  182.4180  178.4050  140.8950 C   0  0  2  0  0  3  0  0  0  0  0  0
  1 11  1  0  0  0  0
  2  1  2  0  0  0  0
  3  2  2  0  0  0  0
  4 12  2  0  0  0  0
  4 18  1  0  0  0  0
  5  1  1  0  0  0  0
  6 17  2  0  0  0  0
  7  5  2  0  0  0  0
  8 13  2  0  0  0  0
  8 12  1  0  0  0  0
  9 18  1  0  0  0  0
 10  5  1  6  0  0  0
 10  4  1  0  0  0  0
 11  9  1  0  0  0  0
 14 17  1  6  0  0  0
 14  8  1  0  0  0  0
 15 11  2  0  0  0  0
 16  3  1  0  0  0  0
 17 10  1  0  0  0  0
 19 28  1  6  0  0  0
 19 23  1  0  0  0  0
 21 27  1  0  0  0  0
 23 20  1  1  0  0  0
 23 29  1  0  0  0  0
 24  3  1  1  0  0  0
 24 25  1  0  0  0  0
 24 19  1  0  0  0  0
 25 20  1  0  0  0  0
 26 25  2  0  0  0  0
 27 22  2  0  0  0  0
 28 21  1  0  0  0  0
 29 27  1  0  0  0  0
 30 14  1  1  0  0  0
 31 32  1  6  0  0  0
 31 33  1  0  0  0  0
 31 30  1  0  0  0  0
 33 34  1  1  0  0  0
 33 30  1  0  0  0  0
 34 31  1  0  0  0  0
 34 35  1  0  0  0  0
 37 38  2  0  0  0  0
 38 36  1  0  0  0  0
 38 35  1  0  0  0  0
 39 36  1  0  0  0  0
 41 42  1  0  0  0  0
 42 47  1  0  0  0  0
 43 51  1  6  0  0  0
 43 44  1  0  0  0  0
 44 40  1  1  0  0  0
 44 42  1  0  0  0  0
 45 39  1  1  0  0  0
 45 43  1  0  0  0  0
 45 41  1  0  0  0  0
 47 48  1  0  0  0  0
 47 46  1  1  0  0  0
 48 50  1  0  0  0  0
 49 48  2  0  0  0  0
 52 53  1  0  0  0  0
 54 52  1  0  0  0  0
 54 53  1  0  0  0  0
 54 51  1  1  0  0  0
M  END
>  <MODEL>
6

>  <REMARK>
 VINA RESULT:      -6.9      4.117     10.539
  Name = 
  10 active torsions:
  status: ('A' for Active; 'I' for Inactive)
    1  A    between atoms: N_3  and  N_30
    2  A    between atoms: C_6  and  C_28
    3  A    between atoms: O_10  and  C_17
    4  A    between atoms: O_10  and  C_37
    5  A    between atoms: N_16  and  C_54
    6  A    between atoms: C_26  and  N_30
    7  A    between atoms: C_27  and  C_54
    8  A    between atoms: C_36  and  C_46
    9  A    between atoms: C_38  and  C_40
   10  A    between atoms: C_40  and  N_52
                            x       y       z     vdW  Elec       q    Type
                         _______ _______ _______ _____ _____    ______ ____

>  <TORSDO>
F 10

$$$$
=
 OpenBabel11062419093D

 54 61  0  0  1  0  0  0  0  0999 V2000
  190.0320  175.8540  146.3850 C   0  0  0  0  0  0  0  0  0  0  0  0
  188.8760  176.4520  146.5350 C   0  0  0  0  0  0  0  0  0  0  0  0
  187.7150  177.0460  146.5650 C   0  0  0  0  0  0  0  0  0  0  0  0
  192.3520  175.6000  144.3480 C   0  0  0  0  0  0  0  0  0  0  0  0
  190.1800  174.8740  145.2890 C   0  0  0  0  0  0  0  0  0  0  0  0
  191.5000  172.1540  144.2300 O   0  0  0  0  0  0  0  0  0  0  0  0
  189.1480  174.4200  144.7200 O   0  0  0  0  0  0  0  0  0  0  0  0
  192.2910  174.7440  141.9890 C   0  0  0  0  0  0  0  0  0  0  0  0
  192.4460  176.6450  146.5640 N   0  0  0  0  0  2  0  0  0  0  0  0
  191.5470  174.4310  144.8500 C   0  0  1  0  0  3  0  0  0  0  0  0
  191.1910  176.3120  147.1720 C   0  0  0  0  0  0  0  0  0  0  0  0
  192.7000  175.7040  142.9650 N   0  0  0  0  0  0  0  0  0  0  0  0
  192.6750  174.8730  140.7980 O   0  0  0  0  0  0  0  0  0  0  0  0
  191.4040  173.5950  142.3640 C   0  0  1  0  0  3  0  0  0  0  0  0
  191.0550  176.4880  148.4130 O   0  0  0  0  0  0  0  0  0  0  0  0
  186.6230  176.4090  147.3630 C   0  0  0  0  0  1  0  0  0  0  0  0
  191.5080  173.3110  143.8390 C   0  0  0  0  0  0  0  0  0  0  0  0
  192.7860  176.5540  145.1740 C   0  0  0  0  0  2  0  0  0  0  0  0
  187.4390  177.5980  144.2080 N   0  0  2  0  0  0  0  0  0  0  0  0
  185.3780  178.7990  144.3850 C   0  0  0  0  0  2  0  0  0  0  0  0
  188.6180  177.0180  142.1480 C   0  0  0  0  0  2  0  0  0  0  0  0
  187.0670  176.7840  140.3290 O   0  0  0  0  0  0  0  0  0  0  0  0
  186.5380  178.4720  143.4750 C   0  0  2  0  0  3  0  0  0  0  0  0
  187.4510  178.1470  145.5610 C   0  0  1  0  0  3  0  0  0  0  0  0
  186.0960  178.7730  145.6840 C   0  0  0  0  0  0  0  0  0  0  0  0
  185.6530  179.2660  146.7090 O   0  0  0  0  0  0  0  0  0  0  0  0
  187.2660  177.2220  141.4930 C   0  0  0  0  0  0  0  0  0  0  0  0
  188.7220  177.7070  143.5240 C   0  0  0  0  0  2  0  0  0  0  0  0
  186.1920  177.8480  142.2130 N   0  0  0  0  0  2  0  0  0  0  0  0
  189.9560  173.8890  141.9850 C   0  0  2  0  0  3  0  0  0  0  0  0
  189.2920  172.6600  141.4070 C   0  0  1  0  0  0  0  0  0  0  0  0
  187.7910  172.7290  141.5870 C   0  0  0  0  0  1  0  0  0  0  0  0
  189.6990  173.7750  140.5010 C   0  0  2  0  0  3  0  0  0  0  0  0
  189.6270  172.3950  140.0000 N   0  0  0  0  0  0  0  0  0  0  0  0
  190.9760  171.8440  139.9300 C   0  0  0  0  0  2  0  0  0  0  0  0
  193.0370  172.4100  138.6010 N   0  0  0  0  0  2  0  0  0  0  0  0
  190.9120  172.5450  137.6490 O   0  0  0  0  0  0  0  0  0  0  0  0
  191.6180  172.2640  138.6540 C   0  0  0  0  0  0  0  0  0  0  0  0
  193.6560  173.1760  137.6030 N   0  0  0  0  0  2  0  0  0  0  0  0
  197.9410  172.7090  136.7910 O   0  0  0  0  0  1  0  0  0  0  0  0
  195.3850  172.8200  139.6090 S   0  0  0  0  0  0  0  0  0  0  0  0
  196.6470  172.0340  138.6240 N   0  0  0  0  0  0  0  0  0  0  0  0
  195.9630  173.9320  137.2730 C   0  0  2  0  0  3  0  0  0  0  0  0
  196.6320  172.5760  137.2600 C   0  0  1  0  0  3  0  0  0  0  0  0
  194.7980  173.8340  138.2280 C   0  0  1  0  0  3  0  0  0  0  0  0
  196.5830  169.9010  137.2780 C   0  0  0  0  0  1  0  0  0  0  0  0
  196.4020  170.5830  138.6390 C   0  0  1  0  0  3  0  0  0  0  0  0
  197.1880  169.9040  139.7170 C   0  0  0  0  0  0  0  0  0  0  0  0
  197.8990  170.6720  140.6300 O   0  0  0  0  0  1  0  0  0  0  0  0
  197.2350  168.6460  139.7890 O   0  0  0  0  0  0  0  0  0  0  0  0
  195.5490  174.2930  135.9880 O   0  0  0  0  0  0  0  0  0  0  0  0
  196.1400  176.1170  134.6290 C   0  0  0  0  0  2  0  0  0  0  0  0
  197.0030  176.0390  135.7350 O   0  0  0  0  0  0  0  0  0  0  0  0
  195.6590  175.6850  135.9590 C   0  0  2  0  0  3  0  0  0  0  0  0
  1  2  2  0  0  0  0
  1 11  1  0  0  0  0
  2  3  2  0  0  0  0
  3 16  1  0  0  0  0
  4 10  1  0  0  0  0
  4 18  1  0  0  0  0
  5  1  1  0  0  0  0
  7  5  2  0  0  0  0
  8 12  1  0  0  0  0
  9 11  1  0  0  0  0
 10 17  1  6  0  0  0
 10  5  1  0  0  0  0
 11 15  2  0  0  0  0
 12  4  2  0  0  0  0
 13  8  2  0  0  0  0
 14  8  1  1  0  0  0
 14 17  1  0  0  0  0
 17  6  2  0  0  0  0
 18  9  1  0  0  0  0
 19 28  1  6  0  0  0
 19 24  1  0  0  0  0
 20 25  1  0  0  0  0
 21 28  1  0  0  0  0
 22 27  2  0  0  0  0
 23 19  1  0  0  0  0
 23 20  1  1  0  0  0
 24 25  1  0  0  0  0
 24  3  1  1  0  0  0
 25 26  2  0  0  0  0
 27 21  1  0  0  0  0
 27 29  1  0  0  0  0
 29 23  1  0  0  0  0
 30 14  1  6  0  0  0
 31 32  1  1  0  0  0
 31 30  1  0  0  0  0
 33 34  1  6  0  0  0
 33 31  1  0  0  0  0
 33 30  1  0  0  0  0
 34 31  1  0  0  0  0
 35 34  1  0  0  0  0
 36 38  1  0  0  0  0
 37 38  2  0  0  0  0
 38 35  1  0  0  0  0
 39 36  1  0  0  0  0
 42 47  1  0  0  0  0
 42 41  1  0  0  0  0
 43 51  1  6  0  0  0
 43 45  1  0  0  0  0
 44 40  1  1  0  0  0
 44 43  1  0  0  0  0
 44 42  1  0  0  0  0
 45 39  1  6  0  0  0
 45 41  1  0  0  0  0
 47 46  1  6  0  0  0
 47 48  1  0  0  0  0
 48 50  2  0  0  0  0
 48 49  1  0  0  0  0
 52 53  1  0  0  0  0
 52 54  1  0  0  0  0
 53 54  1  0  0  0  0
 54 51  1  6  0  0  0
M  END
>  <MODEL>
7

>  <REMARK>
 VINA RESULT:      -6.9      1.572      3.019
  Name = 
  10 active torsions:
  status: ('A' for Active; 'I' for Inactive)
    1  A    between atoms: N_3  and  N_30
    2  A    between atoms: C_6  and  C_28
    3  A    between atoms: O_10  and  C_17
    4  A    between atoms: O_10  and  C_37
    5  A    between atoms: N_16  and  C_54
    6  A    between atoms: C_26  and  N_30
    7  A    between atoms: C_27  and  C_54
    8  A    between atoms: C_36  and  C_46
    9  A    between atoms: C_38  and  C_40
   10  A    between atoms: C_40  and  N_52
                            x       y       z     vdW  Elec       q    Type
                         _______ _______ _______ _____ _____    ______ ____

>  <TORSDO>
F 10

$$$$
=
 OpenBabel11062419093D

 54 61  0  0  1  0  0  0  0  0999 V2000
  195.2820  173.6400  140.1200 C   0  0  0  0  0  0  0  0  0  0  0  0
  195.4800  172.3460  140.0700 C   0  0  0  0  0  0  0  0  0  0  0  0
  195.6850  171.0590  140.1400 C   0  0  0  0  0  0  0  0  0  0  0  0
  195.9550  176.1010  141.8770 C   0  0  0  0  0  0  0  0  0  0  0  0
  194.5090  174.1900  141.2530 C   0  0  0  0  0  0  0  0  0  0  0  0
  192.4430  176.3910  142.3250 O   0  0  0  0  0  0  0  0  0  0  0  0
  193.8220  173.4110  141.9710 O   0  0  0  0  0  0  0  0  0  0  0  0
  195.3630  176.5320  144.2780 C   0  0  0  0  0  0  0  0  0  0  0  0
  196.7500  175.6550  139.6010 N   0  0  0  0  0  2  0  0  0  0  0  0
  194.5510  175.6610  141.5540 C   0  0  1  0  0  3  0  0  0  0  0  0
  195.9900  174.5170  139.1710 C   0  0  0  0  0  0  0  0  0  0  0  0
  196.2990  176.5260  143.1980 N   0  0  0  0  0  2  0  0  0  0  0  0
  195.7230  176.9650  145.4030 O   0  0  0  0  0  0  0  0  0  0  0  0
  193.9660  176.0210  144.0890 C   0  0  1  0  0  3  0  0  0  0  0  0
  195.9900  174.2180  137.9460 O   0  0  0  0  0  0  0  0  0  0  0  0
  194.6680  170.1540  139.5230 C   0  0  0  0  0  1  0  0  0  0  0  0
  193.5810  176.0720  142.6350 C   0  0  0  0  0  0  0  0  0  0  0  0
  196.9080  176.1340  140.9430 C   0  0  0  0  0  3  0  0  0  0  0  0
  196.6480  171.2590  142.3690 N   0  0  2  0  0  0  0  0  0  0  0  0
  196.6140  168.9420  142.9580 C   0  0  0  0  0  2  0  0  0  0  0  0
  197.2840  173.1230  143.8150 C   0  0  0  0  0  2  0  0  0  0  0  0
  196.8340  172.5940  146.1150 O   0  0  0  0  0  0  0  0  0  0  0  0
  197.1430  170.3020  143.3440 C   0  0  2  0  0  3  0  0  0  0  0  0
  196.7480  170.5570  141.0920 C   0  0  1  0  0  3  0  0  0  0  0  0
  196.5880  169.1200  141.4840 C   0  0  0  0  0  0  0  0  0  0  0  0
  196.5110  168.1940  140.6930 O   0  0  0  0  0  0  0  0  0  0  0  0
  196.9820  172.1570  144.9440 C   0  0  0  0  0  0  0  0  0  0  0  0
  197.5390  172.4090  142.4720 C   0  0  0  0  0  2  0  0  0  0  0  0
  196.7950  170.7570  144.6760 N   0  0  0  0  0  2  0  0  0  0  0  0
  193.8410  174.5960  144.6190 C   0  0  2  0  0  3  0  0  0  0  0  0
  192.5240  174.4030  145.3340 C   0  0  1  0  0  0  0  0  0  0  0  0
  192.1200  172.9440  145.3280 C   0  0  0  0  0  1  0  0  0  0  0  0
  193.7830  174.5280  146.1270 C   0  0  2  0  0  3  0  0  0  0  0  0
  192.4950  174.9360  146.7060 N   0  0  0  0  0  0  0  0  0  0  0  0
  192.3850  176.3890  146.6460 C   0  0  0  0  0  2  0  0  0  0  0  0
  190.4180  176.4180  145.0760 N   0  0  0  0  0  2  0  0  0  0  0  0
  190.3080  177.4430  147.1680 O   0  0  0  0  0  0  0  0  0  0  0  0
  190.9770  176.7680  146.3420 C   0  0  0  0  0  0  0  0  0  0  0  0
  189.2890  177.0780  144.5680 N   0  0  0  0  0  2  0  0  0  0  0  0
  185.4450  177.2090  142.4620 O   0  0  0  0  0  1  0  0  0  0  0  0
  187.0190  176.5000  145.8530 S   0  0  0  0  0  0  0  0  0  0  0  0
  185.9480  177.3930  144.7420 N   0  0  0  0  0  0  0  0  0  0  0  0
  187.4290  176.1730  143.2550 C   0  0  2  0  0  3  0  0  0  0  0  0
  186.4890  177.3500  143.3790 C   0  0  1  0  0  3  0  0  0  0  0  0
  188.2070  176.1000  144.5470 C   0  0  1  0  0  3  0  0  0  0  0  0
  185.1070  179.7260  144.2740 C   0  0  0  0  0  1  0  0  0  0  0  0
  185.8230  178.7740  145.2380 C   0  0  1  0  0  3  0  0  0  0  0  0
  185.2290  178.8120  146.6120 C   0  0  0  0  0  0  0  0  0  0  0  0
  185.9230  179.4370  147.6400 O   0  0  0  0  0  1  0  0  0  0  0  0
  184.1220  178.2580  146.8540 O   0  0  0  0  0  0  0  0  0  0  0  0
  188.2730  176.3260  142.1510 O   0  0  0  0  0  0  0  0  0  0  0  0
  188.5870  174.5990  140.5890 C   0  0  0  0  0  2  0  0  0  0  0  0
  187.8330  174.1330  141.6790 O   0  0  0  0  0  0  0  0  0  0  0  0
  188.8470  175.0660  141.9680 C   0  0  2  0  0  3  0  0  0  0  0  0
  1  5  1  0  0  0  0
  2  1  2  0  0  0  0
  2  3  2  0  0  0  0
  4 12  1  0  0  0  0
  5  7  2  0  0  0  0
  6 17  2  0  0  0  0
  8 13  2  0  0  0  0
  9 18  1  0  0  0  0
 10  5  1  1  0  0  0
 10  4  1  0  0  0  0
 10 17  1  0  0  0  0
 11  9  1  0  0  0  0
 11  1  1  0  0  0  0
 12  8  1  0  0  0  0
 14 17  1  6  0  0  0
 14  8  1  0  0  0  0
 15 11  2  0  0  0  0
 16  3  1  0  0  0  0
 18  4  2  0  0  0  0
 19 28  1  6  0  0  0
 19 23  1  0  0  0  0
 21 27  1  0  0  0  0
 23 20  1  6  0  0  0
 23 29  1  0  0  0  0
 24  3  1  6  0  0  0
 24 25  1  0  0  0  0
 24 19  1  0  0  0  0
 25 20  1  0  0  0  0
 26 25  2  0  0  0  0
 27 22  2  0  0  0  0
 28 21  1  0  0  0  0
 29 27  1  0  0  0  0
 30 14  1  1  0  0  0
 30 31  1  0  0  0  0
 30 33  1  0  0  0  0
 31 32  1  6  0  0  0
 31 33  1  0  0  0  0
 31 34  1  0  0  0  0
 33 34  1  1  0  0  0
 35 34  1  0  0  0  0
 36 38  1  0  0  0  0
 38 35  1  0  0  0  0
 38 37  2  0  0  0  0
 39 36  1  0  0  0  0
 42 47  1  0  0  0  0
 42 41  1  0  0  0  0
 43 51  1  6  0  0  0
 43 44  1  0  0  0  0
 43 45  1  0  0  0  0
 44 40  1  6  0  0  0
 44 42  1  0  0  0  0
 45 39  1  6  0  0  0
 45 41  1  0  0  0  0
 47 46  1  6  0  0  0
 47 48  1  0  0  0  0
 48 50  2  0  0  0  0
 48 49  1  0  0  0  0
 52 53  1  0  0  0  0
 52 54  1  0  0  0  0
 53 54  1  0  0  0  0
 54 51  1  6  0  0  0
M  END
>  <MODEL>
8

>  <REMARK>
 VINA RESULT:      -6.8      3.357     10.488
  Name = 
  10 active torsions:
  status: ('A' for Active; 'I' for Inactive)
    1  A    between atoms: N_3  and  N_30
    2  A    between atoms: C_6  and  C_28
    3  A    between atoms: O_10  and  C_17
    4  A    between atoms: O_10  and  C_37
    5  A    between atoms: N_16  and  C_54
    6  A    between atoms: C_26  and  N_30
    7  A    between atoms: C_27  and  C_54
    8  A    between atoms: C_36  and  C_46
    9  A    between atoms: C_38  and  C_40
   10  A    between atoms: C_40  and  N_52
                            x       y       z     vdW  Elec       q    Type
                         _______ _______ _______ _____ _____    ______ ____

>  <TORSDO>
F 10

$$$$
=
 OpenBabel11062419093D

 54 61  0  0  1  0  0  0  0  0999 V2000
  192.4100  172.8760  138.8490 C   0  0  0  0  0  0  0  0  0  0  0  0
  191.7740  171.7430  138.6840 C   0  0  0  0  0  0  0  0  0  0  0  0
  191.1790  170.5830  138.6290 C   0  0  0  0  0  0  0  0  0  0  0  0
  194.8460  174.0610  140.3500 C   0  0  0  0  0  0  0  0  0  0  0  0
  192.4450  173.4730  140.2000 C   0  0  0  0  0  0  0  0  0  0  0  0
  192.4710  176.1170  142.0090 O   0  0  0  0  0  0  0  0  0  0  0  0
  191.6450  173.0560  141.0830 O   0  0  0  0  0  0  0  0  0  0  0  0
  195.2770  174.1620  142.8210 C   0  0  0  0  0  0  0  0  0  0  0  0
  194.5930  173.8080  137.9250 N   0  0  0  0  0  2  0  0  0  0  0  0
  193.4350  174.5570  140.5220 C   0  0  1  0  0  3  0  0  0  0  0  0
  193.2250  173.4160  137.7460 C   0  0  0  0  0  0  0  0  0  0  0  0
  195.7040  173.8990  141.4830 N   0  0  0  0  0  2  0  0  0  0  0  0
  196.1010  174.0450  143.7650 O   0  0  0  0  0  0  0  0  0  0  0  0
  193.8630  174.5650  143.1140 C   0  0  1  0  0  3  0  0  0  0  0  0
  192.7290  173.4660  136.5880 O   0  0  0  0  0  0  0  0  0  0  0  0
  189.7070  170.5630  138.3730 C   0  0  0  0  0  1  0  0  0  0  0  0
  193.2230  175.1630  141.8890 C   0  0  0  0  0  0  0  0  0  0  0  0
  195.3470  173.7870  139.1440 C   0  0  0  0  0  3  0  0  0  0  0  0
  193.2430  169.2960  138.4880 N   0  0  2  0  0  0  0  0  0  0  0  0
  193.7160  169.1660  140.8290 C   0  0  0  0  0  2  0  0  0  0  0  0
  194.6650  168.5040  136.6660 C   0  0  0  0  0  2  0  0  0  0  0  0
  196.9780  168.5780  137.3110 O   0  0  0  0  0  0  0  0  0  0  0  0
  194.0840  168.6270  139.4670 C   0  0  2  0  0  3  0  0  0  0  0  0
  191.9340  169.3700  139.1300 C   0  0  1  0  0  3  0  0  0  0  0  0
  192.2740  169.4240  140.5880 C   0  0  0  0  0  0  0  0  0  0  0  0
  191.4600  169.5920  141.4810 O   0  0  0  0  0  0  0  0  0  0  0  0
  195.7780  168.5980  137.6920 C   0  0  0  0  0  0  0  0  0  0  0  0
  193.2660  168.4360  137.3110 C   0  0  0  0  0  2  0  0  0  0  0  0
  195.4740  168.7790  139.0850 N   0  0  0  0  0  2  0  0  0  0  0  0
  193.0540  173.3660  143.5990 C   0  0  2  0  0  3  0  0  0  0  0  0
  191.8780  173.8160  144.4360 C   0  0  1  0  0  0  0  0  0  0  0  0
  190.7790  172.7760  144.4160 C   0  0  0  0  0  1  0  0  0  0  0  0
  193.0710  173.2110  145.1020 C   0  0  2  0  0  3  0  0  0  0  0  0
  192.2210  174.1710  145.8220 N   0  0  0  0  0  0  0  0  0  0  0  0
  192.8750  175.4740  145.8290 C   0  0  0  0  0  2  0  0  0  0  0  0
  190.5480  176.4290  145.9180 N   0  0  0  0  0  2  0  0  0  0  0  0
  192.2270  177.4560  144.6680 O   0  0  0  0  0  0  0  0  0  0  0  0
  191.8920  176.5250  145.4470 C   0  0  0  0  0  0  0  0  0  0  0  0
  189.5010  177.1160  145.2880 N   0  0  0  0  0  2  0  0  0  0  0  0
  186.0560  177.2450  142.5770 O   0  0  0  0  0  1  0  0  0  0  0  0
  187.0380  176.6300  146.2020 S   0  0  0  0  0  0  0  0  0  0  0  0
  186.1850  177.5020  144.9020 N   0  0  0  0  0  0  0  0  0  0  0  0
  187.8570  176.2010  143.7180 C   0  0  2  0  0  3  0  0  0  0  0  0
  186.9400  177.4000  143.6470 C   0  0  1  0  0  3  0  0  0  0  0  0
  188.4130  176.1600  145.1220 C   0  0  1  0  0  3  0  0  0  0  0  0
  185.3270  179.7940  144.2860 C   0  0  0  0  0  1  0  0  0  0  0  0
  186.0160  178.9030  145.3250 C   0  0  1  0  0  3  0  0  0  0  0  0
  185.3610  178.9940  146.6690 C   0  0  0  0  0  0  0  0  0  0  0  0
  184.0850  178.4760  146.8430 O   0  0  0  0  0  0  0  0  0  0  0  0
  185.9420  179.5610  147.6340 O   0  0  0  0  0  1  0  0  0  0  0  0
  188.8740  176.2970  142.7630 O   0  0  0  0  0  0  0  0  0  0  0  0
  188.5710  174.8890  140.9070 C   0  0  0  0  0  2  0  0  0  0  0  0
  187.7950  174.4370  141.9870 O   0  0  0  0  0  0  0  0  0  0  0  0
  189.0500  174.9910  142.3020 C   0  0  2  0  0  3  0  0  0  0  0  0
  1  5  1  0  0  0  0
  2  1  2  0  0  0  0
  3  2  2  0  0  0  0
  4 10  1  0  0  0  0
  4 12  1  0  0  0  0
  5  7  2  0  0  0  0
  8 14  1  0  0  0  0
  8 13  2  0  0  0  0
  9 18  1  0  0  0  0
 10  5  1  1  0  0  0
 10 17  1  0  0  0  0
 11  9  1  0  0  0  0
 11  1  1  0  0  0  0
 12  8  1  0  0  0  0
 14 17  1  6  0  0  0
 15 11  2  0  0  0  0
 16  3  1  0  0  0  0
 17  6  2  0  0  0  0
 18  4  2  0  0  0  0
 19 28  1  6  0  0  0
 19 24  1  0  0  0  0
 19 23  1  0  0  0  0
 21 28  1  0  0  0  0
 21 27  1  0  0  0  0
 22 27  2  0  0  0  0
 23 20  1  1  0  0  0
 24  3  1  6  0  0  0
 24 25  1  0  0  0  0
 25 20  1  0  0  0  0
 25 26  2  0  0  0  0
 27 29  1  0  0  0  0
 29 23  1  0  0  0  0
 30 14  1  1  0  0  0
 30 31  1  0  0  0  0
 30 33  1  0  0  0  0
 31 32  1  6  0  0  0
 31 33  1  0  0  0  0
 31 34  1  0  0  0  0
 33 34  1  1  0  0  0
 34 35  1  0  0  0  0
 37 38  2  0  0  0  0
 38 35  1  0  0  0  0
 38 36  1  0  0  0  0
 39 36  1  0  0  0  0
 42 47  1  0  0  0  0
 42 41  1  0  0  0  0
 43 51  1  6  0  0  0
 43 45  1  0  0  0  0
 44 40  1  6  0  0  0
 44 43  1  0  0  0  0
 44 42  1  0  0  0  0
 45 39  1  6  0  0  0
 45 41  1  0  0  0  0
 47 46  1  6  0  0  0
 47 48  1  0  0  0  0
 48 49  2  0  0  0  0
 48 50  1  0  0  0  0
 52 53  1  0  0  0  0
 52 54  1  0  0  0  0
 53 54  1  0  0  0  0
 54 51  1  1  0  0  0
M  END
>  <MODEL>
9

>  <REMARK>
 VINA RESULT:      -6.8      3.220     10.181
  Name = 
  10 active torsions:
  status: ('A' for Active; 'I' for Inactive)
    1  A    between atoms: N_3  and  N_30
    2  A    between atoms: C_6  and  C_28
    3  A    between atoms: O_10  and  C_17
    4  A    between atoms: O_10  and  C_37
    5  A    between atoms: N_16  and  C_54
    6  A    between atoms: C_26  and  N_30
    7  A    between atoms: C_27  and  C_54
    8  A    between atoms: C_36  and  C_46
    9  A    between atoms: C_38  and  C_40
   10  A    between atoms: C_40  and  N_52
                            x       y       z     vdW  Elec       q    Type
                         _______ _______ _______ _____ _____    ______ ____

>  <TORSDO>
F 10

$$$$
