=
 OpenBabel11062419583D

 28 30  0  0  1  0  0  0  0  0999 V2000
  190.0090  174.9400  145.9010 C   0  0  1  0  0  3  0  0  0  0  0  0
  192.9230  175.2350  146.3140 C   0  0  0  0  0  2  0  0  0  0  0  0
  189.4170  174.1860  146.9200 O   0  0  0  0  0  1  0  0  0  0  0  0
  192.3290  174.1770  145.4240 C   0  0  0  0  0  3  0  0  0  0  0  0
  190.6500  176.2120  146.4760 C   0  0  2  0  0  3  0  0  0  0  0  0
  191.8970  175.8420  147.2650 C   0  0  0  0  0  2  0  0  0  0  0  0
  191.0140  174.0780  145.1650 C   0  0  0  0  0  0  0  0  0  0  0  0
  190.5390  173.0370  144.2290 C   0  0  0  0  0  0  0  0  0  0  0  0
  191.1020  171.9090  144.1930 O   0  0  0  0  0  0  0  0  0  0  0  0
  189.3780  173.2890  143.3230 C   0  0  0  0  0  2  0  0  0  0  0  0
  189.7790  174.1470  142.2190 N   0  0  0  0  0  2  0  0  0  0  0  0
  188.6170  174.3460  141.3600 C   0  0  1  0  0  3  0  0  0  0  0  0
  188.4520  173.2450  140.5160 O   0  0  0  0  0  1  0  0  0  0  0  0
  187.4070  174.5770  142.1520 N   0  0  0  0  0  2  0  0  0  0  0  0
  187.0850  176.0000  142.1740 C   0  0  0  0  0  2  0  0  0  0  0  0
  187.4100  176.6110  140.8280 C   0  0  1  0  0  3  0  0  0  0  0  0
  186.4520  177.6940  140.5220 C   0  0  0  0  0  2  0  0  0  0  0  0
  187.7440  177.9650  141.0100 O   0  0  0  0  0  0  0  0  0  0  0  0
  189.6850  176.9980  147.3550 C   0  0  0  0  0  2  0  0  0  0  0  0
  187.2600  177.3110  146.6780 C   0  0  0  0  0  0  0  0  0  0  0  0
  186.8890  176.4410  147.5110 O   0  0  0  0  0  0  0  0  0  0  0  0
  188.6500  177.6290  146.5470 N   0  0  0  0  0  2  0  0  0  0  0  0
  184.9330  178.1070  146.2590 C   0  0  0  0  0  3  0  0  0  0  0  0
  186.6410  178.5540  144.6030 C   0  0  0  0  0  3  0  0  0  0  0  0
  184.3730  179.3190  144.2400 C   0  0  0  0  0  3  0  0  0  0  0  0
  185.6970  179.2120  143.8080 C   0  0  0  0  0  3  0  0  0  0  0  0
  186.2660  177.9980  145.8360 C   0  0  0  0  0  0  0  0  0  0  0  0
  183.9900  178.7670  145.4650 C   0  0  0  0  0  3  0  0  0  0  0  0
  1  5  1  0  0  0  0
  1  3  1  1  0  0  0
  2  6  1  0  0  0  0
  4  2  1  0  0  0  0
  5  6  1  0  0  0  0
  5 19  1  1  0  0  0
  7  4  2  0  0  0  0
  7  1  1  0  0  0  0
  8  7  1  0  0  0  0
  9  8  2  0  0  0  0
 10  8  1  0  0  0  0
 11 10  1  0  0  0  0
 12 13  1  1  0  0  0
 12 14  1  0  0  0  0
 12 11  1  0  0  0  0
 14 15  1  0  0  0  0
 16 18  1  0  0  0  0
 16 15  1  1  0  0  0
 17 16  1  0  0  0  0
 17 18  1  0  0  0  0
 20 21  2  0  0  0  0
 22 20  1  0  0  0  0
 22 19  1  0  0  0  0
 24 27  2  0  0  0  0
 25 28  1  0  0  0  0
 26 25  2  0  0  0  0
 26 24  1  0  0  0  0
 27 23  1  0  0  0  0
 27 20  1  0  0  0  0
 28 23  2  0  0  0  0
M  END
>  <MODEL>
1

>  <REMARK>
 VINA RESULT:      -6.3      0.000      0.000
  Name = 
  10 active torsions:
  status: ('A' for Active; 'I' for Inactive)
    1  A    between atoms: N_1  and  C_18
    2  A    between atoms: N_1  and  C_22
    3  A    between atoms: C_2  and  C_16
    4  A    between atoms: C_2  and  N_28
    5  A    between atoms: C_3  and  C_19
    6  A    between atoms: C_3  and  C_20
    7  A    between atoms: C_8  and  C_22
    8  A    between atoms: C_9  and  C_15
    9  A    between atoms: C_18  and  N_26
   10  A    between atoms: C_20  and  N_26
                            x       y       z     vdW  Elec       q    Type
                         _______ _______ _______ _____ _____    ______ ____

>  <TORSDO>
F 10

$$$$
=
 OpenBabel11062419583D

 28 30  0  0  1  0  0  0  0  0999 V2000
  190.9840  175.5840  145.0120 C   0  0  1  0  0  3  0  0  0  0  0  0
  193.7940  176.4400  145.3620 C   0  0  0  0  0  2  0  0  0  0  0  0
  190.7270  174.3750  145.6670 O   0  0  0  0  0  1  0  0  0  0  0  0
  193.3160  175.6860  144.1510 C   0  0  0  0  0  3  0  0  0  0  0  0
  191.4140  176.6600  146.0200 C   0  0  2  0  0  3  0  0  0  0  0  0
  192.8150  176.3520  146.5270 C   0  0  0  0  0  2  0  0  0  0  0  0
  192.0300  175.3580  143.9400 C   0  0  0  0  0  0  0  0  0  0  0  0
  191.6560  174.6660  142.6880 C   0  0  0  0  0  0  0  0  0  0  0  0
  192.4620  174.6250  141.7180 O   0  0  0  0  0  0  0  0  0  0  0  0
  190.3310  173.9900  142.5480 C   0  0  0  0  0  2  0  0  0  0  0  0
  189.6380  174.4800  141.3660 N   0  0  0  0  0  2  0  0  0  0  0  0
  188.2080  174.4820  141.6520 C   0  0  1  0  0  3  0  0  0  0  0  0
  187.7590  173.1740  141.8500 O   0  0  0  0  0  1  0  0  0  0  0  0
  187.9020  175.3160  142.8170 N   0  0  0  0  0  2  0  0  0  0  0  0
  186.7040  176.1080  142.5660 C   0  0  0  0  0  2  0  0  0  0  0  0
  186.9060  176.9500  141.3240 C   0  0  1  0  0  3  0  0  0  0  0  0
  185.7620  177.8680  141.1460 C   0  0  0  0  0  2  0  0  0  0  0  0
  186.9810  178.3040  141.6970 O   0  0  0  0  0  0  0  0  0  0  0  0
  190.4440  176.7760  147.1900 C   0  0  0  0  0  2  0  0  0  0  0  0
  187.9490  176.7790  146.7360 C   0  0  0  0  0  0  0  0  0  0  0  0
  187.8640  175.5620  147.0510 O   0  0  0  0  0  0  0  0  0  0  0  0
  189.2170  177.4430  146.7780 N   0  0  0  0  0  2  0  0  0  0  0  0
  186.8120  178.4530  145.2750 C   0  0  0  0  0  3  0  0  0  0  0  0
  185.5160  177.2960  146.9610 C   0  0  0  0  0  3  0  0  0  0  0  0
  184.4490  178.9190  145.5150 C   0  0  0  0  0  3  0  0  0  0  0  0
  184.3730  177.9940  146.5590 C   0  0  0  0  0  3  0  0  0  0  0  0
  186.7440  177.5200  146.3200 C   0  0  0  0  0  0  0  0  0  0  0  0
  185.6680  179.1490  144.8730 C   0  0  0  0  0  3  0  0  0  0  0  0
  1  3  1  1  0  0  0
  1  5  1  0  0  0  0
  2  6  1  0  0  0  0
  4  2  1  0  0  0  0
  5  6  1  0  0  0  0
  5 19  1  1  0  0  0
  7  4  2  0  0  0  0
  7  1  1  0  0  0  0
  8  7  1  0  0  0  0
  9  8  2  0  0  0  0
 10  8  1  0  0  0  0
 11 12  1  0  0  0  0
 11 10  1  0  0  0  0
 12 13  1  1  0  0  0
 12 14  1  0  0  0  0
 15 14  1  0  0  0  0
 16 18  1  0  0  0  0
 16 15  1  1  0  0  0
 17 16  1  0  0  0  0
 17 18  1  0  0  0  0
 20 22  1  0  0  0  0
 20 21  2  0  0  0  0
 22 19  1  0  0  0  0
 23 27  1  0  0  0  0
 25 26  2  0  0  0  0
 26 24  1  0  0  0  0
 27 20  1  0  0  0  0
 27 24  2  0  0  0  0
 28 23  2  0  0  0  0
 28 25  1  0  0  0  0
M  END
>  <MODEL>
2

>  <REMARK>
 VINA RESULT:      -6.2      1.447      1.741
  Name = 
  10 active torsions:
  status: ('A' for Active; 'I' for Inactive)
    1  A    between atoms: N_1  and  C_18
    2  A    between atoms: N_1  and  C_22
    3  A    between atoms: C_2  and  C_16
    4  A    between atoms: C_2  and  N_28
    5  A    between atoms: C_3  and  C_19
    6  A    between atoms: C_3  and  C_20
    7  A    between atoms: C_8  and  C_22
    8  A    between atoms: C_9  and  C_15
    9  A    between atoms: C_18  and  N_26
   10  A    between atoms: C_20  and  N_26
                            x       y       z     vdW  Elec       q    Type
                         _______ _______ _______ _____ _____    ______ ____

>  <TORSDO>
F 10

$$$$
=
 OpenBabel11062419583D

 28 30  0  0  1  0  0  0  0  0999 V2000
  189.7370  173.6780  144.4700 C   0  0  1  0  0  3  0  0  0  0  0  0
  192.5790  174.2290  143.8570 C   0  0  0  0  0  2  0  0  0  0  0  0
  189.5810  172.4610  145.1420 O   0  0  0  0  0  1  0  0  0  0  0  0
  191.6370  173.6040  142.8640 C   0  0  0  0  0  3  0  0  0  0  0  0
  190.6030  174.6410  145.2970 C   0  0  2  0  0  3  0  0  0  0  0  0
  192.0480  174.1650  145.2850 C   0  0  0  0  0  2  0  0  0  0  0  0
  190.3260  173.4180  143.1000 C   0  0  0  0  0  0  0  0  0  0  0  0
  189.4750  172.8460  142.0340 C   0  0  0  0  0  0  0  0  0  0  0  0
  189.8000  171.7670  141.4690 O   0  0  0  0  0  0  0  0  0  0  0  0
  188.2100  173.5220  141.6150 C   0  0  0  0  0  2  0  0  0  0  0  0
  188.5110  174.7330  140.8660 N   0  0  0  0  0  2  0  0  0  0  0  0
  188.0850  175.8740  141.6690 C   0  0  1  0  0  3  0  0  0  0  0  0
  189.1970  176.4920  142.2470 O   0  0  0  0  0  1  0  0  0  0  0  0
  187.3210  176.8310  140.8650 N   0  0  0  0  0  2  0  0  0  0  0  0
  186.1470  177.2820  141.6040 C   0  0  0  0  0  2  0  0  0  0  0  0
  186.4100  178.6570  142.1800 C   0  0  1  0  0  3  0  0  0  0  0  0
  185.3900  178.9810  143.1990 C   0  0  0  0  0  2  0  0  0  0  0  0
  186.6760  178.5330  143.5550 O   0  0  0  0  0  0  0  0  0  0  0  0
  190.1060  174.7770  146.7310 C   0  0  0  0  0  2  0  0  0  0  0  0
  188.5510  176.7750  146.8960 C   0  0  0  0  0  0  0  0  0  0  0  0
  189.5300  177.5600  147.0090 O   0  0  0  0  0  0  0  0  0  0  0  0
  188.7740  175.3670  146.7610 N   0  0  0  0  0  2  0  0  0  0  0  0
  186.8940  178.5330  147.5200 C   0  0  0  0  0  3  0  0  0  0  0  0
  186.1340  176.5870  146.2980 C   0  0  0  0  0  3  0  0  0  0  0  0
  184.5600  178.3220  146.9130 C   0  0  0  0  0  3  0  0  0  0  0  0
  184.8310  177.0950  146.3020 C   0  0  0  0  0  3  0  0  0  0  0  0
  187.1760  177.3040  146.9060 C   0  0  0  0  0  0  0  0  0  0  0  0
  185.5920  179.0410  147.5230 C   0  0  0  0  0  3  0  0  0  0  0  0
  1  3  1  1  0  0  0
  1  5  1  0  0  0  0
  2  6  1  0  0  0  0
  4  7  2  0  0  0  0
  4  2  1  0  0  0  0
  5 19  1  1  0  0  0
  6  5  1  0  0  0  0
  7  1  1  0  0  0  0
  8  7  1  0  0  0  0
  9  8  2  0  0  0  0
 10  8  1  0  0  0  0
 11 10  1  0  0  0  0
 11 12  1  0  0  0  0
 12 13  1  6  0  0  0
 14 15  1  0  0  0  0
 14 12  1  0  0  0  0
 16 15  1  6  0  0  0
 16 17  1  0  0  0  0
 16 18  1  0  0  0  0
 17 18  1  0  0  0  0
 19 22  1  0  0  0  0
 20 27  1  0  0  0  0
 20 21  2  0  0  0  0
 22 20  1  0  0  0  0
 23 28  1  0  0  0  0
 24 26  2  0  0  0  0
 24 27  1  0  0  0  0
 25 28  2  0  0  0  0
 26 25  1  0  0  0  0
 27 23  2  0  0  0  0
M  END
>  <MODEL>
3

>  <REMARK>
 VINA RESULT:      -6.2      1.633      2.517
  Name = 
  10 active torsions:
  status: ('A' for Active; 'I' for Inactive)
    1  A    between atoms: N_1  and  C_18
    2  A    between atoms: N_1  and  C_22
    3  A    between atoms: C_2  and  C_16
    4  A    between atoms: C_2  and  N_28
    5  A    between atoms: C_3  and  C_19
    6  A    between atoms: C_3  and  C_20
    7  A    between atoms: C_8  and  C_22
    8  A    between atoms: C_9  and  C_15
    9  A    between atoms: C_18  and  N_26
   10  A    between atoms: C_20  and  N_26
                            x       y       z     vdW  Elec       q    Type
                         _______ _______ _______ _____ _____    ______ ____

>  <TORSDO>
F 10

$$$$
=
 OpenBabel11062419583D

 28 30  0  0  1  0  0  0  0  0999 V2000
  189.8800  174.9700  146.0050 C   0  0  1  0  0  3  0  0  0  0  0  0
  192.7790  175.1780  146.5600 C   0  0  0  0  0  2  0  0  0  0  0  0
  189.2310  174.1630  146.9460 O   0  0  0  0  0  1  0  0  0  0  0  0
  192.2050  174.1930  145.5770 C   0  0  0  0  0  3  0  0  0  0  0  0
  190.5190  176.1880  146.6910 C   0  0  2  0  0  3  0  0  0  0  0  0
  191.7230  175.7410  147.5050 C   0  0  0  0  0  2  0  0  0  0  0  0
  190.9010  174.1390  145.2570 C   0  0  0  0  0  0  0  0  0  0  0  0
  190.4490  173.1710  144.2340 C   0  0  0  0  0  0  0  0  0  0  0  0
  190.9250  172.0040  144.2060 O   0  0  0  0  0  0  0  0  0  0  0  0
  189.4110  173.5470  143.2270 C   0  0  0  0  0  2  0  0  0  0  0  0
  189.9100  174.6030  142.3590 N   0  0  0  0  0  2  0  0  0  0  0  0
  188.7680  175.3880  141.9040 C   0  0  1  0  0  3  0  0  0  0  0  0
  187.6180  174.5950  141.8910 O   0  0  0  0  0  1  0  0  0  0  0  0
  188.5710  176.5720  142.7440 N   0  0  0  0  0  2  0  0  0  0  0  0
  189.6200  177.5510  142.4850 C   0  0  0  0  0  2  0  0  0  0  0  0
  190.3870  177.8190  143.7630 C   0  0  1  0  0  3  0  0  0  0  0  0
  191.8200  177.5220  143.5620 C   0  0  0  0  0  2  0  0  0  0  0  0
  191.3250  178.8390  143.5270 O   0  0  0  0  0  0  0  0  0  0  0  0
  189.5310  176.9340  147.5800 C   0  0  0  0  0  2  0  0  0  0  0  0
  187.1300  177.2600  146.8260 C   0  0  0  0  0  0  0  0  0  0  0  0
  186.7400  176.3300  147.5820 O   0  0  0  0  0  0  0  0  0  0  0  0
  188.5190  177.6050  146.7740 N   0  0  0  0  0  2  0  0  0  0  0  0
  186.5550  178.5480  144.7680 C   0  0  0  0  0  3  0  0  0  0  0  0
  184.8270  178.1300  146.4100 C   0  0  0  0  0  3  0  0  0  0  0  0
  184.3080  179.3660  144.3940 C   0  0  0  0  0  3  0  0  0  0  0  0
  183.9050  178.8160  145.6130 C   0  0  0  0  0  3  0  0  0  0  0  0
  186.1590  177.9900  145.9920 C   0  0  0  0  0  0  0  0  0  0  0  0
  185.6330  179.2330  143.9700 C   0  0  0  0  0  3  0  0  0  0  0  0
  1  5  1  0  0  0  0
  1  3  1  1  0  0  0
  2  6  1  0  0  0  0
  4  2  1  0  0  0  0
  5  6  1  0  0  0  0
  5 19  1  1  0  0  0
  7  4  2  0  0  0  0
  7  1  1  0  0  0  0
  8  7  1  0  0  0  0
  9  8  2  0  0  0  0
 10  8  1  0  0  0  0
 11 10  1  0  0  0  0
 12 13  1  1  0  0  0
 12 11  1  0  0  0  0
 12 14  1  0  0  0  0
 15 14  1  0  0  0  0
 16 15  1  6  0  0  0
 17 16  1  0  0  0  0
 18 17  1  0  0  0  0
 18 16  1  0  0  0  0
 20 21  2  0  0  0  0
 22 20  1  0  0  0  0
 22 19  1  0  0  0  0
 23 27  1  0  0  0  0
 25 26  2  0  0  0  0
 26 24  1  0  0  0  0
 27 24  2  0  0  0  0
 27 20  1  0  0  0  0
 28 25  1  0  0  0  0
 28 23  2  0  0  0  0
M  END
>  <MODEL>
4

>  <REMARK>
 VINA RESULT:      -6.1      1.497      2.087
  Name = 
  10 active torsions:
  status: ('A' for Active; 'I' for Inactive)
    1  A    between atoms: N_1  and  C_18
    2  A    between atoms: N_1  and  C_22
    3  A    between atoms: C_2  and  C_16
    4  A    between atoms: C_2  and  N_28
    5  A    between atoms: C_3  and  C_19
    6  A    between atoms: C_3  and  C_20
    7  A    between atoms: C_8  and  C_22
    8  A    between atoms: C_9  and  C_15
    9  A    between atoms: C_18  and  N_26
   10  A    between atoms: C_20  and  N_26
                            x       y       z     vdW  Elec       q    Type
                         _______ _______ _______ _____ _____    ______ ____

>  <TORSDO>
F 10

$$$$
=
 OpenBabel11062419583D

 28 30  0  0  1  0  0  0  0  0999 V2000
  190.1090  176.6450  144.6200 C   0  0  1  0  0  3  0  0  0  0  0  0
  187.5930  176.5120  146.1710 C   0  0  0  0  0  2  0  0  0  0  0  0
  190.5410  177.9640  144.4500 O   0  0  0  0  0  1  0  0  0  0  0  0
  187.6260  176.4890  144.6670 C   0  0  0  0  0  3  0  0  0  0  0  0
  190.0610  176.2840  146.1130 C   0  0  2  0  0  3  0  0  0  0  0  0
  188.9010  177.0110  146.7760 C   0  0  0  0  0  2  0  0  0  0  0  0
  188.7630  176.4710  143.9490 C   0  0  0  0  0  0  0  0  0  0  0  0
  188.6850  176.3900  142.4750 C   0  0  0  0  0  0  0  0  0  0  0  0
  189.0830  175.3570  141.8720 O   0  0  0  0  0  0  0  0  0  0  0  0
  188.1220  177.5170  141.6720 C   0  0  0  0  0  2  0  0  0  0  0  0
  186.8380  177.1370  141.1010 N   0  0  0  0  0  2  0  0  0  0  0  0
  185.9370  178.2760  141.2250 C   0  0  1  0  0  3  0  0  0  0  0  0
  184.6420  177.9030  140.8540 O   0  0  0  0  0  1  0  0  0  0  0  0
  185.9490  178.8160  142.5870 N   0  0  0  0  0  2  0  0  0  0  0  0
  184.7640  178.3740  143.3130 C   0  0  0  0  0  2  0  0  0  0  0  0
  184.4250  179.3850  144.3880 C   0  0  1  0  0  3  0  0  0  0  0  0
  184.1930  178.6950  145.6730 C   0  0  0  0  0  2  0  0  0  0  0  0
  185.4120  179.3380  145.3880 O   0  0  0  0  0  0  0  0  0  0  0  0
  191.3660  176.6130  146.8290 C   0  0  0  0  0  2  0  0  0  0  0  0
  193.4610  175.5670  145.8550 C   0  0  0  0  0  0  0  0  0  0  0  0
  193.6810  176.5950  145.1580 O   0  0  0  0  0  0  0  0  0  0  0  0
  192.3120  175.5130  146.7070 N   0  0  0  0  0  2  0  0  0  0  0  0
  195.7630  174.6100  145.9590 C   0  0  0  0  0  3  0  0  0  0  0  0
  193.8930  173.1260  145.5600 C   0  0  0  0  0  3  0  0  0  0  0  0
  196.1410  172.2350  145.6800 C   0  0  0  0  0  3  0  0  0  0  0  0
  194.7700  172.0370  145.5060 C   0  0  0  0  0  3  0  0  0  0  0  0
  194.3840  174.4200  145.7890 C   0  0  0  0  0  0  0  0  0  0  0  0
  196.6390  173.5220  145.9060 C   0  0  0  0  0  3  0  0  0  0  0  0
  1  3  1  1  0  0  0
  1  5  1  0  0  0  0
  2  6  1  0  0  0  0
  4  2  1  0  0  0  0
  5  6  1  0  0  0  0
  5 19  1  1  0  0  0
  7  1  1  0  0  0  0
  7  4  2  0  0  0  0
  8  7  1  0  0  0  0
  9  8  2  0  0  0  0
 10  8  1  0  0  0  0
 11 12  1  0  0  0  0
 11 10  1  0  0  0  0
 12 13  1  1  0  0  0
 12 14  1  0  0  0  0
 14 15  1  0  0  0  0
 16 15  1  6  0  0  0
 16 18  1  0  0  0  0
 16 17  1  0  0  0  0
 18 17  1  0  0  0  0
 20 22  1  0  0  0  0
 21 20  2  0  0  0  0
 22 19  1  0  0  0  0
 24 27  1  0  0  0  0
 25 28  2  0  0  0  0
 26 24  2  0  0  0  0
 26 25  1  0  0  0  0
 27 20  1  0  0  0  0
 27 23  2  0  0  0  0
 28 23  1  0  0  0  0
M  END
>  <MODEL>
5

>  <REMARK>
 VINA RESULT:      -6.1      2.752      6.785
  Name = 
  10 active torsions:
  status: ('A' for Active; 'I' for Inactive)
    1  A    between atoms: N_1  and  C_18
    2  A    between atoms: N_1  and  C_22
    3  A    between atoms: C_2  and  C_16
    4  A    between atoms: C_2  and  N_28
    5  A    between atoms: C_3  and  C_19
    6  A    between atoms: C_3  and  C_20
    7  A    between atoms: C_8  and  C_22
    8  A    between atoms: C_9  and  C_15
    9  A    between atoms: C_18  and  N_26
   10  A    between atoms: C_20  and  N_26
                            x       y       z     vdW  Elec       q    Type
                         _______ _______ _______ _____ _____    ______ ____

>  <TORSDO>
F 10

$$$$
=
 OpenBabel11062419583D

 28 30  0  0  1  0  0  0  0  0999 V2000
  186.2530  177.4730  144.8680 C   0  0  1  0  0  3  0  0  0  0  0  0
  184.1110  178.6940  146.5040 C   0  0  0  0  0  2  0  0  0  0  0  0
  187.3450  178.3360  144.7200 O   0  0  0  0  0  1  0  0  0  0  0  0
  184.1050  178.7230  144.9990 C   0  0  0  0  0  3  0  0  0  0  0  0
  186.0320  177.1350  146.3500 C   0  0  2  0  0  3  0  0  0  0  0  0
  185.4830  178.3540  147.0750 C   0  0  0  0  0  2  0  0  0  0  0  0
  185.0290  178.1080  144.2410 C   0  0  0  0  0  0  0  0  0  0  0  0
  184.9000  178.1500  142.7690 C   0  0  0  0  0  0  0  0  0  0  0  0
  183.7650  178.0560  142.2260 O   0  0  0  0  0  0  0  0  0  0  0  0
  186.1010  178.3190  141.8960 C   0  0  0  0  0  2  0  0  0  0  0  0
  186.3070  177.1260  141.0880 N   0  0  0  0  0  2  0  0  0  0  0  0
  187.6560  176.6360  141.3460 C   0  0  1  0  0  3  0  0  0  0  0  0
  188.4960  177.7030  141.6760 O   0  0  0  0  0  1  0  0  0  0  0  0
  187.6590  175.6280  142.4080 N   0  0  0  0  0  2  0  0  0  0  0  0
  188.0510  174.3310  141.8680 C   0  0  0  0  0  2  0  0  0  0  0  0
  188.5730  174.5090  140.4580 C   0  0  1  0  0  3  0  0  0  0  0  0
  189.6100  173.4950  140.1730 C   0  0  0  0  0  2  0  0  0  0  0  0
  188.2870  173.3500  139.7160 O   0  0  0  0  0  0  0  0  0  0  0  0
  187.3080  176.6500  147.0280 C   0  0  0  0  0  2  0  0  0  0  0  0
  189.4270  175.7300  145.9800 C   0  0  0  0  0  0  0  0  0  0  0  0
  190.1210  176.6240  146.5360 O   0  0  0  0  0  0  0  0  0  0  0  0
  188.0100  175.6950  146.1810 N   0  0  0  0  0  2  0  0  0  0  0  0
  190.9720  175.1190  144.1180 C   0  0  0  0  0  3  0  0  0  0  0  0
  189.8000  173.3580  145.2940 C   0  0  0  0  0  3  0  0  0  0  0  0
  191.3160  172.8070  143.4890 C   0  0  0  0  0  3  0  0  0  0  0  0
  190.4200  172.4040  144.4810 C   0  0  0  0  0  3  0  0  0  0  0  0
  190.0730  174.7230  145.1190 C   0  0  0  0  0  0  0  0  0  0  0  0
  191.5930  174.1650  143.3060 C   0  0  0  0  0  3  0  0  0  0  0  0
  1  3  1  1  0  0  0
  1  5  1  0  0  0  0
  2  6  1  0  0  0  0
  4  2  1  0  0  0  0
  5 19  1  1  0  0  0
  5  6  1  0  0  0  0
  7  1  1  0  0  0  0
  7  4  2  0  0  0  0
  8  7  1  0  0  0  0
  9  8  2  0  0  0  0
 10  8  1  0  0  0  0
 11 12  1  0  0  0  0
 11 10  1  0  0  0  0
 12 13  1  1  0  0  0
 12 14  1  0  0  0  0
 15 14  1  0  0  0  0
 16 15  1  1  0  0  0
 17 16  1  0  0  0  0
 18 17  1  0  0  0  0
 18 16  1  0  0  0  0
 20 22  1  0  0  0  0
 20 21  2  0  0  0  0
 22 19  1  0  0  0  0
 23 27  1  0  0  0  0
 25 26  2  0  0  0  0
 26 24  1  0  0  0  0
 27 24  2  0  0  0  0
 27 20  1  0  0  0  0
 28 25  1  0  0  0  0
 28 23  2  0  0  0  0
M  END
>  <MODEL>
6

>  <REMARK>
 VINA RESULT:      -6.1      1.933      6.095
  Name = 
  10 active torsions:
  status: ('A' for Active; 'I' for Inactive)
    1  A    between atoms: N_1  and  C_18
    2  A    between atoms: N_1  and  C_22
    3  A    between atoms: C_2  and  C_16
    4  A    between atoms: C_2  and  N_28
    5  A    between atoms: C_3  and  C_19
    6  A    between atoms: C_3  and  C_20
    7  A    between atoms: C_8  and  C_22
    8  A    between atoms: C_9  and  C_15
    9  A    between atoms: C_18  and  N_26
   10  A    between atoms: C_20  and  N_26
                            x       y       z     vdW  Elec       q    Type
                         _______ _______ _______ _____ _____    ______ ____

>  <TORSDO>
F 10

$$$$
=
 OpenBabel11062419583D

 28 30  0  0  1  0  0  0  0  0999 V2000
  191.8040  175.4360  144.1700 C   0  0  1  0  0  3  0  0  0  0  0  0
  192.1410  175.9570  147.0630 C   0  0  0  0  0  2  0  0  0  0  0  0
  190.6180  174.7410  143.9050 O   0  0  0  0  0  1  0  0  0  0  0  0
  192.7790  174.7860  146.3650 C   0  0  0  0  0  3  0  0  0  0  0  0
  191.4960  176.7940  144.8200 C   0  0  2  0  0  3  0  0  0  0  0  0
  191.0130  176.5790  146.2460 C   0  0  0  0  0  2  0  0  0  0  0  0
  192.7000  174.5780  145.0390 C   0  0  0  0  0  0  0  0  0  0  0  0
  193.4120  173.4280  144.4440 C   0  0  0  0  0  0  0  0  0  0  0  0
  193.4760  173.2960  143.1920 O   0  0  0  0  0  0  0  0  0  0  0  0
  194.0830  172.4090  145.3080 C   0  0  0  0  0  2  0  0  0  0  0  0
  195.3750  172.0440  144.7440 N   0  0  0  0  0  2  0  0  0  0  0  0
  196.3570  173.0170  145.2070 C   0  0  1  0  0  3  0  0  0  0  0  0
  196.9720  172.5580  146.3740 O   0  0  0  0  0  1  0  0  0  0  0  0
  197.3550  173.2960  144.1720 N   0  0  0  0  0  2  0  0  0  0  0  0
  196.8490  174.3010  143.2440 C   0  0  0  0  0  2  0  0  0  0  0  0
  196.4330  175.5360  144.0150 C   0  0  1  0  0  3  0  0  0  0  0  0
  196.7520  176.7490  143.2340 C   0  0  0  0  0  2  0  0  0  0  0  0
  195.4480  176.2210  143.2820 O   0  0  0  0  0  0  0  0  0  0  0  0
  190.4660  177.5920  144.0290 C   0  0  0  0  0  2  0  0  0  0  0  0
  187.9430  177.8390  144.1080 C   0  0  0  0  0  0  0  0  0  0  0  0
  187.8880  177.9360  142.8520 O   0  0  0  0  0  0  0  0  0  0  0  0
  189.2080  177.6730  144.7580 N   0  0  0  0  0  2  0  0  0  0  0  0
  185.8620  179.0170  144.8200 C   0  0  0  0  0  3  0  0  0  0  0  0
  186.3590  176.8430  145.7620 C   0  0  0  0  0  3  0  0  0  0  0  0
  184.3450  178.0150  146.4180 C   0  0  0  0  0  3  0  0  0  0  0  0
  185.1820  176.9010  146.5140 C   0  0  0  0  0  3  0  0  0  0  0  0
  186.7070  177.9010  144.9080 C   0  0  0  0  0  0  0  0  0  0  0  0
  184.6840  179.0740  145.5710 C   0  0  0  0  0  3  0  0  0  0  0  0
  1  3  1  1  0  0  0
  1  5  1  0  0  0  0
  1  7  1  0  0  0  0
  4  2  1  0  0  0  0
  5 19  1  6  0  0  0
  5  6  1  0  0  0  0
  6  2  1  0  0  0  0
  7  4  2  0  0  0  0
  8  7  1  0  0  0  0
  8 10  1  0  0  0  0
  9  8  2  0  0  0  0
 11 12  1  0  0  0  0
 11 10  1  0  0  0  0
 12 13  1  1  0  0  0
 14 12  1  0  0  0  0
 15 14  1  0  0  0  0
 16 15  1  6  0  0  0
 17 18  1  0  0  0  0
 17 16  1  0  0  0  0
 18 16  1  0  0  0  0
 19 22  1  0  0  0  0
 20 22  1  0  0  0  0
 20 27  1  0  0  0  0
 21 20  2  0  0  0  0
 23 27  2  0  0  0  0
 23 28  1  0  0  0  0
 24 26  2  0  0  0  0
 25 26  1  0  0  0  0
 27 24  1  0  0  0  0
 28 25  2  0  0  0  0
M  END
>  <MODEL>
7

>  <REMARK>
 VINA RESULT:      -6.1      3.411      5.527
  Name = 
  10 active torsions:
  status: ('A' for Active; 'I' for Inactive)
    1  A    between atoms: N_1  and  C_18
    2  A    between atoms: N_1  and  C_22
    3  A    between atoms: C_2  and  C_16
    4  A    between atoms: C_2  and  N_28
    5  A    between atoms: C_3  and  C_19
    6  A    between atoms: C_3  and  C_20
    7  A    between atoms: C_8  and  C_22
    8  A    between atoms: C_9  and  C_15
    9  A    between atoms: C_18  and  N_26
   10  A    between atoms: C_20  and  N_26
                            x       y       z     vdW  Elec       q    Type
                         _______ _______ _______ _____ _____    ______ ____

>  <TORSDO>
F 10

$$$$
=
 OpenBabel11062419583D

 28 30  0  0  1  0  0  0  0  0999 V2000
  189.1740  174.2930  142.7100 C   0  0  1  0  0  3  0  0  0  0  0  0
  189.0360  172.5790  140.3020 C   0  0  0  0  0  2  0  0  0  0  0  0
  190.2740  175.1550  142.6680 O   0  0  0  0  0  1  0  0  0  0  0  0
  189.6620  172.1240  141.5930 C   0  0  0  0  0  3  0  0  0  0  0  0
  188.2260  174.5720  141.5340 C   0  0  2  0  0  3  0  0  0  0  0  0
  188.8650  174.0930  140.2400 C   0  0  0  0  0  2  0  0  0  0  0  0
  189.6640  172.8600  142.7170 C   0  0  0  0  0  0  0  0  0  0  0  0
  190.2560  172.2950  143.9490 C   0  0  0  0  0  0  0  0  0  0  0  0
  189.5400  172.1010  144.9690 O   0  0  0  0  0  0  0  0  0  0  0  0
  191.7040  171.9290  144.0080 C   0  0  0  0  0  2  0  0  0  0  0  0
  192.5290  173.1250  143.9390 N   0  0  0  0  0  2  0  0  0  0  0  0
  192.7000  173.6320  145.2960 C   0  0  1  0  0  3  0  0  0  0  0  0
  194.0320  173.4910  145.6940 O   0  0  0  0  0  1  0  0  0  0  0  0
  192.2750  175.0300  145.3970 N   0  0  0  0  0  2  0  0  0  0  0  0
  191.4420  175.2160  146.5800 C   0  0  0  0  0  2  0  0  0  0  0  0
  189.9960  175.3720  146.1590 C   0  0  1  0  0  3  0  0  0  0  0  0
  189.1050  174.8290  147.2060 C   0  0  0  0  0  2  0  0  0  0  0  0
  189.3410  176.2110  147.0790 O   0  0  0  0  0  0  0  0  0  0  0  0
  187.8600  176.0480  141.4260 C   0  0  0  0  0  2  0  0  0  0  0  0
  187.2180  177.2490  143.5660 C   0  0  0  0  0  0  0  0  0  0  0  0
  188.3920  177.6880  143.7010 O   0  0  0  0  0  0  0  0  0  0  0  0
  186.8910  176.4150  142.4490 N   0  0  0  0  0  2  0  0  0  0  0  0
  185.9910  176.7820  145.6870 C   0  0  0  0  0  3  0  0  0  0  0  0
  185.3820  178.7300  144.3850 C   0  0  0  0  0  3  0  0  0  0  0  0
  184.2230  178.2470  146.4560 C   0  0  0  0  0  3  0  0  0  0  0  0
  184.4050  179.0560  145.3320 C   0  0  0  0  0  3  0  0  0  0  0  0
  186.1830  177.5900  144.5580 C   0  0  0  0  0  0  0  0  0  0  0  0
  185.0150  177.1090  146.6340 C   0  0  0  0  0  3  0  0  0  0  0  0
  1  3  1  6  0  0  0
  1  7  1  0  0  0  0
  2  4  1  0  0  0  0
  4  7  2  0  0  0  0
  5 19  1  6  0  0  0
  5  1  1  0  0  0  0
  6  2  1  0  0  0  0
  6  5  1  0  0  0  0
  7  8  1  0  0  0  0
  8 10  1  0  0  0  0
  8  9  2  0  0  0  0
 11 10  1  0  0  0  0
 11 12  1  0  0  0  0
 12 14  1  0  0  0  0
 12 13  1  6  0  0  0
 14 15  1  0  0  0  0
 16 15  1  1  0  0  0
 16 18  1  0  0  0  0
 16 17  1  0  0  0  0
 18 17  1  0  0  0  0
 19 22  1  0  0  0  0
 20 21  2  0  0  0  0
 20 27  1  0  0  0  0
 22 20  1  0  0  0  0
 23 28  1  0  0  0  0
 24 27  1  0  0  0  0
 24 26  2  0  0  0  0
 25 28  2  0  0  0  0
 26 25  1  0  0  0  0
 27 23  2  0  0  0  0
M  END
>  <MODEL>
8

>  <REMARK>
 VINA RESULT:      -6.0      1.907      4.841
  Name = 
  10 active torsions:
  status: ('A' for Active; 'I' for Inactive)
    1  A    between atoms: N_1  and  C_18
    2  A    between atoms: N_1  and  C_22
    3  A    between atoms: C_2  and  C_16
    4  A    between atoms: C_2  and  N_28
    5  A    between atoms: C_3  and  C_19
    6  A    between atoms: C_3  and  C_20
    7  A    between atoms: C_8  and  C_22
    8  A    between atoms: C_9  and  C_15
    9  A    between atoms: C_18  and  N_26
   10  A    between atoms: C_20  and  N_26
                            x       y       z     vdW  Elec       q    Type
                         _______ _______ _______ _____ _____    ______ ____

>  <TORSDO>
F 10

$$$$
=
 OpenBabel11062419583D

 28 30  0  0  1  0  0  0  0  0999 V2000
  188.6320  176.7700  145.0660 C   0  0  1  0  0  3  0  0  0  0  0  0
  189.3100  174.6630  147.0300 C   0  0  0  0  0  2  0  0  0  0  0  0
  189.4540  177.8930  145.2100 O   0  0  0  0  0  1  0  0  0  0  0  0
  188.2040  175.6590  147.2520 C   0  0  0  0  0  3  0  0  0  0  0  0
  189.4710  175.5320  144.7130 C   0  0  2  0  0  3  0  0  0  0  0  0
  190.2730  175.0970  145.9300 C   0  0  0  0  0  2  0  0  0  0  0  0
  187.8330  176.5720  146.3380 C   0  0  0  0  0  0  0  0  0  0  0  0
  186.6940  177.4680  146.6330 C   0  0  0  0  0  0  0  0  0  0  0  0
  186.1630  177.4670  147.7760 O   0  0  0  0  0  0  0  0  0  0  0  0
  186.1600  178.4000  145.5940 C   0  0  0  0  0  2  0  0  0  0  0  0
  184.8260  177.9860  145.1840 N   0  0  0  0  0  2  0  0  0  0  0  0
  184.4070  178.8470  144.0850 C   0  0  1  0  0  3  0  0  0  0  0  0
  185.3380  179.8720  143.8980 O   0  0  0  0  0  1  0  0  0  0  0  0
  184.2270  178.0800  142.8500 N   0  0  0  0  0  2  0  0  0  0  0  0
  185.3140  178.3650  141.9200 C   0  0  0  0  0  2  0  0  0  0  0  0
  186.2830  177.2020  141.9050 C   0  0  1  0  0  3  0  0  0  0  0  0
  187.0600  177.2100  140.6480 C   0  0  0  0  0  2  0  0  0  0  0  0
  187.5960  177.7030  141.8520 O   0  0  0  0  0  0  0  0  0  0  0  0
  190.4000  175.7820  143.5320 C   0  0  0  0  0  2  0  0  0  0  0  0
  192.8300  176.1820  144.1430 C   0  0  0  0  0  0  0  0  0  0  0  0
  192.6450  177.4290  144.1670 O   0  0  0  0  0  0  0  0  0  0  0  0
  191.7450  175.3040  143.8230 N   0  0  0  0  0  2  0  0  0  0  0  0
  194.3530  174.7990  145.5540 C   0  0  0  0  0  3  0  0  0  0  0  0
  195.2540  175.9170  143.6060 C   0  0  0  0  0  3  0  0  0  0  0  0
  196.6960  174.5570  144.9960 C   0  0  0  0  0  3  0  0  0  0  0  0
  196.5160  175.3840  143.8840 C   0  0  0  0  0  3  0  0  0  0  0  0
  194.1620  175.6270  144.4390 C   0  0  0  0  0  0  0  0  0  0  0  0
  195.6150  174.2650  145.8320 C   0  0  0  0  0  3  0  0  0  0  0  0
  1  3  1  1  0  0  0
  1  7  1  0  0  0  0
  2  4  1  0  0  0  0
  5 19  1  6  0  0  0
  5  1  1  0  0  0  0
  5  6  1  0  0  0  0
  6  2  1  0  0  0  0
  7  8  1  0  0  0  0
  7  4  2  0  0  0  0
  8  9  2  0  0  0  0
 10  8  1  0  0  0  0
 11 10  1  0  0  0  0
 12 13  1  6  0  0  0
 12 11  1  0  0  0  0
 14 12  1  0  0  0  0
 15 14  1  0  0  0  0
 16 15  1  6  0  0  0
 17 18  1  0  0  0  0
 17 16  1  0  0  0  0
 18 16  1  0  0  0  0
 19 22  1  0  0  0  0
 20 21  2  0  0  0  0
 20 27  1  0  0  0  0
 22 20  1  0  0  0  0
 23 28  1  0  0  0  0
 24 26  2  0  0  0  0
 24 27  1  0  0  0  0
 25 28  2  0  0  0  0
 26 25  1  0  0  0  0
 27 23  2  0  0  0  0
M  END
>  <MODEL>
9

>  <REMARK>
 VINA RESULT:      -6.0      2.721      6.731
  Name = 
  10 active torsions:
  status: ('A' for Active; 'I' for Inactive)
    1  A    between atoms: N_1  and  C_18
    2  A    between atoms: N_1  and  C_22
    3  A    between atoms: C_2  and  C_16
    4  A    between atoms: C_2  and  N_28
    5  A    between atoms: C_3  and  C_19
    6  A    between atoms: C_3  and  C_20
    7  A    between atoms: C_8  and  C_22
    8  A    between atoms: C_9  and  C_15
    9  A    between atoms: C_18  and  N_26
   10  A    between atoms: C_20  and  N_26
                            x       y       z     vdW  Elec       q    Type
                         _______ _______ _______ _____ _____    ______ ____

>  <TORSDO>
F 10

$$$$
