=
 OpenBabel11062422093D

 27 30  0  0  1  0  0  0  0  0999 V2000
  188.3770  177.4830  143.6110 C   0  0  0  0  0  0  0  0  0  0  0  0
  184.0080  178.2460  142.8380 C   0  0  0  0  0  1  0  0  0  0  0  0
  184.2230  179.2410  145.0530 N   0  0  0  0  0  2  0  0  0  0  0  0
  187.3920  177.4840  145.8500 C   0  0  0  0  0  3  0  0  0  0  0  0
  185.0720  178.5750  146.0540 C   0  0  2  0  0  3  0  0  0  0  0  0
  186.2700  178.1160  145.3270 C   0  0  0  0  0  0  0  0  0  0  0  0
  188.4630  177.1540  144.9990 C   0  0  0  0  0  0  0  0  0  0  0  0
  187.2090  178.1200  143.1130 C   0  0  0  0  0  0  0  0  0  0  0  0
  187.0590  178.4640  141.6650 C   0  0  0  0  0  1  0  0  0  0  0  0
  184.8820  179.0970  143.7440 C   0  0  1  0  0  3  0  0  0  0  0  0
  184.3620  177.4340  146.6080 N   0  0  0  0  0  1  0  0  0  0  0  0
  186.1730  178.4170  144.0070 C   0  0  0  0  0  0  0  0  0  0  0  0
  189.6230  176.4430  145.5990 C   0  0  0  0  0  0  0  0  0  0  0  0
  192.3890  175.1880  146.2620 C   0  0  0  0  0  3  0  0  0  0  0  0
  189.3990  175.0990  146.2260 C   0  0  0  0  0  2  0  0  0  0  0  0
  191.5980  174.0840  145.6860 C   0  0  0  0  0  3  0  0  0  0  0  0
  192.0400  176.4800  146.2870 C   0  0  0  0  0  3  0  0  0  0  0  0
  190.2690  174.0480  145.6230 C   0  0  0  0  0  3  0  0  0  0  0  0
  190.8010  177.0630  145.7320 C   0  0  0  0  0  3  0  0  0  0  0  0
  189.4870  177.1110  142.6610 C   0  0  0  0  0  2  0  0  0  0  0  0
  189.5800  175.6310  142.4520 C   0  0  0  0  0  0  0  0  0  0  0  0
  190.8290  175.0490  142.2070 C   0  0  0  0  0  3  0  0  0  0  0  0
  188.5360  173.4500  142.2560 C   0  0  0  0  0  3  0  0  0  0  0  0
  188.4330  174.8270  142.4690 C   0  0  0  0  0  3  0  0  0  0  0  0
  190.9330  173.6720  141.9950 C   0  0  0  0  0  3  0  0  0  0  0  0
  189.8980  171.4070  141.7980 C   0  0  0  0  0  1  0  0  0  0  0  0
  189.7870  172.8710  142.0220 C   0  0  0  0  0  0  0  0  0  0  0  0
  1  7  1  0  0  0  0
  3  5  1  0  0  0  0
  5 11  1  6  0  0  0
  6  4  1  0  0  0  0
  6  5  1  0  0  0  0
  7 13  1  0  0  0  0
  7  4  2  0  0  0  0
  8  1  2  0  0  0  0
  8 12  1  0  0  0  0
  9  8  1  0  0  0  0
 10  2  1  6  0  0  0
 10 12  1  0  0  0  0
 10  3  1  0  0  0  0
 12  6  2  0  0  0  0
 13 19  2  0  0  0  0
 13 15  1  0  0  0  0
 14 17  2  0  0  0  0
 16 14  1  0  0  0  0
 18 16  2  0  0  0  0
 18 15  1  0  0  0  0
 19 17  1  0  0  0  0
 20  1  1  0  0  0  0
 21 24  1  0  0  0  0
 21 20  1  0  0  0  0
 22 21  2  0  0  0  0
 23 24  2  0  0  0  0
 25 27  2  0  0  0  0
 25 22  1  0  0  0  0
 26 27  1  0  0  0  0
 27 23  1  0  0  0  0
M  END
>  <MODEL>
1

>  <REMARK>
 VINA RESULT:      -8.0      0.000      0.000
  Name = 
  3 active torsions:
  status: ('A' for Active; 'I' for Inactive)
    1  A    between atoms: C_1  and  C_14
    2  A    between atoms: C_2  and  C_15
    3  A    between atoms: C_3  and  C_15
                            x       y       z     vdW  Elec       q    Type
                         _______ _______ _______ _____ _____    ______ ____

>  <TORSDO>
F 3

$$$$
=
 OpenBabel11062422093D

 27 30  0  0  1  0  0  0  0  0999 V2000
  188.4080  175.6490  145.1610 C   0  0  0  0  0  0  0  0  0  0  0  0
  185.8580  179.3570  145.0510 C   0  0  0  0  0  1  0  0  0  0  0  0
  184.7470  178.0320  143.3340 N   0  0  0  0  0  2  0  0  0  0  0  0
  187.6140  175.7280  142.8490 C   0  0  0  0  0  3  0  0  0  0  0  0
  185.5650  177.2220  142.4170 C   0  0  2  0  0  3  0  0  0  0  0  0
  186.6270  176.6220  143.2470 C   0  0  0  0  0  0  0  0  0  0  0  0
  188.5230  175.2290  143.8000 C   0  0  0  0  0  0  0  0  0  0  0  0
  187.3910  176.5710  145.5270 C   0  0  0  0  0  0  0  0  0  0  0  0
  187.2430  177.0600  146.9330 C   0  0  0  0  0  1  0  0  0  0  0  0
  185.3740  177.9700  144.6640 C   0  0  1  0  0  3  0  0  0  0  0  0
  186.1560  178.0830  141.4060 N   0  0  0  0  0  1  0  0  0  0  0  0
  186.5210  177.0380  144.5350 C   0  0  0  0  0  0  0  0  0  0  0  0
  189.5850  174.3060  143.3170 C   0  0  0  0  0  0  0  0  0  0  0  0
  191.9170  172.2740  143.0120 C   0  0  0  0  0  3  0  0  0  0  0  0
  190.4450  174.7380  142.1670 C   0  0  0  0  0  2  0  0  0  0  0  0
  192.5440  173.6000  142.8470 C   0  0  0  0  0  3  0  0  0  0  0  0
  190.6620  172.0380  143.4130 C   0  0  0  0  0  3  0  0  0  0  0  0
  191.8960  174.7150  142.5140 C   0  0  0  0  0  3  0  0  0  0  0  0
  189.6550  173.0540  143.7820 C   0  0  0  0  0  3  0  0  0  0  0  0
  189.3860  175.1660  146.2020 C   0  0  0  0  0  2  0  0  0  0  0  0
  190.7810  175.6370  145.9270 C   0  0  0  0  0  0  0  0  0  0  0  0
  191.8640  174.8430  146.3200 C   0  0  0  0  0  3  0  0  0  0  0  0
  192.3250  177.3030  145.0740 C   0  0  0  0  0  3  0  0  0  0  0  0
  191.0160  176.8720  145.3090 C   0  0  0  0  0  3  0  0  0  0  0  0
  193.1730  175.2730  146.0840 C   0  0  0  0  0  3  0  0  0  0  0  0
  194.7950  176.9580  145.2080 C   0  0  0  0  0  1  0  0  0  0  0  0
  193.4040  176.5010  145.4590 C   0  0  0  0  0  0  0  0  0  0  0  0
  1  8  1  0  0  0  0
  1 20  1  0  0  0  0
  3 10  1  0  0  0  0
  4  6  2  0  0  0  0
  4  7  1  0  0  0  0
  5 11  1  6  0  0  0
  5  6  1  0  0  0  0
  5  3  1  0  0  0  0
  6 12  1  0  0  0  0
  7  1  2  0  0  0  0
  8  9  1  0  0  0  0
 10  2  1  6  0  0  0
 12 10  1  0  0  0  0
 12  8  2  0  0  0  0
 13 19  2  0  0  0  0
 13  7  1  0  0  0  0
 14 17  2  0  0  0  0
 15 18  1  0  0  0  0
 15 13  1  0  0  0  0
 16 14  1  0  0  0  0
 17 19  1  0  0  0  0
 18 16  2  0  0  0  0
 21 20  1  0  0  0  0
 21 22  1  0  0  0  0
 23 24  1  0  0  0  0
 23 27  2  0  0  0  0
 24 21  2  0  0  0  0
 25 22  2  0  0  0  0
 26 27  1  0  0  0  0
 27 25  1  0  0  0  0
M  END
>  <MODEL>
2

>  <REMARK>
 VINA RESULT:      -7.3      1.692      4.239
  Name = 
  3 active torsions:
  status: ('A' for Active; 'I' for Inactive)
    1  A    between atoms: C_1  and  C_14
    2  A    between atoms: C_2  and  C_15
    3  A    between atoms: C_3  and  C_15
                            x       y       z     vdW  Elec       q    Type
                         _______ _______ _______ _____ _____    ______ ____

>  <TORSDO>
F 3

$$$$
=
 OpenBabel11062422093D

 27 30  0  0  1  0  0  0  0  0999 V2000
  189.6320  177.0690  143.9720 C   0  0  0  0  0  0  0  0  0  0  0  0
  185.1720  177.6800  143.9210 C   0  0  0  0  0  1  0  0  0  0  0  0
  185.7050  178.6620  146.0880 N   0  0  0  0  0  2  0  0  0  0  0  0
  189.0200  177.0140  146.3400 C   0  0  0  0  0  3  0  0  0  0  0  0
  186.7270  178.0180  146.9300 C   0  0  2  0  0  3  0  0  0  0  0  0
  187.8070  177.6100  146.0130 C   0  0  0  0  0  0  0  0  0  0  0  0
  189.9510  176.7310  145.3240 C   0  0  0  0  0  0  0  0  0  0  0  0
  188.3780  177.6680  143.6770 C   0  0  0  0  0  0  0  0  0  0  0  0
  187.9850  178.0190  142.2770 C   0  0  0  0  0  1  0  0  0  0  0  0
  186.1500  178.5540  144.6880 C   0  0  1  0  0  3  0  0  0  0  0  0
  186.1550  176.8470  147.5730 N   0  0  0  0  0  1  0  0  0  0  0  0
  187.4890  177.9190  144.7300 C   0  0  0  0  0  0  0  0  0  0  0  0
  191.2160  176.0580  145.7200 C   0  0  0  0  0  0  0  0  0  0  0  0
  194.1300  175.0050  145.9800 C   0  0  0  0  0  3  0  0  0  0  0  0
  191.1670  174.6160  146.1300 C   0  0  0  0  0  2  0  0  0  0  0  0
  193.3980  173.9300  145.2830 C   0  0  0  0  0  3  0  0  0  0  0  0
  193.6680  176.2340  146.2420 C   0  0  0  0  0  3  0  0  0  0  0  0
  192.0760  173.7690  145.3040 C   0  0  0  0  0  3  0  0  0  0  0  0
  192.3400  176.7670  145.8740 C   0  0  0  0  0  3  0  0  0  0  0  0
  190.5860  176.7470  142.8510 C   0  0  0  0  0  2  0  0  0  0  0  0
  190.5600  175.2950  142.4870 C   0  0  0  0  0  0  0  0  0  0  0  0
  189.4200  174.5360  142.7740 C   0  0  0  0  0  3  0  0  0  0  0  0
  191.6320  173.3200  141.5710 C   0  0  0  0  0  3  0  0  0  0  0  0
  191.6690  174.6800  141.8900 C   0  0  0  0  0  3  0  0  0  0  0  0
  189.3820  173.1750  142.4530 C   0  0  0  0  0  3  0  0  0  0  0  0
  190.4470  171.1220  141.5090 C   0  0  0  0  0  1  0  0  0  0  0  0
  190.4870  172.5680  141.8500 C   0  0  0  0  0  0  0  0  0  0  0  0
  1  7  1  0  0  0  0
  3  5  1  0  0  0  0
  5 11  1  6  0  0  0
  6  4  1  0  0  0  0
  6  5  1  0  0  0  0
  7 13  1  0  0  0  0
  7  4  2  0  0  0  0
  8  1  2  0  0  0  0
  8 12  1  0  0  0  0
  9  8  1  0  0  0  0
 10  2  1  6  0  0  0
 10 12  1  0  0  0  0
 10  3  1  0  0  0  0
 12  6  2  0  0  0  0
 13 19  2  0  0  0  0
 13 15  1  0  0  0  0
 14 17  2  0  0  0  0
 16 18  2  0  0  0  0
 16 14  1  0  0  0  0
 18 15  1  0  0  0  0
 19 17  1  0  0  0  0
 20  1  1  0  0  0  0
 21 22  1  0  0  0  0
 21 20  1  0  0  0  0
 23 27  2  0  0  0  0
 23 24  1  0  0  0  0
 24 21  2  0  0  0  0
 25 22  2  0  0  0  0
 26 27  1  0  0  0  0
 27 25  1  0  0  0  0
M  END
>  <MODEL>
3

>  <REMARK>
 VINA RESULT:      -7.3      1.158      1.775
  Name = 
  3 active torsions:
  status: ('A' for Active; 'I' for Inactive)
    1  A    between atoms: C_1  and  C_14
    2  A    between atoms: C_2  and  C_15
    3  A    between atoms: C_3  and  C_15
                            x       y       z     vdW  Elec       q    Type
                         _______ _______ _______ _____ _____    ______ ____

>  <TORSDO>
F 3

$$$$
=
 OpenBabel11062422093D

 27 30  0  0  1  0  0  0  0  0999 V2000
  187.9060  175.9430  145.6020 C   0  0  0  0  0  0  0  0  0  0  0  0
  185.3770  179.0640  147.6340 C   0  0  0  0  0  1  0  0  0  0  0  0
  184.3110  179.0210  145.4430 N   0  0  0  0  0  2  0  0  0  0  0  0
  187.1810  177.3800  143.7600 C   0  0  0  0  0  3  0  0  0  0  0  0
  185.1530  178.8860  144.2430 C   0  0  2  0  0  3  0  0  0  0  0  0
  186.1870  177.8910  144.5850 C   0  0  0  0  0  0  0  0  0  0  0  0
  188.0600  176.3990  144.2560 C   0  0  0  0  0  0  0  0  0  0  0  0
  186.8840  176.4980  146.4180 C   0  0  0  0  0  0  0  0  0  0  0  0
  186.6960  176.0720  147.8390 C   0  0  0  0  0  1  0  0  0  0  0  0
  184.8990  178.1780  146.4970 C   0  0  1  0  0  3  0  0  0  0  0  0
  185.7760  180.1640  143.9420 N   0  0  0  0  0  1  0  0  0  0  0  0
  186.0450  177.4750  145.8700 C   0  0  0  0  0  0  0  0  0  0  0  0
  189.1310  175.9130  143.3470 C   0  0  0  0  0  0  0  0  0  0  0  0
  191.4370  174.3750  141.9390 C   0  0  0  0  0  3  0  0  0  0  0  0
  190.0710  176.9130  142.7420 C   0  0  0  0  0  2  0  0  0  0  0  0
  192.0990  175.4840  142.6520 C   0  0  0  0  0  3  0  0  0  0  0  0
  190.1540  174.0120  142.0600 C   0  0  0  0  0  3  0  0  0  0  0  0
  191.4960  176.6010  143.0550 C   0  0  0  0  0  3  0  0  0  0  0  0
  189.1460  174.6390  142.9410 C   0  0  0  0  0  3  0  0  0  0  0  0
  188.8510  174.9220  146.1830 C   0  0  0  0  0  2  0  0  0  0  0  0
  190.2360  175.4670  146.3540 C   0  0  0  0  0  0  0  0  0  0  0  0
  191.3360  174.6400  146.0990 C   0  0  0  0  0  3  0  0  0  0  0  0
  191.7430  177.2690  146.9630 C   0  0  0  0  0  3  0  0  0  0  0  0
  190.4440  176.7810  146.7940 C   0  0  0  0  0  3  0  0  0  0  0  0
  192.6350  175.1280  146.2670 C   0  0  0  0  0  3  0  0  0  0  0  0
  194.2200  176.9600  146.8750 C   0  0  0  0  0  1  0  0  0  0  0  0
  192.8400  176.4420  146.6970 C   0  0  0  0  0  0  0  0  0  0  0  0
  1 20  1  0  0  0  0
  1  8  1  0  0  0  0
  3 10  1  0  0  0  0
  4  7  1  0  0  0  0
  4  6  2  0  0  0  0
  5 11  1  1  0  0  0
  5  6  1  0  0  0  0
  5  3  1  0  0  0  0
  6 12  1  0  0  0  0
  7  1  2  0  0  0  0
  8  9  1  0  0  0  0
 10  2  1  1  0  0  0
 12  8  2  0  0  0  0
 12 10  1  0  0  0  0
 13  7  1  0  0  0  0
 14 17  2  0  0  0  0
 14 16  1  0  0  0  0
 15 18  1  0  0  0  0
 15 13  1  0  0  0  0
 16 18  2  0  0  0  0
 17 19  1  0  0  0  0
 19 13  2  0  0  0  0
 20 21  1  0  0  0  0
 21 24  1  0  0  0  0
 22 25  1  0  0  0  0
 22 21  2  0  0  0  0
 24 23  2  0  0  0  0
 25 27  2  0  0  0  0
 27 26  1  0  0  0  0
 27 23  1  0  0  0  0
M  END
>  <MODEL>
4

>  <REMARK>
 VINA RESULT:      -7.1      1.244      4.327
  Name = 
  3 active torsions:
  status: ('A' for Active; 'I' for Inactive)
    1  A    between atoms: C_1  and  C_14
    2  A    between atoms: C_2  and  C_15
    3  A    between atoms: C_3  and  C_15
                            x       y       z     vdW  Elec       q    Type
                         _______ _______ _______ _____ _____    ______ ____

>  <TORSDO>
F 3

$$$$
=
 OpenBabel11062422093D

 27 30  0  0  1  0  0  0  0  0999 V2000
  190.8320  174.1810  145.2100 C   0  0  0  0  0  0  0  0  0  0  0  0
  195.1940  173.9770  144.1150 C   0  0  0  0  0  1  0  0  0  0  0  0
  195.3350  175.3040  146.1550 N   0  0  0  0  0  2  0  0  0  0  0  0
  191.7500  176.2560  146.1260 C   0  0  0  0  0  3  0  0  0  0  0  0
  194.3040  176.3210  146.4170 C   0  0  2  0  0  3  0  0  0  0  0  0
  193.0230  175.7110  146.0150 C   0  0  0  0  0  0  0  0  0  0  0  0
  190.6330  175.5010  145.7220 C   0  0  0  0  0  0  0  0  0  0  0  0
  192.1510  173.6630  145.1030 C   0  0  0  0  0  0  0  0  0  0  0  0
  192.4150  172.2980  144.5520 C   0  0  0  0  0  1  0  0  0  0  0  0
  194.6710  174.1470  145.5310 C   0  0  1  0  0  3  0  0  0  0  0  0
  194.5680  177.4970  145.6040 N   0  0  0  0  0  1  0  0  0  0  0  0
  193.2220  174.4650  145.5140 C   0  0  0  0  0  0  0  0  0  0  0  0
  189.2960  176.1430  145.8240 C   0  0  0  0  0  0  0  0  0  0  0  0
  186.2750  176.8090  146.1340 C   0  0  0  0  0  3  0  0  0  0  0  0
  188.9480  177.2390  144.8600 C   0  0  0  0  0  2  0  0  0  0  0  0
  186.5130  176.7910  144.6780 C   0  0  0  0  0  3  0  0  0  0  0  0
  187.1370  176.4160  147.0800 C   0  0  0  0  0  3  0  0  0  0  0  0
  187.7020  176.9370  144.0970 C   0  0  0  0  0  3  0  0  0  0  0  0
  188.4920  175.8720  146.8580 C   0  0  0  0  0  3  0  0  0  0  0  0
  189.6650  173.3560  144.7320 C   0  0  0  0  0  2  0  0  0  0  0  0
  189.3820  173.5690  143.2770 C   0  0  0  0  0  0  0  0  0  0  0  0
  188.4420  172.7540  142.6340 C   0  0  0  0  0  3  0  0  0  0  0  0
  189.7980  174.7240  141.1840 C   0  0  0  0  0  3  0  0  0  0  0  0
  190.0640  174.5500  142.5450 C   0  0  0  0  0  3  0  0  0  0  0  0
  188.1750  172.9290  141.2730 C   0  0  0  0  0  3  0  0  0  0  0  0
  188.5670  174.1010  139.1020 C   0  0  0  0  0  1  0  0  0  0  0  0
  188.8510  173.9150  140.5480 C   0  0  0  0  0  0  0  0  0  0  0  0
  1  7  1  0  0  0  0
  3  5  1  0  0  0  0
  5 11  1  6  0  0  0
  6  4  1  0  0  0  0
  6  5  1  0  0  0  0
  7 13  1  0  0  0  0
  7  4  2  0  0  0  0
  8  1  2  0  0  0  0
  8 12  1  0  0  0  0
  9  8  1  0  0  0  0
 10  2  1  6  0  0  0
 10  3  1  0  0  0  0
 12 10  1  0  0  0  0
 12  6  2  0  0  0  0
 13 19  2  0  0  0  0
 14 17  2  0  0  0  0
 15 13  1  0  0  0  0
 16 14  1  0  0  0  0
 18 16  2  0  0  0  0
 18 15  1  0  0  0  0
 19 17  1  0  0  0  0
 20  1  1  0  0  0  0
 21 20  1  0  0  0  0
 22 21  1  0  0  0  0
 23 24  1  0  0  0  0
 24 21  2  0  0  0  0
 25 22  2  0  0  0  0
 26 27  1  0  0  0  0
 27 23  2  0  0  0  0
 27 25  1  0  0  0  0
M  END
>  <MODEL>
5

>  <REMARK>
 VINA RESULT:      -7.0      3.330      6.374
  Name = 
  3 active torsions:
  status: ('A' for Active; 'I' for Inactive)
    1  A    between atoms: C_1  and  C_14
    2  A    between atoms: C_2  and  C_15
    3  A    between atoms: C_3  and  C_15
                            x       y       z     vdW  Elec       q    Type
                         _______ _______ _______ _____ _____    ______ ____

>  <TORSDO>
F 3

$$$$
=
 OpenBabel11062422093D

 27 30  0  0  1  0  0  0  0  0999 V2000
  188.8980  176.3520  145.6780 C   0  0  0  0  0  0  0  0  0  0  0  0
  185.1980  178.4910  147.0930 C   0  0  0  0  0  1  0  0  0  0  0  0
  184.6360  178.1890  144.7410 N   0  0  0  0  0  2  0  0  0  0  0  0
  188.1350  177.5520  143.6880 C   0  0  0  0  0  3  0  0  0  0  0  0
  185.6910  178.3520  143.7280 C   0  0  2  0  0  3  0  0  0  0  0  0
  186.8940  177.7110  144.2920 C   0  0  0  0  0  0  0  0  0  0  0  0
  189.1600  176.8720  144.3730 C   0  0  0  0  0  0  0  0  0  0  0  0
  187.6190  176.5430  146.2660 C   0  0  0  0  0  0  0  0  0  0  0  0
  187.3030  176.0390  147.6380 C   0  0  0  0  0  1  0  0  0  0  0  0
  185.2400  177.5350  145.9140 C   0  0  1  0  0  3  0  0  0  0  0  0
  185.9410  179.7670  143.5130 N   0  0  0  0  0  1  0  0  0  0  0  0
  186.6430  177.2340  145.5380 C   0  0  0  0  0  0  0  0  0  0  0  0
  190.4810  176.7630  143.7000 C   0  0  0  0  0  0  0  0  0  0  0  0
  193.1850  175.8410  142.4750 C   0  0  0  0  0  3  0  0  0  0  0  0
  191.5050  177.8310  143.9470 C   0  0  0  0  0  2  0  0  0  0  0  0
  193.5380  176.4160  143.7870 C   0  0  0  0  0  3  0  0  0  0  0  0
  191.9470  175.5920  142.0290 C   0  0  0  0  0  3  0  0  0  0  0  0
  192.7820  177.2690  144.4750 C   0  0  0  0  0  3  0  0  0  0  0  0
  190.6880  175.8310  142.7630 C   0  0  0  0  0  3  0  0  0  0  0  0
  189.9810  175.6510  146.4600 C   0  0  0  0  0  2  0  0  0  0  0  0
  190.4750  174.4210  145.7630 C   0  0  0  0  0  0  0  0  0  0  0  0
  191.8520  174.1900  145.6720 C   0  0  0  0  0  3  0  0  0  0  0  0
  190.0590  172.3820  144.5160 C   0  0  0  0  0  3  0  0  0  0  0  0
  189.5800  173.5170  145.1760 C   0  0  0  0  0  3  0  0  0  0  0  0
  192.3320  173.0540  145.0130 C   0  0  0  0  0  3  0  0  0  0  0  0
  191.9460  170.9420  143.7370 C   0  0  0  0  0  1  0  0  0  0  0  0
  191.4360  172.1490  144.4370 C   0  0  0  0  0  0  0  0  0  0  0  0
  1  8  1  0  0  0  0
  1 20  1  0  0  0  0
  3 10  1  0  0  0  0
  4  6  2  0  0  0  0
  4  7  1  0  0  0  0
  5 11  1  1  0  0  0
  5  6  1  0  0  0  0
  5  3  1  0  0  0  0
  6 12  1  0  0  0  0
  7  1  2  0  0  0  0
  8  9  1  0  0  0  0
 10  2  1  1  0  0  0
 12 10  1  0  0  0  0
 12  8  2  0  0  0  0
 13 15  1  0  0  0  0
 13  7  1  0  0  0  0
 14 16  1  0  0  0  0
 15 18  1  0  0  0  0
 16 18  2  0  0  0  0
 17 14  2  0  0  0  0
 17 19  1  0  0  0  0
 19 13  2  0  0  0  0
 21 20  1  0  0  0  0
 22 21  1  0  0  0  0
 23 24  1  0  0  0  0
 24 21  2  0  0  0  0
 25 22  2  0  0  0  0
 26 27  1  0  0  0  0
 27 23  2  0  0  0  0
 27 25  1  0  0  0  0
M  END
>  <MODEL>
6

>  <REMARK>
 VINA RESULT:      -6.8      1.628      3.399
  Name = 
  3 active torsions:
  status: ('A' for Active; 'I' for Inactive)
    1  A    between atoms: C_1  and  C_14
    2  A    between atoms: C_2  and  C_15
    3  A    between atoms: C_3  and  C_15
                            x       y       z     vdW  Elec       q    Type
                         _______ _______ _______ _____ _____    ______ ____

>  <TORSDO>
F 3

$$$$
=
 OpenBabel11062422093D

 27 30  0  0  1  0  0  0  0  0999 V2000
  189.3870  176.1650  142.7900 C   0  0  0  0  0  0  0  0  0  0  0  0
  188.4080  174.1660  138.8760 C   0  0  0  0  0  1  0  0  0  0  0  0
  188.9080  172.2060  140.2360 N   0  0  0  0  0  2  0  0  0  0  0  0
  190.7290  174.1200  142.8410 C   0  0  0  0  0  3  0  0  0  0  0  0
  190.0180  172.2710  141.2000 C   0  0  2  0  0  3  0  0  0  0  0  0
  189.9340  173.6050  141.8240 C   0  0  0  0  0  0  0  0  0  0  0  0
  190.4700  175.4100  143.3390 C   0  0  0  0  0  0  0  0  0  0  0  0
  188.6040  175.6080  141.7440 C   0  0  0  0  0  0  0  0  0  0  0  0
  187.4750  176.3650  141.1190 C   0  0  0  0  0  1  0  0  0  0  0  0
  188.2370  173.5170  140.2390 C   0  0  1  0  0  3  0  0  0  0  0  0
  191.2810  172.1340  140.4940 N   0  0  0  0  0  1  0  0  0  0  0  0
  188.9140  174.3220  141.2850 C   0  0  0  0  0  0  0  0  0  0  0  0
  191.3730  175.9310  144.3990 C   0  0  0  0  0  0  0  0  0  0  0  0
  193.7680  176.6860  146.2310 C   0  0  0  0  0  3  0  0  0  0  0  0
  190.9200  175.8630  145.8280 C   0  0  0  0  0  2  0  0  0  0  0  0
  193.1400  175.5230  146.8860 C   0  0  0  0  0  3  0  0  0  0  0  0
  193.4790  177.1570  145.0120 C   0  0  0  0  0  3  0  0  0  0  0  0
  191.8870  175.1180  146.6850 C   0  0  0  0  0  3  0  0  0  0  0  0
  192.4820  176.6030  144.0720 C   0  0  0  0  0  3  0  0  0  0  0  0
  189.1020  177.5650  143.2700 C   0  0  0  0  0  2  0  0  0  0  0  0
  187.8930  177.6260  144.1500 C   0  0  0  0  0  0  0  0  0  0  0  0
  186.9230  178.6090  143.9190 C   0  0  0  0  0  3  0  0  0  0  0  0
  186.6040  176.8130  146.0390 C   0  0  0  0  0  3  0  0  0  0  0  0
  187.7320  176.7330  145.2180 C   0  0  0  0  0  3  0  0  0  0  0  0
  185.7950  178.6890  144.7390 C   0  0  0  0  0  3  0  0  0  0  0  0
  184.4330  177.8760  146.6690 C   0  0  0  0  0  1  0  0  0  0  0  0
  185.6330  177.7910  145.7980 C   0  0  0  0  0  0  0  0  0  0  0  0
  1 20  1  0  0  0  0
  1  7  1  0  0  0  0
  3 10  1  0  0  0  0
  3  5  1  0  0  0  0
  4  7  2  0  0  0  0
  5 11  1  6  0  0  0
  5  6  1  0  0  0  0
  6  4  1  0  0  0  0
  7 13  1  0  0  0  0
  8  1  2  0  0  0  0
  9  8  1  0  0  0  0
 10  2  1  6  0  0  0
 10 12  1  0  0  0  0
 12  8  1  0  0  0  0
 12  6  2  0  0  0  0
 13 15  1  0  0  0  0
 14 16  1  0  0  0  0
 15 18  1  0  0  0  0
 17 14  2  0  0  0  0
 18 16  2  0  0  0  0
 19 13  2  0  0  0  0
 19 17  1  0  0  0  0
 20 21  1  0  0  0  0
 21 24  1  0  0  0  0
 22 21  2  0  0  0  0
 22 25  1  0  0  0  0
 24 23  2  0  0  0  0
 25 27  2  0  0  0  0
 27 23  1  0  0  0  0
 27 26  1  0  0  0  0
M  END
>  <MODEL>
7

>  <REMARK>
 VINA RESULT:      -6.7      3.077      5.660
  Name = 
  3 active torsions:
  status: ('A' for Active; 'I' for Inactive)
    1  A    between atoms: C_1  and  C_14
    2  A    between atoms: C_2  and  C_15
    3  A    between atoms: C_3  and  C_15
                            x       y       z     vdW  Elec       q    Type
                         _______ _______ _______ _____ _____    ______ ____

>  <TORSDO>
F 3

$$$$
=
 OpenBabel11062422093D

 27 30  0  0  1  0  0  0  0  0999 V2000
  189.0420  175.8010  143.1130 C   0  0  0  0  0  0  0  0  0  0  0  0
  188.7370  174.3830  138.8510 C   0  0  0  0  0  1  0  0  0  0  0  0
  188.3290  172.2840  140.0220 N   0  0  0  0  0  2  0  0  0  0  0  0
  189.7610  173.4660  143.2340 C   0  0  0  0  0  3  0  0  0  0  0  0
  189.1030  171.9840  141.2380 C   0  0  2  0  0  3  0  0  0  0  0  0
  189.1820  173.2510  141.9890 C   0  0  0  0  0  0  0  0  0  0  0  0
  189.7030  174.7460  143.8160 C   0  0  0  0  0  0  0  0  0  0  0  0
  188.4710  175.5440  141.8370 C   0  0  0  0  0  0  0  0  0  0  0  0
  187.7900  176.6180  141.0510 C   0  0  0  0  0  1  0  0  0  0  0  0
  188.0340  173.7270  140.0270 C   0  0  1  0  0  3  0  0  0  0  0  0
  190.4380  171.5460  140.8660 N   0  0  0  0  0  1  0  0  0  0  0  0
  188.5670  174.2510  141.3080 C   0  0  0  0  0  0  0  0  0  0  0  0
  190.3710  174.9350  145.1300 C   0  0  0  0  0  0  0  0  0  0  0  0
  191.1960  175.7450  148.0160 C   0  0  0  0  0  3  0  0  0  0  0  0
  191.8560  175.1460  145.1600 C   0  0  0  0  0  2  0  0  0  0  0  0
  191.9610  176.6470  147.1340 C   0  0  0  0  0  3  0  0  0  0  0  0
  190.2160  174.9160  147.6380 C   0  0  0  0  0  3  0  0  0  0  0  0
  192.2260  176.4160  145.8490 C   0  0  0  0  0  3  0  0  0  0  0  0
  189.6920  174.7460  146.2670 C   0  0  0  0  0  3  0  0  0  0  0  0
  188.9930  177.1950  143.6840 C   0  0  0  0  0  2  0  0  0  0  0  0
  187.7150  177.4590  144.4200 C   0  0  0  0  0  0  0  0  0  0  0  0
  186.8380  178.4400  143.9420 C   0  0  0  0  0  3  0  0  0  0  0  0
  186.2100  177.0300  146.2740 C   0  0  0  0  0  3  0  0  0  0  0  0
  187.4000  176.7600  145.5920 C   0  0  0  0  0  3  0  0  0  0  0  0
  185.6470  178.7090  144.6230 C   0  0  0  0  0  3  0  0  0  0  0  0
  184.0660  178.2910  146.5110 C   0  0  0  0  0  1  0  0  0  0  0  0
  185.3320  178.0040  145.7880 C   0  0  0  0  0  0  0  0  0  0  0  0
  1 20  1  0  0  0  0
  1  7  1  0  0  0  0
  3 10  1  0  0  0  0
  3  5  1  0  0  0  0
  4  7  2  0  0  0  0
  5 11  1  6  0  0  0
  5  6  1  0  0  0  0
  6  4  1  0  0  0  0
  7 13  1  0  0  0  0
  8  1  2  0  0  0  0
  9  8  1  0  0  0  0
 10  2  1  6  0  0  0
 10 12  1  0  0  0  0
 12  8  1  0  0  0  0
 12  6  2  0  0  0  0
 13 15  1  0  0  0  0
 13 19  2  0  0  0  0
 15 18  1  0  0  0  0
 16 14  1  0  0  0  0
 17 14  2  0  0  0  0
 18 16  2  0  0  0  0
 19 17  1  0  0  0  0
 20 21  1  0  0  0  0
 21 24  1  0  0  0  0
 22 21  2  0  0  0  0
 22 25  1  0  0  0  0
 24 23  2  0  0  0  0
 25 27  2  0  0  0  0
 27 23  1  0  0  0  0
 27 26  1  0  0  0  0
M  END
>  <MODEL>
8

>  <REMARK>
 VINA RESULT:      -6.7      2.976      5.695
  Name = 
  3 active torsions:
  status: ('A' for Active; 'I' for Inactive)
    1  A    between atoms: C_1  and  C_14
    2  A    between atoms: C_2  and  C_15
    3  A    between atoms: C_3  and  C_15
                            x       y       z     vdW  Elec       q    Type
                         _______ _______ _______ _____ _____    ______ ____

>  <TORSDO>
F 3

$$$$
=
 OpenBabel11062422093D

 27 30  0  0  1  0  0  0  0  0999 V2000
  192.9610  174.7550  144.1670 C   0  0  0  0  0  0  0  0  0  0  0  0
  197.4130  175.2910  143.7780 C   0  0  0  0  0  1  0  0  0  0  0  0
  196.6510  176.8630  142.0780 N   0  0  0  0  0  2  0  0  0  0  0  0
  193.2580  175.3840  141.8210 C   0  0  0  0  0  3  0  0  0  0  0  0
  195.5000  176.4990  141.2350 C   0  0  2  0  0  3  0  0  0  0  0  0
  194.5290  175.8500  142.1360 C   0  0  0  0  0  0  0  0  0  0  0  0
  192.4530  174.8250  142.8320 C   0  0  0  0  0  0  0  0  0  0  0  0
  194.2690  175.2330  144.4460 C   0  0  0  0  0  0  0  0  0  0  0  0
  194.8550  175.1600  145.8200 C   0  0  0  0  0  1  0  0  0  0  0  0
  196.3860  176.3570  143.4350 C   0  0  1  0  0  3  0  0  0  0  0  0
  195.9280  175.5600  140.2110 N   0  0  0  0  0  1  0  0  0  0  0  0
  195.0240  175.7710  143.3970 C   0  0  0  0  0  0  0  0  0  0  0  0
  191.1180  174.3050  142.4380 C   0  0  0  0  0  0  0  0  0  0  0  0
  188.1030  173.5880  142.1890 C   0  0  0  0  0  3  0  0  0  0  0  0
  191.0020  172.8750  142.0010 C   0  0  0  0  0  2  0  0  0  0  0  0
  188.7170  172.4250  142.8580 C   0  0  0  0  0  3  0  0  0  0  0  0
  188.6970  174.7630  141.9460 C   0  0  0  0  0  3  0  0  0  0  0  0
  190.0120  172.1180  142.8200 C   0  0  0  0  0  3  0  0  0  0  0  0
  190.0790  175.1380  142.3090 C   0  0  0  0  0  3  0  0  0  0  0  0
  192.1440  174.1280  145.2690 C   0  0  0  0  0  2  0  0  0  0  0  0
  190.9920  174.9930  145.6800 C   0  0  0  0  0  0  0  0  0  0  0  0
  191.1700  176.3780  145.7670 C   0  0  0  0  0  3  0  0  0  0  0  0
  188.6910  175.2520  146.4010 C   0  0  0  0  0  3  0  0  0  0  0  0
  189.7500  174.4320  146.0050 C   0  0  0  0  0  3  0  0  0  0  0  0
  190.1100  177.1990  146.1620 C   0  0  0  0  0  3  0  0  0  0  0  0
  187.7430  177.5100  146.8970 C   0  0  0  0  0  1  0  0  0  0  0  0
  188.8700  176.6370  146.4780 C   0  0  0  0  0  0  0  0  0  0  0  0
  1  8  1  0  0  0  0
  1 20  1  0  0  0  0
  3 10  1  0  0  0  0
  4  6  2  0  0  0  0
  4  7  1  0  0  0  0
  5 11  1  6  0  0  0
  5  3  1  0  0  0  0
  5  6  1  0  0  0  0
  6 12  1  0  0  0  0
  7  1  2  0  0  0  0
  8  9  1  0  0  0  0
 10  2  1  6  0  0  0
 12 10  1  0  0  0  0
 12  8  2  0  0  0  0
 13  7  1  0  0  0  0
 14 16  1  0  0  0  0
 15 13  1  0  0  0  0
 15 18  1  0  0  0  0
 17 14  2  0  0  0  0
 17 19  1  0  0  0  0
 18 16  2  0  0  0  0
 19 13  2  0  0  0  0
 20 21  1  0  0  0  0
 21 22  2  0  0  0  0
 21 24  1  0  0  0  0
 22 25  1  0  0  0  0
 23 27  1  0  0  0  0
 24 23  2  0  0  0  0
 25 27  2  0  0  0  0
 27 26  1  0  0  0  0
M  END
>  <MODEL>
9

>  <REMARK>
 VINA RESULT:      -6.7      4.273      7.742
  Name = 
  3 active torsions:
  status: ('A' for Active; 'I' for Inactive)
    1  A    between atoms: C_1  and  C_14
    2  A    between atoms: C_2  and  C_15
    3  A    between atoms: C_3  and  C_15
                            x       y       z     vdW  Elec       q    Type
                         _______ _______ _______ _____ _____    ______ ____

>  <TORSDO>
F 3

$$$$
