=
 OpenBabel11062419343D

 40 45  0  0  1  0  0  0  0  0999 V2000
  190.5180  173.4720  139.7850 S   0  0  0  0  0  0  0  0  0  0  0  0
  191.0380  173.6040  141.4790 C   0  0  2  0  0  3  0  0  0  0  0  0
  192.0060  172.7410  142.2270 C   0  0  1  0  0  3  0  0  0  0  0  0
  190.1650  174.1210  142.2950 C   0  0  2  0  0  3  0  0  0  0  0  0
  190.4670  173.7100  143.6560 C   0  0  0  0  0  0  0  0  0  0  0  0
  191.5130  172.8910  143.6420 C   0  0  0  0  0  3  0  0  0  0  0  0
  188.8580  174.5140  141.7150 C   0  0  2  0  0  3  0  0  0  0  0  0
  188.8080  173.8270  140.3470 C   0  0  0  0  0  2  0  0  0  0  0  0
  192.2560  176.3800  146.1810 N   0  0  0  0  0  0  0  0  0  0  0  0
  190.2970  176.6220  147.7060 C   0  0  0  0  0  2  0  0  0  0  0  0
  188.9190  175.3360  144.7420 C   0  0  0  0  0  2  0  0  0  0  0  0
  194.4810  176.8440  146.7340 O   0  0  0  0  0  0  0  0  0  0  0  0
  191.2900  176.0990  145.1130 C   0  0  0  0  0  2  0  0  0  0  0  0
  191.8160  176.6920  147.5500 C   0  0  0  0  0  2  0  0  0  0  0  0
  190.1300  175.2470  145.6370 C   0  0  1  0  0  0  0  0  0  0  0  0
  189.7650  175.3250  147.1130 C   0  0  0  0  0  2  0  0  0  0  0  0
  193.6570  176.4300  145.8740 C   0  0  0  0  0  0  0  0  0  0  0  0
  189.6510  174.0070  144.8820 C   0  0  2  0  0  3  0  0  0  0  0  0
  194.1710  175.9700  144.5470 C   0  0  0  0  0  2  0  0  0  0  0  0
  196.5620  175.3320  144.3530 O   0  0  0  0  0  0  0  0  0  0  0  0
  197.3440  174.3440  144.6620 N   0  0  0  0  0  0  0  0  0  0  0  0
  195.3350  175.0530  144.7230 C   0  0  0  0  0  0  0  0  0  0  0  0
  195.2520  173.8440  145.3080 N   0  0  0  0  0  0  0  0  0  0  0  0
  196.5380  173.4410  145.2500 C   0  0  0  0  0  0  0  0  0  0  0  0
  195.8500  171.1300  145.7310 C   0  0  0  0  0  1  0  0  0  0  0  0
  197.0030  172.1130  145.7360 C   0  0  0  0  0  2  0  0  0  0  0  0
  191.9660  171.3420  141.7870 N   0  0  0  0  0  2  0  0  0  0  0  0
  190.8380  170.7490  142.2580 O   0  0  0  0  0  1  0  0  0  0  0  0
  188.8250  175.9000  141.5410 O   0  0  0  0  0  0  0  0  0  0  0  0
  187.6130  176.1510  140.8940 C   0  0  0  0  0  2  0  0  0  0  0  0
  187.0580  177.4840  141.3510 C   0  0  1  0  0  3  0  0  0  0  0  0
  186.2890  177.2770  142.6440 C   0  0  1  0  0  3  0  0  0  0  0  0
  187.6890  177.8640  142.6710 C   0  0  0  0  0  2  0  0  0  0  0  0
  184.0400  178.1840  142.2950 C   0  0  0  0  0  2  0  0  0  0  0  0
  185.2600  178.3580  142.8050 C   0  0  0  0  0  0  0  0  0  0  0  0
  185.4840  179.4700  143.7840 C   0  0  0  0  0  2  0  0  0  0  0  0
  186.5940  178.2280  146.0850 N   0  0  0  0  0  1  0  0  0  0  0  0
  184.7330  179.2320  145.0120 N   0  0  0  0  0  0  0  0  0  0  0  0
  184.4320  178.4910  147.2220 N   0  0  0  0  0  1  0  0  0  0  0  0
  185.2420  178.6780  146.0680 C   0  0  0  0  0  0  0  0  0  0  0  0
  1  8  1  0  0  0  0
  2  1  1  6  0  0  0
  2  3  1  0  0  0  0
  2  4  1  0  0  0  0
  3 27  1  6  0  0  0
  3  6  1  0  0  0  0
  4  5  1  1  0  0  0
  6  5  2  0  0  0  0
  7 29  1  6  0  0  0
  7  4  1  0  0  0  0
  8  7  1  0  0  0  0
  9 14  1  0  0  0  0
 11 18  1  0  0  0  0
 13 15  1  0  0  0  0
 13  9  1  0  0  0  0
 14 10  1  0  0  0  0
 15 11  1  6  0  0  0
 15 16  1  0  0  0  0
 16 10  1  0  0  0  0
 17  9  1  0  0  0  0
 17 12  2  0  0  0  0
 18  5  1  6  0  0  0
 18 15  1  0  0  0  0
 19 22  1  0  0  0  0
 19 17  1  0  0  0  0
 20 21  1  0  0  0  0
 20 22  1  0  0  0  0
 21 24  2  0  0  0  0
 22 23  2  0  0  0  0
 24 23  1  0  0  0  0
 24 26  1  0  0  0  0
 25 26  1  0  0  0  0
 27 28  1  0  0  0  0
 30 29  1  0  0  0  0
 31 30  1  1  0  0  0
 31 32  1  0  0  0  0
 31 33  1  0  0  0  0
 32 33  1  0  0  0  0
 32 35  1  6  0  0  0
 34 35  2  0  0  0  0
 35 36  1  0  0  0  0
 36 38  1  0  0  0  0
 38 40  2  0  0  0  0
 40 37  1  0  0  0  0
 40 39  1  0  0  0  0
M  END
>  <MODEL>
1

>  <REMARK>
 VINA RESULT:      -7.3      0.000      0.000
  Name = 
  11 active torsions:
  status: ('A' for Active; 'I' for Inactive)
    1  A    between atoms: C_3  and  C_24
    2  A    between atoms: C_4  and  C_39
    3  A    between atoms: N_6  and  C_11
    4  A    between atoms: C_13  and  C_18
    5  A    between atoms: C_13  and  C_38
    6  A    between atoms: N_14  and  C_32
    7  A    between atoms: C_15  and  C_40
    8  A    between atoms: O_17  and  C_20
    9  A    between atoms: O_17  and  C_24
   10  A    between atoms: C_21  and  C_36
   11  A    between atoms: C_32  and  C_39
                            x       y       z     vdW  Elec       q    Type
                         _______ _______ _______ _____ _____    ______ ____

>  <TORSDO>
F 11

$$$$
=
 OpenBabel11062419343D

 40 45  0  0  1  0  0  0  0  0999 V2000
  190.4720  177.9680  148.0450 S   0  0  0  0  0  0  0  0  0  0  0  0
  189.7230  177.3610  146.5520 C   0  0  2  0  0  3  0  0  0  0  0  0
  188.3000  177.4910  146.1030 C   0  0  1  0  0  3  0  0  0  0  0  0
  190.2620  176.2870  146.0500 C   0  0  2  0  0  3  0  0  0  0  0  0
  189.3010  175.6140  145.1930 C   0  0  0  0  0  0  0  0  0  0  0  0
  188.1490  176.2760  145.2260 C   0  0  0  0  0  3  0  0  0  0  0  0
  191.4080  175.7070  146.7900 C   0  0  2  0  0  3  0  0  0  0  0  0
  191.3710  176.3740  148.1690 C   0  0  0  0  0  2  0  0  0  0  0  0
  188.4420  175.7410  141.2000 N   0  0  0  0  0  0  0  0  0  0  0  0
  189.2610  173.4380  140.7010 C   0  0  0  0  0  2  0  0  0  0  0  0
  190.8120  174.2570  143.7450 C   0  0  0  0  0  2  0  0  0  0  0  0
  186.9120  176.9550  139.9110 O   0  0  0  0  0  0  0  0  0  0  0  0
  189.4300  175.7730  142.2830 C   0  0  0  0  0  2  0  0  0  0  0  0
  188.3140  174.5750  140.3130 C   0  0  0  0  0  2  0  0  0  0  0  0
  189.5210  174.4120  142.9790 C   0  0  1  0  0  0  0  0  0  0  0  0
  189.1610  173.1580  142.1940 C   0  0  0  0  0  2  0  0  0  0  0  0
  187.6330  176.9000  140.9430 C   0  0  0  0  0  0  0  0  0  0  0  0
  189.4890  174.2940  144.5020 C   0  0  2  0  0  3  0  0  0  0  0  0
  187.6070  178.0470  141.9020 C   0  0  0  0  0  2  0  0  0  0  0  0
  185.1750  177.5930  142.0860 O   0  0  0  0  0  0  0  0  0  0  0  0
  184.1760  177.8820  142.8640 N   0  0  0  0  0  0  0  0  0  0  0  0
  186.2610  178.1750  142.5330 C   0  0  0  0  0  0  0  0  0  0  0  0
  186.0250  178.8860  143.6510 N   0  0  0  0  0  0  0  0  0  0  0  0
  184.7050  178.6680  143.8200 C   0  0  0  0  0  0  0  0  0  0  0  0
  184.0230  178.4310  146.1710 C   0  0  0  0  0  1  0  0  0  0  0  0
  183.9070  179.2780  144.9200 C   0  0  0  0  0  2  0  0  0  0  0  0
  187.3540  177.4670  147.2240 N   0  0  0  0  0  2  0  0  0  0  0  0
  186.5560  176.3730  147.1240 O   0  0  0  0  0  1  0  0  0  0  0  0
  192.5990  176.0460  146.1420 O   0  0  0  0  0  0  0  0  0  0  0  0
  193.3830  174.8920  146.2060 C   0  0  0  0  0  2  0  0  0  0  0  0
  194.8060  175.2200  145.8040 C   0  0  1  0  0  3  0  0  0  0  0  0
  195.0160  174.8070  144.3590 C   0  0  1  0  0  3  0  0  0  0  0  0
  194.7910  176.2660  144.7130 C   0  0  0  0  0  2  0  0  0  0  0  0
  196.9350  173.2940  144.1930 C   0  0  0  0  0  2  0  0  0  0  0  0
  196.4710  174.5410  144.1080 C   0  0  0  0  0  0  0  0  0  0  0  0
  197.3280  175.5910  143.4680 C   0  0  0  0  0  2  0  0  0  0  0  0
  195.9880  176.8960  141.3300 N   0  0  0  0  0  1  0  0  0  0  0  0
  197.5590  175.2770  142.0620 N   0  0  0  0  0  0  0  0  0  0  0  0
  197.2540  175.5100  139.7440 N   0  0  0  0  0  1  0  0  0  0  0  0
  196.9590  175.8820  141.0840 C   0  0  0  0  0  0  0  0  0  0  0  0
  1  8  1  0  0  0  0
  2  1  1  1  0  0  0
  3  2  1  0  0  0  0
  3 27  1  1  0  0  0
  4  5  1  1  0  0  0
  4  2  1  0  0  0  0
  4  7  1  0  0  0  0
  5  6  2  0  0  0  0
  6  3  1  0  0  0  0
  7 29  1  6  0  0  0
  7  8  1  0  0  0  0
  9 13  1  0  0  0  0
 10 16  1  0  0  0  0
 11 18  1  0  0  0  0
 12 17  2  0  0  0  0
 13 15  1  0  0  0  0
 14 10  1  0  0  0  0
 14  9  1  0  0  0  0
 15 16  1  6  0  0  0
 15 11  1  0  0  0  0
 15 18  1  0  0  0  0
 17  9  1  0  0  0  0
 17 19  1  0  0  0  0
 18  5  1  1  0  0  0
 19 22  1  0  0  0  0
 20 22  1  0  0  0  0
 20 21  1  0  0  0  0
 21 24  2  0  0  0  0
 22 23  2  0  0  0  0
 23 24  1  0  0  0  0
 24 26  1  0  0  0  0
 26 25  1  0  0  0  0
 28 27  1  0  0  0  0
 29 30  1  0  0  0  0
 31 30  1  6  0  0  0
 32 35  1  1  0  0  0
 32 33  1  0  0  0  0
 32 31  1  0  0  0  0
 33 31  1  0  0  0  0
 35 34  2  0  0  0  0
 36 35  1  0  0  0  0
 38 36  1  0  0  0  0
 39 40  1  0  0  0  0
 40 37  1  0  0  0  0
 40 38  2  0  0  0  0
M  END
>  <MODEL>
2

>  <REMARK>
 VINA RESULT:      -7.2      2.812      9.472
  Name = 
  11 active torsions:
  status: ('A' for Active; 'I' for Inactive)
    1  A    between atoms: C_3  and  C_24
    2  A    between atoms: C_4  and  C_39
    3  A    between atoms: N_6  and  C_11
    4  A    between atoms: C_13  and  C_18
    5  A    between atoms: C_13  and  C_38
    6  A    between atoms: N_14  and  C_32
    7  A    between atoms: C_15  and  C_40
    8  A    between atoms: O_17  and  C_20
    9  A    between atoms: O_17  and  C_24
   10  A    between atoms: C_21  and  C_36
   11  A    between atoms: C_32  and  C_39
                            x       y       z     vdW  Elec       q    Type
                         _______ _______ _______ _____ _____    ______ ____

>  <TORSDO>
F 11

$$$$
=
 OpenBabel11062419343D

 40 45  0  0  1  0  0  0  0  0999 V2000
  191.3240  176.3570  148.0930 S   0  0  0  0  0  0  0  0  0  0  0  0
  191.4210  176.2610  146.3210 C   0  0  2  0  0  3  0  0  0  0  0  0
  192.6400  176.2770  145.4520 C   0  0  1  0  0  3  0  0  0  0  0  0
  190.3960  176.7420  145.6760 C   0  0  2  0  0  3  0  0  0  0  0  0
  190.7910  177.0840  144.3190 C   0  0  0  0  0  0  0  0  0  0  0  0
  192.0900  176.8480  144.1710 C   0  0  0  0  0  3  0  0  0  0  0  0
  189.3010  177.3150  146.4940 C   0  0  2  0  0  3  0  0  0  0  0  0
  189.9020  177.4980  147.8910 C   0  0  0  0  0  2  0  0  0  0  0  0
  188.8740  174.4480  141.8550 N   0  0  0  0  0  0  0  0  0  0  0  0
  187.4790  176.1640  140.7010 C   0  0  0  0  0  2  0  0  0  0  0  0
  188.4680  177.7310  143.6860 C   0  0  0  0  0  2  0  0  0  0  0  0
  189.4170  172.3360  141.0070 O   0  0  0  0  0  0  0  0  0  0  0  0
  188.8520  175.3310  143.0260 C   0  0  0  0  0  2  0  0  0  0  0  0
  188.1580  174.7960  140.6190 C   0  0  0  0  0  2  0  0  0  0  0  0
  188.9560  176.8000  142.6040 C   0  0  1  0  0  0  0  0  0  0  0  0
  188.4580  177.2070  141.2230 C   0  0  0  0  0  2  0  0  0  0  0  0
  189.5400  173.1790  141.9370 C   0  0  0  0  0  0  0  0  0  0  0  0
  189.9370  177.7540  143.2820 C   0  0  2  0  0  3  0  0  0  0  0  0
  190.4120  172.8420  143.1040 C   0  0  0  0  0  2  0  0  0  0  0  0
  192.1800  174.0650  141.8650 O   0  0  0  0  0  0  0  0  0  0  0  0
  193.4510  174.3130  141.9520 N   0  0  0  0  0  0  0  0  0  0  0  0
  191.8100  173.3080  142.8680 C   0  0  0  0  0  0  0  0  0  0  0  0
  192.8420  173.0170  143.6820 N   0  0  0  0  0  0  0  0  0  0  0  0
  193.8470  173.6730  143.0680 C   0  0  0  0  0  0  0  0  0  0  0  0
  195.2860  173.6340  145.0620 C   0  0  0  0  0  1  0  0  0  0  0  0
  195.2570  173.6460  143.5460 C   0  0  0  0  0  2  0  0  0  0  0  0
  193.7100  177.1150  146.0020 N   0  0  0  0  0  2  0  0  0  0  0  0
  194.7470  177.1640  145.1250 O   0  0  0  0  0  1  0  0  0  0  0  0
  188.2440  176.4030  146.5580 O   0  0  0  0  0  0  0  0  0  0  0  0
  187.1960  177.1120  147.1500 C   0  0  0  0  0  2  0  0  0  0  0  0
  186.7390  178.2170  146.2190 C   0  0  1  0  0  3  0  0  0  0  0  0
  185.2970  177.9560  145.8200 C   0  0  1  0  0  3  0  0  0  0  0  0
  185.6230  178.9970  146.8760 C   0  0  0  0  0  2  0  0  0  0  0  0
  185.0730  179.9410  144.4020 C   0  0  0  0  0  2  0  0  0  0  0  0
  185.0050  178.6130  144.5030 C   0  0  0  0  0  0  0  0  0  0  0  0
  184.9470  177.7930  143.2490 C   0  0  0  0  0  2  0  0  0  0  0  0
  184.7970  178.3110  140.4600 N   0  0  0  0  0  1  0  0  0  0  0  0
  183.6940  178.0280  142.5400 N   0  0  0  0  0  0  0  0  0  0  0  0
  182.3520  178.4630  140.6600 N   0  0  0  0  0  1  0  0  0  0  0  0
  183.6220  178.2500  141.2640 C   0  0  0  0  0  0  0  0  0  0  0  0
  2  1  1  1  0  0  0
  3 27  1  1  0  0  0
  3  2  1  0  0  0  0
  4  5  1  6  0  0  0
  4  2  1  0  0  0  0
  4  7  1  0  0  0  0
  6  5  2  0  0  0  0
  6  3  1  0  0  0  0
  7 29  1  1  0  0  0
  7  8  1  0  0  0  0
  8  1  1  0  0  0  0
  9 17  1  0  0  0  0
  9 13  1  0  0  0  0
 10 16  1  0  0  0  0
 12 17  2  0  0  0  0
 14 10  1  0  0  0  0
 14  9  1  0  0  0  0
 15 16  1  6  0  0  0
 15 13  1  0  0  0  0
 15 18  1  0  0  0  0
 15 11  1  0  0  0  0
 17 19  1  0  0  0  0
 18 11  1  0  0  0  0
 18  5  1  1  0  0  0
 20 21  1  0  0  0  0
 20 22  1  0  0  0  0
 21 24  2  0  0  0  0
 22 19  1  0  0  0  0
 22 23  2  0  0  0  0
 24 26  1  0  0  0  0
 24 23  1  0  0  0  0
 26 25  1  0  0  0  0
 28 27  1  0  0  0  0
 29 30  1  0  0  0  0
 31 33  1  0  0  0  0
 31 30  1  1  0  0  0
 32 35  1  6  0  0  0
 32 31  1  0  0  0  0
 32 33  1  0  0  0  0
 34 35  2  0  0  0  0
 36 35  1  0  0  0  0
 37 40  1  0  0  0  0
 38 36  1  0  0  0  0
 39 40  1  0  0  0  0
 40 38  2  0  0  0  0
M  END
>  <MODEL>
3

>  <REMARK>
 VINA RESULT:      -7.0      2.634      5.373
  Name = 
  11 active torsions:
  status: ('A' for Active; 'I' for Inactive)
    1  A    between atoms: C_3  and  C_24
    2  A    between atoms: C_4  and  C_39
    3  A    between atoms: N_6  and  C_11
    4  A    between atoms: C_13  and  C_18
    5  A    between atoms: C_13  and  C_38
    6  A    between atoms: N_14  and  C_32
    7  A    between atoms: C_15  and  C_40
    8  A    between atoms: O_17  and  C_20
    9  A    between atoms: O_17  and  C_24
   10  A    between atoms: C_21  and  C_36
   11  A    between atoms: C_32  and  C_39
                            x       y       z     vdW  Elec       q    Type
                         _______ _______ _______ _____ _____    ______ ____

>  <TORSDO>
F 11

$$$$
=
 OpenBabel11062419343D

 40 45  0  0  1  0  0  0  0  0999 V2000
  191.1530  176.2530  147.9580 S   0  0  0  0  0  0  0  0  0  0  0  0
  191.4960  175.2820  146.5100 C   0  0  2  0  0  3  0  0  0  0  0  0
  192.8050  174.7150  146.0560 C   0  0  1  0  0  3  0  0  0  0  0  0
  190.7170  175.5020  145.4890 C   0  0  2  0  0  3  0  0  0  0  0  0
  191.3820  175.0760  144.2690 C   0  0  0  0  0  0  0  0  0  0  0  0
  192.6010  174.6400  144.5660 C   0  0  0  0  0  3  0  0  0  0  0  0
  189.6680  176.5350  145.6610 C   0  0  2  0  0  3  0  0  0  0  0  0
  190.0740  177.3110  146.9180 C   0  0  0  0  0  2  0  0  0  0  0  0
  191.0530  171.5480  142.2340 N   0  0  0  0  0  0  0  0  0  0  0  0
  189.8990  172.5200  140.2470 C   0  0  0  0  0  2  0  0  0  0  0  0
  189.3880  174.8980  142.7810 C   0  0  0  0  0  2  0  0  0  0  0  0
  192.2560  169.5410  142.2670 O   0  0  0  0  0  0  0  0  0  0  0  0
  190.4300  172.6180  143.0210 C   0  0  0  0  0  2  0  0  0  0  0  0
  190.8000  171.4110  140.7910 C   0  0  0  0  0  2  0  0  0  0  0  0
  190.4100  173.9320  142.2340 C   0  0  1  0  0  0  0  0  0  0  0  0
  190.3990  173.8800  140.7130 C   0  0  0  0  0  2  0  0  0  0  0  0
  191.8640  170.5630  142.8930 C   0  0  0  0  0  0  0  0  0  0  0  0
  190.8700  175.2440  142.8670 C   0  0  2  0  0  3  0  0  0  0  0  0
  192.2810  170.7400  144.3190 C   0  0  0  0  0  2  0  0  0  0  0  0
  194.3130  171.8140  143.3830 O   0  0  0  0  0  0  0  0  0  0  0  0
  195.4800  172.2230  143.7780 N   0  0  0  0  0  0  0  0  0  0  0  0
  193.6650  171.2930  144.3960 C   0  0  0  0  0  0  0  0  0  0  0  0
  194.3880  171.3380  145.5300 N   0  0  0  0  0  0  0  0  0  0  0  0
  195.5170  171.9340  145.0920 C   0  0  0  0  0  0  0  0  0  0  0  0
  196.9990  173.6770  145.9900 C   0  0  0  0  0  1  0  0  0  0  0  0
  196.6970  172.1930  145.9610 C   0  0  0  0  0  2  0  0  0  0  0  0
  193.9400  175.5760  146.4030 N   0  0  0  0  0  2  0  0  0  0  0  0
  193.8760  176.7260  145.6810 O   0  0  0  0  0  1  0  0  0  0  0  0
  188.4350  175.9130  145.8760 O   0  0  0  0  0  0  0  0  0  0  0  0
  187.6290  176.9030  146.4420 C   0  0  0  0  0  2  0  0  0  0  0  0
  186.2450  176.8470  145.8260 C   0  0  1  0  0  3  0  0  0  0  0  0
  186.1020  177.9920  144.8390 C   0  0  1  0  0  3  0  0  0  0  0  0
  186.3680  176.5820  144.3430 C   0  0  0  0  0  2  0  0  0  0  0  0
  183.9640  178.7940  145.7240 C   0  0  0  0  0  2  0  0  0  0  0  0
  184.6540  178.3460  144.6740 C   0  0  0  0  0  0  0  0  0  0  0  0
  184.0680  178.5010  143.3030 C   0  0  0  0  0  2  0  0  0  0  0  0
  183.4890  178.3320  140.5260 N   0  0  0  0  0  1  0  0  0  0  0  0
  185.0820  178.2620  142.2820 N   0  0  0  0  0  0  0  0  0  0  0  0
  185.8800  177.9670  140.0910 N   0  0  0  0  0  1  0  0  0  0  0  0
  184.8220  178.1980  141.0130 C   0  0  0  0  0  0  0  0  0  0  0  0
  2  1  1  6  0  0  0
  3 27  1  6  0  0  0
  3  2  1  0  0  0  0
  4  5  1  6  0  0  0
  4  7  1  0  0  0  0
  4  2  1  0  0  0  0
  5  6  2  0  0  0  0
  6  3  1  0  0  0  0
  7 29  1  1  0  0  0
  7  8  1  0  0  0  0
  8  1  1  0  0  0  0
  9 17  1  0  0  0  0
  9 13  1  0  0  0  0
 10 16  1  0  0  0  0
 10 14  1  0  0  0  0
 11 18  1  0  0  0  0
 12 17  2  0  0  0  0
 14  9  1  0  0  0  0
 15 16  1  6  0  0  0
 15 11  1  0  0  0  0
 15 18  1  0  0  0  0
 15 13  1  0  0  0  0
 17 19  1  0  0  0  0
 18  5  1  1  0  0  0
 19 22  1  0  0  0  0
 20 21  1  0  0  0  0
 20 22  1  0  0  0  0
 21 24  2  0  0  0  0
 22 23  2  0  0  0  0
 24 23  1  0  0  0  0
 24 26  1  0  0  0  0
 26 25  1  0  0  0  0
 28 27  1  0  0  0  0
 29 30  1  0  0  0  0
 31 30  1  1  0  0  0
 32 35  1  6  0  0  0
 32 31  1  0  0  0  0
 33 32  1  0  0  0  0
 33 31  1  0  0  0  0
 35 34  2  0  0  0  0
 36 35  1  0  0  0  0
 37 40  1  0  0  0  0
 38 36  1  0  0  0  0
 39 40  1  0  0  0  0
 40 38  2  0  0  0  0
M  END
>  <MODEL>
4

>  <REMARK>
 VINA RESULT:      -7.0      2.564      5.103
  Name = 
  11 active torsions:
  status: ('A' for Active; 'I' for Inactive)
    1  A    between atoms: C_3  and  C_24
    2  A    between atoms: C_4  and  C_39
    3  A    between atoms: N_6  and  C_11
    4  A    between atoms: C_13  and  C_18
    5  A    between atoms: C_13  and  C_38
    6  A    between atoms: N_14  and  C_32
    7  A    between atoms: C_15  and  C_40
    8  A    between atoms: O_17  and  C_20
    9  A    between atoms: O_17  and  C_24
   10  A    between atoms: C_21  and  C_36
   11  A    between atoms: C_32  and  C_39
                            x       y       z     vdW  Elec       q    Type
                         _______ _______ _______ _____ _____    ______ ____

>  <TORSDO>
F 11

$$$$
=
 OpenBabel11062419343D

 40 45  0  0  1  0  0  0  0  0999 V2000
  189.0360  173.1160  140.3420 S   0  0  0  0  0  0  0  0  0  0  0  0
  190.2700  173.3150  141.6060 C   0  0  2  0  0  3  0  0  0  0  0  0
  191.2670  172.3130  142.1010 C   0  0  1  0  0  3  0  0  0  0  0  0
  189.9790  174.1700  142.5440 C   0  0  2  0  0  3  0  0  0  0  0  0
  190.7620  173.8740  143.7320 C   0  0  0  0  0  0  0  0  0  0  0  0
  191.4970  172.7890  143.5110 C   0  0  0  0  0  3  0  0  0  0  0  0
  188.6640  174.8470  142.4460 C   0  0  2  0  0  3  0  0  0  0  0  0
  187.8690  174.0290  141.4240 C   0  0  0  0  0  2  0  0  0  0  0  0
  194.3090  175.4340  145.0310 N   0  0  0  0  0  0  0  0  0  0  0  0
  193.3440  176.6250  146.9990 C   0  0  0  0  0  2  0  0  0  0  0  0
  190.5840  176.0710  144.8980 C   0  0  0  0  0  2  0  0  0  0  0  0
  196.5460  174.7940  144.7850 O   0  0  0  0  0  0  0  0  0  0  0  0
  193.0070  175.6190  144.3800 C   0  0  0  0  0  2  0  0  0  0  0  0
  194.5720  175.9560  146.3800 C   0  0  0  0  0  2  0  0  0  0  0  0
  191.8650  175.4390  145.3840 C   0  0  1  0  0  0  0  0  0  0  0  0
  192.1260  175.7230  146.8570 C   0  0  0  0  0  2  0  0  0  0  0  0
  195.3770  174.8000  144.3110 C   0  0  0  0  0  0  0  0  0  0  0  0
  190.6580  174.5580  145.0650 C   0  0  2  0  0  3  0  0  0  0  0  0
  195.1250  174.1130  143.0070 C   0  0  0  0  0  2  0  0  0  0  0  0
  194.7490  171.7790  142.2520 O   0  0  0  0  0  0  0  0  0  0  0  0
  194.5780  170.5970  142.7600 N   0  0  0  0  0  0  0  0  0  0  0  0
  194.8880  172.6560  143.2170 C   0  0  0  0  0  0  0  0  0  0  0  0
  194.8160  172.0780  144.4310 N   0  0  0  0  0  0  0  0  0  0  0  0
  194.6260  170.7870  144.0910 C   0  0  0  0  0  0  0  0  0  0  0  0
  193.4750  168.6600  144.5360 C   0  0  0  0  0  1  0  0  0  0  0  0
  194.4340  169.6970  145.0870 C   0  0  0  0  0  2  0  0  0  0  0  0
  190.7460  170.9420  142.0730 N   0  0  0  0  0  2  0  0  0  0  0  0
  191.4530  170.2050  141.1770 O   0  0  0  0  0  1  0  0  0  0  0  0
  188.8460  176.1460  141.9630 O   0  0  0  0  0  0  0  0  0  0  0  0
  187.5590  176.6830  141.8880 C   0  0  0  0  0  2  0  0  0  0  0  0
  187.1330  177.1760  143.2560 C   0  0  1  0  0  3  0  0  0  0  0  0
  185.7020  177.6760  143.1730 C   0  0  1  0  0  3  0  0  0  0  0  0
  186.0040  176.3140  143.7710 C   0  0  0  0  0  2  0  0  0  0  0  0
  185.5110  179.9850  143.9680 C   0  0  0  0  0  2  0  0  0  0  0  0
  185.4490  178.6840  144.2560 C   0  0  0  0  0  0  0  0  0  0  0  0
  184.8310  178.2570  145.5530 C   0  0  0  0  0  2  0  0  0  0  0  0
  186.6970  176.9830  147.2750 N   0  0  0  0  0  1  0  0  0  0  0  0
  185.4790  178.9280  146.6750 N   0  0  0  0  0  0  0  0  0  0  0  0
  186.9250  179.0900  148.5200 N   0  0  0  0  0  1  0  0  0  0  0  0
  186.3410  178.3520  147.4530 C   0  0  0  0  0  0  0  0  0  0  0  0
  1  8  1  0  0  0  0
  2  1  1  1  0  0  0
  2  3  1  0  0  0  0
  2  4  1  0  0  0  0
  3 27  1  1  0  0  0
  3  6  1  0  0  0  0
  4  5  1  1  0  0  0
  6  5  2  0  0  0  0
  7 29  1  6  0  0  0
  7  4  1  0  0  0  0
  8  7  1  0  0  0  0
  9 14  1  0  0  0  0
 11 18  1  0  0  0  0
 11 15  1  0  0  0  0
 13  9  1  0  0  0  0
 14 10  1  0  0  0  0
 15 13  1  6  0  0  0
 15 16  1  0  0  0  0
 16 10  1  0  0  0  0
 17 12  2  0  0  0  0
 17  9  1  0  0  0  0
 18  5  1  6  0  0  0
 18 15  1  0  0  0  0
 19 22  1  0  0  0  0
 19 17  1  0  0  0  0
 20 21  1  0  0  0  0
 20 22  1  0  0  0  0
 21 24  2  0  0  0  0
 22 23  2  0  0  0  0
 24 23  1  0  0  0  0
 24 26  1  0  0  0  0
 25 26  1  0  0  0  0
 28 27  1  0  0  0  0
 30 29  1  0  0  0  0
 31 30  1  6  0  0  0
 31 33  1  0  0  0  0
 32 31  1  0  0  0  0
 32 33  1  0  0  0  0
 32 35  1  1  0  0  0
 34 35  2  0  0  0  0
 35 36  1  0  0  0  0
 36 38  1  0  0  0  0
 37 40  1  0  0  0  0
 38 40  2  0  0  0  0
 40 39  1  0  0  0  0
M  END
>  <MODEL>
5

>  <REMARK>
 VINA RESULT:      -6.7      1.630      2.359
  Name = 
  11 active torsions:
  status: ('A' for Active; 'I' for Inactive)
    1  A    between atoms: C_3  and  C_24
    2  A    between atoms: C_4  and  C_39
    3  A    between atoms: N_6  and  C_11
    4  A    between atoms: C_13  and  C_18
    5  A    between atoms: C_13  and  C_38
    6  A    between atoms: N_14  and  C_32
    7  A    between atoms: C_15  and  C_40
    8  A    between atoms: O_17  and  C_20
    9  A    between atoms: O_17  and  C_24
   10  A    between atoms: C_21  and  C_36
   11  A    between atoms: C_32  and  C_39
                            x       y       z     vdW  Elec       q    Type
                         _______ _______ _______ _____ _____    ______ ____

>  <TORSDO>
F 11

$$$$
=
 OpenBabel11062419343D

 40 45  0  0  1  0  0  0  0  0999 V2000
  188.6180  173.2430  139.6330 S   0  0  0  0  0  0  0  0  0  0  0  0
  189.2590  173.9740  141.1200 C   0  0  2  0  0  3  0  0  0  0  0  0
  188.6360  175.0250  141.9860 C   0  0  1  0  0  3  0  0  0  0  0  0
  190.5580  174.0260  141.2050 C   0  0  2  0  0  3  0  0  0  0  0  0
  190.9430  175.0620  142.1500 C   0  0  0  0  0  0  0  0  0  0  0  0
  189.8510  175.6720  142.5970 C   0  0  0  0  0  3  0  0  0  0  0  0
  191.3250  173.4880  140.0560 C   0  0  2  0  0  3  0  0  0  0  0  0
  190.3040  173.3630  138.9200 C   0  0  0  0  0  2  0  0  0  0  0  0
  191.6290  175.5380  146.1500 N   0  0  0  0  0  0  0  0  0  0  0  0
  194.0820  175.9300  145.9310 C   0  0  0  0  0  2  0  0  0  0  0  0
  193.2000  174.3380  142.9270 C   0  0  0  0  0  2  0  0  0  0  0  0
  190.2950  176.2050  147.9530 O   0  0  0  0  0  0  0  0  0  0  0  0
  191.7310  174.7190  144.9370 C   0  0  0  0  0  2  0  0  0  0  0  0
  192.8120  176.1750  146.7470 C   0  0  0  0  0  2  0  0  0  0  0  0
  192.7090  175.3450  143.9380 C   0  0  1  0  0  0  0  0  0  0  0  0
  193.8300  176.2320  144.4610 C   0  0  0  0  0  2  0  0  0  0  0  0
  190.3640  175.6590  146.8190 C   0  0  0  0  0  0  0  0  0  0  0  0
  192.3420  175.5090  142.4640 C   0  0  2  0  0  3  0  0  0  0  0  0
  189.1050  175.1680  146.1780 C   0  0  0  0  0  2  0  0  0  0  0  0
  187.2740  176.3740  147.3410 O   0  0  0  0  0  0  0  0  0  0  0  0
  186.4500  177.3540  147.1270 N   0  0  0  0  0  0  0  0  0  0  0  0
  188.0270  176.1940  146.2830 C   0  0  0  0  0  0  0  0  0  0  0  0
  187.7290  177.0680  145.3030 N   0  0  0  0  0  0  0  0  0  0  0  0
  186.7370  177.7750  145.8810 C   0  0  0  0  0  0  0  0  0  0  0  0
  184.5360  178.8250  145.5700 C   0  0  0  0  0  1  0  0  0  0  0  0
  186.0020  178.8720  145.1920 C   0  0  0  0  0  2  0  0  0  0  0  0
  187.8410  175.9870  141.2160 N   0  0  0  0  0  2  0  0  0  0  0  0
  187.9980  177.2300  141.7410 O   0  0  0  0  0  1  0  0  0  0  0  0
  191.8190  172.2220  140.3790 O   0  0  0  0  0  0  0  0  0  0  0  0
  192.9340  172.0520  139.5570 C   0  0  0  0  0  2  0  0  0  0  0  0
  194.0140  173.0390  139.9530 C   0  0  1  0  0  3  0  0  0  0  0  0
  195.2990  172.2770  140.2250 C   0  0  1  0  0  3  0  0  0  0  0  0
  195.1130  173.0230  138.9150 C   0  0  0  0  0  2  0  0  0  0  0  0
  196.4760  172.5520  142.3550 C   0  0  0  0  0  2  0  0  0  0  0  0
  196.1700  173.0610  141.1610 C   0  0  0  0  0  0  0  0  0  0  0  0
  196.9420  174.2440  140.6580 C   0  0  0  0  0  2  0  0  0  0  0  0
  195.6010  176.6800  141.2410 N   0  0  0  0  0  1  0  0  0  0  0  0
  197.3110  175.1220  141.7630 N   0  0  0  0  0  0  0  0  0  0  0  0
  197.1210  177.0160  143.1420 N   0  0  0  0  0  1  0  0  0  0  0  0
  196.6910  176.2280  142.0390 C   0  0  0  0  0  0  0  0  0  0  0  0
  2  1  1  6  0  0  0
  2  4  1  0  0  0  0
  2  3  1  0  0  0  0
  3 27  1  6  0  0  0
  3  6  1  0  0  0  0
  4  5  1  6  0  0  0
  5  6  2  0  0  0  0
  7 29  1  1  0  0  0
  7  4  1  0  0  0  0
  8  1  1  0  0  0  0
  8  7  1  0  0  0  0
  9 14  1  0  0  0  0
  9 17  1  0  0  0  0
 10 14  1  0  0  0  0
 13  9  1  0  0  0  0
 15 11  1  6  0  0  0
 15 16  1  0  0  0  0
 15 13  1  0  0  0  0
 16 10  1  0  0  0  0
 17 12  2  0  0  0  0
 18  5  1  1  0  0  0
 18 11  1  0  0  0  0
 18 15  1  0  0  0  0
 19 22  1  0  0  0  0
 19 17  1  0  0  0  0
 21 20  1  0  0  0  0
 22 20  1  0  0  0  0
 23 24  1  0  0  0  0
 23 22  2  0  0  0  0
 24 21  2  0  0  0  0
 26 25  1  0  0  0  0
 26 24  1  0  0  0  0
 27 28  1  0  0  0  0
 30 29  1  0  0  0  0
 31 30  1  6  0  0  0
 31 32  1  0  0  0  0
 32 35  1  1  0  0  0
 33 31  1  0  0  0  0
 33 32  1  0  0  0  0
 35 34  2  0  0  0  0
 36 35  1  0  0  0  0
 36 38  1  0  0  0  0
 37 40  1  0  0  0  0
 38 40  2  0  0  0  0
 40 39  1  0  0  0  0
M  END
>  <MODEL>
6

>  <REMARK>
 VINA RESULT:      -6.7      2.716      8.062
  Name = 
  11 active torsions:
  status: ('A' for Active; 'I' for Inactive)
    1  A    between atoms: C_3  and  C_24
    2  A    between atoms: C_4  and  C_39
    3  A    between atoms: N_6  and  C_11
    4  A    between atoms: C_13  and  C_18
    5  A    between atoms: C_13  and  C_38
    6  A    between atoms: N_14  and  C_32
    7  A    between atoms: C_15  and  C_40
    8  A    between atoms: O_17  and  C_20
    9  A    between atoms: O_17  and  C_24
   10  A    between atoms: C_21  and  C_36
   11  A    between atoms: C_32  and  C_39
                            x       y       z     vdW  Elec       q    Type
                         _______ _______ _______ _____ _____    ______ ____

>  <TORSDO>
F 11

$$$$
=
 OpenBabel11062419343D

 40 45  0  0  1  0  0  0  0  0999 V2000
  190.5750  177.8440  147.9870 S   0  0  0  0  0  0  0  0  0  0  0  0
  189.6830  177.2840  146.5550 C   0  0  2  0  0  3  0  0  0  0  0  0
  188.2110  177.3550  146.2870 C   0  0  1  0  0  3  0  0  0  0  0  0
  190.2130  176.2760  145.9220 C   0  0  2  0  0  3  0  0  0  0  0  0
  189.1900  175.6000  145.1410 C   0  0  0  0  0  0  0  0  0  0  0  0
  188.0190  176.1890  145.3540 C   0  0  0  0  0  3  0  0  0  0  0  0
  191.4690  175.7220  146.4810 C   0  0  2  0  0  3  0  0  0  0  0  0
  191.5650  176.3010  147.8960 C   0  0  0  0  0  2  0  0  0  0  0  0
  188.2140  176.0280  141.1960 N   0  0  0  0  0  0  0  0  0  0  0  0
  189.0240  173.7740  140.4990 C   0  0  0  0  0  2  0  0  0  0  0  0
  190.6620  174.3660  143.5500 C   0  0  0  0  0  2  0  0  0  0  0  0
  186.6430  177.3290  140.0500 O   0  0  0  0  0  0  0  0  0  0  0  0
  189.2330  175.9820  142.2500 C   0  0  0  0  0  2  0  0  0  0  0  0
  188.0630  174.9320  140.2270 C   0  0  0  0  0  2  0  0  0  0  0  0
  189.3490  174.5720  142.8360 C   0  0  1  0  0  0  0  0  0  0  0  0
  188.9690  173.3790  141.9690 C   0  0  0  0  0  2  0  0  0  0  0  0
  187.3950  177.1990  141.0530 C   0  0  0  0  0  0  0  0  0  0  0  0
  189.3620  174.3370  144.3460 C   0  0  2  0  0  3  0  0  0  0  0  0
  187.3940  178.2690  142.0980 C   0  0  0  0  0  2  0  0  0  0  0  0
  184.9120  178.2860  142.0790 O   0  0  0  0  0  0  0  0  0  0  0  0
  183.9230  178.4140  142.9090 N   0  0  0  0  0  0  0  0  0  0  0  0
  186.0470  178.3880  142.7280 C   0  0  0  0  0  0  0  0  0  0  0  0
  185.8530  178.5880  144.0450 N   0  0  0  0  0  0  0  0  0  0  0  0
  184.5060  178.5930  144.1090 C   0  0  0  0  0  0  0  0  0  0  0  0
  184.7090  179.0410  146.5180 C   0  0  0  0  0  1  0  0  0  0  0  0
  183.7460  178.8260  145.3680 C   0  0  0  0  0  2  0  0  0  0  0  0
  187.4120  177.2070  147.5080 N   0  0  0  0  0  2  0  0  0  0  0  0
  186.4180  176.3060  147.2950 O   0  0  0  0  0  1  0  0  0  0  0  0
  192.5530  176.1700  145.7210 O   0  0  0  0  0  0  0  0  0  0  0  0
  193.6550  176.0610  146.5710 C   0  0  0  0  0  2  0  0  0  0  0  0
  194.9330  176.1950  145.7670 C   0  0  1  0  0  3  0  0  0  0  0  0
  195.0440  175.0120  144.8220 C   0  0  1  0  0  3  0  0  0  0  0  0
  194.5890  176.3650  144.3040 C   0  0  0  0  0  2  0  0  0  0  0  0
  197.0580  175.4950  143.5140 C   0  0  0  0  0  2  0  0  0  0  0  0
  196.4830  174.7700  144.4740 C   0  0  0  0  0  0  0  0  0  0  0  0
  197.3520  173.9590  145.3880 C   0  0  0  0  0  2  0  0  0  0  0  0
  197.9410  171.2770  144.6600 N   0  0  0  0  0  1  0  0  0  0  0  0
  196.6210  172.8070  145.9020 N   0  0  0  0  0  0  0  0  0  0  0  0
  196.1300  170.5200  146.1390 N   0  0  0  0  0  1  0  0  0  0  0  0
  196.8970  171.5800  145.5820 C   0  0  0  0  0  0  0  0  0  0  0  0
  2  1  1  1  0  0  0
  3  2  1  0  0  0  0
  3 27  1  1  0  0  0
  4  5  1  1  0  0  0
  4  7  1  0  0  0  0
  4  2  1  0  0  0  0
  5  6  2  0  0  0  0
  6  3  1  0  0  0  0
  7 29  1  6  0  0  0
  7  8  1  0  0  0  0
  8  1  1  0  0  0  0
  9 13  1  0  0  0  0
 10 16  1  0  0  0  0
 11 18  1  0  0  0  0
 12 17  2  0  0  0  0
 13 15  1  0  0  0  0
 14 10  1  0  0  0  0
 14  9  1  0  0  0  0
 15 16  1  6  0  0  0
 15 11  1  0  0  0  0
 15 18  1  0  0  0  0
 17  9  1  0  0  0  0
 17 19  1  0  0  0  0
 18  5  1  1  0  0  0
 19 22  1  0  0  0  0
 20 22  1  0  0  0  0
 20 21  1  0  0  0  0
 21 24  2  0  0  0  0
 22 23  2  0  0  0  0
 23 24  1  0  0  0  0
 24 26  1  0  0  0  0
 26 25  1  0  0  0  0
 28 27  1  0  0  0  0
 29 30  1  0  0  0  0
 31 30  1  1  0  0  0
 32 35  1  6  0  0  0
 32 31  1  0  0  0  0
 33 32  1  0  0  0  0
 33 31  1  0  0  0  0
 34 35  2  0  0  0  0
 35 36  1  0  0  0  0
 36 38  1  0  0  0  0
 37 40  1  0  0  0  0
 40 38  2  0  0  0  0
 40 39  1  0  0  0  0
M  END
>  <MODEL>
7

>  <REMARK>
 VINA RESULT:      -6.7      2.690      9.573
  Name = 
  11 active torsions:
  status: ('A' for Active; 'I' for Inactive)
    1  A    between atoms: C_3  and  C_24
    2  A    between atoms: C_4  and  C_39
    3  A    between atoms: N_6  and  C_11
    4  A    between atoms: C_13  and  C_18
    5  A    between atoms: C_13  and  C_38
    6  A    between atoms: N_14  and  C_32
    7  A    between atoms: C_15  and  C_40
    8  A    between atoms: O_17  and  C_20
    9  A    between atoms: O_17  and  C_24
   10  A    between atoms: C_21  and  C_36
   11  A    between atoms: C_32  and  C_39
                            x       y       z     vdW  Elec       q    Type
                         _______ _______ _______ _____ _____    ______ ____

>  <TORSDO>
F 11

$$$$
=
 OpenBabel11062419343D

 40 45  0  0  1  0  0  0  0  0999 V2000
  189.3570  172.4650  140.2410 S   0  0  0  0  0  0  0  0  0  0  0  0
  190.3130  172.6200  141.7310 C   0  0  2  0  0  3  0  0  0  0  0  0
  191.1780  171.5920  142.3940 C   0  0  1  0  0  3  0  0  0  0  0  0
  189.8500  173.4620  142.6100 C   0  0  2  0  0  3  0  0  0  0  0  0
  190.3750  173.1310  143.9240 C   0  0  0  0  0  0  0  0  0  0  0  0
  191.1260  172.0390  143.8320 C   0  0  0  0  0  3  0  0  0  0  0  0
  188.5910  174.1630  142.2650 C   0  0  2  0  0  3  0  0  0  0  0  0
  188.0080  173.3770  141.0860 C   0  0  0  0  0  2  0  0  0  0  0  0
  193.3630  175.4750  145.4320 N   0  0  0  0  0  0  0  0  0  0  0  0
  192.0020  176.4430  147.2850 C   0  0  0  0  0  2  0  0  0  0  0  0
  189.6130  175.2460  145.0030 C   0  0  0  0  0  2  0  0  0  0  0  0
  195.6990  175.3570  145.3730 O   0  0  0  0  0  0  0  0  0  0  0  0
  192.1100  175.3500  144.6820 C   0  0  0  0  0  2  0  0  0  0  0  0
  193.3940  176.0620  146.7800 C   0  0  0  0  0  2  0  0  0  0  0  0
  190.9610  174.9290  145.6030 C   0  0  1  0  0  0  0  0  0  0  0  0
  191.0340  175.2850  147.0820 C   0  0  0  0  0  2  0  0  0  0  0  0
  194.6010  175.0910  144.8140 C   0  0  0  0  0  0  0  0  0  0  0  0
  190.0130  173.7920  145.2230 C   0  0  2  0  0  3  0  0  0  0  0  0
  194.6140  174.3470  143.5170 C   0  0  0  0  0  2  0  0  0  0  0  0
  195.1720  176.3970  142.2350 O   0  0  0  0  0  0  0  0  0  0  0  0
  195.9730  176.7780  141.2870 N   0  0  0  0  0  0  0  0  0  0  0  0
  195.3490  175.1210  142.4740 C   0  0  0  0  0  0  0  0  0  0  0  0
  196.2980  174.5900  141.6800 N   0  0  0  0  0  0  0  0  0  0  0  0
  196.6620  175.6690  140.9570 C   0  0  0  0  0  0  0  0  0  0  0  0
  197.1680  174.7770  138.7230 C   0  0  0  0  0  1  0  0  0  0  0  0
  197.6790  175.6240  139.8710 C   0  0  0  0  0  2  0  0  0  0  0  0
  190.6560  170.2310  142.2320 N   0  0  0  0  0  2  0  0  0  0  0  0
  191.3120  169.6110  141.2170 O   0  0  0  0  0  1  0  0  0  0  0  0
  188.8820  175.4670  141.8550 O   0  0  0  0  0  0  0  0  0  0  0  0
  187.8890  175.7800  140.9250 C   0  0  0  0  0  2  0  0  0  0  0  0
  187.3360  177.1610  141.2160 C   0  0  1  0  0  3  0  0  0  0  0  0
  186.2230  177.0370  142.2410 C   0  0  1  0  0  3  0  0  0  0  0  0
  187.6020  177.5130  142.6620 C   0  0  0  0  0  2  0  0  0  0  0  0
  184.5070  178.2990  141.0320 C   0  0  0  0  0  2  0  0  0  0  0  0
  185.2800  178.1970  142.1140 C   0  0  0  0  0  0  0  0  0  0  0  0
  184.9740  179.0520  143.3070 C   0  0  0  0  0  2  0  0  0  0  0  0
  185.9490  179.3810  145.9550 N   0  0  0  0  0  1  0  0  0  0  0  0
  184.5430  178.2280  144.4310 N   0  0  0  0  0  0  0  0  0  0  0  0
  184.4940  177.5370  146.6770 N   0  0  0  0  0  1  0  0  0  0  0  0
  184.9770  178.3860  145.6430 C   0  0  0  0  0  0  0  0  0  0  0  0
  1  8  1  0  0  0  0
  2  1  1  1  0  0  0
  2  3  1  0  0  0  0
  2  4  1  0  0  0  0
  3 27  1  1  0  0  0
  3  6  1  0  0  0  0
  4  5  1  1  0  0  0
  6  5  2  0  0  0  0
  7 29  1  6  0  0  0
  7  4  1  0  0  0  0
  8  7  1  0  0  0  0
  9 14  1  0  0  0  0
 11 18  1  0  0  0  0
 11 15  1  0  0  0  0
 13  9  1  0  0  0  0
 14 10  1  0  0  0  0
 15 13  1  6  0  0  0
 15 16  1  0  0  0  0
 16 10  1  0  0  0  0
 17 12  2  0  0  0  0
 17  9  1  0  0  0  0
 18  5  1  6  0  0  0
 18 15  1  0  0  0  0
 19 17  1  0  0  0  0
 20 22  1  0  0  0  0
 21 20  1  0  0  0  0
 22 19  1  0  0  0  0
 23 22  2  0  0  0  0
 24 21  2  0  0  0  0
 24 23  1  0  0  0  0
 25 26  1  0  0  0  0
 26 24  1  0  0  0  0
 28 27  1  0  0  0  0
 30 29  1  0  0  0  0
 31 30  1  1  0  0  0
 31 32  1  0  0  0  0
 31 33  1  0  0  0  0
 32 35  1  6  0  0  0
 32 33  1  0  0  0  0
 34 35  2  0  0  0  0
 35 36  1  0  0  0  0
 36 38  1  0  0  0  0
 38 40  2  0  0  0  0
 40 37  1  0  0  0  0
 40 39  1  0  0  0  0
M  END
>  <MODEL>
8

>  <REMARK>
 VINA RESULT:      -6.7      2.030      2.414
  Name = 
  11 active torsions:
  status: ('A' for Active; 'I' for Inactive)
    1  A    between atoms: C_3  and  C_24
    2  A    between atoms: C_4  and  C_39
    3  A    between atoms: N_6  and  C_11
    4  A    between atoms: C_13  and  C_18
    5  A    between atoms: C_13  and  C_38
    6  A    between atoms: N_14  and  C_32
    7  A    between atoms: C_15  and  C_40
    8  A    between atoms: O_17  and  C_20
    9  A    between atoms: O_17  and  C_24
   10  A    between atoms: C_21  and  C_36
   11  A    between atoms: C_32  and  C_39
                            x       y       z     vdW  Elec       q    Type
                         _______ _______ _______ _____ _____    ______ ____

>  <TORSDO>
F 11

$$$$
=
 OpenBabel11062419343D

 40 45  0  0  1  0  0  0  0  0999 V2000
  188.6800  174.0430  140.3950 S   0  0  0  0  0  0  0  0  0  0  0  0
  190.2390  174.0710  141.2470 C   0  0  2  0  0  3  0  0  0  0  0  0
  191.4540  173.2320  140.9940 C   0  0  1  0  0  3  0  0  0  0  0  0
  190.1900  174.4360  142.4960 C   0  0  2  0  0  3  0  0  0  0  0  0
  191.3610  173.9350  143.1960 C   0  0  0  0  0  0  0  0  0  0  0  0
  192.0960  173.2150  142.3560 C   0  0  0  0  0  3  0  0  0  0  0  0
  188.8520  174.7630  143.0440 C   0  0  2  0  0  3  0  0  0  0  0  0
  187.8560  174.1970  142.0270 C   0  0  0  0  0  2  0  0  0  0  0  0
  194.6020  176.2740  144.0480 N   0  0  0  0  0  0  0  0  0  0  0  0
  194.2580  176.2760  146.5180 C   0  0  0  0  0  2  0  0  0  0  0  0
  191.1210  175.3740  145.2190 C   0  0  0  0  0  2  0  0  0  0  0  0
  196.6250  176.6990  142.9500 O   0  0  0  0  0  0  0  0  0  0  0  0
  193.1490  176.1220  143.9240 C   0  0  0  0  0  2  0  0  0  0  0  0
  195.2520  176.3930  145.3620 C   0  0  0  0  0  2  0  0  0  0  0  0
  192.6040  175.1870  145.0080 C   0  0  1  0  0  0  0  0  0  0  0  0
  193.3630  175.0600  146.3220 C   0  0  0  0  0  2  0  0  0  0  0  0
  195.4050  176.3890  142.8630 C   0  0  0  0  0  0  0  0  0  0  0  0
  191.6400  174.0510  144.6680 C   0  0  2  0  0  3  0  0  0  0  0  0
  194.8260  176.1200  141.5110 C   0  0  0  0  0  2  0  0  0  0  0  0
  196.0710  174.0320  141.0120 O   0  0  0  0  0  0  0  0  0  0  0  0
  196.8680  173.5550  140.1050 N   0  0  0  0  0  0  0  0  0  0  0  0
  195.7450  175.2640  140.7060 C   0  0  0  0  0  0  0  0  0  0  0  0
  196.3230  175.6640  139.5570 N   0  0  0  0  0  0  0  0  0  0  0  0
  197.0130  174.5560  139.2170 C   0  0  0  0  0  0  0  0  0  0  0  0
  197.3860  173.3760  137.0920 C   0  0  0  0  0  1  0  0  0  0  0  0
  197.8860  174.4710  138.0140 C   0  0  0  0  0  2  0  0  0  0  0  0
  191.1170  171.8800  140.5380 N   0  0  0  0  0  2  0  0  0  0  0  0
  190.5100  171.1990  141.5440 O   0  0  0  0  0  1  0  0  0  0  0  0
  188.7060  176.1510  143.1150 O   0  0  0  0  0  0  0  0  0  0  0  0
  187.4180  176.3500  143.6180 C   0  0  0  0  0  2  0  0  0  0  0  0
  187.4840  177.2220  144.8560 C   0  0  1  0  0  3  0  0  0  0  0  0
  186.3680  176.8160  145.8020 C   0  0  1  0  0  3  0  0  0  0  0  0
  187.7940  176.3620  146.0590 C   0  0  0  0  0  2  0  0  0  0  0  0
  186.7270  178.1910  147.7970 C   0  0  0  0  0  2  0  0  0  0  0  0
  186.0100  177.9670  146.6940 C   0  0  0  0  0  0  0  0  0  0  0  0
  185.0770  179.0350  146.2080 C   0  0  0  0  0  2  0  0  0  0  0  0
  185.5660  179.7900  143.5130 N   0  0  0  0  0  1  0  0  0  0  0  0
  184.2880  178.5510  145.0800 N   0  0  0  0  0  0  0  0  0  0  0  0
  183.6980  178.3550  142.8130 N   0  0  0  0  0  1  0  0  0  0  0  0
  184.5190  178.8830  143.8480 C   0  0  0  0  0  0  0  0  0  0  0  0
  1  8  1  0  0  0  0
  2  1  1  1  0  0  0
  2  4  1  0  0  0  0
  3 27  1  1  0  0  0
  3  2  1  0  0  0  0
  3  6  1  0  0  0  0
  4  7  1  0  0  0  0
  4  5  1  1  0  0  0
  6  5  2  0  0  0  0
  7 29  1  6  0  0  0
  8  7  1  0  0  0  0
  9 14  1  0  0  0  0
 13  9  1  0  0  0  0
 14 10  1  0  0  0  0
 15 13  1  6  0  0  0
 15 11  1  0  0  0  0
 15 16  1  0  0  0  0
 16 10  1  0  0  0  0
 17 12  2  0  0  0  0
 17  9  1  0  0  0  0
 18  5  1  6  0  0  0
 18 15  1  0  0  0  0
 18 11  1  0  0  0  0
 19 17  1  0  0  0  0
 21 20  1  0  0  0  0
 22 20  1  0  0  0  0
 22 19  1  0  0  0  0
 23 22  2  0  0  0  0
 24 23  1  0  0  0  0
 24 21  2  0  0  0  0
 25 26  1  0  0  0  0
 26 24  1  0  0  0  0
 27 28  1  0  0  0  0
 29 30  1  0  0  0  0
 31 30  1  6  0  0  0
 31 32  1  0  0  0  0
 31 33  1  0  0  0  0
 32 33  1  0  0  0  0
 32 35  1  1  0  0  0
 35 34  2  0  0  0  0
 36 35  1  0  0  0  0
 37 40  1  0  0  0  0
 38 36  1  0  0  0  0
 39 40  1  0  0  0  0
 40 38  2  0  0  0  0
M  END
>  <MODEL>
9

>  <REMARK>
 VINA RESULT:      -6.6      2.788      3.725
  Name = 
  11 active torsions:
  status: ('A' for Active; 'I' for Inactive)
    1  A    between atoms: C_3  and  C_24
    2  A    between atoms: C_4  and  C_39
    3  A    between atoms: N_6  and  C_11
    4  A    between atoms: C_13  and  C_18
    5  A    between atoms: C_13  and  C_38
    6  A    between atoms: N_14  and  C_32
    7  A    between atoms: C_15  and  C_40
    8  A    between atoms: O_17  and  C_20
    9  A    between atoms: O_17  and  C_24
   10  A    between atoms: C_21  and  C_36
   11  A    between atoms: C_32  and  C_39
                            x       y       z     vdW  Elec       q    Type
                         _______ _______ _______ _____ _____    ______ ____

>  <TORSDO>
F 11

$$$$
