=
 OpenBabel11072408273D

 34 36  0  0  1  0  0  0  0  0999 V2000
  192.1810  173.7050  144.5020 N   0  0  0  0  0  0  0  0  0  0  0  0
  188.3790  177.1630  143.8650 C   0  0  2  0  0  3  0  0  0  0  0  0
  188.3950  175.6410  144.0000 C   0  0  0  0  0  2  0  0  0  0  0  0
  189.4340  177.7990  144.7770 C   0  0  0  0  0  2  0  0  0  0  0  0
  192.2360  175.1410  144.2170 C   0  0  2  0  0  3  0  0  0  0  0  0
  189.7920  173.6440  143.8390 N   0  0  0  0  0  2  0  0  0  0  0  0
  190.8560  175.7510  144.5320 C   0  0  2  0  0  3  0  0  0  0  0  0
  189.7760  175.0930  143.6580 C   0  0  2  0  0  3  0  0  0  0  0  0
  190.9890  171.6970  144.2820 O   0  0  0  0  0  0  0  0  0  0  0  0
  190.9940  172.9540  144.1940 C   0  0  0  0  0  0  0  0  0  0  0  0
  190.8220  177.2750  144.4270 C   0  0  0  0  0  2  0  0  0  0  0  0
  193.2910  173.0820  145.2040 C   0  0  0  0  0  1  0  0  0  0  0  0
  192.5600  174.1970  142.0060 O   0  0  0  0  0  1  0  0  0  0  0  0
  192.6790  175.3720  142.7540 C   0  0  2  0  0  3  0  0  0  0  0  0
  194.8140  176.1150  143.8230 C   0  0  0  0  0  3  0  0  0  0  0  0
  195.9860  176.6050  141.3320 C   0  0  0  0  0  3  0  0  0  0  0  0
  194.0850  175.8770  142.6530 C   0  0  0  0  0  0  0  0  0  0  0  0
  196.7120  176.8340  142.5030 C   0  0  0  0  0  3  0  0  0  0  0  0
  194.6730  176.1300  141.4040 C   0  0  0  0  0  3  0  0  0  0  0  0
  196.1260  176.5890  143.7490 C   0  0  0  0  0  3  0  0  0  0  0  0
  186.9660  177.7220  144.0960 C   0  0  2  0  0  3  0  0  0  0  0  0
  185.9810  176.6040  144.4480 C   0  0  0  0  0  2  0  0  0  0  0  0
  185.3430  176.7980  145.8180 C   0  0  0  0  0  2  0  0  0  0  0  0
  186.4080  177.0710  146.8650 C   0  0  0  0  0  2  0  0  0  0  0  0
  187.0190  178.9630  148.3730 O   0  0  0  0  0  1  0  0  0  0  0  0
  184.8390  178.6330  147.7480 O   0  0  0  0  0  0  0  0  0  0  0  0
  186.0370  178.2540  147.6930 C   0  0  0  0  0  0  0  0  0  0  0  0
  186.4500  178.6550  142.9710 C   0  0  1  0  0  3  0  0  0  0  0  0
  186.6630  177.4200  140.9230 O   0  0  0  0  0  0  0  0  0  0  0  0
  185.8890  177.9280  141.7810 C   0  0  0  0  0  0  0  0  0  0  0  0
  184.5060  177.8220  141.6430 O   0  0  0  0  0  0  0  0  0  0  0  0
  183.8280  178.3090  140.4960 C   0  0  0  0  0  1  0  0  0  0  0  0
  185.5750  179.6580  143.4370 O   0  0  0  0  0  0  0  0  0  0  0  0
  185.9370  179.9420  144.6750 O   0  0  0  0  0  1  0  0  0  0  0  0
  1 12  1  0  0  0  0
  2  3  1  0  0  0  0
  2 21  1  1  0  0  0
  2  4  1  0  0  0  0
  5 14  1  6  0  0  0
  5  1  1  0  0  0  0
  5  7  1  0  0  0  0
  6 10  1  0  0  0  0
  7 11  1  6  0  0  0
  8  6  1  0  0  0  0
  8  3  1  1  0  0  0
  8  7  1  0  0  0  0
 10  9  2  0  0  0  0
 10  1  1  0  0  0  0
 11  4  1  0  0  0  0
 14 13  1  6  0  0  0
 16 19  2  0  0  0  0
 16 18  1  0  0  0  0
 17 14  1  0  0  0  0
 17 15  2  0  0  0  0
 18 20  2  0  0  0  0
 19 17  1  0  0  0  0
 20 15  1  0  0  0  0
 21 22  1  6  0  0  0
 22 23  1  0  0  0  0
 23 24  1  0  0  0  0
 24 27  1  0  0  0  0
 27 26  2  0  0  0  0
 27 25  1  0  0  0  0
 28 30  1  6  0  0  0
 28 33  1  0  0  0  0
 28 21  1  0  0  0  0
 29 30  2  0  0  0  0
 31 30  1  0  0  0  0
 32 31  1  0  0  0  0
 33 34  1  0  0  0  0
M  END
>  <MODEL>
1

>  <REMARK>
 VINA RESULT:      -7.0      0.000      0.000
  Name = 
  11 active torsions:
  status: ('A' for Active; 'I' for Inactive)
    1  A    between atoms: C_2  and  C_19
    2  A    between atoms: C_2  and  C_25
    3  A    between atoms: C_3  and  O_16
    4  A    between atoms: C_3  and  C_34
    5  A    between atoms: C_5  and  C_25
    6  A    between atoms: C_11  and  C_26
    7  A    between atoms: C_13  and  C_19
    8  A    between atoms: C_13  and  C_23
    9  A    between atoms: C_18  and  C_26
   10  A    between atoms: C_25  and  C_34
   11  A    between atoms: O_28  and  C_34
                            x       y       z     vdW  Elec       q    Type
                         _______ _______ _______ _____ _____    ______ ____

>  <TORSDO>
F 11

$$$$
=
 OpenBabel11072408273D

 34 36  0  0  1  0  0  0  0  0999 V2000
  187.0980  177.4330  141.8830 N   0  0  0  0  0  0  0  0  0  0  0  0
  191.6140  176.3080  144.1530 C   0  0  2  0  0  3  0  0  0  0  0  0
  191.0270  175.9880  142.7800 C   0  0  0  0  0  2  0  0  0  0  0  0
  191.2110  177.7190  144.5990 C   0  0  0  0  0  2  0  0  0  0  0  0
  187.5450  177.6290  143.2640 C   0  0  2  0  0  3  0  0  0  0  0  0
  188.9630  175.8490  141.4820 N   0  0  0  0  0  2  0  0  0  0  0  0
  189.0810  177.5040  143.2980 C   0  0  2  0  0  3  0  0  0  0  0  0
  189.5070  176.1090  142.8110 C   0  0  2  0  0  3  0  0  0  0  0  0
  187.2650  176.1610  139.9190 O   0  0  0  0  0  0  0  0  0  0  0  0
  187.7410  176.4540  141.0480 C   0  0  0  0  0  0  0  0  0  0  0  0
  189.6930  177.8430  144.6560 C   0  0  0  0  0  2  0  0  0  0  0  0
  186.0810  178.3190  141.3380 C   0  0  0  0  0  1  0  0  0  0  0  0
  185.9410  175.8230  143.4790 O   0  0  0  0  0  1  0  0  0  0  0  0
  186.8360  176.6220  144.1970 C   0  0  2  0  0  3  0  0  0  0  0  0
  186.6130  177.2100  146.6170 C   0  0  0  0  0  3  0  0  0  0  0  0
  184.2380  178.6080  146.1420 C   0  0  0  0  0  3  0  0  0  0  0  0
  186.1030  177.2940  145.3160 C   0  0  0  0  0  0  0  0  0  0  0  0
  184.7550  178.5270  147.4380 C   0  0  0  0  0  3  0  0  0  0  0  0
  184.9080  177.9910  145.0820 C   0  0  0  0  0  3  0  0  0  0  0  0
  185.9420  177.8270  147.6760 C   0  0  0  0  0  3  0  0  0  0  0  0
  193.1340  176.0810  144.1710 C   0  0  2  0  0  3  0  0  0  0  0  0
  193.5900  175.3090  142.9290 C   0  0  0  0  0  2  0  0  0  0  0  0
  194.7300  176.0040  142.1960 C   0  0  0  0  0  2  0  0  0  0  0  0
  195.9990  175.1730  142.2820 C   0  0  0  0  0  2  0  0  0  0  0  0
  197.8070  174.9740  143.9890 O   0  0  0  0  0  1  0  0  0  0  0  0
  197.0310  177.0350  143.3540 O   0  0  0  0  0  0  0  0  0  0  0  0
  196.9610  175.7840  143.2430 C   0  0  0  0  0  0  0  0  0  0  0  0
  193.6820  175.4860  145.4920 C   0  0  1  0  0  3  0  0  0  0  0  0
  192.9370  173.2060  145.3940 O   0  0  0  0  0  0  0  0  0  0  0  0
  193.9150  174.0020  145.4450 C   0  0  0  0  0  0  0  0  0  0  0  0
  195.2240  173.5220  145.4580 O   0  0  0  0  0  0  0  0  0  0  0  0
  195.5400  172.1970  145.0600 C   0  0  0  0  0  1  0  0  0  0  0  0
  194.8030  176.1800  145.9930 O   0  0  0  0  0  0  0  0  0  0  0  0
  194.6350  177.4550  145.6900 O   0  0  0  0  0  1  0  0  0  0  0  0
  1  5  1  0  0  0  0
  2 21  1  6  0  0  0
  2  4  1  0  0  0  0
  3  2  1  0  0  0  0
  4 11  1  0  0  0  0
  5  7  1  0  0  0  0
  5 14  1  1  0  0  0
  6  8  1  0  0  0  0
  7 11  1  1  0  0  0
  8  3  1  6  0  0  0
  8  7  1  0  0  0  0
  9 10  2  0  0  0  0
 10  6  1  0  0  0  0
 10  1  1  0  0  0  0
 12  1  1  0  0  0  0
 14 13  1  6  0  0  0
 14 17  1  0  0  0  0
 15 20  1  0  0  0  0
 16 18  1  0  0  0  0
 17 15  2  0  0  0  0
 18 20  2  0  0  0  0
 19 17  1  0  0  0  0
 19 16  2  0  0  0  0
 21 22  1  6  0  0  0
 21 28  1  0  0  0  0
 23 24  1  0  0  0  0
 23 22  1  0  0  0  0
 24 27  1  0  0  0  0
 27 26  2  0  0  0  0
 27 25  1  0  0  0  0
 28 30  1  6  0  0  0
 28 33  1  0  0  0  0
 29 30  2  0  0  0  0
 30 31  1  0  0  0  0
 32 31  1  0  0  0  0
 34 33  1  0  0  0  0
M  END
>  <MODEL>
2

>  <REMARK>
 VINA RESULT:      -6.9      2.630      8.849
  Name = 
  11 active torsions:
  status: ('A' for Active; 'I' for Inactive)
    1  A    between atoms: C_2  and  C_19
    2  A    between atoms: C_2  and  C_25
    3  A    between atoms: C_3  and  O_16
    4  A    between atoms: C_3  and  C_34
    5  A    between atoms: C_5  and  C_25
    6  A    between atoms: C_11  and  C_26
    7  A    between atoms: C_13  and  C_19
    8  A    between atoms: C_13  and  C_23
    9  A    between atoms: C_18  and  C_26
   10  A    between atoms: C_25  and  C_34
   11  A    between atoms: O_28  and  C_34
                            x       y       z     vdW  Elec       q    Type
                         _______ _______ _______ _____ _____    ______ ____

>  <TORSDO>
F 11

$$$$
=
 OpenBabel11072408273D

 34 36  0  0  1  0  0  0  0  0999 V2000
  187.6870  176.4960  141.0320 N   0  0  0  0  0  0  0  0  0  0  0  0
  191.9030  175.7570  143.9470 C   0  0  2  0  0  3  0  0  0  0  0  0
  191.3840  175.0920  142.6730 C   0  0  0  0  0  2  0  0  0  0  0  0
  191.6110  177.2620  143.9300 C   0  0  0  0  0  2  0  0  0  0  0  0
  188.0560  177.0550  142.3350 C   0  0  2  0  0  3  0  0  0  0  0  0
  189.4110  174.7310  141.2800 N   0  0  0  0  0  2  0  0  0  0  0  0
  189.5660  176.8330  142.5490 C   0  0  2  0  0  3  0  0  0  0  0  0
  189.8850  175.3290  142.5250 C   0  0  2  0  0  3  0  0  0  0  0  0
  187.8640  174.6960  139.5400 O   0  0  0  0  0  0  0  0  0  0  0  0
  188.2880  175.2710  140.5770 C   0  0  0  0  0  0  0  0  0  0  0  0
  190.1120  177.5100  143.8050 C   0  0  0  0  0  2  0  0  0  0  0  0
  186.8030  177.2560  140.1630 C   0  0  0  0  0  1  0  0  0  0  0  0
  186.3720  175.4120  142.9260 O   0  0  0  0  0  1  0  0  0  0  0  0
  187.1870  176.4220  143.4460 C   0  0  2  0  0  3  0  0  0  0  0  0
  185.6220  177.0440  145.2930 C   0  0  0  0  0  3  0  0  0  0  0  0
  185.4140  179.6660  144.3440 C   0  0  0  0  0  3  0  0  0  0  0  0
  186.3320  177.4280  144.1510 C   0  0  0  0  0  0  0  0  0  0  0  0
  184.7120  179.2790  145.4890 C   0  0  0  0  0  3  0  0  0  0  0  0
  186.2210  178.7430  143.6730 C   0  0  0  0  0  3  0  0  0  0  0  0
  184.8150  177.9670  145.9630 C   0  0  0  0  0  3  0  0  0  0  0  0
  193.3880  175.4330  144.1730 C   0  0  2  0  0  3  0  0  0  0  0  0
  193.7710  175.6020  145.6460 C   0  0  0  0  0  2  0  0  0  0  0  0
  192.7240  175.0280  146.5910 C   0  0  0  0  0  2  0  0  0  0  0  0
  192.1820  176.1140  147.5050 C   0  0  0  0  0  2  0  0  0  0  0  0
  189.9590  174.9820  147.5570 O   0  0  0  0  0  1  0  0  0  0  0  0
  190.0990  177.2580  147.3200 O   0  0  0  0  0  0  0  0  0  0  0  0
  190.6930  176.1560  147.4420 C   0  0  0  0  0  0  0  0  0  0  0  0
  194.3600  176.1540  143.2050 C   0  0  1  0  0  3  0  0  0  0  0  0
  196.4430  177.0900  143.9480 O   0  0  0  0  0  0  0  0  0  0  0  0
  195.8060  176.0560  143.6040 C   0  0  0  0  0  0  0  0  0  0  0  0
  196.4290  174.8090  143.5880 O   0  0  0  0  0  0  0  0  0  0  0  0
  197.2660  174.3760  144.6490 C   0  0  0  0  0  1  0  0  0  0  0  0
  194.1610  175.8060  141.8530 O   0  0  0  0  0  0  0  0  0  0  0  0
  194.7580  176.7320  141.1240 O   0  0  0  0  0  1  0  0  0  0  0  0
  1  5  1  0  0  0  0
  2 21  1  6  0  0  0
  3  2  1  0  0  0  0
  4  2  1  0  0  0  0
  5  7  1  0  0  0  0
  5 14  1  1  0  0  0
  6  8  1  0  0  0  0
  7 11  1  1  0  0  0
  8  7  1  0  0  0  0
  8  3  1  6  0  0  0
  9 10  2  0  0  0  0
 10  1  1  0  0  0  0
 10  6  1  0  0  0  0
 11  4  1  0  0  0  0
 12  1  1  0  0  0  0
 14 13  1  6  0  0  0
 14 17  1  0  0  0  0
 15 20  1  0  0  0  0
 16 18  1  0  0  0  0
 17 15  2  0  0  0  0
 18 20  2  0  0  0  0
 19 17  1  0  0  0  0
 19 16  2  0  0  0  0
 21 22  1  1  0  0  0
 22 23  1  0  0  0  0
 23 24  1  0  0  0  0
 26 27  2  0  0  0  0
 27 24  1  0  0  0  0
 27 25  1  0  0  0  0
 28 33  1  6  0  0  0
 28 30  1  0  0  0  0
 28 21  1  0  0  0  0
 30 29  2  0  0  0  0
 31 30  1  0  0  0  0
 31 32  1  0  0  0  0
 34 33  1  0  0  0  0
M  END
>  <MODEL>
3

>  <REMARK>
 VINA RESULT:      -6.9      2.587      7.895
  Name = 
  11 active torsions:
  status: ('A' for Active; 'I' for Inactive)
    1  A    between atoms: C_2  and  C_19
    2  A    between atoms: C_2  and  C_25
    3  A    between atoms: C_3  and  O_16
    4  A    between atoms: C_3  and  C_34
    5  A    between atoms: C_5  and  C_25
    6  A    between atoms: C_11  and  C_26
    7  A    between atoms: C_13  and  C_19
    8  A    between atoms: C_13  and  C_23
    9  A    between atoms: C_18  and  C_26
   10  A    between atoms: C_25  and  C_34
   11  A    between atoms: O_28  and  C_34
                            x       y       z     vdW  Elec       q    Type
                         _______ _______ _______ _____ _____    ______ ____

>  <TORSDO>
F 11

$$$$
=
 OpenBabel11072408273D

 34 36  0  0  1  0  0  0  0  0999 V2000
  187.0510  177.6500  142.0530 N   0  0  0  0  0  0  0  0  0  0  0  0
  191.6570  176.0150  143.7650 C   0  0  2  0  0  3  0  0  0  0  0  0
  190.9160  175.8480  142.4400 C   0  0  0  0  0  2  0  0  0  0  0  0
  191.4160  177.4120  144.3480 C   0  0  0  0  0  2  0  0  0  0  0  0
  187.6440  177.7030  143.3910 C   0  0  2  0  0  3  0  0  0  0  0  0
  188.7320  175.9670  141.3530 N   0  0  0  0  0  2  0  0  0  0  0  0
  189.1600  177.4610  143.2600 C   0  0  2  0  0  3  0  0  0  0  0  0
  189.4210  176.0800  142.6350 C   0  0  2  0  0  3  0  0  0  0  0  0
  186.9230  176.5280  139.9980 O   0  0  0  0  0  0  0  0  0  0  0  0
  187.5280  176.6950  141.0900 C   0  0  0  0  0  0  0  0  0  0  0  0
  189.9260  177.6460  144.5690 C   0  0  0  0  0  2  0  0  0  0  0  0
  186.0630  178.6500  141.6790 C   0  0  0  0  0  1  0  0  0  0  0  0
  186.0390  175.8970  143.6020 O   0  0  0  0  0  1  0  0  0  0  0  0
  186.9470  176.6820  144.3190 C   0  0  2  0  0  3  0  0  0  0  0  0
  184.9230  177.7900  145.2800 C   0  0  0  0  0  3  0  0  0  0  0  0
  186.1840  178.1310  147.7530 C   0  0  0  0  0  3  0  0  0  0  0  0
  186.2340  177.3360  145.4610 C   0  0  0  0  0  0  0  0  0  0  0  0
  184.8720  178.5760  147.5700 C   0  0  0  0  0  3  0  0  0  0  0  0
  186.8670  177.5130  146.7010 C   0  0  0  0  0  3  0  0  0  0  0  0
  184.2410  178.4060  146.3330 C   0  0  0  0  0  3  0  0  0  0  0  0
  193.1470  175.6740  143.6110 C   0  0  2  0  0  3  0  0  0  0  0  0
  193.4460  175.1280  142.2120 C   0  0  0  0  0  2  0  0  0  0  0  0
  194.9390  175.0500  141.9220 C   0  0  0  0  0  2  0  0  0  0  0  0
  195.5380  176.4440  141.8420 C   0  0  0  0  0  2  0  0  0  0  0  0
  197.9130  175.7420  142.1420 O   0  0  0  0  0  0  0  0  0  0  0  0
  196.9610  177.2610  143.5700 O   0  0  0  0  0  1  0  0  0  0  0  0
  196.8330  176.5000  142.5770 C   0  0  0  0  0  0  0  0  0  0  0  0
  193.7280  174.7920  144.7450 C   0  0  1  0  0  3  0  0  0  0  0  0
  194.2710  176.6780  146.1280 O   0  0  0  0  0  0  0  0  0  0  0  0
  194.6070  175.5350  145.7110 C   0  0  0  0  0  0  0  0  0  0  0  0
  195.7940  174.9420  146.1390 O   0  0  0  0  0  0  0  0  0  0  0  0
  196.5340  174.0620  145.3080 C   0  0  0  0  0  1  0  0  0  0  0  0
  192.7510  174.0200  145.4070 O   0  0  0  0  0  0  0  0  0  0  0  0
  193.2260  172.7920  145.5010 O   0  0  0  0  0  1  0  0  0  0  0  0
  1  5  1  0  0  0  0
  2 21  1  6  0  0  0
  2  4  1  0  0  0  0
  3  2  1  0  0  0  0
  4 11  1  0  0  0  0
  5 14  1  1  0  0  0
  6  8  1  0  0  0  0
  7  5  1  0  0  0  0
  7 11  1  1  0  0  0
  8  3  1  6  0  0  0
  8  7  1  0  0  0  0
  9 10  2  0  0  0  0
 10  6  1  0  0  0  0
 10  1  1  0  0  0  0
 12  1  1  0  0  0  0
 14 13  1  6  0  0  0
 14 17  1  0  0  0  0
 15 17  2  0  0  0  0
 15 20  1  0  0  0  0
 17 19  1  0  0  0  0
 18 16  1  0  0  0  0
 19 16  2  0  0  0  0
 20 18  2  0  0  0  0
 21 22  1  6  0  0  0
 21 28  1  0  0  0  0
 23 22  1  0  0  0  0
 24 23  1  0  0  0  0
 24 27  1  0  0  0  0
 25 27  2  0  0  0  0
 27 26  1  0  0  0  0
 28 33  1  1  0  0  0
 28 30  1  0  0  0  0
 30 29  2  0  0  0  0
 30 31  1  0  0  0  0
 32 31  1  0  0  0  0
 33 34  1  0  0  0  0
M  END
>  <MODEL>
4

>  <REMARK>
 VINA RESULT:      -6.8      2.595      8.966
  Name = 
  11 active torsions:
  status: ('A' for Active; 'I' for Inactive)
    1  A    between atoms: C_2  and  C_19
    2  A    between atoms: C_2  and  C_25
    3  A    between atoms: C_3  and  O_16
    4  A    between atoms: C_3  and  C_34
    5  A    between atoms: C_5  and  C_25
    6  A    between atoms: C_11  and  C_26
    7  A    between atoms: C_13  and  C_19
    8  A    between atoms: C_13  and  C_23
    9  A    between atoms: C_18  and  C_26
   10  A    between atoms: C_25  and  C_34
   11  A    between atoms: O_28  and  C_34
                            x       y       z     vdW  Elec       q    Type
                         _______ _______ _______ _____ _____    ______ ____

>  <TORSDO>
F 11

$$$$
=
 OpenBabel11072408273D

 34 36  0  0  1  0  0  0  0  0999 V2000
  187.3140  176.9770  141.5830 N   0  0  0  0  0  0  0  0  0  0  0  0
  191.8770  176.4340  143.9710 C   0  0  2  0  0  3  0  0  0  0  0  0
  191.3050  175.8710  142.6710 C   0  0  0  0  0  2  0  0  0  0  0  0
  191.4110  177.8780  144.1870 C   0  0  0  0  0  2  0  0  0  0  0  0
  187.7530  177.4120  142.9110 C   0  0  2  0  0  3  0  0  0  0  0  0
  189.2490  175.4340  141.4280 N   0  0  0  0  0  2  0  0  0  0  0  0
  189.2930  177.3630  142.9540 C   0  0  2  0  0  3  0  0  0  0  0  0
  189.7810  175.9280  142.6940 C   0  0  2  0  0  3  0  0  0  0  0  0
  187.5380  175.4150  139.8480 O   0  0  0  0  0  0  0  0  0  0  0  0
  188.0010  175.9070  140.9120 C   0  0  0  0  0  0  0  0  0  0  0  0
  189.8890  177.9430  144.2350 C   0  0  0  0  0  2  0  0  0  0  0  0
  186.2590  177.7180  140.9100 C   0  0  0  0  0  1  0  0  0  0  0  0
  186.0500  175.7750  143.4590 O   0  0  0  0  0  1  0  0  0  0  0  0
  187.0890  176.5380  143.9990 C   0  0  2  0  0  3  0  0  0  0  0  0
  186.0790  178.6390  144.9030 C   0  0  0  0  0  3  0  0  0  0  0  0
  186.0590  177.6070  147.5020 C   0  0  0  0  0  3  0  0  0  0  0  0
  186.5600  177.3470  145.1420 C   0  0  0  0  0  0  0  0  0  0  0  0
  185.5740  178.8950  147.2570 C   0  0  0  0  0  3  0  0  0  0  0  0
  186.5550  176.8340  146.4480 C   0  0  0  0  0  3  0  0  0  0  0  0
  185.5840  179.4110  145.9570 C   0  0  0  0  0  3  0  0  0  0  0  0
  193.4050  176.2800  144.0140 C   0  0  2  0  0  3  0  0  0  0  0  0
  193.9150  175.5050  142.7950 C   0  0  0  0  0  2  0  0  0  0  0  0
  194.6430  176.3970  141.7980 C   0  0  0  0  0  2  0  0  0  0  0  0
  196.0510  175.8820  141.5550 C   0  0  0  0  0  2  0  0  0  0  0  0
  197.6400  174.9740  143.2510 O   0  0  0  0  0  0  0  0  0  0  0  0
  196.9330  177.1510  143.3690 O   0  0  0  0  0  1  0  0  0  0  0  0
  196.8850  176.0410  142.7810 C   0  0  0  0  0  0  0  0  0  0  0  0
  193.9630  175.7400  145.3540 C   0  0  1  0  0  3  0  0  0  0  0  0
  192.3520  174.4040  146.5330 O   0  0  0  0  0  0  0  0  0  0  0  0
  192.9160  175.5270  146.4120 C   0  0  0  0  0  0  0  0  0  0  0  0
  192.5820  176.5860  147.2550 O   0  0  0  0  0  0  0  0  0  0  0  0
  191.3310  176.6470  147.9220 C   0  0  0  0  0  1  0  0  0  0  0  0
  194.7920  174.6110  145.1990 O   0  0  0  0  0  0  0  0  0  0  0  0
  195.8180  174.7690  146.0160 O   0  0  0  0  0  1  0  0  0  0  0  0
  1  5  1  0  0  0  0
  2 21  1  6  0  0  0
  2  4  1  0  0  0  0
  3  2  1  0  0  0  0
  4 11  1  0  0  0  0
  5  7  1  0  0  0  0
  5 14  1  1  0  0  0
  6  8  1  0  0  0  0
  7 11  1  1  0  0  0
  8  3  1  6  0  0  0
  8  7  1  0  0  0  0
  9 10  2  0  0  0  0
 10  6  1  0  0  0  0
 10  1  1  0  0  0  0
 12  1  1  0  0  0  0
 14 13  1  6  0  0  0
 14 17  1  0  0  0  0
 15 17  2  0  0  0  0
 15 20  1  0  0  0  0
 17 19  1  0  0  0  0
 18 16  1  0  0  0  0
 19 16  2  0  0  0  0
 20 18  2  0  0  0  0
 21 22  1  6  0  0  0
 21 28  1  0  0  0  0
 23 22  1  0  0  0  0
 24 23  1  0  0  0  0
 24 27  1  0  0  0  0
 27 25  2  0  0  0  0
 27 26  1  0  0  0  0
 28 33  1  6  0  0  0
 28 30  1  0  0  0  0
 30 29  2  0  0  0  0
 30 31  1  0  0  0  0
 31 32  1  0  0  0  0
 33 34  1  0  0  0  0
M  END
>  <MODEL>
5

>  <REMARK>
 VINA RESULT:      -6.8      2.717      8.561
  Name = 
  11 active torsions:
  status: ('A' for Active; 'I' for Inactive)
    1  A    between atoms: C_2  and  C_19
    2  A    between atoms: C_2  and  C_25
    3  A    between atoms: C_3  and  O_16
    4  A    between atoms: C_3  and  C_34
    5  A    between atoms: C_5  and  C_25
    6  A    between atoms: C_11  and  C_26
    7  A    between atoms: C_13  and  C_19
    8  A    between atoms: C_13  and  C_23
    9  A    between atoms: C_18  and  C_26
   10  A    between atoms: C_25  and  C_34
   11  A    between atoms: O_28  and  C_34
                            x       y       z     vdW  Elec       q    Type
                         _______ _______ _______ _____ _____    ______ ____

>  <TORSDO>
F 11

$$$$
=
 OpenBabel11072408273D

 34 36  0  0  1  0  0  0  0  0999 V2000
  186.1520  177.2380  146.1240 N   0  0  0  0  0  0  0  0  0  0  0  0
  190.9140  176.6650  144.1720 C   0  0  2  0  0  3  0  0  0  0  0  0
  190.3900  176.9760  145.5730 C   0  0  0  0  0  2  0  0  0  0  0  0
  190.0000  175.6610  143.4610 C   0  0  0  0  0  2  0  0  0  0  0  0
  186.6040  177.0990  144.7380 C   0  0  2  0  0  3  0  0  0  0  0  0
  188.4640  177.7740  146.8440 N   0  0  0  0  0  2  0  0  0  0  0  0
  188.0450  176.5540  144.7490 C   0  0  2  0  0  3  0  0  0  0  0  0
  188.9710  177.5280  145.4970 C   0  0  2  0  0  3  0  0  0  0  0  0
  186.6530  177.9700  148.2950 O   0  0  0  0  0  0  0  0  0  0  0  0
  187.0660  177.6920  147.1380 C   0  0  0  0  0  0  0  0  0  0  0  0
  188.5820  176.2130  143.3600 C   0  0  0  0  0  2  0  0  0  0  0  0
  184.8110  176.8000  146.4770 C   0  0  0  0  0  1  0  0  0  0  0  0
  185.9980  179.4440  144.8640 O   0  0  0  0  0  1  0  0  0  0  0  0
  186.4750  178.4520  144.0020 C   0  0  2  0  0  3  0  0  0  0  0  0
  184.1920  178.3640  142.9850 C   0  0  0  0  0  3  0  0  0  0  0  0
  185.2590  178.2120  140.4050 C   0  0  0  0  0  3  0  0  0  0  0  0
  185.5800  178.3720  142.8050 C   0  0  0  0  0  0  0  0  0  0  0  0
  183.8740  178.2110  140.5900 C   0  0  0  0  0  3  0  0  0  0  0  0
  186.1130  178.2900  141.5090 C   0  0  0  0  0  3  0  0  0  0  0  0
  183.3400  178.2870  141.8810 C   0  0  0  0  0  3  0  0  0  0  0  0
  192.3830  176.2150  144.2190 C   0  0  2  0  0  3  0  0  0  0  0  0
  192.7790  175.4910  142.9280 C   0  0  0  0  0  2  0  0  0  0  0  0
  194.0650  176.0380  142.3240 C   0  0  0  0  0  2  0  0  0  0  0  0
  195.2060  175.0570  142.5290 C   0  0  0  0  0  2  0  0  0  0  0  0
  197.3990  174.9240  143.7110 O   0  0  0  0  0  0  0  0  0  0  0  0
  196.0940  176.7990  143.8910 O   0  0  0  0  0  1  0  0  0  0  0  0
  196.2450  175.6420  143.4240 C   0  0  0  0  0  0  0  0  0  0  0  0
  192.7780  175.4360  145.4990 C   0  0  1  0  0  3  0  0  0  0  0  0
  193.8960  173.3160  145.3490 O   0  0  0  0  0  0  0  0  0  0  0  0
  192.8010  173.9430  145.3250 C   0  0  0  0  0  0  0  0  0  0  0  0
  191.5960  173.2650  145.1400 O   0  0  0  0  0  0  0  0  0  0  0  0
  191.4710  172.1980  144.2130 C   0  0  0  0  0  1  0  0  0  0  0  0
  193.9610  175.9140  146.0990 O   0  0  0  0  0  0  0  0  0  0  0  0
  193.5990  176.7880  147.0220 O   0  0  0  0  0  1  0  0  0  0  0  0
  1 12  1  0  0  0  0
  1 10  1  0  0  0  0
  2 21  1  1  0  0  0
  2  3  1  0  0  0  0
  4  2  1  0  0  0  0
  5 14  1  1  0  0  0
  5  7  1  0  0  0  0
  5  1  1  0  0  0  0
  6 10  1  0  0  0  0
  7 11  1  6  0  0  0
  7  8  1  0  0  0  0
  8  3  1  1  0  0  0
  8  6  1  0  0  0  0
 10  9  2  0  0  0  0
 11  4  1  0  0  0  0
 14 13  1  1  0  0  0
 16 18  2  0  0  0  0
 16 19  1  0  0  0  0
 17 15  1  0  0  0  0
 17 14  1  0  0  0  0
 18 20  1  0  0  0  0
 19 17  2  0  0  0  0
 20 15  2  0  0  0  0
 21 22  1  6  0  0  0
 21 28  1  0  0  0  0
 23 24  1  0  0  0  0
 23 22  1  0  0  0  0
 24 27  1  0  0  0  0
 27 25  2  0  0  0  0
 27 26  1  0  0  0  0
 28 30  1  6  0  0  0
 28 33  1  0  0  0  0
 30 29  2  0  0  0  0
 31 30  1  0  0  0  0
 32 31  1  0  0  0  0
 33 34  1  0  0  0  0
M  END
>  <MODEL>
6

>  <REMARK>
 VINA RESULT:      -6.6      2.468      8.581
  Name = 
  11 active torsions:
  status: ('A' for Active; 'I' for Inactive)
    1  A    between atoms: C_2  and  C_19
    2  A    between atoms: C_2  and  C_25
    3  A    between atoms: C_3  and  O_16
    4  A    between atoms: C_3  and  C_34
    5  A    between atoms: C_5  and  C_25
    6  A    between atoms: C_11  and  C_26
    7  A    between atoms: C_13  and  C_19
    8  A    between atoms: C_13  and  C_23
    9  A    between atoms: C_18  and  C_26
   10  A    between atoms: C_25  and  C_34
   11  A    between atoms: O_28  and  C_34
                            x       y       z     vdW  Elec       q    Type
                         _______ _______ _______ _____ _____    ______ ____

>  <TORSDO>
F 11

$$$$
=
 OpenBabel11072408273D

 34 36  0  0  1  0  0  0  0  0999 V2000
  193.0120  176.3820  146.1460 N   0  0  0  0  0  0  0  0  0  0  0  0
  188.9430  177.2910  143.0750 C   0  0  2  0  0  3  0  0  0  0  0  0
  189.0750  176.8190  144.5220 C   0  0  0  0  0  2  0  0  0  0  0  0
  190.0130  178.3390  142.7470 C   0  0  0  0  0  2  0  0  0  0  0  0
  192.9470  176.6790  144.7130 C   0  0  2  0  0  3  0  0  0  0  0  0
  190.5930  175.8380  146.1640 N   0  0  0  0  0  2  0  0  0  0  0  0
  191.5540  177.2600  144.4010 C   0  0  2  0  0  3  0  0  0  0  0  0
  190.4640  176.2380  144.7660 C   0  0  2  0  0  3  0  0  0  0  0  0
  191.9510  175.4380  148.0120 O   0  0  0  0  0  0  0  0  0  0  0  0
  191.8620  175.8490  146.8250 C   0  0  0  0  0  0  0  0  0  0  0  0
  191.4060  177.7610  142.9650 C   0  0  0  0  0  2  0  0  0  0  0  0
  194.2100  176.7430  146.8880 C   0  0  0  0  0  1  0  0  0  0  0  0
  193.3290  174.2850  144.7230 O   0  0  0  0  0  1  0  0  0  0  0  0
  193.2690  175.4090  143.8950 C   0  0  2  0  0  3  0  0  0  0  0  0
  195.5650  176.3620  143.6210 C   0  0  0  0  0  3  0  0  0  0  0  0
  195.9560  174.9480  141.2400 C   0  0  0  0  0  3  0  0  0  0  0  0
  194.5540  175.5260  143.1340 C   0  0  0  0  0  0  0  0  0  0  0  0
  196.9650  175.7790  141.7340 C   0  0  0  0  0  3  0  0  0  0  0  0
  194.7500  174.8220  141.9360 C   0  0  0  0  0  3  0  0  0  0  0  0
  196.7690  176.4860  142.9240 C   0  0  0  0  0  3  0  0  0  0  0  0
  187.5150  177.7750  142.7800 C   0  0  2  0  0  3  0  0  0  0  0  0
  186.7710  178.1190  144.0740 C   0  0  0  0  0  2  0  0  0  0  0  0
  185.5950  177.1860  144.3370 C   0  0  0  0  0  2  0  0  0  0  0  0
  185.5600  176.7790  145.8000 C   0  0  0  0  0  2  0  0  0  0  0  0
  184.1750  178.7450  146.4650 O   0  0  0  0  0  0  0  0  0  0  0  0
  186.0970  178.2390  147.6060 O   0  0  0  0  0  1  0  0  0  0  0  0
  185.3060  177.9640  146.6680 C   0  0  0  0  0  0  0  0  0  0  0  0
  186.7020  176.8510  141.8390 C   0  0  1  0  0  3  0  0  0  0  0  0
  186.3720  177.2370  139.4920 O   0  0  0  0  0  0  0  0  0  0  0  0
  186.0720  177.5620  140.6740 C   0  0  0  0  0  0  0  0  0  0  0  0
  185.1530  178.5820  140.9210 O   0  0  0  0  0  0  0  0  0  0  0  0
  183.7960  178.4800  140.5200 C   0  0  0  0  0  1  0  0  0  0  0  0
  187.4130  175.7030  141.4330 O   0  0  0  0  0  0  0  0  0  0  0  0
  187.0820  174.7290  142.2620 O   0  0  0  0  0  1  0  0  0  0  0  0
  1 10  1  0  0  0  0
  1 12  1  0  0  0  0
  2 21  1  1  0  0  0
  2  3  1  0  0  0  0
  4 11  1  0  0  0  0
  4  2  1  0  0  0  0
  5 14  1  6  0  0  0
  5  1  1  0  0  0  0
  6 10  1  0  0  0  0
  7 11  1  6  0  0  0
  7  5  1  0  0  0  0
  7  8  1  0  0  0  0
  8  3  1  1  0  0  0
  8  6  1  0  0  0  0
 10  9  2  0  0  0  0
 14 13  1  1  0  0  0
 16 18  2  0  0  0  0
 16 19  1  0  0  0  0
 17 15  1  0  0  0  0
 17 14  1  0  0  0  0
 18 20  1  0  0  0  0
 19 17  2  0  0  0  0
 20 15  2  0  0  0  0
 21 22  1  1  0  0  0
 22 23  1  0  0  0  0
 23 24  1  0  0  0  0
 24 27  1  0  0  0  0
 25 27  2  0  0  0  0
 27 26  1  0  0  0  0
 28 30  1  6  0  0  0
 28 21  1  0  0  0  0
 29 30  2  0  0  0  0
 30 31  1  0  0  0  0
 32 31  1  0  0  0  0
 33 28  1  0  0  0  0
 33 34  1  0  0  0  0
M  END
>  <MODEL>
7

>  <REMARK>
 VINA RESULT:      -6.6      1.911      2.503
  Name = 
  11 active torsions:
  status: ('A' for Active; 'I' for Inactive)
    1  A    between atoms: C_2  and  C_19
    2  A    between atoms: C_2  and  C_25
    3  A    between atoms: C_3  and  O_16
    4  A    between atoms: C_3  and  C_34
    5  A    between atoms: C_5  and  C_25
    6  A    between atoms: C_11  and  C_26
    7  A    between atoms: C_13  and  C_19
    8  A    between atoms: C_13  and  C_23
    9  A    between atoms: C_18  and  C_26
   10  A    between atoms: C_25  and  C_34
   11  A    between atoms: O_28  and  C_34
                            x       y       z     vdW  Elec       q    Type
                         _______ _______ _______ _____ _____    ______ ____

>  <TORSDO>
F 11

$$$$
=
 OpenBabel11072408273D

 34 36  0  0  1  0  0  0  0  0999 V2000
  185.8290  177.5170  146.2220 N   0  0  0  0  0  0  0  0  0  0  0  0
  190.4000  175.9920  144.3250 C   0  0  2  0  0  3  0  0  0  0  0  0
  189.9580  176.5170  145.6900 C   0  0  0  0  0  2  0  0  0  0  0  0
  189.3230  175.0870  143.7170 C   0  0  0  0  0  2  0  0  0  0  0  0
  186.2280  177.1750  144.8550 C   0  0  2  0  0  3  0  0  0  0  0  0
  188.2100  177.7350  146.8820 N   0  0  0  0  0  2  0  0  0  0  0  0
  187.5620  176.4060  144.9160 C   0  0  2  0  0  3  0  0  0  0  0  0
  188.6460  177.2830  145.5640 C   0  0  2  0  0  3  0  0  0  0  0  0
  186.4810  178.3610  148.3110 O   0  0  0  0  0  0  0  0  0  0  0  0
  186.8220  177.9100  147.1860 C   0  0  0  0  0  0  0  0  0  0  0  0
  188.0120  175.8510  143.5650 C   0  0  0  0  0  2  0  0  0  0  0  0
  184.4420  177.3390  146.6190 C   0  0  0  0  0  1  0  0  0  0  0  0
  185.9460  179.5810  144.7380 O   0  0  0  0  0  1  0  0  0  0  0  0
  186.3060  178.4540  143.9920 C   0  0  2  0  0  3  0  0  0  0  0  0
  184.0510  178.3650  142.9160 C   0  0  0  0  0  3  0  0  0  0  0  0
  185.1850  178.2300  140.3630 C   0  0  0  0  0  3  0  0  0  0  0  0
  185.4430  178.3780  142.7710 C   0  0  0  0  0  0  0  0  0  0  0  0
  183.7960  178.2240  140.5120 C   0  0  0  0  0  3  0  0  0  0  0  0
  186.0100  178.3050  141.4890 C   0  0  0  0  0  3  0  0  0  0  0  0
  183.2290  178.2910  141.7890 C   0  0  0  0  0  3  0  0  0  0  0  0
  191.7770  175.3160  144.4130 C   0  0  2  0  0  3  0  0  0  0  0  0
  192.7310  176.1210  145.2990 C   0  0  0  0  0  2  0  0  0  0  0  0
  193.4860  175.2450  146.2910 C   0  0  0  0  0  2  0  0  0  0  0  0
  194.9840  175.4550  146.1500 C   0  0  0  0  0  2  0  0  0  0  0  0
  194.8880  173.0740  145.4100 O   0  0  0  0  0  0  0  0  0  0  0  0
  196.9020  174.1530  145.5940 O   0  0  0  0  0  1  0  0  0  0  0  0
  195.6510  174.1940  145.7170 C   0  0  0  0  0  0  0  0  0  0  0  0
  192.3960  174.9320  143.0450 C   0  0  1  0  0  3  0  0  0  0  0  0
  193.0370  177.0050  142.0170 O   0  0  0  0  0  0  0  0  0  0  0  0
  193.4100  175.9160  142.5340 C   0  0  0  0  0  0  0  0  0  0  0  0
  194.7660  175.6070  142.6410 O   0  0  0  0  0  0  0  0  0  0  0  0
  195.7670  176.4010  142.0230 C   0  0  0  0  0  1  0  0  0  0  0  0
  192.8780  173.6070  143.0040 O   0  0  0  0  0  0  0  0  0  0  0  0
  191.9310  172.8350  143.5050 O   0  0  0  0  0  1  0  0  0  0  0  0
  1 12  1  0  0  0  0
  1 10  1  0  0  0  0
  2 21  1  1  0  0  0
  2  3  1  0  0  0  0
  4  2  1  0  0  0  0
  5 14  1  6  0  0  0
  5  7  1  0  0  0  0
  5  1  1  0  0  0  0
  6 10  1  0  0  0  0
  7 11  1  6  0  0  0
  7  8  1  0  0  0  0
  8  3  1  1  0  0  0
  8  6  1  0  0  0  0
 10  9  2  0  0  0  0
 11  4  1  0  0  0  0
 14 13  1  1  0  0  0
 16 18  2  0  0  0  0
 16 19  1  0  0  0  0
 17 15  1  0  0  0  0
 17 14  1  0  0  0  0
 18 20  1  0  0  0  0
 19 17  2  0  0  0  0
 20 15  2  0  0  0  0
 21 22  1  6  0  0  0
 22 23  1  0  0  0  0
 24 23  1  0  0  0  0
 25 27  2  0  0  0  0
 26 27  1  0  0  0  0
 27 24  1  0  0  0  0
 28 30  1  1  0  0  0
 28 21  1  0  0  0  0
 29 30  2  0  0  0  0
 30 31  1  0  0  0  0
 32 31  1  0  0  0  0
 33 28  1  0  0  0  0
 33 34  1  0  0  0  0
M  END
>  <MODEL>
8

>  <REMARK>
 VINA RESULT:      -6.5      2.300      8.556
  Name = 
  11 active torsions:
  status: ('A' for Active; 'I' for Inactive)
    1  A    between atoms: C_2  and  C_19
    2  A    between atoms: C_2  and  C_25
    3  A    between atoms: C_3  and  O_16
    4  A    between atoms: C_3  and  C_34
    5  A    between atoms: C_5  and  C_25
    6  A    between atoms: C_11  and  C_26
    7  A    between atoms: C_13  and  C_19
    8  A    between atoms: C_13  and  C_23
    9  A    between atoms: C_18  and  C_26
   10  A    between atoms: C_25  and  C_34
   11  A    between atoms: O_28  and  C_34
                            x       y       z     vdW  Elec       q    Type
                         _______ _______ _______ _____ _____    ______ ____

>  <TORSDO>
F 11

$$$$
=
 OpenBabel11072408273D

 34 36  0  0  1  0  0  0  0  0999 V2000
  185.7610  177.8540  146.3910 N   0  0  0  0  0  0  0  0  0  0  0  0
  189.9860  175.5930  144.4280 C   0  0  2  0  0  3  0  0  0  0  0  0
  189.6860  176.2600  145.7690 C   0  0  0  0  0  2  0  0  0  0  0  0
  188.7670  174.8080  143.9290 C   0  0  0  0  0  2  0  0  0  0  0  0
  186.0420  177.3720  145.0370 C   0  0  2  0  0  3  0  0  0  0  0  0
  188.1780  177.7840  146.9400 N   0  0  0  0  0  2  0  0  0  0  0  0
  187.2620  176.4320  145.1000 C   0  0  2  0  0  3  0  0  0  0  0  0
  188.4850  177.1910  145.6410 C   0  0  2  0  0  3  0  0  0  0  0  0
  186.6220  178.7340  148.3880 O   0  0  0  0  0  0  0  0  0  0  0  0
  186.8440  178.1680  147.2850 C   0  0  0  0  0  0  0  0  0  0  0  0
  187.5660  175.7340  143.7750 C   0  0  0  0  0  2  0  0  0  0  0  0
  184.3830  177.8950  146.8540 C   0  0  0  0  0  1  0  0  0  0  0  0
  185.9420  179.7750  144.7220 O   0  0  0  0  0  1  0  0  0  0  0  0
  186.2510  178.5700  144.0830 C   0  0  2  0  0  3  0  0  0  0  0  0
  184.0430  178.4000  142.9230 C   0  0  0  0  0  3  0  0  0  0  0  0
  185.2780  178.2800  140.4160 C   0  0  0  0  0  3  0  0  0  0  0  0
  185.4380  178.4560  142.8310 C   0  0  0  0  0  0  0  0  0  0  0  0
  183.8840  178.2310  140.5130 C   0  0  0  0  0  3  0  0  0  0  0  0
  186.0560  178.3900  141.5730 C   0  0  0  0  0  3  0  0  0  0  0  0
  183.2670  178.2910  141.7660 C   0  0  0  0  0  3  0  0  0  0  0  0
  191.2610  174.7390  144.5090 C   0  0  2  0  0  3  0  0  0  0  0  0
  191.9610  174.9220  145.8590 C   0  0  0  0  0  2  0  0  0  0  0  0
  193.4650  174.6950  145.7720 C   0  0  0  0  0  2  0  0  0  0  0  0
  194.2100  175.7930  146.5120 C   0  0  0  0  0  2  0  0  0  0  0  0
  195.6040  176.1060  144.4670 O   0  0  0  0  0  0  0  0  0  0  0  0
  194.9310  177.9150  145.7030 O   0  0  0  0  0  1  0  0  0  0  0  0
  194.9420  176.6670  145.5510 C   0  0  0  0  0  0  0  0  0  0  0  0
  192.2190  174.8940  143.3010 C   0  0  1  0  0  3  0  0  0  0  0  0
  192.4250  172.5150  143.0480 O   0  0  0  0  0  0  0  0  0  0  0  0
  192.3820  173.6440  142.4840 C   0  0  0  0  0  0  0  0  0  0  0  0
  192.4810  173.7510  141.0970 O   0  0  0  0  0  0  0  0  0  0  0  0
  191.4010  173.4160  140.2400 C   0  0  0  0  0  1  0  0  0  0  0  0
  191.9270  176.0150  142.4980 O   0  0  0  0  0  0  0  0  0  0  0  0
  192.8320  176.9370  142.7750 O   0  0  0  0  0  1  0  0  0  0  0  0
  1 12  1  0  0  0  0
  1 10  1  0  0  0  0
  2 21  1  1  0  0  0
  2  3  1  0  0  0  0
  4  2  1  0  0  0  0
  5 14  1  6  0  0  0
  5  7  1  0  0  0  0
  5  1  1  0  0  0  0
  6 10  1  0  0  0  0
  7 11  1  6  0  0  0
  7  8  1  0  0  0  0
  8  3  1  1  0  0  0
  8  6  1  0  0  0  0
 10  9  2  0  0  0  0
 11  4  1  0  0  0  0
 14 13  1  1  0  0  0
 16 18  2  0  0  0  0
 16 19  1  0  0  0  0
 17 15  1  0  0  0  0
 17 14  1  0  0  0  0
 18 20  1  0  0  0  0
 19 17  2  0  0  0  0
 20 15  2  0  0  0  0
 21 22  1  1  0  0  0
 23 22  1  0  0  0  0
 23 24  1  0  0  0  0
 25 27  2  0  0  0  0
 27 26  1  0  0  0  0
 27 24  1  0  0  0  0
 28 30  1  6  0  0  0
 28 21  1  0  0  0  0
 30 29  2  0  0  0  0
 31 30  1  0  0  0  0
 32 31  1  0  0  0  0
 33 34  1  0  0  0  0
 33 28  1  0  0  0  0
M  END
>  <MODEL>
9

>  <REMARK>
 VINA RESULT:      -6.5      2.420      8.144
  Name = 
  11 active torsions:
  status: ('A' for Active; 'I' for Inactive)
    1  A    between atoms: C_2  and  C_19
    2  A    between atoms: C_2  and  C_25
    3  A    between atoms: C_3  and  O_16
    4  A    between atoms: C_3  and  C_34
    5  A    between atoms: C_5  and  C_25
    6  A    between atoms: C_11  and  C_26
    7  A    between atoms: C_13  and  C_19
    8  A    between atoms: C_13  and  C_23
    9  A    between atoms: C_18  and  C_26
   10  A    between atoms: C_25  and  C_34
   11  A    between atoms: O_28  and  C_34
                            x       y       z     vdW  Elec       q    Type
                         _______ _______ _______ _____ _____    ______ ____

>  <TORSDO>
F 11

$$$$
