=
 OpenBabel11062418533D

 33 36  0  0  1  0  0  0  0  0999 V2000
  187.7370  177.0590  146.4020 C   0  0  0  0  0  0  0  0  0  0  0  0
  189.0790  177.5620  146.4180 N   0  0  0  0  0  2  0  0  0  0  0  0
  187.4990  175.8340  146.2270 O   0  0  0  0  0  0  0  0  0  0  0  0
  192.6870  175.3220  146.0540 C   0  0  0  0  0  0  0  0  0  0  0  0
  191.0700  176.9140  145.1370 C   0  0  0  0  0  0  0  0  0  0  0  0
  190.6710  177.7280  144.1220 N   0  0  0  0  0  0  0  0  0  0  0  0
  192.9770  176.2880  143.8090 C   0  0  0  0  0  3  0  0  0  0  0  0
  190.2880  176.7950  146.2980 C   0  0  0  0  0  0  0  0  0  0  0  0
  191.3940  177.8310  142.9780 C   0  0  0  0  0  3  0  0  0  0  0  0
  190.7010  175.9210  147.3130 C   0  0  0  0  0  3  0  0  0  0  0  0
  192.2670  176.1730  145.0080 C   0  0  0  0  0  0  0  0  0  0  0  0
  192.5340  177.1110  142.8250 N   0  0  0  0  0  0  0  0  0  0  0  0
  191.8820  175.1890  147.1880 C   0  0  0  0  0  3  0  0  0  0  0  0
  193.9610  173.1870  145.4980 C   0  0  0  0  0  0  0  0  0  0  0  0
  195.2330  172.4350  145.6530 C   0  0  0  0  0  1  0  0  0  0  0  0
  193.0170  172.6900  144.7680 N   0  0  0  0  0  2  0  0  0  0  0  0
  193.8840  174.5330  145.9780 N   0  0  0  0  0  2  0  0  0  0  0  0
  186.3740  178.1920  146.6360 S   0  0  0  0  0  0  0  0  0  0  0  0
  185.5310  179.8980  144.6770 C   0  0  0  0  0  1  0  0  0  0  0  0
  186.2790  178.5920  144.8670 C   0  0  2  0  0  3  0  0  0  0  0  0
  185.5470  177.4750  144.1390 C   0  0  0  0  0  2  0  0  0  0  0  0
  185.4550  177.3690  141.5480 C   0  0  1  0  0  3  0  0  0  0  0  0
  186.5700  177.4170  140.4930 C   0  0  0  0  0  2  0  0  0  0  0  0
  187.8450  177.1530  141.2990 C   0  0  1  0  0  3  0  0  0  0  0  0
  186.7330  175.6370  142.7950 C   0  0  0  0  0  2  0  0  0  0  0  0
  187.5150  177.8380  142.5990 C   0  0  0  0  0  2  0  0  0  0  0  0
  187.8040  175.6750  141.7000 C   0  0  2  0  0  3  0  0  0  0  0  0
  186.2430  177.0840  142.8340 C   0  0  2  0  0  0  0  0  0  0  0  0
  188.9820  174.6540  143.5100 O   0  0  0  0  0  1  0  0  0  0  0  0
  189.1500  175.2320  142.2530 C   0  0  0  0  0  2  0  0  0  0  0  0
  184.8310  178.6200  141.6120 O   0  0  0  0  0  0  0  0  0  0  0  0
  183.8080  178.5610  140.6650 C   0  0  0  0  0  2  0  0  0  0  0  0
  182.5120  178.1790  141.3490 C   0  0  0  0  0  1  0  0  0  0  0  0
  1  2  1  0  0  0  0
  1 18  1  0  0  0  0
  3  1  2  0  0  0  0
  4 13  1  0  0  0  0
  5  8  2  0  0  0  0
  6  5  1  0  0  0  0
  7 11  1  0  0  0  0
  8  2  1  0  0  0  0
  8 10  1  0  0  0  0
  9  6  2  0  0  0  0
 11  5  1  0  0  0  0
 11  4  2  0  0  0  0
 12  9  1  0  0  0  0
 12  7  2  0  0  0  0
 13 10  2  0  0  0  0
 14 15  1  0  0  0  0
 14 17  1  0  0  0  0
 16 14  2  0  0  0  0
 17  4  1  0  0  0  0
 20 19  1  1  0  0  0
 20 18  1  0  0  0  0
 21 20  1  0  0  0  0
 22 31  1  1  0  0  0
 22 28  1  0  0  0  0
 23 22  1  0  0  0  0
 24 23  1  6  0  0  0
 24 27  1  0  0  0  0
 24 26  1  0  0  0  0
 25 28  1  0  0  0  0
 26 28  1  0  0  0  0
 27 30  1  1  0  0  0
 27 25  1  0  0  0  0
 28 21  1  1  0  0  0
 30 29  1  0  0  0  0
 32 33  1  0  0  0  0
 32 31  1  0  0  0  0
M  END
>  <MODEL>
1

>  <REMARK>
 VINA RESULT:      -7.0      0.000      0.000
  Name = 
  9 active torsions:
  status: ('A' for Active; 'I' for Inactive)
    1  A    between atoms: C_1  and  O_9
    2  A    between atoms: C_2  and  O_9
    3  A    between atoms: C_4  and  S_32
    4  A    between atoms: C_5  and  N_25
    5  A    between atoms: C_15  and  N_29
    6  A    between atoms: C_16  and  C_20
    7  A    between atoms: C_16  and  C_28
    8  A    between atoms: C_20  and  S_32
    9  A    between atoms: C_26  and  C_27
                            x       y       z     vdW  Elec       q    Type
                         _______ _______ _______ _____ _____    ______ ____

>  <TORSDO>
F 9

$$$$
=
 OpenBabel11062418533D

 33 36  0  0  1  0  0  0  0  0999 V2000
  188.3590  176.6930  146.2470 C   0  0  0  0  0  0  0  0  0  0  0  0
  189.1490  175.6250  146.7820 N   0  0  0  0  0  2  0  0  0  0  0  0
  188.8600  177.5580  145.4800 O   0  0  0  0  0  0  0  0  0  0  0  0
  193.2460  174.8230  145.9240 C   0  0  0  0  0  0  0  0  0  0  0  0
  190.8730  174.2800  145.6680 C   0  0  0  0  0  0  0  0  0  0  0  0
  189.9020  173.4850  145.1430 N   0  0  0  0  0  0  0  0  0  0  0  0
  192.5150  172.8920  144.5850 C   0  0  0  0  0  3  0  0  0  0  0  0
  190.5330  175.3550  146.5060 C   0  0  0  0  0  0  0  0  0  0  0  0
  190.2120  172.4210  144.3590 C   0  0  0  0  0  3  0  0  0  0  0  0
  191.5540  176.1350  147.0650 C   0  0  0  0  0  3  0  0  0  0  0  0
  192.2300  174.0060  145.3800 C   0  0  0  0  0  0  0  0  0  0  0  0
  191.5090  172.1280  144.0880 N   0  0  0  0  0  0  0  0  0  0  0  0
  192.8940  175.8670  146.7830 C   0  0  0  0  0  3  0  0  0  0  0  0
  195.4020  175.1490  144.6060 C   0  0  0  0  0  0  0  0  0  0  0  0
  196.7890  174.6710  144.3750 C   0  0  0  0  0  1  0  0  0  0  0  0
  194.9750  176.1880  143.9660 N   0  0  0  0  0  2  0  0  0  0  0  0
  194.6420  174.5890  145.6820 N   0  0  0  0  0  2  0  0  0  0  0  0
  186.6260  176.8020  146.6760 S   0  0  0  0  0  0  0  0  0  0  0  0
  185.6020  179.2400  145.9920 C   0  0  0  0  0  1  0  0  0  0  0  0
  186.2850  178.0300  145.3820 C   0  0  2  0  0  3  0  0  0  0  0  0
  185.3800  177.4110  144.3290 C   0  0  0  0  0  2  0  0  0  0  0  0
  185.2430  177.5010  141.7390 C   0  0  1  0  0  3  0  0  0  0  0  0
  186.3140  177.7950  140.6790 C   0  0  0  0  0  2  0  0  0  0  0  0
  187.6330  177.6550  141.4450 C   0  0  1  0  0  3  0  0  0  0  0  0
  186.7850  175.8780  142.8240 C   0  0  0  0  0  2  0  0  0  0  0  0
  187.2390  178.1780  142.8020 C   0  0  0  0  0  2  0  0  0  0  0  0
  187.8140  176.1580  141.7230 C   0  0  2  0  0  3  0  0  0  0  0  0
  186.0940  177.2310  142.9880 C   0  0  2  0  0  0  0  0  0  0  0  0
  189.6880  174.6790  141.6720 O   0  0  0  0  0  1  0  0  0  0  0  0
  189.2220  175.8730  142.2210 C   0  0  0  0  0  2  0  0  0  0  0  0
  184.4480  178.6390  141.9140 O   0  0  0  0  0  0  0  0  0  0  0  0
  183.1340  178.1710  141.8650 C   0  0  0  0  0  2  0  0  0  0  0  0
  182.6940  178.0630  140.4200 C   0  0  0  0  0  1  0  0  0  0  0  0
  1 18  1  0  0  0  0
  1  2  1  0  0  0  0
  3  1  2  0  0  0  0
  4 13  1  0  0  0  0
  5  8  2  0  0  0  0
  6  5  1  0  0  0  0
  7 11  1  0  0  0  0
  8  2  1  0  0  0  0
  8 10  1  0  0  0  0
  9  6  2  0  0  0  0
 11  5  1  0  0  0  0
 11  4  2  0  0  0  0
 12  9  1  0  0  0  0
 12  7  2  0  0  0  0
 13 10  2  0  0  0  0
 14 17  1  0  0  0  0
 15 14  1  0  0  0  0
 16 14  2  0  0  0  0
 17  4  1  0  0  0  0
 20 19  1  1  0  0  0
 20 18  1  0  0  0  0
 21 20  1  0  0  0  0
 22 31  1  1  0  0  0
 22 28  1  0  0  0  0
 23 22  1  0  0  0  0
 24 23  1  6  0  0  0
 24 27  1  0  0  0  0
 24 26  1  0  0  0  0
 25 28  1  0  0  0  0
 26 28  1  0  0  0  0
 27 30  1  1  0  0  0
 27 25  1  0  0  0  0
 28 21  1  1  0  0  0
 29 30  1  0  0  0  0
 32 31  1  0  0  0  0
 33 32  1  0  0  0  0
M  END
>  <MODEL>
2

>  <REMARK>
 VINA RESULT:      -6.9      1.636      2.242
  Name = 
  9 active torsions:
  status: ('A' for Active; 'I' for Inactive)
    1  A    between atoms: C_1  and  O_9
    2  A    between atoms: C_2  and  O_9
    3  A    between atoms: C_4  and  S_32
    4  A    between atoms: C_5  and  N_25
    5  A    between atoms: C_15  and  N_29
    6  A    between atoms: C_16  and  C_20
    7  A    between atoms: C_16  and  C_28
    8  A    between atoms: C_20  and  S_32
    9  A    between atoms: C_26  and  C_27
                            x       y       z     vdW  Elec       q    Type
                         _______ _______ _______ _____ _____    ______ ____

>  <TORSDO>
F 9

$$$$
=
 OpenBabel11062418533D

 33 36  0  0  1  0  0  0  0  0999 V2000
  190.5510  174.7340  142.3620 C   0  0  0  0  0  0  0  0  0  0  0  0
  190.2360  176.1310  142.3640 N   0  0  0  0  0  2  0  0  0  0  0  0
  189.8960  173.9140  143.0600 O   0  0  0  0  0  0  0  0  0  0  0  0
  187.0250  178.0040  144.4490 C   0  0  0  0  0  0  0  0  0  0  0  0
  187.9980  177.1380  142.3770 C   0  0  0  0  0  0  0  0  0  0  0  0
  187.8990  176.9130  141.0390 N   0  0  0  0  0  0  0  0  0  0  0  0
  185.8170  178.1550  142.3100 C   0  0  0  0  0  3  0  0  0  0  0  0
  189.1630  176.7720  143.0720 C   0  0  0  0  0  0  0  0  0  0  0  0
  186.7960  177.2900  140.3430 C   0  0  0  0  0  3  0  0  0  0  0  0
  189.2560  177.0500  144.4420 C   0  0  0  0  0  3  0  0  0  0  0  0
  186.9290  177.7620  143.0610 C   0  0  0  0  0  0  0  0  0  0  0  0
  185.7680  177.9100  140.9760 N   0  0  0  0  0  0  0  0  0  0  0  0
  188.2030  177.6650  145.1200 C   0  0  0  0  0  3  0  0  0  0  0  0
  184.9580  177.9730  145.9380 C   0  0  0  0  0  0  0  0  0  0  0  0
  183.8380  178.7650  146.5090 C   0  0  0  0  0  1  0  0  0  0  0  0
  185.0940  176.7330  146.2770 N   0  0  0  0  0  2  0  0  0  0  0  0
  185.9820  178.6460  145.1980 N   0  0  0  0  0  2  0  0  0  0  0  0
  191.9000  174.1410  141.3480 S   0  0  0  0  0  0  0  0  0  0  0  0
  194.2410  175.5470  141.3600 C   0  0  0  0  0  1  0  0  0  0  0  0
  193.1420  175.0710  142.2910 C   0  0  2  0  0  3  0  0  0  0  0  0
  193.7370  174.1700  143.3630 C   0  0  0  0  0  2  0  0  0  0  0  0
  195.0060  175.1170  145.4180 C   0  0  1  0  0  3  0  0  0  0  0  0
  194.6130  176.1910  146.4430 C   0  0  0  0  0  2  0  0  0  0  0  0
  193.1030  176.3510  146.2420 C   0  0  1  0  0  3  0  0  0  0  0  0
  192.7980  174.0190  145.7470 C   0  0  0  0  0  2  0  0  0  0  0  0
  192.9830  176.1350  144.7560 C   0  0  0  0  0  2  0  0  0  0  0  0
  192.4560  175.0780  146.8000 C   0  0  2  0  0  3  0  0  0  0  0  0
  193.6590  174.7990  144.7550 C   0  0  2  0  0  0  0  0  0  0  0  0
  190.6570  176.4490  147.5680 O   0  0  0  0  0  1  0  0  0  0  0  0
  190.9500  175.2510  146.9170 C   0  0  0  0  0  2  0  0  0  0  0  0
  195.8990  175.6710  144.4940 O   0  0  0  0  0  0  0  0  0  0  0  0
  196.9180  174.7260  144.3670 C   0  0  0  0  0  2  0  0  0  0  0  0
  197.0220  173.9250  145.6480 C   0  0  0  0  0  1  0  0  0  0  0  0
  1  2  1  0  0  0  0
  1  3  2  0  0  0  0
  2  8  1  0  0  0  0
  4 13  1  0  0  0  0
  4 17  1  0  0  0  0
  5 11  1  0  0  0  0
  5  8  2  0  0  0  0
  6  5  1  0  0  0  0
  7 11  1  0  0  0  0
  8 10  1  0  0  0  0
  9 12  1  0  0  0  0
  9  6  2  0  0  0  0
 10 13  2  0  0  0  0
 11  4  2  0  0  0  0
 12  7  2  0  0  0  0
 14 16  2  0  0  0  0
 14 15  1  0  0  0  0
 17 14  1  0  0  0  0
 18 20  1  0  0  0  0
 18  1  1  0  0  0  0
 20 19  1  6  0  0  0
 20 21  1  0  0  0  0
 22 31  1  6  0  0  0
 22 23  1  0  0  0  0
 24 26  1  6  0  0  0
 24 23  1  0  0  0  0
 24 27  1  0  0  0  0
 25 27  1  0  0  0  0
 27 30  1  6  0  0  0
 28 21  1  6  0  0  0
 28 26  1  0  0  0  0
 28 22  1  0  0  0  0
 28 25  1  0  0  0  0
 30 29  1  0  0  0  0
 32 31  1  0  0  0  0
 32 33  1  0  0  0  0
M  END
>  <MODEL>
3

>  <REMARK>
 VINA RESULT:      -6.8      3.017      8.206
  Name = 
  9 active torsions:
  status: ('A' for Active; 'I' for Inactive)
    1  A    between atoms: C_1  and  O_9
    2  A    between atoms: C_2  and  O_9
    3  A    between atoms: C_4  and  S_32
    4  A    between atoms: C_5  and  N_25
    5  A    between atoms: C_15  and  N_29
    6  A    between atoms: C_16  and  C_20
    7  A    between atoms: C_16  and  C_28
    8  A    between atoms: C_20  and  S_32
    9  A    between atoms: C_26  and  C_27
                            x       y       z     vdW  Elec       q    Type
                         _______ _______ _______ _____ _____    ______ ____

>  <TORSDO>
F 9

$$$$
=
 OpenBabel11062418533D

 33 36  0  0  1  0  0  0  0  0999 V2000
  190.4660  172.2630  144.2340 C   0  0  0  0  0  0  0  0  0  0  0  0
  190.8470  173.4590  144.9240 N   0  0  0  0  0  2  0  0  0  0  0  0
  189.2540  171.9560  144.0740 O   0  0  0  0  0  0  0  0  0  0  0  0
  188.2170  176.4290  146.4830 C   0  0  0  0  0  0  0  0  0  0  0  0
  189.6640  175.5970  144.6930 C   0  0  0  0  0  0  0  0  0  0  0  0
  190.2180  175.7610  143.4610 N   0  0  0  0  0  0  0  0  0  0  0  0
  188.5690  177.7240  144.4200 C   0  0  0  0  0  3  0  0  0  0  0  0
  189.9680  174.4610  145.4610 C   0  0  0  0  0  0  0  0  0  0  0  0
  189.9640  176.8680  142.7180 C   0  0  0  0  0  3  0  0  0  0  0  0
  189.4140  174.3350  146.7420 C   0  0  0  0  0  3  0  0  0  0  0  0
  188.7940  176.5880  145.2040 C   0  0  0  0  0  0  0  0  0  0  0  0
  189.1500  177.8410  143.1990 N   0  0  0  0  0  0  0  0  0  0  0  0
  188.5550  175.3110  147.2480 C   0  0  0  0  0  3  0  0  0  0  0  0
  185.9440  177.5420  146.7730 C   0  0  0  0  0  0  0  0  0  0  0  0
  185.2040  178.7140  147.3100 C   0  0  0  0  0  1  0  0  0  0  0  0
  185.2850  176.5750  146.2230 N   0  0  0  0  0  2  0  0  0  0  0  0
  187.3380  177.4040  147.0640 N   0  0  0  0  0  2  0  0  0  0  0  0
  191.7360  171.1830  143.5860 S   0  0  0  0  0  0  0  0  0  0  0  0
  192.8940  173.0780  141.9960 C   0  0  0  0  0  1  0  0  0  0  0  0
  192.9330  172.5380  143.4130 C   0  0  2  0  0  3  0  0  0  0  0  0
  194.3290  172.0170  143.7220 C   0  0  0  0  0  2  0  0  0  0  0  0
  196.0700  172.2140  145.6360 C   0  0  1  0  0  3  0  0  0  0  0  0
  197.0100  173.3600  146.0330 C   0  0  0  0  0  2  0  0  0  0  0  0
  196.4460  174.5710  145.2840 C   0  0  1  0  0  3  0  0  0  0  0  0
  194.1750  173.8240  145.5380 C   0  0  0  0  0  2  0  0  0  0  0  0
  195.9540  173.9260  144.0150 C   0  0  0  0  0  2  0  0  0  0  0  0
  195.1310  174.9360  145.9830 C   0  0  2  0  0  3  0  0  0  0  0  0
  195.0790  172.9220  144.7000 C   0  0  2  0  0  0  0  0  0  0  0  0
  193.3690  176.1600  144.9340 O   0  0  0  0  0  1  0  0  0  0  0  0
  194.6320  176.2930  145.5100 C   0  0  0  0  0  2  0  0  0  0  0  0
  196.8000  171.2410  144.9450 O   0  0  0  0  0  0  0  0  0  0  0  0
  197.0880  170.2630  145.8980 C   0  0  0  0  0  2  0  0  0  0  0  0
  195.8010  169.7990  146.5460 C   0  0  0  0  0  1  0  0  0  0  0  0
  1  2  1  0  0  0  0
  2  8  1  0  0  0  0
  3  1  2  0  0  0  0
  4 17  1  0  0  0  0
  4 13  1  0  0  0  0
  5 11  1  0  0  0  0
  5  8  2  0  0  0  0
  6  5  1  0  0  0  0
  7 11  1  0  0  0  0
  8 10  1  0  0  0  0
  9 12  1  0  0  0  0
  9  6  2  0  0  0  0
 10 13  2  0  0  0  0
 11  4  2  0  0  0  0
 12  7  2  0  0  0  0
 14 17  1  0  0  0  0
 14 15  1  0  0  0  0
 16 14  2  0  0  0  0
 18  1  1  0  0  0  0
 20 19  1  6  0  0  0
 20 18  1  0  0  0  0
 20 21  1  0  0  0  0
 22 31  1  6  0  0  0
 22 23  1  0  0  0  0
 24 26  1  6  0  0  0
 24 27  1  0  0  0  0
 24 23  1  0  0  0  0
 25 27  1  0  0  0  0
 26 28  1  0  0  0  0
 27 30  1  6  0  0  0
 28 21  1  6  0  0  0
 28 25  1  0  0  0  0
 28 22  1  0  0  0  0
 29 30  1  0  0  0  0
 31 32  1  0  0  0  0
 32 33  1  0  0  0  0
M  END
>  <MODEL>
4

>  <REMARK>
 VINA RESULT:      -6.6      3.624      8.666
  Name = 
  9 active torsions:
  status: ('A' for Active; 'I' for Inactive)
    1  A    between atoms: C_1  and  O_9
    2  A    between atoms: C_2  and  O_9
    3  A    between atoms: C_4  and  S_32
    4  A    between atoms: C_5  and  N_25
    5  A    between atoms: C_15  and  N_29
    6  A    between atoms: C_16  and  C_20
    7  A    between atoms: C_16  and  C_28
    8  A    between atoms: C_20  and  S_32
    9  A    between atoms: C_26  and  C_27
                            x       y       z     vdW  Elec       q    Type
                         _______ _______ _______ _____ _____    ______ ____

>  <TORSDO>
F 9

$$$$
=
 OpenBabel11062418533D

 33 36  0  0  1  0  0  0  0  0999 V2000
  190.0960  177.4280  142.5770 C   0  0  0  0  0  0  0  0  0  0  0  0
  190.5410  176.0790  142.3930 N   0  0  0  0  0  2  0  0  0  0  0  0
  190.8180  178.2820  143.1590 O   0  0  0  0  0  0  0  0  0  0  0  0
  194.3150  174.4250  143.4840 C   0  0  0  0  0  0  0  0  0  0  0  0
  191.8740  174.2700  143.3780 C   0  0  0  0  0  0  0  0  0  0  0  0
  190.7300  173.5800  143.6370 N   0  0  0  0  0  0  0  0  0  0  0  0
  193.1180  172.4790  144.3990 C   0  0  0  0  0  3  0  0  0  0  0  0
  191.8160  175.5330  142.7670 C   0  0  0  0  0  0  0  0  0  0  0  0
  190.7630  172.3730  144.2570 C   0  0  0  0  0  3  0  0  0  0  0  0
  193.0060  176.2400  142.5460 C   0  0  0  0  0  3  0  0  0  0  0  0
  193.1220  173.7150  143.7450 C   0  0  0  0  0  0  0  0  0  0  0  0
  191.9480  171.8330  144.6380 N   0  0  0  0  0  0  0  0  0  0  0  0
  194.2380  175.6950  142.9070 C   0  0  0  0  0  3  0  0  0  0  0  0
  196.3140  174.2350  145.0510 C   0  0  0  0  0  0  0  0  0  0  0  0
  197.7240  173.7900  145.2010 C   0  0  0  0  0  1  0  0  0  0  0  0
  195.6910  174.7190  146.0740 N   0  0  0  0  0  2  0  0  0  0  0  0
  195.6100  173.9230  143.8450 N   0  0  0  0  0  2  0  0  0  0  0  0
  188.4850  177.9110  141.9700 S   0  0  0  0  0  0  0  0  0  0  0  0
  186.1400  176.9990  143.0350 C   0  0  0  0  0  1  0  0  0  0  0  0
  187.6200  177.1100  143.3520 C   0  0  2  0  0  3  0  0  0  0  0  0
  187.8100  177.9410  144.6120 C   0  0  0  0  0  2  0  0  0  0  0  0
  187.2560  176.9480  146.9440 C   0  0  1  0  0  3  0  0  0  0  0  0
  187.7380  175.6660  147.6380 C   0  0  0  0  0  2  0  0  0  0  0  0
  188.9570  175.2410  146.8130 C   0  0  1  0  0  3  0  0  0  0  0  0
  189.6140  177.5140  146.3880 C   0  0  0  0  0  2  0  0  0  0  0  0
  188.5350  175.6660  145.4310 C   0  0  0  0  0  2  0  0  0  0  0  0
  190.0660  176.2520  147.1300 C   0  0  2  0  0  3  0  0  0  0  0  0
  188.2680  177.0930  145.7990 C   0  0  2  0  0  0  0  0  0  0  0  0
  192.0370  176.7910  145.8930 O   0  0  0  0  0  1  0  0  0  0  0  0
  191.4030  175.7650  146.5940 C   0  0  0  0  0  2  0  0  0  0  0  0
  185.9650  176.7400  146.4460 O   0  0  0  0  0  0  0  0  0  0  0  0
  185.1760  177.7010  147.0800 C   0  0  0  0  0  2  0  0  0  0  0  0
  184.3530  178.4370  146.0450 C   0  0  0  0  0  1  0  0  0  0  0  0
  1  3  2  0  0  0  0
  2  1  1  0  0  0  0
  2  8  1  0  0  0  0
  4 11  1  0  0  0  0
  4 17  1  0  0  0  0
  5  6  2  0  0  0  0
  5 11  1  0  0  0  0
  6  9  1  0  0  0  0
  7 12  1  0  0  0  0
  8  5  1  0  0  0  0
  9 12  2  0  0  0  0
 10  8  2  0  0  0  0
 10 13  1  0  0  0  0
 11  7  2  0  0  0  0
 13  4  2  0  0  0  0
 14 15  1  0  0  0  0
 14 16  2  0  0  0  0
 17 14  1  0  0  0  0
 18  1  1  0  0  0  0
 18 20  1  0  0  0  0
 20 19  1  6  0  0  0
 20 21  1  0  0  0  0
 22 31  1  6  0  0  0
 22 23  1  0  0  0  0
 24 26  1  6  0  0  0
 24 27  1  0  0  0  0
 24 23  1  0  0  0  0
 25 27  1  0  0  0  0
 26 28  1  0  0  0  0
 27 30  1  6  0  0  0
 28 21  1  6  0  0  0
 28 25  1  0  0  0  0
 28 22  1  0  0  0  0
 29 30  1  0  0  0  0
 31 32  1  0  0  0  0
 33 32  1  0  0  0  0
M  END
>  <MODEL>
5

>  <REMARK>
 VINA RESULT:      -6.4      2.479      4.597
  Name = 
  9 active torsions:
  status: ('A' for Active; 'I' for Inactive)
    1  A    between atoms: C_1  and  O_9
    2  A    between atoms: C_2  and  O_9
    3  A    between atoms: C_4  and  S_32
    4  A    between atoms: C_5  and  N_25
    5  A    between atoms: C_15  and  N_29
    6  A    between atoms: C_16  and  C_20
    7  A    between atoms: C_16  and  C_28
    8  A    between atoms: C_20  and  S_32
    9  A    between atoms: C_26  and  C_27
                            x       y       z     vdW  Elec       q    Type
                         _______ _______ _______ _____ _____    ______ ____

>  <TORSDO>
F 9

$$$$
=
 OpenBabel11062418533D

 33 36  0  0  1  0  0  0  0  0999 V2000
  190.0060  176.3550  146.5070 C   0  0  0  0  0  0  0  0  0  0  0  0
  189.3140  177.5210  146.0460 N   0  0  0  0  0  2  0  0  0  0  0  0
  189.5730  175.1970  146.2610 O   0  0  0  0  0  0  0  0  0  0  0  0
  185.7810  177.6610  143.6650 C   0  0  0  0  0  0  0  0  0  0  0  0
  186.8880  177.8300  145.8420 C   0  0  0  0  0  0  0  0  0  0  0  0
  186.8100  178.0340  147.1850 N   0  0  0  0  0  0  0  0  0  0  0  0
  184.4990  178.0990  145.7190 C   0  0  0  0  0  3  0  0  0  0  0  0
  188.1260  177.5560  145.2380 C   0  0  0  0  0  0  0  0  0  0  0  0
  185.6180  178.2660  147.7920 C   0  0  0  0  0  3  0  0  0  0  0  0
  188.1750  177.3110  143.8590 C   0  0  0  0  0  3  0  0  0  0  0  0
  185.7110  177.8760  145.0590 C   0  0  0  0  0  0  0  0  0  0  0  0
  184.4740  178.2930  147.0630 N   0  0  0  0  0  0  0  0  0  0  0  0
  187.0150  177.3570  143.0850 C   0  0  0  0  0  3  0  0  0  0  0  0
  184.5890  178.1580  141.4690 C   0  0  0  0  0  0  0  0  0  0  0  0
  183.2790  178.2890  140.7800 C   0  0  0  0  0  1  0  0  0  0  0  0
  185.6790  178.2880  140.7870 N   0  0  0  0  0  2  0  0  0  0  0  0
  184.6220  177.6810  142.8180 N   0  0  0  0  0  2  0  0  0  0  0  0
  191.5130  176.5450  147.4500 S   0  0  0  0  0  0  0  0  0  0  0  0
  193.9910  175.8050  146.5720 C   0  0  0  0  0  1  0  0  0  0  0  0
  192.5430  175.8530  146.1240 C   0  0  2  0  0  3  0  0  0  0  0  0
  192.4210  176.7280  144.8860 C   0  0  0  0  0  2  0  0  0  0  0  0
  193.5190  175.9670  142.6610 C   0  0  1  0  0  3  0  0  0  0  0  0
  193.3580  174.6780  141.8430 C   0  0  0  0  0  2  0  0  0  0  0  0
  192.0860  174.0410  142.4120 C   0  0  1  0  0  3  0  0  0  0  0  0
  191.0420  176.1720  142.7920 C   0  0  0  0  0  2  0  0  0  0  0  0
  192.1890  174.4310  143.8630 C   0  0  0  0  0  2  0  0  0  0  0  0
  190.9180  174.9100  141.9330 C   0  0  2  0  0  3  0  0  0  0  0  0
  192.3090  175.9010  143.6040 C   0  0  2  0  0  0  0  0  0  0  0  0
  188.6330  174.6580  141.2840 O   0  0  0  0  0  1  0  0  0  0  0  0
  189.5910  174.2140  142.1940 C   0  0  0  0  0  2  0  0  0  0  0  0
  194.7160  175.9050  143.3820 O   0  0  0  0  0  0  0  0  0  0  0  0
  195.7160  176.1530  142.4410 C   0  0  0  0  0  2  0  0  0  0  0  0
  196.9050  176.7910  143.1270 C   0  0  0  0  0  1  0  0  0  0  0  0
  1 18  1  0  0  0  0
  2  1  1  0  0  0  0
  3  1  2  0  0  0  0
  4 11  1  0  0  0  0
  5  6  1  0  0  0  0
  6  9  2  0  0  0  0
  7 12  2  0  0  0  0
  8  5  1  0  0  0  0
  8  2  1  0  0  0  0
 10  8  2  0  0  0  0
 11  7  1  0  0  0  0
 11  5  2  0  0  0  0
 12  9  1  0  0  0  0
 13  4  2  0  0  0  0
 13 10  1  0  0  0  0
 14 17  1  0  0  0  0
 15 14  1  0  0  0  0
 16 14  2  0  0  0  0
 17  4  1  0  0  0  0
 20 19  1  1  0  0  0
 20 18  1  0  0  0  0
 21 20  1  0  0  0  0
 22 31  1  1  0  0  0
 22 28  1  0  0  0  0
 23 22  1  0  0  0  0
 24 23  1  6  0  0  0
 24 26  1  0  0  0  0
 25 28  1  0  0  0  0
 27 30  1  1  0  0  0
 27 24  1  0  0  0  0
 27 25  1  0  0  0  0
 28 26  1  0  0  0  0
 28 21  1  1  0  0  0
 29 30  1  0  0  0  0
 32 33  1  0  0  0  0
 32 31  1  0  0  0  0
M  END
>  <MODEL>
6

>  <REMARK>
 VINA RESULT:      -6.3      2.751      7.664
  Name = 
  9 active torsions:
  status: ('A' for Active; 'I' for Inactive)
    1  A    between atoms: C_1  and  O_9
    2  A    between atoms: C_2  and  O_9
    3  A    between atoms: C_4  and  S_32
    4  A    between atoms: C_5  and  N_25
    5  A    between atoms: C_15  and  N_29
    6  A    between atoms: C_16  and  C_20
    7  A    between atoms: C_16  and  C_28
    8  A    between atoms: C_20  and  S_32
    9  A    between atoms: C_26  and  C_27
                            x       y       z     vdW  Elec       q    Type
                         _______ _______ _______ _____ _____    ______ ____

>  <TORSDO>
F 9

$$$$
=
 OpenBabel11062418533D

 33 36  0  0  1  0  0  0  0  0999 V2000
  191.3460  174.9330  142.2570 C   0  0  0  0  0  0  0  0  0  0  0  0
  190.0220  174.6640  142.7330 N   0  0  0  0  0  2  0  0  0  0  0  0
  191.9420  176.0040  142.5490 O   0  0  0  0  0  0  0  0  0  0  0  0
  187.6510  177.1120  145.2940 C   0  0  0  0  0  0  0  0  0  0  0  0
  188.3480  176.4320  143.0490 C   0  0  0  0  0  0  0  0  0  0  0  0
  188.2570  176.5740  141.6980 N   0  0  0  0  0  0  0  0  0  0  0  0
  186.7360  178.2040  143.2870 C   0  0  0  0  0  3  0  0  0  0  0  0
  189.2340  175.4930  143.6030 C   0  0  0  0  0  0  0  0  0  0  0  0
  187.4320  177.4990  141.1430 C   0  0  0  0  0  3  0  0  0  0  0  0
  189.3370  175.3930  144.9970 C   0  0  0  0  0  3  0  0  0  0  0  0
  187.5600  177.2490  143.8920 C   0  0  0  0  0  0  0  0  0  0  0  0
  186.6840  178.3080  141.9350 N   0  0  0  0  0  0  0  0  0  0  0  0
  188.5600  176.1970  145.8310 C   0  0  0  0  0  3  0  0  0  0  0  0
  185.5530  177.6450  146.6370 C   0  0  0  0  0  0  0  0  0  0  0  0
  184.8250  178.6670  147.4330 C   0  0  0  0  0  1  0  0  0  0  0  0
  185.0490  176.4600  146.5170 N   0  0  0  0  0  2  0  0  0  0  0  0
  186.8890  177.9200  146.2030 N   0  0  0  0  0  2  0  0  0  0  0  0
  192.1700  173.7230  141.2300 S   0  0  0  0  0  0  0  0  0  0  0  0
  194.8950  173.7050  141.0460 C   0  0  0  0  0  1  0  0  0  0  0  0
  193.7770  174.0010  142.0290 C   0  0  2  0  0  3  0  0  0  0  0  0
  193.9030  173.0830  143.2350 C   0  0  0  0  0  2  0  0  0  0  0  0
  195.4480  173.2800  145.3110 C   0  0  1  0  0  3  0  0  0  0  0  0
  195.9050  174.5020  146.1190 C   0  0  0  0  0  2  0  0  0  0  0  0
  194.9390  175.6090  145.6840 C   0  0  1  0  0  3  0  0  0  0  0  0
  193.0970  174.0810  145.4590 C   0  0  0  0  0  2  0  0  0  0  0  0
  194.7200  175.2520  144.2370 C   0  0  0  0  0  2  0  0  0  0  0  0
  193.5800  175.2640  146.3050 C   0  0  2  0  0  3  0  0  0  0  0  0
  194.2700  173.8490  144.5070 C   0  0  2  0  0  0  0  0  0  0  0  0
  191.8720  176.5670  147.3490 O   0  0  0  0  0  1  0  0  0  0  0  0
  192.6220  176.4380  146.1800 C   0  0  0  0  0  2  0  0  0  0  0  0
  196.4850  172.8800  144.4610 O   0  0  0  0  0  0  0  0  0  0  0  0
  197.1340  171.8510  145.1450 C   0  0  0  0  0  2  0  0  0  0  0  0
  196.1040  170.9080  145.7290 C   0  0  0  0  0  1  0  0  0  0  0  0
  1  3  2  0  0  0  0
  1  2  1  0  0  0  0
  2  8  1  0  0  0  0
  4 13  1  0  0  0  0
  4 17  1  0  0  0  0
  5  8  2  0  0  0  0
  5 11  1  0  0  0  0
  6  5  1  0  0  0  0
  7 11  1  0  0  0  0
  8 10  1  0  0  0  0
  9  6  2  0  0  0  0
  9 12  1  0  0  0  0
 10 13  2  0  0  0  0
 11  4  2  0  0  0  0
 12  7  2  0  0  0  0
 14 15  1  0  0  0  0
 16 14  2  0  0  0  0
 17 14  1  0  0  0  0
 18 20  1  0  0  0  0
 18  1  1  0  0  0  0
 20 19  1  6  0  0  0
 20 21  1  0  0  0  0
 22 31  1  6  0  0  0
 22 23  1  0  0  0  0
 24 26  1  6  0  0  0
 24 23  1  0  0  0  0
 24 27  1  0  0  0  0
 25 27  1  0  0  0  0
 26 28  1  0  0  0  0
 27 30  1  6  0  0  0
 28 21  1  6  0  0  0
 28 22  1  0  0  0  0
 28 25  1  0  0  0  0
 30 29  1  0  0  0  0
 31 32  1  0  0  0  0
 32 33  1  0  0  0  0
M  END
>  <MODEL>
7

>  <REMARK>
 VINA RESULT:      -6.3      3.230      8.503
  Name = 
  9 active torsions:
  status: ('A' for Active; 'I' for Inactive)
    1  A    between atoms: C_1  and  O_9
    2  A    between atoms: C_2  and  O_9
    3  A    between atoms: C_4  and  S_32
    4  A    between atoms: C_5  and  N_25
    5  A    between atoms: C_15  and  N_29
    6  A    between atoms: C_16  and  C_20
    7  A    between atoms: C_16  and  C_28
    8  A    between atoms: C_20  and  S_32
    9  A    between atoms: C_26  and  C_27
                            x       y       z     vdW  Elec       q    Type
                         _______ _______ _______ _____ _____    ______ ____

>  <TORSDO>
F 9

$$$$
=
 OpenBabel11062418533D

 33 36  0  0  1  0  0  0  0  0999 V2000
  190.4190  172.7260  144.5510 C   0  0  0  0  0  0  0  0  0  0  0  0
  190.5420  174.1530  144.5210 N   0  0  0  0  0  2  0  0  0  0  0  0
  189.3290  172.1690  144.8480 O   0  0  0  0  0  0  0  0  0  0  0  0
  187.4200  176.9760  145.1960 C   0  0  0  0  0  0  0  0  0  0  0  0
  188.7020  175.5440  143.6810 C   0  0  0  0  0  0  0  0  0  0  0  0
  188.9360  175.0770  142.4240 N   0  0  0  0  0  0  0  0  0  0  0  0
  186.9410  176.9180  142.7820 C   0  0  0  0  0  3  0  0  0  0  0  0
  189.4980  175.1130  144.7550 C   0  0  0  0  0  0  0  0  0  0  0  0
  188.2000  175.5070  141.3670 C   0  0  0  0  0  3  0  0  0  0  0  0
  189.2630  175.6380  146.0330 C   0  0  0  0  0  3  0  0  0  0  0  0
  187.6660  176.4820  143.8960 C   0  0  0  0  0  0  0  0  0  0  0  0
  187.2160  176.4240  141.5480 N   0  0  0  0  0  0  0  0  0  0  0  0
  188.2410  176.5630  146.2480 C   0  0  0  0  0  3  0  0  0  0  0  0
  185.0810  177.6340  145.9610 C   0  0  0  0  0  0  0  0  0  0  0  0
  184.0660  178.7170  146.0300 C   0  0  0  0  0  1  0  0  0  0  0  0
  184.8280  176.4940  146.5140 N   0  0  0  0  0  2  0  0  0  0  0  0
  186.3930  177.9390  145.4780 N   0  0  0  0  0  2  0  0  0  0  0  0
  191.8420  171.7160  144.1600 S   0  0  0  0  0  0  0  0  0  0  0  0
  192.5010  172.7800  141.7330 C   0  0  0  0  0  1  0  0  0  0  0  0
  192.6460  173.0450  143.2200 C   0  0  2  0  0  3  0  0  0  0  0  0
  194.1220  173.0970  143.5860 C   0  0  0  0  0  2  0  0  0  0  0  0
  195.9170  174.9390  143.9270 C   0  0  1  0  0  3  0  0  0  0  0  0
  195.7830  176.4400  144.2210 C   0  0  0  0  0  2  0  0  0  0  0  0
  194.3270  176.5950  144.6680 C   0  0  1  0  0  3  0  0  0  0  0  0
  194.3040  174.4530  145.7580 C   0  0  0  0  0  2  0  0  0  0  0  0
  193.6460  175.5670  143.8030 C   0  0  0  0  0  2  0  0  0  0  0  0
  194.2310  175.9540  146.0570 C   0  0  2  0  0  3  0  0  0  0  0  0
  194.5060  174.4230  144.2440 C   0  0  2  0  0  0  0  0  0  0  0  0
  192.3220  175.1560  147.2500 O   0  0  0  0  0  1  0  0  0  0  0  0
  192.9060  176.3040  146.7180 C   0  0  0  0  0  2  0  0  0  0  0  0
  196.2200  174.7630  142.5720 O   0  0  0  0  0  0  0  0  0  0  0  0
  197.0760  175.8190  142.2550 C   0  0  0  0  0  2  0  0  0  0  0  0
  197.3810  175.7900  140.7720 C   0  0  0  0  0  1  0  0  0  0  0  0
  1  3  2  0  0  0  0
  2  1  1  0  0  0  0
  2  8  1  0  0  0  0
  4 17  1  0  0  0  0
  4 13  1  0  0  0  0
  5 11  1  0  0  0  0
  5  8  2  0  0  0  0
  6  5  1  0  0  0  0
  7 11  1  0  0  0  0
  8 10  1  0  0  0  0
  9 12  1  0  0  0  0
  9  6  2  0  0  0  0
 10 13  2  0  0  0  0
 11  4  2  0  0  0  0
 12  7  2  0  0  0  0
 14 15  1  0  0  0  0
 14 16  2  0  0  0  0
 17 14  1  0  0  0  0
 18  1  1  0  0  0  0
 20 19  1  6  0  0  0
 20 21  1  0  0  0  0
 20 18  1  0  0  0  0
 22 31  1  6  0  0  0
 22 23  1  0  0  0  0
 22 28  1  0  0  0  0
 23 24  1  0  0  0  0
 24 26  1  6  0  0  0
 24 27  1  0  0  0  0
 25 27  1  0  0  0  0
 26 28  1  0  0  0  0
 27 30  1  6  0  0  0
 28 21  1  6  0  0  0
 28 25  1  0  0  0  0
 30 29  1  0  0  0  0
 32 31  1  0  0  0  0
 33 32  1  0  0  0  0
M  END
>  <MODEL>
8

>  <REMARK>
 VINA RESULT:      -6.2      3.382      8.101
  Name = 
  9 active torsions:
  status: ('A' for Active; 'I' for Inactive)
    1  A    between atoms: C_1  and  O_9
    2  A    between atoms: C_2  and  O_9
    3  A    between atoms: C_4  and  S_32
    4  A    between atoms: C_5  and  N_25
    5  A    between atoms: C_15  and  N_29
    6  A    between atoms: C_16  and  C_20
    7  A    between atoms: C_16  and  C_28
    8  A    between atoms: C_20  and  S_32
    9  A    between atoms: C_26  and  C_27
                            x       y       z     vdW  Elec       q    Type
                         _______ _______ _______ _____ _____    ______ ____

>  <TORSDO>
F 9

$$$$
=
 OpenBabel11062418533D

 33 36  0  0  1  0  0  0  0  0999 V2000
  192.1630  176.5550  144.0900 C   0  0  0  0  0  0  0  0  0  0  0  0
  191.1950  177.5830  144.3290 N   0  0  0  0  0  2  0  0  0  0  0  0
  191.8630  175.5050  143.4610 O   0  0  0  0  0  0  0  0  0  0  0  0
  187.1410  177.6710  143.0140 C   0  0  0  0  0  0  0  0  0  0  0  0
  188.8040  177.2280  144.7540 C   0  0  0  0  0  0  0  0  0  0  0  0
  189.0980  176.8200  146.0190 N   0  0  0  0  0  0  0  0  0  0  0  0
  186.4790  176.8160  145.2240 C   0  0  0  0  0  3  0  0  0  0  0  0
  189.8320  177.6050  143.8750 C   0  0  0  0  0  0  0  0  0  0  0  0
  188.1220  176.4190  146.8730 C   0  0  0  0  0  3  0  0  0  0  0  0
  189.5050  177.9850  142.5660 C   0  0  0  0  0  3  0  0  0  0  0  0
  187.4570  177.2530  144.3250 C   0  0  0  0  0  0  0  0  0  0  0  0
  186.8260  176.4140  146.4740 N   0  0  0  0  0  0  0  0  0  0  0  0
  188.1770  178.0100  142.1400 C   0  0  0  0  0  3  0  0  0  0  0  0
  184.7650  178.5880  142.9650 C   0  0  0  0  0  0  0  0  0  0  0  0
  183.3740  178.3820  142.4850 C   0  0  0  0  0  1  0  0  0  0  0  0
  185.0560  179.6640  143.6190 N   0  0  0  0  0  2  0  0  0  0  0  0
  185.7960  177.7050  142.5130 N   0  0  0  0  0  2  0  0  0  0  0  0
  193.8330  176.7660  144.6970 S   0  0  0  0  0  0  0  0  0  0  0  0
  192.8090  175.2440  146.7200 C   0  0  0  0  0  1  0  0  0  0  0  0
  193.8120  175.1820  145.5840 C   0  0  2  0  0  3  0  0  0  0  0  0
  195.1980  174.9010  146.1430 C   0  0  0  0  0  2  0  0  0  0  0  0
  196.4780  174.0140  144.0680 C   0  0  1  0  0  3  0  0  0  0  0  0
  197.5090  172.8860  143.9210 C   0  0  0  0  0  2  0  0  0  0  0  0
  197.3650  172.0900  145.2220 C   0  0  1  0  0  3  0  0  0  0  0  0
  194.9950  172.4720  145.3380 C   0  0  0  0  0  2  0  0  0  0  0  0
  197.0530  173.1890  146.2030 C   0  0  0  0  0  2  0  0  0  0  0  0
  196.0230  171.3540  145.1320 C   0  0  2  0  0  3  0  0  0  0  0  0
  195.8730  173.7180  145.4470 C   0  0  2  0  0  0  0  0  0  0  0  0
  196.9770  169.4190  146.1570 O   0  0  0  0  0  1  0  0  0  0  0  0
  195.9090  170.3120  146.2340 C   0  0  0  0  0  2  0  0  0  0  0  0
  197.1440  175.2450  144.0690 O   0  0  0  0  0  0  0  0  0  0  0  0
  197.4180  175.5060  142.7250 C   0  0  0  0  0  2  0  0  0  0  0  0
  196.1170  175.5960  141.9560 C   0  0  0  0  0  1  0  0  0  0  0  0
  1  2  1  0  0  0  0
  1 18  1  0  0  0  0
  3  1  2  0  0  0  0
  4 11  1  0  0  0  0
  5  6  1  0  0  0  0
  6  9  2  0  0  0  0
  7 12  2  0  0  0  0
  8  2  1  0  0  0  0
  8  5  1  0  0  0  0
 10  8  2  0  0  0  0
 11  5  2  0  0  0  0
 11  7  1  0  0  0  0
 12  9  1  0  0  0  0
 13 10  1  0  0  0  0
 13  4  2  0  0  0  0
 14 16  2  0  0  0  0
 15 14  1  0  0  0  0
 17 14  1  0  0  0  0
 17  4  1  0  0  0  0
 18 20  1  0  0  0  0
 20 21  1  0  0  0  0
 20 19  1  1  0  0  0
 22 31  1  1  0  0  0
 22 28  1  0  0  0  0
 23 22  1  0  0  0  0
 24 23  1  6  0  0  0
 24 26  1  0  0  0  0
 25 28  1  0  0  0  0
 27 24  1  0  0  0  0
 27 25  1  0  0  0  0
 27 30  1  1  0  0  0
 28 21  1  1  0  0  0
 28 26  1  0  0  0  0
 29 30  1  0  0  0  0
 32 31  1  0  0  0  0
 33 32  1  0  0  0  0
M  END
>  <MODEL>
9

>  <REMARK>
 VINA RESULT:      -6.2      3.475      9.129
  Name = 
  9 active torsions:
  status: ('A' for Active; 'I' for Inactive)
    1  A    between atoms: C_1  and  O_9
    2  A    between atoms: C_2  and  O_9
    3  A    between atoms: C_4  and  S_32
    4  A    between atoms: C_5  and  N_25
    5  A    between atoms: C_15  and  N_29
    6  A    between atoms: C_16  and  C_20
    7  A    between atoms: C_16  and  C_28
    8  A    between atoms: C_20  and  S_32
    9  A    between atoms: C_26  and  C_27
                            x       y       z     vdW  Elec       q    Type
                         _______ _______ _______ _____ _____    ______ ____

>  <TORSDO>
F 9

$$$$
