=
 OpenBabel11062422253D

 36 37  0  0  1  0  0  0  0  0999 V2000
  190.1440  176.2300  145.1470 C   0  0  1  0  0  0  0  0  0  0  0  0
  190.2550  174.8340  145.1210 O   0  0  0  0  0  1  0  0  0  0  0  0
  189.3590  176.6900  143.9110 C   0  0  1  0  0  3  0  0  0  0  0  0
  190.1940  177.6050  143.0240 C   0  0  0  0  0  1  0  0  0  0  0  0
  188.9040  175.5700  143.1640 O   0  0  0  0  0  0  0  0  0  0  0  0
  190.2560  173.5990  140.3030 C   0  0  0  0  0  1  0  0  0  0  0  0
  189.5510  173.9380  141.5730 C   0  0  0  0  0  0  0  0  0  0  0  0
  189.5340  175.2050  141.9750 C   0  0  0  0  0  3  0  0  0  0  0  0
  189.6330  171.6790  142.2870 O   0  0  0  0  0  1  0  0  0  0  0  0
  188.9050  172.8640  142.3900 C   0  0  2  0  0  3  0  0  0  0  0  0
  187.4720  172.6310  141.9460 C   0  0  0  0  0  1  0  0  0  0  0  0
  189.4420  176.6630  146.3630 N   0  0  0  0  0  2  0  0  0  0  0  0
  188.4190  175.6970  146.7530 C   0  0  0  0  0  2  0  0  0  0  0  0
  187.2520  176.3820  147.1940 O   0  0  0  0  0  0  0  0  0  0  0  0
  186.3110  176.8610  146.3050 N   0  0  0  0  0  0  0  0  0  0  0  0
  186.2140  178.1020  146.0430 N   0  0  0  0  0  0  0  0  0  0  0  0
  185.7200  179.6990  144.4380 F   0  0  0  0  0  0  0  0  0  0  0  0
  185.2190  178.5930  145.1020 C   0  0  0  0  0  0  0  0  0  0  0  0
  184.0660  178.9560  145.7780 F   0  0  0  0  0  0  0  0  0  0  0  0
  184.9240  177.5820  144.1420 O   0  0  0  0  0  0  0  0  0  0  0  0
  184.8400  177.8170  142.7660 C   0  0  0  0  0  0  0  0  0  0  0  0
  185.3100  177.8710  140.4890 N   0  0  0  0  0  0  0  0  0  0  0  0
  185.8930  177.5110  141.7800 C   0  0  0  0  0  3  0  0  0  0  0  0
  183.7930  178.3250  142.2330 N   0  0  0  0  0  0  0  0  0  0  0  0
  182.9600  177.7300  140.0920 N   0  0  0  0  0  1  0  0  0  0  0  0
  184.0000  178.4530  140.8020 C   0  0  2  0  0  3  0  0  0  0  0  0
  191.5460  176.8460  145.1070 C   0  0  0  0  0  2  0  0  0  0  0  0
  192.5270  175.8510  145.1040 O   0  0  0  0  0  0  0  0  0  0  0  0
  194.3200  177.2590  144.9190 O   0  0  0  0  0  0  0  0  0  0  0  0
  194.8720  175.9830  144.7190 C   0  0  1  0  0  0  0  0  0  0  0  0
  193.5100  176.3260  144.2370 C   0  0  1  0  0  3  0  0  0  0  0  0
  196.1730  174.9430  142.8580 O   0  0  0  0  0  0  0  0  0  0  0  0
  195.9800  176.0150  143.7190 C   0  0  0  0  0  0  0  0  0  0  0  0
  196.7160  177.0320  143.6260 O   0  0  0  0  0  1  0  0  0  0  0  0
  196.1940  174.4190  145.9530 O   0  0  0  0  0  1  0  0  0  0  0  0
  195.0690  175.2410  146.0360 C   0  0  0  0  0  2  0  0  0  0  0  0
  1  2  1  6  0  0  0
  1 12  1  0  0  0  0
  3  4  1  6  0  0  0
  3  1  1  0  0  0  0
  5  3  1  0  0  0  0
  6  7  1  0  0  0  0
  7  8  2  0  0  0  0
  7 10  1  0  0  0  0
  8  5  1  0  0  0  0
  9 10  1  0  0  0  0
 10 11  1  6  0  0  0
 12 13  1  0  0  0  0
 13 14  1  0  0  0  0
 15 14  1  0  0  0  0
 16 15  2  0  0  0  0
 17 18  1  0  0  0  0
 18 19  1  0  0  0  0
 18 16  1  0  0  0  0
 20 18  1  0  0  0  0
 21 20  1  0  0  0  0
 22 26  1  0  0  0  0
 22 23  2  0  0  0  0
 23 21  1  0  0  0  0
 24 21  2  0  0  0  0
 26 25  1  6  0  0  0
 26 24  1  0  0  0  0
 27  1  1  0  0  0  0
 28 27  1  0  0  0  0
 30 29  1  0  0  0  0
 30 36  1  1  0  0  0
 31 30  1  0  0  0  0
 31 29  1  0  0  0  0
 31 28  1  1  0  0  0
 32 33  2  0  0  0  0
 33 30  1  0  0  0  0
 34 33  1  0  0  0  0
 35 36  1  0  0  0  0
M  END
>  <MODEL>
1

>  <REMARK>
 VINA RESULT:      -6.1      0.000      0.000
  Name = 
  16 active torsions:
  status: ('A' for Active; 'I' for Inactive)
    1  A    between atoms: C_5  and  C_25
    2  A    between atoms: C_6  and  C_22
    3  A    between atoms: C_7  and  O_9
    4  A    between atoms: O_9  and  C_20
    5  A    between atoms: O_10  and  C_23
    6  A    between atoms: O_10  and  C_33
    7  A    between atoms: C_11  and  N_15
    8  A    between atoms: C_11  and  O_17
    9  A    between atoms: O_13  and  C_14
   10  A    between atoms: O_13  and  C_36
   11  A    between atoms: C_14  and  C_27
   12  A    between atoms: N_15  and  C_27
   13  A    between atoms: O_17  and  N_21
   14  A    between atoms: C_20  and  N_35
   15  A    between atoms: C_23  and  C_27
   16  A    between atoms: C_24  and  C_25
                            x       y       z     vdW  Elec       q    Type
                         _______ _______ _______ _____ _____    ______ ____

>  <TORSDO>
F 16

$$$$
=
 OpenBabel11062422253D

 36 37  0  0  1  0  0  0  0  0999 V2000
  190.5460  176.5660  145.6720 C   0  0  1  0  0  0  0  0  0  0  0  0
  191.0330  176.8690  146.9490 O   0  0  0  0  0  1  0  0  0  0  0  0
  189.4200  175.5290  145.8020 C   0  0  1  0  0  3  0  0  0  0  0  0
  189.3420  174.9590  147.2130 C   0  0  0  0  0  1  0  0  0  0  0  0
  188.1710  176.1010  145.4380 O   0  0  0  0  0  0  0  0  0  0  0  0
  185.4230  177.8320  147.2680 C   0  0  0  0  0  1  0  0  0  0  0  0
  186.3710  177.4500  146.1810 C   0  0  0  0  0  0  0  0  0  0  0  0
  187.2530  176.4830  146.4150 C   0  0  0  0  0  3  0  0  0  0  0  0
  185.9560  179.4920  145.0520 O   0  0  0  0  0  1  0  0  0  0  0  0
  186.3450  178.1660  144.8680 C   0  0  2  0  0  3  0  0  0  0  0  0
  185.4050  177.4810  143.8930 C   0  0  0  0  0  1  0  0  0  0  0  0
  190.0230  177.7770  145.0240 N   0  0  0  0  0  2  0  0  0  0  0  0
  190.6660  178.0040  143.7330 C   0  0  0  0  0  2  0  0  0  0  0  0
  189.6770  178.1110  142.7150 O   0  0  0  0  0  0  0  0  0  0  0  0
  188.8340  177.0610  142.4080 N   0  0  0  0  0  0  0  0  0  0  0  0
  189.2820  175.8860  142.2100 N   0  0  0  0  0  0  0  0  0  0  0  0
  188.4620  174.5080  140.5370 F   0  0  0  0  0  0  0  0  0  0  0  0
  188.3830  174.7880  141.8890 C   0  0  0  0  0  0  0  0  0  0  0  0
  187.0790  175.1360  142.2040 F   0  0  0  0  0  0  0  0  0  0  0  0
  188.7650  173.6240  142.6180 O   0  0  0  0  0  0  0  0  0  0  0  0
  189.8050  172.7720  142.2320 C   0  0  0  0  0  0  0  0  0  0  0  0
  191.8920  171.7710  142.0170 N   0  0  0  0  0  0  0  0  0  0  0  0
  191.2240  172.9360  142.5940 C   0  0  0  0  0  3  0  0  0  0  0  0
  189.5920  171.7330  141.5150 N   0  0  0  0  0  0  0  0  0  0  0  0
  190.7650  169.6840  141.7490 N   0  0  0  0  0  1  0  0  0  0  0  0
  190.8510  171.0530  141.2740 C   0  0  2  0  0  3  0  0  0  0  0  0
  191.6780  175.9700  144.8290 C   0  0  0  0  0  2  0  0  0  0  0  0
  192.8830  175.9850  145.5360 O   0  0  0  0  0  0  0  0  0  0  0  0
  194.9250  177.0050  145.3670 O   0  0  0  0  0  0  0  0  0  0  0  0
  195.0950  175.7940  144.6740 C   0  0  1  0  0  0  0  0  0  0  0  0
  193.8070  176.5330  144.6460 C   0  0  1  0  0  3  0  0  0  0  0  0
  196.8930  177.0210  143.4500 O   0  0  0  0  0  1  0  0  0  0  0  0
  196.0030  175.9560  143.5020 C   0  0  0  0  0  0  0  0  0  0  0  0
  195.9960  175.1030  142.5760 O   0  0  0  0  0  0  0  0  0  0  0  0
  196.6640  174.3680  145.7780 O   0  0  0  0  0  1  0  0  0  0  0  0
  195.3000  174.6230  145.6290 C   0  0  0  0  0  2  0  0  0  0  0  0
  1  3  1  0  0  0  0
  1  2  1  1  0  0  0
  3  4  1  1  0  0  0
  5  3  1  0  0  0  0
  5  8  1  0  0  0  0
  7  8  2  0  0  0  0
  7  6  1  0  0  0  0
 10 11  1  6  0  0  0
 10  9  1  0  0  0  0
 10  7  1  0  0  0  0
 12  1  1  0  0  0  0
 13 12  1  0  0  0  0
 14 13  1  0  0  0  0
 15 14  1  0  0  0  0
 16 15  2  0  0  0  0
 17 18  1  0  0  0  0
 18 19  1  0  0  0  0
 18 16  1  0  0  0  0
 18 20  1  0  0  0  0
 21 23  1  0  0  0  0
 21 20  1  0  0  0  0
 22 23  2  0  0  0  0
 24 21  2  0  0  0  0
 26 24  1  0  0  0  0
 26 25  1  1  0  0  0
 26 22  1  0  0  0  0
 27 28  1  0  0  0  0
 27  1  1  0  0  0  0
 30 29  1  0  0  0  0
 30 36  1  1  0  0  0
 31 30  1  0  0  0  0
 31 29  1  0  0  0  0
 31 28  1  1  0  0  0
 32 33  1  0  0  0  0
 33 30  1  0  0  0  0
 34 33  2  0  0  0  0
 36 35  1  0  0  0  0
M  END
>  <MODEL>
2

>  <REMARK>
 VINA RESULT:      -6.1      3.109      5.579
  Name = 
  16 active torsions:
  status: ('A' for Active; 'I' for Inactive)
    1  A    between atoms: C_5  and  C_25
    2  A    between atoms: C_6  and  C_22
    3  A    between atoms: C_7  and  O_9
    4  A    between atoms: O_9  and  C_20
    5  A    between atoms: O_10  and  C_23
    6  A    between atoms: O_10  and  C_33
    7  A    between atoms: C_11  and  N_15
    8  A    between atoms: C_11  and  O_17
    9  A    between atoms: O_13  and  C_14
   10  A    between atoms: O_13  and  C_36
   11  A    between atoms: C_14  and  C_27
   12  A    between atoms: N_15  and  C_27
   13  A    between atoms: O_17  and  N_21
   14  A    between atoms: C_20  and  N_35
   15  A    between atoms: C_23  and  C_27
   16  A    between atoms: C_24  and  C_25
                            x       y       z     vdW  Elec       q    Type
                         _______ _______ _______ _____ _____    ______ ____

>  <TORSDO>
F 16

$$$$
=
 OpenBabel11062422253D

 36 37  0  0  1  0  0  0  0  0999 V2000
  191.3230  176.3720  145.0560 C   0  0  1  0  0  0  0  0  0  0  0  0
  191.3630  177.6060  144.3940 O   0  0  0  0  0  1  0  0  0  0  0  0
  192.4750  176.3150  146.0700 C   0  0  1  0  0  3  0  0  0  0  0  0
  192.2080  175.2910  147.1660 C   0  0  0  0  0  1  0  0  0  0  0  0
  193.7010  176.0180  145.4140 O   0  0  0  0  0  0  0  0  0  0  0  0
  196.7030  173.9190  146.1030 C   0  0  0  0  0  1  0  0  0  0  0  0
  195.6820  174.7220  145.3680 C   0  0  0  0  0  0  0  0  0  0  0  0
  194.6890  175.2750  146.0570 C   0  0  0  0  0  3  0  0  0  0  0  0
  196.1730  173.6710  143.3000 O   0  0  0  0  0  1  0  0  0  0  0  0
  195.7640  174.8710  143.8820 C   0  0  2  0  0  3  0  0  0  0  0  0
  196.7210  175.9850  143.4990 C   0  0  0  0  0  1  0  0  0  0  0  0
  190.0420  176.2130  145.7600 N   0  0  0  0  0  2  0  0  0  0  0  0
  189.2910  177.4650  145.7760 C   0  0  0  0  0  2  0  0  0  0  0  0
  188.4590  177.5120  146.9300 O   0  0  0  0  0  0  0  0  0  0  0  0
  187.0910  177.3390  146.8450 N   0  0  0  0  0  0  0  0  0  0  0  0
  186.3860  178.0130  146.0290 N   0  0  0  0  0  0  0  0  0  0  0  0
  184.3070  178.8180  146.6610 F   0  0  0  0  0  0  0  0  0  0  0  0
  184.9460  177.8200  145.9480 C   0  0  0  0  0  0  0  0  0  0  0  0
  184.6020  176.5890  146.4850 F   0  0  0  0  0  0  0  0  0  0  0  0
  184.5250  177.8920  144.5890 O   0  0  0  0  0  0  0  0  0  0  0  0
  185.3660  177.6350  143.5000 C   0  0  0  0  0  0  0  0  0  0  0  0
  186.7330  176.5630  141.9540 N   0  0  0  0  0  0  0  0  0  0  0  0
  186.0320  176.3500  143.2190 C   0  0  0  0  0  3  0  0  0  0  0  0
  185.6200  178.5290  142.6210 N   0  0  0  0  0  0  0  0  0  0  0  0
  185.9130  178.0860  140.3080 N   0  0  0  0  0  1  0  0  0  0  0  0
  186.5180  177.9770  141.6230 C   0  0  2  0  0  3  0  0  0  0  0  0
  191.5000  175.2460  144.0340 C   0  0  0  0  0  2  0  0  0  0  0  0
  190.2620  174.8040  143.5610 O   0  0  0  0  0  0  0  0  0  0  0  0
  191.3080  174.0930  141.6540 O   0  0  0  0  0  0  0  0  0  0  0  0
  189.9670  173.7220  141.4610 C   0  0  1  0  0  0  0  0  0  0  0  0
  190.3330  174.9700  142.1780 C   0  0  1  0  0  3  0  0  0  0  0  0
  188.2640  174.2090  139.7010 O   0  0  0  0  0  1  0  0  0  0  0  0
  189.5630  173.8480  140.0300 C   0  0  0  0  0  0  0  0  0  0  0  0
  190.4110  173.6680  139.1170 O   0  0  0  0  0  0  0  0  0  0  0  0
  189.9930  171.3310  141.4940 O   0  0  0  0  0  1  0  0  0  0  0  0
  189.6170  172.4540  142.2320 C   0  0  0  0  0  2  0  0  0  0  0  0
  1  2  1  6  0  0  0
  1 12  1  0  0  0  0
  1  3  1  0  0  0  0
  3  4  1  1  0  0  0
  5  8  1  0  0  0  0
  5  3  1  0  0  0  0
  7  8  2  0  0  0  0
  7  6  1  0  0  0  0
  9 10  1  0  0  0  0
 10 11  1  1  0  0  0
 10  7  1  0  0  0  0
 12 13  1  0  0  0  0
 13 14  1  0  0  0  0
 15 14  1  0  0  0  0
 16 15  2  0  0  0  0
 18 16  1  0  0  0  0
 18 19  1  0  0  0  0
 18 17  1  0  0  0  0
 20 18  1  0  0  0  0
 21 20  1  0  0  0  0
 22 23  2  0  0  0  0
 23 21  1  0  0  0  0
 24 21  2  0  0  0  0
 26 25  1  6  0  0  0
 26 22  1  0  0  0  0
 26 24  1  0  0  0  0
 27  1  1  0  0  0  0
 28 27  1  0  0  0  0
 29 31  1  0  0  0  0
 30 29  1  0  0  0  0
 30 31  1  0  0  0  0
 30 36  1  1  0  0  0
 31 28  1  1  0  0  0
 32 33  1  0  0  0  0
 33 30  1  0  0  0  0
 34 33  2  0  0  0  0
 35 36  1  0  0  0  0
M  END
>  <MODEL>
3

>  <REMARK>
 VINA RESULT:      -6.0      1.699      5.080
  Name = 
  16 active torsions:
  status: ('A' for Active; 'I' for Inactive)
    1  A    between atoms: C_5  and  C_25
    2  A    between atoms: C_6  and  C_22
    3  A    between atoms: C_7  and  O_9
    4  A    between atoms: O_9  and  C_20
    5  A    between atoms: O_10  and  C_23
    6  A    between atoms: O_10  and  C_33
    7  A    between atoms: C_11  and  N_15
    8  A    between atoms: C_11  and  O_17
    9  A    between atoms: O_13  and  C_14
   10  A    between atoms: O_13  and  C_36
   11  A    between atoms: C_14  and  C_27
   12  A    between atoms: N_15  and  C_27
   13  A    between atoms: O_17  and  N_21
   14  A    between atoms: C_20  and  N_35
   15  A    between atoms: C_23  and  C_27
   16  A    between atoms: C_24  and  C_25
                            x       y       z     vdW  Elec       q    Type
                         _______ _______ _______ _____ _____    ______ ____

>  <TORSDO>
F 16

$$$$
=
 OpenBabel11062422253D

 36 37  0  0  1  0  0  0  0  0999 V2000
  191.4050  176.1270  145.3020 C   0  0  1  0  0  0  0  0  0  0  0  0
  191.8630  175.5830  146.5080 O   0  0  0  0  0  1  0  0  0  0  0  0
  191.1090  174.9830  144.3210 C   0  0  1  0  0  3  0  0  0  0  0  0
  190.7950  173.6840  145.0510 C   0  0  0  0  0  1  0  0  0  0  0  0
  190.0330  175.3310  143.4600 O   0  0  0  0  0  0  0  0  0  0  0  0
  187.7850  172.8480  141.8240 C   0  0  0  0  0  1  0  0  0  0  0  0
  188.9200  173.7910  142.0470 C   0  0  0  0  0  0  0  0  0  0  0  0
  189.0010  174.4270  143.2110 C   0  0  0  0  0  3  0  0  0  0  0  0
  189.3030  174.0030  139.7170 O   0  0  0  0  0  1  0  0  0  0  0  0
  189.9240  174.0340  140.9650 C   0  0  2  0  0  3  0  0  0  0  0  0
  191.0360  173.0020  141.0150 C   0  0  0  0  0  1  0  0  0  0  0  0
  190.1800  176.9080  145.5270 N   0  0  0  0  0  2  0  0  0  0  0  0
  189.6970  176.7460  146.8950 C   0  0  0  0  0  2  0  0  0  0  0  0
  188.5620  175.8880  146.9070 O   0  0  0  0  0  0  0  0  0  0  0  0
  187.2950  176.3550  146.6140 N   0  0  0  0  0  0  0  0  0  0  0  0
  186.8690  177.4570  147.0840 N   0  0  0  0  0  0  0  0  0  0  0  0
  185.0290  178.6420  147.8440 F   0  0  0  0  0  0  0  0  0  0  0  0
  185.5340  177.9400  146.7650 C   0  0  0  0  0  0  0  0  0  0  0  0
  184.6970  176.8700  146.4900 F   0  0  0  0  0  0  0  0  0  0  0  0
  185.5920  178.8130  145.6410 O   0  0  0  0  0  0  0  0  0  0  0  0
  185.2080  178.4440  144.3480 C   0  0  0  0  0  0  0  0  0  0  0  0
  184.0130  178.2130  142.3660 N   0  0  0  0  0  0  0  0  0  0  0  0
  183.9040  178.7380  143.7260 C   0  0  0  0  0  3  0  0  0  0  0  0
  185.9970  177.8070  143.5680 N   0  0  0  0  0  0  0  0  0  0  0  0
  186.1050  178.1290  141.2190 N   0  0  0  0  0  1  0  0  0  0  0  0
  185.3260  177.5610  142.3050 C   0  0  2  0  0  3  0  0  0  0  0  0
  192.4950  177.0250  144.7090 C   0  0  0  0  0  2  0  0  0  0  0  0
  193.2520  176.3280  143.7630 O   0  0  0  0  0  0  0  0  0  0  0  0
  194.7760  174.9420  144.7580 O   0  0  0  0  0  0  0  0  0  0  0  0
  195.4010  175.3240  143.5590 C   0  0  1  0  0  0  0  0  0  0  0  0
  194.5300  176.2600  144.3150 C   0  0  1  0  0  3  0  0  0  0  0  0
  197.5480  176.5220  143.1240 O   0  0  0  0  0  0  0  0  0  0  0  0
  196.8760  175.4700  143.7310 C   0  0  0  0  0  0  0  0  0  0  0  0
  197.5080  174.6640  144.4620 O   0  0  0  0  0  1  0  0  0  0  0  0
  195.3460  175.0920  141.1800 O   0  0  0  0  0  1  0  0  0  0  0  0
  194.8570  174.5450  142.3670 C   0  0  0  0  0  2  0  0  0  0  0  0
  1 12  1  0  0  0  0
  1  2  1  1  0  0  0
  3  4  1  1  0  0  0
  3  1  1  0  0  0  0
  5  3  1  0  0  0  0
  6  7  1  0  0  0  0
  7  8  2  0  0  0  0
  8  5  1  0  0  0  0
  9 10  1  0  0  0  0
 10 11  1  6  0  0  0
 10  7  1  0  0  0  0
 12 13  1  0  0  0  0
 13 14  1  0  0  0  0
 15 14  1  0  0  0  0
 15 16  2  0  0  0  0
 18 16  1  0  0  0  0
 18 17  1  0  0  0  0
 19 18  1  0  0  0  0
 20 18  1  0  0  0  0
 21 20  1  0  0  0  0
 22 23  2  0  0  0  0
 23 21  1  0  0  0  0
 24 21  2  0  0  0  0
 26 25  1  6  0  0  0
 26 22  1  0  0  0  0
 26 24  1  0  0  0  0
 27  1  1  0  0  0  0
 28 27  1  0  0  0  0
 30 36  1  6  0  0  0
 30 33  1  0  0  0  0
 30 31  1  0  0  0  0
 30 29  1  0  0  0  0
 31 28  1  6  0  0  0
 31 29  1  0  0  0  0
 32 33  2  0  0  0  0
 33 34  1  0  0  0  0
 35 36  1  0  0  0  0
M  END
>  <MODEL>
4

>  <REMARK>
 VINA RESULT:      -5.9      1.707      2.445
  Name = 
  16 active torsions:
  status: ('A' for Active; 'I' for Inactive)
    1  A    between atoms: C_5  and  C_25
    2  A    between atoms: C_6  and  C_22
    3  A    between atoms: C_7  and  O_9
    4  A    between atoms: O_9  and  C_20
    5  A    between atoms: O_10  and  C_23
    6  A    between atoms: O_10  and  C_33
    7  A    between atoms: C_11  and  N_15
    8  A    between atoms: C_11  and  O_17
    9  A    between atoms: O_13  and  C_14
   10  A    between atoms: O_13  and  C_36
   11  A    between atoms: C_14  and  C_27
   12  A    between atoms: N_15  and  C_27
   13  A    between atoms: O_17  and  N_21
   14  A    between atoms: C_20  and  N_35
   15  A    between atoms: C_23  and  C_27
   16  A    between atoms: C_24  and  C_25
                            x       y       z     vdW  Elec       q    Type
                         _______ _______ _______ _____ _____    ______ ____

>  <TORSDO>
F 16

$$$$
=
 OpenBabel11062422253D

 36 37  0  0  1  0  0  0  0  0999 V2000
  191.6930  176.2690  144.4480 C   0  0  1  0  0  0  0  0  0  0  0  0
  192.5360  176.7780  143.4520 O   0  0  0  0  0  1  0  0  0  0  0  0
  192.3720  176.4510  145.8140 C   0  0  1  0  0  3  0  0  0  0  0  0
  192.0540  175.2970  146.7560 C   0  0  0  0  0  1  0  0  0  0  0  0
  193.7780  176.5800  145.6580 O   0  0  0  0  0  0  0  0  0  0  0  0
  196.4630  174.0320  146.1010 C   0  0  0  0  0  1  0  0  0  0  0  0
  195.5740  175.0480  145.4650 C   0  0  0  0  0  0  0  0  0  0  0  0
  194.6440  175.6370  146.2100 C   0  0  0  0  0  3  0  0  0  0  0  0
  194.9680  174.4720  143.2470 O   0  0  0  0  0  1  0  0  0  0  0  0
  195.7140  175.3700  144.0110 C   0  0  2  0  0  3  0  0  0  0  0  0
  197.1690  175.3310  143.5820 C   0  0  0  0  0  1  0  0  0  0  0  0
  190.4070  176.9800  144.4410 N   0  0  0  0  0  2  0  0  0  0  0  0
  190.2820  177.8310  143.2610 C   0  0  0  0  0  2  0  0  0  0  0  0
  189.0540  177.5570  142.5970 O   0  0  0  0  0  0  0  0  0  0  0  0
  187.8700  178.1560  142.9830 N   0  0  0  0  0  0  0  0  0  0  0  0
  186.7890  177.9630  142.3420 N   0  0  0  0  0  0  0  0  0  0  0  0
  184.7390  178.7980  141.6570 F   0  0  0  0  0  0  0  0  0  0  0  0
  185.5480  178.5980  142.7600 C   0  0  0  0  0  0  0  0  0  0  0  0
  185.8190  179.8230  143.3500 F   0  0  0  0  0  0  0  0  0  0  0  0
  184.8620  177.7550  143.6810 O   0  0  0  0  0  0  0  0  0  0  0  0
  185.1170  177.7360  145.0570 C   0  0  0  0  0  0  0  0  0  0  0  0
  185.9300  177.1570  147.1570 N   0  0  0  0  0  0  0  0  0  0  0  0
  185.8870  176.7000  145.7690 C   0  0  0  0  0  3  0  0  0  0  0  0
  184.6940  178.6620  145.8320 N   0  0  0  0  0  0  0  0  0  0  0  0
  185.8870  179.4770  147.7150 N   0  0  0  0  0  1  0  0  0  0  0  0
  185.1060  178.3700  147.1930 C   0  0  2  0  0  3  0  0  0  0  0  0
  191.4650  174.7750  144.1980 C   0  0  0  0  0  2  0  0  0  0  0  0
  190.2820  174.5650  143.4850 O   0  0  0  0  0  0  0  0  0  0  0  0
  190.2080  172.7200  142.1340 O   0  0  0  0  0  0  0  0  0  0  0  0
  189.5400  173.7080  141.3920 C   0  0  1  0  0  0  0  0  0  0  0  0
  190.6970  174.0380  142.2630 C   0  0  1  0  0  3  0  0  0  0  0  0
  190.8160  172.7300  139.4800 O   0  0  0  0  0  1  0  0  0  0  0  0
  189.8020  173.5660  139.9290 C   0  0  0  0  0  0  0  0  0  0  0  0
  189.0760  174.1700  139.0970 O   0  0  0  0  0  0  0  0  0  0  0  0
  187.4810  172.6760  142.0330 O   0  0  0  0  0  1  0  0  0  0  0  0
  188.1110  173.9120  141.8830 C   0  0  0  0  0  2  0  0  0  0  0  0
  1  2  1  6  0  0  0
  1  3  1  0  0  0  0
  3  4  1  1  0  0  0
  5  3  1  0  0  0  0
  5  8  1  0  0  0  0
  7  6  1  0  0  0  0
  7  8  2  0  0  0  0
  9 10  1  0  0  0  0
 10 11  1  6  0  0  0
 10  7  1  0  0  0  0
 12  1  1  0  0  0  0
 13 12  1  0  0  0  0
 14 15  1  0  0  0  0
 14 13  1  0  0  0  0
 16 18  1  0  0  0  0
 16 15  2  0  0  0  0
 17 18  1  0  0  0  0
 18 19  1  0  0  0  0
 18 20  1  0  0  0  0
 20 21  1  0  0  0  0
 21 23  1  0  0  0  0
 21 24  2  0  0  0  0
 22 26  1  0  0  0  0
 23 22  2  0  0  0  0
 24 26  1  0  0  0  0
 26 25  1  6  0  0  0
 27  1  1  0  0  0  0
 28 27  1  0  0  0  0
 29 31  1  0  0  0  0
 30 36  1  1  0  0  0
 30 29  1  0  0  0  0
 30 31  1  0  0  0  0
 31 28  1  1  0  0  0
 32 33  1  0  0  0  0
 33 30  1  0  0  0  0
 34 33  2  0  0  0  0
 36 35  1  0  0  0  0
M  END
>  <MODEL>
5

>  <REMARK>
 VINA RESULT:      -5.9      1.992      5.818
  Name = 
  16 active torsions:
  status: ('A' for Active; 'I' for Inactive)
    1  A    between atoms: C_5  and  C_25
    2  A    between atoms: C_6  and  C_22
    3  A    between atoms: C_7  and  O_9
    4  A    between atoms: O_9  and  C_20
    5  A    between atoms: O_10  and  C_23
    6  A    between atoms: O_10  and  C_33
    7  A    between atoms: C_11  and  N_15
    8  A    between atoms: C_11  and  O_17
    9  A    between atoms: O_13  and  C_14
   10  A    between atoms: O_13  and  C_36
   11  A    between atoms: C_14  and  C_27
   12  A    between atoms: N_15  and  C_27
   13  A    between atoms: O_17  and  N_21
   14  A    between atoms: C_20  and  N_35
   15  A    between atoms: C_23  and  C_27
   16  A    between atoms: C_24  and  C_25
                            x       y       z     vdW  Elec       q    Type
                         _______ _______ _______ _____ _____    ______ ____

>  <TORSDO>
F 16

$$$$
=
 OpenBabel11062422253D

 36 37  0  0  1  0  0  0  0  0999 V2000
  188.0320  176.9760  142.5430 C   0  0  1  0  0  0  0  0  0  0  0  0
  187.7700  176.1680  143.6570 O   0  0  0  0  0  1  0  0  0  0  0  0
  186.9690  178.0830  142.4710 C   0  0  1  0  0  3  0  0  0  0  0  0
  185.6350  177.5480  141.9670 C   0  0  0  0  0  1  0  0  0  0  0  0
  186.8000  178.6940  143.7420 O   0  0  0  0  0  0  0  0  0  0  0  0
  183.9610  178.5980  146.1570 C   0  0  0  0  0  1  0  0  0  0  0  0
  185.3390  178.4870  145.5950 C   0  0  0  0  0  0  0  0  0  0  0  0
  185.5340  178.7990  144.3180 C   0  0  0  0  0  3  0  0  0  0  0  0
  186.3950  176.6210  146.6060 O   0  0  0  0  0  1  0  0  0  0  0  0
  186.4680  178.0050  146.4510 C   0  0  2  0  0  3  0  0  0  0  0  0
  186.4470  178.6800  147.8100 C   0  0  0  0  0  1  0  0  0  0  0  0
  189.3650  177.5840  142.6560 N   0  0  0  0  0  2  0  0  0  0  0  0
  189.8940  177.4460  144.0100 C   0  0  0  0  0  2  0  0  0  0  0  0
  191.3160  177.4090  143.9690 O   0  0  0  0  0  0  0  0  0  0  0  0
  192.0610  176.9540  145.0400 N   0  0  0  0  0  0  0  0  0  0  0  0
  192.5070  175.7640  145.0810 N   0  0  0  0  0  0  0  0  0  0  0  0
  192.4600  174.6800  147.1290 F   0  0  0  0  0  0  0  0  0  0  0  0
  193.2930  175.2980  146.2140 C   0  0  0  0  0  0  0  0  0  0  0  0
  193.9220  176.3700  146.8260 F   0  0  0  0  0  0  0  0  0  0  0  0
  194.2630  174.3530  145.7710 O   0  0  0  0  0  0  0  0  0  0  0  0
  195.1130  174.5640  144.6790 C   0  0  0  0  0  0  0  0  0  0  0  0
  196.0910  174.4540  142.5730 N   0  0  0  0  0  0  0  0  0  0  0  0
  195.0600  173.8310  143.4010 C   0  0  0  0  0  3  0  0  0  0  0  0
  196.0300  175.4560  144.7030 N   0  0  0  0  0  0  0  0  0  0  0  0
  196.6840  176.7530  142.8260 N   0  0  0  0  0  1  0  0  0  0  0  0
  196.7460  175.4390  143.4410 C   0  0  2  0  0  3  0  0  0  0  0  0
  187.9520  176.1230  141.2730 C   0  0  0  0  0  2  0  0  0  0  0  0
  187.9880  174.7620  141.5860 O   0  0  0  0  0  0  0  0  0  0  0  0
  190.1410  174.1890  142.1070 O   0  0  0  0  0  0  0  0  0  0  0  0
  189.5810  172.9930  141.6280 C   0  0  1  0  0  0  0  0  0  0  0  0
  189.2000  174.3120  141.0630 C   0  0  1  0  0  3  0  0  0  0  0  0
  191.9290  172.2670  141.1850 O   0  0  0  0  0  1  0  0  0  0  0  0
  190.5790  172.1850  140.8690 C   0  0  0  0  0  0  0  0  0  0  0  0
  190.1960  171.3940  139.9670 O   0  0  0  0  0  0  0  0  0  0  0  0
  189.4920  171.9620  143.7830 O   0  0  0  0  0  1  0  0  0  0  0  0
  188.7110  172.3160  142.6820 C   0  0  0  0  0  2  0  0  0  0  0  0
  1 12  1  0  0  0  0
  1  2  1  1  0  0  0
  3  4  1  1  0  0  0
  3  1  1  0  0  0  0
  3  5  1  0  0  0  0
  5  8  1  0  0  0  0
  7  6  1  0  0  0  0
  7 10  1  0  0  0  0
  8  7  2  0  0  0  0
 10  9  1  0  0  0  0
 10 11  1  1  0  0  0
 12 13  1  0  0  0  0
 14 13  1  0  0  0  0
 14 15  1  0  0  0  0
 15 16  2  0  0  0  0
 16 18  1  0  0  0  0
 18 19  1  0  0  0  0
 18 17  1  0  0  0  0
 20 18  1  0  0  0  0
 21 24  2  0  0  0  0
 21 20  1  0  0  0  0
 22 23  2  0  0  0  0
 22 26  1  0  0  0  0
 23 21  1  0  0  0  0
 26 25  1  6  0  0  0
 26 24  1  0  0  0  0
 27 28  1  0  0  0  0
 27  1  1  0  0  0  0
 30 29  1  0  0  0  0
 30 36  1  1  0  0  0
 31 28  1  1  0  0  0
 31 30  1  0  0  0  0
 31 29  1  0  0  0  0
 33 32  1  0  0  0  0
 33 30  1  0  0  0  0
 34 33  2  0  0  0  0
 36 35  1  0  0  0  0
M  END
>  <MODEL>
6

>  <REMARK>
 VINA RESULT:      -5.9      3.561      7.955
  Name = 
  16 active torsions:
  status: ('A' for Active; 'I' for Inactive)
    1  A    between atoms: C_5  and  C_25
    2  A    between atoms: C_6  and  C_22
    3  A    between atoms: C_7  and  O_9
    4  A    between atoms: O_9  and  C_20
    5  A    between atoms: O_10  and  C_23
    6  A    between atoms: O_10  and  C_33
    7  A    between atoms: C_11  and  N_15
    8  A    between atoms: C_11  and  O_17
    9  A    between atoms: O_13  and  C_14
   10  A    between atoms: O_13  and  C_36
   11  A    between atoms: C_14  and  C_27
   12  A    between atoms: N_15  and  C_27
   13  A    between atoms: O_17  and  N_21
   14  A    between atoms: C_20  and  N_35
   15  A    between atoms: C_23  and  C_27
   16  A    between atoms: C_24  and  C_25
                            x       y       z     vdW  Elec       q    Type
                         _______ _______ _______ _____ _____    ______ ____

>  <TORSDO>
F 16

$$$$
=
 OpenBabel11062422253D

 36 37  0  0  1  0  0  0  0  0999 V2000
  192.4480  175.3010  143.2060 C   0  0  1  0  0  0  0  0  0  0  0  0
  193.0480  176.4710  142.7250 O   0  0  0  0  0  1  0  0  0  0  0  0
  193.1190  174.9050  144.5300 C   0  0  1  0  0  3  0  0  0  0  0  0
  194.2160  175.8880  144.9180 C   0  0  0  0  0  1  0  0  0  0  0  0
  192.1540  174.8150  145.5690 O   0  0  0  0  0  0  0  0  0  0  0  0
  191.3540  177.0070  148.4770 C   0  0  0  0  0  1  0  0  0  0  0  0
  191.1820  176.1470  147.2690 C   0  0  0  0  0  0  0  0  0  0  0  0
  192.2620  175.6110  146.7090 C   0  0  0  0  0  3  0  0  0  0  0  0
  189.0360  177.0640  146.8510 O   0  0  0  0  0  1  0  0  0  0  0  0
  189.8220  175.9230  146.6880 C   0  0  2  0  0  3  0  0  0  0  0  0
  189.1440  174.7300  147.3370 C   0  0  0  0  0  1  0  0  0  0  0  0
  191.0120  175.5200  143.4310 N   0  0  0  0  0  2  0  0  0  0  0  0
  190.5590  176.7480  142.7830 C   0  0  0  0  0  2  0  0  0  0  0  0
  189.3560  176.4980  142.0650 O   0  0  0  0  0  0  0  0  0  0  0  0
  188.2920  177.3780  142.1020 N   0  0  0  0  0  0  0  0  0  0  0  0
  187.1410  177.0460  141.6730 N   0  0  0  0  0  0  0  0  0  0  0  0
  184.8700  177.3040  142.0530 F   0  0  0  0  0  0  0  0  0  0  0  0
  186.0280  177.9820  141.7190 C   0  0  0  0  0  0  0  0  0  0  0  0
  185.8610  178.5800  140.4800 F   0  0  0  0  0  0  0  0  0  0  0  0
  186.2750  178.9760  142.7100 O   0  0  0  0  0  0  0  0  0  0  0  0
  185.7810  178.9110  144.0170 C   0  0  0  0  0  0  0  0  0  0  0  0
  184.3860  179.0340  145.8730 N   0  0  0  0  0  0  0  0  0  0  0  0
  184.4530  179.3790  144.4540 C   0  0  0  0  0  3  0  0  0  0  0  0
  186.4690  178.4070  144.9710 N   0  0  0  0  0  0  0  0  0  0  0  0
  185.5510  177.1500  146.7630 N   0  0  0  0  0  1  0  0  0  0  0  0
  185.7040  178.4800  146.2030 C   0  0  2  0  0  3  0  0  0  0  0  0
  192.6510  174.1750  142.1870 C   0  0  0  0  0  2  0  0  0  0  0  0
  191.5440  173.3240  142.1600 O   0  0  0  0  0  0  0  0  0  0  0  0
  190.7290  172.0370  140.4530 O   0  0  0  0  0  0  0  0  0  0  0  0
  189.6920  172.9480  140.7120 C   0  0  1  0  0  0  0  0  0  0  0  0
  191.1200  173.3390  140.8320 C   0  0  1  0  0  3  0  0  0  0  0  0
  188.9060  172.4500  138.3940 O   0  0  0  0  0  0  0  0  0  0  0  0
  188.9780  173.3370  139.4600 C   0  0  0  0  0  0  0  0  0  0  0  0
  188.4040  174.4540  139.3830 O   0  0  0  0  0  1  0  0  0  0  0  0
  188.1210  173.6340  142.3790 O   0  0  0  0  0  1  0  0  0  0  0  0
  188.8860  172.5510  141.9440 C   0  0  0  0  0  2  0  0  0  0  0  0
  1  2  1  6  0  0  0
  1 12  1  0  0  0  0
  1  3  1  0  0  0  0
  3  4  1  1  0  0  0
  3  5  1  0  0  0  0
  5  8  1  0  0  0  0
  7  6  1  0  0  0  0
  8  7  2  0  0  0  0
 10  9  1  0  0  0  0
 10  7  1  0  0  0  0
 10 11  1  1  0  0  0
 13 12  1  0  0  0  0
 14 15  1  0  0  0  0
 14 13  1  0  0  0  0
 16 18  1  0  0  0  0
 16 15  2  0  0  0  0
 18 17  1  0  0  0  0
 18 20  1  0  0  0  0
 19 18  1  0  0  0  0
 20 21  1  0  0  0  0
 21 23  1  0  0  0  0
 21 24  2  0  0  0  0
 22 26  1  0  0  0  0
 23 22  2  0  0  0  0
 24 26  1  0  0  0  0
 26 25  1  6  0  0  0
 27  1  1  0  0  0  0
 28 27  1  0  0  0  0
 29 30  1  0  0  0  0
 29 31  1  0  0  0  0
 30 31  1  0  0  0  0
 30 36  1  1  0  0  0
 31 28  1  1  0  0  0
 32 33  2  0  0  0  0
 33 30  1  0  0  0  0
 34 33  1  0  0  0  0
 36 35  1  0  0  0  0
M  END
>  <MODEL>
7

>  <REMARK>
 VINA RESULT:      -5.9      2.326      5.828
  Name = 
  16 active torsions:
  status: ('A' for Active; 'I' for Inactive)
    1  A    between atoms: C_5  and  C_25
    2  A    between atoms: C_6  and  C_22
    3  A    between atoms: C_7  and  O_9
    4  A    between atoms: O_9  and  C_20
    5  A    between atoms: O_10  and  C_23
    6  A    between atoms: O_10  and  C_33
    7  A    between atoms: C_11  and  N_15
    8  A    between atoms: C_11  and  O_17
    9  A    between atoms: O_13  and  C_14
   10  A    between atoms: O_13  and  C_36
   11  A    between atoms: C_14  and  C_27
   12  A    between atoms: N_15  and  C_27
   13  A    between atoms: O_17  and  N_21
   14  A    between atoms: C_20  and  N_35
   15  A    between atoms: C_23  and  C_27
   16  A    between atoms: C_24  and  C_25
                            x       y       z     vdW  Elec       q    Type
                         _______ _______ _______ _____ _____    ______ ____

>  <TORSDO>
F 16

$$$$
=
 OpenBabel11062422253D

 36 37  0  0  1  0  0  0  0  0999 V2000
  192.3020  176.6510  144.5440 C   0  0  1  0  0  0  0  0  0  0  0  0
  191.8420  177.9030  144.1170 O   0  0  0  0  0  1  0  0  0  0  0  0
  193.7590  176.7880  145.0080 C   0  0  1  0  0  3  0  0  0  0  0  0
  193.8660  176.7990  146.5280 C   0  0  0  0  0  1  0  0  0  0  0  0
  194.5540  175.7390  144.4720 O   0  0  0  0  0  0  0  0  0  0  0  0
  196.9970  173.4710  146.1400 C   0  0  0  0  0  1  0  0  0  0  0  0
  195.8140  173.9420  145.3620 C   0  0  0  0  0  0  0  0  0  0  0  0
  195.6530  175.2480  145.1760 C   0  0  0  0  0  3  0  0  0  0  0  0
  194.6220  171.9300  145.7540 O   0  0  0  0  0  1  0  0  0  0  0  0
  194.8160  172.9610  144.8340 C   0  0  2  0  0  3  0  0  0  0  0  0
  195.2690  172.3880  143.5030 C   0  0  0  0  0  1  0  0  0  0  0  0
  191.4780  176.1580  145.6570 N   0  0  0  0  0  2  0  0  0  0  0  0
  190.1890  176.8430  145.7010 C   0  0  0  0  0  2  0  0  0  0  0  0
  189.4010  176.3180  146.7640 O   0  0  0  0  0  0  0  0  0  0  0  0
  188.0590  176.6180  146.8890 N   0  0  0  0  0  0  0  0  0  0  0  0
  187.6680  177.7660  147.2740 N   0  0  0  0  0  0  0  0  0  0  0  0
  186.0400  179.4070  147.1160 F   0  0  0  0  0  0  0  0  0  0  0  0
  186.2510  178.0700  147.4000 C   0  0  0  0  0  0  0  0  0  0  0  0
  185.8240  177.8090  148.6920 F   0  0  0  0  0  0  0  0  0  0  0  0
  185.5050  177.2860  146.4730 O   0  0  0  0  0  0  0  0  0  0  0  0
  185.1540  177.7210  145.1910 C   0  0  0  0  0  0  0  0  0  0  0  0
  184.1480  178.8590  143.4300 N   0  0  0  0  0  0  0  0  0  0  0  0
  184.0760  178.6780  144.8790 C   0  0  0  0  0  3  0  0  0  0  0  0
  185.7760  177.3170  144.1490 N   0  0  0  0  0  0  0  0  0  0  0  0
  186.2100  178.6620  142.2430 N   0  0  0  0  0  1  0  0  0  0  0  0
  185.1900  177.9320  142.9730 C   0  0  2  0  0  3  0  0  0  0  0  0
  192.2410  175.6660  143.3720 C   0  0  0  0  0  2  0  0  0  0  0  0
  191.0770  175.8560  142.6240 O   0  0  0  0  0  0  0  0  0  0  0  0
  189.8700  173.9150  142.7310 O   0  0  0  0  0  0  0  0  0  0  0  0
  189.4500  174.5070  141.5280 C   0  0  1  0  0  0  0  0  0  0  0  0
  190.8510  174.6260  142.0070 C   0  0  1  0  0  3  0  0  0  0  0  0
  189.2030  173.8280  139.1370 O   0  0  0  0  0  0  0  0  0  0  0  0
  189.1690  173.4810  140.4810 C   0  0  0  0  0  0  0  0  0  0  0  0
  188.9410  172.2880  140.8120 O   0  0  0  0  0  1  0  0  0  0  0  0
  187.2620  175.0980  142.2890 O   0  0  0  0  0  1  0  0  0  0  0  0
  188.4450  175.6270  141.7720 C   0  0  0  0  0  2  0  0  0  0  0  0
  1  2  1  6  0  0  0
  1  3  1  0  0  0  0
  1 12  1  0  0  0  0
  3  4  1  1  0  0  0
  5  3  1  0  0  0  0
  5  8  1  0  0  0  0
  7  6  1  0  0  0  0
  8  7  2  0  0  0  0
 10 11  1  6  0  0  0
 10  7  1  0  0  0  0
 10  9  1  0  0  0  0
 12 13  1  0  0  0  0
 13 14  1  0  0  0  0
 14 15  1  0  0  0  0
 15 16  2  0  0  0  0
 16 18  1  0  0  0  0
 17 18  1  0  0  0  0
 18 19  1  0  0  0  0
 20 18  1  0  0  0  0
 21 20  1  0  0  0  0
 22 23  2  0  0  0  0
 23 21  1  0  0  0  0
 24 21  2  0  0  0  0
 26 25  1  1  0  0  0
 26 22  1  0  0  0  0
 26 24  1  0  0  0  0
 27  1  1  0  0  0  0
 28 27  1  0  0  0  0
 30 36  1  1  0  0  0
 30 31  1  0  0  0  0
 30 29  1  0  0  0  0
 31 28  1  1  0  0  0
 31 29  1  0  0  0  0
 32 33  2  0  0  0  0
 33 34  1  0  0  0  0
 33 30  1  0  0  0  0
 36 35  1  0  0  0  0
M  END
>  <MODEL>
8

>  <REMARK>
 VINA RESULT:      -5.8      2.049      5.317
  Name = 
  16 active torsions:
  status: ('A' for Active; 'I' for Inactive)
    1  A    between atoms: C_5  and  C_25
    2  A    between atoms: C_6  and  C_22
    3  A    between atoms: C_7  and  O_9
    4  A    between atoms: O_9  and  C_20
    5  A    between atoms: O_10  and  C_23
    6  A    between atoms: O_10  and  C_33
    7  A    between atoms: C_11  and  N_15
    8  A    between atoms: C_11  and  O_17
    9  A    between atoms: O_13  and  C_14
   10  A    between atoms: O_13  and  C_36
   11  A    between atoms: C_14  and  C_27
   12  A    between atoms: N_15  and  C_27
   13  A    between atoms: O_17  and  N_21
   14  A    between atoms: C_20  and  N_35
   15  A    between atoms: C_23  and  C_27
   16  A    between atoms: C_24  and  C_25
                            x       y       z     vdW  Elec       q    Type
                         _______ _______ _______ _____ _____    ______ ____

>  <TORSDO>
F 16

$$$$
=
 OpenBabel11062422253D

 36 37  0  0  1  0  0  0  0  0999 V2000
  189.5000  176.5110  144.7750 C   0  0  1  0  0  0  0  0  0  0  0  0
  190.0550  175.2410  144.9820 O   0  0  0  0  0  1  0  0  0  0  0  0
  188.5230  176.8200  145.9190 C   0  0  1  0  0  3  0  0  0  0  0  0
  189.2590  177.1250  147.2180 C   0  0  0  0  0  1  0  0  0  0  0  0
  187.6770  177.9060  145.5710 O   0  0  0  0  0  0  0  0  0  0  0  0
  184.0720  178.6610  146.1520 C   0  0  0  0  0  1  0  0  0  0  0  0
  185.3890  178.5110  145.4660 C   0  0  0  0  0  0  0  0  0  0  0  0
  186.4220  178.0470  146.1620 C   0  0  0  0  0  3  0  0  0  0  0  0
  185.4950  180.2950  143.9080 O   0  0  0  0  0  1  0  0  0  0  0  0
  185.5440  178.9060  144.0310 C   0  0  2  0  0  3  0  0  0  0  0  0
  184.4640  178.2730  143.1740 C   0  0  0  0  0  1  0  0  0  0  0  0
  190.5580  177.5310  144.7440 N   0  0  0  0  0  2  0  0  0  0  0  0
  191.0750  177.7120  143.3910 C   0  0  0  0  0  2  0  0  0  0  0  0
  192.3470  177.0850  143.2740 O   0  0  0  0  0  0  0  0  0  0  0  0
  193.0610  176.6780  144.3840 N   0  0  0  0  0  0  0  0  0  0  0  0
  193.4680  175.4790  144.5080 N   0  0  0  0  0  0  0  0  0  0  0  0
  194.0530  173.7050  145.8780 F   0  0  0  0  0  0  0  0  0  0  0  0
  194.2220  175.0630  145.6810 C   0  0  0  0  0  0  0  0  0  0  0  0
  193.7690  175.7420  146.8000 F   0  0  0  0  0  0  0  0  0  0  0  0
  195.6080  175.3240  145.4800 O   0  0  0  0  0  0  0  0  0  0  0  0
  196.2380  175.2680  144.2330 C   0  0  0  0  0  0  0  0  0  0  0  0
  197.1500  174.4940  142.2380 N   0  0  0  0  0  0  0  0  0  0  0  0
  196.5770  174.0330  143.5010 C   0  0  0  0  0  3  0  0  0  0  0  0
  196.5710  176.3280  143.5980 N   0  0  0  0  0  0  0  0  0  0  0  0
  196.4840  176.5570  141.2380 N   0  0  0  0  0  1  0  0  0  0  0  0
  197.2040  175.9560  142.3460 C   0  0  2  0  0  3  0  0  0  0  0  0
  188.7320  176.5140  143.4490 C   0  0  0  0  0  2  0  0  0  0  0  0
  188.3160  175.2230  143.1130 O   0  0  0  0  0  0  0  0  0  0  0  0
  189.9320  174.7320  141.5700 O   0  0  0  0  0  0  0  0  0  0  0  0
  188.9720  173.7240  141.3840 C   0  0  1  0  0  0  0  0  0  0  0  0
  188.5840  175.1100  141.7500 C   0  0  1  0  0  3  0  0  0  0  0  0
  189.7860  173.7920  139.0240 O   0  0  0  0  0  0  0  0  0  0  0  0
  188.8550  173.3350  139.9480 C   0  0  0  0  0  0  0  0  0  0  0  0
  187.9370  172.5590  139.5780 O   0  0  0  0  0  1  0  0  0  0  0  0
  190.3780  172.1250  142.4720 O   0  0  0  0  0  1  0  0  0  0  0  0
  189.0810  172.6390  142.4500 C   0  0  0  0  0  2  0  0  0  0  0  0
  1  2  1  1  0  0  0
  1  3  1  0  0  0  0
  3  4  1  1  0  0  0
  5  3  1  0  0  0  0
  5  8  1  0  0  0  0
  7  6  1  0  0  0  0
  7  8  2  0  0  0  0
  9 10  1  0  0  0  0
 10 11  1  6  0  0  0
 10  7  1  0  0  0  0
 12  1  1  0  0  0  0
 13 12  1  0  0  0  0
 14 13  1  0  0  0  0
 14 15  1  0  0  0  0
 15 16  2  0  0  0  0
 16 18  1  0  0  0  0
 18 17  1  0  0  0  0
 18 19  1  0  0  0  0
 20 18  1  0  0  0  0
 21 20  1  0  0  0  0
 22 26  1  0  0  0  0
 22 23  2  0  0  0  0
 23 21  1  0  0  0  0
 24 21  2  0  0  0  0
 26 25  1  6  0  0  0
 26 24  1  0  0  0  0
 27  1  1  0  0  0  0
 28 27  1  0  0  0  0
 29 31  1  0  0  0  0
 30 29  1  0  0  0  0
 30 31  1  0  0  0  0
 30 36  1  1  0  0  0
 31 28  1  1  0  0  0
 32 33  2  0  0  0  0
 33 30  1  0  0  0  0
 34 33  1  0  0  0  0
 36 35  1  0  0  0  0
M  END
>  <MODEL>
9

>  <REMARK>
 VINA RESULT:      -5.8      3.838      8.301
  Name = 
  16 active torsions:
  status: ('A' for Active; 'I' for Inactive)
    1  A    between atoms: C_5  and  C_25
    2  A    between atoms: C_6  and  C_22
    3  A    between atoms: C_7  and  O_9
    4  A    between atoms: O_9  and  C_20
    5  A    between atoms: O_10  and  C_23
    6  A    between atoms: O_10  and  C_33
    7  A    between atoms: C_11  and  N_15
    8  A    between atoms: C_11  and  O_17
    9  A    between atoms: O_13  and  C_14
   10  A    between atoms: O_13  and  C_36
   11  A    between atoms: C_14  and  C_27
   12  A    between atoms: N_15  and  C_27
   13  A    between atoms: O_17  and  N_21
   14  A    between atoms: C_20  and  N_35
   15  A    between atoms: C_23  and  C_27
   16  A    between atoms: C_24  and  C_25
                            x       y       z     vdW  Elec       q    Type
                         _______ _______ _______ _____ _____    ______ ____

>  <TORSDO>
F 16

$$$$
