=
 OpenBabel11072409433D

 70 75  0  0  1  0  0  0  0  0999 V2000
  187.7100  177.9300  140.9680 C   0  0  0  0  0  2  0  0  0  0  0  0
  189.1580  176.3870  144.2750 C   0  0  0  0  0  0  0  0  0  0  0  0
  193.0390  173.5800  143.9200 C   0  0  0  0  0  2  0  0  0  0  0  0
  186.5220  177.0420  142.9680 C   0  0  0  0  0  0  0  0  0  0  0  0
  192.7640  172.4530  142.9740 C   0  0  0  0  0  0  0  0  0  0  0  0
  187.7280  175.4330  141.3130 C   0  0  2  0  0  3  0  0  0  0  0  0
  186.7850  178.0860  142.1380 C   0  0  0  0  0  3  0  0  0  0  0  0
  188.7090  172.5370  142.6350 O   0  0  0  0  0  0  0  0  0  0  0  0
  187.1060  175.6410  142.7100 C   0  0  1  0  0  3  0  0  0  0  0  0
  189.1140  175.5170  141.9630 C   0  0  2  0  0  3  0  0  0  0  0  0
  192.7820  176.1040  144.2020 C   0  0  0  0  0  2  0  0  0  0  0  0
  188.4700  177.4390  144.8460 O   0  0  0  0  0  1  0  0  0  0  0  0
  192.8970  174.9330  143.2100 C   0  0  1  0  0  3  0  0  0  0  0  0
  190.1590  174.5990  141.7670 O   0  0  0  0  0  0  0  0  0  0  0  0
  191.6040  175.9820  145.1210 C   0  0  0  0  0  0  0  0  0  0  0  0
  190.9830  172.0780  141.4290 O   0  0  0  0  0  0  0  0  0  0  0  0
  191.4360  172.1240  142.7010 O   0  0  0  0  0  0  0  0  0  0  0  0
  189.5760  173.0220  141.4870 P   0  0  1  0  0  0  0  0  0  0  0  0
  193.7950  171.8270  142.4080 C   0  0  0  0  0  3  0  0  0  0  0  0
  190.3820  176.1590  144.6550 C   0  0  0  0  0  0  0  0  0  0  0  0
  188.4950  175.4140  143.3330 C   0  0  1  0  0  3  0  0  0  0  0  0
  187.4640  176.5640  140.3160 C   0  0  0  0  0  2  0  0  0  0  0  0
  190.2070  173.7030  138.3130 C   0  0  0  0  0  2  0  0  0  0  0  0
  190.4040  172.2020  138.3640 C   0  0  1  0  0  3  0  0  0  0  0  0
  188.7360  172.9250  139.8550 C   0  0  1  0  0  3  0  0  0  0  0  0
  189.0770  174.0510  139.0860 O   0  0  0  0  0  0  0  0  0  0  0  0
  189.2100  171.6990  139.1250 C   0  0  0  0  0  2  0  0  0  0  0  0
  189.8940  170.3850  136.6020 C   0  0  0  0  0  1  0  0  0  0  0  0
  190.6130  171.6900  136.9170 C   0  0  2  0  0  3  0  0  0  0  0  0
  192.0940  171.5910  136.4920 C   0  0  0  0  0  2  0  0  0  0  0  0
  192.7530  172.8750  136.1890 N   0  0  0  0  0  0  0  0  0  0  0  0
  194.8290  171.8850  137.3260 C   0  0  0  0  0  2  0  0  0  0  0  0
  194.8150  172.2970  134.7820 C   0  0  0  0  0  1  0  0  0  0  0  0
  194.2100  172.6070  136.1350 C   0  0  1  0  0  0  0  0  0  0  0  0
  195.1730  173.3440  137.0770 C   0  0  1  0  0  3  0  0  0  0  0  0
  194.4940  174.2220  138.1170 C   0  0  0  0  0  2  0  0  0  0  0  0
  195.5250  175.0070  138.9130 C   0  0  0  0  0  2  0  0  0  0  0  0
  196.2130  174.0920  139.7330 O   0  0  0  0  0  1  0  0  0  0  0  0
  192.3180  173.2870  134.9460 O   0  0  0  0  0  0  0  0  0  0  0  0
  191.9580  174.6490  135.0880 C   0  0  0  0  0  1  0  0  0  0  0  0
  192.9210  175.7160  147.0660 O   0  0  0  0  0  0  0  0  0  0  0  0
  190.7050  176.2080  147.4120 O   0  0  0  0  0  1  0  0  0  0  0  0
  191.7970  176.0130  146.5720 C   0  0  0  0  0  0  0  0  0  0  0  0
  193.3970  170.9260  140.2130 O   0  0  0  0  0  0  0  0  0  0  0  0
  193.7490  170.7230  141.4200 C   0  0  0  0  0  0  0  0  0  0  0  0
  194.2100  169.4680  141.8020 O   0  0  0  0  0  0  0  0  0  0  0  0
  194.8810  168.7190  140.8770 O   0  0  0  0  0  0  0  0  0  0  0  0
  196.9220  168.1660  139.6790 O   0  0  0  0  0  0  0  0  0  0  0  0
  196.2710  168.7120  140.7910 C   0  0  0  0  0  0  0  0  0  0  0  0
  196.9620  169.1240  141.7620 O   0  0  0  0  0  1  0  0  0  0  0  0
  185.6030  177.1660  144.0470 N   0  0  0  0  0  2  0  0  0  0  0  0
  185.9550  177.6460  145.3690 C   0  0  2  0  0  3  0  0  0  0  0  0
  184.0950  179.2310  145.2690 O   0  0  0  0  0  1  0  0  0  0  0  0
  185.7920  177.2380  147.7680 C   0  0  0  0  0  2  0  0  0  0  0  0
  185.6040  179.4070  147.1620 C   0  0  0  0  0  2  0  0  0  0  0  0
  185.4840  176.6370  146.4050 C   0  0  0  0  0  2  0  0  0  0  0  0
  184.9960  178.3880  147.9430 O   0  0  0  0  0  0  0  0  0  0  0  0
  185.4400  179.0770  145.6640 C   0  0  1  0  0  3  0  0  0  0  0  0
  194.0000  175.2070  142.3020 O   0  0  0  0  0  0  0  0  0  0  0  0
  194.8330  176.3360  142.4690 C   0  0  0  0  0  3  0  0  0  0  0  0
  195.8370  176.4000  143.2990 N   0  0  0  0  0  0  0  0  0  0  0  0
  196.2290  175.2760  144.1130 C   0  0  0  0  0  2  0  0  0  0  0  0
  197.6120  174.8190  143.7110 C   0  0  2  0  0  3  0  0  0  0  0  0
  197.9150  175.1850  142.3910 O   0  0  0  0  0  1  0  0  0  0  0  0
  197.9400  172.5170  142.6320 C   0  0  0  0  0  1  0  0  0  0  0  0
  197.8870  173.3020  143.9460 C   0  0  2  0  0  3  0  0  0  0  0  0
  197.1930  172.9700  146.2120 O   0  0  0  0  0  1  0  0  0  0  0  0
  196.8380  172.7230  144.8960 C   0  0  2  0  0  3  0  0  0  0  0  0
  197.4760  170.5090  145.5580 O   0  0  0  0  0  1  0  0  0  0  0  0
  196.6150  171.2370  144.7200 C   0  0  0  0  0  2  0  0  0  0  0  0
  1  7  1  0  0  0  0
  2 20  2  0  0  0  0
  2 12  1  0  0  0  0
  4 51  1  0  0  0  0
  5  3  1  0  0  0  0
  6 22  1  6  0  0  0
  6 10  1  0  0  0  0
  6  9  1  0  0  0  0
  7  4  2  0  0  0  0
  9  4  1  6  0  0  0
  9 21  1  0  0  0  0
 10 14  1  6  0  0  0
 10 21  1  0  0  0  0
 11 15  1  0  0  0  0
 13 59  1  6  0  0  0
 13  3  1  0  0  0  0
 13 11  1  0  0  0  0
 15 43  1  0  0  0  0
 16 18  1  0  0  0  0
 16 17  1  0  0  0  0
 17  5  1  0  0  0  0
 18 14  1  0  0  0  0
 18  8  2  1  0  0  0
 19  5  2  0  0  0  0
 20 15  2  0  0  0  0
 21  2  1  1  0  0  0
 22  1  1  0  0  0  0
 23 24  1  0  0  0  0
 23 26  1  0  0  0  0
 24 29  1  6  0  0  0
 24 27  1  0  0  0  0
 25 27  1  6  0  0  0
 25 18  1  0  0  0  0
 26 25  1  0  0  0  0
 29 28  1  1  0  0  0
 30 29  1  0  0  0  0
 31 30  1  0  0  0  0
 34 33  1  6  0  0  0
 34 31  1  0  0  0  0
 34 35  1  0  0  0  0
 34 32  1  0  0  0  0
 35 32  1  0  0  0  0
 35 36  1  1  0  0  0
 36 37  1  0  0  0  0
 37 38  1  0  0  0  0
 39 40  1  0  0  0  0
 39 31  1  0  0  0  0
 43 41  2  0  0  0  0
 43 42  1  0  0  0  0
 44 45  2  0  0  0  0
 45 46  1  0  0  0  0
 45 19  1  0  0  0  0
 47 46  1  0  0  0  0
 48 49  2  0  0  0  0
 49 47  1  0  0  0  0
 49 50  1  0  0  0  0
 52 51  1  6  0  0  0
 52 58  1  0  0  0  0
 52 56  1  0  0  0  0
 54 57  1  0  0  0  0
 55 57  1  0  0  0  0
 56 54  1  0  0  0  0
 58 53  1  1  0  0  0
 58 55  1  0  0  0  0
 59 60  1  0  0  0  0
 60 61  2  0  0  0  0
 61 62  1  0  0  0  0
 63 64  1  6  0  0  0
 63 66  1  0  0  0  0
 63 62  1  0  0  0  0
 66 65  1  6  0  0  0
 66 68  1  0  0  0  0
 68 67  1  1  0  0  0
 70 68  1  0  0  0  0
 70 69  1  0  0  0  0
M  END
>  <MODEL>
1

>  <REMARK>
 VINA RESULT:      -6.4      0.000      0.000
  Name = 
  22 active torsions:
  status: ('A' for Active; 'I' for Inactive)
    1  A    between atoms: O_1  and  O_8
    2  A    between atoms: O_1  and  C_22
    3  A    between atoms: C_3  and  C_9
    4  A    between atoms: C_6  and  C_47
    5  A    between atoms: C_6  and  C_67
    6  A    between atoms: C_7  and  N_16
    7  A    between atoms: C_7  and  C_61
    8  A    between atoms: O_8  and  C_63
    9  A    between atoms: C_9  and  C_66
   10  A    between atoms: C_12  and  N_62
   11  A    between atoms: N_16  and  O_29
   12  A    between atoms: N_16  and  C_33
   13  A    between atoms: O_20  and  C_38
   14  A    between atoms: O_20  and  C_54
   15  A    between atoms: C_34  and  N_62
   16  A    between atoms: C_40  and  C_61
   17  A    between atoms: C_42  and  P_51
   18  A    between atoms: C_43  and  C_44
   19  A    between atoms: C_47  and  C_55
   20  A    between atoms: C_52  and  C_63
   21  A    between atoms: C_55  and  C_64
   22  A    between atoms: N_56  and  C_67
                            x       y       z     vdW  Elec       q    Type
                         _______ _______ _______ _____ _____    ______ ____

>  <TORSDO>
F 22

$$$$
=
 OpenBabel11072409433D

 70 75  0  0  1  0  0  0  0  0999 V2000
  192.8940  168.8170  143.0100 C   0  0  0  0  0  2  0  0  0  0  0  0
  194.2660  172.4280  143.7120 C   0  0  0  0  0  0  0  0  0  0  0  0
  191.0640  175.9410  144.4030 C   0  0  0  0  0  2  0  0  0  0  0  0
  194.8590  169.9950  142.0350 C   0  0  0  0  0  0  0  0  0  0  0  0
  190.1410  176.0240  143.2270 C   0  0  0  0  0  0  0  0  0  0  0  0
  192.4330  170.6960  141.3950 C   0  0  2  0  0  3  0  0  0  0  0  0
  194.3640  168.9450  142.7420 C   0  0  0  0  0  3  0  0  0  0  0  0
  192.1030  173.8560  140.3960 O   0  0  0  0  0  0  0  0  0  0  0  0
  193.9320  171.0620  141.4230 C   0  0  1  0  0  3  0  0  0  0  0  0
  192.2170  171.6670  142.5610 C   0  0  2  0  0  3  0  0  0  0  0  0
  192.1560  174.2890  146.0150 C   0  0  0  0  0  2  0  0  0  0  0  0
  195.3940  171.7250  144.0840 O   0  0  0  0  0  1  0  0  0  0  0  0
  190.9730  174.5600  145.0690 C   0  0  1  0  0  3  0  0  0  0  0  0
  191.2280  172.6640  142.6130 O   0  0  0  0  0  0  0  0  0  0  0  0
  193.4850  174.3410  145.3240 C   0  0  0  0  0  0  0  0  0  0  0  0
  189.7840  174.5480  141.3850 O   0  0  0  0  0  0  0  0  0  0  0  0
  190.5520  175.4600  142.0200 O   0  0  0  0  0  0  0  0  0  0  0  0
  190.8680  173.2840  141.0680 P   0  0  1  0  0  0  0  0  0  0  0  0
  188.9540  176.6070  143.3850 C   0  0  0  0  0  3  0  0  0  0  0  0
  193.8340  173.3770  144.4910 C   0  0  0  0  0  0  0  0  0  0  0  0
  193.6010  172.2280  142.3730 C   0  0  1  0  0  3  0  0  0  0  0  0
  192.1190  169.2430  141.7580 C   0  0  0  0  0  2  0  0  0  0  0  0
  188.4930  173.1220  138.7720 C   0  0  0  0  0  2  0  0  0  0  0  0
  189.7530  173.0210  137.9370 C   0  0  1  0  0  3  0  0  0  0  0  0
  190.0100  172.0180  140.0470 C   0  0  1  0  0  3  0  0  0  0  0  0
  188.6480  172.3470  139.9430 O   0  0  0  0  0  0  0  0  0  0  0  0
  190.5980  172.0120  138.6640 C   0  0  0  0  0  2  0  0  0  0  0  0
  189.6230  171.2770  136.0370 C   0  0  0  0  0  1  0  0  0  0  0  0
  189.3450  172.7090  136.4750 C   0  0  2  0  0  3  0  0  0  0  0  0
  189.9160  173.6970  135.4370 C   0  0  0  0  0  2  0  0  0  0  0  0
  189.9540  175.1100  135.8610 N   0  0  0  0  0  0  0  0  0  0  0  0
  192.2320  174.7370  134.7410 C   0  0  0  0  0  2  0  0  0  0  0  0
  191.0290  177.0050  134.5130 C   0  0  0  0  0  1  0  0  0  0  0  0
  191.1780  175.7020  135.2700 C   0  0  1  0  0  0  0  0  0  0  0  0
  192.5310  175.5630  135.9810 C   0  0  1  0  0  3  0  0  0  0  0  0
  192.5120  174.6730  137.2140 C   0  0  0  0  0  2  0  0  0  0  0  0
  193.7490  173.7900  137.2600 C   0  0  0  0  0  2  0  0  0  0  0  0
  194.8720  174.6390  137.2990 O   0  0  0  0  0  1  0  0  0  0  0  0
  188.8430  175.7360  135.3330 O   0  0  0  0  0  0  0  0  0  0  0  0
  187.8600  175.7130  136.3510 C   0  0  0  0  0  1  0  0  0  0  0  0
  195.7230  174.8320  145.9050 O   0  0  0  0  0  0  0  0  0  0  0  0
  194.1900  176.4910  146.3170 O   0  0  0  0  0  1  0  0  0  0  0  0
  194.5320  175.2420  145.8090 C   0  0  0  0  0  0  0  0  0  0  0  0
  186.8220  176.0530  142.4180 O   0  0  0  0  0  0  0  0  0  0  0  0
  187.8800  176.7590  142.3750 C   0  0  0  0  0  0  0  0  0  0  0  0
  187.9930  177.7750  141.4320 O   0  0  0  0  0  0  0  0  0  0  0  0
  186.8470  178.3680  140.9830 O   0  0  0  0  0  0  0  0  0  0  0  0
  186.4380  177.0380  138.9900 O   0  0  0  0  0  0  0  0  0  0  0  0
  185.9680  177.7270  140.1140 C   0  0  0  0  0  0  0  0  0  0  0  0
  184.7240  177.8370  140.2860 O   0  0  0  0  0  1  0  0  0  0  0  0
  196.2440  170.0950  141.7260 N   0  0  0  0  0  2  0  0  0  0  0  0
  196.7720  170.2570  140.3850 C   0  0  2  0  0  3  0  0  0  0  0  0
  195.3990  168.3770  139.6380 O   0  0  0  0  0  1  0  0  0  0  0  0
  196.6160  171.5110  138.2990 C   0  0  0  0  0  2  0  0  0  0  0  0
  196.9850  169.2970  138.0470 C   0  0  0  0  0  2  0  0  0  0  0  0
  196.0970  171.4510  139.7280 C   0  0  0  0  0  2  0  0  0  0  0  0
  196.1640  170.3690  137.6080 O   0  0  0  0  0  0  0  0  0  0  0  0
  196.6700  168.9750  139.5230 C   0  0  1  0  0  3  0  0  0  0  0  0
  189.7370  174.3780  145.8150 O   0  0  0  0  0  0  0  0  0  0  0  0
  189.5560  174.9450  147.0960 C   0  0  0  0  0  3  0  0  0  0  0  0
  188.5660  175.7270  147.4270 N   0  0  0  0  0  0  0  0  0  0  0  0
  187.5110  176.0600  146.5030 C   0  0  0  0  0  2  0  0  0  0  0  0
  187.2370  177.5440  146.5610 C   0  0  2  0  0  3  0  0  0  0  0  0
  188.1010  178.1960  147.4550 O   0  0  0  0  0  1  0  0  0  0  0  0
  184.8040  176.7380  146.6150 C   0  0  0  0  0  1  0  0  0  0  0  0
  185.7510  177.9190  146.8500 C   0  0  2  0  0  3  0  0  0  0  0  0
  183.9690  179.1610  145.8450 O   0  0  0  0  0  1  0  0  0  0  0  0
  185.3450  179.1300  146.0080 C   0  0  2  0  0  3  0  0  0  0  0  0
  185.0370  179.3670  143.6430 O   0  0  0  0  0  1  0  0  0  0  0  0
  186.0010  179.1690  144.6460 C   0  0  0  0  0  2  0  0  0  0  0  0
  2 12  1  0  0  0  0
  2 20  2  0  0  0  0
  3 13  1  0  0  0  0
  4  7  2  0  0  0  0
  5 19  2  0  0  0  0
  5  3  1  0  0  0  0
  6  9  1  0  0  0  0
  6 22  1  1  0  0  0
  6 10  1  0  0  0  0
  7  1  1  0  0  0  0
  9  4  1  1  0  0  0
  9 21  1  0  0  0  0
 10 14  1  6  0  0  0
 13 59  1  1  0  0  0
 13 11  1  0  0  0  0
 15 43  1  0  0  0  0
 15 11  1  0  0  0  0
 16 17  1  0  0  0  0
 17  5  1  0  0  0  0
 18  8  2  6  0  0  0
 18 16  1  0  0  0  0
 18 14  1  0  0  0  0
 20 15  2  0  0  0  0
 21 10  1  0  0  0  0
 21  2  1  1  0  0  0
 22  1  1  0  0  0  0
 23 26  1  0  0  0  0
 24 29  1  6  0  0  0
 24 27  1  0  0  0  0
 24 23  1  0  0  0  0
 25 27  1  6  0  0  0
 25 18  1  0  0  0  0
 26 25  1  0  0  0  0
 29 28  1  6  0  0  0
 30 31  1  0  0  0  0
 30 29  1  0  0  0  0
 32 34  1  0  0  0  0
 32 35  1  0  0  0  0
 34 33  1  6  0  0  0
 34 31  1  0  0  0  0
 34 35  1  0  0  0  0
 35 36  1  1  0  0  0
 36 37  1  0  0  0  0
 37 38  1  0  0  0  0
 39 31  1  0  0  0  0
 39 40  1  0  0  0  0
 43 41  2  0  0  0  0
 43 42  1  0  0  0  0
 45 44  2  0  0  0  0
 45 19  1  0  0  0  0
 46 45  1  0  0  0  0
 47 46  1  0  0  0  0
 48 49  2  0  0  0  0
 49 50  1  0  0  0  0
 49 47  1  0  0  0  0
 51  4  1  0  0  0  0
 52 51  1  1  0  0  0
 54 56  1  0  0  0  0
 55 58  1  0  0  0  0
 56 52  1  0  0  0  0
 57 55  1  0  0  0  0
 57 54  1  0  0  0  0
 58 53  1  6  0  0  0
 58 52  1  0  0  0  0
 59 60  1  0  0  0  0
 60 61  2  0  0  0  0
 62 63  1  0  0  0  0
 62 61  1  0  0  0  0
 63 66  1  0  0  0  0
 63 64  1  1  0  0  0
 66 65  1  6  0  0  0
 68 67  1  6  0  0  0
 68 66  1  0  0  0  0
 69 70  1  0  0  0  0
 70 68  1  0  0  0  0
M  END
>  <MODEL>
2

>  <REMARK>
 VINA RESULT:      -6.4      2.332      9.077
  Name = 
  22 active torsions:
  status: ('A' for Active; 'I' for Inactive)
    1  A    between atoms: O_1  and  O_8
    2  A    between atoms: O_1  and  C_22
    3  A    between atoms: C_3  and  C_9
    4  A    between atoms: C_6  and  C_47
    5  A    between atoms: C_6  and  C_67
    6  A    between atoms: C_7  and  N_16
    7  A    between atoms: C_7  and  C_61
    8  A    between atoms: O_8  and  C_63
    9  A    between atoms: C_9  and  C_66
   10  A    between atoms: C_12  and  N_62
   11  A    between atoms: N_16  and  O_29
   12  A    between atoms: N_16  and  C_33
   13  A    between atoms: O_20  and  C_38
   14  A    between atoms: O_20  and  C_54
   15  A    between atoms: C_34  and  N_62
   16  A    between atoms: C_40  and  C_61
   17  A    between atoms: C_42  and  P_51
   18  A    between atoms: C_43  and  C_44
   19  A    between atoms: C_47  and  C_55
   20  A    between atoms: C_52  and  C_63
   21  A    between atoms: C_55  and  C_64
   22  A    between atoms: N_56  and  C_67
                            x       y       z     vdW  Elec       q    Type
                         _______ _______ _______ _____ _____    ______ ____

>  <TORSDO>
F 22

$$$$
=
 OpenBabel11072409433D

 70 75  0  0  1  0  0  0  0  0999 V2000
  189.2810  174.4000  146.6150 C   0  0  0  0  0  2  0  0  0  0  0  0
  188.7740  175.4950  142.8790 C   0  0  0  0  0  0  0  0  0  0  0  0
  191.7120  173.6120  139.5790 C   0  0  0  0  0  2  0  0  0  0  0  0
  188.6850  176.6260  145.6710 C   0  0  0  0  0  0  0  0  0  0  0  0
  193.1350  173.8950  139.9480 C   0  0  0  0  0  0  0  0  0  0  0  0
  191.0890  175.6630  145.3960 C   0  0  2  0  0  3  0  0  0  0  0  0
  188.3610  175.5760  146.4710 C   0  0  0  0  0  3  0  0  0  0  0  0
  192.7690  176.8140  142.7600 O   0  0  0  0  0  0  0  0  0  0  0  0
  190.0340  176.6870  144.9300 C   0  0  1  0  0  3  0  0  0  0  0  0
  190.8130  174.8600  144.1200 C   0  0  2  0  0  3  0  0  0  0  0  0
  189.4870  172.8070  140.5370 C   0  0  0  0  0  2  0  0  0  0  0  0
  187.5120  175.8130  143.3390 O   0  0  0  0  0  1  0  0  0  0  0  0
  191.0200  172.7890  140.6740 C   0  0  1  0  0  3  0  0  0  0  0  0
  191.7940  174.3790  143.2350 O   0  0  0  0  0  0  0  0  0  0  0  0
  188.9060  174.1870  140.6120 C   0  0  0  0  0  0  0  0  0  0  0  0
  194.1170  174.7220  141.9600 O   0  0  0  0  0  0  0  0  0  0  0  0
  193.3960  174.9360  140.8380 O   0  0  0  0  0  0  0  0  0  0  0  0
  193.1520  175.4060  143.1750 P   0  0  1  0  0  0  0  0  0  0  0  0
  194.0940  173.1250  139.4350 C   0  0  0  0  0  3  0  0  0  0  0  0
  188.8860  174.8320  141.7640 C   0  0  0  0  0  0  0  0  0  0  0  0
  190.0240  176.0080  143.5490 C   0  0  1  0  0  3  0  0  0  0  0  0
  190.7280  174.9020  146.6730 C   0  0  0  0  0  2  0  0  0  0  0  0
  194.3300  173.1540  145.2920 C   0  0  0  0  0  2  0  0  0  0  0  0
  195.5720  173.5480  144.5180 C   0  0  1  0  0  3  0  0  0  0  0  0
  194.0780  175.3460  144.7620 C   0  0  1  0  0  3  0  0  0  0  0  0
  193.5660  174.3110  145.5630 O   0  0  0  0  0  0  0  0  0  0  0  0
  195.5250  175.0500  144.4830 C   0  0  0  0  0  2  0  0  0  0  0  0
  197.9140  173.8370  145.5680 C   0  0  0  0  0  1  0  0  0  0  0  0
  196.7960  172.8740  145.1880 C   0  0  2  0  0  3  0  0  0  0  0  0
  197.3740  171.6840  144.3930 C   0  0  0  0  0  2  0  0  0  0  0  0
  196.8990  170.3520  144.8130 N   0  0  0  0  0  0  0  0  0  0  0  0
  195.6940  170.0550  142.5670 C   0  0  0  0  0  2  0  0  0  0  0  0
  197.9410  168.8700  143.0000 C   0  0  0  0  0  1  0  0  0  0  0  0
  196.7190  169.5530  143.5770 C   0  0  1  0  0  0  0  0  0  0  0  0
  195.4170  168.7740  143.3360 C   0  0  1  0  0  3  0  0  0  0  0  0
  194.3320  169.0170  144.3740 C   0  0  0  0  0  2  0  0  0  0  0  0
  193.2180  169.8750  143.7950 C   0  0  0  0  0  2  0  0  0  0  0  0
  192.2570  169.0060  143.2450 O   0  0  0  0  0  1  0  0  0  0  0  0
  197.8870  169.7780  145.5870 O   0  0  0  0  0  0  0  0  0  0  0  0
  197.2180  169.0900  146.6280 C   0  0  0  0  0  1  0  0  0  0  0  0
  188.0350  174.0880  138.4180 O   0  0  0  0  0  0  0  0  0  0  0  0
  187.4170  175.9150  139.6640 O   0  0  0  0  0  1  0  0  0  0  0  0
  188.0610  174.6890  139.5280 C   0  0  0  0  0  0  0  0  0  0  0  0
  196.2270  172.1660  139.9970 O   0  0  0  0  0  0  0  0  0  0  0  0
  195.5510  173.2020  139.6960 C   0  0  0  0  0  0  0  0  0  0  0  0
  196.2000  174.4150  139.4950 O   0  0  0  0  0  0  0  0  0  0  0  0
  197.0270  174.5330  138.4140 O   0  0  0  0  0  0  0  0  0  0  0  0
  196.3630  173.4820  136.3260 O   0  0  0  0  0  0  0  0  0  0  0  0
  196.5420  174.6260  137.1130 C   0  0  0  0  0  0  0  0  0  0  0  0
  196.3420  175.7590  136.5970 O   0  0  0  0  0  1  0  0  0  0  0  0
  187.8460  177.7710  145.5730 N   0  0  0  0  0  2  0  0  0  0  0  0
  186.4020  177.7150  145.4430 C   0  0  2  0  0  3  0  0  0  0  0  0
  186.1840  178.8810  147.5820 O   0  0  0  0  0  1  0  0  0  0  0  0
  184.4340  178.7270  144.4180 C   0  0  0  0  0  2  0  0  0  0  0  0
  184.1460  178.0520  146.5550 C   0  0  0  0  0  2  0  0  0  0  0  0
  185.9550  178.7660  144.4380 C   0  0  0  0  0  2  0  0  0  0  0  0
  183.9560  179.1500  145.6750 O   0  0  0  0  0  0  0  0  0  0  0  0
  185.6560  177.8380  146.7950 C   0  0  1  0  0  3  0  0  0  0  0  0
  191.4630  171.4040  140.6980 O   0  0  0  0  0  0  0  0  0  0  0  0
  192.7890  171.0450  140.3660 C   0  0  0  0  0  3  0  0  0  0  0  0
  193.1130  170.0780  139.5520 N   0  0  0  0  0  0  0  0  0  0  0  0
  192.1200  169.2930  138.8610 C   0  0  0  0  0  2  0  0  0  0  0  0
  192.4090  169.3050  137.3780 C   0  0  2  0  0  3  0  0  0  0  0  0
  193.5760  170.0270  137.0830 O   0  0  0  0  0  1  0  0  0  0  0  0
  191.4770  169.5280  135.0010 C   0  0  0  0  0  1  0  0  0  0  0  0
  191.2190  169.7800  136.4890 C   0  0  2  0  0  3  0  0  0  0  0  0
  189.7470  171.3880  137.4770 O   0  0  0  0  0  1  0  0  0  0  0  0
  190.9250  171.2560  136.7580 C   0  0  2  0  0  3  0  0  0  0  0  0
  189.4880  172.4230  135.2350 O   0  0  0  0  0  1  0  0  0  0  0  0
  190.8270  172.0940  135.5020 C   0  0  0  0  0  2  0  0  0  0  0  0
  1 22  1  0  0  0  0
  2 12  1  0  0  0  0
  3  5  1  0  0  0  0
  3 13  1  0  0  0  0
  4  7  2  0  0  0  0
  5 17  1  0  0  0  0
  6 22  1  1  0  0  0
  7  1  1  0  0  0  0
  9  6  1  0  0  0  0
  9  4  1  1  0  0  0
 10 14  1  6  0  0  0
 10  6  1  0  0  0  0
 11 15  1  0  0  0  0
 11 13  1  0  0  0  0
 13 59  1  6  0  0  0
 15 20  2  0  0  0  0
 16 18  1  0  0  0  0
 17 16  1  0  0  0  0
 18  8  2  6  0  0  0
 18 14  1  0  0  0  0
 18 25  1  0  0  0  0
 19 45  1  0  0  0  0
 19  5  2  0  0  0  0
 20  2  2  0  0  0  0
 21  2  1  1  0  0  0
 21 10  1  0  0  0  0
 21  9  1  0  0  0  0
 23 26  1  0  0  0  0
 24 29  1  1  0  0  0
 24 23  1  0  0  0  0
 25 27  1  6  0  0  0
 25 26  1  0  0  0  0
 27 24  1  0  0  0  0
 29 28  1  6  0  0  0
 30 31  1  0  0  0  0
 30 29  1  0  0  0  0
 31 39  1  0  0  0  0
 32 35  1  0  0  0  0
 32 34  1  0  0  0  0
 34 33  1  6  0  0  0
 34 31  1  0  0  0  0
 35 34  1  0  0  0  0
 35 36  1  1  0  0  0
 37 36  1  0  0  0  0
 38 37  1  0  0  0  0
 39 40  1  0  0  0  0
 41 43  2  0  0  0  0
 43 42  1  0  0  0  0
 43 15  1  0  0  0  0
 45 44  2  0  0  0  0
 46 45  1  0  0  0  0
 47 46  1  0  0  0  0
 48 49  2  0  0  0  0
 49 47  1  0  0  0  0
 50 49  1  0  0  0  0
 51  4  1  0  0  0  0
 52 51  1  1  0  0  0
 52 58  1  0  0  0  0
 54 56  1  0  0  0  0
 54 57  1  0  0  0  0
 55 58  1  0  0  0  0
 56 52  1  0  0  0  0
 57 55  1  0  0  0  0
 58 53  1  6  0  0  0
 60 59  1  0  0  0  0
 61 60  2  0  0  0  0
 62 61  1  0  0  0  0
 63 64  1  1  0  0  0
 63 62  1  0  0  0  0
 66 65  1  6  0  0  0
 66 68  1  0  0  0  0
 66 63  1  0  0  0  0
 68 67  1  6  0  0  0
 69 70  1  0  0  0  0
 70 68  1  0  0  0  0
M  END
>  <MODEL>
3

>  <REMARK>
 VINA RESULT:      -6.0      2.349      7.242
  Name = 
  22 active torsions:
  status: ('A' for Active; 'I' for Inactive)
    1  A    between atoms: O_1  and  O_8
    2  A    between atoms: O_1  and  C_22
    3  A    between atoms: C_3  and  C_9
    4  A    between atoms: C_6  and  C_47
    5  A    between atoms: C_6  and  C_67
    6  A    between atoms: C_7  and  N_16
    7  A    between atoms: C_7  and  C_61
    8  A    between atoms: O_8  and  C_63
    9  A    between atoms: C_9  and  C_66
   10  A    between atoms: C_12  and  N_62
   11  A    between atoms: N_16  and  O_29
   12  A    between atoms: N_16  and  C_33
   13  A    between atoms: O_20  and  C_38
   14  A    between atoms: O_20  and  C_54
   15  A    between atoms: C_34  and  N_62
   16  A    between atoms: C_40  and  C_61
   17  A    between atoms: C_42  and  P_51
   18  A    between atoms: C_43  and  C_44
   19  A    between atoms: C_47  and  C_55
   20  A    between atoms: C_52  and  C_63
   21  A    between atoms: C_55  and  C_64
   22  A    between atoms: N_56  and  C_67
                            x       y       z     vdW  Elec       q    Type
                         _______ _______ _______ _____ _____    ______ ____

>  <TORSDO>
F 22

$$$$
=
 OpenBabel11072409433D

 70 75  0  0  1  0  0  0  0  0999 V2000
  194.0580  176.2590  143.6280 C   0  0  0  0  0  2  0  0  0  0  0  0
  193.7870  172.6130  145.0580 C   0  0  0  0  0  0  0  0  0  0  0  0
  193.8580  168.9720  141.9270 C   0  0  0  0  0  2  0  0  0  0  0  0
  192.6940  175.3840  145.5180 C   0  0  0  0  0  0  0  0  0  0  0  0
  192.7650  169.1490  140.9200 C   0  0  0  0  0  0  0  0  0  0  0  0
  192.0830  174.8040  143.0540 C   0  0  2  0  0  3  0  0  0  0  0  0
  193.6630  176.2280  145.0740 C   0  0  0  0  0  3  0  0  0  0  0  0
  190.3920  171.9610  142.6590 O   0  0  0  0  0  0  0  0  0  0  0  0
  191.9160  174.4720  144.5510 C   0  0  1  0  0  3  0  0  0  0  0  0
  192.9990  173.5820  142.9270 C   0  0  2  0  0  3  0  0  0  0  0  0
  195.7320  170.2200  143.1310 C   0  0  0  0  0  2  0  0  0  0  0  0
  194.2330  173.2320  146.2090 O   0  0  0  0  0  1  0  0  0  0  0  0
  194.8350  170.1550  141.8820 C   0  0  1  0  0  3  0  0  0  0  0  0
  192.8850  172.5800  141.9480 O   0  0  0  0  0  0  0  0  0  0  0  0
  194.9540  170.3590  144.4050 C   0  0  0  0  0  0  0  0  0  0  0  0
  191.3530  171.0090  140.4220 O   0  0  0  0  0  0  0  0  0  0  0  0
  191.6980  169.9890  141.2380 O   0  0  0  0  0  0  0  0  0  0  0  0
  191.2670  172.3340  141.4760 P   0  0  1  0  0  0  0  0  0  0  0  0
  192.8660  168.5210  139.7490 C   0  0  0  0  0  3  0  0  0  0  0  0
  194.3500  171.4990  144.6880 C   0  0  0  0  0  0  0  0  0  0  0  0
  192.5840  173.1090  144.2960 C   0  0  1  0  0  3  0  0  0  0  0  0
  192.8000  176.1240  142.7630 C   0  0  0  0  0  2  0  0  0  0  0  0
  188.4460  173.3910  140.1100 C   0  0  0  0  0  2  0  0  0  0  0  0
  188.4870  174.1730  141.4060 C   0  0  1  0  0  3  0  0  0  0  0  0
  190.6380  173.7870  140.5400 C   0  0  1  0  0  3  0  0  0  0  0  0
  189.7420  173.3520  139.5490 O   0  0  0  0  0  0  0  0  0  0  0  0
  189.8940  174.6970  141.4770 C   0  0  0  0  0  2  0  0  0  0  0  0
  187.4000  176.2120  140.2520 C   0  0  0  0  0  1  0  0  0  0  0  0
  187.3290  175.2020  141.3910 C   0  0  2  0  0  3  0  0  0  0  0  0
  187.1190  175.9360  142.7320 C   0  0  0  0  0  2  0  0  0  0  0  0
  187.3110  177.3980  142.6900 N   0  0  0  0  0  0  0  0  0  0  0  0
  184.8410  177.2530  143.3720 C   0  0  0  0  0  2  0  0  0  0  0  0
  186.4700  178.7400  144.7050 C   0  0  0  0  0  1  0  0  0  0  0  0
  186.1690  178.0000  143.4190 C   0  0  1  0  0  0  0  0  0  0  0  0
  184.9750  178.5830  142.6490 C   0  0  1  0  0  3  0  0  0  0  0  0
  185.0170  178.3540  141.1460 C   0  0  0  0  0  2  0  0  0  0  0  0
  183.6920  178.7390  140.5060 C   0  0  0  0  0  2  0  0  0  0  0  0
  182.8990  177.5770  140.4440 O   0  0  0  0  0  1  0  0  0  0  0  0
  188.4820  177.6870  143.3600 O   0  0  0  0  0  0  0  0  0  0  0  0
  189.3540  178.2510  142.3980 C   0  0  0  0  0  1  0  0  0  0  0  0
  195.2850  168.1660  145.2210 O   0  0  0  0  0  0  0  0  0  0  0  0
  194.9810  169.7950  146.8110 O   0  0  0  0  0  1  0  0  0  0  0  0
  195.1360  169.3910  145.4880 C   0  0  0  0  0  0  0  0  0  0  0  0
  190.7130  168.2230  138.7180 O   0  0  0  0  0  0  0  0  0  0  0  0
  191.9270  168.5890  138.6040 C   0  0  0  0  0  0  0  0  0  0  0  0
  192.3630  169.1710  137.4190 O   0  0  0  0  0  0  0  0  0  0  0  0
  193.7080  169.3280  137.2340 O   0  0  0  0  0  0  0  0  0  0  0  0
  195.7440  168.6480  136.0940 O   0  0  0  0  0  1  0  0  0  0  0  0
  194.3610  168.8640  136.0950 C   0  0  0  0  0  0  0  0  0  0  0  0
  193.7190  168.7170  135.0190 O   0  0  0  0  0  0  0  0  0  0  0  0
  192.2720  175.3870  146.8770 N   0  0  0  0  0  2  0  0  0  0  0  0
  190.9300  175.7220  147.3140 C   0  0  2  0  0  3  0  0  0  0  0  0
  190.7770  177.3720  145.5150 O   0  0  0  0  0  1  0  0  0  0  0  0
  188.5770  175.0850  147.2550 C   0  0  0  0  0  2  0  0  0  0  0  0
  188.9590  177.3070  147.1230 C   0  0  0  0  0  2  0  0  0  0  0  0
  189.9740  174.6320  146.8560 C   0  0  0  0  0  2  0  0  0  0  0  0
  188.2480  176.2380  146.5150 O   0  0  0  0  0  0  0  0  0  0  0  0
  190.4710  177.1330  146.8710 C   0  0  1  0  0  3  0  0  0  0  0  0
  195.6900  170.1320  140.7050 O   0  0  0  0  0  0  0  0  0  0  0  0
  195.4480  170.9770  139.5980 C   0  0  0  0  0  3  0  0  0  0  0  0
  195.8550  172.2130  139.5070 N   0  0  0  0  0  0  0  0  0  0  0  0
  196.6500  172.8350  140.5370 C   0  0  0  0  0  2  0  0  0  0  0  0
  197.2090  174.1410  140.0230 C   0  0  2  0  0  3  0  0  0  0  0  0
  197.9410  174.8160  141.0120 O   0  0  0  0  0  1  0  0  0  0  0  0
  194.7840  174.9720  140.0430 C   0  0  0  0  0  1  0  0  0  0  0  0
  196.1540  175.0850  139.3680 C   0  0  2  0  0  3  0  0  0  0  0  0
  197.0930  175.4290  137.1940 O   0  0  0  0  0  1  0  0  0  0  0  0
  196.0590  174.8000  137.8690 C   0  0  2  0  0  3  0  0  0  0  0  0
  194.8280  175.2000  135.8510 O   0  0  0  0  0  1  0  0  0  0  0  0
  194.7440  175.2240  137.2530 C   0  0  0  0  0  2  0  0  0  0  0  0
  1  7  1  0  0  0  0
  2 12  1  0  0  0  0
  4 51  1  0  0  0  0
  5 17  1  0  0  0  0
  5  3  1  0  0  0  0
  6 22  1  1  0  0  0
  6  9  1  0  0  0  0
  7  4  2  0  0  0  0
  9  4  1  1  0  0  0
 10 14  1  6  0  0  0
 10  6  1  0  0  0  0
 10 21  1  0  0  0  0
 11 15  1  0  0  0  0
 13 59  1  6  0  0  0
 13  3  1  0  0  0  0
 13 11  1  0  0  0  0
 15 20  2  0  0  0  0
 15 43  1  0  0  0  0
 16 17  1  0  0  0  0
 16 18  1  0  0  0  0
 18 14  1  0  0  0  0
 18  8  2  1  0  0  0
 19  5  2  0  0  0  0
 20  2  2  0  0  0  0
 21  9  1  0  0  0  0
 21  2  1  1  0  0  0
 22  1  1  0  0  0  0
 23 24  1  0  0  0  0
 24 29  1  6  0  0  0
 24 27  1  0  0  0  0
 25 18  1  0  0  0  0
 25 27  1  1  0  0  0
 26 23  1  0  0  0  0
 26 25  1  0  0  0  0
 29 28  1  6  0  0  0
 29 30  1  0  0  0  0
 31 30  1  0  0  0  0
 31 39  1  0  0  0  0
 31 34  1  0  0  0  0
 32 34  1  0  0  0  0
 34 33  1  1  0  0  0
 35 36  1  6  0  0  0
 35 32  1  0  0  0  0
 35 34  1  0  0  0  0
 37 36  1  0  0  0  0
 38 37  1  0  0  0  0
 40 39  1  0  0  0  0
 41 43  2  0  0  0  0
 43 42  1  0  0  0  0
 45 44  2  0  0  0  0
 45 19  1  0  0  0  0
 46 45  1  0  0  0  0
 47 46  1  0  0  0  0
 48 49  1  0  0  0  0
 49 47  1  0  0  0  0
 50 49  2  0  0  0  0
 52 51  1  6  0  0  0
 56 54  1  0  0  0  0
 56 52  1  0  0  0  0
 57 55  1  0  0  0  0
 57 54  1  0  0  0  0
 58 53  1  6  0  0  0
 58 55  1  0  0  0  0
 58 52  1  0  0  0  0
 60 59  1  0  0  0  0
 61 60  2  0  0  0  0
 61 62  1  0  0  0  0
 63 62  1  0  0  0  0
 63 64  1  1  0  0  0
 66 63  1  0  0  0  0
 66 65  1  1  0  0  0
 68 67  1  6  0  0  0
 68 66  1  0  0  0  0
 69 70  1  0  0  0  0
 70 68  1  0  0  0  0
M  END
>  <MODEL>
4

>  <REMARK>
 VINA RESULT:      -5.2      2.448      6.934
  Name = 
  22 active torsions:
  status: ('A' for Active; 'I' for Inactive)
    1  A    between atoms: O_1  and  O_8
    2  A    between atoms: O_1  and  C_22
    3  A    between atoms: C_3  and  C_9
    4  A    between atoms: C_6  and  C_47
    5  A    between atoms: C_6  and  C_67
    6  A    between atoms: C_7  and  N_16
    7  A    between atoms: C_7  and  C_61
    8  A    between atoms: O_8  and  C_63
    9  A    between atoms: C_9  and  C_66
   10  A    between atoms: C_12  and  N_62
   11  A    between atoms: N_16  and  O_29
   12  A    between atoms: N_16  and  C_33
   13  A    between atoms: O_20  and  C_38
   14  A    between atoms: O_20  and  C_54
   15  A    between atoms: C_34  and  N_62
   16  A    between atoms: C_40  and  C_61
   17  A    between atoms: C_42  and  P_51
   18  A    between atoms: C_43  and  C_44
   19  A    between atoms: C_47  and  C_55
   20  A    between atoms: C_52  and  C_63
   21  A    between atoms: C_55  and  C_64
   22  A    between atoms: N_56  and  C_67
                            x       y       z     vdW  Elec       q    Type
                         _______ _______ _______ _____ _____    ______ ____

>  <TORSDO>
F 22

$$$$
=
 OpenBabel11072409433D

 70 75  0  0  1  0  0  0  0  0999 V2000
  190.3200  170.4140  138.6930 C   0  0  0  0  0  2  0  0  0  0  0  0
  192.9100  173.1580  137.6100 C   0  0  0  0  0  0  0  0  0  0  0  0
  196.7290  173.8690  140.4350 C   0  0  0  0  0  2  0  0  0  0  0  0
  189.9410  172.6400  137.6450 C   0  0  0  0  0  0  0  0  0  0  0  0
  196.2770  174.1920  141.8250 C   0  0  0  0  0  0  0  0  0  0  0  0
  190.7010  172.4500  140.1280 C   0  0  2  0  0  3  0  0  0  0  0  0
  189.8140  171.2880  137.5850 C   0  0  0  0  0  3  0  0  0  0  0  0
  192.3450  175.1010  141.3000 O   0  0  0  0  0  0  0  0  0  0  0  0
  190.5480  173.3380  138.8760 C   0  0  1  0  0  3  0  0  0  0  0  0
  192.2070  172.3860  139.8480 C   0  0  2  0  0  3  0  0  0  0  0  0
  196.3240  172.2670  138.4890 C   0  0  0  0  0  2  0  0  0  0  0  0
  192.3420  172.9380  136.3710 O   0  0  0  0  0  1  0  0  0  0  0  0
  196.2280  172.4810  140.0100 C   0  0  1  0  0  3  0  0  0  0  0  0
  193.2190  172.6350  140.7910 O   0  0  0  0  0  0  0  0  0  0  0  0
  195.5270  173.2640  137.7040 C   0  0  0  0  0  0  0  0  0  0  0  0
  194.1380  174.0340  142.8740 O   0  0  0  0  0  0  0  0  0  0  0  0
  194.9730  174.6510  142.0090 O   0  0  0  0  0  0  0  0  0  0  0  0
  192.7390  173.7870  141.9500 P   0  0  1  0  0  0  0  0  0  0  0  0
  197.1260  174.0030  142.8340 C   0  0  0  0  0  3  0  0  0  0  0  0
  194.2080  173.2030  137.7050 C   0  0  0  0  0  0  0  0  0  0  0  0
  192.0800  173.4840  138.8250 C   0  0  1  0  0  3  0  0  0  0  0  0
  190.0160  171.0860  140.0380 C   0  0  0  0  0  2  0  0  0  0  0  0
  191.7860  173.9540  145.1130 C   0  0  0  0  0  2  0  0  0  0  0  0
  190.8060  174.8880  144.4330 C   0  0  1  0  0  3  0  0  0  0  0  0
  191.4300  173.0990  143.0420 C   0  0  1  0  0  3  0  0  0  0  0  0
  191.9770  172.8110  144.3040 O   0  0  0  0  0  0  0  0  0  0  0  0
  190.3440  174.1230  143.2240 C   0  0  0  0  0  2  0  0  0  0  0  0
  189.5160  174.3070  146.5940 C   0  0  0  0  0  1  0  0  0  0  0  0
  189.7400  175.3150  145.4730 C   0  0  2  0  0  3  0  0  0  0  0  0
  188.3860  175.7240  144.8560 C   0  0  0  0  0  2  0  0  0  0  0  0
  188.2610  177.1470  144.4910 N   0  0  0  0  0  0  0  0  0  0  0  0
  185.7060  177.1760  144.7230 C   0  0  0  0  0  2  0  0  0  0  0  0
  187.1960  177.9370  146.6840 C   0  0  0  0  0  1  0  0  0  0  0  0
  187.0670  177.6690  145.1990 C   0  0  1  0  0  0  0  0  0  0  0  0
  186.0980  178.6260  144.4900 C   0  0  1  0  0  3  0  0  0  0  0  0
  186.3950  178.8520  143.0160 C   0  0  0  0  0  2  0  0  0  0  0  0
  186.2300  177.5610  142.2290 C   0  0  0  0  0  2  0  0  0  0  0  0
  185.2180  177.7750  141.2730 O   0  0  0  0  0  1  0  0  0  0  0  0
  189.3860  177.7990  144.9530 O   0  0  0  0  0  0  0  0  0  0  0  0
  190.0680  178.2660  143.8040 C   0  0  0  0  0  1  0  0  0  0  0  0
  195.9600  175.3210  136.6230 O   0  0  0  0  0  1  0  0  0  0  0  0
  196.8950  173.4610  135.6560 O   0  0  0  0  0  0  0  0  0  0  0  0
  196.1760  174.0780  136.6740 C   0  0  0  0  0  0  0  0  0  0  0  0
  196.7680  173.2390  145.0860 O   0  0  0  0  0  0  0  0  0  0  0  0
  196.8740  174.2170  144.2790 C   0  0  0  0  0  0  0  0  0  0  0  0
  196.8690  175.5190  144.7680 O   0  0  0  0  0  0  0  0  0  0  0  0
  195.7630  176.2890  144.5410 O   0  0  0  0  0  0  0  0  0  0  0  0
  194.5920  175.5230  146.5280 O   0  0  0  0  0  1  0  0  0  0  0  0
  194.7610  176.4500  145.4940 C   0  0  0  0  0  0  0  0  0  0  0  0
  193.9340  177.3960  145.3800 O   0  0  0  0  0  0  0  0  0  0  0  0
  189.4140  173.4810  136.6250 N   0  0  0  0  0  2  0  0  0  0  0  0
  188.8170  174.7810  136.8660 C   0  0  2  0  0  3  0  0  0  0  0  0
  188.1520  174.8910  134.5160 O   0  0  0  0  0  1  0  0  0  0  0  0
  186.8690  175.9740  137.7220 C   0  0  0  0  0  2  0  0  0  0  0  0
  187.7910  176.8750  135.8670 C   0  0  0  0  0  2  0  0  0  0  0  0
  187.4910  174.5910  137.5850 C   0  0  0  0  0  2  0  0  0  0  0  0
  186.5590  176.4570  136.4360 O   0  0  0  0  0  0  0  0  0  0  0  0
  188.6760  175.6420  135.5870 C   0  0  1  0  0  3  0  0  0  0  0  0
  196.9430  171.4010  140.6710 O   0  0  0  0  0  0  0  0  0  0  0  0
  197.4820  170.3160  139.9440 C   0  0  0  0  0  3  0  0  0  0  0  0
  197.0790  169.0790  140.0500 N   0  0  0  0  0  0  0  0  0  0  0  0
  195.9850  168.7020  140.9100 C   0  0  0  0  0  2  0  0  0  0  0  0
  194.8700  169.7140  140.7820 C   0  0  2  0  0  3  0  0  0  0  0  0
  194.4530  170.1880  142.0350 O   0  0  0  0  0  1  0  0  0  0  0  0
  192.8300  168.1660  140.6650 C   0  0  0  0  0  1  0  0  0  0  0  0
  193.6510  169.2320  139.9350 C   0  0  2  0  0  3  0  0  0  0  0  0
  194.7760  169.7410  137.8850 O   0  0  0  0  0  1  0  0  0  0  0  0
  194.1300  168.7260  138.5740 C   0  0  2  0  0  3  0  0  0  0  0  0
  192.9130  168.9160  136.5170 O   0  0  0  0  0  1  0  0  0  0  0  0
  193.0200  168.1760  137.7060 C   0  0  0  0  0  2  0  0  0  0  0  0
  1 22  1  0  0  0  0
  2 20  2  0  0  0  0
  3  5  1  0  0  0  0
  5 17  1  0  0  0  0
  5 19  2  0  0  0  0
  6 22  1  6  0  0  0
  7  4  2  0  0  0  0
  7  1  1  0  0  0  0
  9  4  1  6  0  0  0
  9  6  1  0  0  0  0
 10  6  1  0  0  0  0
 10 14  1  1  0  0  0
 11 13  1  0  0  0  0
 12  2  1  0  0  0  0
 13  3  1  0  0  0  0
 13 59  1  1  0  0  0
 14 18  1  0  0  0  0
 15 20  2  0  0  0  0
 15 11  1  0  0  0  0
 17 16  1  0  0  0  0
 18  8  2  6  0  0  0
 18 16  1  0  0  0  0
 18 25  1  0  0  0  0
 19 45  1  0  0  0  0
 21  2  1  6  0  0  0
 21  9  1  0  0  0  0
 21 10  1  0  0  0  0
 24 23  1  0  0  0  0
 24 29  1  1  0  0  0
 25 27  1  1  0  0  0
 25 26  1  0  0  0  0
 26 23  1  0  0  0  0
 27 24  1  0  0  0  0
 29 28  1  1  0  0  0
 30 29  1  0  0  0  0
 31 30  1  0  0  0  0
 31 39  1  0  0  0  0
 31 34  1  0  0  0  0
 32 34  1  0  0  0  0
 34 33  1  1  0  0  0
 35 36  1  6  0  0  0
 35 32  1  0  0  0  0
 35 34  1  0  0  0  0
 37 36  1  0  0  0  0
 38 37  1  0  0  0  0
 40 39  1  0  0  0  0
 41 43  1  0  0  0  0
 42 43  2  0  0  0  0
 43 15  1  0  0  0  0
 45 46  1  0  0  0  0
 45 44  2  0  0  0  0
 47 46  1  0  0  0  0
 47 49  1  0  0  0  0
 49 48  1  0  0  0  0
 50 49  2  0  0  0  0
 51  4  1  0  0  0  0
 52 51  1  6  0  0  0
 52 56  1  0  0  0  0
 55 57  1  0  0  0  0
 56 54  1  0  0  0  0
 57 54  1  0  0  0  0
 58 53  1  6  0  0  0
 58 55  1  0  0  0  0
 58 52  1  0  0  0  0
 60 61  2  0  0  0  0
 60 59  1  0  0  0  0
 61 62  1  0  0  0  0
 63 62  1  0  0  0  0
 63 64  1  1  0  0  0
 66 65  1  1  0  0  0
 66 63  1  0  0  0  0
 68 67  1  6  0  0  0
 68 66  1  0  0  0  0
 69 70  1  0  0  0  0
 70 68  1  0  0  0  0
M  END
>  <MODEL>
5

>  <REMARK>
 VINA RESULT:      -5.2      2.494      8.697
  Name = 
  22 active torsions:
  status: ('A' for Active; 'I' for Inactive)
    1  A    between atoms: O_1  and  O_8
    2  A    between atoms: O_1  and  C_22
    3  A    between atoms: C_3  and  C_9
    4  A    between atoms: C_6  and  C_47
    5  A    between atoms: C_6  and  C_67
    6  A    between atoms: C_7  and  N_16
    7  A    between atoms: C_7  and  C_61
    8  A    between atoms: O_8  and  C_63
    9  A    between atoms: C_9  and  C_66
   10  A    between atoms: C_12  and  N_62
   11  A    between atoms: N_16  and  O_29
   12  A    between atoms: N_16  and  C_33
   13  A    between atoms: O_20  and  C_38
   14  A    between atoms: O_20  and  C_54
   15  A    between atoms: C_34  and  N_62
   16  A    between atoms: C_40  and  C_61
   17  A    between atoms: C_42  and  P_51
   18  A    between atoms: C_43  and  C_44
   19  A    between atoms: C_47  and  C_55
   20  A    between atoms: C_52  and  C_63
   21  A    between atoms: C_55  and  C_64
   22  A    between atoms: N_56  and  C_67
                            x       y       z     vdW  Elec       q    Type
                         _______ _______ _______ _____ _____    ______ ____

>  <TORSDO>
F 22

$$$$
=
 OpenBabel11072409433D

 70 75  0  0  1  0  0  0  0  0999 V2000
  189.1000  174.9510  146.5980 C   0  0  0  0  0  2  0  0  0  0  0  0
  188.6240  175.7300  142.7800 C   0  0  0  0  0  0  0  0  0  0  0  0
  191.7430  173.7790  139.6930 C   0  0  0  0  0  2  0  0  0  0  0  0
  188.4030  177.0610  145.4750 C   0  0  0  0  0  0  0  0  0  0  0  0
  193.1390  174.1710  140.0680 C   0  0  0  0  0  0  0  0  0  0  0  0
  190.8630  176.2220  145.3230 C   0  0  2  0  0  3  0  0  0  0  0  0
  188.1190  176.0570  146.3460 C   0  0  0  0  0  3  0  0  0  0  0  0
  192.5390  177.2670  142.6400 O   0  0  0  0  0  0  0  0  0  0  0  0
  189.7630  177.1450  144.7590 C   0  0  1  0  0  3  0  0  0  0  0  0
  190.6640  175.3100  144.1070 C   0  0  2  0  0  3  0  0  0  0  0  0
  189.5450  172.9190  140.6660 C   0  0  0  0  0  2  0  0  0  0  0  0
  187.3350  176.0070  143.1890 O   0  0  0  0  0  1  0  0  0  0  0  0
  191.0730  173.0020  140.8340 C   0  0  1  0  0  3  0  0  0  0  0  0
  191.6920  174.8230  143.2810 O   0  0  0  0  0  0  0  0  0  0  0  0
  188.8860  174.2650  140.6230 C   0  0  0  0  0  0  0  0  0  0  0  0
  194.0230  175.2040  142.0300 O   0  0  0  0  0  0  0  0  0  0  0  0
  193.3190  175.2900  140.8810 O   0  0  0  0  0  0  0  0  0  0  0  0
  192.9920  175.9190  143.1700 P   0  0  1  0  0  0  0  0  0  0  0  0
  194.1520  173.4230  139.6350 C   0  0  0  0  0  3  0  0  0  0  0  0
  188.8000  174.9920  141.7220 C   0  0  0  0  0  0  0  0  0  0  0  0
  189.8260  176.3640  143.4330 C   0  0  1  0  0  3  0  0  0  0  0  0
  190.5150  175.5400  146.6470 C   0  0  0  0  0  2  0  0  0  0  0  0
  194.1160  173.9130  145.5460 C   0  0  0  0  0  2  0  0  0  0  0  0
  195.3760  174.2210  144.7630 C   0  0  1  0  0  3  0  0  0  0  0  0
  193.8800  176.0340  144.7750 C   0  0  1  0  0  3  0  0  0  0  0  0
  193.3480  175.0920  145.6720 O   0  0  0  0  0  0  0  0  0  0  0  0
  195.3330  175.7100  144.5630 C   0  0  0  0  0  2  0  0  0  0  0  0
  197.9310  173.8490  144.8560 C   0  0  0  0  0  1  0  0  0  0  0  0
  196.5830  173.6250  145.5310 C   0  0  2  0  0  3  0  0  0  0  0  0
  196.4210  172.1360  145.9010 C   0  0  0  0  0  2  0  0  0  0  0  0
  196.7470  171.1770  144.8290 N   0  0  0  0  0  0  0  0  0  0  0  0
  194.7300  169.9660  145.8510 C   0  0  0  0  0  2  0  0  0  0  0  0
  194.7480  170.5690  143.3450 C   0  0  0  0  0  1  0  0  0  0  0  0
  195.5400  170.3440  144.6170 C   0  0  1  0  0  0  0  0  0  0  0  0
  195.5020  168.8890  145.1070 C   0  0  1  0  0  3  0  0  0  0  0  0
  196.7130  168.4630  145.9210 C   0  0  0  0  0  2  0  0  0  0  0  0
  196.3760  168.4180  147.4030 C   0  0  0  0  0  2  0  0  0  0  0  0
  197.5920  168.3820  148.1120 O   0  0  0  0  0  1  0  0  0  0  0  0
  197.0080  171.9020  143.6830 O   0  0  0  0  0  0  0  0  0  0  0  0
  197.2160  170.9510  142.6560 C   0  0  0  0  0  1  0  0  0  0  0  0
  188.2620  174.1390  138.3470 O   0  0  0  0  0  0  0  0  0  0  0  0
  187.0990  175.6490  139.6260 O   0  0  0  0  0  1  0  0  0  0  0  0
  188.0390  174.6340  139.4870 C   0  0  0  0  0  0  0  0  0  0  0  0
  196.3960  172.6150  139.9490 O   0  0  0  0  0  0  0  0  0  0  0  0
  195.5960  173.6040  139.9180 C   0  0  0  0  0  0  0  0  0  0  0  0
  196.0930  174.8970  140.0400 O   0  0  0  0  0  0  0  0  0  0  0  0
  196.8800  175.3820  139.0340 O   0  0  0  0  0  0  0  0  0  0  0  0
  195.5590  175.5180  136.9990 O   0  0  0  0  0  0  0  0  0  0  0  0
  196.6740  175.0450  137.6990 C   0  0  0  0  0  0  0  0  0  0  0  0
  197.4530  174.2320  137.1300 O   0  0  0  0  0  1  0  0  0  0  0  0
  187.5020  178.1440  145.2730 N   0  0  0  0  0  2  0  0  0  0  0  0
  186.0870  177.9880  144.9930 C   0  0  2  0  0  3  0  0  0  0  0  0
  185.5680  179.0090  147.1540 O   0  0  0  0  0  1  0  0  0  0  0  0
  184.1540  178.9060  143.8240 C   0  0  0  0  0  2  0  0  0  0  0  0
  183.7140  178.0890  145.8840 C   0  0  0  0  0  2  0  0  0  0  0  0
  185.6570  179.0570  144.0020 C   0  0  0  0  0  2  0  0  0  0  0  0
  183.5220  179.2190  145.0450 O   0  0  0  0  0  0  0  0  0  0  0  0
  185.2050  177.9750  146.2660 C   0  0  1  0  0  3  0  0  0  0  0  0
  191.5930  171.6500  140.9730 O   0  0  0  0  0  0  0  0  0  0  0  0
  190.8060  170.5190  140.6610 C   0  0  0  0  0  3  0  0  0  0  0  0
  191.1560  169.5780  139.8280 N   0  0  0  0  0  0  0  0  0  0  0  0
  192.4350  169.5840  139.1610 C   0  0  0  0  0  2  0  0  0  0  0  0
  192.2360  169.8620  137.6900 C   0  0  2  0  0  3  0  0  0  0  0  0
  190.9800  169.4220  137.2440 O   0  0  0  0  0  1  0  0  0  0  0  0
  194.6900  169.1380  137.5290 C   0  0  0  0  0  1  0  0  0  0  0  0
  193.3740  169.3230  136.7690 C   0  0  2  0  0  3  0  0  0  0  0  0
  194.8710  170.2240  135.1330 O   0  0  0  0  0  1  0  0  0  0  0  0
  193.5540  170.2510  135.5660 C   0  0  2  0  0  3  0  0  0  0  0  0
  194.2500  172.5440  135.6290 O   0  0  0  0  0  1  0  0  0  0  0  0
  193.1590  171.6850  135.8410 C   0  0  0  0  0  2  0  0  0  0  0  0
  1 22  1  0  0  0  0
  2 12  1  0  0  0  0
  3  5  1  0  0  0  0
  3 13  1  0  0  0  0
  4  7  2  0  0  0  0
  5 17  1  0  0  0  0
  6 22  1  1  0  0  0
  7  1  1  0  0  0  0
  9  6  1  0  0  0  0
  9  4  1  1  0  0  0
 10 14  1  6  0  0  0
 10  6  1  0  0  0  0
 11 13  1  0  0  0  0
 13 59  1  6  0  0  0
 15 11  1  0  0  0  0
 15 20  2  0  0  0  0
 16 18  1  0  0  0  0
 17 16  1  0  0  0  0
 18  8  2  6  0  0  0
 18 14  1  0  0  0  0
 18 25  1  0  0  0  0
 19 45  1  0  0  0  0
 19  5  2  0  0  0  0
 20  2  2  0  0  0  0
 21  2  1  1  0  0  0
 21 10  1  0  0  0  0
 21  9  1  0  0  0  0
 23 26  1  0  0  0  0
 24 29  1  1  0  0  0
 24 23  1  0  0  0  0
 25 27  1  6  0  0  0
 25 26  1  0  0  0  0
 27 24  1  0  0  0  0
 29 28  1  6  0  0  0
 29 30  1  0  0  0  0
 31 30  1  0  0  0  0
 34 33  1  6  0  0  0
 34 31  1  0  0  0  0
 34 35  1  0  0  0  0
 34 32  1  0  0  0  0
 35 32  1  0  0  0  0
 35 36  1  1  0  0  0
 36 37  1  0  0  0  0
 37 38  1  0  0  0  0
 39 31  1  0  0  0  0
 40 39  1  0  0  0  0
 41 43  2  0  0  0  0
 43 42  1  0  0  0  0
 43 15  1  0  0  0  0
 45 44  2  0  0  0  0
 45 46  1  0  0  0  0
 47 46  1  0  0  0  0
 48 49  2  0  0  0  0
 49 47  1  0  0  0  0
 50 49  1  0  0  0  0
 51  4  1  0  0  0  0
 52 51  1  1  0  0  0
 52 58  1  0  0  0  0
 54 56  1  0  0  0  0
 54 57  1  0  0  0  0
 55 58  1  0  0  0  0
 56 52  1  0  0  0  0
 57 55  1  0  0  0  0
 58 53  1  1  0  0  0
 60 59  1  0  0  0  0
 61 60  2  0  0  0  0
 62 61  1  0  0  0  0
 63 64  1  6  0  0  0
 63 62  1  0  0  0  0
 66 65  1  1  0  0  0
 66 63  1  0  0  0  0
 68 67  1  1  0  0  0
 68 70  1  0  0  0  0
 68 66  1  0  0  0  0
 69 70  1  0  0  0  0
M  END
>  <MODEL>
6

>  <REMARK>
 VINA RESULT:      -4.9      2.338      7.207
  Name = 
  22 active torsions:
  status: ('A' for Active; 'I' for Inactive)
    1  A    between atoms: O_1  and  O_8
    2  A    between atoms: O_1  and  C_22
    3  A    between atoms: C_3  and  C_9
    4  A    between atoms: C_6  and  C_47
    5  A    between atoms: C_6  and  C_67
    6  A    between atoms: C_7  and  N_16
    7  A    between atoms: C_7  and  C_61
    8  A    between atoms: O_8  and  C_63
    9  A    between atoms: C_9  and  C_66
   10  A    between atoms: C_12  and  N_62
   11  A    between atoms: N_16  and  O_29
   12  A    between atoms: N_16  and  C_33
   13  A    between atoms: O_20  and  C_38
   14  A    between atoms: O_20  and  C_54
   15  A    between atoms: C_34  and  N_62
   16  A    between atoms: C_40  and  C_61
   17  A    between atoms: C_42  and  P_51
   18  A    between atoms: C_43  and  C_44
   19  A    between atoms: C_47  and  C_55
   20  A    between atoms: C_52  and  C_63
   21  A    between atoms: C_55  and  C_64
   22  A    between atoms: N_56  and  C_67
                            x       y       z     vdW  Elec       q    Type
                         _______ _______ _______ _____ _____    ______ ____

>  <TORSDO>
F 22

$$$$
=
 OpenBabel11072409433D

 70 75  0  0  1  0  0  0  0  0999 V2000
  191.8810  168.7620  142.6950 C   0  0  0  0  0  2  0  0  0  0  0  0
  194.2760  171.8290  143.2160 C   0  0  0  0  0  0  0  0  0  0  0  0
  192.3010  176.0150  144.4980 C   0  0  0  0  0  2  0  0  0  0  0  0
  193.9120  169.4350  141.4220 C   0  0  0  0  0  0  0  0  0  0  0  0
  191.2620  176.4130  143.4970 C   0  0  0  0  0  0  0  0  0  0  0  0
  191.6990  170.7920  141.2130 C   0  0  2  0  0  3  0  0  0  0  0  0
  193.2680  168.5120  142.1840 C   0  0  0  0  0  3  0  0  0  0  0  0
  192.0870  173.9830  140.3380 O   0  0  0  0  0  0  0  0  0  0  0  0
  193.2260  170.7450  140.9930 C   0  0  1  0  0  3  0  0  0  0  0  0
  191.9420  171.7120  142.4150 C   0  0  2  0  0  3  0  0  0  0  0  0
  193.1430  174.0370  145.8740 C   0  0  0  0  0  2  0  0  0  0  0  0
  195.2140  170.8300  143.3800 O   0  0  0  0  0  1  0  0  0  0  0  0
  191.9450  174.6700  145.1460 C   0  0  1  0  0  3  0  0  0  0  0  0
  191.2830  172.9310  142.6510 O   0  0  0  0  0  0  0  0  0  0  0  0
  194.3100  173.7760  144.9690 C   0  0  0  0  0  0  0  0  0  0  0  0
  190.2300  175.2030  141.7160 O   0  0  0  0  0  0  0  0  0  0  0  0
  191.3080  175.8370  142.2280 O   0  0  0  0  0  0  0  0  0  0  0  0
  190.8650  173.7180  141.1990 P   0  0  1  0  0  0  0  0  0  0  0  0
  190.3180  177.2790  143.8630 C   0  0  0  0  0  3  0  0  0  0  0  0
  194.2470  172.8080  144.0730 C   0  0  0  0  0  0  0  0  0  0  0  0
  193.3790  171.8960  142.0050 C   0  0  1  0  0  3  0  0  0  0  0  0
  191.0630  169.4560  141.5990 C   0  0  0  0  0  2  0  0  0  0  0  0
  188.8230  174.1260  138.6300 C   0  0  0  0  0  2  0  0  0  0  0  0
  189.9090  173.2500  138.0400 C   0  0  1  0  0  3  0  0  0  0  0  0
  189.5460  172.7910  140.3170 C   0  0  1  0  0  3  0  0  0  0  0  0
  188.5250  173.6790  139.9370 O   0  0  0  0  0  0  0  0  0  0  0  0
  190.1180  172.1760  139.0700 C   0  0  0  0  0  2  0  0  0  0  0  0
  189.4220  171.3100  136.4060 C   0  0  0  0  0  1  0  0  0  0  0  0
  189.4670  172.8180  136.6190 C   0  0  2  0  0  3  0  0  0  0  0  0
  190.2660  173.4860  135.4800 C   0  0  0  0  0  2  0  0  0  0  0  0
  191.6160  172.9380  135.2480 N   0  0  0  0  0  0  0  0  0  0  0  0
  192.1210  174.9370  136.7750 C   0  0  0  0  0  2  0  0  0  0  0  0
  193.1910  172.6400  137.2480 C   0  0  0  0  0  1  0  0  0  0  0  0
  192.5100  173.5590  136.2540 C   0  0  1  0  0  0  0  0  0  0  0  0
  193.3500  174.7930  135.8940 C   0  0  1  0  0  3  0  0  0  0  0  0
  193.0700  175.3700  134.5150 C   0  0  0  0  0  2  0  0  0  0  0  0
  193.2650  176.8780  134.5130 C   0  0  0  0  0  2  0  0  0  0  0  0
  193.7270  177.2450  135.7910 O   0  0  0  0  0  1  0  0  0  0  0  0
  191.5590  171.5760  135.4660 O   0  0  0  0  0  0  0  0  0  0  0  0
  192.4300  170.9900  134.5170 C   0  0  0  0  0  1  0  0  0  0  0  0
  196.6610  173.6230  145.1580 O   0  0  0  0  0  0  0  0  0  0  0  0
  195.7200  175.5890  145.8810 O   0  0  0  0  0  1  0  0  0  0  0  0
  195.6250  174.3350  145.2850 C   0  0  0  0  0  0  0  0  0  0  0  0
  189.3690  178.3940  141.9550 O   0  0  0  0  0  0  0  0  0  0  0  0
  189.1810  177.7740  143.0500 C   0  0  0  0  0  0  0  0  0  0  0  0
  187.8890  177.4480  143.4460 O   0  0  0  0  0  0  0  0  0  0  0  0
  186.8450  178.0010  142.7600 O   0  0  0  0  0  0  0  0  0  0  0  0
  186.7890  176.2330  141.0940 O   0  0  0  0  0  1  0  0  0  0  0  0
  186.4220  177.5120  141.5270 C   0  0  0  0  0  0  0  0  0  0  0  0
  185.7720  178.2580  140.7450 O   0  0  0  0  0  0  0  0  0  0  0  0
  195.2060  169.1830  140.8860 N   0  0  0  0  0  2  0  0  0  0  0  0
  195.7170  169.7860  139.6690 C   0  0  2  0  0  3  0  0  0  0  0  0
  197.8540  170.1850  140.7890 O   0  0  0  0  0  1  0  0  0  0  0  0
  196.6760  169.3690  137.4660 C   0  0  0  0  0  2  0  0  0  0  0  0
  197.5690  171.1260  138.5700 C   0  0  0  0  0  2  0  0  0  0  0  0
  196.0560  168.6860  138.6760 C   0  0  0  0  0  2  0  0  0  0  0  0
  197.9020  169.9460  137.8540 O   0  0  0  0  0  0  0  0  0  0  0  0
  196.9060  170.7480  139.9110 C   0  0  1  0  0  3  0  0  0  0  0  0
  190.8400  174.7760  146.0860 O   0  0  0  0  0  0  0  0  0  0  0  0
  190.9950  175.4050  147.3420 C   0  0  0  0  0  3  0  0  0  0  0  0
  190.3870  176.5020  147.7020 N   0  0  0  0  0  0  0  0  0  0  0  0
  189.4390  177.1680  146.8440 C   0  0  0  0  0  2  0  0  0  0  0  0
  188.0340  176.8510  147.3010 C   0  0  2  0  0  3  0  0  0  0  0  0
  187.6310  175.5720  146.8870 O   0  0  0  0  0  1  0  0  0  0  0  0
  186.8340  179.0100  147.9860 C   0  0  0  0  0  1  0  0  0  0  0  0
  186.9690  177.9230  146.9160 C   0  0  2  0  0  3  0  0  0  0  0  0
  185.6460  176.6280  145.4010 O   0  0  0  0  0  1  0  0  0  0  0  0
  185.6250  177.2470  146.6400 C   0  0  2  0  0  3  0  0  0  0  0  0
  184.0720  178.5860  145.3980 O   0  0  0  0  0  1  0  0  0  0  0  0
  184.4470  178.1950  146.6940 C   0  0  0  0  0  2  0  0  0  0  0  0
  2 12  1  0  0  0  0
  2 20  2  0  0  0  0
  3 13  1  0  0  0  0
  4  7  2  0  0  0  0
  5 19  2  0  0  0  0
  5  3  1  0  0  0  0
  6 22  1  1  0  0  0
  6 10  1  0  0  0  0
  7  1  1  0  0  0  0
  9  6  1  0  0  0  0
  9  4  1  1  0  0  0
  9 21  1  0  0  0  0
 10 14  1  6  0  0  0
 13 11  1  0  0  0  0
 13 59  1  1  0  0  0
 15 43  1  0  0  0  0
 15 11  1  0  0  0  0
 16 17  1  0  0  0  0
 17  5  1  0  0  0  0
 18  8  2  6  0  0  0
 18 16  1  0  0  0  0
 18 14  1  0  0  0  0
 20 15  2  0  0  0  0
 21 10  1  0  0  0  0
 21  2  1  1  0  0  0
 22  1  1  0  0  0  0
 23 26  1  0  0  0  0
 24 29  1  6  0  0  0
 24 23  1  0  0  0  0
 24 27  1  0  0  0  0
 25 27  1  6  0  0  0
 25 18  1  0  0  0  0
 26 25  1  0  0  0  0
 29 28  1  1  0  0  0
 30 29  1  0  0  0  0
 31 39  1  0  0  0  0
 31 30  1  0  0  0  0
 31 34  1  0  0  0  0
 34 32  1  0  0  0  0
 34 33  1  1  0  0  0
 35 36  1  6  0  0  0
 35 34  1  0  0  0  0
 35 32  1  0  0  0  0
 37 36  1  0  0  0  0
 37 38  1  0  0  0  0
 40 39  1  0  0  0  0
 41 43  2  0  0  0  0
 43 42  1  0  0  0  0
 44 45  2  0  0  0  0
 45 46  1  0  0  0  0
 45 19  1  0  0  0  0
 47 46  1  0  0  0  0
 48 49  1  0  0  0  0
 49 47  1  0  0  0  0
 50 49  2  0  0  0  0
 51  4  1  0  0  0  0
 52 58  1  0  0  0  0
 52 51  1  1  0  0  0
 54 57  1  0  0  0  0
 54 56  1  0  0  0  0
 55 58  1  0  0  0  0
 56 52  1  0  0  0  0
 57 55  1  0  0  0  0
 58 53  1  1  0  0  0
 59 60  1  0  0  0  0
 60 61  2  0  0  0  0
 62 63  1  0  0  0  0
 62 61  1  0  0  0  0
 63 64  1  6  0  0  0
 66 63  1  0  0  0  0
 66 65  1  1  0  0  0
 68 67  1  6  0  0  0
 68 70  1  0  0  0  0
 68 66  1  0  0  0  0
 69 70  1  0  0  0  0
M  END
>  <MODEL>
7

>  <REMARK>
 VINA RESULT:      -4.8      2.292      8.937
  Name = 
  22 active torsions:
  status: ('A' for Active; 'I' for Inactive)
    1  A    between atoms: O_1  and  O_8
    2  A    between atoms: O_1  and  C_22
    3  A    between atoms: C_3  and  C_9
    4  A    between atoms: C_6  and  C_47
    5  A    between atoms: C_6  and  C_67
    6  A    between atoms: C_7  and  N_16
    7  A    between atoms: C_7  and  C_61
    8  A    between atoms: O_8  and  C_63
    9  A    between atoms: C_9  and  C_66
   10  A    between atoms: C_12  and  N_62
   11  A    between atoms: N_16  and  O_29
   12  A    between atoms: N_16  and  C_33
   13  A    between atoms: O_20  and  C_38
   14  A    between atoms: O_20  and  C_54
   15  A    between atoms: C_34  and  N_62
   16  A    between atoms: C_40  and  C_61
   17  A    between atoms: C_42  and  P_51
   18  A    between atoms: C_43  and  C_44
   19  A    between atoms: C_47  and  C_55
   20  A    between atoms: C_52  and  C_63
   21  A    between atoms: C_55  and  C_64
   22  A    between atoms: N_56  and  C_67
                            x       y       z     vdW  Elec       q    Type
                         _______ _______ _______ _____ _____    ______ ____

>  <TORSDO>
F 22

$$$$
=
 OpenBabel11072409433D

 70 75  0  0  1  0  0  0  0  0999 V2000
  191.7670  169.1930  140.8120 C   0  0  0  0  0  2  0  0  0  0  0  0
  194.1070  172.1930  139.8420 C   0  0  0  0  0  0  0  0  0  0  0  0
  195.8690  174.8950  143.4000 C   0  0  0  0  0  2  0  0  0  0  0  0
  191.6270  170.7690  138.8900 C   0  0  0  0  0  0  0  0  0  0  0  0
  194.7450  175.4410  144.2260 C   0  0  0  0  0  0  0  0  0  0  0  0
  191.0760  171.5650  141.3080 C   0  0  2  0  0  3  0  0  0  0  0  0
  191.7520  169.4940  139.3430 C   0  0  0  0  0  3  0  0  0  0  0  0
  191.5040  174.8250  141.8430 O   0  0  0  0  0  0  0  0  0  0  0  0
  191.4310  171.9520  139.8570 C   0  0  1  0  0  3  0  0  0  0  0  0
  192.5130  171.9170  141.7090 C   0  0  2  0  0  3  0  0  0  0  0  0
  196.7270  172.7580  142.2990 C   0  0  0  0  0  2  0  0  0  0  0  0
  194.2680  171.4510  138.6890 O   0  0  0  0  0  1  0  0  0  0  0  0
  195.8600  173.3600  143.4190 C   0  0  1  0  0  3  0  0  0  0  0  0
  192.8750  172.7440  142.7870 O   0  0  0  0  0  0  0  0  0  0  0  0
  196.2830  173.1690  140.9270 C   0  0  0  0  0  0  0  0  0  0  0  0
  192.4190  174.9060  144.2900 O   0  0  0  0  0  0  0  0  0  0  0  0
  193.4690  175.4830  143.6650 O   0  0  0  0  0  0  0  0  0  0  0  0
  191.7160  173.9600  143.0720 P   0  0  1  0  0  0  0  0  0  0  0  0
  195.0010  175.8400  145.4710 C   0  0  0  0  0  3  0  0  0  0  0  0
  195.1630  172.6840  140.4230 C   0  0  0  0  0  0  0  0  0  0  0  0
  192.7450  172.5680  140.3710 C   0  0  1  0  0  3  0  0  0  0  0  0
  190.7400  170.0880  141.5160 C   0  0  0  0  0  2  0  0  0  0  0  0
  189.4250  174.6090  145.3660 C   0  0  0  0  0  2  0  0  0  0  0  0
  188.7430  175.0690  144.0930 C   0  0  1  0  0  3  0  0  0  0  0  0
  190.1600  173.2300  143.7210 C   0  0  1  0  0  3  0  0  0  0  0  0
  190.1100  173.3990  145.1160 O   0  0  0  0  0  0  0  0  0  0  0  0
  188.9840  173.9490  143.1200 C   0  0  0  0  0  2  0  0  0  0  0  0
  186.4870  176.0120  143.2640 C   0  0  0  0  0  1  0  0  0  0  0  0
  187.2760  175.4340  144.4320 C   0  0  2  0  0  3  0  0  0  0  0  0
  187.1230  176.3410  145.6710 C   0  0  0  0  0  2  0  0  0  0  0  0
  187.2710  177.7870  145.4190 N   0  0  0  0  0  0  0  0  0  0  0  0
  184.7270  178.0410  145.6460 C   0  0  0  0  0  2  0  0  0  0  0  0
  186.2840  178.8290  147.5430 C   0  0  0  0  0  1  0  0  0  0  0  0
  186.1270  178.4570  146.0830 C   0  0  1  0  0  0  0  0  0  0  0  0
  185.2340  179.4310  145.3010 C   0  0  1  0  0  3  0  0  0  0  0  0
  185.5410  179.5180  143.8140 C   0  0  0  0  0  2  0  0  0  0  0  0
  184.6750  178.5440  143.0290 C   0  0  0  0  0  2  0  0  0  0  0  0
  185.2870  178.3500  141.7760 O   0  0  0  0  0  1  0  0  0  0  0  0
  188.4470  178.1990  146.0130 O   0  0  0  0  0  0  0  0  0  0  0  0
  188.5300  177.5020  147.2420 C   0  0  0  0  0  1  0  0  0  0  0  0
  197.7170  174.9410  140.3020 O   0  0  0  0  0  1  0  0  0  0  0  0
  197.4520  173.2680  138.7530 O   0  0  0  0  0  0  0  0  0  0  0  0
  197.2260  173.8140  140.0120 C   0  0  0  0  0  0  0  0  0  0  0  0
  194.2490  177.4670  147.0760 O   0  0  0  0  0  0  0  0  0  0  0  0
  194.0380  176.3700  146.4650 C   0  0  0  0  0  0  0  0  0  0  0  0
  192.8300  175.7030  146.6430 O   0  0  0  0  0  0  0  0  0  0  0  0
  191.7670  176.4130  147.1260 O   0  0  0  0  0  0  0  0  0  0  0  0
  191.5230  177.8340  149.0830 O   0  0  0  0  0  0  0  0  0  0  0  0
  191.5330  176.5660  148.4900 C   0  0  0  0  0  0  0  0  0  0  0  0
  191.4150  175.5480  149.2250 O   0  0  0  0  0  1  0  0  0  0  0  0
  191.5540  171.0590  137.4990 N   0  0  0  0  0  2  0  0  0  0  0  0
  190.9600  172.2610  136.9450 C   0  0  2  0  0  3  0  0  0  0  0  0
  192.9970  172.6440  135.6450 O   0  0  0  0  0  1  0  0  0  0  0  0
  189.4350  173.1650  135.2700 C   0  0  0  0  0  2  0  0  0  0  0  0
  191.3060  174.3860  135.6030 C   0  0  0  0  0  2  0  0  0  0  0  0
  189.9480  171.8690  135.8800 C   0  0  0  0  0  2  0  0  0  0  0  0
  190.4980  173.7970  134.5950 O   0  0  0  0  0  0  0  0  0  0  0  0
  192.0040  173.2780  136.4200 C   0  0  1  0  0  3  0  0  0  0  0  0
  196.3070  172.8130  144.6900 O   0  0  0  0  0  0  0  0  0  0  0  0
  197.4500  171.9870  144.7790 C   0  0  0  0  0  3  0  0  0  0  0  0
  197.6000  171.0180  145.6410 N   0  0  0  0  0  0  0  0  0  0  0  0
  196.5640  170.6620  146.5790 C   0  0  0  0  0  2  0  0  0  0  0  0
  196.0340  169.2870  146.2470 C   0  0  2  0  0  3  0  0  0  0  0  0
  197.0130  168.4870  145.6380 O   0  0  0  0  0  1  0  0  0  0  0  0
  193.5800  168.5520  146.1350 C   0  0  0  0  0  1  0  0  0  0  0  0
  194.7150  169.2840  145.4130 C   0  0  2  0  0  3  0  0  0  0  0  0
  195.6140  169.6020  143.2180 O   0  0  0  0  0  1  0  0  0  0  0  0
  194.9730  168.6810  144.0320 C   0  0  2  0  0  3  0  0  0  0  0  0
  192.6290  168.2160  144.2220 O   0  0  0  0  0  1  0  0  0  0  0  0
  193.7180  168.2030  143.3350 C   0  0  0  0  0  2  0  0  0  0  0  0
  1 22  1  0  0  0  0
  2 20  2  0  0  0  0
  3 13  1  0  0  0  0
  3  5  1  0  0  0  0
  4  7  2  0  0  0  0
  5 19  2  0  0  0  0
  6 22  1  6  0  0  0
  6 10  1  0  0  0  0
  7  1  1  0  0  0  0
  9  4  1  6  0  0  0
  9 21  1  0  0  0  0
  9  6  1  0  0  0  0
 10 14  1  1  0  0  0
 11 13  1  0  0  0  0
 12  2  1  0  0  0  0
 13 59  1  1  0  0  0
 14 18  1  0  0  0  0
 15 11  1  0  0  0  0
 17  5  1  0  0  0  0
 17 16  1  0  0  0  0
 18  8  2  6  0  0  0
 18 25  1  0  0  0  0
 18 16  1  0  0  0  0
 19 45  1  0  0  0  0
 20 15  2  0  0  0  0
 21  2  1  6  0  0  0
 21 10  1  0  0  0  0
 24 29  1  1  0  0  0
 24 23  1  0  0  0  0
 25 27  1  6  0  0  0
 25 26  1  0  0  0  0
 26 23  1  0  0  0  0
 27 24  1  0  0  0  0
 29 28  1  6  0  0  0
 29 30  1  0  0  0  0
 31 30  1  0  0  0  0
 31 39  1  0  0  0  0
 31 34  1  0  0  0  0
 32 34  1  0  0  0  0
 34 33  1  1  0  0  0
 35 36  1  6  0  0  0
 35 32  1  0  0  0  0
 35 34  1  0  0  0  0
 37 36  1  0  0  0  0
 38 37  1  0  0  0  0
 39 40  1  0  0  0  0
 42 43  2  0  0  0  0
 43 41  1  0  0  0  0
 43 15  1  0  0  0  0
 45 46  1  0  0  0  0
 45 44  2  0  0  0  0
 46 47  1  0  0  0  0
 47 49  1  0  0  0  0
 49 48  2  0  0  0  0
 49 50  1  0  0  0  0
 51  4  1  0  0  0  0
 52 51  1  6  0  0  0
 54 56  1  0  0  0  0
 55 58  1  0  0  0  0
 56 52  1  0  0  0  0
 57 54  1  0  0  0  0
 57 55  1  0  0  0  0
 58 53  1  6  0  0  0
 58 52  1  0  0  0  0
 59 60  1  0  0  0  0
 60 61  2  0  0  0  0
 61 62  1  0  0  0  0
 63 64  1  6  0  0  0
 63 62  1  0  0  0  0
 66 65  1  1  0  0  0
 66 63  1  0  0  0  0
 68 67  1  6  0  0  0
 68 66  1  0  0  0  0
 70 68  1  0  0  0  0
 70 69  1  0  0  0  0
M  END
>  <MODEL>
8

>  <REMARK>
 VINA RESULT:      -4.4      2.275      9.247
  Name = 
  22 active torsions:
  status: ('A' for Active; 'I' for Inactive)
    1  A    between atoms: O_1  and  O_8
    2  A    between atoms: O_1  and  C_22
    3  A    between atoms: C_3  and  C_9
    4  A    between atoms: C_6  and  C_47
    5  A    between atoms: C_6  and  C_67
    6  A    between atoms: C_7  and  N_16
    7  A    between atoms: C_7  and  C_61
    8  A    between atoms: O_8  and  C_63
    9  A    between atoms: C_9  and  C_66
   10  A    between atoms: C_12  and  N_62
   11  A    between atoms: N_16  and  O_29
   12  A    between atoms: N_16  and  C_33
   13  A    between atoms: O_20  and  C_38
   14  A    between atoms: O_20  and  C_54
   15  A    between atoms: C_34  and  N_62
   16  A    between atoms: C_40  and  C_61
   17  A    between atoms: C_42  and  P_51
   18  A    between atoms: C_43  and  C_44
   19  A    between atoms: C_47  and  C_55
   20  A    between atoms: C_52  and  C_63
   21  A    between atoms: C_55  and  C_64
   22  A    between atoms: N_56  and  C_67
                            x       y       z     vdW  Elec       q    Type
                         _______ _______ _______ _____ _____    ______ ____

>  <TORSDO>
F 22

$$$$
=
 OpenBabel11072409433D

 70 75  0  0  1  0  0  0  0  0999 V2000
  189.7890  171.3870  139.0400 C   0  0  0  0  0  2  0  0  0  0  0  0
  193.0410  173.2990  137.9530 C   0  0  0  0  0  0  0  0  0  0  0  0
  196.7740  173.2570  140.9740 C   0  0  0  0  0  2  0  0  0  0  0  0
  190.0400  173.5450  137.8240 C   0  0  0  0  0  0  0  0  0  0  0  0
  196.3540  173.7940  142.3070 C   0  0  0  0  0  0  0  0  0  0  0  0
  190.6070  173.3720  140.3600 C   0  0  2  0  0  3  0  0  0  0  0  0
  189.5760  172.2670  137.8450 C   0  0  0  0  0  3  0  0  0  0  0  0
  192.8120  175.6120  141.4610 O   0  0  0  0  0  0  0  0  0  0  0  0
  190.7440  174.1660  139.0440 C   0  0  1  0  0  3  0  0  0  0  0  0
  192.0580  172.9110  140.1860 C   0  0  2  0  0  3  0  0  0  0  0  0
  196.0690  171.6560  139.1150 C   0  0  0  0  0  2  0  0  0  0  0  0
  192.4960  173.1290  136.6960 O   0  0  0  0  0  1  0  0  0  0  0  0
  195.9580  172.0090  140.6090 C   0  0  1  0  0  3  0  0  0  0  0  0
  193.0540  172.9730  141.1750 O   0  0  0  0  0  0  0  0  0  0  0  0
  195.5910  172.7550  138.2150 C   0  0  0  0  0  0  0  0  0  0  0  0
  194.1970  174.2610  143.2190 O   0  0  0  0  0  0  0  0  0  0  0  0
  195.2020  174.5780  142.3730 O   0  0  0  0  0  0  0  0  0  0  0  0
  192.8270  174.2990  142.2220 P   0  0  1  0  0  0  0  0  0  0  0  0
  197.0770  173.4810  143.3810 C   0  0  0  0  0  3  0  0  0  0  0  0
  194.3010  173.0250  138.1310 C   0  0  0  0  0  0  0  0  0  0  0  0
  192.2640  173.9190  139.0870 C   0  0  1  0  0  3  0  0  0  0  0  0
  189.6010  172.2190  140.3140 C   0  0  0  0  0  2  0  0  0  0  0  0
  191.7080  175.1500  145.2150 C   0  0  0  0  0  2  0  0  0  0  0  0
  190.9810  176.1260  144.3120 C   0  0  1  0  0  3  0  0  0  0  0  0
  191.3350  174.0500  143.2660 C   0  0  1  0  0  3  0  0  0  0  0  0
  191.7250  173.8760  144.6050 O   0  0  0  0  0  0  0  0  0  0  0  0
  190.4630  175.2720  143.1880 C   0  0  0  0  0  2  0  0  0  0  0  0
  190.1570  176.7780  146.6710 C   0  0  0  0  0  1  0  0  0  0  0  0
  189.9510  176.9050  145.1670 C   0  0  2  0  0  3  0  0  0  0  0  0
  188.4800  176.6030  144.8100 C   0  0  0  0  0  2  0  0  0  0  0  0
  187.4780  177.4520  145.4830 N   0  0  0  0  0  0  0  0  0  0  0  0
  186.1100  176.2860  143.6520 C   0  0  0  0  0  2  0  0  0  0  0  0
  185.1220  176.5960  146.0120 C   0  0  0  0  0  1  0  0  0  0  0  0
  186.1490  177.0230  144.9850 C   0  0  1  0  0  0  0  0  0  0  0  0
  185.5300  177.6880  143.7470 C   0  0  1  0  0  3  0  0  0  0  0  0
  186.4420  178.6750  143.0350 C   0  0  0  0  0  2  0  0  0  0  0  0
  187.1560  178.0050  141.8710 C   0  0  0  0  0  2  0  0  0  0  0  0
  186.4480  178.3300  140.6980 O   0  0  0  0  0  1  0  0  0  0  0  0
  187.5600  177.2040  146.8380 O   0  0  0  0  0  0  0  0  0  0  0  0
  187.0530  178.3600  147.4790 C   0  0  0  0  0  1  0  0  0  0  0  0
  195.9840  173.7790  136.1210 O   0  0  0  0  0  0  0  0  0  0  0  0
  197.8500  173.1230  137.2860 O   0  0  0  0  0  1  0  0  0  0  0  0
  196.4740  173.2940  137.1790 C   0  0  0  0  0  0  0  0  0  0  0  0
  196.5550  175.0710  145.1080 O   0  0  0  0  0  0  0  0  0  0  0  0
  196.8190  173.8670  144.7880 C   0  0  0  0  0  0  0  0  0  0  0  0
  196.7560  172.8680  145.7520 O   0  0  0  0  0  0  0  0  0  0  0  0
  197.5640  171.7760  145.6030 O   0  0  0  0  0  0  0  0  0  0  0  0
  196.8840  169.8750  144.2510 O   0  0  0  0  0  0  0  0  0  0  0  0
  197.0570  170.4830  145.4990 C   0  0  0  0  0  0  0  0  0  0  0  0
  196.6630  169.8780  146.5330 O   0  0  0  0  0  1  0  0  0  0  0  0
  189.7930  174.4060  136.7180 N   0  0  0  0  0  2  0  0  0  0  0  0
  188.4710  174.8000  136.2700 C   0  0  2  0  0  3  0  0  0  0  0  0
  188.0180  175.7280  138.4870 O   0  0  0  0  0  1  0  0  0  0  0  0
  187.1750  176.4650  135.0450 C   0  0  0  0  0  2  0  0  0  0  0  0
  186.1750  175.6700  136.9080 C   0  0  0  0  0  2  0  0  0  0  0  0
  188.5930  176.0430  135.4020 C   0  0  0  0  0  2  0  0  0  0  0  0
  186.5150  176.8660  136.2240 O   0  0  0  0  0  0  0  0  0  0  0  0
  187.4580  174.9870  137.4270 C   0  0  1  0  0  3  0  0  0  0  0  0
  196.3430  170.8410  141.3870 O   0  0  0  0  0  0  0  0  0  0  0  0
  196.2240  169.5330  140.8660 C   0  0  0  0  0  3  0  0  0  0  0  0
  195.0920  168.9160  140.6630 N   0  0  0  0  0  0  0  0  0  0  0  0
  193.8200  169.5470  140.9180 C   0  0  0  0  0  2  0  0  0  0  0  0
  192.7840  168.4890  141.2190 C   0  0  2  0  0  3  0  0  0  0  0  0
  192.0010  168.1960  140.0920 O   0  0  0  0  0  1  0  0  0  0  0  0
  190.8220  169.8520  142.1490 C   0  0  0  0  0  1  0  0  0  0  0  0
  191.8860  168.7940  142.4570 C   0  0  2  0  0  3  0  0  0  0  0  0
  193.3800  170.4240  143.3740 O   0  0  0  0  0  1  0  0  0  0  0  0
  192.7580  169.2150  143.6420 C   0  0  2  0  0  3  0  0  0  0  0  0
  194.0790  168.2450  145.3910 O   0  0  0  0  0  1  0  0  0  0  0  0
  193.8110  168.1940  144.0130 C   0  0  0  0  0  2  0  0  0  0  0  0
  1 22  1  0  0  0  0
  2 20  2  0  0  0  0
  3  5  1  0  0  0  0
  4  7  2  0  0  0  0
  5 17  1  0  0  0  0
  5 19  2  0  0  0  0
  6 22  1  6  0  0  0
  7  1  1  0  0  0  0
  9  4  1  6  0  0  0
  9 21  1  0  0  0  0
  9  6  1  0  0  0  0
 10  6  1  0  0  0  0
 10 14  1  1  0  0  0
 11 13  1  0  0  0  0
 12  2  1  0  0  0  0
 13  3  1  0  0  0  0
 13 59  1  1  0  0  0
 14 18  1  0  0  0  0
 15 11  1  0  0  0  0
 17 16  1  0  0  0  0
 18  8  2  6  0  0  0
 18 16  1  0  0  0  0
 18 25  1  0  0  0  0
 19 45  1  0  0  0  0
 20 15  2  0  0  0  0
 21  2  1  6  0  0  0
 21 10  1  0  0  0  0
 24 29  1  1  0  0  0
 24 23  1  0  0  0  0
 25 27  1  1  0  0  0
 25 26  1  0  0  0  0
 26 23  1  0  0  0  0
 27 24  1  0  0  0  0
 29 28  1  1  0  0  0
 30 29  1  0  0  0  0
 30 31  1  0  0  0  0
 31 39  1  0  0  0  0
 32 35  1  0  0  0  0
 32 34  1  0  0  0  0
 34 31  1  0  0  0  0
 34 33  1  1  0  0  0
 35 36  1  6  0  0  0
 35 34  1  0  0  0  0
 37 36  1  0  0  0  0
 38 37  1  0  0  0  0
 39 40  1  0  0  0  0
 41 43  2  0  0  0  0
 43 42  1  0  0  0  0
 43 15  1  0  0  0  0
 45 44  2  0  0  0  0
 45 46  1  0  0  0  0
 47 46  1  0  0  0  0
 48 49  2  0  0  0  0
 49 47  1  0  0  0  0
 49 50  1  0  0  0  0
 51  4  1  0  0  0  0
 52 51  1  1  0  0  0
 52 58  1  0  0  0  0
 54 56  1  0  0  0  0
 54 57  1  0  0  0  0
 55 58  1  0  0  0  0
 56 52  1  0  0  0  0
 57 55  1  0  0  0  0
 58 53  1  1  0  0  0
 60 59  1  0  0  0  0
 61 60  2  0  0  0  0
 61 62  1  0  0  0  0
 62 63  1  0  0  0  0
 63 64  1  6  0  0  0
 63 66  1  0  0  0  0
 66 65  1  6  0  0  0
 66 68  1  0  0  0  0
 68 67  1  6  0  0  0
 68 70  1  0  0  0  0
 70 69  1  0  0  0  0
M  END
>  <MODEL>
9

>  <REMARK>
 VINA RESULT:      -4.2      2.406      8.411
  Name = 
  22 active torsions:
  status: ('A' for Active; 'I' for Inactive)
    1  A    between atoms: O_1  and  O_8
    2  A    between atoms: O_1  and  C_22
    3  A    between atoms: C_3  and  C_9
    4  A    between atoms: C_6  and  C_47
    5  A    between atoms: C_6  and  C_67
    6  A    between atoms: C_7  and  N_16
    7  A    between atoms: C_7  and  C_61
    8  A    between atoms: O_8  and  C_63
    9  A    between atoms: C_9  and  C_66
   10  A    between atoms: C_12  and  N_62
   11  A    between atoms: N_16  and  O_29
   12  A    between atoms: N_16  and  C_33
   13  A    between atoms: O_20  and  C_38
   14  A    between atoms: O_20  and  C_54
   15  A    between atoms: C_34  and  N_62
   16  A    between atoms: C_40  and  C_61
   17  A    between atoms: C_42  and  P_51
   18  A    between atoms: C_43  and  C_44
   19  A    between atoms: C_47  and  C_55
   20  A    between atoms: C_52  and  C_63
   21  A    between atoms: C_55  and  C_64
   22  A    between atoms: N_56  and  C_67
                            x       y       z     vdW  Elec       q    Type
                         _______ _______ _______ _____ _____    ______ ____

>  <TORSDO>
F 22

$$$$
