=
 OpenBabel11062420303D

 53 60  0  0  1  0  0  0  0  0999 V2000
  191.7110  177.1990  148.6800 O   0  0  0  0  0  1  0  0  0  0  0  0
  193.9680  175.1850  143.3320 C   0  0  1  0  0  3  0  0  0  0  0  0
  189.4810  175.1090  145.8140 C   0  0  0  0  0  2  0  0  0  0  0  0
  192.9330  175.3430  142.2840 C   0  0  1  0  0  3  0  0  0  0  0  0
  192.4380  175.4330  147.0990 C   0  0  1  0  0  0  0  0  0  0  0  0
  194.0100  173.8160  144.0650 C   0  0  2  0  0  3  0  0  0  0  0  0
  193.6390  174.9080  146.3320 C   0  0  0  0  0  2  0  0  0  0  0  0
  188.1240  176.7140  144.3360 C   0  0  0  0  0  0  0  0  0  0  0  0
  191.2190  172.0300  141.2910 C   0  0  0  0  0  3  0  0  0  0  0  0
  190.0790  176.2690  146.6050 C   0  0  0  0  0  2  0  0  0  0  0  0
  193.1950  173.8180  145.3640 C   0  0  0  0  0  2  0  0  0  0  0  0
  192.3870  176.8960  147.4920 C   0  0  0  0  0  0  0  0  0  0  0  0
  194.3590  175.1350  141.8960 N   0  0  0  0  0  0  0  0  0  0  0  0
  189.9800  172.1540  141.9240 C   0  0  0  0  0  3  0  0  0  0  0  0
  190.6040  174.3640  142.7640 C   0  0  0  0  0  0  0  0  0  0  0  0
  191.5660  176.4140  146.2910 C   0  0  1  0  0  3  0  0  0  0  0  0
  191.7490  174.5480  147.9380 O   0  0  0  0  0  1  0  0  0  0  0  0
  189.0400  175.4940  144.3980 C   0  0  1  0  0  3  0  0  0  0  0  0
  191.9020  174.2130  142.1700 C   0  0  0  0  0  0  0  0  0  0  0  0
  188.3740  177.7090  143.4680 C   0  0  0  0  0  3  0  0  0  0  0  0
  194.6230  173.8600  141.5150 O   0  0  0  0  0  1  0  0  0  0  0  0
  189.6790  173.3110  142.6490 C   0  0  0  0  0  3  0  0  0  0  0  0
  190.6660  176.8890  143.0690 C   0  0  0  0  0  2  0  0  0  0  0  0
  190.1920  175.5630  143.4740 N   0  0  0  0  0  0  0  0  0  0  0  0
  189.5010  177.6580  142.4740 C   0  0  0  0  0  2  0  0  0  0  0  0
  193.5230  177.6610  147.2020 O   0  0  0  0  0  1  0  0  0  0  0  0
  192.1580  173.0520  141.4070 C   0  0  0  0  0  3  0  0  0  0  0  0
  186.9650  176.8380  145.2550 C   0  0  0  0  0  0  0  0  0  0  0  0
  185.9860  176.0480  145.1470 O   0  0  0  0  0  0  0  0  0  0  0  0
  186.9530  177.8420  146.2760 N   0  0  0  0  0  2  0  0  0  0  0  0
  185.7320  178.2490  146.9550 C   0  0  0  0  0  2  0  0  0  0  0  0
  184.8090  178.9800  145.9970 C   0  0  0  0  0  2  0  0  0  0  0  0
  184.8600  180.4590  144.1210 O   0  0  0  0  0  0  0  0  0  0  0  0
  184.0280  178.4220  143.4870 O   0  0  0  0  0  1  0  0  0  0  0  0
  185.1630  179.2380  143.4930 C   0  0  2  0  0  3  0  0  0  0  0  0
  185.6440  179.5670  144.8690 C   0  0  2  0  0  3  0  0  0  0  0  0
  195.4350  173.2720  144.2510 C   0  0  0  0  0  2  0  0  0  0  0  0
  195.5460  172.2460  145.3750 C   0  0  0  0  0  2  0  0  0  0  0  0
  197.0230  170.9200  144.0490 O   0  0  0  0  0  0  0  0  0  0  0  0
  196.5960  170.0580  145.8080 N   0  0  0  0  0  0  0  0  0  0  0  0
  197.6740  170.1980  144.9740 O   0  0  0  0  0  0  0  0  0  0  0  0
  195.8830  170.8600  144.8330 C   0  0  1  0  0  0  0  0  0  0  0  0
  193.4010  170.1830  144.5710 C   0  0  0  0  0  3  0  0  0  0  0  0
  193.1450  169.1150  142.5230 C   0  0  0  0  0  0  0  0  0  0  0  0
  192.5180  169.5580  143.6800 C   0  0  0  0  0  3  0  0  0  0  0  0
  194.7150  170.2150  144.1070 C   0  0  0  0  0  0  0  0  0  0  0  0
  194.7840  169.4810  142.5920 S   0  0  0  0  0  0  0  0  0  0  0  0
  190.9780  168.3080  141.6680 C   0  0  0  0  0  1  0  0  0  0  0  0
  192.4720  168.3980  141.4050 C   0  0  0  0  0  2  0  0  0  0  0  0
  196.2440  168.6390  145.7910 C   0  0  0  0  0  2  0  0  0  0  0  0
  194.8100  168.9190  147.6690 O   0  0  0  0  0  1  0  0  0  0  0  0
  197.0870  168.3670  148.1190 C   0  0  0  0  0  1  0  0  0  0  0  0
  195.8950  168.1710  147.1920 C   0  0  2  0  0  3  0  0  0  0  0  0
  2 13  1  6  0  0  0
  2  6  1  0  0  0  0
  3 10  1  0  0  0  0
  4 19  1  6  0  0  0
  4  2  1  0  0  0  0
  5 12  1  0  0  0  0
  5 17  1  1  0  0  0
  6 37  1  1  0  0  0
  6 11  1  0  0  0  0
  7  5  1  0  0  0  0
  8 18  1  0  0  0  0
  8 28  1  0  0  0  0
  9 27  2  0  0  0  0
  9 14  1  0  0  0  0
 11  7  1  0  0  0  0
 12  1  1  0  0  0  0
 13  4  1  0  0  0  0
 14 22  2  0  0  0  0
 15 24  1  0  0  0  0
 16 10  1  1  0  0  0
 16  5  1  0  0  0  0
 16 12  1  0  0  0  0
 18  3  1  1  0  0  0
 19 15  2  0  0  0  0
 20  8  2  0  0  0  0
 21 13  1  0  0  0  0
 22 15  1  0  0  0  0
 23 24  1  0  0  0  0
 24 18  1  0  0  0  0
 25 23  1  0  0  0  0
 25 20  1  0  0  0  0
 26 12  1  0  0  0  0
 27 19  1  0  0  0  0
 28 30  1  0  0  0  0
 29 28  2  0  0  0  0
 30 31  1  0  0  0  0
 32 31  1  0  0  0  0
 33 36  1  0  0  0  0
 35 34  1  1  0  0  0
 35 33  1  0  0  0  0
 35 36  1  0  0  0  0
 36 32  1  1  0  0  0
 37 38  1  0  0  0  0
 39 42  1  0  0  0  0
 39 41  1  0  0  0  0
 41 40  1  0  0  0  0
 42 38  1  1  0  0  0
 42 40  1  0  0  0  0
 44 47  1  0  0  0  0
 44 45  2  0  0  0  0
 45 43  1  0  0  0  0
 46 43  2  0  0  0  0
 46 42  1  0  0  0  0
 47 46  1  0  0  0  0
 49 48  1  0  0  0  0
 49 44  1  0  0  0  0
 50 40  1  0  0  0  0
 50 53  1  0  0  0  0
 53 51  1  0  0  0  0
 53 52  1  1  0  0  0
M  END
>  <MODEL>
1

>  <REMARK>
 VINA RESULT:      -7.5      0.000      0.000
  Name = 
  11 active torsions:
  status: ('A' for Active; 'I' for Inactive)
    1  A    between atoms: C_2  and  C_23
    2  A    between atoms: C_7  and  C_13
    3  A    between atoms: C_7  and  C_49
    4  A    between atoms: C_8  and  C_17
    5  A    between atoms: C_15  and  C_37
    6  A    between atoms: N_24  and  C_35
    7  A    between atoms: N_32  and  C_41
    8  A    between atoms: C_35  and  C_52
    9  A    between atoms: C_36  and  C_40
   10  A    between atoms: C_37  and  C_49
   11  A    between atoms: C_40  and  C_41
                            x       y       z     vdW  Elec       q    Type
                         _______ _______ _______ _____ _____    ______ ____

>  <TORSDO>
F 11

$$$$
=
 OpenBabel11062420303D

 53 60  0  0  1  0  0  0  0  0999 V2000
  188.7260  172.5750  140.6100 O   0  0  0  0  0  1  0  0  0  0  0  0
  193.5000  172.1960  144.4590 C   0  0  1  0  0  3  0  0  0  0  0  0
  190.2790  175.8110  142.7700 C   0  0  0  0  0  2  0  0  0  0  0  0
  193.2500  173.0780  145.6230 C   0  0  1  0  0  3  0  0  0  0  0  0
  191.0620  173.0300  141.3040 C   0  0  1  0  0  0  0  0  0  0  0  0
  194.2840  172.8190  143.2710 C   0  0  2  0  0  3  0  0  0  0  0  0
  192.3810  172.3590  141.6480 C   0  0  0  0  0  2  0  0  0  0  0  0
  188.9240  176.2400  144.9110 C   0  0  0  0  0  0  0  0  0  0  0  0
  195.2790  176.3610  145.5390 C   0  0  0  0  0  3  0  0  0  0  0  0
  189.3960  174.6260  142.3930 C   0  0  0  0  0  2  0  0  0  0  0  0
  193.3590  173.3930  142.1920 C   0  0  0  0  0  2  0  0  0  0  0  0
  189.7660  172.2670  141.4940 C   0  0  0  0  0  0  0  0  0  0  0  0
  194.2960  172.0170  145.7050 N   0  0  0  0  0  0  0  0  0  0  0  0
  194.2990  177.2870  145.1740 C   0  0  0  0  0  3  0  0  0  0  0  0
  192.6090  175.5210  145.1390 C   0  0  0  0  0  0  0  0  0  0  0  0
  190.1750  173.3200  142.5310 C   0  0  1  0  0  3  0  0  0  0  0  0
  191.0580  174.0070  140.3000 O   0  0  0  0  0  1  0  0  0  0  0  0
  190.3050  176.1040  144.2740 C   0  0  1  0  0  3  0  0  0  0  0  0
  193.6240  174.5560  145.4490 C   0  0  0  0  0  0  0  0  0  0  0  0
  188.6290  175.5800  146.0430 C   0  0  0  0  0  3  0  0  0  0  0  0
  195.5530  172.5000  145.5450 O   0  0  0  0  0  1  0  0  0  0  0  0
  192.9790  176.8690  144.9810 C   0  0  0  0  0  3  0  0  0  0  0  0
  190.5940  174.1100  145.7900 C   0  0  0  0  0  2  0  0  0  0  0  0
  191.2050  175.1750  144.9890 N   0  0  0  0  0  0  0  0  0  0  0  0
  189.6350  174.7410  146.7820 C   0  0  0  0  0  2  0  0  0  0  0  0
  189.8810  170.9290  141.8890 O   0  0  0  0  0  1  0  0  0  0  0  0
  194.9390  175.0180  145.6820 C   0  0  0  0  0  3  0  0  0  0  0  0
  187.8750  177.0740  144.2730 C   0  0  0  0  0  0  0  0  0  0  0  0
  188.1640  178.2180  143.8240 O   0  0  0  0  0  0  0  0  0  0  0  0
  186.5350  176.5850  144.1500 N   0  0  0  0  0  2  0  0  0  0  0  0
  185.4070  177.4630  143.8780 C   0  0  0  0  0  2  0  0  0  0  0  0
  185.1560  178.3890  145.0540 C   0  0  0  0  0  2  0  0  0  0  0  0
  184.3660  178.4030  147.3100 O   0  0  0  0  0  0  0  0  0  0  0  0
  186.6530  178.5190  147.2820 O   0  0  0  0  0  1  0  0  0  0  0  0
  185.5570  177.6700  147.4600 C   0  0  2  0  0  3  0  0  0  0  0  0
  184.6990  177.5540  146.2410 C   0  0  2  0  0  3  0  0  0  0  0  0
  195.3630  171.8860  142.7020 C   0  0  0  0  0  2  0  0  0  0  0  0
  196.4890  172.6310  141.9910 C   0  0  0  0  0  2  0  0  0  0  0  0
  197.9320  171.2940  140.6390 O   0  0  0  0  0  0  0  0  0  0  0  0
  196.0000  170.8270  140.3830 N   0  0  0  0  0  0  0  0  0  0  0  0
  197.2060  170.1810  140.4520 O   0  0  0  0  0  0  0  0  0  0  0  0
  196.7650  172.0370  140.6120 C   0  0  1  0  0  0  0  0  0  0  0  0
  195.8400  174.1120  139.3780 C   0  0  0  0  0  3  0  0  0  0  0  0
  197.2560  174.6010  137.6020 C   0  0  0  0  0  0  0  0  0  0  0  0
  196.1100  174.9630  138.2970 C   0  0  0  0  0  3  0  0  0  0  0  0
  196.7730  173.0860  139.5130 C   0  0  0  0  0  0  0  0  0  0  0  0
  197.9370  173.2350  138.3050 S   0  0  0  0  0  0  0  0  0  0  0  0
  196.7430  176.2670  135.8580 C   0  0  0  0  0  1  0  0  0  0  0  0
  197.7850  175.3010  136.3980 C   0  0  0  0  0  2  0  0  0  0  0  0
  195.5250  170.6680  139.0090 C   0  0  0  0  0  2  0  0  0  0  0  0
  193.7060  169.2670  138.3840 O   0  0  0  0  0  1  0  0  0  0  0  0
  193.3680  171.6220  138.2120 C   0  0  0  0  0  1  0  0  0  0  0  0
  194.0180  170.4900  138.9940 C   0  0  2  0  0  3  0  0  0  0  0  0
  1 12  1  0  0  0  0
  2  4  1  0  0  0  0
  2 13  1  1  0  0  0
  4 19  1  6  0  0  0
  4 13  1  0  0  0  0
  5 17  1  6  0  0  0
  5 12  1  0  0  0  0
  5  7  1  0  0  0  0
  5 16  1  0  0  0  0
  6 37  1  6  0  0  0
  6  2  1  0  0  0  0
  7 11  1  0  0  0  0
  8 20  2  0  0  0  0
  9 27  1  0  0  0  0
 10  3  1  0  0  0  0
 11  6  1  0  0  0  0
 12 26  1  0  0  0  0
 12 16  1  0  0  0  0
 14  9  2  0  0  0  0
 15 19  1  0  0  0  0
 16 10  1  6  0  0  0
 18  3  1  6  0  0  0
 18  8  1  0  0  0  0
 18 24  1  0  0  0  0
 19 27  2  0  0  0  0
 20 25  1  0  0  0  0
 21 13  1  0  0  0  0
 22 15  2  0  0  0  0
 22 14  1  0  0  0  0
 23 25  1  0  0  0  0
 24 15  1  0  0  0  0
 24 23  1  0  0  0  0
 28  8  1  0  0  0  0
 29 28  2  0  0  0  0
 30 28  1  0  0  0  0
 31 30  1  0  0  0  0
 31 32  1  0  0  0  0
 33 35  1  0  0  0  0
 35 34  1  6  0  0  0
 36 32  1  6  0  0  0
 36 33  1  0  0  0  0
 36 35  1  0  0  0  0
 38 37  1  0  0  0  0
 40 41  1  0  0  0  0
 40 42  1  0  0  0  0
 41 39  1  0  0  0  0
 42 39  1  0  0  0  0
 42 38  1  1  0  0  0
 43 46  2  0  0  0  0
 44 45  2  0  0  0  0
 44 47  1  0  0  0  0
 45 43  1  0  0  0  0
 46 42  1  0  0  0  0
 47 46  1  0  0  0  0
 48 49  1  0  0  0  0
 49 44  1  0  0  0  0
 50 40  1  0  0  0  0
 51 53  1  0  0  0  0
 53 52  1  6  0  0  0
 53 50  1  0  0  0  0
M  END
>  <MODEL>
2

>  <REMARK>
 VINA RESULT:      -7.2      3.410      5.821
  Name = 
  11 active torsions:
  status: ('A' for Active; 'I' for Inactive)
    1  A    between atoms: C_2  and  C_23
    2  A    between atoms: C_7  and  C_13
    3  A    between atoms: C_7  and  C_49
    4  A    between atoms: C_8  and  C_17
    5  A    between atoms: C_15  and  C_37
    6  A    between atoms: N_24  and  C_35
    7  A    between atoms: N_32  and  C_41
    8  A    between atoms: C_35  and  C_52
    9  A    between atoms: C_36  and  C_40
   10  A    between atoms: C_37  and  C_49
   11  A    between atoms: C_40  and  C_41
                            x       y       z     vdW  Elec       q    Type
                         _______ _______ _______ _____ _____    ______ ____

>  <TORSDO>
F 11

$$$$
=
 OpenBabel11062420303D

 53 60  0  0  1  0  0  0  0  0999 V2000
  192.2290  171.4710  139.8710 O   0  0  0  0  0  1  0  0  0  0  0  0
  190.1410  176.6790  142.3750 C   0  0  1  0  0  3  0  0  0  0  0  0
  191.7570  172.0870  143.9880 C   0  0  0  0  0  2  0  0  0  0  0  0
  190.8830  176.9380  143.6310 C   0  0  1  0  0  3  0  0  0  0  0  0
  190.5500  172.8390  141.0770 C   0  0  1  0  0  0  0  0  0  0  0  0
  188.8150  175.8800  142.5040 C   0  0  2  0  0  3  0  0  0  0  0  0
  189.6490  174.0550  140.9420 C   0  0  0  0  0  2  0  0  0  0  0  0
  193.9790  172.7560  145.0920 C   0  0  0  0  0  0  0  0  0  0  0  0
  188.8510  176.1520  146.8180 C   0  0  0  0  0  3  0  0  0  0  0  0
  192.4100  172.0090  142.6120 C   0  0  0  0  0  2  0  0  0  0  0  0
  189.0110  174.3750  142.2890 C   0  0  0  0  0  2  0  0  0  0  0  0
  191.8150  172.7540  140.2460 C   0  0  0  0  0  0  0  0  0  0  0  0
  190.1110  178.0390  142.9810 N   0  0  0  0  0  0  0  0  0  0  0  0
  189.4320  174.9500  147.2310 C   0  0  0  0  0  3  0  0  0  0  0  0
  190.9970  175.0330  145.3540 C   0  0  0  0  0  0  0  0  0  0  0  0
  191.9140  173.1480  141.7240 C   0  0  1  0  0  3  0  0  0  0  0  0
  189.9650  171.6170  141.4320 O   0  0  0  0  0  1  0  0  0  0  0  0
  192.4810  173.0240  144.9610 C   0  0  1  0  0  3  0  0  0  0  0  0
  190.3610  176.2320  144.8890 C   0  0  0  0  0  0  0  0  0  0  0  0
  194.8610  173.7650  145.0060 C   0  0  0  0  0  3  0  0  0  0  0  0
  188.9160  178.2710  143.5790 O   0  0  0  0  0  1  0  0  0  0  0  0
  190.4950  174.4020  146.5070 C   0  0  0  0  0  3  0  0  0  0  0  0
  193.1630  175.2700  144.0390 C   0  0  0  0  0  2  0  0  0  0  0  0
  192.1480  174.4390  144.6950 N   0  0  0  0  0  0  0  0  0  0  0  0
  194.4420  175.2010  144.8510 C   0  0  0  0  0  2  0  0  0  0  0  0
  192.0210  173.7790  139.3150 O   0  0  0  0  0  1  0  0  0  0  0  0
  189.3190  176.7840  145.6680 C   0  0  0  0  0  3  0  0  0  0  0  0
  194.4860  171.3730  145.2830 C   0  0  0  0  0  0  0  0  0  0  0  0
  194.4020  170.8200  146.4140 O   0  0  0  0  0  0  0  0  0  0  0  0
  195.0600  170.6550  144.1860 N   0  0  0  0  0  2  0  0  0  0  0  0
  195.8880  169.4730  144.3760 C   0  0  0  0  0  2  0  0  0  0  0  0
  196.9080  169.3510  143.2600 C   0  0  0  0  0  2  0  0  0  0  0  0
  195.7860  169.5600  141.1610 O   0  0  0  0  0  0  0  0  0  0  0  0
  197.9300  168.8280  140.8300 O   0  0  0  0  0  1  0  0  0  0  0  0
  197.0880  169.9440  140.7940 C   0  0  2  0  0  3  0  0  0  0  0  0
  196.5040  170.2830  142.1270 C   0  0  2  0  0  3  0  0  0  0  0  0
  187.6720  176.4640  141.6610 C   0  0  0  0  0  2  0  0  0  0  0  0
  186.3030  176.3140  142.3180 C   0  0  0  0  0  2  0  0  0  0  0  0
  186.2190  178.5960  141.6190 O   0  0  0  0  0  0  0  0  0  0  0  0
  184.4260  177.7050  141.5290 N   0  0  0  0  0  0  0  0  0  0  0  0
  185.1530  178.6100  140.8040 O   0  0  0  0  0  0  0  0  0  0  0  0
  185.5780  177.6550  142.4070 C   0  0  1  0  0  0  0  0  0  0  0  0
  184.7990  179.3290  144.2170 C   0  0  0  0  0  3  0  0  0  0  0  0
  185.2540  178.4150  146.3050 C   0  0  0  0  0  0  0  0  0  0  0  0
  184.7240  179.4920  145.6080 C   0  0  0  0  0  3  0  0  0  0  0  0
  185.3950  178.1270  143.8390 C   0  0  0  0  0  0  0  0  0  0  0  0
  185.8210  177.2630  145.2210 S   0  0  0  0  0  0  0  0  0  0  0  0
  186.6690  178.8420  148.2780 C   0  0  0  0  0  1  0  0  0  0  0  0
  185.3330  178.3100  147.7880 C   0  0  0  0  0  2  0  0  0  0  0  0
  183.2840  178.4370  142.0770 C   0  0  0  0  0  2  0  0  0  0  0  0
  182.2060  177.8300  140.0460 O   0  0  0  0  0  1  0  0  0  0  0  0
  180.8880  178.9760  141.6700 C   0  0  0  0  0  1  0  0  0  0  0  0
  181.9980  177.9640  141.4250 C   0  0  2  0  0  3  0  0  0  0  0  0
  1 12  1  0  0  0  0
  2  6  1  0  0  0  0
  2 13  1  1  0  0  0
  2  4  1  0  0  0  0
  4 19  1  1  0  0  0
  5 17  1  1  0  0  0
  5 16  1  0  0  0  0
  6 37  1  6  0  0  0
  7  5  1  0  0  0  0
  7 11  1  0  0  0  0
  8 28  1  0  0  0  0
  9 14  1  0  0  0  0
 10  3  1  0  0  0  0
 11  6  1  0  0  0  0
 12  5  1  0  0  0  0
 12 16  1  0  0  0  0
 13 21  1  0  0  0  0
 13  4  1  0  0  0  0
 15 22  1  0  0  0  0
 16 10  1  1  0  0  0
 18  3  1  6  0  0  0
 18  8  1  0  0  0  0
 19 15  2  0  0  0  0
 19 27  1  0  0  0  0
 20  8  2  0  0  0  0
 22 14  2  0  0  0  0
 23 24  1  0  0  0  0
 23 25  1  0  0  0  0
 24 18  1  0  0  0  0
 24 15  1  0  0  0  0
 25 20  1  0  0  0  0
 26 12  1  0  0  0  0
 27  9  2  0  0  0  0
 28 29  2  0  0  0  0
 30 31  1  0  0  0  0
 30 28  1  0  0  0  0
 32 31  1  0  0  0  0
 33 36  1  0  0  0  0
 35 34  1  1  0  0  0
 35 33  1  0  0  0  0
 35 36  1  0  0  0  0
 36 32  1  1  0  0  0
 37 38  1  0  0  0  0
 39 42  1  0  0  0  0
 40 50  1  0  0  0  0
 40 42  1  0  0  0  0
 41 40  1  0  0  0  0
 41 39  1  0  0  0  0
 42 38  1  6  0  0  0
 42 46  1  0  0  0  0
 43 45  1  0  0  0  0
 44 49  1  0  0  0  0
 45 44  2  0  0  0  0
 46 43  2  0  0  0  0
 46 47  1  0  0  0  0
 47 44  1  0  0  0  0
 49 48  1  0  0  0  0
 51 53  1  0  0  0  0
 53 52  1  6  0  0  0
 53 50  1  0  0  0  0
M  END
>  <MODEL>
3

>  <REMARK>
 VINA RESULT:      -7.2      3.108     10.815
  Name = 
  11 active torsions:
  status: ('A' for Active; 'I' for Inactive)
    1  A    between atoms: C_2  and  C_23
    2  A    between atoms: C_7  and  C_13
    3  A    between atoms: C_7  and  C_49
    4  A    between atoms: C_8  and  C_17
    5  A    between atoms: C_15  and  C_37
    6  A    between atoms: N_24  and  C_35
    7  A    between atoms: N_32  and  C_41
    8  A    between atoms: C_35  and  C_52
    9  A    between atoms: C_36  and  C_40
   10  A    between atoms: C_37  and  C_49
   11  A    between atoms: C_40  and  C_41
                            x       y       z     vdW  Elec       q    Type
                         _______ _______ _______ _____ _____    ______ ____

>  <TORSDO>
F 11

$$$$
=
 OpenBabel11062420303D

 53 60  0  0  1  0  0  0  0  0999 V2000
  189.1520  172.2630  140.3440 O   0  0  0  0  0  1  0  0  0  0  0  0
  192.2400  176.0380  144.0810 C   0  0  1  0  0  3  0  0  0  0  0  0
  193.0230  171.5280  141.7680 C   0  0  0  0  0  2  0  0  0  0  0  0
  193.6700  176.0360  143.6920 C   0  0  1  0  0  3  0  0  0  0  0  0
  190.1800  172.8950  142.5100 C   0  0  1  0  0  0  0  0  0  0  0  0
  191.8170  175.0190  145.1750 C   0  0  2  0  0  3  0  0  0  0  0  0
  190.1220  173.9190  143.6300 C   0  0  0  0  0  2  0  0  0  0  0  0
  194.7980  172.2130  140.0410 C   0  0  0  0  0  0  0  0  0  0  0  0
  195.9170  173.9920  146.0730 C   0  0  0  0  0  3  0  0  0  0  0  0
  191.8900  171.9800  140.8520 C   0  0  0  0  0  2  0  0  0  0  0  0
  191.2920  173.7060  144.5840 C   0  0  0  0  0  2  0  0  0  0  0  0
  189.7130  173.2830  141.1210 C   0  0  0  0  0  0  0  0  0  0  0  0
  193.1360  177.1280  144.5580 N   0  0  0  0  0  0  0  0  0  0  0  0
  196.1550  172.8420  145.3160 C   0  0  0  0  0  3  0  0  0  0  0  0
  194.8320  173.7530  143.4720 C   0  0  0  0  0  0  0  0  0  0  0  0
  191.2160  173.2280  141.4180 C   0  0  1  0  0  3  0  0  0  0  0  0
  190.0550  171.5400  142.8440 O   0  0  0  0  0  1  0  0  0  0  0  0
  194.3520  172.2430  141.5010 C   0  0  1  0  0  3  0  0  0  0  0  0
  194.5310  174.9060  144.2710 C   0  0  0  0  0  0  0  0  0  0  0  0
  195.1990  173.3390  139.4280 C   0  0  0  0  0  3  0  0  0  0  0  0
  193.4400  176.9590  145.8690 O   0  0  0  0  0  1  0  0  0  0  0  0
  195.6200  172.7290  144.0290 C   0  0  0  0  0  3  0  0  0  0  0  0
  194.2290  174.7450  141.2080 C   0  0  0  0  0  2  0  0  0  0  0  0
  194.3690  173.5930  142.1040 N   0  0  0  0  0  0  0  0  0  0  0  0
  195.3020  174.6600  140.1400 C   0  0  0  0  0  2  0  0  0  0  0  0
  189.1530  174.5590  140.9840 O   0  0  0  0  0  1  0  0  0  0  0  0
  195.1240  175.0100  145.5490 C   0  0  0  0  0  3  0  0  0  0  0  0
  194.7640  170.9470  139.2650 C   0  0  0  0  0  0  0  0  0  0  0  0
  195.6140  170.0430  139.4950 O   0  0  0  0  0  0  0  0  0  0  0  0
  193.7620  170.7370  138.2640 N   0  0  0  0  0  2  0  0  0  0  0  0
  193.8850  169.7100  137.2420 C   0  0  0  0  0  2  0  0  0  0  0  0
  192.5190  169.1750  136.8560 C   0  0  0  0  0  2  0  0  0  0  0  0
  190.4310  168.5560  137.8410 O   0  0  0  0  0  0  0  0  0  0  0  0
  190.1180  170.2760  136.3620 O   0  0  0  0  0  1  0  0  0  0  0  0
  190.2520  169.9450  137.7140 C   0  0  2  0  0  3  0  0  0  0  0  0
  191.5790  169.3400  138.0410 C   0  0  2  0  0  3  0  0  0  0  0  0
  190.8770  175.6210  146.2310 C   0  0  0  0  0  2  0  0  0  0  0  0
  190.2490  176.9410  145.7950 C   0  0  0  0  0  2  0  0  0  0  0  0
  188.3430  175.5050  145.8380 O   0  0  0  0  0  0  0  0  0  0  0  0
  187.9280  177.3420  146.5250 N   0  0  0  0  0  0  0  0  0  0  0  0
  187.5940  176.0450  146.8120 O   0  0  0  0  0  0  0  0  0  0  0  0
  188.7640  176.7750  145.4840 C   0  0  1  0  0  0  0  0  0  0  0  0
  189.1580  177.9800  143.2300 C   0  0  0  0  0  3  0  0  0  0  0  0
  187.5200  177.2890  141.7340 C   0  0  0  0  0  0  0  0  0  0  0  0
  188.6440  178.0800  141.9300 C   0  0  0  0  0  3  0  0  0  0  0  0
  188.4260  177.1160  144.0430 C   0  0  0  0  0  0  0  0  0  0  0  0
  187.1500  176.4700  143.1540 S   0  0  0  0  0  0  0  0  0  0  0  0
  185.5680  178.1630  140.5070 C   0  0  0  0  0  1  0  0  0  0  0  0
  186.7450  177.2020  140.4650 C   0  0  0  0  0  2  0  0  0  0  0  0
  186.7090  177.9830  146.0320 C   0  0  0  0  0  2  0  0  0  0  0  0
  186.9180  178.8050  148.2550 O   0  0  0  0  0  1  0  0  0  0  0  0
  184.7060  178.4470  147.4380 C   0  0  0  0  0  1  0  0  0  0  0  0
  186.1250  178.8860  147.1030 C   0  0  2  0  0  3  0  0  0  0  0  0
  1 12  1  0  0  0  0
  2 13  1  1  0  0  0
  2  6  1  0  0  0  0
  4  2  1  0  0  0  0
  4 19  1  1  0  0  0
  4 13  1  0  0  0  0
  5 17  1  1  0  0  0
  5  7  1  0  0  0  0
  6 37  1  6  0  0  0
  7 11  1  0  0  0  0
  8 18  1  0  0  0  0
 10  3  1  0  0  0  0
 11  6  1  0  0  0  0
 12 16  1  0  0  0  0
 12  5  1  0  0  0  0
 13 21  1  0  0  0  0
 14  9  2  0  0  0  0
 15 22  2  0  0  0  0
 15 19  1  0  0  0  0
 16 10  1  6  0  0  0
 16  5  1  0  0  0  0
 18  3  1  6  0  0  0
 18 24  1  0  0  0  0
 19 27  2  0  0  0  0
 20  8  2  0  0  0  0
 20 25  1  0  0  0  0
 22 14  1  0  0  0  0
 23 24  1  0  0  0  0
 24 15  1  0  0  0  0
 25 23  1  0  0  0  0
 26 12  1  0  0  0  0
 27  9  1  0  0  0  0
 28 29  2  0  0  0  0
 28  8  1  0  0  0  0
 30 28  1  0  0  0  0
 31 30  1  0  0  0  0
 32 31  1  0  0  0  0
 33 36  1  0  0  0  0
 35 34  1  6  0  0  0
 35 33  1  0  0  0  0
 35 36  1  0  0  0  0
 36 32  1  6  0  0  0
 38 37  1  0  0  0  0
 39 41  1  0  0  0  0
 40 41  1  0  0  0  0
 42 38  1  1  0  0  0
 42 39  1  0  0  0  0
 42 40  1  0  0  0  0
 43 46  2  0  0  0  0
 44 45  2  0  0  0  0
 44 47  1  0  0  0  0
 45 43  1  0  0  0  0
 46 42  1  0  0  0  0
 47 46  1  0  0  0  0
 49 48  1  0  0  0  0
 49 44  1  0  0  0  0
 50 40  1  0  0  0  0
 50 53  1  0  0  0  0
 53 52  1  1  0  0  0
 53 51  1  0  0  0  0
M  END
>  <MODEL>
4

>  <REMARK>
 VINA RESULT:      -7.1      3.411      9.397
  Name = 
  11 active torsions:
  status: ('A' for Active; 'I' for Inactive)
    1  A    between atoms: C_2  and  C_23
    2  A    between atoms: C_7  and  C_13
    3  A    between atoms: C_7  and  C_49
    4  A    between atoms: C_8  and  C_17
    5  A    between atoms: C_15  and  C_37
    6  A    between atoms: N_24  and  C_35
    7  A    between atoms: N_32  and  C_41
    8  A    between atoms: C_35  and  C_52
    9  A    between atoms: C_36  and  C_40
   10  A    between atoms: C_37  and  C_49
   11  A    between atoms: C_40  and  C_41
                            x       y       z     vdW  Elec       q    Type
                         _______ _______ _______ _____ _____    ______ ____

>  <TORSDO>
F 11

$$$$
=
 OpenBabel11062420303D

 53 60  0  0  1  0  0  0  0  0999 V2000
  188.2970  172.8170  141.1190 O   0  0  0  0  0  1  0  0  0  0  0  0
  193.3680  172.4510  144.5700 C   0  0  1  0  0  3  0  0  0  0  0  0
  189.9400  176.0290  143.2500 C   0  0  0  0  0  2  0  0  0  0  0  0
  193.1890  173.2930  145.7760 C   0  0  1  0  0  3  0  0  0  0  0  0
  190.6700  173.3120  141.6420 C   0  0  1  0  0  0  0  0  0  0  0  0
  194.0400  173.1270  143.3440 C   0  0  2  0  0  3  0  0  0  0  0  0
  192.0260  172.6650  141.8620 C   0  0  0  0  0  2  0  0  0  0  0  0
  188.7480  176.3610  145.5020 C   0  0  0  0  0  0  0  0  0  0  0  0
  195.1290  176.6270  145.6340 C   0  0  0  0  0  3  0  0  0  0  0  0
  189.0580  174.8330  142.9070 C   0  0  0  0  0  2  0  0  0  0  0  0
  193.0200  173.7090  142.3590 C   0  0  0  0  0  2  0  0  0  0  0  0
  189.4110  172.5110  141.9100 C   0  0  0  0  0  0  0  0  0  0  0  0
  194.2630  172.2560  145.7440 N   0  0  0  0  0  0  0  0  0  0  0  0
  194.1020  177.5380  145.3760 C   0  0  0  0  0  3  0  0  0  0  0  0
  192.4550  175.7310  145.4200 C   0  0  0  0  0  0  0  0  0  0  0  0
  189.8750  173.5440  142.9430 C   0  0  1  0  0  3  0  0  0  0  0  0
  190.5630  174.3170  140.6720 O   0  0  0  0  0  1  0  0  0  0  0  0
  190.0770  176.2800  144.7550 C   0  0  1  0  0  3  0  0  0  0  0  0
  193.5140  174.7840  145.6190 C   0  0  0  0  0  0  0  0  0  0  0  0
  188.5590  175.6610  146.6330 C   0  0  0  0  0  3  0  0  0  0  0  0
  195.4920  172.7760  145.5010 O   0  0  0  0  0  1  0  0  0  0  0  0
  192.7810  177.0920  145.2740 C   0  0  0  0  0  3  0  0  0  0  0  0
  190.5310  174.2510  146.1820 C   0  0  0  0  0  2  0  0  0  0  0  0
  191.0530  175.3540  145.3690 N   0  0  0  0  0  0  0  0  0  0  0  0
  189.6400  174.8280  147.2650 C   0  0  0  0  0  2  0  0  0  0  0  0
  189.5880  171.1660  142.2530 O   0  0  0  0  0  1  0  0  0  0  0  0
  194.8320  175.2720  145.7630 C   0  0  0  0  0  3  0  0  0  0  0  0
  187.6330  177.1870  144.9740 C   0  0  0  0  0  0  0  0  0  0  0  0
  187.7020  178.4460  145.0200 O   0  0  0  0  0  0  0  0  0  0  0  0
  186.4800  176.5630  144.3980 N   0  0  0  0  0  2  0  0  0  0  0  0
  185.2260  177.2750  144.2010 C   0  0  0  0  0  2  0  0  0  0  0  0
  185.0420  177.6380  142.7400 C   0  0  0  0  0  2  0  0  0  0  0  0
  186.9910  178.2670  141.5080 O   0  0  0  0  0  0  0  0  0  0  0  0
  185.1580  178.2900  140.1350 O   0  0  0  0  0  1  0  0  0  0  0  0
  186.2840  177.5560  140.5220 C   0  0  2  0  0  3  0  0  0  0  0  0
  186.2580  177.1580  141.9630 C   0  0  2  0  0  3  0  0  0  0  0  0
  195.0930  172.2390  142.6650 C   0  0  0  0  0  2  0  0  0  0  0  0
  196.1970  173.0350  141.9740 C   0  0  0  0  0  2  0  0  0  0  0  0
  197.8070  171.7770  140.7400 O   0  0  0  0  0  0  0  0  0  0  0  0
  195.9360  171.1260  140.4360 N   0  0  0  0  0  0  0  0  0  0  0  0
  197.1900  170.5960  140.5780 O   0  0  0  0  0  0  0  0  0  0  0  0
  196.5800  172.4100  140.6360 C   0  0  1  0  0  0  0  0  0  0  0  0
  195.4640  174.2430  139.1930 C   0  0  0  0  0  3  0  0  0  0  0  0
  196.9800  174.9210  137.5690 C   0  0  0  0  0  0  0  0  0  0  0  0
  195.7120  175.0920  138.1060 C   0  0  0  0  0  3  0  0  0  0  0  0
  196.5390  173.4070  139.4900 C   0  0  0  0  0  0  0  0  0  0  0  0
  197.7980  173.7240  138.4180 S   0  0  0  0  0  0  0  0  0  0  0  0
  196.5290  175.6230  135.2480 C   0  0  0  0  0  1  0  0  0  0  0  0
  197.5220  175.6660  136.3980 C   0  0  0  0  0  2  0  0  0  0  0  0
  195.5320  170.8660  139.0540 C   0  0  0  0  0  2  0  0  0  0  0  0
  193.2460  171.4890  138.8450 O   0  0  0  0  0  1  0  0  0  0  0  0
  193.7430  169.6740  140.3110 C   0  0  0  0  0  1  0  0  0  0  0  0
  194.0930  170.3850  139.0110 C   0  0  2  0  0  3  0  0  0  0  0  0
  1 12  1  0  0  0  0
  2 13  1  1  0  0  0
  2  4  1  0  0  0  0
  4 19  1  6  0  0  0
  5 17  1  6  0  0  0
  5  7  1  0  0  0  0
  5 12  1  0  0  0  0
  5 16  1  0  0  0  0
  6 37  1  6  0  0  0
  6  2  1  0  0  0  0
  7 11  1  0  0  0  0
  8 20  2  0  0  0  0
  9 27  1  0  0  0  0
 10  3  1  0  0  0  0
 11  6  1  0  0  0  0
 12 26  1  0  0  0  0
 12 16  1  0  0  0  0
 13  4  1  0  0  0  0
 14  9  2  0  0  0  0
 15 19  1  0  0  0  0
 16 10  1  6  0  0  0
 18  3  1  6  0  0  0
 18 24  1  0  0  0  0
 18  8  1  0  0  0  0
 19 27  2  0  0  0  0
 20 25  1  0  0  0  0
 21 13  1  0  0  0  0
 22 14  1  0  0  0  0
 22 15  2  0  0  0  0
 23 25  1  0  0  0  0
 24 15  1  0  0  0  0
 24 23  1  0  0  0  0
 28 29  2  0  0  0  0
 28  8  1  0  0  0  0
 30 28  1  0  0  0  0
 31 30  1  0  0  0  0
 32 31  1  0  0  0  0
 33 36  1  0  0  0  0
 35 34  1  1  0  0  0
 35 33  1  0  0  0  0
 35 36  1  0  0  0  0
 36 32  1  1  0  0  0
 38 37  1  0  0  0  0
 40 41  1  0  0  0  0
 40 42  1  0  0  0  0
 41 39  1  0  0  0  0
 42 39  1  0  0  0  0
 42 38  1  1  0  0  0
 43 46  2  0  0  0  0
 44 45  2  0  0  0  0
 44 47  1  0  0  0  0
 45 43  1  0  0  0  0
 46 42  1  0  0  0  0
 47 46  1  0  0  0  0
 48 49  1  0  0  0  0
 49 44  1  0  0  0  0
 50 40  1  0  0  0  0
 51 53  1  0  0  0  0
 53 50  1  0  0  0  0
 53 52  1  1  0  0  0
M  END
>  <MODEL>
5

>  <REMARK>
 VINA RESULT:      -6.9      3.377      5.706
  Name = 
  11 active torsions:
  status: ('A' for Active; 'I' for Inactive)
    1  A    between atoms: C_2  and  C_23
    2  A    between atoms: C_7  and  C_13
    3  A    between atoms: C_7  and  C_49
    4  A    between atoms: C_8  and  C_17
    5  A    between atoms: C_15  and  C_37
    6  A    between atoms: N_24  and  C_35
    7  A    between atoms: N_32  and  C_41
    8  A    between atoms: C_35  and  C_52
    9  A    between atoms: C_36  and  C_40
   10  A    between atoms: C_37  and  C_49
   11  A    between atoms: C_40  and  C_41
                            x       y       z     vdW  Elec       q    Type
                         _______ _______ _______ _____ _____    ______ ____

>  <TORSDO>
F 11

$$$$
=
 OpenBabel11062420303D

 53 60  0  0  1  0  0  0  0  0999 V2000
  190.8620  171.6130  139.1280 O   0  0  0  0  0  1  0  0  0  0  0  0
  189.7910  176.4570  142.7530 C   0  0  1  0  0  3  0  0  0  0  0  0
  192.9130  172.3880  142.6980 C   0  0  0  0  0  2  0  0  0  0  0  0
  191.0800  176.9380  143.3040 C   0  0  1  0  0  3  0  0  0  0  0  0
  190.0540  172.6980  141.2050 C   0  0  1  0  0  0  0  0  0  0  0  0
  189.0130  175.4220  143.6120 C   0  0  2  0  0  3  0  0  0  0  0  0
  189.0450  173.7000  141.7400 C   0  0  0  0  0  2  0  0  0  0  0  0
  195.1590  173.5530  142.2500 C   0  0  0  0  0  0  0  0  0  0  0  0
  191.6400  175.9730  146.9990 C   0  0  0  0  0  3  0  0  0  0  0  0
  192.5810  172.3520  141.2090 C   0  0  0  0  0  2  0  0  0  0  0  0
  189.3240  173.9750  143.2130 C   0  0  0  0  0  2  0  0  0  0  0  0
  190.5260  172.8110  139.7690 C   0  0  0  0  0  0  0  0  0  0  0  0
  189.8760  177.8200  143.3460 N   0  0  0  0  0  0  0  0  0  0  0  0
  192.5720  174.9390  146.8810 C   0  0  0  0  0  3  0  0  0  0  0  0
  192.5980  175.2090  144.4500 C   0  0  0  0  0  0  0  0  0  0  0  0
  191.4340  173.3110  140.8980 C   0  0  1  0  0  3  0  0  0  0  0  0
  190.0630  171.4100  141.7550 O   0  0  0  0  0  1  0  0  0  0  0  0
  193.8820  173.5110  143.0850 C   0  0  1  0  0  3  0  0  0  0  0  0
  191.5920  176.2250  144.5620 C   0  0  0  0  0  0  0  0  0  0  0  0
  195.5840  174.7090  141.7130 C   0  0  0  0  0  3  0  0  0  0  0  0
  189.2850  177.8500  144.5670 O   0  0  0  0  0  1  0  0  0  0  0  0
  193.0460  174.5670  145.6190 C   0  0  0  0  0  3  0  0  0  0  0  0
  193.3980  175.7830  142.1040 C   0  0  0  0  0  2  0  0  0  0  0  0
  193.1880  174.8120  143.1830 N   0  0  0  0  0  0  0  0  0  0  0  0
  194.8880  176.0210  141.9520 C   0  0  0  0  0  2  0  0  0  0  0  0
  189.9110  173.7940  138.9850 O   0  0  0  0  0  1  0  0  0  0  0  0
  191.1680  176.6090  145.8540 C   0  0  0  0  0  3  0  0  0  0  0  0
  195.9330  172.3130  141.9880 C   0  0  0  0  0  0  0  0  0  0  0  0
  196.1290  171.9300  140.8010 O   0  0  0  0  0  0  0  0  0  0  0  0
  196.4730  171.5530  143.0740 N   0  0  0  0  0  2  0  0  0  0  0  0
  196.9130  170.1740  142.9170 C   0  0  0  0  0  2  0  0  0  0  0  0
  196.5430  169.3550  144.1400 C   0  0  0  0  0  2  0  0  0  0  0  0
  196.5800  169.7130  146.5020 O   0  0  0  0  0  0  0  0  0  0  0  0
  194.7060  168.5330  145.9200 O   0  0  0  0  0  1  0  0  0  0  0  0
  195.1990  169.7990  146.2520 C   0  0  2  0  0  3  0  0  0  0  0  0
  196.2170  170.3050  145.2820 C   0  0  2  0  0  3  0  0  0  0  0  0
  187.5070  175.7130  143.6930 C   0  0  0  0  0  2  0  0  0  0  0  0
  186.9420  176.3230  142.4130 C   0  0  0  0  0  2  0  0  0  0  0  0
  186.7430  178.6950  142.2310 O   0  0  0  0  0  0  0  0  0  0  0  0
  185.0480  177.7470  141.7340 N   0  0  0  0  0  0  0  0  0  0  0  0
  185.7690  178.8350  141.3180 O   0  0  0  0  0  0  0  0  0  0  0  0
  186.1050  177.5640  142.7100 C   0  0  1  0  0  0  0  0  0  0  0  0
  185.2250  176.6550  144.9650 C   0  0  0  0  0  3  0  0  0  0  0  0
  185.3730  178.3510  146.5470 C   0  0  0  0  0  0  0  0  0  0  0  0
  185.0140  177.0340  146.2990 C   0  0  0  0  0  3  0  0  0  0  0  0
  185.7380  177.6850  144.1790 C   0  0  0  0  0  0  0  0  0  0  0  0
  185.9410  179.0590  145.1330 S   0  0  0  0  0  0  0  0  0  0  0  0
  186.4230  179.9770  148.0750 C   0  0  0  0  0  1  0  0  0  0  0  0
  185.2450  179.0410  147.8610 C   0  0  0  0  0  2  0  0  0  0  0  0
  183.8000  178.2680  142.2910 C   0  0  0  0  0  2  0  0  0  0  0  0
  181.5300  178.6600  141.6960 O   0  0  0  0  0  1  0  0  0  0  0  0
  182.8930  177.5410  140.0900 C   0  0  0  0  0  1  0  0  0  0  0  0
  182.8300  178.6070  141.1740 C   0  0  2  0  0  3  0  0  0  0  0  0
  1 12  1  0  0  0  0
  2  4  1  0  0  0  0
  2 13  1  1  0  0  0
  2  6  1  0  0  0  0
  4 13  1  0  0  0  0
  4 19  1  1  0  0  0
  5  7  1  0  0  0  0
  5 17  1  1  0  0  0
  6 37  1  6  0  0  0
  7 11  1  0  0  0  0
  8 18  1  0  0  0  0
 10  3  1  0  0  0  0
 11  6  1  0  0  0  0
 12 16  1  0  0  0  0
 12  5  1  0  0  0  0
 13 21  1  0  0  0  0
 14  9  1  0  0  0  0
 15 19  2  0  0  0  0
 15 22  1  0  0  0  0
 16  5  1  0  0  0  0
 16 10  1  1  0  0  0
 18  3  1  6  0  0  0
 18 24  1  0  0  0  0
 19 27  1  0  0  0  0
 20 25  1  0  0  0  0
 20  8  2  0  0  0  0
 22 14  2  0  0  0  0
 23 24  1  0  0  0  0
 24 15  1  0  0  0  0
 25 23  1  0  0  0  0
 26 12  1  0  0  0  0
 27  9  2  0  0  0  0
 28  8  1  0  0  0  0
 28 30  1  0  0  0  0
 29 28  2  0  0  0  0
 31 30  1  0  0  0  0
 31 32  1  0  0  0  0
 35 34  1  6  0  0  0
 35 33  1  0  0  0  0
 36 32  1  6  0  0  0
 36 35  1  0  0  0  0
 36 33  1  0  0  0  0
 38 37  1  0  0  0  0
 39 42  1  0  0  0  0
 40 50  1  0  0  0  0
 40 42  1  0  0  0  0
 41 40  1  0  0  0  0
 41 39  1  0  0  0  0
 42 38  1  6  0  0  0
 42 46  1  0  0  0  0
 43 45  1  0  0  0  0
 44 49  1  0  0  0  0
 45 44  2  0  0  0  0
 46 43  2  0  0  0  0
 46 47  1  0  0  0  0
 47 44  1  0  0  0  0
 49 48  1  0  0  0  0
 53 52  1  6  0  0  0
 53 51  1  0  0  0  0
 53 50  1  0  0  0  0
M  END
>  <MODEL>
6

>  <REMARK>
 VINA RESULT:      -6.9      2.992     10.683
  Name = 
  11 active torsions:
  status: ('A' for Active; 'I' for Inactive)
    1  A    between atoms: C_2  and  C_23
    2  A    between atoms: C_7  and  C_13
    3  A    between atoms: C_7  and  C_49
    4  A    between atoms: C_8  and  C_17
    5  A    between atoms: C_15  and  C_37
    6  A    between atoms: N_24  and  C_35
    7  A    between atoms: N_32  and  C_41
    8  A    between atoms: C_35  and  C_52
    9  A    between atoms: C_36  and  C_40
   10  A    between atoms: C_37  and  C_49
   11  A    between atoms: C_40  and  C_41
                            x       y       z     vdW  Elec       q    Type
                         _______ _______ _______ _____ _____    ______ ____

>  <TORSDO>
F 11

$$$$
=
 OpenBabel11062420303D

 53 60  0  0  1  0  0  0  0  0999 V2000
  189.4940  172.5290  140.4460 O   0  0  0  0  0  1  0  0  0  0  0  0
  192.5660  176.0450  144.4410 C   0  0  1  0  0  3  0  0  0  0  0  0
  193.4180  171.7870  141.7130 C   0  0  0  0  0  2  0  0  0  0  0  0
  193.9850  176.1210  144.0210 C   0  0  1  0  0  3  0  0  0  0  0  0
  190.5570  172.9950  142.6370 C   0  0  1  0  0  0  0  0  0  0  0  0
  192.1980  174.9200  145.4470 C   0  0  2  0  0  3  0  0  0  0  0  0
  190.4970  173.9120  143.8460 C   0  0  0  0  0  2  0  0  0  0  0  0
  195.1300  172.6760  140.0160 C   0  0  0  0  0  0  0  0  0  0  0  0
  196.3460  173.9400  146.1580 C   0  0  0  0  0  3  0  0  0  0  0  0
  192.2510  172.2850  140.8670 C   0  0  0  0  0  2  0  0  0  0  0  0
  191.6960  173.6500  144.7510 C   0  0  0  0  0  2  0  0  0  0  0  0
  190.0460  173.4920  141.2990 C   0  0  0  0  0  0  0  0  0  0  0  0
  193.4420  177.1140  144.9950 N   0  0  0  0  0  0  0  0  0  0  0  0
  196.5980  172.8700  145.2950 C   0  0  0  0  0  3  0  0  0  0  0  0
  195.2050  173.9030  143.5710 C   0  0  0  0  0  0  0  0  0  0  0  0
  191.5560  173.4560  141.5580 C   0  0  1  0  0  3  0  0  0  0  0  0
  190.4780  171.6120  142.8500 O   0  0  0  0  0  1  0  0  0  0  0  0
  194.7190  172.5620  141.4820 C   0  0  1  0  0  3  0  0  0  0  0  0
  194.8910  174.9700  144.4770 C   0  0  0  0  0  0  0  0  0  0  0  0
  195.4840  173.8650  139.4990 C   0  0  0  0  0  3  0  0  0  0  0  0
  193.7830  176.8380  146.2780 O   0  0  0  0  0  1  0  0  0  0  0  0
  196.0350  172.8570  144.0160 C   0  0  0  0  0  3  0  0  0  0  0  0
  194.5190  175.0750  141.4200 C   0  0  0  0  0  2  0  0  0  0  0  0
  194.7140  173.8520  142.2050 N   0  0  0  0  0  0  0  0  0  0  0  0
  195.5680  175.1190  140.3250 C   0  0  0  0  0  2  0  0  0  0  0  0
  189.4470  174.7570  141.2910 O   0  0  0  0  0  1  0  0  0  0  0  0
  195.5120  174.9760  145.7460 C   0  0  0  0  0  3  0  0  0  0  0  0
  195.1130  171.4850  139.1300 C   0  0  0  0  0  0  0  0  0  0  0  0
  195.7010  170.4260  139.4850 O   0  0  0  0  0  0  0  0  0  0  0  0
  194.4200  171.5240  137.8780 N   0  0  0  0  0  2  0  0  0  0  0  0
  194.6610  170.5490  136.8240 C   0  0  0  0  0  2  0  0  0  0  0  0
  195.3020  171.2140  135.6200 C   0  0  0  0  0  2  0  0  0  0  0  0
  197.4570  170.7840  136.5590 O   0  0  0  0  0  0  0  0  0  0  0  0
  197.3990  172.8940  135.6730 O   0  0  0  0  0  1  0  0  0  0  0  0
  197.8130  171.5770  135.4540 C   0  0  2  0  0  3  0  0  0  0  0  0
  196.6790  170.6050  135.4040 C   0  0  2  0  0  3  0  0  0  0  0  0
  191.2680  175.3960  146.5730 C   0  0  0  0  0  2  0  0  0  0  0  0
  190.5870  176.7270  146.2690 C   0  0  0  0  0  2  0  0  0  0  0  0
  188.7300  175.2280  146.2250 O   0  0  0  0  0  0  0  0  0  0  0  0
  188.2730  176.9830  147.0800 N   0  0  0  0  0  0  0  0  0  0  0  0
  187.9880  175.6560  147.2590 O   0  0  0  0  0  0  0  0  0  0  0  0
  189.1010  176.5380  145.9760 C   0  0  1  0  0  0  0  0  0  0  0  0
  189.4430  177.8940  143.8010 C   0  0  0  0  0  3  0  0  0  0  0  0
  187.7290  177.3560  142.3260 C   0  0  0  0  0  0  0  0  0  0  0  0
  188.8810  178.1020  142.5330 C   0  0  0  0  0  3  0  0  0  0  0  0
  188.7180  176.9930  144.5780 C   0  0  0  0  0  0  0  0  0  0  0  0
  187.3910  176.4460  143.6970 S   0  0  0  0  0  0  0  0  0  0  0  0
  185.6950  178.2840  141.2850 C   0  0  0  0  0  1  0  0  0  0  0  0
  186.9030  177.3830  141.0870 C   0  0  0  0  0  2  0  0  0  0  0  0
  187.0220  177.6220  146.6720 C   0  0  0  0  0  2  0  0  0  0  0  0
  185.0110  178.5720  147.5160 O   0  0  0  0  0  1  0  0  0  0  0  0
  187.0600  179.4210  148.3940 C   0  0  0  0  0  1  0  0  0  0  0  0
  186.3110  178.1980  147.8830 C   0  0  2  0  0  3  0  0  0  0  0  0
  1 12  1  0  0  0  0
  2 13  1  1  0  0  0
  2  6  1  0  0  0  0
  4  2  1  0  0  0  0
  4 19  1  1  0  0  0
  4 13  1  0  0  0  0
  5 17  1  1  0  0  0
  5  7  1  0  0  0  0
  6 37  1  1  0  0  0
  7 11  1  0  0  0  0
  8 18  1  0  0  0  0
 10  3  1  0  0  0  0
 11  6  1  0  0  0  0
 12 16  1  0  0  0  0
 12  5  1  0  0  0  0
 13 21  1  0  0  0  0
 14  9  2  0  0  0  0
 15 22  2  0  0  0  0
 15 19  1  0  0  0  0
 16 10  1  6  0  0  0
 16  5  1  0  0  0  0
 18  3  1  6  0  0  0
 18 24  1  0  0  0  0
 19 27  2  0  0  0  0
 20  8  2  0  0  0  0
 20 25  1  0  0  0  0
 22 14  1  0  0  0  0
 23 24  1  0  0  0  0
 24 15  1  0  0  0  0
 25 23  1  0  0  0  0
 26 12  1  0  0  0  0
 27  9  1  0  0  0  0
 28 29  2  0  0  0  0
 28  8  1  0  0  0  0
 30 28  1  0  0  0  0
 31 30  1  0  0  0  0
 32 31  1  0  0  0  0
 35 34  1  1  0  0  0
 35 33  1  0  0  0  0
 36 35  1  0  0  0  0
 36 32  1  1  0  0  0
 36 33  1  0  0  0  0
 38 37  1  0  0  0  0
 39 41  1  0  0  0  0
 40 41  1  0  0  0  0
 42 39  1  0  0  0  0
 42 38  1  1  0  0  0
 42 40  1  0  0  0  0
 43 46  2  0  0  0  0
 44 45  2  0  0  0  0
 44 47  1  0  0  0  0
 45 43  1  0  0  0  0
 46 42  1  0  0  0  0
 47 46  1  0  0  0  0
 49 48  1  0  0  0  0
 49 44  1  0  0  0  0
 50 40  1  0  0  0  0
 50 53  1  0  0  0  0
 51 53  1  0  0  0  0
 53 52  1  6  0  0  0
M  END
>  <MODEL>
7

>  <REMARK>
 VINA RESULT:      -6.8      3.633      9.806
  Name = 
  11 active torsions:
  status: ('A' for Active; 'I' for Inactive)
    1  A    between atoms: C_2  and  C_23
    2  A    between atoms: C_7  and  C_13
    3  A    between atoms: C_7  and  C_49
    4  A    between atoms: C_8  and  C_17
    5  A    between atoms: C_15  and  C_37
    6  A    between atoms: N_24  and  C_35
    7  A    between atoms: N_32  and  C_41
    8  A    between atoms: C_35  and  C_52
    9  A    between atoms: C_36  and  C_40
   10  A    between atoms: C_37  and  C_49
   11  A    between atoms: C_40  and  C_41
                            x       y       z     vdW  Elec       q    Type
                         _______ _______ _______ _____ _____    ______ ____

>  <TORSDO>
F 11

$$$$
=
 OpenBabel11062420303D

 53 60  0  0  1  0  0  0  0  0999 V2000
  191.0210  171.5580  139.3010 O   0  0  0  0  0  1  0  0  0  0  0  0
  189.6990  176.4760  142.7390 C   0  0  1  0  0  3  0  0  0  0  0  0
  192.9210  172.4910  142.9180 C   0  0  0  0  0  2  0  0  0  0  0  0
  190.9540  177.0070  143.3200 C   0  0  1  0  0  3  0  0  0  0  0  0
  190.1110  172.6820  141.3150 C   0  0  1  0  0  0  0  0  0  0  0  0
  188.9160  175.4470  143.6000 C   0  0  2  0  0  3  0  0  0  0  0  0
  189.0590  173.6730  141.7830 C   0  0  0  0  0  2  0  0  0  0  0  0
  195.1520  173.7000  142.5150 C   0  0  0  0  0  0  0  0  0  0  0  0
  191.4030  176.1650  147.0610 C   0  0  0  0  0  3  0  0  0  0  0  0
  192.6450  172.4020  141.4200 C   0  0  0  0  0  2  0  0  0  0  0  0
  189.2760  173.9970  143.2560 C   0  0  0  0  0  2  0  0  0  0  0  0
  190.6330  172.7650  139.8940 C   0  0  0  0  0  0  0  0  0  0  0  0
  189.7270  177.8580  143.2930 N   0  0  0  0  0  0  0  0  0  0  0  0
  192.3640  175.1530  147.0070 C   0  0  0  0  0  3  0  0  0  0  0  0
  192.4720  175.3520  144.5720 C   0  0  0  0  0  0  0  0  0  0  0  0
  191.4860  173.3220  141.0390 C   0  0  1  0  0  3  0  0  0  0  0  0
  190.1320  171.4110  141.9040 O   0  0  0  0  0  1  0  0  0  0  0  0
  193.8460  173.6490  143.3050 C   0  0  1  0  0  3  0  0  0  0  0  0
  191.4370  176.3450  144.6170 C   0  0  0  0  0  0  0  0  0  0  0  0
  195.5670  174.8500  141.9590 C   0  0  0  0  0  3  0  0  0  0  0  0
  189.0920  177.9080  144.4900 O   0  0  0  0  0  1  0  0  0  0  0  0
  192.8930  174.7560  145.7750 C   0  0  0  0  0  3  0  0  0  0  0  0
  193.3420  175.8780  142.2400 C   0  0  0  0  0  2  0  0  0  0  0  0
  193.1170  174.9340  143.3390 N   0  0  0  0  0  0  0  0  0  0  0  0
  194.8310  176.1500  142.1340 C   0  0  0  0  0  2  0  0  0  0  0  0
  190.0220  173.7090  139.0590 O   0  0  0  0  0  1  0  0  0  0  0  0
  190.9570  176.7550  145.8810 C   0  0  0  0  0  3  0  0  0  0  0  0
  195.9660  172.4730  142.3180 C   0  0  0  0  0  0  0  0  0  0  0  0
  196.5310  171.9260  143.3060 O   0  0  0  0  0  0  0  0  0  0  0  0
  196.1050  171.8970  141.0150 N   0  0  0  0  0  2  0  0  0  0  0  0
  197.1530  170.9400  140.6940 C   0  0  0  0  0  2  0  0  0  0  0  0
  196.5920  169.7870  139.8820 C   0  0  0  0  0  2  0  0  0  0  0  0
  194.5830  168.5190  139.6270 O   0  0  0  0  0  0  0  0  0  0  0  0
  195.1140  169.5480  137.6510 O   0  0  0  0  0  1  0  0  0  0  0  0
  194.3030  169.6130  138.7890 C   0  0  2  0  0  3  0  0  0  0  0  0
  195.0810  169.7600  140.0570 C   0  0  2  0  0  3  0  0  0  0  0  0
  187.4010  175.7010  143.6180 C   0  0  0  0  0  2  0  0  0  0  0  0
  186.8800  176.3250  142.3270 C   0  0  0  0  0  2  0  0  0  0  0  0
  186.6770  178.6830  142.0170 O   0  0  0  0  0  0  0  0  0  0  0  0
  184.9480  177.7210  141.6960 N   0  0  0  0  0  0  0  0  0  0  0  0
  185.6420  178.7760  141.1670 O   0  0  0  0  0  0  0  0  0  0  0  0
  186.0690  177.5880  142.6060 C   0  0  1  0  0  0  0  0  0  0  0  0
  185.4620  176.7970  144.9910 C   0  0  0  0  0  3  0  0  0  0  0  0
  185.5580  178.6290  146.4180 C   0  0  0  0  0  0  0  0  0  0  0  0
  185.3170  177.2660  146.3040 C   0  0  0  0  0  3  0  0  0  0  0  0
  185.8050  177.7990  144.0870 C   0  0  0  0  0  0  0  0  0  0  0  0
  185.9410  179.2630  144.9100 S   0  0  0  0  0  0  0  0  0  0  0  0
  186.7990  179.4060  148.4010 C   0  0  0  0  0  1  0  0  0  0  0  0
  185.4610  179.4130  147.6800 C   0  0  0  0  0  2  0  0  0  0  0  0
  183.7440  178.2840  142.3060 C   0  0  0  0  0  2  0  0  0  0  0  0
  182.8370  177.9460  140.1330 O   0  0  0  0  0  1  0  0  0  0  0  0
  181.3810  178.8680  141.7820 C   0  0  0  0  0  1  0  0  0  0  0  0
  182.5190  177.8990  141.4970 C   0  0  2  0  0  3  0  0  0  0  0  0
  1 12  1  0  0  0  0
  2 13  1  1  0  0  0
  2  4  1  0  0  0  0
  2  6  1  0  0  0  0
  4 19  1  1  0  0  0
  5  7  1  0  0  0  0
  5 17  1  1  0  0  0
  6 37  1  6  0  0  0
  7 11  1  0  0  0  0
  8 18  1  0  0  0  0
 10  3  1  0  0  0  0
 11  6  1  0  0  0  0
 12 16  1  0  0  0  0
 12  5  1  0  0  0  0
 13  4  1  0  0  0  0
 13 21  1  0  0  0  0
 14  9  1  0  0  0  0
 15 19  2  0  0  0  0
 15 22  1  0  0  0  0
 16  5  1  0  0  0  0
 16 10  1  1  0  0  0
 18  3  1  6  0  0  0
 18 24  1  0  0  0  0
 19 27  1  0  0  0  0
 20 25  1  0  0  0  0
 20  8  2  0  0  0  0
 22 14  2  0  0  0  0
 23 24  1  0  0  0  0
 24 15  1  0  0  0  0
 25 23  1  0  0  0  0
 26 12  1  0  0  0  0
 27  9  2  0  0  0  0
 28  8  1  0  0  0  0
 28 29  2  0  0  0  0
 30 28  1  0  0  0  0
 31 30  1  0  0  0  0
 32 31  1  0  0  0  0
 33 36  1  0  0  0  0
 35 34  1  6  0  0  0
 35 33  1  0  0  0  0
 35 36  1  0  0  0  0
 36 32  1  6  0  0  0
 38 37  1  0  0  0  0
 39 42  1  0  0  0  0
 40 50  1  0  0  0  0
 40 42  1  0  0  0  0
 41 40  1  0  0  0  0
 41 39  1  0  0  0  0
 42 38  1  6  0  0  0
 42 46  1  0  0  0  0
 43 45  1  0  0  0  0
 44 49  1  0  0  0  0
 45 44  2  0  0  0  0
 46 47  1  0  0  0  0
 46 43  2  0  0  0  0
 47 44  1  0  0  0  0
 49 48  1  0  0  0  0
 51 53  1  0  0  0  0
 53 52  1  6  0  0  0
 53 50  1  0  0  0  0
M  END
>  <MODEL>
8

>  <REMARK>
 VINA RESULT:      -6.8      3.495     10.750
  Name = 
  11 active torsions:
  status: ('A' for Active; 'I' for Inactive)
    1  A    between atoms: C_2  and  C_23
    2  A    between atoms: C_7  and  C_13
    3  A    between atoms: C_7  and  C_49
    4  A    between atoms: C_8  and  C_17
    5  A    between atoms: C_15  and  C_37
    6  A    between atoms: N_24  and  C_35
    7  A    between atoms: N_32  and  C_41
    8  A    between atoms: C_35  and  C_52
    9  A    between atoms: C_36  and  C_40
   10  A    between atoms: C_37  and  C_49
   11  A    between atoms: C_40  and  C_41
                            x       y       z     vdW  Elec       q    Type
                         _______ _______ _______ _____ _____    ______ ____

>  <TORSDO>
F 11

$$$$
=
 OpenBabel11062420303D

 53 60  0  0  1  0  0  0  0  0999 V2000
  189.2100  172.6120  141.4770 O   0  0  0  0  0  1  0  0  0  0  0  0
  195.0210  171.7360  143.2690 C   0  0  1  0  0  3  0  0  0  0  0  0
  191.8330  175.6910  142.5670 C   0  0  0  0  0  2  0  0  0  0  0  0
  195.3410  172.6990  144.3490 C   0  0  1  0  0  3  0  0  0  0  0  0
  191.6680  172.7600  141.1950 C   0  0  1  0  0  0  0  0  0  0  0  0
  195.3520  172.1830  141.8190 C   0  0  2  0  0  3  0  0  0  0  0  0
  192.9310  171.9240  141.0830 C   0  0  0  0  0  2  0  0  0  0  0  0
  191.4670  176.4090  145.0070 C   0  0  0  0  0  0  0  0  0  0  0  0
  197.5420  175.6490  143.1860 C   0  0  0  0  0  3  0  0  0  0  0  0
  190.7440  174.6270  142.6680 C   0  0  0  0  0  2  0  0  0  0  0  0
  194.1550  172.8330  141.1160 C   0  0  0  0  0  2  0  0  0  0  0  0
  190.4680  172.2010  141.9320 C   0  0  0  0  0  0  0  0  0  0  0  0
  196.2090  171.5030  144.1360 N   0  0  0  0  0  0  0  0  0  0  0  0
  196.6090  176.6880  143.1270 C   0  0  0  0  0  3  0  0  0  0  0  0
  194.8460  175.1820  143.9040 C   0  0  0  0  0  0  0  0  0  0  0  0
  191.3620  173.2310  142.6300 C   0  0  1  0  0  3  0  0  0  0  0  0
  191.3890  173.6790  140.1750 O   0  0  0  0  0  1  0  0  0  0  0  0
  192.4700  176.0480  143.9140 C   0  0  1  0  0  3  0  0  0  0  0  0
  195.7850  174.0980  143.9030 C   0  0  0  0  0  0  0  0  0  0  0  0
  191.5570  175.8520  146.2260 C   0  0  0  0  0  3  0  0  0  0  0  0
  197.3540  171.7930  143.4690 O   0  0  0  0  0  1  0  0  0  0  0  0
  195.2790  176.4540  143.4860 C   0  0  0  0  0  3  0  0  0  0  0  0
  193.0910  174.1060  145.3990 C   0  0  0  0  0  2  0  0  0  0  0  0
  193.4640  175.0340  144.3270 N   0  0  0  0  0  0  0  0  0  0  0  0
  192.6670  174.9140  146.6110 C   0  0  0  0  0  2  0  0  0  0  0  0
  190.5720  170.8790  142.3840 O   0  0  0  0  0  1  0  0  0  0  0  0
  197.1320  174.3770  143.5790 C   0  0  0  0  0  3  0  0  0  0  0  0
  190.3550  177.3540  144.7300 C   0  0  0  0  0  0  0  0  0  0  0  0
  190.6060  178.5180  144.3110 O   0  0  0  0  0  0  0  0  0  0  0  0
  188.9950  176.9500  144.9240 N   0  0  0  0  0  2  0  0  0  0  0  0
  187.9040  177.9080  145.0250 C   0  0  0  0  0  2  0  0  0  0  0  0
  186.8260  177.5980  144.0030 C   0  0  0  0  0  2  0  0  0  0  0  0
  186.3990  177.5950  141.6510 O   0  0  0  0  0  0  0  0  0  0  0  0
  186.8210  175.4620  142.3720 O   0  0  0  0  0  1  0  0  0  0  0  0
  187.3700  176.5800  141.7370 C   0  0  2  0  0  3  0  0  0  0  0  0
  187.4070  177.7930  142.6100 C   0  0  2  0  0  3  0  0  0  0  0  0
  196.0150  171.0790  140.9810 C   0  0  0  0  0  2  0  0  0  0  0  0
  197.2130  171.5730  140.1760 C   0  0  0  0  0  2  0  0  0  0  0  0
  197.8470  170.5990  138.0900 O   0  0  0  0  0  0  0  0  0  0  0  0
  195.8630  170.5720  138.3730 N   0  0  0  0  0  0  0  0  0  0  0  0
  196.8290  169.7610  137.8410 O   0  0  0  0  0  0  0  0  0  0  0  0
  196.9530  171.4800  138.6750 C   0  0  1  0  0  0  0  0  0  0  0  0
  196.3220  173.9800  138.4880 C   0  0  0  0  0  3  0  0  0  0  0  0
  197.2990  174.8400  136.5630 C   0  0  0  0  0  0  0  0  0  0  0  0
  196.5150  175.1070  137.6770 C   0  0  0  0  0  3  0  0  0  0  0  0
  196.9500  172.8380  137.9950 C   0  0  0  0  0  0  0  0  0  0  0  0
  197.7510  173.2220  136.5640 S   0  0  0  0  0  0  0  0  0  0  0  0
  196.4970  176.7810  135.2710 C   0  0  0  0  0  1  0  0  0  0  0  0
  197.6590  175.8310  135.5110 C   0  0  0  0  0  2  0  0  0  0  0  0
  195.0200  170.9970  137.2550 C   0  0  0  0  0  2  0  0  0  0  0  0
  192.8200  170.0980  137.1490 O   0  0  0  0  0  1  0  0  0  0  0  0
  193.0150  172.4730  137.2540 C   0  0  0  0  0  1  0  0  0  0  0  0
  193.5790  171.1350  137.7100 C   0  0  2  0  0  3  0  0  0  0  0  0
  1 12  1  0  0  0  0
  2 13  1  1  0  0  0
  2  4  1  0  0  0  0
  3 10  1  0  0  0  0
  4 19  1  6  0  0  0
  5 17  1  6  0  0  0
  5 12  1  0  0  0  0
  5 16  1  0  0  0  0
  6 37  1  6  0  0  0
  6  2  1  0  0  0  0
  7 11  1  0  0  0  0
  7  5  1  0  0  0  0
  8 20  2  0  0  0  0
  9 27  1  0  0  0  0
 11  6  1  0  0  0  0
 12 26  1  0  0  0  0
 12 16  1  0  0  0  0
 13  4  1  0  0  0  0
 14  9  2  0  0  0  0
 14 22  1  0  0  0  0
 15 24  1  0  0  0  0
 16 10  1  6  0  0  0
 18  3  1  6  0  0  0
 18 24  1  0  0  0  0
 18  8  1  0  0  0  0
 19 15  1  0  0  0  0
 20 25  1  0  0  0  0
 21 13  1  0  0  0  0
 22 15  2  0  0  0  0
 23 25  1  0  0  0  0
 24 23  1  0  0  0  0
 27 19  2  0  0  0  0
 28 30  1  0  0  0  0
 28  8  1  0  0  0  0
 29 28  2  0  0  0  0
 30 31  1  0  0  0  0
 32 31  1  0  0  0  0
 33 35  1  0  0  0  0
 33 36  1  0  0  0  0
 35 34  1  1  0  0  0
 35 36  1  0  0  0  0
 36 32  1  1  0  0  0
 38 37  1  0  0  0  0
 39 42  1  0  0  0  0
 40 42  1  0  0  0  0
 41 39  1  0  0  0  0
 41 40  1  0  0  0  0
 42 38  1  1  0  0  0
 44 47  1  0  0  0  0
 44 45  2  0  0  0  0
 45 43  1  0  0  0  0
 46 43  2  0  0  0  0
 46 42  1  0  0  0  0
 47 46  1  0  0  0  0
 48 49  1  0  0  0  0
 49 44  1  0  0  0  0
 50 53  1  0  0  0  0
 50 40  1  0  0  0  0
 51 53  1  0  0  0  0
 53 52  1  6  0  0  0
M  END
>  <MODEL>
9

>  <REMARK>
 VINA RESULT:      -6.7      3.905      6.528
  Name = 
  11 active torsions:
  status: ('A' for Active; 'I' for Inactive)
    1  A    between atoms: C_2  and  C_23
    2  A    between atoms: C_7  and  C_13
    3  A    between atoms: C_7  and  C_49
    4  A    between atoms: C_8  and  C_17
    5  A    between atoms: C_15  and  C_37
    6  A    between atoms: N_24  and  C_35
    7  A    between atoms: N_32  and  C_41
    8  A    between atoms: C_35  and  C_52
    9  A    between atoms: C_36  and  C_40
   10  A    between atoms: C_37  and  C_49
   11  A    between atoms: C_40  and  C_41
                            x       y       z     vdW  Elec       q    Type
                         _______ _______ _______ _____ _____    ______ ____

>  <TORSDO>
F 11

$$$$
