=
 OpenBabel11072409373D

 63 70  0  0  1  0  0  0  0  0999 V2000
  190.0940  171.8610  140.0300 C   0  0  0  0  0  2  0  0  0  0  0  0
  190.6160  171.4460  138.6500 C   0  0  1  0  0  3  0  0  0  0  0  0
  191.7120  173.6420  139.7630 O   0  0  0  0  0  0  0  0  0  0  0  0
  190.7120  172.6720  137.7140 C   0  0  1  0  0  3  0  0  0  0  0  0
  191.4940  173.8240  138.3790 C   0  0  0  0  0  2  0  0  0  0  0  0
  190.4680  173.3270  140.3390 C   0  0  2  0  0  3  0  0  0  0  0  0
  191.8730  170.8460  138.7930 O   0  0  0  0  0  1  0  0  0  0  0  0
  189.4900  177.1720  142.8130 O   0  0  0  0  0  1  0  0  0  0  0  0
  192.6180  174.0390  142.8070 C   0  0  0  0  0  2  0  0  0  0  0  0
  189.6200  174.1640  144.7740 O   0  0  0  0  0  1  0  0  0  0  0  0
  190.5860  175.1940  142.0920 C   0  0  2  0  0  3  0  0  0  0  0  0
  189.4690  175.7810  142.9740 C   0  0  1  0  0  0  0  0  0  0  0  0
  190.4410  173.6860  141.8260 C   0  0  2  0  0  3  0  0  0  0  0  0
  191.4540  175.5950  144.3580 C   0  0  1  0  0  3  0  0  0  0  0  0
  189.9380  175.4740  144.4010 C   0  0  2  0  0  3  0  0  0  0  0  0
  191.8680  175.3540  142.9090 C   0  0  1  0  0  3  0  0  0  0  0  0
  191.5690  172.9810  142.5540 C   0  0  0  0  0  2  0  0  0  0  0  0
  187.8950  174.0060  142.3190 C   0  0  0  0  0  2  0  0  0  0  0  0
  188.0630  175.3010  142.5970 C   0  0  0  0  0  0  0  0  0  0  0  0
  187.1700  177.2800  141.1790 C   0  0  2  0  0  3  0  0  0  0  0  0
  186.0630  178.2910  141.3790 C   0  0  0  0  0  2  0  0  0  0  0  0
  187.0940  176.7480  139.8930 O   0  0  0  0  0  1  0  0  0  0  0  0
  186.0460  176.7930  143.3180 C   0  0  1  0  0  3  0  0  0  0  0  0
  185.6190  178.1950  142.8350 C   0  0  1  0  0  0  0  0  0  0  0  0
  186.2570  179.2020  143.5640 O   0  0  0  0  0  1  0  0  0  0  0  0
  186.9070  176.1980  142.2020 C   0  0  2  0  0  3  0  0  0  0  0  0
  183.5710  178.9740  144.0490 O   0  0  0  0  0  1  0  0  0  0  0  0
  183.3690  177.9820  141.9940 O   0  0  0  0  0  0  0  0  0  0  0  0
  184.1300  178.3880  142.9200 C   0  0  0  0  0  0  0  0  0  0  0  0
  186.7000  176.7730  144.7050 C   0  0  0  0  0  2  0  0  0  0  0  0
  184.8340  176.8450  146.6250 C   0  0  0  0  0  3  0  0  0  0  0  0
  185.6750  176.8130  145.7570 C   0  0  0  0  0  0  0  0  0  0  0  0
  193.2660  177.0110  144.9880 O   0  0  0  0  0  1  0  0  0  0  0  0
  191.8900  176.9860  144.7860 C   0  0  0  0  0  2  0  0  0  0  0  0
  191.2030  172.3590  136.2830 C   0  0  2  0  0  3  0  0  0  0  0  0
  193.4740  171.7200  136.0140 C   0  0  0  0  0  2  0  0  0  0  0  0
  194.9690  172.9870  137.6330 C   0  0  0  0  0  0  0  0  0  0  0  0
  194.9030  172.0910  136.4190 C   0  0  1  0  0  3  0  0  0  0  0  0
  192.7700  177.8870  135.0040 C   0  0  0  0  0  3  0  0  0  0  0  0
  195.2210  174.3050  137.4890 C   0  0  0  0  0  0  0  0  0  0  0  0
  194.6010  172.4180  138.9660 C   0  0  0  0  0  2  0  0  0  0  0  0
  192.5760  172.8660  136.0950 N   0  0  0  0  0  0  0  0  0  0  0  0
  191.6360  175.7300  134.5210 C   0  0  0  0  0  3  0  0  0  0  0  0
  195.7430  172.5030  139.9180 C   0  0  0  0  0  3  0  0  0  0  0  0
  193.6900  175.7710  135.9120 C   0  0  1  0  0  3  0  0  0  0  0  0
  192.7100  173.5660  134.8210 C   0  0  0  0  0  2  0  0  0  0  0  0
  195.3570  175.0280  135.8450 S   0  0  0  0  0  0  0  0  0  0  0  0
  195.3580  175.2440  138.6250 C   0  0  0  0  0  3  0  0  0  0  0  0
  195.8690  176.0240  140.7300 F   0  0  0  0  0  0  0  0  0  0  0  0
  191.4460  177.1940  134.8120 C   0  0  0  0  0  2  0  0  0  0  0  0
  193.8080  177.2260  135.5270 C   0  0  0  0  0  3  0  0  0  0  0  0
  192.6720  175.0500  135.0350 C   0  0  0  0  0  0  0  0  0  0  0  0
  197.3300  173.6080  141.3630 C   0  0  0  0  0  1  0  0  0  0  0  0
  195.7720  174.9790  139.8720 C   0  0  0  0  0  0  0  0  0  0  0  0
  196.2600  173.6600  140.3290 C   0  0  0  0  0  0  0  0  0  0  0  0
  197.9160  169.8590  137.1070 C   0  0  0  0  0  3  0  0  0  0  0  0
  197.1030  170.9900  137.0200 C   0  0  0  0  0  3  0  0  0  0  0  0
  195.7860  170.8830  136.5410 C   0  0  0  0  0  0  0  0  0  0  0  0
  197.4200  168.6150  136.7140 C   0  0  0  0  0  3  0  0  0  0  0  0
  196.1120  168.5030  136.2310 C   0  0  0  0  0  3  0  0  0  0  0  0
  195.2970  169.6340  136.1440 C   0  0  0  0  0  3  0  0  0  0  0  0
  189.6740  171.9010  134.7350 C   0  0  0  0  0  1  0  0  0  0  0  0
  190.3280  172.9650  135.3660 O   0  0  0  0  0  0  0  0  0  0  0  0
  2  7  1  1  0  0  0
  2  1  1  0  0  0  0
  3  6  1  0  0  0  0
  4 35  1  6  0  0  0
  4  5  1  0  0  0  0
  4  2  1  0  0  0  0
  5  3  1  0  0  0  0
  6  1  1  1  0  0  0
  6 13  1  0  0  0  0
  8 12  1  0  0  0  0
  9 16  1  0  0  0  0
 11 16  1  0  0  0  0
 11 12  1  0  0  0  0
 12 15  1  0  0  0  0
 13 11  1  0  0  0  0
 13 17  1  0  0  0  0
 14 15  1  0  0  0  0
 14 34  1  0  0  0  0
 15 10  1  0  0  0  0
 16 14  1  0  0  0  0
 17  9  1  0  0  0  0
 18 19  2  0  0  0  0
 19 12  1  0  0  0  0
 20 21  1  0  0  0  0
 20 26  1  0  0  0  0
 21 24  1  0  0  0  0
 22 20  1  0  0  0  0
 23 30  1  0  0  0  0
 24 29  1  0  0  0  0
 24 23  1  0  0  0  0
 24 25  1  0  0  0  0
 26 19  1  0  0  0  0
 26 23  1  0  0  0  0
 28 29  2  0  0  0  0
 29 27  1  0  0  0  0
 30 32  1  0  0  0  0
 32 31  3  0  0  0  0
 34 33  1  0  0  0  0
 36 42  1  0  0  0  0
 36 38  1  0  0  0  0
 37 41  1  0  0  0  0
 38 58  1  0  0  0  0
 38 37  1  0  0  0  0
 39 51  2  0  0  0  0
 40 37  2  0  0  0  0
 40 48  1  0  0  0  0
 41 44  1  0  0  0  0
 42 35  1  0  0  0  0
 43 50  1  0  0  0  0
 43 52  2  0  0  0  0
 44 55  2  0  0  0  0
 46 52  1  0  0  0  0
 46 42  1  0  0  0  0
 47 45  1  0  0  0  0
 47 40  1  0  0  0  0
 48 54  2  0  0  0  0
 50 39  1  0  0  0  0
 51 45  1  0  0  0  0
 52 45  1  0  0  0  0
 54 55  1  0  0  0  0
 54 49  1  0  0  0  0
 55 53  1  0  0  0  0
 57 56  1  0  0  0  0
 58 57  2  0  0  0  0
 59 56  2  0  0  0  0
 60 59  1  0  0  0  0
 61 60  2  0  0  0  0
 61 58  1  0  0  0  0
 62 63  1  0  0  0  0
 63 35  1  0  0  0  0
M  END
>  <MODEL>
1

>  <REMARK>
 VINA RESULT:      -8.0      0.000      0.000
  Name = 
  11 active torsions:
  status: ('A' for Active; 'I' for Inactive)
    1  A    between atoms: C_10  and  C_19
    2  A    between atoms: C_15  and  C_62
    3  A    between atoms: C_17  and  C_44
    4  A    between atoms: O_21  and  C_34
    5  A    between atoms: C_22  and  C_61
    6  A    between atoms: N_29  and  C_34
    7  A    between atoms: C_30  and  C_34
    8  A    between atoms: C_33  and  C_35
    9  A    between atoms: C_40  and  C_52
   10  A    between atoms: C_58  and  C_61
   11  A    between atoms: C_62  and  C_63
                            x       y       z     vdW  Elec       q    Type
                         _______ _______ _______ _____ _____    ______ ____

>  <TORSDO>
F 11

$$$$
=
 OpenBabel11072409373D

 63 70  0  0  1  0  0  0  0  0999 V2000
  190.0030  171.4150  140.7790 C   0  0  0  0  0  2  0  0  0  0  0  0
  190.4840  171.0360  139.3750 C   0  0  1  0  0  3  0  0  0  0  0  0
  191.6940  173.1340  140.5560 O   0  0  0  0  0  0  0  0  0  0  0  0
  190.6190  172.2940  138.4870 C   0  0  1  0  0  3  0  0  0  0  0  0
  191.4620  173.3830  139.1850 C   0  0  0  0  0  2  0  0  0  0  0  0
  190.4470  172.8500  141.1420 C   0  0  2  0  0  3  0  0  0  0  0  0
  191.7150  170.3760  139.4700 O   0  0  0  0  0  1  0  0  0  0  0  0
  192.1380  176.2760  143.8370 O   0  0  0  0  0  1  0  0  0  0  0  0
  192.0570  171.8500  143.9030 C   0  0  0  0  0  2  0  0  0  0  0  0
  189.7910  174.1250  145.5040 O   0  0  0  0  0  1  0  0  0  0  0  0
  191.5920  174.0980  143.0660 C   0  0  2  0  0  3  0  0  0  0  0  0
  191.1100  175.3250  143.8610 C   0  0  1  0  0  0  0  0  0  0  0  0
  190.4590  173.1480  142.6420 C   0  0  2  0  0  3  0  0  0  0  0  0
  192.1310  173.7970  145.4460 C   0  0  1  0  0  3  0  0  0  0  0  0
  190.9980  174.8010  145.2980 C   0  0  2  0  0  3  0  0  0  0  0  0
  192.4620  173.3050  144.0400 C   0  0  1  0  0  3  0  0  0  0  0  0
  190.6230  171.8610  143.4280 C   0  0  0  0  0  2  0  0  0  0  0  0
  190.0290  176.9270  142.3370 C   0  0  0  0  0  2  0  0  0  0  0  0
  189.8600  175.9930  143.2760 C   0  0  0  0  0  0  0  0  0  0  0  0
  187.2900  176.0810  142.9430 C   0  0  2  0  0  3  0  0  0  0  0  0
  186.1370  176.5000  143.8280 C   0  0  0  0  0  2  0  0  0  0  0  0
  187.0000  174.8600  142.3390 O   0  0  0  0  0  1  0  0  0  0  0  0
  188.1940  176.7520  145.1370 C   0  0  1  0  0  3  0  0  0  0  0  0
  186.7290  177.2280  145.0300 C   0  0  1  0  0  0  0  0  0  0  0  0
  186.6550  178.6040  144.8010 O   0  0  0  0  0  1  0  0  0  0  0  0
  188.4700  175.9290  143.8760 C   0  0  2  0  0  3  0  0  0  0  0  0
  184.5820  177.1800  146.3190 O   0  0  0  0  0  0  0  0  0  0  0  0
  186.5020  176.3750  147.2750 O   0  0  0  0  0  1  0  0  0  0  0  0
  185.9390  176.8870  146.2640 C   0  0  0  0  0  0  0  0  0  0  0  0
  189.2060  177.8730  145.3990 C   0  0  0  0  0  2  0  0  0  0  0  0
  190.3840  177.5390  147.7810 C   0  0  0  0  0  3  0  0  0  0  0  0
  189.8510  177.6880  146.7060 C   0  0  0  0  0  0  0  0  0  0  0  0
  194.4780  174.1840  145.2810 O   0  0  0  0  0  1  0  0  0  0  0  0
  193.3550  174.4610  146.0540 C   0  0  0  0  0  2  0  0  0  0  0  0
  191.0720  172.0200  137.0360 C   0  0  2  0  0  3  0  0  0  0  0  0
  193.3700  171.4470  136.8650 C   0  0  0  0  0  2  0  0  0  0  0  0
  194.7870  172.9290  138.3690 C   0  0  0  0  0  0  0  0  0  0  0  0
  194.7770  171.9140  137.2510 C   0  0  1  0  0  3  0  0  0  0  0  0
  192.4500  177.4490  135.2270 C   0  0  0  0  0  3  0  0  0  0  0  0
  194.9910  174.2350  138.0960 C   0  0  0  0  0  0  0  0  0  0  0  0
  194.4170  172.4830  139.7470 C   0  0  0  0  0  2  0  0  0  0  0  0
  192.4290  172.5590  136.8170 N   0  0  0  0  0  0  0  0  0  0  0  0
  191.4090  175.2110  134.9490 C   0  0  0  0  0  3  0  0  0  0  0  0
  195.5380  172.7080  140.7020 C   0  0  0  0  0  3  0  0  0  0  0  0
  193.4340  175.4730  136.3570 C   0  0  1  0  0  3  0  0  0  0  0  0
  192.5590  173.1330  135.4810 C   0  0  0  0  0  2  0  0  0  0  0  0
  195.1290  174.7940  136.3890 S   0  0  0  0  0  0  0  0  0  0  0  0
  195.0720  175.2880  139.1330 C   0  0  0  0  0  3  0  0  0  0  0  0
  195.5150  176.2960  141.1550 F   0  0  0  0  0  0  0  0  0  0  0  0
  191.1580  176.6880  135.0880 C   0  0  0  0  0  2  0  0  0  0  0  0
  193.5040  176.8860  135.8290 C   0  0  0  0  0  3  0  0  0  0  0  0
  192.4610  174.6280  135.5440 C   0  0  0  0  0  0  0  0  0  0  0  0
  197.0550  174.0160  142.0500 C   0  0  0  0  0  1  0  0  0  0  0  0
  195.4730  175.1660  140.4060 C   0  0  0  0  0  0  0  0  0  0  0  0
  196.0030  173.9200  141.0010 C   0  0  0  0  0  0  0  0  0  0  0  0
  197.9410  169.8560  137.7870 C   0  0  0  0  0  3  0  0  0  0  0  0
  197.0950  170.9440  137.5690 C   0  0  0  0  0  3  0  0  0  0  0  0
  195.7030  170.7600  137.5080 C   0  0  0  0  0  0  0  0  0  0  0  0
  197.4030  168.5770  137.9420 C   0  0  0  0  0  3  0  0  0  0  0  0
  196.0180  168.3870  137.8770 C   0  0  0  0  0  3  0  0  0  0  0  0
  195.1700  169.4750  137.6580 C   0  0  0  0  0  3  0  0  0  0  0  0
  189.3440  171.5790  135.7080 C   0  0  0  0  0  1  0  0  0  0  0  0
  190.1570  172.6250  136.1590 O   0  0  0  0  0  0  0  0  0  0  0  0
  2  7  1  1  0  0  0
  2  1  1  0  0  0  0
  3  6  1  0  0  0  0
  4 35  1  6  0  0  0
  4  5  1  0  0  0  0
  4  2  1  0  0  0  0
  5  3  1  0  0  0  0
  6  1  1  1  0  0  0
  6 13  1  0  0  0  0
  8 12  1  0  0  0  0
  9 16  1  0  0  0  0
 11 12  1  0  0  0  0
 11 16  1  0  0  0  0
 12 15  1  0  0  0  0
 13 11  1  0  0  0  0
 13 17  1  0  0  0  0
 14 34  1  0  0  0  0
 15 14  1  0  0  0  0
 15 10  1  0  0  0  0
 16 14  1  0  0  0  0
 17  9  1  0  0  0  0
 18 19  2  0  0  0  0
 19 12  1  0  0  0  0
 19 26  1  0  0  0  0
 20 21  1  0  0  0  0
 20 26  1  0  0  0  0
 21 24  1  0  0  0  0
 22 20  1  0  0  0  0
 23 30  1  0  0  0  0
 24 23  1  0  0  0  0
 24 29  1  0  0  0  0
 25 24  1  0  0  0  0
 26 23  1  0  0  0  0
 29 27  2  0  0  0  0
 29 28  1  0  0  0  0
 30 32  1  0  0  0  0
 32 31  3  0  0  0  0
 33 34  1  0  0  0  0
 36 38  1  0  0  0  0
 37 41  1  0  0  0  0
 38 58  1  0  0  0  0
 38 37  1  0  0  0  0
 39 51  2  0  0  0  0
 40 37  2  0  0  0  0
 40 48  1  0  0  0  0
 41 44  1  0  0  0  0
 42 36  1  0  0  0  0
 42 35  1  0  0  0  0
 43 50  1  0  0  0  0
 43 52  2  0  0  0  0
 44 55  2  0  0  0  0
 45 47  1  0  0  0  0
 46 52  1  0  0  0  0
 46 42  1  0  0  0  0
 47 40  1  0  0  0  0
 48 54  2  0  0  0  0
 50 39  1  0  0  0  0
 51 45  1  0  0  0  0
 52 45  1  0  0  0  0
 54 55  1  0  0  0  0
 54 49  1  0  0  0  0
 55 53  1  0  0  0  0
 56 59  1  0  0  0  0
 57 56  2  0  0  0  0
 58 57  1  0  0  0  0
 58 61  2  0  0  0  0
 60 59  2  0  0  0  0
 61 60  1  0  0  0  0
 62 63  1  0  0  0  0
 63 35  1  0  0  0  0
M  END
>  <MODEL>
2

>  <REMARK>
 VINA RESULT:      -7.8      1.505      2.089
  Name = 
  11 active torsions:
  status: ('A' for Active; 'I' for Inactive)
    1  A    between atoms: C_10  and  C_19
    2  A    between atoms: C_15  and  C_62
    3  A    between atoms: C_17  and  C_44
    4  A    between atoms: O_21  and  C_34
    5  A    between atoms: C_22  and  C_61
    6  A    between atoms: N_29  and  C_34
    7  A    between atoms: C_30  and  C_34
    8  A    between atoms: C_33  and  C_35
    9  A    between atoms: C_40  and  C_52
   10  A    between atoms: C_58  and  C_61
   11  A    between atoms: C_62  and  C_63
                            x       y       z     vdW  Elec       q    Type
                         _______ _______ _______ _____ _____    ______ ____

>  <TORSDO>
F 11

$$$$
=
 OpenBabel11072409373D

 63 70  0  0  1  0  0  0  0  0999 V2000
  195.9090  174.6850  139.8630 C   0  0  0  0  0  2  0  0  0  0  0  0
  195.5520  175.0200  138.4110 C   0  0  1  0  0  3  0  0  0  0  0  0
  194.4570  172.7900  139.4560 O   0  0  0  0  0  0  0  0  0  0  0  0
  195.6600  173.7630  137.5200 C   0  0  1  0  0  3  0  0  0  0  0  0
  194.8700  172.5810  138.1210 C   0  0  0  0  0  2  0  0  0  0  0  0
  195.5900  173.2070  140.1790 C   0  0  2  0  0  3  0  0  0  0  0  0
  194.2520  175.5380  138.3630 O   0  0  0  0  0  1  0  0  0  0  0  0
  196.0450  175.6410  144.1440 O   0  0  0  0  0  1  0  0  0  0  0  0
  197.2900  171.6740  142.6240 C   0  0  0  0  0  2  0  0  0  0  0  0
  194.3730  172.4870  144.5480 O   0  0  0  0  0  1  0  0  0  0  0  0
  196.2150  173.8680  142.5750 C   0  0  2  0  0  3  0  0  0  0  0  0
  195.3500  174.5240  143.6670 C   0  0  1  0  0  0  0  0  0  0  0  0
  195.4400  172.8960  141.6690 C   0  0  2  0  0  3  0  0  0  0  0  0
  196.7040  172.8250  144.7480 C   0  0  1  0  0  3  0  0  0  0  0  0
  195.3310  173.4780  144.7880 C   0  0  2  0  0  3  0  0  0  0  0  0
  197.2340  173.0160  143.3300 C   0  0  1  0  0  3  0  0  0  0  0  0
  195.9430  171.4960  141.9630 C   0  0  0  0  0  2  0  0  0  0  0  0
  193.9170  176.2410  142.6380 C   0  0  0  0  0  2  0  0  0  0  0  0
  193.9870  175.0170  143.1680 C   0  0  0  0  0  0  0  0  0  0  0  0
  191.6440  174.2310  142.3790 C   0  0  2  0  0  3  0  0  0  0  0  0
  190.3050  174.0900  143.0680 C   0  0  0  0  0  2  0  0  0  0  0  0
  191.9190  173.0800  141.6450 O   0  0  0  0  0  1  0  0  0  0  0  0
  191.9100  174.8770  144.7440 C   0  0  1  0  0  3  0  0  0  0  0  0
  190.4060  174.8120  144.4070 C   0  0  1  0  0  0  0  0  0  0  0  0
  189.8580  176.0900  144.2690 O   0  0  0  0  0  1  0  0  0  0  0  0
  192.6500  174.3840  143.4980 C   0  0  2  0  0  3  0  0  0  0  0  0
  188.9690  174.7360  146.4590 O   0  0  0  0  0  1  0  0  0  0  0  0
  189.6110  172.7850  145.4440 O   0  0  0  0  0  0  0  0  0  0  0  0
  189.6320  174.0500  145.4480 C   0  0  0  0  0  0  0  0  0  0  0  0
  192.3840  176.2380  145.2670 C   0  0  0  0  0  2  0  0  0  0  0  0
  191.9280  176.4360  147.8990 C   0  0  0  0  0  3  0  0  0  0  0  0
  192.1360  176.3480  146.7110 C   0  0  0  0  0  0  0  0  0  0  0  0
  196.9580  173.8010  146.9080 O   0  0  0  0  0  1  0  0  0  0  0  0
  197.6420  173.4950  145.7360 C   0  0  0  0  0  2  0  0  0  0  0  0
  195.3470  173.9970  136.0250 C   0  0  2  0  0  3  0  0  0  0  0  0
  193.1460  174.2530  135.1740 C   0  0  0  0  0  2  0  0  0  0  0  0
  191.4610  173.0370  136.6390 C   0  0  0  0  0  0  0  0  0  0  0  0
  191.7100  173.7430  135.3270 C   0  0  1  0  0  3  0  0  0  0  0  0
  194.7280  168.1720  135.4430 C   0  0  0  0  0  3  0  0  0  0  0  0
  191.3940  171.6900  136.6800 C   0  0  0  0  0  0  0  0  0  0  0  0
  191.4460  173.8440  137.8970 C   0  0  0  0  0  2  0  0  0  0  0  0
  194.1180  173.2740  135.6440 N   0  0  0  0  0  0  0  0  0  0  0  0
  195.7020  170.3750  134.8370 C   0  0  0  0  0  3  0  0  0  0  0  0
  190.1300  173.7370  138.5860 C   0  0  0  0  0  3  0  0  0  0  0  0
  193.3980  170.2430  135.7480 C   0  0  1  0  0  3  0  0  0  0  0  0
  194.3610  172.3810  134.5150 C   0  0  0  0  0  2  0  0  0  0  0  0
  191.7220  170.7190  135.1990 S   0  0  0  0  0  0  0  0  0  0  0  0
  191.0990  170.9190  137.9100 C   0  0  0  0  0  3  0  0  0  0  0  0
  190.2000  170.3940  139.9640 F   0  0  0  0  0  0  0  0  0  0  0  0
  195.9770  169.0140  135.4160 C   0  0  0  0  0  2  0  0  0  0  0  0
  193.5300  168.7460  135.6100 C   0  0  0  0  0  3  0  0  0  0  0  0
  194.5080  170.9670  134.9920 C   0  0  0  0  0  0  0  0  0  0  0  0
  188.3790  172.6400  139.8360 C   0  0  0  0  0  1  0  0  0  0  0  0
  190.3800  171.3040  138.9740 C   0  0  0  0  0  0  0  0  0  0  0  0
  189.6600  172.5910  139.0770 C   0  0  0  0  0  0  0  0  0  0  0  0
  190.1380  177.1230  134.5250 C   0  0  0  0  0  3  0  0  0  0  0  0
  191.0950  176.1340  134.7640 C   0  0  0  0  0  3  0  0  0  0  0  0
  190.6980  174.8150  135.0450 C   0  0  0  0  0  0  0  0  0  0  0  0
  188.7810  176.8000  134.5670 C   0  0  0  0  0  3  0  0  0  0  0  0
  188.3800  175.4900  134.8510 C   0  0  0  0  0  3  0  0  0  0  0  0
  189.3360  174.5000  135.0910 C   0  0  0  0  0  3  0  0  0  0  0  0
  197.2040  174.6900  135.0170 C   0  0  0  0  0  1  0  0  0  0  0  0
  196.4370  173.5460  135.2630 O   0  0  0  0  0  0  0  0  0  0  0  0
  2  7  1  1  0  0  0
  2  1  1  0  0  0  0
  3  6  1  0  0  0  0
  4 35  1  6  0  0  0
  4  5  1  0  0  0  0
  4  2  1  0  0  0  0
  5  3  1  0  0  0  0
  6  1  1  1  0  0  0
  6 13  1  0  0  0  0
  9 16  1  0  0  0  0
 10 15  1  0  0  0  0
 11 16  1  0  0  0  0
 11 12  1  0  0  0  0
 12  8  1  0  0  0  0
 12 15  1  0  0  0  0
 13 17  1  0  0  0  0
 13 11  1  0  0  0  0
 14 15  1  0  0  0  0
 14 34  1  0  0  0  0
 16 14  1  0  0  0  0
 17  9  1  0  0  0  0
 18 19  2  0  0  0  0
 19 26  1  0  0  0  0
 19 12  1  0  0  0  0
 20 21  1  0  0  0  0
 20 26  1  0  0  0  0
 21 24  1  0  0  0  0
 22 20  1  0  0  0  0
 23 30  1  0  0  0  0
 24 23  1  0  0  0  0
 24 29  1  0  0  0  0
 25 24  1  0  0  0  0
 26 23  1  0  0  0  0
 28 29  2  0  0  0  0
 29 27  1  0  0  0  0
 30 32  1  0  0  0  0
 32 31  3  0  0  0  0
 34 33  1  0  0  0  0
 36 38  1  0  0  0  0
 36 42  1  0  0  0  0
 37 40  2  0  0  0  0
 37 41  1  0  0  0  0
 38 37  1  0  0  0  0
 39 51  2  0  0  0  0
 40 48  1  0  0  0  0
 41 44  1  0  0  0  0
 42 35  1  0  0  0  0
 43 52  2  0  0  0  0
 43 50  1  0  0  0  0
 44 55  2  0  0  0  0
 46 52  1  0  0  0  0
 46 42  1  0  0  0  0
 47 45  1  0  0  0  0
 47 40  1  0  0  0  0
 48 54  2  0  0  0  0
 50 39  1  0  0  0  0
 51 45  1  0  0  0  0
 52 45  1  0  0  0  0
 54 55  1  0  0  0  0
 54 49  1  0  0  0  0
 55 53  1  0  0  0  0
 56 59  2  0  0  0  0
 56 57  1  0  0  0  0
 57 58  2  0  0  0  0
 58 61  1  0  0  0  0
 58 38  1  0  0  0  0
 59 60  1  0  0  0  0
 60 61  2  0  0  0  0
 62 63  1  0  0  0  0
 63 35  1  0  0  0  0
M  END
>  <MODEL>
3

>  <REMARK>
 VINA RESULT:      -7.7      3.272      6.493
  Name = 
  11 active torsions:
  status: ('A' for Active; 'I' for Inactive)
    1  A    between atoms: C_10  and  C_19
    2  A    between atoms: C_15  and  C_62
    3  A    between atoms: C_17  and  C_44
    4  A    between atoms: O_21  and  C_34
    5  A    between atoms: C_22  and  C_61
    6  A    between atoms: N_29  and  C_34
    7  A    between atoms: C_30  and  C_34
    8  A    between atoms: C_33  and  C_35
    9  A    between atoms: C_40  and  C_52
   10  A    between atoms: C_58  and  C_61
   11  A    between atoms: C_62  and  C_63
                            x       y       z     vdW  Elec       q    Type
                         _______ _______ _______ _____ _____    ______ ____

>  <TORSDO>
F 11

$$$$
=
 OpenBabel11072409373D

 63 70  0  0  1  0  0  0  0  0999 V2000
  191.8280  176.7080  144.6250 C   0  0  0  0  0  2  0  0  0  0  0  0
  193.1380  176.7750  143.8340 C   0  0  1  0  0  3  0  0  0  0  0  0
  191.3450  174.9120  143.0760 O   0  0  0  0  0  0  0  0  0  0  0  0
  193.7200  175.3590  143.6240 C   0  0  1  0  0  3  0  0  0  0  0  0
  192.6610  174.4000  143.0380 C   0  0  0  0  0  2  0  0  0  0  0  0
  191.1120  175.3600  144.3880 C   0  0  2  0  0  3  0  0  0  0  0  0
  192.9010  177.3900  142.5980 O   0  0  0  0  0  1  0  0  0  0  0  0
  187.8970  178.6720  145.1280 O   0  0  0  0  0  1  0  0  0  0  0  0
  189.0910  174.8460  147.0100 C   0  0  0  0  0  2  0  0  0  0  0  0
  186.5240  175.3990  144.5650 O   0  0  0  0  0  1  0  0  0  0  0  0
  189.1500  176.6730  145.3860 C   0  0  2  0  0  3  0  0  0  0  0  0
  187.9620  177.3480  144.6770 C   0  0  1  0  0  0  0  0  0  0  0  0
  189.6180  175.3710  144.7130 C   0  0  2  0  0  3  0  0  0  0  0  0
  187.0940  176.2890  146.6800 C   0  0  1  0  0  3  0  0  0  0  0  0
  186.7410  176.6080  145.2350 C   0  0  2  0  0  3  0  0  0  0  0  0
  188.6170  176.2650  146.7600 C   0  0  1  0  0  3  0  0  0  0  0  0
  189.2770  174.2240  145.6460 C   0  0  0  0  0  2  0  0  0  0  0  0
  189.1650  178.0050  142.6320 C   0  0  0  0  0  2  0  0  0  0  0  0
  188.0950  177.3950  143.1510 C   0  0  0  0  0  0  0  0  0  0  0  0
  187.3570  176.9290  140.7090 C   0  0  2  0  0  3  0  0  0  0  0  0
  186.0770  177.1750  139.9400 C   0  0  0  0  0  2  0  0  0  0  0  0
  187.8000  175.6280  140.4790 O   0  0  0  0  0  1  0  0  0  0  0  0
  185.7130  177.9500  142.2370 C   0  0  1  0  0  3  0  0  0  0  0  0
  185.2140  178.1060  140.7850 C   0  0  1  0  0  0  0  0  0  0  0  0
  185.3830  179.4140  140.3250 O   0  0  0  0  0  1  0  0  0  0  0  0
  186.9840  177.0990  142.1640 C   0  0  2  0  0  3  0  0  0  0  0  0
  182.8920  177.9100  141.7060 O   0  0  0  0  0  1  0  0  0  0  0  0
  183.3440  177.1650  139.5880 O   0  0  0  0  0  0  0  0  0  0  0  0
  183.7680  177.7140  140.6450 C   0  0  0  0  0  0  0  0  0  0  0  0
  185.8760  179.2720  142.9960 C   0  0  0  0  0  2  0  0  0  0  0  0
  184.0880  179.4360  144.9830 C   0  0  0  0  0  3  0  0  0  0  0  0
  184.8970  179.3610  144.0870 C   0  0  0  0  0  0  0  0  0  0  0  0
  185.1950  177.5540  147.3710 O   0  0  0  0  0  1  0  0  0  0  0  0
  186.5520  177.3600  147.6100 C   0  0  0  0  0  2  0  0  0  0  0  0
  195.0610  175.3140  142.8580 C   0  0  2  0  0  3  0  0  0  0  0  0
  195.7950  174.3250  140.8280 C   0  0  0  0  0  2  0  0  0  0  0  0
  193.9810  172.8480  139.8320 C   0  0  0  0  0  0  0  0  0  0  0  0
  195.4320  173.2630  139.7860 C   0  0  1  0  0  3  0  0  0  0  0  0
  194.2640  169.9010  145.0290 C   0  0  0  0  0  3  0  0  0  0  0  0
  193.6310  171.6720  140.3940 C   0  0  0  0  0  0  0  0  0  0  0  0
  192.9400  173.8250  139.3890 C   0  0  0  0  0  2  0  0  0  0  0  0
  195.1830  174.0420  142.1210 N   0  0  0  0  0  0  0  0  0  0  0  0
  195.4190  172.0970  144.9010 C   0  0  0  0  0  3  0  0  0  0  0  0
  192.1560  173.2890  138.2420 C   0  0  0  0  0  3  0  0  0  0  0  0
  194.3460  171.1370  142.8800 C   0  0  1  0  0  3  0  0  0  0  0  0
  196.0940  173.1250  142.8000 C   0  0  0  0  0  2  0  0  0  0  0  0
  194.8720  170.6460  141.2010 S   0  0  0  0  0  0  0  0  0  0  0  0
  192.2410  171.1620  140.4330 C   0  0  0  0  0  3  0  0  0  0  0  0
  190.0650  170.7760  139.7870 F   0  0  0  0  0  0  0  0  0  0  0  0
  194.5670  171.1910  145.7470 C   0  0  0  0  0  2  0  0  0  0  0  0
  194.1500  169.8820  143.6960 C   0  0  0  0  0  3  0  0  0  0  0  0
  195.3200  172.0910  143.5620 C   0  0  0  0  0  0  0  0  0  0  0  0
  190.5730  171.8340  137.1420 C   0  0  0  0  0  1  0  0  0  0  0  0
  191.2450  171.4080  139.5710 C   0  0  0  0  0  0  0  0  0  0  0  0
  191.3880  172.2050  138.3330 C   0  0  0  0  0  0  0  0  0  0  0  0
  196.7210  175.3030  136.8340 C   0  0  0  0  0  3  0  0  0  0  0  0
  196.3280  174.9540  138.1280 C   0  0  0  0  0  3  0  0  0  0  0  0
  195.8800  173.6510  138.4070 C   0  0  0  0  0  0  0  0  0  0  0  0
  196.6650  174.3540  135.8120 C   0  0  0  0  0  3  0  0  0  0  0  0
  196.2150  173.0570  136.0830 C   0  0  0  0  0  3  0  0  0  0  0  0
  195.8220  172.7070  137.3770 C   0  0  0  0  0  3  0  0  0  0  0  0
  196.7190  176.6670  143.4630 C   0  0  0  0  0  1  0  0  0  0  0  0
  196.1090  175.4480  143.7820 O   0  0  0  0  0  0  0  0  0  0  0  0
  2  7  1  6  0  0  0
  2  1  1  0  0  0  0
  3  6  1  0  0  0  0
  4 35  1  6  0  0  0
  4  2  1  0  0  0  0
  5  3  1  0  0  0  0
  5  4  1  0  0  0  0
  6  1  1  6  0  0  0
  6 13  1  0  0  0  0
 10 15  1  0  0  0  0
 11 16  1  0  0  0  0
 12  8  1  0  0  0  0
 12 15  1  0  0  0  0
 12 11  1  0  0  0  0
 13 11  1  0  0  0  0
 13 17  1  0  0  0  0
 14 16  1  0  0  0  0
 14 34  1  0  0  0  0
 15 14  1  0  0  0  0
 16  9  1  0  0  0  0
 17  9  1  0  0  0  0
 18 19  2  0  0  0  0
 19 12  1  0  0  0  0
 20 26  1  0  0  0  0
 21 20  1  0  0  0  0
 21 24  1  0  0  0  0
 22 20  1  0  0  0  0
 23 30  1  0  0  0  0
 24 23  1  0  0  0  0
 25 24  1  0  0  0  0
 26 23  1  0  0  0  0
 26 19  1  0  0  0  0
 28 29  2  0  0  0  0
 29 24  1  0  0  0  0
 29 27  1  0  0  0  0
 30 32  1  0  0  0  0
 32 31  3  0  0  0  0
 33 34  1  0  0  0  0
 35 63  1  0  0  0  0
 36 42  1  0  0  0  0
 37 40  2  0  0  0  0
 38 37  1  0  0  0  0
 38 36  1  0  0  0  0
 39 50  1  0  0  0  0
 40 48  1  0  0  0  0
 40 47  1  0  0  0  0
 41 37  1  0  0  0  0
 42 46  1  0  0  0  0
 42 35  1  0  0  0  0
 43 50  1  0  0  0  0
 44 55  2  0  0  0  0
 44 41  1  0  0  0  0
 45 52  1  0  0  0  0
 45 51  1  0  0  0  0
 46 52  1  0  0  0  0
 47 45  1  0  0  0  0
 51 39  2  0  0  0  0
 52 43  2  0  0  0  0
 53 55  1  0  0  0  0
 54 49  1  0  0  0  0
 54 48  2  0  0  0  0
 55 54  1  0  0  0  0
 56 57  1  0  0  0  0
 57 58  2  0  0  0  0
 58 38  1  0  0  0  0
 59 60  1  0  0  0  0
 59 56  2  0  0  0  0
 60 61  2  0  0  0  0
 61 58  1  0  0  0  0
 62 63  1  0  0  0  0
M  END
>  <MODEL>
4

>  <REMARK>
 VINA RESULT:      -7.7      2.987      6.079
  Name = 
  11 active torsions:
  status: ('A' for Active; 'I' for Inactive)
    1  A    between atoms: C_10  and  C_19
    2  A    between atoms: C_15  and  C_62
    3  A    between atoms: C_17  and  C_44
    4  A    between atoms: O_21  and  C_34
    5  A    between atoms: C_22  and  C_61
    6  A    between atoms: N_29  and  C_34
    7  A    between atoms: C_30  and  C_34
    8  A    between atoms: C_33  and  C_35
    9  A    between atoms: C_40  and  C_52
   10  A    between atoms: C_58  and  C_61
   11  A    between atoms: C_62  and  C_63
                            x       y       z     vdW  Elec       q    Type
                         _______ _______ _______ _____ _____    ______ ____

>  <TORSDO>
F 11

$$$$
=
 OpenBabel11072409373D

 63 70  0  0  1  0  0  0  0  0999 V2000
  192.9320  175.1350  144.4440 C   0  0  0  0  0  2  0  0  0  0  0  0
  194.4050  175.4320  144.1500 C   0  0  1  0  0  3  0  0  0  0  0  0
  192.5820  176.5480  142.5090 O   0  0  0  0  0  0  0  0  0  0  0  0
  194.7030  175.2720  142.6420 C   0  0  1  0  0  3  0  0  0  0  0  0
  193.7000  176.0750  141.7860 C   0  0  0  0  0  2  0  0  0  0  0  0
  192.0530  175.4520  143.2140 C   0  0  2  0  0  3  0  0  0  0  0  0
  194.7070  176.7340  144.5680 O   0  0  0  0  0  1  0  0  0  0  0  0
  188.1680  176.0960  140.6920 O   0  0  0  0  0  1  0  0  0  0  0  0
  190.0220  177.8880  144.2910 C   0  0  0  0  0  2  0  0  0  0  0  0
  187.5580  175.2840  144.1390 O   0  0  0  0  0  1  0  0  0  0  0  0
  189.7970  176.3570  142.3990 C   0  0  2  0  0  3  0  0  0  0  0  0
  188.5410  175.5910  141.9440 C   0  0  1  0  0  0  0  0  0  0  0  0
  190.5710  175.6630  143.5320 C   0  0  2  0  0  3  0  0  0  0  0  0
  187.7900  177.4730  143.2790 C   0  0  1  0  0  3  0  0  0  0  0  0
  187.4710  176.0220  142.9540 C   0  0  2  0  0  3  0  0  0  0  0  0
  189.2750  177.6660  142.9900 C   0  0  1  0  0  3  0  0  0  0  0  0
  190.4220  176.5150  144.7790 C   0  0  0  0  0  2  0  0  0  0  0  0
  187.7350  173.2680  142.0460 C   0  0  0  0  0  2  0  0  0  0  0  0
  188.7590  174.0830  141.7790 C   0  0  0  0  0  0  0  0  0  0  0  0
  190.4220  172.7050  140.3430 C   0  0  2  0  0  3  0  0  0  0  0  0
  191.5190  171.7170  140.6750 C   0  0  0  0  0  2  0  0  0  0  0  0
  190.8870  173.6290  139.4100 O   0  0  0  0  0  1  0  0  0  0  0  0
  190.5700  172.5000  142.7950 C   0  0  1  0  0  3  0  0  0  0  0  0
  191.3630  171.3460  142.1470 C   0  0  1  0  0  0  0  0  0  0  0  0
  190.6680  170.1370  142.2320 O   0  0  0  0  0  1  0  0  0  0  0  0
  190.1060  173.4010  141.6470 C   0  0  2  0  0  3  0  0  0  0  0  0
  193.0520  169.9940  143.4100 O   0  0  0  0  0  1  0  0  0  0  0  0
  193.5600  172.1300  142.7580 O   0  0  0  0  0  0  0  0  0  0  0  0
  192.7220  171.1820  142.7690 C   0  0  0  0  0  0  0  0  0  0  0  0
  189.4500  172.0460  143.7390 C   0  0  0  0  0  2  0  0  0  0  0  0
  189.6880  173.2440  146.1220 C   0  0  0  0  0  3  0  0  0  0  0  0
  189.5830  172.7020  145.0470 C   0  0  0  0  0  0  0  0  0  0  0  0
  185.7870  177.7890  142.0240 O   0  0  0  0  0  1  0  0  0  0  0  0
  186.9750  178.4070  142.4010 C   0  0  0  0  0  2  0  0  0  0  0  0
  196.1730  175.5230  142.2390 C   0  0  2  0  0  3  0  0  0  0  0  0
  197.1920  174.7000  140.2580 C   0  0  0  0  0  2  0  0  0  0  0  0
  196.0130  172.6010  139.4390 C   0  0  0  0  0  0  0  0  0  0  0  0
  197.2210  173.4990  139.3080 C   0  0  1  0  0  3  0  0  0  0  0  0
  197.3820  170.3710  144.8160 C   0  0  0  0  0  3  0  0  0  0  0  0
  196.1110  171.4260  140.0950 C   0  0  0  0  0  0  0  0  0  0  0  0
  194.6880  173.1070  138.9670 C   0  0  0  0  0  2  0  0  0  0  0  0
  196.7340  174.3220  141.5900 N   0  0  0  0  0  0  0  0  0  0  0  0
  197.6770  172.8150  144.4900 C   0  0  0  0  0  3  0  0  0  0  0  0
  194.1350  172.2380  137.8910 C   0  0  0  0  0  3  0  0  0  0  0  0
  196.9960  171.3800  142.5840 C   0  0  1  0  0  3  0  0  0  0  0  0
  197.9190  173.8450  142.2970 C   0  0  0  0  0  2  0  0  0  0  0  0
  197.6450  170.9760  140.9250 S   0  0  0  0  0  0  0  0  0  0  0  0
  194.9960  170.4610  140.2230 C   0  0  0  0  0  3  0  0  0  0  0  0
  193.0940  169.2780  139.6890 F   0  0  0  0  0  0  0  0  0  0  0  0
  197.2120  171.7360  145.4290 C   0  0  0  0  0  2  0  0  0  0  0  0
  197.2690  170.2060  143.4930 C   0  0  0  0  0  3  0  0  0  0  0  0
  197.5730  172.6680  143.1590 C   0  0  0  0  0  0  0  0  0  0  0  0
  193.1640  170.2340  136.9580 C   0  0  0  0  0  1  0  0  0  0  0  0
  193.9680  170.2680  139.3830 C   0  0  0  0  0  0  0  0  0  0  0  0
  193.8050  170.9620  138.0880 C   0  0  0  0  0  0  0  0  0  0  0  0
  197.7120  175.6260  136.1820 C   0  0  0  0  0  3  0  0  0  0  0  0
  197.4840  175.2640  137.5110 C   0  0  0  0  0  3  0  0  0  0  0  0
  197.4870  173.9100  137.8890 C   0  0  0  0  0  0  0  0  0  0  0  0
  197.9410  174.6380  135.2230 C   0  0  0  0  0  3  0  0  0  0  0  0
  197.9400  173.2880  135.5920 C   0  0  0  0  0  3  0  0  0  0  0  0
  197.7110  172.9250  136.9220 C   0  0  0  0  0  3  0  0  0  0  0  0
  197.3620  177.1490  143.1820 C   0  0  0  0  0  1  0  0  0  0  0  0
  196.9060  175.8430  143.3940 O   0  0  0  0  0  0  0  0  0  0  0  0
  2  1  1  0  0  0  0
  2  7  1  6  0  0  0
  3  6  1  0  0  0  0
  4 35  1  1  0  0  0
  4  2  1  0  0  0  0
  5  3  1  0  0  0  0
  5  4  1  0  0  0  0
  6 13  1  0  0  0  0
  6  1  1  1  0  0  0
  8 12  1  0  0  0  0
  9 17  1  0  0  0  0
 11 16  1  0  0  0  0
 11 13  1  0  0  0  0
 12 11  1  0  0  0  0
 12 15  1  0  0  0  0
 13 17  1  0  0  0  0
 15 14  1  0  0  0  0
 15 10  1  0  0  0  0
 16 14  1  0  0  0  0
 16  9  1  0  0  0  0
 19 12  1  0  0  0  0
 19 18  2  0  0  0  0
 20 21  1  0  0  0  0
 20 26  1  0  0  0  0
 21 24  1  0  0  0  0
 22 20  1  0  0  0  0
 23 30  1  0  0  0  0
 24 25  1  0  0  0  0
 24 29  1  0  0  0  0
 24 23  1  0  0  0  0
 26 19  1  0  0  0  0
 26 23  1  0  0  0  0
 28 29  2  0  0  0  0
 29 27  1  0  0  0  0
 30 32  1  0  0  0  0
 32 31  3  0  0  0  0
 33 34  1  0  0  0  0
 34 14  1  0  0  0  0
 35 63  1  0  0  0  0
 36 42  1  0  0  0  0
 37 40  2  0  0  0  0
 38 37  1  0  0  0  0
 38 36  1  0  0  0  0
 39 50  1  0  0  0  0
 40 48  1  0  0  0  0
 40 47  1  0  0  0  0
 41 37  1  0  0  0  0
 42 35  1  0  0  0  0
 42 46  1  0  0  0  0
 43 50  1  0  0  0  0
 44 55  2  0  0  0  0
 44 41  1  0  0  0  0
 45 52  1  0  0  0  0
 45 51  1  0  0  0  0
 46 52  1  0  0  0  0
 47 45  1  0  0  0  0
 51 39  2  0  0  0  0
 52 43  2  0  0  0  0
 53 55  1  0  0  0  0
 54 49  1  0  0  0  0
 54 48  2  0  0  0  0
 55 54  1  0  0  0  0
 56 57  1  0  0  0  0
 57 58  2  0  0  0  0
 58 38  1  0  0  0  0
 59 60  1  0  0  0  0
 59 56  2  0  0  0  0
 60 61  2  0  0  0  0
 61 58  1  0  0  0  0
 62 63  1  0  0  0  0
M  END
>  <MODEL>
5

>  <REMARK>
 VINA RESULT:      -7.6      3.032      7.023
  Name = 
  11 active torsions:
  status: ('A' for Active; 'I' for Inactive)
    1  A    between atoms: C_10  and  C_19
    2  A    between atoms: C_15  and  C_62
    3  A    between atoms: C_17  and  C_44
    4  A    between atoms: O_21  and  C_34
    5  A    between atoms: C_22  and  C_61
    6  A    between atoms: N_29  and  C_34
    7  A    between atoms: C_30  and  C_34
    8  A    between atoms: C_33  and  C_35
    9  A    between atoms: C_40  and  C_52
   10  A    between atoms: C_58  and  C_61
   11  A    between atoms: C_62  and  C_63
                            x       y       z     vdW  Elec       q    Type
                         _______ _______ _______ _____ _____    ______ ____

>  <TORSDO>
F 11

$$$$
=
 OpenBabel11072409373D

 63 70  0  0  1  0  0  0  0  0999 V2000
  193.0000  176.7200  144.8870 C   0  0  0  0  0  2  0  0  0  0  0  0
  193.9790  176.3950  143.7550 C   0  0  1  0  0  3  0  0  0  0  0  0
  192.2760  174.4440  144.4960 O   0  0  0  0  0  0  0  0  0  0  0  0
  194.6310  175.0130  143.9790 C   0  0  1  0  0  3  0  0  0  0  0  0
  193.5650  173.9270  144.2410 C   0  0  0  0  0  2  0  0  0  0  0  0
  192.4130  175.4260  145.4930 C   0  0  2  0  0  3  0  0  0  0  0  0
  193.2950  176.4160  142.5330 O   0  0  0  0  0  1  0  0  0  0  0  0
  188.8000  178.3780  145.1990 O   0  0  0  0  0  1  0  0  0  0  0  0
  191.3590  176.7080  148.4020 C   0  0  0  0  0  2  0  0  0  0  0  0
  188.1770  175.5040  147.2630 O   0  0  0  0  0  1  0  0  0  0  0  0
  190.5290  177.0440  146.1280 C   0  0  2  0  0  3  0  0  0  0  0  0
  189.0660  177.0790  145.6490 C   0  0  1  0  0  0  0  0  0  0  0  0
  191.1050  175.6240  146.2600 C   0  0  2  0  0  3  0  0  0  0  0  0
  189.0540  177.5620  148.0270 C   0  0  1  0  0  3  0  0  0  0  0  0
  188.2600  176.8610  146.9350 C   0  0  2  0  0  3  0  0  0  0  0  0
  190.5010  177.6180  147.5440 C   0  0  1  0  0  3  0  0  0  0  0  0
  191.3200  175.3520  147.7370 C   0  0  0  0  0  2  0  0  0  0  0  0
  188.9410  174.8170  144.6870 C   0  0  0  0  0  2  0  0  0  0  0  0
  188.7700  176.1260  144.4850 C   0  0  0  0  0  0  0  0  0  0  0  0
  189.0780  177.9150  142.6330 C   0  0  2  0  0  3  0  0  0  0  0  0
  188.3360  178.2300  141.3530 C   0  0  0  0  0  2  0  0  0  0  0  0
  190.4490  177.8950  142.3880 O   0  0  0  0  0  1  0  0  0  0  0  0
  187.2520  176.2800  142.3670 C   0  0  1  0  0  3  0  0  0  0  0  0
  187.0270  177.4480  141.3840 C   0  0  1  0  0  0  0  0  0  0  0  0
  186.0090  178.2970  141.8250 O   0  0  0  0  0  1  0  0  0  0  0  0
  188.6050  176.5370  143.0360 C   0  0  2  0  0  3  0  0  0  0  0  0
  185.6050  177.4810  139.3210 O   0  0  0  0  0  0  0  0  0  0  0  0
  187.3850  176.0440  139.4560 O   0  0  0  0  0  1  0  0  0  0  0  0
  186.7010  176.9590  139.9990 C   0  0  0  0  0  0  0  0  0  0  0  0
  186.0940  176.0420  143.3440 C   0  0  0  0  0  2  0  0  0  0  0  0
  185.6090  178.2550  144.7720 C   0  0  0  0  0  3  0  0  0  0  0  0
  185.8260  177.2560  144.1260 C   0  0  0  0  0  0  0  0  0  0  0  0
  187.1500  178.9520  148.3780 O   0  0  0  0  0  1  0  0  0  0  0  0
  188.5340  178.9720  148.2430 C   0  0  0  0  0  2  0  0  0  0  0  0
  195.6610  174.5980  142.9040 C   0  0  2  0  0  3  0  0  0  0  0  0
  194.9260  174.0270  140.7190 C   0  0  0  0  0  2  0  0  0  0  0  0
  192.6370  172.9220  140.7940 C   0  0  0  0  0  0  0  0  0  0  0  0
  193.8540  173.2430  139.9580 C   0  0  1  0  0  3  0  0  0  0  0  0
  195.2760  168.9050  144.3530 C   0  0  0  0  0  3  0  0  0  0  0  0
  192.4620  171.6770  141.2840 C   0  0  0  0  0  0  0  0  0  0  0  0
  191.7240  174.0370  141.1900 C   0  0  0  0  0  2  0  0  0  0  0  0
  195.1140  173.5100  142.0700 N   0  0  0  0  0  0  0  0  0  0  0  0
  196.5270  170.9970  143.8730 C   0  0  0  0  0  3  0  0  0  0  0  0
  190.3480  173.8150  140.6660 C   0  0  0  0  0  3  0  0  0  0  0  0
  194.3490  170.5700  142.7660 C   0  0  1  0  0  3  0  0  0  0  0  0
  196.0670  172.4110  141.9450 C   0  0  0  0  0  2  0  0  0  0  0  0
  193.7340  170.4230  141.0520 S   0  0  0  0  0  0  0  0  0  0  0  0
  191.2740  171.2610  142.0650 C   0  0  0  0  0  3  0  0  0  0  0  0
  189.0880  171.1660  142.7810 F   0  0  0  0  0  0  0  0  0  0  0  0
  196.1570  169.9860  144.9240 C   0  0  0  0  0  2  0  0  0  0  0  0
  194.4270  169.1830  143.3570 C   0  0  0  0  0  3  0  0  0  0  0  0
  195.6900  171.2880  142.8660 C   0  0  0  0  0  0  0  0  0  0  0  0
  188.1910  172.7390  140.5240 C   0  0  0  0  0  1  0  0  0  0  0  0
  190.0290  171.7530  142.0010 C   0  0  0  0  0  0  0  0  0  0  0  0
  189.5860  172.7880  141.0420 C   0  0  0  0  0  0  0  0  0  0  0  0
  192.2440  173.9340  136.5710 C   0  0  0  0  0  3  0  0  0  0  0  0
  192.5420  173.3280  137.7940 C   0  0  0  0  0  3  0  0  0  0  0  0
  193.5030  173.8910  138.6500 C   0  0  0  0  0  0  0  0  0  0  0  0
  192.9080  175.1030  136.1970 C   0  0  0  0  0  3  0  0  0  0  0  0
  193.8710  175.6660  137.0420 C   0  0  0  0  0  3  0  0  0  0  0  0
  194.1680  175.0600  138.2660 C   0  0  0  0  0  3  0  0  0  0  0  0
  197.6840  175.2910  143.5150 C   0  0  0  0  0  1  0  0  0  0  0  0
  196.8360  174.1780  143.5480 O   0  0  0  0  0  0  0  0  0  0  0  0
  2  7  1  6  0  0  0
  2  4  1  0  0  0  0
  2  1  1  0  0  0  0
  3  6  1  0  0  0  0
  4 35  1  6  0  0  0
  4  5  1  0  0  0  0
  5  3  1  0  0  0  0
  6  1  1  6  0  0  0
  6 13  1  0  0  0  0
  8 12  1  0  0  0  0
 11 13  1  0  0  0  0
 11 16  1  0  0  0  0
 12 11  1  0  0  0  0
 12 15  1  0  0  0  0
 13 17  1  0  0  0  0
 14 34  1  0  0  0  0
 15 10  1  0  0  0  0
 15 14  1  0  0  0  0
 16 14  1  0  0  0  0
 16  9  1  0  0  0  0
 17  9  1  0  0  0  0
 19 18  2  0  0  0  0
 19 12  1  0  0  0  0
 20 26  1  0  0  0  0
 21 24  1  0  0  0  0
 21 20  1  0  0  0  0
 22 20  1  0  0  0  0
 23 26  1  0  0  0  0
 23 30  1  0  0  0  0
 24 25  1  0  0  0  0
 24 23  1  0  0  0  0
 26 19  1  0  0  0  0
 27 29  2  0  0  0  0
 28 29  1  0  0  0  0
 29 24  1  0  0  0  0
 30 32  1  0  0  0  0
 32 31  3  0  0  0  0
 34 33  1  0  0  0  0
 35 63  1  0  0  0  0
 36 42  1  0  0  0  0
 37 41  1  0  0  0  0
 37 40  2  0  0  0  0
 38 36  1  0  0  0  0
 38 37  1  0  0  0  0
 39 50  1  0  0  0  0
 40 48  1  0  0  0  0
 42 35  1  0  0  0  0
 43 50  1  0  0  0  0
 44 55  2  0  0  0  0
 44 41  1  0  0  0  0
 45 52  1  0  0  0  0
 45 51  1  0  0  0  0
 46 42  1  0  0  0  0
 46 52  1  0  0  0  0
 47 40  1  0  0  0  0
 47 45  1  0  0  0  0
 51 39  2  0  0  0  0
 52 43  2  0  0  0  0
 53 55  1  0  0  0  0
 54 48  2  0  0  0  0
 54 49  1  0  0  0  0
 55 54  1  0  0  0  0
 56 57  1  0  0  0  0
 57 58  2  0  0  0  0
 58 38  1  0  0  0  0
 59 56  2  0  0  0  0
 59 60  1  0  0  0  0
 60 61  2  0  0  0  0
 61 58  1  0  0  0  0
 62 63  1  0  0  0  0
M  END
>  <MODEL>
6

>  <REMARK>
 VINA RESULT:      -7.2      3.184      6.534
  Name = 
  11 active torsions:
  status: ('A' for Active; 'I' for Inactive)
    1  A    between atoms: C_10  and  C_19
    2  A    between atoms: C_15  and  C_62
    3  A    between atoms: C_17  and  C_44
    4  A    between atoms: O_21  and  C_34
    5  A    between atoms: C_22  and  C_61
    6  A    between atoms: N_29  and  C_34
    7  A    between atoms: C_30  and  C_34
    8  A    between atoms: C_33  and  C_35
    9  A    between atoms: C_40  and  C_52
   10  A    between atoms: C_58  and  C_61
   11  A    between atoms: C_62  and  C_63
                            x       y       z     vdW  Elec       q    Type
                         _______ _______ _______ _____ _____    ______ ____

>  <TORSDO>
F 11

$$$$
=
 OpenBabel11072409373D

 63 70  0  0  1  0  0  0  0  0999 V2000
  190.4350  172.1950  141.5970 C   0  0  0  0  0  2  0  0  0  0  0  0
  190.6280  171.5920  140.2020 C   0  0  1  0  0  3  0  0  0  0  0  0
  192.1590  173.7160  140.8380 O   0  0  0  0  0  0  0  0  0  0  0  0
  190.6760  172.7040  139.1300 C   0  0  1  0  0  3  0  0  0  0  0  0
  191.6970  173.7990  139.5050 C   0  0  0  0  0  2  0  0  0  0  0  0
  191.0250  173.6210  141.6640 C   0  0  2  0  0  3  0  0  0  0  0  0
  191.8130  170.8460  140.1800 O   0  0  0  0  0  1  0  0  0  0  0  0
  191.4510  177.8040  143.7080 O   0  0  0  0  0  1  0  0  0  0  0  0
  193.6540  173.9640  143.7100 C   0  0  0  0  0  2  0  0  0  0  0  0
  191.1410  175.0710  146.0200 O   0  0  0  0  0  1  0  0  0  0  0  0
  191.8870  175.5470  143.1200 C   0  0  2  0  0  3  0  0  0  0  0  0
  191.1100  176.4910  144.0540 C   0  0  1  0  0  0  0  0  0  0  0  0
  191.3280  174.1140  143.0800 C   0  0  2  0  0  3  0  0  0  0  0  0
  193.1830  175.9140  145.1780 C   0  0  1  0  0  3  0  0  0  0  0  0
  191.7120  176.2070  145.4360 C   0  0  2  0  0  3  0  0  0  0  0  0
  193.2830  175.4350  143.7330 C   0  0  1  0  0  3  0  0  0  0  0  0
  192.3480  173.2050  143.7410 C   0  0  0  0  0  2  0  0  0  0  0  0
  189.0930  175.6080  142.9550 C   0  0  0  0  0  2  0  0  0  0  0  0
  189.5870  176.3710  143.9330 C   0  0  0  0  0  0  0  0  0  0  0  0
  188.2440  177.0020  146.0610 C   0  0  2  0  0  3  0  0  0  0  0  0
  186.9040  177.6650  146.2900 C   0  0  0  0  0  2  0  0  0  0  0  0
  189.2030  177.5790  146.8900 O   0  0  0  0  0  1  0  0  0  0  0  0
  187.2770  177.5850  143.8690 C   0  0  1  0  0  3  0  0  0  0  0  0
  186.1800  177.6990  144.9490 C   0  0  1  0  0  0  0  0  0  0  0  0
  185.2930  176.6200  144.8920 O   0  0  0  0  0  1  0  0  0  0  0  0
  188.5790  177.2760  144.6120 C   0  0  2  0  0  3  0  0  0  0  0  0
  184.0750  179.0300  145.2230 O   0  0  0  0  0  1  0  0  0  0  0  0
  185.9390  180.0170  144.3280 O   0  0  0  0  0  0  0  0  0  0  0  0
  185.4070  178.9840  144.8280 C   0  0  0  0  0  0  0  0  0  0  0  0
  186.9470  176.6110  142.7320 C   0  0  0  0  0  2  0  0  0  0  0  0
  185.7280  177.8920  140.7210 C   0  0  0  0  0  3  0  0  0  0  0  0
  186.2800  177.3150  141.6290 C   0  0  0  0  0  0  0  0  0  0  0  0
  194.5410  177.2150  146.6430 O   0  0  0  0  0  1  0  0  0  0  0  0
  194.0150  177.1720  145.3550 C   0  0  0  0  0  2  0  0  0  0  0  0
  190.8390  172.2010  137.6780 C   0  0  2  0  0  3  0  0  0  0  0  0
  192.9990  171.3630  137.1570 C   0  0  0  0  0  2  0  0  0  0  0  0
  194.8080  172.8030  138.2140 C   0  0  0  0  0  0  0  0  0  0  0  0
  194.4900  171.7020  137.2310 C   0  0  1  0  0  3  0  0  0  0  0  0
  192.3470  177.2650  135.0840 C   0  0  0  0  0  3  0  0  0  0  0  0
  195.0770  174.0490  137.7710 C   0  0  0  0  0  0  0  0  0  0  0  0
  194.6670  172.5230  139.6760 C   0  0  0  0  0  2  0  0  0  0  0  0
  192.1730  172.5650  137.1620 N   0  0  0  0  0  0  0  0  0  0  0  0
  191.0670  175.1420  135.2380 C   0  0  0  0  0  3  0  0  0  0  0  0
  195.9660  172.7040  140.3830 C   0  0  0  0  0  3  0  0  0  0  0  0
  193.3400  175.2980  136.2220 C   0  0  1  0  0  3  0  0  0  0  0  0
  192.0990  173.0020  135.7710 C   0  0  0  0  0  2  0  0  0  0  0  0
  194.9390  174.4390  136.0180 S   0  0  0  0  0  0  0  0  0  0  0  0
  195.4520  175.1730  138.6590 C   0  0  0  0  0  3  0  0  0  0  0  0
  196.3650  176.2970  140.4500 F   0  0  0  0  0  0  0  0  0  0  0  0
  190.9870  176.6440  135.2620 C   0  0  0  0  0  2  0  0  0  0  0  0
  193.4390  176.6420  135.5420 C   0  0  0  0  0  3  0  0  0  0  0  0
  192.1550  174.4980  135.6910 C   0  0  0  0  0  0  0  0  0  0  0  0
  197.8280  173.9460  141.2880 C   0  0  0  0  0  1  0  0  0  0  0  0
  196.0760  175.1190  139.8450 C   0  0  0  0  0  0  0  0  0  0  0  0
  196.5910  173.8780  140.4630 C   0  0  0  0  0  0  0  0  0  0  0  0
  195.5910  168.1700  138.1510 C   0  0  0  0  0  3  0  0  0  0  0  0
  194.7850  169.2900  137.9460 C   0  0  0  0  0  3  0  0  0  0  0  0
  195.3370  170.4790  137.4370 C   0  0  0  0  0  0  0  0  0  0  0  0
  196.9530  168.2300  137.8520 C   0  0  0  0  0  3  0  0  0  0  0  0
  197.5090  169.4120  137.3500 C   0  0  0  0  0  3  0  0  0  0  0  0
  196.7030  170.5340  137.1440 C   0  0  0  0  0  3  0  0  0  0  0  0
  188.8040  173.0920  137.7830 C   0  0  0  0  0  1  0  0  0  0  0  0
  189.8330  172.7800  136.8880 O   0  0  0  0  0  0  0  0  0  0  0  0
  2  7  1  1  0  0  0
  2  1  1  0  0  0  0
  3  6  1  0  0  0  0
  4 35  1  6  0  0  0
  4  5  1  0  0  0  0
  4  2  1  0  0  0  0
  5  3  1  0  0  0  0
  6  1  1  1  0  0  0
  6 13  1  0  0  0  0
  8 12  1  0  0  0  0
  9 16  1  0  0  0  0
  9 17  1  0  0  0  0
 11 16  1  0  0  0  0
 11 12  1  0  0  0  0
 12 15  1  0  0  0  0
 13 11  1  0  0  0  0
 13 17  1  0  0  0  0
 14 34  1  0  0  0  0
 14 15  1  0  0  0  0
 15 10  1  0  0  0  0
 16 14  1  0  0  0  0
 18 19  2  0  0  0  0
 19 12  1  0  0  0  0
 19 26  1  0  0  0  0
 20 21  1  0  0  0  0
 20 22  1  0  0  0  0
 23 26  1  0  0  0  0
 23 24  1  0  0  0  0
 24 21  1  0  0  0  0
 25 24  1  0  0  0  0
 26 20  1  0  0  0  0
 28 29  2  0  0  0  0
 29 24  1  0  0  0  0
 29 27  1  0  0  0  0
 30 23  1  0  0  0  0
 31 32  3  0  0  0  0
 32 30  1  0  0  0  0
 34 33  1  0  0  0  0
 36 42  1  0  0  0  0
 36 38  1  0  0  0  0
 37 41  1  0  0  0  0
 38 58  1  0  0  0  0
 38 37  1  0  0  0  0
 39 50  1  0  0  0  0
 39 51  2  0  0  0  0
 40 37  2  0  0  0  0
 40 48  1  0  0  0  0
 41 44  1  0  0  0  0
 42 35  1  0  0  0  0
 43 50  1  0  0  0  0
 43 52  2  0  0  0  0
 44 55  2  0  0  0  0
 46 42  1  0  0  0  0
 47 45  1  0  0  0  0
 47 40  1  0  0  0  0
 48 54  2  0  0  0  0
 51 45  1  0  0  0  0
 52 46  1  0  0  0  0
 52 45  1  0  0  0  0
 54 49  1  0  0  0  0
 54 55  1  0  0  0  0
 55 53  1  0  0  0  0
 57 56  1  0  0  0  0
 58 57  2  0  0  0  0
 59 56  2  0  0  0  0
 60 59  1  0  0  0  0
 61 60  2  0  0  0  0
 61 58  1  0  0  0  0
 63 35  1  0  0  0  0
 63 62  1  0  0  0  0
M  END
>  <MODEL>
7

>  <REMARK>
 VINA RESULT:      -7.0      1.464      2.318
  Name = 
  11 active torsions:
  status: ('A' for Active; 'I' for Inactive)
    1  A    between atoms: C_10  and  C_19
    2  A    between atoms: C_15  and  C_62
    3  A    between atoms: C_17  and  C_44
    4  A    between atoms: O_21  and  C_34
    5  A    between atoms: C_22  and  C_61
    6  A    between atoms: N_29  and  C_34
    7  A    between atoms: C_30  and  C_34
    8  A    between atoms: C_33  and  C_35
    9  A    between atoms: C_40  and  C_52
   10  A    between atoms: C_58  and  C_61
   11  A    between atoms: C_62  and  C_63
                            x       y       z     vdW  Elec       q    Type
                         _______ _______ _______ _____ _____    ______ ____

>  <TORSDO>
F 11

$$$$
=
 OpenBabel11072409373D

 63 70  0  0  1  0  0  0  0  0999 V2000
  192.8080  173.9310  142.8410 C   0  0  0  0  0  2  0  0  0  0  0  0
  193.8710  173.7990  141.7460 C   0  0  1  0  0  3  0  0  0  0  0  0
  194.4680  175.3800  143.8440 O   0  0  0  0  0  0  0  0  0  0  0  0
  194.4460  175.1840  141.3740 C   0  0  1  0  0  3  0  0  0  0  0  0
  194.9070  175.9540  142.6300 C   0  0  0  0  0  2  0  0  0  0  0  0
  193.0830  175.1680  143.7250 C   0  0  2  0  0  3  0  0  0  0  0  0
  194.8950  172.9550  142.1940 O   0  0  0  0  0  1  0  0  0  0  0  0
  189.7490  177.6480  145.8680 O   0  0  0  0  0  1  0  0  0  0  0  0
  193.7440  176.0370  146.8910 C   0  0  0  0  0  2  0  0  0  0  0  0
  190.5380  174.5430  147.4960 O   0  0  0  0  0  1  0  0  0  0  0  0
  191.7760  176.4670  145.5070 C   0  0  2  0  0  3  0  0  0  0  0  0
  190.2940  176.3590  145.9070 C   0  0  1  0  0  0  0  0  0  0  0  0
  192.4090  175.1260  145.0980 C   0  0  2  0  0  3  0  0  0  0  0  0
  191.5730  176.6190  147.9530 C   0  0  1  0  0  3  0  0  0  0  0  0
  190.3490  175.9240  147.3770 C   0  0  2  0  0  3  0  0  0  0  0  0
  192.5040  176.9030  146.7780 C   0  0  1  0  0  3  0  0  0  0  0  0
  193.4210  174.7520  146.1640 C   0  0  0  0  0  2  0  0  0  0  0  0
  189.7110  174.1730  144.9350 C   0  0  0  0  0  2  0  0  0  0  0  0
  189.4580  175.4850  144.9660 C   0  0  0  0  0  0  0  0  0  0  0  0
  189.2410  176.8470  142.7700 C   0  0  2  0  0  3  0  0  0  0  0  0
  188.1080  177.6150  142.1260 C   0  0  0  0  0  2  0  0  0  0  0  0
  189.8570  176.0340  141.8220 O   0  0  0  0  0  1  0  0  0  0  0  0
  187.2420  176.6300  144.1960 C   0  0  1  0  0  3  0  0  0  0  0  0
  187.0070  177.7590  143.1710 C   0  0  1  0  0  0  0  0  0  0  0  0
  187.1170  179.0190  143.7650 O   0  0  0  0  0  1  0  0  0  0  0  0
  188.5880  175.9960  143.8360 C   0  0  2  0  0  3  0  0  0  0  0  0
  184.5070  177.9130  143.2260 O   0  0  0  0  0  1  0  0  0  0  0  0
  185.5650  177.2500  141.3060 O   0  0  0  0  0  0  0  0  0  0  0  0
  185.6630  177.6400  142.5050 C   0  0  0  0  0  0  0  0  0  0  0  0
  187.1170  177.0680  145.6610 C   0  0  0  0  0  2  0  0  0  0  0  0
  184.5940  176.7900  146.5140 C   0  0  0  0  0  3  0  0  0  0  0  0
  185.7320  176.9150  146.1260 C   0  0  0  0  0  0  0  0  0  0  0  0
  191.5690  177.9140  149.9550 O   0  0  0  0  0  1  0  0  0  0  0  0
  191.1800  177.9260  148.6190 C   0  0  0  0  0  2  0  0  0  0  0  0
  195.5100  175.1680  140.2540 C   0  0  2  0  0  3  0  0  0  0  0  0
  194.4360  175.1040  138.1370 C   0  0  0  0  0  2  0  0  0  0  0  0
  192.6060  173.3390  138.1030 C   0  0  0  0  0  0  0  0  0  0  0  0
  193.4530  174.2900  137.2910 C   0  0  1  0  0  3  0  0  0  0  0  0
  196.9940  169.5220  139.5000 C   0  0  0  0  0  3  0  0  0  0  0  0
  192.8890  172.0190  138.1100 C   0  0  0  0  0  0  0  0  0  0  0  0
  191.5600  173.9030  139.0100 C   0  0  0  0  0  2  0  0  0  0  0  0
  195.0780  174.2820  139.1560 N   0  0  0  0  0  0  0  0  0  0  0  0
  197.4970  171.9480  139.6740 C   0  0  0  0  0  3  0  0  0  0  0  0
  190.2050  173.4140  138.6330 C   0  0  0  0  0  3  0  0  0  0  0  0
  195.3030  171.1940  138.7960 C   0  0  1  0  0  3  0  0  0  0  0  0
  196.2240  173.6590  138.5000 C   0  0  0  0  0  2  0  0  0  0  0  0
  194.3460  171.3980  137.2530 S   0  0  0  0  0  0  0  0  0  0  0  0
  192.0800  171.0100  138.8320 C   0  0  0  0  0  3  0  0  0  0  0  0
  190.2410  169.9750  139.7510 F   0  0  0  0  0  0  0  0  0  0  0  0
  197.6740  170.5950  140.3080 C   0  0  0  0  0  2  0  0  0  0  0  0
  195.8830  169.8000  138.8070 C   0  0  0  0  0  3  0  0  0  0  0  0
  196.3920  172.2460  138.9740 C   0  0  0  0  0  0  0  0  0  0  0  0
  188.4380  171.7860  138.3940 C   0  0  0  0  0  1  0  0  0  0  0  0
  190.7730  171.0540  139.1270 C   0  0  0  0  0  0  0  0  0  0  0  0
  189.8540  172.1300  138.6970 C   0  0  0  0  0  0  0  0  0  0  0  0
  190.7160  175.5060  134.9310 C   0  0  0  0  0  3  0  0  0  0  0  0
  191.4520  174.6880  135.7900 C   0  0  0  0  0  3  0  0  0  0  0  0
  192.6350  175.1620  136.3830 C   0  0  0  0  0  0  0  0  0  0  0  0
  191.1590  176.8010  134.6580 C   0  0  0  0  0  3  0  0  0  0  0  0
  192.3380  177.2780  135.2410 C   0  0  0  0  0  3  0  0  0  0  0  0
  193.0760  176.4590  136.1000 C   0  0  0  0  0  3  0  0  0  0  0  0
  197.6280  175.7640  140.5740 C   0  0  0  0  0  1  0  0  0  0  0  0
  196.7250  174.7190  140.7980 O   0  0  0  0  0  0  0  0  0  0  0  0
  2  7  1  1  0  0  0
  2  1  1  0  0  0  0
  4 35  1  6  0  0  0
  4  2  1  0  0  0  0
  4  5  1  0  0  0  0
  5  3  1  0  0  0  0
  6  1  1  1  0  0  0
  6  3  1  0  0  0  0
  6 13  1  0  0  0  0
  8 12  1  0  0  0  0
 11 12  1  0  0  0  0
 11 16  1  0  0  0  0
 12 15  1  0  0  0  0
 13 11  1  0  0  0  0
 13 17  1  0  0  0  0
 14 34  1  0  0  0  0
 15 10  1  0  0  0  0
 15 14  1  0  0  0  0
 16  9  1  0  0  0  0
 16 14  1  0  0  0  0
 17  9  1  0  0  0  0
 18 19  2  0  0  0  0
 19 12  1  0  0  0  0
 20 26  1  0  0  0  0
 21 20  1  0  0  0  0
 21 24  1  0  0  0  0
 22 20  1  0  0  0  0
 23 30  1  0  0  0  0
 24 25  1  0  0  0  0
 24 23  1  0  0  0  0
 26 23  1  0  0  0  0
 26 19  1  0  0  0  0
 28 29  2  0  0  0  0
 29 24  1  0  0  0  0
 29 27  1  0  0  0  0
 30 32  1  0  0  0  0
 32 31  3  0  0  0  0
 34 33  1  0  0  0  0
 35 63  1  0  0  0  0
 36 42  1  0  0  0  0
 37 40  2  0  0  0  0
 37 41  1  0  0  0  0
 38 37  1  0  0  0  0
 38 36  1  0  0  0  0
 39 50  1  0  0  0  0
 40 48  1  0  0  0  0
 42 35  1  0  0  0  0
 43 50  1  0  0  0  0
 44 55  2  0  0  0  0
 44 41  1  0  0  0  0
 45 51  1  0  0  0  0
 45 52  1  0  0  0  0
 46 52  1  0  0  0  0
 46 42  1  0  0  0  0
 47 40  1  0  0  0  0
 47 45  1  0  0  0  0
 48 54  2  0  0  0  0
 51 39  2  0  0  0  0
 52 43  2  0  0  0  0
 53 55  1  0  0  0  0
 54 49  1  0  0  0  0
 55 54  1  0  0  0  0
 56 57  1  0  0  0  0
 57 58  2  0  0  0  0
 58 38  1  0  0  0  0
 59 56  2  0  0  0  0
 59 60  1  0  0  0  0
 60 61  2  0  0  0  0
 61 58  1  0  0  0  0
 62 63  1  0  0  0  0
M  END
>  <MODEL>
8

>  <REMARK>
 VINA RESULT:      -7.0      2.419      5.552
  Name = 
  11 active torsions:
  status: ('A' for Active; 'I' for Inactive)
    1  A    between atoms: C_10  and  C_19
    2  A    between atoms: C_15  and  C_62
    3  A    between atoms: C_17  and  C_44
    4  A    between atoms: O_21  and  C_34
    5  A    between atoms: C_22  and  C_61
    6  A    between atoms: N_29  and  C_34
    7  A    between atoms: C_30  and  C_34
    8  A    between atoms: C_33  and  C_35
    9  A    between atoms: C_40  and  C_52
   10  A    between atoms: C_58  and  C_61
   11  A    between atoms: C_62  and  C_63
                            x       y       z     vdW  Elec       q    Type
                         _______ _______ _______ _____ _____    ______ ____

>  <TORSDO>
F 11

$$$$
=
 OpenBabel11072409373D

 63 70  0  0  1  0  0  0  0  0999 V2000
  189.3890  173.1460  142.7730 C   0  0  0  0  0  2  0  0  0  0  0  0
  190.3160  171.9680  142.4600 C   0  0  1  0  0  3  0  0  0  0  0  0
  191.1770  174.4230  141.7580 O   0  0  0  0  0  0  0  0  0  0  0  0
  190.8680  172.0770  141.0200 C   0  0  1  0  0  3  0  0  0  0  0  0
  191.4830  173.4690  140.7610 C   0  0  0  0  0  2  0  0  0  0  0  0
  189.7840  174.3900  141.9480 C   0  0  2  0  0  3  0  0  0  0  0  0
  191.3690  171.9500  143.3820 O   0  0  0  0  0  1  0  0  0  0  0  0
  189.3570  176.2320  146.2240 O   0  0  0  0  0  1  0  0  0  0  0  0
  186.8670  175.9100  142.5780 C   0  0  0  0  0  2  0  0  0  0  0  0
  189.0050  178.6190  143.5610 O   0  0  0  0  0  1  0  0  0  0  0  0
  188.8420  175.6220  143.9890 C   0  0  2  0  0  3  0  0  0  0  0  0
  189.5150  176.6630  144.9010 C   0  0  1  0  0  0  0  0  0  0  0  0
  189.2730  175.7150  142.5150 C   0  0  2  0  0  3  0  0  0  0  0  0
  187.2310  177.3980  144.5360 C   0  0  1  0  0  3  0  0  0  0  0  0
  188.6500  177.9160  144.7170 C   0  0  2  0  0  3  0  0  0  0  0  0
  187.3540  175.9690  144.0130 C   0  0  1  0  0  3  0  0  0  0  0  0
  188.0750  176.1970  141.7170 C   0  0  0  0  0  2  0  0  0  0  0  0
  191.4170  177.8040  143.8350 C   0  0  0  0  0  2  0  0  0  0  0  0
  191.0180  176.8270  144.6530 C   0  0  0  0  0  0  0  0  0  0  0  0
  192.7470  175.8930  146.3450 C   0  0  2  0  0  3  0  0  0  0  0  0
  194.0510  175.1400  146.1970 C   0  0  0  0  0  2  0  0  0  0  0  0
  191.9550  175.2760  147.3110 O   0  0  0  0  0  1  0  0  0  0  0  0
  193.1590  175.5110  143.9450 C   0  0  1  0  0  3  0  0  0  0  0  0
  194.4560  175.2200  144.7290 C   0  0  1  0  0  0  0  0  0  0  0  0
  195.3860  176.2510  144.5770 O   0  0  0  0  0  1  0  0  0  0  0  0
  192.0800  175.8000  144.9920 C   0  0  2  0  0  3  0  0  0  0  0  0
  196.3500  173.5810  144.7720 O   0  0  0  0  0  1  0  0  0  0  0  0
  194.4940  173.1440  143.5030 O   0  0  0  0  0  0  0  0  0  0  0  0
  195.0840  173.9190  144.3100 C   0  0  0  0  0  0  0  0  0  0  0  0
  193.3010  176.5890  142.8630 C   0  0  0  0  0  2  0  0  0  0  0  0
  194.5960  175.6090  140.7340 C   0  0  0  0  0  3  0  0  0  0  0  0
  194.0130  176.0530  141.6950 C   0  0  0  0  0  0  0  0  0  0  0  0
  185.1190  177.4420  145.6420 O   0  0  0  0  0  1  0  0  0  0  0  0
  186.4920  177.3920  145.8630 C   0  0  0  0  0  2  0  0  0  0  0  0
  191.7950  170.9200  140.5900 C   0  0  2  0  0  3  0  0  0  0  0  0
  193.2520  170.1270  138.8900 C   0  0  0  0  0  2  0  0  0  0  0  0
  194.4470  172.0590  137.7490 C   0  0  0  0  0  0  0  0  0  0  0  0
  194.1200  170.5850  137.7150 C   0  0  1  0  0  3  0  0  0  0  0  0
  188.9420  174.0230  136.4820 C   0  0  0  0  0  3  0  0  0  0  0  0
  193.7990  172.9150  136.9310 C   0  0  0  0  0  0  0  0  0  0  0  0
  195.3800  172.5640  138.8020 C   0  0  0  0  0  2  0  0  0  0  0  0
  192.1860  171.0800  139.1760 N   0  0  0  0  0  0  0  0  0  0  0  0
  189.1400  172.1810  138.1370 C   0  0  0  0  0  3  0  0  0  0  0  0
  196.5820  173.1980  138.1930 C   0  0  0  0  0  3  0  0  0  0  0  0
  191.1590  173.0230  136.9660 C   0  0  1  0  0  3  0  0  0  0  0  0
  191.0870  170.7260  138.2820 C   0  0  0  0  0  2  0  0  0  0  0  0
  192.4560  172.3280  135.8840 S   0  0  0  0  0  0  0  0  0  0  0  0
  194.0930  174.3640  136.8580 C   0  0  0  0  0  3  0  0  0  0  0  0
  195.2950  176.3270  136.9170 F   0  0  0  0  0  0  0  0  0  0  0  0
  188.4390  173.4660  137.7880 C   0  0  0  0  0  2  0  0  0  0  0  0
  190.2110  173.8250  136.1080 C   0  0  0  0  0  3  0  0  0  0  0  0
  190.4130  171.9640  137.7700 C   0  0  0  0  0  0  0  0  0  0  0  0
  197.8050  174.8880  136.9770 C   0  0  0  0  0  1  0  0  0  0  0  0
  195.2550  174.9850  137.1080 C   0  0  0  0  0  0  0  0  0  0  0  0
  196.5200  174.2930  137.4380 C   0  0  0  0  0  0  0  0  0  0  0  0
  196.9770  168.1660  138.4370 C   0  0  0  0  0  3  0  0  0  0  0  0
  195.8300  168.9430  138.6060 C   0  0  0  0  0  3  0  0  0  0  0  0
  195.3390  169.7250  137.5460 C   0  0  0  0  0  0  0  0  0  0  0  0
  197.6410  168.1670  137.2090 C   0  0  0  0  0  3  0  0  0  0  0  0
  197.1600  168.9470  136.1520 C   0  0  0  0  0  3  0  0  0  0  0  0
  196.0120  169.7250  136.3210 C   0  0  0  0  0  3  0  0  0  0  0  0
  191.8900  168.9920  141.6950 C   0  0  0  0  0  1  0  0  0  0  0  0
  191.1130  169.7060  140.7750 O   0  0  0  0  0  0  0  0  0  0  0  0
  2  1  1  0  0  0  0
  2  7  1  1  0  0  0
  3  6  1  0  0  0  0
  4 35  1  1  0  0  0
  4  2  1  0  0  0  0
  5  4  1  0  0  0  0
  5  3  1  0  0  0  0
  6 13  1  0  0  0  0
  6  1  1  1  0  0  0
  9 16  1  0  0  0  0
 10 15  1  0  0  0  0
 11 16  1  0  0  0  0
 11 12  1  0  0  0  0
 12  8  1  0  0  0  0
 13 11  1  0  0  0  0
 14 15  1  0  0  0  0
 14 34  1  0  0  0  0
 15 12  1  0  0  0  0
 16 14  1  0  0  0  0
 17 13  1  0  0  0  0
 17  9  1  0  0  0  0
 18 19  2  0  0  0  0
 19 12  1  0  0  0  0
 19 26  1  0  0  0  0
 20 22  1  0  0  0  0
 21 20  1  0  0  0  0
 23 24  1  0  0  0  0
 23 26  1  0  0  0  0
 24 21  1  0  0  0  0
 25 24  1  0  0  0  0
 26 20  1  0  0  0  0
 28 29  2  0  0  0  0
 29 24  1  0  0  0  0
 29 27  1  0  0  0  0
 30 23  1  0  0  0  0
 31 32  3  0  0  0  0
 32 30  1  0  0  0  0
 33 34  1  0  0  0  0
 35 63  1  0  0  0  0
 36 42  1  0  0  0  0
 37 41  1  0  0  0  0
 38 37  1  0  0  0  0
 38 36  1  0  0  0  0
 39 50  1  0  0  0  0
 40 37  2  0  0  0  0
 42 35  1  0  0  0  0
 44 41  1  0  0  0  0
 45 52  1  0  0  0  0
 46 42  1  0  0  0  0
 47 40  1  0  0  0  0
 47 45  1  0  0  0  0
 48 40  1  0  0  0  0
 48 54  2  0  0  0  0
 49 54  1  0  0  0  0
 50 43  1  0  0  0  0
 51 39  2  0  0  0  0
 51 45  1  0  0  0  0
 52 43  2  0  0  0  0
 52 46  1  0  0  0  0
 53 55  1  0  0  0  0
 54 55  1  0  0  0  0
 55 44  2  0  0  0  0
 56 57  1  0  0  0  0
 58 38  1  0  0  0  0
 58 57  2  0  0  0  0
 59 56  2  0  0  0  0
 60 61  2  0  0  0  0
 60 59  1  0  0  0  0
 61 58  1  0  0  0  0
 63 62  1  0  0  0  0
M  END
>  <MODEL>
9

>  <REMARK>
 VINA RESULT:      -6.9      2.304      5.732
  Name = 
  11 active torsions:
  status: ('A' for Active; 'I' for Inactive)
    1  A    between atoms: C_10  and  C_19
    2  A    between atoms: C_15  and  C_62
    3  A    between atoms: C_17  and  C_44
    4  A    between atoms: O_21  and  C_34
    5  A    between atoms: C_22  and  C_61
    6  A    between atoms: N_29  and  C_34
    7  A    between atoms: C_30  and  C_34
    8  A    between atoms: C_33  and  C_35
    9  A    between atoms: C_40  and  C_52
   10  A    between atoms: C_58  and  C_61
   11  A    between atoms: C_62  and  C_63
                            x       y       z     vdW  Elec       q    Type
                         _______ _______ _______ _____ _____    ______ ____

>  <TORSDO>
F 11

$$$$
