=
 OpenBabel11062421053D

 68 72  0  0  1  0  0  0  0  0999 V2000
  189.7580  172.6390  141.3790 C   0  0  0  0  0  2  0  0  0  0  0  0
  190.6010  171.7700  140.4030 C   0  0  2  0  0  0  0  0  0  0  0  0
  191.0990  169.3140  140.1270 O   0  0  0  0  0  1  0  0  0  0  0  0
  190.9790  170.4050  140.9790 C   0  0  0  0  0  0  0  0  0  0  0  0
  191.1400  170.2030  142.2830 C   0  0  0  0  0  2  0  0  0  0  0  0
  193.0070  171.9330  140.6840 O   0  0  0  0  0  1  0  0  0  0  0  0
  191.8920  172.5410  140.0970 C   0  0  0  0  0  2  0  0  0  0  0  0
  189.9140  171.6200  139.1710 O   0  0  0  0  0  0  0  0  0  0  0  0
  190.0650  173.8340  136.3430 C   0  0  0  0  0  0  0  0  0  0  0  0
  192.4600  174.1030  135.4550 C   0  0  1  0  0  3  0  0  0  0  0  0
  190.9200  171.2560  137.0180 C   0  0  1  0  0  3  0  0  0  0  0  0
  189.3850  174.7980  135.9010 O   0  0  0  0  0  0  0  0  0  0  0  0
  191.5560  171.8610  135.8310 N   0  0  1  0  0  0  0  0  0  0  0  0
  190.6000  172.2670  138.1230 C   0  0  1  0  0  3  0  0  0  0  0  0
  193.5680  173.0840  135.3350 C   0  0  0  0  0  2  0  0  0  0  0  0
  189.7860  173.3040  137.5950 O   0  0  0  0  0  0  0  0  0  0  0  0
  191.1870  173.2600  135.5180 C   0  0  1  0  0  3  0  0  0  0  0  0
  193.0120  171.8210  135.9780 C   0  0  2  0  0  3  0  0  0  0  0  0
  189.7630  170.5780  136.6290 O   0  0  0  0  0  1  0  0  0  0  0  0
  192.6670  175.0760  136.6360 C   0  0  1  0  0  3  0  0  0  0  0  0
  193.7270  174.6340  137.6380 C   0  0  0  0  0  1  0  0  0  0  0  0
  192.9390  176.4680  136.1530 C   0  0  0  0  0  3  0  0  0  0  0  0
  192.1630  177.0400  135.4010 O   0  0  0  0  0  0  0  0  0  0  0  0
  193.5700  170.5380  135.3350 C   0  0  2  0  0  3  0  0  0  0  0  0
  192.5360  169.8340  134.7140 O   0  0  0  0  0  1  0  0  0  0  0  0
  193.6350  168.3720  136.4130 O   0  0  0  0  0  1  0  0  0  0  0  0
  194.3100  169.5920  136.2960 C   0  0  2  0  0  3  0  0  0  0  0  0
  195.1540  169.3850  139.7840 N   0  0  0  0  0  0  0  0  0  0  0  0
  196.2920  170.1660  139.3470 C   0  0  0  0  0  2  0  0  0  0  0  0
  196.1920  168.8700  142.0480 C   0  0  0  0  0  1  0  0  0  0  0  0
  194.1000  169.3020  138.7930 C   0  0  0  0  0  2  0  0  0  0  0  0
  194.0130  168.1680  141.4180 O   0  0  0  0  0  0  0  0  0  0  0  0
  194.5250  170.2330  137.6700 C   0  0  1  0  0  3  0  0  0  0  0  0
  196.0040  170.5370  137.9060 C   0  0  0  0  0  2  0  0  0  0  0  0
  195.0610  168.7790  141.0800 C   0  0  0  0  0  0  0  0  0  0  0  0
  190.5880  173.5820  142.2470 C   0  0  0  0  0  2  0  0  0  0  0  0
  189.9070  174.9370  142.3490 C   0  0  0  0  0  2  0  0  0  0  0  0
  191.4920  176.2700  143.7240 C   0  0  0  0  0  3  0  0  0  0  0  0
  190.3130  175.6380  143.6100 C   0  0  0  0  0  0  0  0  0  0  0  0
  192.4820  176.3880  142.5980 C   0  0  0  0  0  2  0  0  0  0  0  0
  194.5390  174.3790  143.9290 C   0  0  1  0  0  3  0  0  0  0  0  0
  193.9250  176.0260  142.9720 C   0  0  2  0  0  3  0  0  0  0  0  0
  194.3570  174.6770  142.4640 C   0  0  0  0  0  2  0  0  0  0  0  0
  194.0520  175.6410  144.3180 O   0  0  0  0  0  0  0  0  0  0  0  0
  193.5850  173.2810  144.3720 C   0  0  0  0  0  2  0  0  0  0  0  0
  194.1130  172.5790  145.6130 C   0  0  0  0  0  2  0  0  0  0  0  0
  196.9630  170.3800  146.1820 N   0  0  0  0  0  2  0  0  0  0  0  0
  196.4070  171.6700  145.7990 C   0  0  0  0  0  2  0  0  0  0  0  0
  195.0300  171.4270  145.2340 C   0  0  1  0  0  3  0  0  0  0  0  0
  194.5750  170.1430  145.8800 C   0  0  1  0  0  3  0  0  0  0  0  0
  193.9380  169.2400  144.8400 C   0  0  0  0  0  1  0  0  0  0  0  0
  195.8310  169.4930  146.4250 C   0  0  0  0  0  2  0  0  0  0  0  0
  189.3580  175.5610  144.7730 C   0  0  1  0  0  3  0  0  0  0  0  0
  191.0600  175.3940  146.4620 O   0  0  0  0  0  0  0  0  0  0  0  0
  189.2860  173.9630  146.6860 O   0  0  0  0  0  1  0  0  0  0  0  0
  189.9550  174.9790  146.0180 C   0  0  0  0  0  0  0  0  0  0  0  0
  188.4640  176.7880  145.0240 C   0  0  2  0  0  3  0  0  0  0  0  0
  189.2630  178.0210  145.4280 C   0  0  0  0  0  1  0  0  0  0  0  0
  186.2010  176.0140  145.1070 O   0  0  0  0  0  1  0  0  0  0  0  0
  187.2260  176.5400  145.8960 C   0  0  2  0  0  3  0  0  0  0  0  0
  186.7320  177.7950  146.6130 C   0  0  0  0  0  2  0  0  0  0  0  0
  185.2140  177.8440  146.6290 C   0  0  0  0  0  2  0  0  0  0  0  0
  184.7200  179.0480  145.8460 C   0  0  0  0  0  2  0  0  0  0  0  0
  185.7660  179.5170  144.8420 C   0  0  0  0  0  2  0  0  0  0  0  0
  184.1480  178.3890  143.2130 C   0  0  0  0  0  1  0  0  0  0  0  0
  185.4170  179.2120  143.3790 C   0  0  2  0  0  3  0  0  0  0  0  0
  186.3350  177.3240  141.9400 C   0  0  0  0  0  1  0  0  0  0  0  0
  186.5920  178.6980  142.5400 C   0  0  0  0  0  2  0  0  0  0  0  0
  1 36  1  0  0  0  0
  2  7  1  6  0  0  0
  2  4  1  0  0  0  0
  2  1  1  0  0  0  0
  3  4  1  0  0  0  0
  4  5  2  0  0  0  0
  7  6  1  0  0  0  0
  8  2  1  0  0  0  0
  9 16  1  0  0  0  0
 10 17  1  0  0  0  0
 10 20  1  1  0  0  0
 11 19  1  6  0  0  0
 11 14  1  0  0  0  0
 12  9  2  0  0  0  0
 13 18  1  0  0  0  0
 13 11  1  0  0  0  0
 14  8  1  0  0  0  0
 15 10  1  0  0  0  0
 15 18  1  0  0  0  0
 16 14  1  0  0  0  0
 17 13  1  0  0  0  0
 17  9  1  0  0  0  0
 20 21  1  0  0  0  0
 22 20  1  0  0  0  0
 23 22  2  0  0  0  0
 24 18  1  0  0  0  0
 24 27  1  0  0  0  0
 25 24  1  0  0  0  0
 27 26  1  0  0  0  0
 27 33  1  0  0  0  0
 28 35  1  0  0  0  0
 29 28  1  0  0  0  0
 31 28  1  0  0  0  0
 33 34  1  0  0  0  0
 33 31  1  0  0  0  0
 34 29  1  0  0  0  0
 35 32  2  0  0  0  0
 35 30  1  0  0  0  0
 36 37  1  0  0  0  0
 37 39  1  0  0  0  0
 39 38  2  0  0  0  0
 39 53  1  0  0  0  0
 40 42  1  0  0  0  0
 40 38  1  0  0  0  0
 41 44  1  0  0  0  0
 41 45  1  0  0  0  0
 42 44  1  0  0  0  0
 43 42  1  0  0  0  0
 43 41  1  0  0  0  0
 45 46  1  0  0  0  0
 47 52  1  0  0  0  0
 48 47  1  0  0  0  0
 49 46  1  0  0  0  0
 49 48  1  0  0  0  0
 49 50  1  0  0  0  0
 50 52  1  0  0  0  0
 51 50  1  0  0  0  0
 53 57  1  0  0  0  0
 53 56  1  0  0  0  0
 56 54  2  0  0  0  0
 56 55  1  0  0  0  0
 57 58  1  0  0  0  0
 57 60  1  0  0  0  0
 59 60  1  0  0  0  0
 60 61  1  0  0  0  0
 61 62  1  0  0  0  0
 63 62  1  0  0  0  0
 64 63  1  0  0  0  0
 65 66  1  0  0  0  0
 66 64  1  0  0  0  0
 67 68  1  0  0  0  0
 68 66  1  0  0  0  0
M  END
>  <MODEL>
1

>  <REMARK>
 VINA RESULT:      -5.4      0.000      0.000
  Name = 
  28 active torsions:
  status: ('A' for Active; 'I' for Inactive)
    1  A    between atoms: C_2  and  C_22
    2  A    between atoms: C_2  and  C_28
    3  A    between atoms: C_3  and  C_33
    4  A    between atoms: C_7  and  C_22
    5  A    between atoms: C_10  and  C_62
    6  A    between atoms: C_12  and  C_50
    7  A    between atoms: C_12  and  C_53
    8  A    between atoms: C_14  and  C_32
    9  A    between atoms: C_14  and  C_51
   10  A    between atoms: C_15  and  C_56
   11  A    between atoms: C_15  and  C_63
   12  A    between atoms: O_20  and  C_24
   13  A    between atoms: O_20  and  C_62
   14  A    between atoms: C_21  and  C_57
   15  A    between atoms: C_21  and  C_66
   16  A    between atoms: C_23  and  C_47
   17  A    between atoms: C_23  and  C_53
   18  A    between atoms: C_25  and  C_52
   19  A    between atoms: C_27  and  C_62
   20  A    between atoms: C_29  and  C_33
   21  A    between atoms: C_32  and  C_50
   22  A    between atoms: C_36  and  C_52
   23  A    between atoms: C_37  and  C_51
   24  A    between atoms: C_38  and  C_62
   25  A    between atoms: C_38  and  C_66
   26  A    between atoms: C_46  and  C_56
   27  A    between atoms: C_47  and  C_57
   28  A    between atoms: C_47  and  C_58
                            x       y       z     vdW  Elec       q    Type
                         _______ _______ _______ _____ _____    ______ ____

>  <TORSDO>
F 28

$$$$
=
 OpenBabel11062421053D

 68 72  0  0  1  0  0  0  0  0999 V2000
  193.9030  175.0310  140.5590 C   0  0  0  0  0  2  0  0  0  0  0  0
  195.4370  174.8210  140.4300 C   0  0  2  0  0  0  0  0  0  0  0  0
  197.3100  175.6280  138.9470 O   0  0  0  0  0  1  0  0  0  0  0  0
  195.9890  175.2080  139.0580 C   0  0  0  0  0  0  0  0  0  0  0  0
  195.2340  175.2190  137.9640 C   0  0  0  0  0  2  0  0  0  0  0  0
  196.9660  172.9560  140.1470 O   0  0  0  0  0  1  0  0  0  0  0  0
  195.7200  173.3300  140.6630 C   0  0  0  0  0  2  0  0  0  0  0  0
  196.1120  175.5290  141.4590 O   0  0  0  0  0  0  0  0  0  0  0  0
  195.0850  176.4060  144.7900 C   0  0  0  0  0  0  0  0  0  0  0  0
  194.0000  174.4290  146.0180 C   0  0  1  0  0  3  0  0  0  0  0  0
  196.5970  174.4140  143.5330 C   0  0  1  0  0  3  0  0  0  0  0  0
  194.7490  177.4600  145.3940 O   0  0  0  0  0  0  0  0  0  0  0  0
  196.1620  174.1260  144.9140 N   0  0  1  0  0  0  0  0  0  0  0  0
  195.5750  175.2200  142.7260 C   0  0  1  0  0  3  0  0  0  0  0  0
  194.3510  172.9610  145.9890 C   0  0  0  0  0  2  0  0  0  0  0  0
  195.2690  176.4230  143.4140 O   0  0  0  0  0  0  0  0  0  0  0  0
  195.2800  175.1250  145.5580 C   0  0  1  0  0  3  0  0  0  0  0  0
  195.4590  172.8420  144.9510 C   0  0  2  0  0  3  0  0  0  0  0  0
  197.8250  175.0790  143.5640 O   0  0  0  0  0  1  0  0  0  0  0  0
  192.7360  174.7590  145.1960 C   0  0  1  0  0  3  0  0  0  0  0  0
  192.0800  173.5500  144.5370 C   0  0  0  0  0  1  0  0  0  0  0  0
  191.7400  175.5260  146.0110 C   0  0  0  0  0  3  0  0  0  0  0  0
  190.7630  174.9760  146.4970 O   0  0  0  0  0  0  0  0  0  0  0  0
  196.4500  171.7090  145.2730 C   0  0  2  0  0  3  0  0  0  0  0  0
  197.7370  172.0830  144.8820 O   0  0  0  0  0  1  0  0  0  0  0  0
  197.2160  169.4850  144.7020 O   0  0  0  0  0  1  0  0  0  0  0  0
  196.1140  170.3460  144.6450 C   0  0  2  0  0  3  0  0  0  0  0  0
  196.1320  169.4070  141.1750 N   0  0  0  0  0  0  0  0  0  0  0  0
  194.7940  168.9560  141.4990 C   0  0  0  0  0  2  0  0  0  0  0  0
  196.1640  168.1780  138.9490 C   0  0  0  0  0  1  0  0  0  0  0  0
  196.7170  170.2510  142.1970 C   0  0  0  0  0  2  0  0  0  0  0  0
  197.9400  169.5600  139.7060 O   0  0  0  0  0  0  0  0  0  0  0  0
  195.6070  170.4930  143.2070 C   0  0  1  0  0  3  0  0  0  0  0  0
  194.5220  169.4620  142.9020 C   0  0  0  0  0  2  0  0  0  0  0  0
  196.8020  169.0800  139.9510 C   0  0  0  0  0  0  0  0  0  0  0  0
  193.1300  173.7690  140.9370 C   0  0  0  0  0  2  0  0  0  0  0  0
  192.2690  173.3120  139.7720 C   0  0  0  0  0  2  0  0  0  0  0  0
  190.7160  171.5580  140.6040 C   0  0  0  0  0  3  0  0  0  0  0  0
  190.9330  172.8380  140.2580 C   0  0  0  0  0  0  0  0  0  0  0  0
  191.7870  170.5030  140.5950 C   0  0  0  0  0  2  0  0  0  0  0  0
  190.5930  168.8300  138.1840 C   0  0  1  0  0  3  0  0  0  0  0  0
  191.3550  169.1540  140.0060 C   0  0  2  0  0  3  0  0  0  0  0  0
  192.0120  168.8350  138.6900 C   0  0  0  0  0  2  0  0  0  0  0  0
  190.0700  169.2020  139.4360 O   0  0  0  0  0  0  0  0  0  0  0  0
  190.3860  169.9430  137.1680 C   0  0  0  0  0  2  0  0  0  0  0  0
  191.1350  169.6400  135.8800 C   0  0  0  0  0  2  0  0  0  0  0  0
  191.0910  173.0930  134.7160 N   0  0  0  0  0  2  0  0  0  0  0  0
  190.8090  171.6790  134.5160 C   0  0  0  0  0  2  0  0  0  0  0  0
  191.8010  170.8930  135.3350 C   0  0  1  0  0  3  0  0  0  0  0  0
  192.1940  171.8240  136.4540 C   0  0  1  0  0  3  0  0  0  0  0  0
  193.6980  171.7870  136.6520 C   0  0  0  0  0  1  0  0  0  0  0  0
  191.7680  173.2070  136.0040 C   0  0  0  0  0  2  0  0  0  0  0  0
  189.8190  173.8510  140.2950 C   0  0  1  0  0  3  0  0  0  0  0  0
  188.8770  172.8070  138.3470 O   0  0  0  0  0  0  0  0  0  0  0  0
  188.1320  174.9240  138.8040 O   0  0  0  0  0  1  0  0  0  0  0  0
  188.9200  173.8190  139.0970 C   0  0  0  0  0  0  0  0  0  0  0  0
  189.0730  174.0200  141.6310 C   0  0  2  0  0  3  0  0  0  0  0  0
  187.8480  173.1190  141.7330 C   0  0  0  0  0  1  0  0  0  0  0  0
  189.4140  175.6900  143.3110 O   0  0  0  0  0  1  0  0  0  0  0  0
  188.8140  175.4670  142.0690 C   0  0  2  0  0  3  0  0  0  0  0  0
  187.3300  175.8190  142.1430 C   0  0  0  0  0  2  0  0  0  0  0  0
  187.0400  177.0960  141.3740 C   0  0  0  0  0  2  0  0  0  0  0  0
  187.3460  178.3080  142.2350 C   0  0  0  0  0  2  0  0  0  0  0  0
  186.0670  178.9180  142.7990 C   0  0  0  0  0  2  0  0  0  0  0  0
  186.8590  177.8550  144.9870 C   0  0  0  0  0  1  0  0  0  0  0  0
  185.9940  178.9220  144.3320 C   0  0  2  0  0  3  0  0  0  0  0  0
  184.4680  178.4170  146.3050 C   0  0  0  0  0  1  0  0  0  0  0  0
  184.5720  178.9870  144.8990 C   0  0  0  0  0  2  0  0  0  0  0  0
  1 36  1  0  0  0  0
  2  1  1  1  0  0  0
  2  7  1  0  0  0  0
  2  8  1  0  0  0  0
  3  4  1  0  0  0  0
  4  2  1  0  0  0  0
  5  4  2  0  0  0  0
  6  7  1  0  0  0  0
  8 14  1  0  0  0  0
  9 12  2  0  0  0  0
  9 17  1  0  0  0  0
 10 20  1  6  0  0  0
 11 19  1  1  0  0  0
 11 13  1  0  0  0  0
 13 18  1  0  0  0  0
 13 17  1  0  0  0  0
 14 16  1  0  0  0  0
 14 11  1  0  0  0  0
 15 10  1  0  0  0  0
 16  9  1  0  0  0  0
 17 10  1  0  0  0  0
 18 24  1  0  0  0  0
 18 15  1  0  0  0  0
 20 22  1  0  0  0  0
 21 20  1  0  0  0  0
 22 23  2  0  0  0  0
 25 24  1  0  0  0  0
 27 26  1  0  0  0  0
 27 24  1  0  0  0  0
 28 29  1  0  0  0  0
 28 31  1  0  0  0  0
 29 34  1  0  0  0  0
 30 35  1  0  0  0  0
 31 33  1  0  0  0  0
 32 35  2  0  0  0  0
 33 27  1  0  0  0  0
 34 33  1  0  0  0  0
 35 28  1  0  0  0  0
 37 39  1  0  0  0  0
 37 36  1  0  0  0  0
 39 53  1  0  0  0  0
 39 38  2  0  0  0  0
 40 38  1  0  0  0  0
 41 43  1  0  0  0  0
 41 44  1  0  0  0  0
 42 40  1  0  0  0  0
 43 42  1  0  0  0  0
 44 42  1  0  0  0  0
 45 41  1  0  0  0  0
 46 45  1  0  0  0  0
 47 52  1  0  0  0  0
 48 47  1  0  0  0  0
 48 49  1  0  0  0  0
 49 46  1  0  0  0  0
 49 50  1  0  0  0  0
 50 51  1  0  0  0  0
 52 50  1  0  0  0  0
 53 57  1  0  0  0  0
 54 56  2  0  0  0  0
 55 56  1  0  0  0  0
 56 53  1  0  0  0  0
 57 58  1  0  0  0  0
 57 60  1  0  0  0  0
 60 61  1  0  0  0  0
 60 59  1  0  0  0  0
 62 61  1  0  0  0  0
 62 63  1  0  0  0  0
 63 64  1  0  0  0  0
 64 66  1  0  0  0  0
 66 68  1  0  0  0  0
 66 65  1  0  0  0  0
 68 67  1  0  0  0  0
M  END
>  <MODEL>
2

>  <REMARK>
 VINA RESULT:      -5.3      2.241      7.766
  Name = 
  28 active torsions:
  status: ('A' for Active; 'I' for Inactive)
    1  A    between atoms: C_2  and  C_22
    2  A    between atoms: C_2  and  C_28
    3  A    between atoms: C_3  and  C_33
    4  A    between atoms: C_7  and  C_22
    5  A    between atoms: C_10  and  C_62
    6  A    between atoms: C_12  and  C_50
    7  A    between atoms: C_12  and  C_53
    8  A    between atoms: C_14  and  C_32
    9  A    between atoms: C_14  and  C_51
   10  A    between atoms: C_15  and  C_56
   11  A    between atoms: C_15  and  C_63
   12  A    between atoms: O_20  and  C_24
   13  A    between atoms: O_20  and  C_62
   14  A    between atoms: C_21  and  C_57
   15  A    between atoms: C_21  and  C_66
   16  A    between atoms: C_23  and  C_47
   17  A    between atoms: C_23  and  C_53
   18  A    between atoms: C_25  and  C_52
   19  A    between atoms: C_27  and  C_62
   20  A    between atoms: C_29  and  C_33
   21  A    between atoms: C_32  and  C_50
   22  A    between atoms: C_36  and  C_52
   23  A    between atoms: C_37  and  C_51
   24  A    between atoms: C_38  and  C_62
   25  A    between atoms: C_38  and  C_66
   26  A    between atoms: C_46  and  C_56
   27  A    between atoms: C_47  and  C_57
   28  A    between atoms: C_47  and  C_58
                            x       y       z     vdW  Elec       q    Type
                         _______ _______ _______ _____ _____    ______ ____

>  <TORSDO>
F 28

$$$$
=
 OpenBabel11062421053D

 68 72  0  0  1  0  0  0  0  0999 V2000
  191.9500  174.0760  141.0540 C   0  0  0  0  0  2  0  0  0  0  0  0
  190.4940  174.0510  141.5980 C   0  0  2  0  0  0  0  0  0  0  0  0
  189.4600  174.1010  139.3000 O   0  0  0  0  0  1  0  0  0  0  0  0
  189.4740  173.5500  140.5760 C   0  0  0  0  0  0  0  0  0  0  0  0
  188.5490  172.6440  140.8770 C   0  0  0  0  0  2  0  0  0  0  0  0
  188.8260  175.8150  141.5770 O   0  0  0  0  0  1  0  0  0  0  0  0
  190.1220  175.4880  141.9890 C   0  0  0  0  0  2  0  0  0  0  0  0
  190.4330  173.2770  142.7870 O   0  0  0  0  0  0  0  0  0  0  0  0
  192.8420  173.5010  145.4450 C   0  0  0  0  0  0  0  0  0  0  0  0
  192.7920  175.7930  146.6020 C   0  0  1  0  0  3  0  0  0  0  0  0
  190.1070  173.9610  145.0680 C   0  0  1  0  0  3  0  0  0  0  0  0
  193.9420  172.9560  145.7290 O   0  0  0  0  0  0  0  0  0  0  0  0
  190.7050  174.5580  146.2780 N   0  0  1  0  0  0  0  0  0  0  0  0
  191.0520  173.9460  143.8620 C   0  0  1  0  0  3  0  0  0  0  0  0
  191.6190  176.6860  146.9320 C   0  0  0  0  0  2  0  0  0  0  0  0
  192.2530  173.2730  144.2090 O   0  0  0  0  0  0  0  0  0  0  0  0
  192.1690  174.4080  146.4420 C   0  0  1  0  0  3  0  0  0  0  0  0
  190.4110  175.9920  146.3170 C   0  0  2  0  0  3  0  0  0  0  0  0
  189.6690  172.6670  145.3580 O   0  0  0  0  0  1  0  0  0  0  0  0
  193.6050  176.2960  145.3900 C   0  0  1  0  0  3  0  0  0  0  0  0
  192.8060  177.1430  144.4040 C   0  0  0  0  0  1  0  0  0  0  0  0
  194.8450  177.0150  145.8260 C   0  0  0  0  0  3  0  0  0  0  0  0
  194.9330  178.2310  145.7430 O   0  0  0  0  0  0  0  0  0  0  0  0
  189.1190  176.2410  147.1140 C   0  0  2  0  0  3  0  0  0  0  0  0
  188.3850  175.0570  147.2060 O   0  0  0  0  0  1  0  0  0  0  0  0
  187.7980  178.2160  147.5780 O   0  0  0  0  0  1  0  0  0  0  0  0
  188.2100  177.3500  146.5580 C   0  0  2  0  0  3  0  0  0  0  0  0
  185.4090  177.6990  144.3320 N   0  0  0  0  0  0  0  0  0  0  0  0
  186.2190  176.8310  143.5020 C   0  0  0  0  0  2  0  0  0  0  0  0
  183.8230  178.2770  142.4300 C   0  0  0  0  0  1  0  0  0  0  0  0
  185.8790  177.7880  145.6990 C   0  0  0  0  0  2  0  0  0  0  0  0
  183.5440  179.0660  144.6520 O   0  0  0  0  0  0  0  0  0  0  0  0
  187.0050  176.7740  145.8080 C   0  0  1  0  0  3  0  0  0  0  0  0
  187.3810  176.3990  144.3750 C   0  0  0  0  0  2  0  0  0  0  0  0
  184.2390  178.3790  143.8580 C   0  0  0  0  0  0  0  0  0  0  0  0
  192.3050  172.8820  140.1700 C   0  0  0  0  0  2  0  0  0  0  0  0
  192.9670  173.3570  138.8880 C   0  0  0  0  0  2  0  0  0  0  0  0
  193.7290  172.0920  136.8890 C   0  0  0  0  0  3  0  0  0  0  0  0
  192.7690  172.3560  137.7900 C   0  0  0  0  0  0  0  0  0  0  0  0
  195.0950  172.7180  136.9240 C   0  0  0  0  0  2  0  0  0  0  0  0
  196.9730  172.0980  139.3990 C   0  0  1  0  0  3  0  0  0  0  0  0
  196.1810  171.8540  137.5770 C   0  0  2  0  0  3  0  0  0  0  0  0
  195.7850  171.3050  138.9210 C   0  0  0  0  0  2  0  0  0  0  0  0
  197.2280  172.6210  138.1180 O   0  0  0  0  0  0  0  0  0  0  0  0
  196.5320  173.2010  140.3470 C   0  0  0  0  0  2  0  0  0  0  0  0
  196.0400  172.6150  141.6610 C   0  0  0  0  0  2  0  0  0  0  0  0
  197.2380  174.7930  144.3250 N   0  0  0  0  0  2  0  0  0  0  0  0
  196.8170  173.4860  143.8430 C   0  0  0  0  0  2  0  0  0  0  0  0
  195.8540  173.7050  142.7030 C   0  0  1  0  0  3  0  0  0  0  0  0
  196.2270  175.0540  142.1440 C   0  0  1  0  0  3  0  0  0  0  0  0
  194.9740  175.8690  141.8820 C   0  0  0  0  0  1  0  0  0  0  0  0
  197.0620  175.7250  143.2160 C   0  0  0  0  0  2  0  0  0  0  0  0
  191.4210  171.6890  137.7060 C   0  0  1  0  0  3  0  0  0  0  0  0
  190.4670  173.2810  136.1800 O   0  0  0  0  0  1  0  0  0  0  0  0
  190.0380  171.0790  135.7220 O   0  0  0  0  0  0  0  0  0  0  0  0
  190.6220  172.0710  136.4970 C   0  0  0  0  0  0  0  0  0  0  0  0
  191.3620  170.1900  138.0460 C   0  0  2  0  0  3  0  0  0  0  0  0
  190.2530  169.8590  139.0380 C   0  0  0  0  0  1  0  0  0  0  0  0
  193.1080  168.7290  137.3080 O   0  0  0  0  0  1  0  0  0  0  0  0
  192.7060  169.5300  138.3790 C   0  0  2  0  0  3  0  0  0  0  0  0
  192.6700  168.6980  139.6590 C   0  0  0  0  0  2  0  0  0  0  0  0
  194.0360  168.6650  140.3200 C   0  0  0  0  0  2  0  0  0  0  0  0
  193.9620  169.2720  141.7100 C   0  0  0  0  0  2  0  0  0  0  0  0
  195.0640  168.7220  142.6090 C   0  0  0  0  0  2  0  0  0  0  0  0
  193.6540  169.8540  144.4190 C   0  0  0  0  0  1  0  0  0  0  0  0
  194.9750  169.1830  144.0700 C   0  0  2  0  0  3  0  0  0  0  0  0
  196.1760  170.2040  146.0670 C   0  0  0  0  0  1  0  0  0  0  0  0
  196.2010  169.9550  144.5670 C   0  0  0  0  0  2  0  0  0  0  0  0
  2  1  1  6  0  0  0
  2  7  1  0  0  0  0
  2  8  1  0  0  0  0
  3  4  1  0  0  0  0
  4  5  2  0  0  0  0
  4  2  1  0  0  0  0
  6  7  1  0  0  0  0
  8 14  1  0  0  0  0
  9 12  2  0  0  0  0
  9 17  1  0  0  0  0
 10 20  1  6  0  0  0
 10 15  1  0  0  0  0
 11 19  1  1  0  0  0
 11 13  1  0  0  0  0
 13 18  1  0  0  0  0
 13 17  1  0  0  0  0
 14 16  1  0  0  0  0
 14 11  1  0  0  0  0
 16  9  1  0  0  0  0
 17 10  1  0  0  0  0
 18 15  1  0  0  0  0
 18 24  1  0  0  0  0
 20 22  1  0  0  0  0
 21 20  1  0  0  0  0
 23 22  2  0  0  0  0
 24 25  1  0  0  0  0
 27 24  1  0  0  0  0
 27 26  1  0  0  0  0
 28 31  1  0  0  0  0
 29 28  1  0  0  0  0
 29 34  1  0  0  0  0
 30 35  1  0  0  0  0
 31 33  1  0  0  0  0
 33 27  1  0  0  0  0
 34 33  1  0  0  0  0
 35 28  1  0  0  0  0
 35 32  2  0  0  0  0
 36  1  1  0  0  0  0
 37 36  1  0  0  0  0
 38 40  1  0  0  0  0
 38 39  2  0  0  0  0
 39 37  1  0  0  0  0
 40 42  1  0  0  0  0
 41 45  1  0  0  0  0
 42 44  1  0  0  0  0
 42 43  1  0  0  0  0
 43 41  1  0  0  0  0
 44 41  1  0  0  0  0
 45 46  1  0  0  0  0
 46 49  1  0  0  0  0
 48 47  1  0  0  0  0
 49 48  1  0  0  0  0
 50 49  1  0  0  0  0
 50 52  1  0  0  0  0
 51 50  1  0  0  0  0
 52 47  1  0  0  0  0
 53 39  1  0  0  0  0
 53 57  1  0  0  0  0
 54 56  1  0  0  0  0
 55 56  2  0  0  0  0
 56 53  1  0  0  0  0
 57 60  1  0  0  0  0
 57 58  1  0  0  0  0
 59 60  1  0  0  0  0
 60 61  1  0  0  0  0
 61 62  1  0  0  0  0
 62 63  1  0  0  0  0
 63 64  1  0  0  0  0
 64 66  1  0  0  0  0
 66 65  1  0  0  0  0
 66 68  1  0  0  0  0
 68 67  1  0  0  0  0
M  END
>  <MODEL>
3

>  <REMARK>
 VINA RESULT:      -5.3      2.740     10.118
  Name = 
  28 active torsions:
  status: ('A' for Active; 'I' for Inactive)
    1  A    between atoms: C_2  and  C_22
    2  A    between atoms: C_2  and  C_28
    3  A    between atoms: C_3  and  C_33
    4  A    between atoms: C_7  and  C_22
    5  A    between atoms: C_10  and  C_62
    6  A    between atoms: C_12  and  C_50
    7  A    between atoms: C_12  and  C_53
    8  A    between atoms: C_14  and  C_32
    9  A    between atoms: C_14  and  C_51
   10  A    between atoms: C_15  and  C_56
   11  A    between atoms: C_15  and  C_63
   12  A    between atoms: O_20  and  C_24
   13  A    between atoms: O_20  and  C_62
   14  A    between atoms: C_21  and  C_57
   15  A    between atoms: C_21  and  C_66
   16  A    between atoms: C_23  and  C_47
   17  A    between atoms: C_23  and  C_53
   18  A    between atoms: C_25  and  C_52
   19  A    between atoms: C_27  and  C_62
   20  A    between atoms: C_29  and  C_33
   21  A    between atoms: C_32  and  C_50
   22  A    between atoms: C_36  and  C_52
   23  A    between atoms: C_37  and  C_51
   24  A    between atoms: C_38  and  C_62
   25  A    between atoms: C_38  and  C_66
   26  A    between atoms: C_46  and  C_56
   27  A    between atoms: C_47  and  C_57
   28  A    between atoms: C_47  and  C_58
                            x       y       z     vdW  Elec       q    Type
                         _______ _______ _______ _____ _____    ______ ____

>  <TORSDO>
F 28

$$$$
=
 OpenBabel11062421053D

 68 72  0  0  1  0  0  0  0  0999 V2000
  193.1590  174.6680  146.0380 C   0  0  0  0  0  2  0  0  0  0  0  0
  191.7100  175.2300  146.0670 C   0  0  2  0  0  0  0  0  0  0  0  0
  191.4060  175.1110  148.5670 O   0  0  0  0  0  1  0  0  0  0  0  0
  191.3350  175.8690  147.4040 C   0  0  0  0  0  0  0  0  0  0  0  0
  190.8790  177.1150  147.4950 C   0  0  0  0  0  2  0  0  0  0  0  0
  189.4710  174.3190  146.2970 O   0  0  0  0  0  1  0  0  0  0  0  0
  190.7550  174.0570  145.8070 C   0  0  0  0  0  2  0  0  0  0  0  0
  191.5250  176.1490  145.0020 O   0  0  0  0  0  0  0  0  0  0  0  0
  191.7020  174.7830  141.6830 C   0  0  0  0  0  0  0  0  0  0  0  0
  189.4880  173.6970  140.9660 C   0  0  1  0  0  3  0  0  0  0  0  0
  190.0460  176.5040  143.1400 C   0  0  1  0  0  3  0  0  0  0  0  0
  192.6060  174.3390  140.9260 O   0  0  0  0  0  0  0  0  0  0  0  0
  189.4800  175.9630  141.8900 N   0  0  1  0  0  0  0  0  0  0  0  0
  190.9580  175.5180  143.8770 C   0  0  1  0  0  3  0  0  0  0  0  0
  188.0660  174.1270  141.2400 C   0  0  0  0  0  2  0  0  0  0  0  0
  191.9930  175.0880  143.0050 O   0  0  0  0  0  0  0  0  0  0  0  0
  190.3040  174.9740  141.1570 C   0  0  1  0  0  3  0  0  0  0  0  0
  188.1900  175.3280  142.1670 C   0  0  2  0  0  3  0  0  0  0  0  0
  190.7340  177.6880  142.8630 O   0  0  0  0  0  1  0  0  0  0  0  0
  189.9280  172.4960  141.8310 C   0  0  1  0  0  3  0  0  0  0  0  0
  188.9220  172.0910  142.9030 C   0  0  0  0  0  1  0  0  0  0  0  0
  190.3040  171.3210  140.9820 C   0  0  0  0  0  3  0  0  0  0  0  0
  191.0990  170.4820  141.3790 O   0  0  0  0  0  0  0  0  0  0  0  0
  187.0510  176.3440  141.9700 C   0  0  2  0  0  3  0  0  0  0  0  0
  187.3900  177.2430  140.9570 O   0  0  0  0  0  1  0  0  0  0  0  0
  186.1050  176.2900  144.1970 O   0  0  0  0  0  1  0  0  0  0  0  0
  186.6550  177.1360  143.2270 C   0  0  2  0  0  3  0  0  0  0  0  0
  183.4130  178.3870  142.3070 N   0  0  0  0  0  0  0  0  0  0  0  0
  183.4750  178.9490  143.6410 C   0  0  0  0  0  2  0  0  0  0  0  0
  180.9260  178.8630  142.0650 C   0  0  0  0  0  1  0  0  0  0  0  0
  184.6870  177.8830  141.8370 C   0  0  0  0  0  2  0  0  0  0  0  0
  182.2510  177.9140  140.3380 O   0  0  0  0  0  0  0  0  0  0  0  0
  185.6990  178.2860  142.8970 C   0  0  1  0  0  3  0  0  0  0  0  0
  184.8880  178.6940  144.1260 C   0  0  0  0  0  2  0  0  0  0  0  0
  182.2180  178.3590  141.5150 C   0  0  0  0  0  0  0  0  0  0  0  0
  193.2690  173.2570  145.4660 C   0  0  0  0  0  2  0  0  0  0  0  0
  194.4250  172.5150  146.1160 C   0  0  0  0  0  2  0  0  0  0  0  0
  196.3190  173.0430  144.5950 C   0  0  0  0  0  3  0  0  0  0  0  0
  195.4550  172.1440  145.0930 C   0  0  0  0  0  0  0  0  0  0  0  0
  196.3780  174.4760  145.0480 C   0  0  0  0  0  2  0  0  0  0  0  0
  196.6270  175.5810  142.0900 C   0  0  1  0  0  3  0  0  0  0  0  0
  195.9780  175.5030  143.9820 C   0  0  2  0  0  3  0  0  0  0  0  0
  195.4500  174.8810  142.7170 C   0  0  0  0  0  2  0  0  0  0  0  0
  197.0900  176.0620  143.3280 O   0  0  0  0  0  0  0  0  0  0  0  0
  197.6030  174.5690  141.5120 C   0  0  0  0  0  2  0  0  0  0  0  0
  197.9330  174.9060  140.0670 C   0  0  0  0  0  2  0  0  0  0  0  0
  195.7690  174.7050  137.1410 N   0  0  0  0  0  2  0  0  0  0  0  0
  196.0190  175.1240  138.5130 C   0  0  0  0  0  2  0  0  0  0  0  0
  197.0120  174.1620  139.1130 C   0  0  1  0  0  3  0  0  0  0  0  0
  197.7820  173.6230  137.9340 C   0  0  1  0  0  3  0  0  0  0  0  0
  197.9410  172.1200  138.0640 C   0  0  0  0  0  1  0  0  0  0  0  0
  196.9410  173.9480  136.7150 C   0  0  0  0  0  2  0  0  0  0  0  0
  195.4510  170.7180  144.6040 C   0  0  1  0  0  3  0  0  0  0  0  0
  195.8820  169.7590  146.7650 O   0  0  0  0  0  1  0  0  0  0  0  0
  197.0410  168.8410  145.0160 O   0  0  0  0  0  0  0  0  0  0  0  0
  196.1270  169.7510  145.5290 C   0  0  0  0  0  0  0  0  0  0  0  0
  194.1380  170.1920  144.0000 C   0  0  2  0  0  3  0  0  0  0  0  0
  193.4820  169.1240  144.8680 C   0  0  0  0  0  1  0  0  0  0  0  0
  194.5500  168.4870  142.3710 O   0  0  0  0  0  1  0  0  0  0  0  0
  194.1910  169.8300  142.5100 C   0  0  2  0  0  3  0  0  0  0  0  0
  195.1530  170.7050  141.7090 C   0  0  0  0  0  2  0  0  0  0  0  0
  194.4090  171.8410  141.0290 C   0  0  0  0  0  2  0  0  0  0  0  0
  194.4840  171.6880  139.5200 C   0  0  0  0  0  2  0  0  0  0  0  0
  193.7620  170.4270  139.0600 C   0  0  0  0  0  2  0  0  0  0  0  0
  193.1930  168.9630  137.0410 C   0  0  0  0  0  1  0  0  0  0  0  0
  193.5040  170.3630  137.5490 C   0  0  2  0  0  3  0  0  0  0  0  0
  193.9220  171.8270  135.5090 C   0  0  0  0  0  1  0  0  0  0  0  0
  194.5400  171.1060  136.6970 C   0  0  0  0  0  2  0  0  0  0  0  0
  1  2  1  0  0  0  0
  2  7  1  6  0  0  0
  2  4  1  0  0  0  0
  4  5  2  0  0  0  0
  4  3  1  0  0  0  0
  7  6  1  0  0  0  0
  8  2  1  0  0  0  0
  9 16  1  0  0  0  0
 10 17  1  0  0  0  0
 10 15  1  0  0  0  0
 10 20  1  1  0  0  0
 11 19  1  6  0  0  0
 11 14  1  0  0  0  0
 12  9  2  0  0  0  0
 13 18  1  0  0  0  0
 13 11  1  0  0  0  0
 14  8  1  0  0  0  0
 15 18  1  0  0  0  0
 16 14  1  0  0  0  0
 17  9  1  0  0  0  0
 17 13  1  0  0  0  0
 20 21  1  0  0  0  0
 22 23  2  0  0  0  0
 22 20  1  0  0  0  0
 24 18  1  0  0  0  0
 24 27  1  0  0  0  0
 25 24  1  0  0  0  0
 27 26  1  0  0  0  0
 28 29  1  0  0  0  0
 29 34  1  0  0  0  0
 31 28  1  0  0  0  0
 31 33  1  0  0  0  0
 32 35  2  0  0  0  0
 33 27  1  0  0  0  0
 33 34  1  0  0  0  0
 35 30  1  0  0  0  0
 35 28  1  0  0  0  0
 36  1  1  0  0  0  0
 36 37  1  0  0  0  0
 38 40  1  0  0  0  0
 38 39  2  0  0  0  0
 39 37  1  0  0  0  0
 41 43  1  0  0  0  0
 41 44  1  0  0  0  0
 42 40  1  0  0  0  0
 43 42  1  0  0  0  0
 44 42  1  0  0  0  0
 45 41  1  0  0  0  0
 46 45  1  0  0  0  0
 47 48  1  0  0  0  0
 48 49  1  0  0  0  0
 49 46  1  0  0  0  0
 50 51  1  0  0  0  0
 50 49  1  0  0  0  0
 52 47  1  0  0  0  0
 52 50  1  0  0  0  0
 53 39  1  0  0  0  0
 53 56  1  0  0  0  0
 55 56  2  0  0  0  0
 56 54  1  0  0  0  0
 57 53  1  0  0  0  0
 57 58  1  0  0  0  0
 59 60  1  0  0  0  0
 60 57  1  0  0  0  0
 61 60  1  0  0  0  0
 62 61  1  0  0  0  0
 63 62  1  0  0  0  0
 64 63  1  0  0  0  0
 65 66  1  0  0  0  0
 66 64  1  0  0  0  0
 67 68  1  0  0  0  0
 68 66  1  0  0  0  0
M  END
>  <MODEL>
4

>  <REMARK>
 VINA RESULT:      -4.9      2.998      9.794
  Name = 
  28 active torsions:
  status: ('A' for Active; 'I' for Inactive)
    1  A    between atoms: C_2  and  C_22
    2  A    between atoms: C_2  and  C_28
    3  A    between atoms: C_3  and  C_33
    4  A    between atoms: C_7  and  C_22
    5  A    between atoms: C_10  and  C_62
    6  A    between atoms: C_12  and  C_50
    7  A    between atoms: C_12  and  C_53
    8  A    between atoms: C_14  and  C_32
    9  A    between atoms: C_14  and  C_51
   10  A    between atoms: C_15  and  C_56
   11  A    between atoms: C_15  and  C_63
   12  A    between atoms: O_20  and  C_24
   13  A    between atoms: O_20  and  C_62
   14  A    between atoms: C_21  and  C_57
   15  A    between atoms: C_21  and  C_66
   16  A    between atoms: C_23  and  C_47
   17  A    between atoms: C_23  and  C_53
   18  A    between atoms: C_25  and  C_52
   19  A    between atoms: C_27  and  C_62
   20  A    between atoms: C_29  and  C_33
   21  A    between atoms: C_32  and  C_50
   22  A    between atoms: C_36  and  C_52
   23  A    between atoms: C_37  and  C_51
   24  A    between atoms: C_38  and  C_62
   25  A    between atoms: C_38  and  C_66
   26  A    between atoms: C_46  and  C_56
   27  A    between atoms: C_47  and  C_57
   28  A    between atoms: C_47  and  C_58
                            x       y       z     vdW  Elec       q    Type
                         _______ _______ _______ _____ _____    ______ ____

>  <TORSDO>
F 28

$$$$
=
 OpenBabel11062421053D

 68 72  0  0  1  0  0  0  0  0999 V2000
  192.6790  174.1680  143.4910 C   0  0  0  0  0  2  0  0  0  0  0  0
  192.9850  175.6260  143.9360 C   0  0  2  0  0  0  0  0  0  0  0  0
  193.8280  176.8960  145.9440 O   0  0  0  0  0  1  0  0  0  0  0  0
  193.1830  175.7700  145.4440 C   0  0  0  0  0  0  0  0  0  0  0  0
  192.8150  174.8250  146.3040 C   0  0  0  0  0  2  0  0  0  0  0  0
  192.0580  177.8570  143.6960 O   0  0  0  0  0  1  0  0  0  0  0  0
  191.7910  176.4950  143.5190 C   0  0  0  0  0  2  0  0  0  0  0  0
  194.1140  176.1210  143.2320 O   0  0  0  0  0  0  0  0  0  0  0  0
  196.9820  174.3760  144.5160 C   0  0  0  0  0  0  0  0  0  0  0  0
  197.7080  172.4510  142.9800 C   0  0  1  0  0  3  0  0  0  0  0  0
  196.1800  175.5900  142.1250 C   0  0  1  0  0  3  0  0  0  0  0  0
  197.4960  174.1740  145.6480 O   0  0  0  0  0  0  0  0  0  0  0  0
  197.3360  174.6760  142.0340 N   0  0  1  0  0  0  0  0  0  0  0  0
  195.1280  175.1460  143.1450 C   0  0  1  0  0  3  0  0  0  0  0  0
  197.7230  172.3680  141.4720 C   0  0  0  0  0  2  0  0  0  0  0  0
  195.7380  174.9850  144.4170 O   0  0  0  0  0  0  0  0  0  0  0  0
  197.7110  173.9500  143.2680 C   0  0  1  0  0  3  0  0  0  0  0  0
  197.0870  173.6690  141.0000 C   0  0  2  0  0  3  0  0  0  0  0  0
  196.6310  176.8780  142.4210 O   0  0  0  0  0  1  0  0  0  0  0  0
  196.5420  171.6590  143.6100 C   0  0  1  0  0  3  0  0  0  0  0  0
  195.7250  170.8410  142.6160 C   0  0  0  0  0  1  0  0  0  0  0  0
  197.0160  170.8000  144.7420 C   0  0  0  0  0  3  0  0  0  0  0  0
  197.9400  170.0130  144.5950 O   0  0  0  0  0  0  0  0  0  0  0  0
  197.6540  174.1480  139.6520 C   0  0  2  0  0  3  0  0  0  0  0  0
  197.9340  175.5140  139.7170 O   0  0  0  0  0  1  0  0  0  0  0  0
  197.5230  173.7870  137.2630 O   0  0  0  0  0  1  0  0  0  0  0  0
  196.7590  173.8800  138.4310 C   0  0  2  0  0  3  0  0  0  0  0  0
  194.0290  175.3810  136.6380 N   0  0  0  0  0  0  0  0  0  0  0  0
  193.2790  174.8990  137.7800 C   0  0  0  0  0  2  0  0  0  0  0  0
  191.9320  175.8630  135.2820 C   0  0  0  0  0  1  0  0  0  0  0  0
  195.4640  175.3420  136.8360 C   0  0  0  0  0  2  0  0  0  0  0  0
  194.1270  176.3430  134.5130 O   0  0  0  0  0  0  0  0  0  0  0  0
  195.6630  174.9390  138.2870 C   0  0  1  0  0  3  0  0  0  0  0  0
  194.3160  174.4020  138.7690 C   0  0  0  0  0  2  0  0  0  0  0  0
  193.4150  175.8780  135.4420 C   0  0  0  0  0  0  0  0  0  0  0  0
  192.9620  173.8950  142.0150 C   0  0  0  0  0  2  0  0  0  0  0  0
  191.6590  173.7900  141.2410 C   0  0  0  0  0  2  0  0  0  0  0  0
  189.5940  172.5110  141.7730 C   0  0  0  0  0  3  0  0  0  0  0  0
  190.9270  172.5350  141.6080 C   0  0  0  0  0  0  0  0  0  0  0  0
  188.7110  173.7080  141.5520 C   0  0  0  0  0  2  0  0  0  0  0  0
  187.9710  176.5280  142.7920 C   0  0  1  0  0  3  0  0  0  0  0  0
  189.1330  174.9680  142.3180 C   0  0  2  0  0  3  0  0  0  0  0  0
  188.2800  175.2490  143.5260 C   0  0  0  0  0  2  0  0  0  0  0  0
  188.7330  176.1510  141.6700 O   0  0  0  0  0  0  0  0  0  0  0  0
  186.4950  176.5930  142.4340 C   0  0  0  0  0  2  0  0  0  0  0  0
  186.2510  177.6270  141.3470 C   0  0  0  0  0  2  0  0  0  0  0  0
  182.8220  178.5240  142.1950 N   0  0  0  0  0  2  0  0  0  0  0  0
  183.8430  178.1820  141.2150 C   0  0  0  0  0  2  0  0  0  0  0  0
  185.1760  178.6150  141.7700 C   0  0  1  0  0  3  0  0  0  0  0  0
  184.9900  178.5980  143.2660 C   0  0  1  0  0  3  0  0  0  0  0  0
  185.5920  179.8510  143.8750 C   0  0  0  0  0  1  0  0  0  0  0  0
  183.4910  178.5860  143.4910 C   0  0  0  0  0  2  0  0  0  0  0  0
  191.7590  171.2990  141.8370 C   0  0  1  0  0  3  0  0  0  0  0  0
  191.1120  171.3810  144.1500 O   0  0  0  0  0  1  0  0  0  0  0  0
  192.8760  170.0070  143.6550 O   0  0  0  0  0  0  0  0  0  0  0  0
  191.8860  170.9040  143.2770 C   0  0  0  0  0  0  0  0  0  0  0  0
  191.5260  170.1150  140.8830 C   0  0  2  0  0  3  0  0  0  0  0  0
  190.9340  168.9020  141.5900 C   0  0  0  0  0  1  0  0  0  0  0  0
  193.6190  170.8230  139.9610 O   0  0  0  0  0  1  0  0  0  0  0  0
  192.6950  169.7750  139.9490 C   0  0  2  0  0  3  0  0  0  0  0  0
  192.2580  169.4920  138.5130 C   0  0  0  0  0  2  0  0  0  0  0  0
  190.9250  168.7650  138.4890 C   0  0  0  0  0  2  0  0  0  0  0  0
  189.9680  169.4560  137.5340 C   0  0  0  0  0  2  0  0  0  0  0  0
  190.2330  170.9570  137.4820 C   0  0  0  0  0  2  0  0  0  0  0  0
  189.7320  171.7540  135.1030 C   0  0  0  0  0  1  0  0  0  0  0  0
  189.2850  171.7330  136.5580 C   0  0  2  0  0  3  0  0  0  0  0  0
  189.8920  173.7150  138.0340 C   0  0  0  0  0  1  0  0  0  0  0  0
  188.8670  173.1080  137.0880 C   0  0  0  0  0  2  0  0  0  0  0  0
  2  1  1  6  0  0  0
  2  4  1  0  0  0  0
  4  3  1  0  0  0  0
  4  5  2  0  0  0  0
  7  6  1  0  0  0  0
  7  2  1  0  0  0  0
  8  2  1  0  0  0  0
  9 12  2  0  0  0  0
 10 17  1  0  0  0  0
 10 20  1  6  0  0  0
 11 19  1  1  0  0  0
 11 14  1  0  0  0  0
 13 11  1  0  0  0  0
 13 17  1  0  0  0  0
 14  8  1  0  0  0  0
 14 16  1  0  0  0  0
 15 10  1  0  0  0  0
 16  9  1  0  0  0  0
 17  9  1  0  0  0  0
 18 15  1  0  0  0  0
 18 13  1  0  0  0  0
 20 22  1  0  0  0  0
 21 20  1  0  0  0  0
 23 22  2  0  0  0  0
 24 25  1  0  0  0  0
 24 18  1  0  0  0  0
 26 27  1  0  0  0  0
 27 24  1  0  0  0  0
 28 31  1  0  0  0  0
 28 29  1  0  0  0  0
 29 34  1  0  0  0  0
 30 35  1  0  0  0  0
 31 33  1  0  0  0  0
 32 35  2  0  0  0  0
 33 27  1  0  0  0  0
 33 34  1  0  0  0  0
 35 28  1  0  0  0  0
 36  1  1  0  0  0  0
 37 39  1  0  0  0  0
 37 36  1  0  0  0  0
 39 38  2  0  0  0  0
 39 53  1  0  0  0  0
 40 38  1  0  0  0  0
 40 42  1  0  0  0  0
 41 43  1  0  0  0  0
 42 43  1  0  0  0  0
 44 42  1  0  0  0  0
 44 41  1  0  0  0  0
 45 41  1  0  0  0  0
 46 49  1  0  0  0  0
 46 45  1  0  0  0  0
 47 52  1  0  0  0  0
 48 49  1  0  0  0  0
 48 47  1  0  0  0  0
 49 50  1  0  0  0  0
 50 52  1  0  0  0  0
 50 51  1  0  0  0  0
 53 56  1  0  0  0  0
 56 55  2  0  0  0  0
 56 54  1  0  0  0  0
 57 58  1  0  0  0  0
 57 53  1  0  0  0  0
 60 59  1  0  0  0  0
 60 57  1  0  0  0  0
 61 60  1  0  0  0  0
 62 61  1  0  0  0  0
 63 62  1  0  0  0  0
 64 63  1  0  0  0  0
 65 66  1  0  0  0  0
 66 68  1  0  0  0  0
 66 64  1  0  0  0  0
 68 67  1  0  0  0  0
M  END
>  <MODEL>
5

>  <REMARK>
 VINA RESULT:      -4.3      2.983      9.114
  Name = 
  28 active torsions:
  status: ('A' for Active; 'I' for Inactive)
    1  A    between atoms: C_2  and  C_22
    2  A    between atoms: C_2  and  C_28
    3  A    between atoms: C_3  and  C_33
    4  A    between atoms: C_7  and  C_22
    5  A    between atoms: C_10  and  C_62
    6  A    between atoms: C_12  and  C_50
    7  A    between atoms: C_12  and  C_53
    8  A    between atoms: C_14  and  C_32
    9  A    between atoms: C_14  and  C_51
   10  A    between atoms: C_15  and  C_56
   11  A    between atoms: C_15  and  C_63
   12  A    between atoms: O_20  and  C_24
   13  A    between atoms: O_20  and  C_62
   14  A    between atoms: C_21  and  C_57
   15  A    between atoms: C_21  and  C_66
   16  A    between atoms: C_23  and  C_47
   17  A    between atoms: C_23  and  C_53
   18  A    between atoms: C_25  and  C_52
   19  A    between atoms: C_27  and  C_62
   20  A    between atoms: C_29  and  C_33
   21  A    between atoms: C_32  and  C_50
   22  A    between atoms: C_36  and  C_52
   23  A    between atoms: C_37  and  C_51
   24  A    between atoms: C_38  and  C_62
   25  A    between atoms: C_38  and  C_66
   26  A    between atoms: C_46  and  C_56
   27  A    between atoms: C_47  and  C_57
   28  A    between atoms: C_47  and  C_58
                            x       y       z     vdW  Elec       q    Type
                         _______ _______ _______ _____ _____    ______ ____

>  <TORSDO>
F 28

$$$$
=
 OpenBabel11062421053D

 68 72  0  0  1  0  0  0  0  0999 V2000
  192.7150  171.9900  142.4110 C   0  0  0  0  0  2  0  0  0  0  0  0
  193.2200  170.7130  141.6830 C   0  0  2  0  0  0  0  0  0  0  0  0
  192.3350  169.1210  139.9400 O   0  0  0  0  0  1  0  0  0  0  0  0
  192.4880  170.4340  140.3700 C   0  0  0  0  0  0  0  0  0  0  0  0
  192.0400  171.4070  139.5840 C   0  0  0  0  0  2  0  0  0  0  0  0
  194.2010  168.9150  142.9870 O   0  0  0  0  0  1  0  0  0  0  0  0
  192.9930  169.5230  142.6260 C   0  0  0  0  0  2  0  0  0  0  0  0
  194.6200  170.8000  141.4670 O   0  0  0  0  0  0  0  0  0  0  0  0
  196.3390  169.3110  138.6830 C   0  0  0  0  0  0  0  0  0  0  0  0
  195.6220  170.3430  136.4430 C   0  0  1  0  0  3  0  0  0  0  0  0
  195.8310  171.8730  139.6890 C   0  0  1  0  0  3  0  0  0  0  0  0
  196.8850  168.2040  138.4350 O   0  0  0  0  0  0  0  0  0  0  0  0
  196.2900  171.8050  138.2880 N   0  0  1  0  0  0  0  0  0  0  0  0
  194.9320  170.7020  140.0960 C   0  0  1  0  0  3  0  0  0  0  0  0
  195.2890  171.7750  136.1000 C   0  0  0  0  0  2  0  0  0  0  0  0
  195.6080  169.4780  139.8520 O   0  0  0  0  0  0  0  0  0  0  0  0
  196.4690  170.4530  137.7100 C   0  0  1  0  0  3  0  0  0  0  0  0
  195.3490  172.5220  137.4250 C   0  0  2  0  0  3  0  0  0  0  0  0
  196.9380  171.9530  140.5360 O   0  0  0  0  0  1  0  0  0  0  0  0
  194.3690  169.4490  136.5620 C   0  0  1  0  0  3  0  0  0  0  0  0
  193.0540  170.1660  136.2770 C   0  0  0  0  0  1  0  0  0  0  0  0
  194.4970  168.2170  135.7190 C   0  0  0  0  0  3  0  0  0  0  0  0
  194.8960  168.2780  134.5660 O   0  0  0  0  0  0  0  0  0  0  0  0
  195.8000  173.9840  137.2580 C   0  0  2  0  0  3  0  0  0  0  0  0
  196.4290  174.4200  138.4250 O   0  0  0  0  0  1  0  0  0  0  0  0
  194.3040  175.7330  138.0080 O   0  0  0  0  0  1  0  0  0  0  0  0
  194.6830  174.9760  136.8930 C   0  0  2  0  0  3  0  0  0  0  0  0
  191.1430  174.4080  136.6360 N   0  0  0  0  0  0  0  0  0  0  0  0
  191.3480  174.9920  135.3270 C   0  0  0  0  0  2  0  0  0  0  0  0
  188.6120  174.6140  136.4900 C   0  0  0  0  0  1  0  0  0  0  0  0
  192.3760  174.0400  137.3020 C   0  0  0  0  0  2  0  0  0  0  0  0
  189.7390  173.6110  138.3230 O   0  0  0  0  0  0  0  0  0  0  0  0
  193.4740  174.2680  136.2760 C   0  0  1  0  0  3  0  0  0  0  0  0
  192.8510  175.1160  135.1670 C   0  0  0  0  0  2  0  0  0  0  0  0
  189.8470  174.1840  137.2070 C   0  0  0  0  0  0  0  0  0  0  0  0
  192.7570  171.8960  143.9350 C   0  0  0  0  0  2  0  0  0  0  0  0
  191.4420  172.3720  144.5270 C   0  0  0  0  0  2  0  0  0  0  0  0
  191.0940  174.7640  145.1100 C   0  0  0  0  0  3  0  0  0  0  0  0
  191.1920  173.8070  144.1730 C   0  0  0  0  0  0  0  0  0  0  0  0
  191.2810  174.5070  146.5800 C   0  0  0  0  0  2  0  0  0  0  0  0
  188.8570  176.4950  147.0330 C   0  0  1  0  0  3  0  0  0  0  0  0
  190.1490  175.0310  147.4720 C   0  0  2  0  0  3  0  0  0  0  0  0
  188.7990  175.0070  146.8070 C   0  0  0  0  0  2  0  0  0  0  0  0
  190.1520  176.4340  147.5780 O   0  0  0  0  0  0  0  0  0  0  0  0
  188.8720  177.2360  145.7050 C   0  0  0  0  0  2  0  0  0  0  0  0
  187.5080  177.1700  145.0380 C   0  0  0  0  0  2  0  0  0  0  0  0
  184.6000  179.3270  144.6180 N   0  0  0  0  0  2  0  0  0  0  0  0
  185.8500  178.7660  144.1260 C   0  0  0  0  0  2  0  0  0  0  0  0
  186.7050  178.4300  145.3220 C   0  0  1  0  0  3  0  0  0  0  0  0
  185.7210  178.1990  146.4410 C   0  0  1  0  0  3  0  0  0  0  0  0
  186.2010  178.8950  147.7010 C   0  0  0  0  0  1  0  0  0  0  0  0
  184.4200  178.8200  145.9740 C   0  0  0  0  0  2  0  0  0  0  0  0
  191.0020  174.1290  142.7130 C   0  0  1  0  0  3  0  0  0  0  0  0
  189.1830  172.8670  141.7800 O   0  0  0  0  0  0  0  0  0  0  0  0
  188.7310  175.0580  142.2670 O   0  0  0  0  0  1  0  0  0  0  0  0
  189.5930  173.9710  142.2290 C   0  0  0  0  0  0  0  0  0  0  0  0
  191.7090  175.3860  142.1780 C   0  0  2  0  0  3  0  0  0  0  0  0
  193.0890  175.0820  141.6070 C   0  0  0  0  0  1  0  0  0  0  0  0
  190.8770  177.6020  142.5360 O   0  0  0  0  0  1  0  0  0  0  0  0
  191.6800  176.6100  143.1040 C   0  0  2  0  0  3  0  0  0  0  0  0
  193.0670  177.1760  143.3990 C   0  0  0  0  0  2  0  0  0  0  0  0
  193.2990  177.2830  144.8960 C   0  0  0  0  0  2  0  0  0  0  0  0
  194.6680  176.7330  145.2560 C   0  0  0  0  0  2  0  0  0  0  0  0
  195.4680  176.3910  144.0040 C   0  0  0  0  0  2  0  0  0  0  0  0
  197.2960  174.9360  142.9620 C   0  0  0  0  0  1  0  0  0  0  0  0
  196.3700  175.1590  144.1490 C   0  0  2  0  0  3  0  0  0  0  0  0
  196.1810  173.3310  145.9100 C   0  0  0  0  0  1  0  0  0  0  0  0
  195.6420  173.8890  144.6020 C   0  0  0  0  0  2  0  0  0  0  0  0
  1 36  1  0  0  0  0
  2  1  1  1  0  0  0
  2  7  1  0  0  0  0
  3  4  1  0  0  0  0
  4  2  1  0  0  0  0
  5  4  2  0  0  0  0
  7  6  1  0  0  0  0
  8  2  1  0  0  0  0
  9 16  1  0  0  0  0
 10 20  1  1  0  0  0
 10 17  1  0  0  0  0
 11 14  1  0  0  0  0
 11 19  1  1  0  0  0
 12  9  2  0  0  0  0
 13 11  1  0  0  0  0
 14  8  1  0  0  0  0
 15 10  1  0  0  0  0
 15 18  1  0  0  0  0
 16 14  1  0  0  0  0
 17 13  1  0  0  0  0
 17  9  1  0  0  0  0
 18 13  1  0  0  0  0
 21 20  1  0  0  0  0
 22 20  1  0  0  0  0
 23 22  2  0  0  0  0
 24 18  1  0  0  0  0
 24 25  1  0  0  0  0
 27 24  1  0  0  0  0
 27 26  1  0  0  0  0
 28 35  1  0  0  0  0
 28 31  1  0  0  0  0
 29 28  1  0  0  0  0
 30 35  1  0  0  0  0
 33 27  1  0  0  0  0
 33 31  1  0  0  0  0
 34 29  1  0  0  0  0
 34 33  1  0  0  0  0
 35 32  2  0  0  0  0
 36 37  1  0  0  0  0
 38 40  1  0  0  0  0
 39 37  1  0  0  0  0
 39 38  2  0  0  0  0
 40 42  1  0  0  0  0
 41 44  1  0  0  0  0
 42 44  1  0  0  0  0
 43 41  1  0  0  0  0
 43 42  1  0  0  0  0
 45 41  1  0  0  0  0
 46 49  1  0  0  0  0
 46 45  1  0  0  0  0
 47 52  1  0  0  0  0
 48 47  1  0  0  0  0
 48 49  1  0  0  0  0
 49 50  1  0  0  0  0
 50 51  1  0  0  0  0
 52 50  1  0  0  0  0
 53 39  1  0  0  0  0
 54 56  2  0  0  0  0
 56 55  1  0  0  0  0
 56 53  1  0  0  0  0
 57 53  1  0  0  0  0
 57 60  1  0  0  0  0
 58 57  1  0  0  0  0
 59 60  1  0  0  0  0
 60 61  1  0  0  0  0
 61 62  1  0  0  0  0
 62 63  1  0  0  0  0
 64 66  1  0  0  0  0
 64 63  1  0  0  0  0
 65 66  1  0  0  0  0
 66 68  1  0  0  0  0
 68 67  1  0  0  0  0
M  END
>  <MODEL>
6

>  <REMARK>
 VINA RESULT:      -3.6      2.609      7.488
  Name = 
  28 active torsions:
  status: ('A' for Active; 'I' for Inactive)
    1  A    between atoms: C_2  and  C_22
    2  A    between atoms: C_2  and  C_28
    3  A    between atoms: C_3  and  C_33
    4  A    between atoms: C_7  and  C_22
    5  A    between atoms: C_10  and  C_62
    6  A    between atoms: C_12  and  C_50
    7  A    between atoms: C_12  and  C_53
    8  A    between atoms: C_14  and  C_32
    9  A    between atoms: C_14  and  C_51
   10  A    between atoms: C_15  and  C_56
   11  A    between atoms: C_15  and  C_63
   12  A    between atoms: O_20  and  C_24
   13  A    between atoms: O_20  and  C_62
   14  A    between atoms: C_21  and  C_57
   15  A    between atoms: C_21  and  C_66
   16  A    between atoms: C_23  and  C_47
   17  A    between atoms: C_23  and  C_53
   18  A    between atoms: C_25  and  C_52
   19  A    between atoms: C_27  and  C_62
   20  A    between atoms: C_29  and  C_33
   21  A    between atoms: C_32  and  C_50
   22  A    between atoms: C_36  and  C_52
   23  A    between atoms: C_37  and  C_51
   24  A    between atoms: C_38  and  C_62
   25  A    between atoms: C_38  and  C_66
   26  A    between atoms: C_46  and  C_56
   27  A    between atoms: C_47  and  C_57
   28  A    between atoms: C_47  and  C_58
                            x       y       z     vdW  Elec       q    Type
                         _______ _______ _______ _____ _____    ______ ____

>  <TORSDO>
F 28

$$$$
=
 OpenBabel11062421053D

 68 72  0  0  1  0  0  0  0  0999 V2000
  193.2080  173.8250  142.0160 C   0  0  0  0  0  2  0  0  0  0  0  0
  191.6750  174.0650  141.9330 C   0  0  2  0  0  0  0  0  0  0  0  0
  189.8420  174.0970  140.2010 O   0  0  0  0  0  1  0  0  0  0  0  0
  191.0530  173.5640  140.6290 C   0  0  0  0  0  0  0  0  0  0  0  0
  191.5960  172.5870  139.9100 C   0  0  0  0  0  2  0  0  0  0  0  0
  192.3340  176.1830  142.9210 O   0  0  0  0  0  1  0  0  0  0  0  0
  191.4390  175.5780  142.0310 C   0  0  0  0  0  2  0  0  0  0  0  0
  191.0310  173.4790  143.0530 O   0  0  0  0  0  0  0  0  0  0  0  0
  189.2020  174.5580  145.9530 C   0  0  0  0  0  0  0  0  0  0  0  0
  188.6430  177.0630  145.8650 C   0  0  1  0  0  3  0  0  0  0  0  0
  188.9680  174.7090  143.1680 C   0  0  1  0  0  3  0  0  0  0  0  0
  189.0870  174.1840  147.1510 O   0  0  0  0  0  0  0  0  0  0  0  0
  188.1260  175.6410  143.9420 N   0  0  1  0  0  0  0  0  0  0  0  0
  190.3360  174.4470  143.8060 C   0  0  1  0  0  3  0  0  0  0  0  0
  188.2450  177.9250  144.6900 C   0  0  0  0  0  2  0  0  0  0  0  0
  190.1580  173.9750  145.1330 O   0  0  0  0  0  0  0  0  0  0  0  0
  188.3090  175.6430  145.4110 C   0  0  1  0  0  3  0  0  0  0  0  0
  188.3510  177.0110  143.4770 C   0  0  2  0  0  3  0  0  0  0  0  0
  188.2800  173.5080  142.9830 O   0  0  0  0  0  1  0  0  0  0  0  0
  190.1050  177.2890  146.3050 C   0  0  1  0  0  3  0  0  0  0  0  0
  190.9460  178.0840  145.3130 C   0  0  0  0  0  1  0  0  0  0  0  0
  190.1750  177.9000  147.6710 C   0  0  0  0  0  3  0  0  0  0  0  0
  190.9020  177.4350  148.5360 O   0  0  0  0  0  0  0  0  0  0  0  0
  187.3340  177.3680  142.3790 C   0  0  2  0  0  3  0  0  0  0  0  0
  187.9670  178.0910  141.3660 O   0  0  0  0  0  1  0  0  0  0  0  0
  186.0200  178.1500  144.2550 O   0  0  0  0  0  1  0  0  0  0  0  0
  186.1020  178.1540  142.8580 C   0  0  2  0  0  3  0  0  0  0  0  0
  182.7260  178.6060  141.7080 N   0  0  0  0  0  0  0  0  0  0  0  0
  183.3430  178.3450  140.4240 C   0  0  0  0  0  2  0  0  0  0  0  0
  180.5640  179.4410  140.6620 C   0  0  0  0  0  1  0  0  0  0  0  0
  183.5830  178.2880  142.8320 C   0  0  0  0  0  2  0  0  0  0  0  0
  180.8920  179.2410  143.0050 O   0  0  0  0  0  0  0  0  0  0  0  0
  184.8100  177.6220  142.2310 C   0  0  1  0  0  3  0  0  0  0  0  0
  184.7650  177.9200  140.7330 C   0  0  0  0  0  2  0  0  0  0  0  0
  181.3890  179.0990  141.8560 C   0  0  0  0  0  0  0  0  0  0  0  0
  193.5990  172.3650  142.2320 C   0  0  0  0  0  2  0  0  0  0  0  0
  194.4740  171.8800  141.0890 C   0  0  0  0  0  2  0  0  0  0  0  0
  196.9420  171.8180  141.3860 C   0  0  0  0  0  3  0  0  0  0  0  0
  195.7380  171.2680  141.6130 C   0  0  0  0  0  0  0  0  0  0  0  0
  197.1360  173.1130  140.6470 C   0  0  0  0  0  2  0  0  0  0  0  0
  196.5090  172.7850  137.5590 C   0  0  1  0  0  3  0  0  0  0  0  0
  197.6350  172.9590  139.2050 C   0  0  2  0  0  3  0  0  0  0  0  0
  197.0740  173.9910  138.2630 C   0  0  0  0  0  2  0  0  0  0  0  0
  197.0100  171.8960  138.5280 O   0  0  0  0  0  0  0  0  0  0  0  0
  194.9890  172.8100  137.5940 C   0  0  0  0  0  2  0  0  0  0  0  0
  194.4180  171.4970  137.0860 C   0  0  0  0  0  2  0  0  0  0  0  0
  191.4220  170.7130  135.1640 N   0  0  0  0  0  2  0  0  0  0  0  0
  192.7980  170.4310  135.5470 C   0  0  0  0  0  2  0  0  0  0  0  0
  193.4400  171.7360  135.9470 C   0  0  1  0  0  3  0  0  0  0  0  0
  192.2910  172.6020  136.3990 C   0  0  1  0  0  3  0  0  0  0  0  0
  192.4380  173.9970  135.8210 C   0  0  0  0  0  1  0  0  0  0  0  0
  191.0420  171.9450  135.8460 C   0  0  0  0  0  2  0  0  0  0  0  0
  195.6070  169.9710  142.3690 C   0  0  1  0  0  3  0  0  0  0  0  0
  194.0770  168.1660  141.9510 O   0  0  0  0  0  1  0  0  0  0  0  0
  195.6710  168.5170  140.3440 O   0  0  0  0  0  0  0  0  0  0  0  0
  195.0670  168.8370  141.5520 C   0  0  0  0  0  0  0  0  0  0  0  0
  196.7770  169.5780  143.2870 C   0  0  2  0  0  3  0  0  0  0  0  0
  197.2860  168.1670  143.0130 C   0  0  0  0  0  1  0  0  0  0  0  0
  195.2210  169.9890  145.0580 O   0  0  0  0  0  1  0  0  0  0  0  0
  196.5860  169.8860  144.7780 C   0  0  2  0  0  3  0  0  0  0  0  0
  197.3020  171.1580  145.2290 C   0  0  0  0  0  2  0  0  0  0  0  0
  196.4650  172.3870  144.9180 C   0  0  0  0  0  2  0  0  0  0  0  0
  196.8680  173.5380  145.8220 C   0  0  0  0  0  2  0  0  0  0  0  0
  196.8580  174.8610  145.0640 C   0  0  0  0  0  2  0  0  0  0  0  0
  195.4610  176.7410  144.0360 C   0  0  0  0  0  1  0  0  0  0  0  0
  195.4560  175.4290  144.8060 C   0  0  2  0  0  3  0  0  0  0  0  0
  194.2120  176.8540  146.5090 C   0  0  0  0  0  1  0  0  0  0  0  0
  194.5420  175.4470  146.0370 C   0  0  0  0  0  2  0  0  0  0  0  0
  1 36  1  0  0  0  0
  2  1  1  1  0  0  0
  2  7  1  0  0  0  0
  2  8  1  0  0  0  0
  3  4  1  0  0  0  0
  4  2  1  0  0  0  0
  5  4  2  0  0  0  0
  7  6  1  0  0  0  0
  8 14  1  0  0  0  0
  9 12  2  0  0  0  0
 10 20  1  6  0  0  0
 11 19  1  1  0  0  0
 11 14  1  0  0  0  0
 11 13  1  0  0  0  0
 13 17  1  0  0  0  0
 14 16  1  0  0  0  0
 15 10  1  0  0  0  0
 16  9  1  0  0  0  0
 17 10  1  0  0  0  0
 17  9  1  0  0  0  0
 18 13  1  0  0  0  0
 18 15  1  0  0  0  0
 20 22  1  0  0  0  0
 21 20  1  0  0  0  0
 22 23  2  0  0  0  0
 24 27  1  0  0  0  0
 24 18  1  0  0  0  0
 25 24  1  0  0  0  0
 27 26  1  0  0  0  0
 28 35  1  0  0  0  0
 28 31  1  0  0  0  0
 29 34  1  0  0  0  0
 29 28  1  0  0  0  0
 30 35  1  0  0  0  0
 33 31  1  0  0  0  0
 33 27  1  0  0  0  0
 34 33  1  0  0  0  0
 35 32  2  0  0  0  0
 37 39  1  0  0  0  0
 37 36  1  0  0  0  0
 38 39  2  0  0  0  0
 39 53  1  0  0  0  0
 40 38  1  0  0  0  0
 41 45  1  0  0  0  0
 41 43  1  0  0  0  0
 41 44  1  0  0  0  0
 42 40  1  0  0  0  0
 43 42  1  0  0  0  0
 44 42  1  0  0  0  0
 46 45  1  0  0  0  0
 47 48  1  0  0  0  0
 47 52  1  0  0  0  0
 48 49  1  0  0  0  0
 49 50  1  0  0  0  0
 49 46  1  0  0  0  0
 51 50  1  0  0  0  0
 52 50  1  0  0  0  0
 53 57  1  0  0  0  0
 55 56  2  0  0  0  0
 56 54  1  0  0  0  0
 56 53  1  0  0  0  0
 57 60  1  0  0  0  0
 58 57  1  0  0  0  0
 60 59  1  0  0  0  0
 60 61  1  0  0  0  0
 62 61  1  0  0  0  0
 62 63  1  0  0  0  0
 64 63  1  0  0  0  0
 65 66  1  0  0  0  0
 66 64  1  0  0  0  0
 66 68  1  0  0  0  0
 68 67  1  0  0  0  0
M  END
>  <MODEL>
7

>  <REMARK>
 VINA RESULT:      -3.3      3.011     10.447
  Name = 
  28 active torsions:
  status: ('A' for Active; 'I' for Inactive)
    1  A    between atoms: C_2  and  C_22
    2  A    between atoms: C_2  and  C_28
    3  A    between atoms: C_3  and  C_33
    4  A    between atoms: C_7  and  C_22
    5  A    between atoms: C_10  and  C_62
    6  A    between atoms: C_12  and  C_50
    7  A    between atoms: C_12  and  C_53
    8  A    between atoms: C_14  and  C_32
    9  A    between atoms: C_14  and  C_51
   10  A    between atoms: C_15  and  C_56
   11  A    between atoms: C_15  and  C_63
   12  A    between atoms: O_20  and  C_24
   13  A    between atoms: O_20  and  C_62
   14  A    between atoms: C_21  and  C_57
   15  A    between atoms: C_21  and  C_66
   16  A    between atoms: C_23  and  C_47
   17  A    between atoms: C_23  and  C_53
   18  A    between atoms: C_25  and  C_52
   19  A    between atoms: C_27  and  C_62
   20  A    between atoms: C_29  and  C_33
   21  A    between atoms: C_32  and  C_50
   22  A    between atoms: C_36  and  C_52
   23  A    between atoms: C_37  and  C_51
   24  A    between atoms: C_38  and  C_62
   25  A    between atoms: C_38  and  C_66
   26  A    between atoms: C_46  and  C_56
   27  A    between atoms: C_47  and  C_57
   28  A    between atoms: C_47  and  C_58
                            x       y       z     vdW  Elec       q    Type
                         _______ _______ _______ _____ _____    ______ ____

>  <TORSDO>
F 28

$$$$
=
 OpenBabel11062421053D

 68 72  0  0  1  0  0  0  0  0999 V2000
  191.3780  174.8170  144.0940 C   0  0  0  0  0  2  0  0  0  0  0  0
  191.8250  175.8800  145.1370 C   0  0  2  0  0  0  0  0  0  0  0  0
  191.8040  176.1840  147.6390 O   0  0  0  0  0  1  0  0  0  0  0  0
  191.9420  175.3240  146.5560 C   0  0  0  0  0  0  0  0  0  0  0  0
  192.2320  174.0500  146.8000 C   0  0  0  0  0  2  0  0  0  0  0  0
  191.3060  178.2090  144.6870 O   0  0  0  0  0  1  0  0  0  0  0  0
  190.7720  176.9960  145.1390 C   0  0  0  0  0  2  0  0  0  0  0  0
  193.0480  176.4740  144.7300 O   0  0  0  0  0  0  0  0  0  0  0  0
  195.9030  174.4800  145.6160 C   0  0  0  0  0  0  0  0  0  0  0  0
  196.5030  172.7840  143.7840 C   0  0  1  0  0  3  0  0  0  0  0  0
  195.0510  176.0570  143.4670 C   0  0  1  0  0  3  0  0  0  0  0  0
  196.4530  174.0970  146.6830 O   0  0  0  0  0  0  0  0  0  0  0  0
  196.1700  175.1350  143.1920 N   0  0  1  0  0  0  0  0  0  0  0  0
  194.0240  175.4950  144.4560 C   0  0  1  0  0  3  0  0  0  0  0  0
  196.4570  172.9260  142.2810 C   0  0  0  0  0  2  0  0  0  0  0  0
  194.6780  175.1310  145.6620 O   0  0  0  0  0  0  0  0  0  0  0  0
  196.5690  174.2240  144.2900 C   0  0  1  0  0  3  0  0  0  0  0  0
  195.8480  174.3000  142.0340 C   0  0  2  0  0  3  0  0  0  0  0  0
  195.5560  177.2730  143.9300 O   0  0  0  0  0  1  0  0  0  0  0  0
  195.3370  171.9400  144.3410 C   0  0  1  0  0  3  0  0  0  0  0  0
  194.0870  171.9390  143.4680 C   0  0  0  0  0  1  0  0  0  0  0  0
  195.7740  170.5400  144.6450 C   0  0  0  0  0  3  0  0  0  0  0  0
  195.7050  169.6580  143.8020 O   0  0  0  0  0  0  0  0  0  0  0  0
  196.3790  174.9580  140.7480 C   0  0  2  0  0  3  0  0  0  0  0  0
  197.3460  175.9110  141.0700 O   0  0  0  0  0  1  0  0  0  0  0  0
  194.0910  175.7210  140.5390 O   0  0  0  0  0  1  0  0  0  0  0  0
  195.3100  175.6140  139.8580 C   0  0  2  0  0  3  0  0  0  0  0  0
  196.5510  174.4670  136.6860 N   0  0  0  0  0  0  0  0  0  0  0  0
  196.4090  173.1750  137.3260 C   0  0  0  0  0  2  0  0  0  0  0  0
  197.9280  173.5260  134.7660 C   0  0  0  0  0  1  0  0  0  0  0  0
  195.8950  175.5390  137.4060 C   0  0  0  0  0  2  0  0  0  0  0  0
  197.2710  175.8030  134.9120 O   0  0  0  0  0  0  0  0  0  0  0  0
  195.1340  174.8640  138.5350 C   0  0  1  0  0  3  0  0  0  0  0  0
  195.6890  173.4440  138.6330 C   0  0  0  0  0  2  0  0  0  0  0  0
  197.2430  174.6630  135.4460 C   0  0  0  0  0  0  0  0  0  0  0  0
  191.7250  175.1760  142.6510 C   0  0  0  0  0  2  0  0  0  0  0  0
  190.4610  175.4850  141.8670 C   0  0  0  0  0  2  0  0  0  0  0  0
  188.3840  174.1230  141.7630 C   0  0  0  0  0  3  0  0  0  0  0  0
  189.7080  174.2260  141.5620 C   0  0  0  0  0  0  0  0  0  0  0  0
  187.5280  175.2580  142.2500 C   0  0  0  0  0  2  0  0  0  0  0  0
  186.6290  178.2490  141.7150 C   0  0  1  0  0  3  0  0  0  0  0  0
  187.6580  176.5540  141.4390 C   0  0  2  0  0  3  0  0  0  0  0  0
  187.9380  177.7670  142.2860 C   0  0  0  0  0  2  0  0  0  0  0  0
  186.4130  177.0490  141.0120 O   0  0  0  0  0  0  0  0  0  0  0  0
  185.5960  178.4140  142.8180 C   0  0  0  0  0  2  0  0  0  0  0  0
  186.1380  179.2900  143.9350 C   0  0  0  0  0  2  0  0  0  0  0  0
  184.0360  177.4330  146.2620 N   0  0  0  0  0  2  0  0  0  0  0  0
  184.3420  178.6410  145.5090 C   0  0  0  0  0  2  0  0  0  0  0  0
  185.8340  178.6830  145.2950 C   0  0  1  0  0  3  0  0  0  0  0  0
  186.2670  177.2400  145.3480 C   0  0  1  0  0  3  0  0  0  0  0  0
  187.5200  177.1070  146.1930 C   0  0  0  0  0  1  0  0  0  0  0  0
  185.1230  176.4940  146.0050 C   0  0  0  0  0  2  0  0  0  0  0  0
  190.5110  173.0530  141.0630 C   0  0  1  0  0  3  0  0  0  0  0  0
  189.7600  171.7680  142.9500 O   0  0  0  0  0  1  0  0  0  0  0  0
  190.4920  170.5600  141.1470 O   0  0  0  0  0  0  0  0  0  0  0  0
  190.2270  171.7670  141.7790 C   0  0  0  0  0  0  0  0  0  0  0  0
  190.6520  172.9000  139.5390 C   0  0  2  0  0  3  0  0  0  0  0  0
  191.5000  174.0040  138.9170 C   0  0  0  0  0  1  0  0  0  0  0  0
  188.2650  173.0770  139.5260 O   0  0  0  0  0  1  0  0  0  0  0  0
  189.3510  172.6180  138.7760 C   0  0  2  0  0  3  0  0  0  0  0  0
  189.1570  171.1400  138.4400 C   0  0  0  0  0  2  0  0  0  0  0  0
  190.1670  170.6860  137.4020 C   0  0  0  0  0  2  0  0  0  0  0  0
  191.1820  169.7490  138.0330 C   0  0  0  0  0  2  0  0  0  0  0  0
  192.6070  170.2060  137.7420 C   0  0  0  0  0  2  0  0  0  0  0  0
  193.4490  168.6880  135.8620 C   0  0  0  0  0  1  0  0  0  0  0  0
  193.0170  170.0900  136.2670 C   0  0  2  0  0  3  0  0  0  0  0  0
  193.2610  172.3260  135.0770 C   0  0  0  0  0  1  0  0  0  0  0  0
  193.9740  171.1860  135.7870 C   0  0  0  0  0  2  0  0  0  0  0  0
  2  1  1  6  0  0  0
  2  7  1  0  0  0  0
  2  4  1  0  0  0  0
  4  5  2  0  0  0  0
  4  3  1  0  0  0  0
  6  7  1  0  0  0  0
  8  2  1  0  0  0  0
  9 16  1  0  0  0  0
  9 12  2  0  0  0  0
 10 17  1  0  0  0  0
 10 20  1  1  0  0  0
 11 19  1  1  0  0  0
 11 14  1  0  0  0  0
 13 11  1  0  0  0  0
 13 17  1  0  0  0  0
 14  8  1  0  0  0  0
 14 16  1  0  0  0  0
 15 10  1  0  0  0  0
 17  9  1  0  0  0  0
 18 15  1  0  0  0  0
 18 13  1  0  0  0  0
 20 22  1  0  0  0  0
 21 20  1  0  0  0  0
 23 22  2  0  0  0  0
 24 25  1  0  0  0  0
 24 18  1  0  0  0  0
 27 26  1  0  0  0  0
 27 24  1  0  0  0  0
 28 29  1  0  0  0  0
 28 31  1  0  0  0  0
 29 34  1  0  0  0  0
 30 35  1  0  0  0  0
 31 33  1  0  0  0  0
 32 35  2  0  0  0  0
 33 34  1  0  0  0  0
 33 27  1  0  0  0  0
 35 28  1  0  0  0  0
 36  1  1  0  0  0  0
 37 36  1  0  0  0  0
 38 40  1  0  0  0  0
 39 38  2  0  0  0  0
 39 37  1  0  0  0  0
 41 43  1  0  0  0  0
 41 45  1  0  0  0  0
 42 40  1  0  0  0  0
 42 43  1  0  0  0  0
 44 42  1  0  0  0  0
 44 41  1  0  0  0  0
 45 46  1  0  0  0  0
 46 49  1  0  0  0  0
 48 47  1  0  0  0  0
 49 50  1  0  0  0  0
 49 48  1  0  0  0  0
 50 52  1  0  0  0  0
 50 51  1  0  0  0  0
 52 47  1  0  0  0  0
 53 39  1  0  0  0  0
 53 56  1  0  0  0  0
 55 56  2  0  0  0  0
 56 54  1  0  0  0  0
 57 53  1  0  0  0  0
 58 57  1  0  0  0  0
 60 59  1  0  0  0  0
 60 57  1  0  0  0  0
 61 60  1  0  0  0  0
 62 63  1  0  0  0  0
 62 61  1  0  0  0  0
 64 63  1  0  0  0  0
 65 66  1  0  0  0  0
 66 64  1  0  0  0  0
 67 68  1  0  0  0  0
 68 66  1  0  0  0  0
M  END
>  <MODEL>
8

>  <REMARK>
 VINA RESULT:      -3.3      2.946      9.111
  Name = 
  28 active torsions:
  status: ('A' for Active; 'I' for Inactive)
    1  A    between atoms: C_2  and  C_22
    2  A    between atoms: C_2  and  C_28
    3  A    between atoms: C_3  and  C_33
    4  A    between atoms: C_7  and  C_22
    5  A    between atoms: C_10  and  C_62
    6  A    between atoms: C_12  and  C_50
    7  A    between atoms: C_12  and  C_53
    8  A    between atoms: C_14  and  C_32
    9  A    between atoms: C_14  and  C_51
   10  A    between atoms: C_15  and  C_56
   11  A    between atoms: C_15  and  C_63
   12  A    between atoms: O_20  and  C_24
   13  A    between atoms: O_20  and  C_62
   14  A    between atoms: C_21  and  C_57
   15  A    between atoms: C_21  and  C_66
   16  A    between atoms: C_23  and  C_47
   17  A    between atoms: C_23  and  C_53
   18  A    between atoms: C_25  and  C_52
   19  A    between atoms: C_27  and  C_62
   20  A    between atoms: C_29  and  C_33
   21  A    between atoms: C_32  and  C_50
   22  A    between atoms: C_36  and  C_52
   23  A    between atoms: C_37  and  C_51
   24  A    between atoms: C_38  and  C_62
   25  A    between atoms: C_38  and  C_66
   26  A    between atoms: C_46  and  C_56
   27  A    between atoms: C_47  and  C_57
   28  A    between atoms: C_47  and  C_58
                            x       y       z     vdW  Elec       q    Type
                         _______ _______ _______ _____ _____    ______ ____

>  <TORSDO>
F 28

$$$$
=
 OpenBabel11062421053D

 68 72  0  0  1  0  0  0  0  0999 V2000
  193.9980  174.3430  141.3630 C   0  0  0  0  0  2  0  0  0  0  0  0
  194.6860  173.7120  140.1200 C   0  0  2  0  0  0  0  0  0  0  0  0
  196.6470  175.2920  140.0170 O   0  0  0  0  0  1  0  0  0  0  0  0
  196.1890  173.9800  140.0580 C   0  0  0  0  0  0  0  0  0  0  0  0
  197.0850  173.0010  139.9780 C   0  0  0  0  0  2  0  0  0  0  0  0
  194.3360  175.6830  138.7450 O   0  0  0  0  0  1  0  0  0  0  0  0
  194.0330  174.3220  138.8720 C   0  0  0  0  0  2  0  0  0  0  0  0
  194.4230  172.3180  140.0750 O   0  0  0  0  0  0  0  0  0  0  0  0
  191.0330  171.1460  139.8420 C   0  0  0  0  0  0  0  0  0  0  0  0
  190.0560  171.4790  137.4910 C   0  0  1  0  0  3  0  0  0  0  0  0
  193.4500  170.8160  138.4700 C   0  0  1  0  0  3  0  0  0  0  0  0
  190.0680  170.9810  140.6350 O   0  0  0  0  0  0  0  0  0  0  0  0
  192.2320  170.3920  137.7520 N   0  0  1  0  0  0  0  0  0  0  0  0
  193.2400  172.0450  139.3600 C   0  0  1  0  0  3  0  0  0  0  0  0
  190.7150  171.3350  136.1400 C   0  0  0  0  0  2  0  0  0  0  0  0
  192.1830  171.7930  140.2740 O   0  0  0  0  0  0  0  0  0  0  0  0
  190.9380  170.6510  138.4230 C   0  0  1  0  0  3  0  0  0  0  0  0
  192.1790  171.0480  136.4440 C   0  0  2  0  0  3  0  0  0  0  0  0
  193.9370  169.7470  139.2260 O   0  0  0  0  0  1  0  0  0  0  0  0
  189.8580  172.9540  137.9060 C   0  0  1  0  0  3  0  0  0  0  0  0
  190.7150  173.9470  137.1280 C   0  0  0  0  0  1  0  0  0  0  0  0
  188.4130  173.3440  137.8560 C   0  0  0  0  0  3  0  0  0  0  0  0
  188.0140  174.3650  138.3980 O   0  0  0  0  0  0  0  0  0  0  0  0
  192.8380  170.1530  135.3800 C   0  0  2  0  0  3  0  0  0  0  0  0
  192.5200  168.8160  135.6260 O   0  0  0  0  0  1  0  0  0  0  0  0
  194.9750  170.1530  136.5160 O   0  0  0  0  0  1  0  0  0  0  0  0
  194.3650  170.2900  135.2630 C   0  0  2  0  0  3  0  0  0  0  0  0
  194.2070  173.8700  134.9920 N   0  0  0  0  0  0  0  0  0  0  0  0
  195.5950  173.7600  135.3930 C   0  0  0  0  0  2  0  0  0  0  0  0
  194.1370  176.3790  135.4080 C   0  0  0  0  0  1  0  0  0  0  0  0
  193.6210  172.6060  134.5970 C   0  0  0  0  0  2  0  0  0  0  0  0
  192.3050  175.1450  134.5340 O   0  0  0  0  0  0  0  0  0  0  0  0
  194.7680  171.6090  134.5990 C   0  0  1  0  0  3  0  0  0  0  0  0
  195.9120  172.2780  135.3600 C   0  0  0  0  0  2  0  0  0  0  0  0
  193.4910  175.1120  134.9570 C   0  0  0  0  0  0  0  0  0  0  0  0
  193.7680  173.3630  142.5110 C   0  0  0  0  0  2  0  0  0  0  0  0
  193.0080  174.0440  143.6380 C   0  0  0  0  0  2  0  0  0  0  0  0
  191.3280  172.2390  143.9520 C   0  0  0  0  0  3  0  0  0  0  0  0
  191.6020  173.5320  143.7110 C   0  0  0  0  0  0  0  0  0  0  0  0
  192.3840  171.2050  144.2260 C   0  0  0  0  0  2  0  0  0  0  0  0
  193.6100  168.5170  143.0800 C   0  0  1  0  0  3  0  0  0  0  0  0
  192.1990  169.8830  143.4700 C   0  0  2  0  0  3  0  0  0  0  0  0
  192.6660  168.6790  144.2430 C   0  0  0  0  0  2  0  0  0  0  0  0
  193.1620  169.7000  142.4620 O   0  0  0  0  0  0  0  0  0  0  0  0
  195.0510  168.6690  143.5390 C   0  0  0  0  0  2  0  0  0  0  0  0
  195.6060  170.0240  143.1280 C   0  0  0  0  0  2  0  0  0  0  0  0
  197.9350  172.4800  144.4770 N   0  0  0  0  0  2  0  0  0  0  0  0
  197.5190  171.5650  143.4240 C   0  0  0  0  0  2  0  0  0  0  0  0
  196.7200  170.4590  144.0660 C   0  0  1  0  0  3  0  0  0  0  0  0
  196.1560  171.0760  145.3210 C   0  0  1  0  0  3  0  0  0  0  0  0
  196.3150  170.1150  146.4850 C   0  0  0  0  0  1  0  0  0  0  0  0
  196.9800  172.3240  145.5690 C   0  0  0  0  0  2  0  0  0  0  0  0
  190.4980  174.5240  143.4520 C   0  0  1  0  0  3  0  0  0  0  0  0
  188.5540  174.0600  142.1180 O   0  0  0  0  0  1  0  0  0  0  0  0
  190.4970  174.4140  140.9600 O   0  0  0  0  0  0  0  0  0  0  0  0
  189.7860  174.3210  142.1490 C   0  0  0  0  0  0  0  0  0  0  0  0
  189.5640  174.8530  144.6290 C   0  0  2  0  0  3  0  0  0  0  0  0
  188.9810  176.2580  144.5370 C   0  0  0  0  0  1  0  0  0  0  0  0
  189.0670  173.9590  146.7930 O   0  0  0  0  0  1  0  0  0  0  0  0
  190.1000  174.4970  146.0220 C   0  0  2  0  0  3  0  0  0  0  0  0
  190.7220  175.6860  146.7520 C   0  0  0  0  0  2  0  0  0  0  0  0
  192.1940  175.4370  147.0300 C   0  0  0  0  0  2  0  0  0  0  0  0
  193.0250  176.6120  146.5450 C   0  0  0  0  0  2  0  0  0  0  0  0
  193.5980  176.3430  145.1580 C   0  0  0  0  0  2  0  0  0  0  0  0
  195.3300  178.1980  145.4810 C   0  0  0  0  0  1  0  0  0  0  0  0
  195.0560  176.7870  144.9810 C   0  0  2  0  0  3  0  0  0  0  0  0
  196.9510  175.7380  143.6440 C   0  0  0  0  0  1  0  0  0  0  0  0
  195.6400  176.5070  143.5920 C   0  0  0  0  0  2  0  0  0  0  0  0
  1 36  1  0  0  0  0
  2  7  1  6  0  0  0
  2  1  1  0  0  0  0
  3  4  1  0  0  0  0
  4  2  1  0  0  0  0
  5  4  2  0  0  0  0
  6  7  1  0  0  0  0
  8  2  1  0  0  0  0
  9 16  1  0  0  0  0
  9 12  2  0  0  0  0
 10 20  1  1  0  0  0
 10 17  1  0  0  0  0
 11 19  1  1  0  0  0
 11 14  1  0  0  0  0
 13 17  1  0  0  0  0
 13 11  1  0  0  0  0
 14  8  1  0  0  0  0
 14 16  1  0  0  0  0
 15 18  1  0  0  0  0
 15 10  1  0  0  0  0
 17  9  1  0  0  0  0
 18 13  1  0  0  0  0
 21 20  1  0  0  0  0
 22 20  1  0  0  0  0
 22 23  2  0  0  0  0
 24 25  1  0  0  0  0
 24 18  1  0  0  0  0
 27 24  1  0  0  0  0
 27 26  1  0  0  0  0
 28 29  1  0  0  0  0
 31 33  1  0  0  0  0
 31 28  1  0  0  0  0
 32 35  2  0  0  0  0
 33 27  1  0  0  0  0
 33 34  1  0  0  0  0
 34 29  1  0  0  0  0
 35 28  1  0  0  0  0
 35 30  1  0  0  0  0
 36 37  1  0  0  0  0
 37 39  1  0  0  0  0
 38 40  1  0  0  0  0
 39 38  2  0  0  0  0
 41 45  1  0  0  0  0
 41 43  1  0  0  0  0
 42 40  1  0  0  0  0
 42 43  1  0  0  0  0
 44 41  1  0  0  0  0
 44 42  1  0  0  0  0
 46 45  1  0  0  0  0
 46 49  1  0  0  0  0
 47 52  1  0  0  0  0
 48 49  1  0  0  0  0
 48 47  1  0  0  0  0
 49 50  1  0  0  0  0
 50 52  1  0  0  0  0
 50 51  1  0  0  0  0
 53 39  1  0  0  0  0
 53 57  1  0  0  0  0
 54 56  1  0  0  0  0
 55 56  2  0  0  0  0
 56 53  1  0  0  0  0
 57 60  1  0  0  0  0
 58 57  1  0  0  0  0
 60 61  1  0  0  0  0
 60 59  1  0  0  0  0
 61 62  1  0  0  0  0
 63 62  1  0  0  0  0
 64 63  1  0  0  0  0
 66 64  1  0  0  0  0
 66 65  1  0  0  0  0
 68 67  1  0  0  0  0
 68 66  1  0  0  0  0
M  END
>  <MODEL>
9

>  <REMARK>
 VINA RESULT:      -3.2      2.408      5.440
  Name = 
  28 active torsions:
  status: ('A' for Active; 'I' for Inactive)
    1  A    between atoms: C_2  and  C_22
    2  A    between atoms: C_2  and  C_28
    3  A    between atoms: C_3  and  C_33
    4  A    between atoms: C_7  and  C_22
    5  A    between atoms: C_10  and  C_62
    6  A    between atoms: C_12  and  C_50
    7  A    between atoms: C_12  and  C_53
    8  A    between atoms: C_14  and  C_32
    9  A    between atoms: C_14  and  C_51
   10  A    between atoms: C_15  and  C_56
   11  A    between atoms: C_15  and  C_63
   12  A    between atoms: O_20  and  C_24
   13  A    between atoms: O_20  and  C_62
   14  A    between atoms: C_21  and  C_57
   15  A    between atoms: C_21  and  C_66
   16  A    between atoms: C_23  and  C_47
   17  A    between atoms: C_23  and  C_53
   18  A    between atoms: C_25  and  C_52
   19  A    between atoms: C_27  and  C_62
   20  A    between atoms: C_29  and  C_33
   21  A    between atoms: C_32  and  C_50
   22  A    between atoms: C_36  and  C_52
   23  A    between atoms: C_37  and  C_51
   24  A    between atoms: C_38  and  C_62
   25  A    between atoms: C_38  and  C_66
   26  A    between atoms: C_46  and  C_56
   27  A    between atoms: C_47  and  C_57
   28  A    between atoms: C_47  and  C_58
                            x       y       z     vdW  Elec       q    Type
                         _______ _______ _______ _____ _____    ______ ____

>  <TORSDO>
F 28

$$$$
